data_ANUGIA_clean_PM
_symmetry_space_group_name_H-M	'P1'
_cell_length_a	17.583800
_cell_length_b	17.583800
_cell_length_c	17.583800
_cell_angle_alpha	96.829900
_cell_angle_beta	96.829900
_cell_angle_gamma	96.829899
_symmetry_Int_Tables_number 1

loop_
_symmetry_equiv_pos_as_xyz
'x,y,z'

loop_
_atom_site_label
_atom_site_type_symbol
_atom_site_fract_x
_atom_site_fract_y
_atom_site_fract_z
_atom_site_charge
Cu1	Cu	0.307170	0.904660	0.904660	1.205366
Cu2	Cu	0.904660	0.307170	0.904660	1.205366
Cu3	Cu	0.904660	0.904660	0.307170	1.205366
Cu4	Cu	0.851780	0.163170	0.851780	1.192458
Cu5	Cu	0.851780	0.851780	0.163170	1.192458
Cu6	Cu	0.163170	0.851780	0.851780	1.192458
H1	H	0.213100	0.488100	0.838400	0.104319
H2	H	0.183600	0.608600	0.830200	0.113008
H3	H	0.425400	0.567500	0.927100	0.101178
H4	H	0.395300	0.692000	0.927200	0.113217
H5	H	0.235300	0.386500	0.896500	0.099982
H6	H	0.147100	0.298000	0.888100	0.124411
H7	H	0.838400	0.213100	0.488100	0.104319
H8	H	0.830200	0.183600	0.608600	0.113008
H9	H	0.927100	0.425400	0.567500	0.101178
H10	H	0.927200	0.395300	0.692000	0.113217
H11	H	0.896500	0.235300	0.386500	0.099982
H12	H	0.888100	0.147100	0.298000	0.124411
H13	H	0.488100	0.838400	0.213100	0.104319
H14	H	0.608600	0.830200	0.183600	0.113008
H15	H	0.567500	0.927100	0.425400	0.101178
H16	H	0.692000	0.927200	0.395300	0.113217
H17	H	0.386500	0.896500	0.235300	0.099982
H18	H	0.298000	0.888100	0.147100	0.124411
H19	H	0.488100	0.213100	0.838400	0.104319
H20	H	0.608600	0.183600	0.830200	0.113008
H21	H	0.567500	0.425400	0.927100	0.101178
H22	H	0.692000	0.395300	0.927200	0.113217
H23	H	0.386500	0.235300	0.896500	0.099982
H24	H	0.298000	0.147100	0.888100	0.124411
H25	H	0.213100	0.838400	0.488100	0.104319
H26	H	0.183600	0.830200	0.608600	0.113008
H27	H	0.425400	0.927100	0.567500	0.101178
H28	H	0.395300	0.927200	0.692000	0.113217
H29	H	0.235300	0.896500	0.386500	0.099982
H30	H	0.147100	0.888100	0.298000	0.124411
H31	H	0.838400	0.488100	0.213100	0.104319
H32	H	0.830200	0.608600	0.183600	0.113008
H33	H	0.927100	0.567500	0.425400	0.101178
H34	H	0.927200	0.692000	0.395300	0.113217
H35	H	0.896500	0.386500	0.235300	0.099982
H36	H	0.888100	0.298000	0.147100	0.124411
H37	H	0.453850	0.453850	0.883600	0.097872
H38	H	0.070150	0.070150	0.873700	0.152420
H39	H	0.883600	0.453850	0.453850	0.097872
H40	H	0.873700	0.070150	0.070150	0.152423
H41	H	0.453850	0.883600	0.453850	0.097872
H42	H	0.070150	0.873700	0.070150	0.152423
C1	C	0.287300	0.664000	0.882900	0.044273
C2	C	0.251400	0.529500	0.857100	-0.154614
C3	C	0.232300	0.601500	0.852800	0.004358
C4	C	0.323800	0.511700	0.887400	0.053421
C5	C	0.374800	0.574000	0.909700	-0.161749
C6	C	0.356900	0.650600	0.908900	0.000510
C7	C	0.271000	0.746100	0.880700	0.482060
C8	C	0.014200	0.203500	0.880300	0.472543
C9	C	0.343000	0.432600	0.886700	0.048938
C10	C	0.284800	0.373900	0.892900	-0.131178
C11	C	0.097800	0.191000	0.884200	0.059519
C12	C	0.157100	0.247200	0.888100	-0.094711
C13	C	0.882900	0.287300	0.664000	0.044273
C14	C	0.857100	0.251400	0.529500	-0.154614
C15	C	0.852800	0.232300	0.601500	0.004358
C16	C	0.887400	0.323800	0.511700	0.053421
C17	C	0.909700	0.374800	0.574000	-0.161749
C18	C	0.908900	0.356900	0.650600	0.000510
C19	C	0.880700	0.271000	0.746100	0.482060
C20	C	0.880300	0.014200	0.203500	0.472543
C21	C	0.886700	0.343000	0.432600	0.048938
C22	C	0.892900	0.284800	0.373900	-0.131178
C23	C	0.884200	0.097800	0.191000	0.059519
C24	C	0.888100	0.157100	0.247200	-0.094710
C25	C	0.664000	0.882900	0.287300	0.044273
C26	C	0.529500	0.857100	0.251400	-0.154614
C27	C	0.601500	0.852800	0.232300	0.004358
C28	C	0.511700	0.887400	0.323800	0.053421
C29	C	0.574000	0.909700	0.374800	-0.161749
C30	C	0.650600	0.908900	0.356900	0.000510
C31	C	0.746100	0.880700	0.271000	0.482060
C32	C	0.203500	0.880300	0.014200	0.472543
C33	C	0.432600	0.886700	0.343000	0.048938
C34	C	0.373900	0.892900	0.284800	-0.131178
C35	C	0.191000	0.884200	0.097800	0.059519
C36	C	0.247200	0.888100	0.157100	-0.094710
C37	C	0.664000	0.287300	0.882900	0.044273
C38	C	0.529500	0.251400	0.857100	-0.154614
C39	C	0.601500	0.232300	0.852800	0.004358
C40	C	0.511700	0.323800	0.887400	0.053421
C41	C	0.574000	0.374800	0.909700	-0.161749
C42	C	0.650600	0.356900	0.908900	0.000510
C43	C	0.746100	0.271000	0.880700	0.482060
C44	C	0.203500	0.014200	0.880300	0.472543
C45	C	0.432600	0.343000	0.886700	0.048938
C46	C	0.373900	0.284800	0.892900	-0.131178
C47	C	0.191000	0.097800	0.884200	0.059517
C48	C	0.247200	0.157100	0.888100	-0.094710
C49	C	0.287300	0.882900	0.664000	0.044273
C50	C	0.251400	0.857100	0.529500	-0.154614
C51	C	0.232300	0.852800	0.601500	0.004358
C52	C	0.323800	0.887400	0.511700	0.053421
C53	C	0.374800	0.909700	0.574000	-0.161749
C54	C	0.356900	0.908900	0.650600	0.000510
C55	C	0.271000	0.880700	0.746100	0.482060
C56	C	0.014200	0.880300	0.203500	0.472543
C57	C	0.343000	0.886700	0.432600	0.048938
C58	C	0.284800	0.892900	0.373900	-0.131178
C59	C	0.097800	0.884200	0.191000	0.059519
C60	C	0.157100	0.888100	0.247200	-0.094710
C61	C	0.882900	0.664000	0.287300	0.044273
C62	C	0.857100	0.529500	0.251400	-0.154614
C63	C	0.852800	0.601500	0.232300	0.004358
C64	C	0.887400	0.511700	0.323800	0.053421
C65	C	0.909700	0.574000	0.374800	-0.161749
C66	C	0.908900	0.650600	0.356900	0.000510
C67	C	0.880700	0.746100	0.271000	0.482060
C68	C	0.880300	0.203500	0.014200	0.472543
C69	C	0.886700	0.432600	0.343000	0.048938
C70	C	0.892900	0.373900	0.284800	-0.131178
C71	C	0.884200	0.191000	0.097800	0.059519
C72	C	0.888100	0.247200	0.157100	-0.094710
C73	C	0.414250	0.414250	0.885400	-0.143816
C74	C	0.296550	0.296550	0.894000	0.043342
C75	C	0.232350	0.232350	0.892200	0.020974
C76	C	0.110490	0.110500	0.879410	-0.021940
C77	C	0.885400	0.414250	0.414250	-0.143816
C78	C	0.894000	0.296550	0.296550	0.043342
C79	C	0.892200	0.232350	0.232350	0.020974
C80	C	0.879410	0.110490	0.110490	-0.021947
C81	C	0.414250	0.885400	0.414250	-0.143816
C82	C	0.296550	0.894000	0.296550	0.043342
C83	C	0.232350	0.892200	0.232350	0.020974
C84	C	0.110490	0.879410	0.110490	-0.021947
O1	O	0.323300	0.799600	0.901200	-0.666427
O2	O	0.959800	0.149100	0.857100	-0.628171
O3	O	0.006280	0.273950	0.900720	-0.629954
O4	O	0.198690	0.752450	0.856420	-0.628270
O5	O	0.901200	0.323300	0.799600	-0.666427
O6	O	0.857100	0.959800	0.149100	-0.628171
O7	O	0.900720	0.006280	0.273950	-0.629954
O8	O	0.856420	0.198690	0.752450	-0.628270
O9	O	0.799600	0.901200	0.323300	-0.666427
O10	O	0.149100	0.857100	0.959800	-0.628171
O11	O	0.273950	0.900720	0.006280	-0.629954
O12	O	0.752450	0.856420	0.198690	-0.628270
O13	O	0.799600	0.323300	0.901200	-0.666427
O14	O	0.149100	0.959800	0.857100	-0.628172
O15	O	0.273950	0.006280	0.900720	-0.629954
O16	O	0.752450	0.198690	0.856420	-0.628270
O17	O	0.323300	0.901200	0.799600	-0.666427
O18	O	0.959800	0.857100	0.149100	-0.628171
O19	O	0.006280	0.900720	0.273950	-0.629954
O20	O	0.198690	0.856420	0.752450	-0.628270
O21	O	0.901200	0.799600	0.323300	-0.666427
O22	O	0.857100	0.149100	0.959800	-0.628171
O23	O	0.900720	0.273950	0.006280	-0.629954
O24	O	0.856420	0.752450	0.198690	-0.628270
