data_BASJUB_clean_PM
_symmetry_space_group_name_H-M	'P1'
_cell_length_a	13.067800
_cell_length_b	13.067800
_cell_length_c	25.914000
_cell_angle_alpha	90.000000
_cell_angle_beta	90.000000
_cell_angle_gamma	90.000000
_symmetry_Int_Tables_number 1

loop_
_symmetry_equiv_pos_as_xyz
'x,y,z'

loop_
_atom_site_label
_atom_site_type_symbol
_atom_site_fract_x
_atom_site_fract_y
_atom_site_fract_z
_atom_site_charge
Co1	Co	0.750000	0.750000	0.381300	1.175381
Co2	Co	0.250000	0.250000	0.881300	1.175381
Co3	Co	0.250000	0.250000	0.618700	1.175381
Co4	Co	0.750000	0.750000	0.118700	1.175381
H1	H	0.761100	0.885300	0.480000	0.097892
H2	H	0.869700	0.925000	0.550100	0.116892
H3	H	0.093500	0.765700	0.476200	0.118919
H4	H	0.972800	0.726500	0.412200	0.099803
H5	H	0.294400	0.864200	0.580700	0.125588
H6	H	0.210000	0.900400	0.618600	0.129859
H7	H	0.359300	0.708100	0.683200	0.126898
H8	H	0.400700	0.785800	0.643000	0.119197
H9	H	0.214000	0.982000	0.735600	0.116892
H10	H	0.167700	0.119200	0.787800	0.099482
H11	H	0.438900	0.118100	0.854100	0.117110
H12	H	0.490500	0.982900	0.804400	0.134077
H13	H	0.738900	0.614700	0.480000	0.097892
H14	H	0.630300	0.575000	0.550100	0.116892
H15	H	0.406500	0.734300	0.476200	0.118919
H16	H	0.527200	0.773500	0.412200	0.099803
H17	H	0.205600	0.635800	0.580700	0.125588
H18	H	0.290000	0.599600	0.618600	0.129859
H19	H	0.140700	0.791900	0.683200	0.126898
H20	H	0.099300	0.714200	0.643000	0.119197
H21	H	0.286000	0.518000	0.735600	0.116892
H22	H	0.332300	0.380800	0.787800	0.099482
H23	H	0.061100	0.381900	0.854100	0.117110
H24	H	0.009500	0.517100	0.804400	0.134077
H25	H	0.114700	0.261100	0.980000	0.097892
H26	H	0.075000	0.369700	0.050100	0.116892
H27	H	0.234300	0.593500	0.976200	0.118919
H28	H	0.273500	0.472800	0.912200	0.099803
H29	H	0.135800	0.794400	0.080700	0.125588
H30	H	0.099600	0.710000	0.118600	0.129859
H31	H	0.291900	0.859300	0.183200	0.126898
H32	H	0.214200	0.900700	0.143000	0.119197
H33	H	0.018000	0.714000	0.235600	0.116892
H34	H	0.880800	0.667700	0.287800	0.099482
H35	H	0.881900	0.938900	0.354100	0.117110
H36	H	0.017100	0.990500	0.304400	0.134077
H37	H	0.385300	0.238900	0.980000	0.097892
H38	H	0.425000	0.130300	0.050100	0.116892
H39	H	0.265700	0.906500	0.976200	0.118919
H40	H	0.226500	0.027200	0.912200	0.099803
H41	H	0.364200	0.705600	0.080700	0.125588
H42	H	0.400400	0.790000	0.118600	0.129859
H43	H	0.208100	0.640700	0.183200	0.126898
H44	H	0.285800	0.599300	0.143000	0.119197
H45	H	0.482000	0.786000	0.235600	0.116892
H46	H	0.619200	0.832300	0.287800	0.099482
H47	H	0.618100	0.561100	0.354100	0.117110
H48	H	0.482900	0.509500	0.304400	0.134077
H49	H	0.238900	0.114700	0.520000	0.097892
H50	H	0.130300	0.075000	0.449900	0.116892
H51	H	0.906500	0.234300	0.523800	0.118919
H52	H	0.027200	0.273500	0.587800	0.099803
H53	H	0.705600	0.135800	0.419300	0.125588
H54	H	0.790000	0.099600	0.381400	0.129859
H55	H	0.640700	0.291900	0.316800	0.126898
H56	H	0.599300	0.214200	0.357000	0.119197
H57	H	0.786000	0.018000	0.264400	0.116892
H58	H	0.832300	0.880800	0.212200	0.099482
H59	H	0.561100	0.881900	0.145900	0.117110
H60	H	0.509500	0.017100	0.195600	0.134077
H61	H	0.261100	0.385300	0.520000	0.097892
H62	H	0.369700	0.425000	0.449900	0.116892
H63	H	0.593500	0.265700	0.523800	0.118919
H64	H	0.472800	0.226500	0.587800	0.099803
H65	H	0.794400	0.364200	0.419300	0.125588
H66	H	0.710000	0.400400	0.381400	0.129859
H67	H	0.859300	0.208100	0.316800	0.126898
H68	H	0.900700	0.285800	0.357000	0.119197
H69	H	0.714000	0.482000	0.264400	0.116892
H70	H	0.667700	0.619200	0.212200	0.099482
H71	H	0.938900	0.618100	0.145900	0.117110
H72	H	0.990500	0.482900	0.195600	0.134077
H73	H	0.885300	0.738900	0.020000	0.097892
H74	H	0.925000	0.630300	0.949900	0.116892
H75	H	0.765700	0.406500	0.023800	0.118919
H76	H	0.726500	0.527200	0.087800	0.099803
H77	H	0.864200	0.205600	0.919300	0.125588
H78	H	0.900400	0.290000	0.881400	0.129859
H79	H	0.708100	0.140700	0.816800	0.126898
H80	H	0.785800	0.099300	0.857000	0.119197
H81	H	0.982000	0.286000	0.764400	0.116892
H82	H	0.119200	0.332300	0.712200	0.099482
H83	H	0.118100	0.061100	0.645900	0.117110
H84	H	0.982900	0.009500	0.695600	0.134077
H85	H	0.614700	0.761100	0.020000	0.097892
H86	H	0.575000	0.869700	0.949900	0.116892
H87	H	0.734300	0.093500	0.023800	0.118919
H88	H	0.773500	0.972800	0.087800	0.099803
H89	H	0.635800	0.294400	0.919300	0.125588
H90	H	0.599600	0.210000	0.881400	0.129859
H91	H	0.791900	0.359300	0.816800	0.126898
H92	H	0.714200	0.400700	0.857000	0.119197
H93	H	0.518000	0.214000	0.764400	0.116892
H94	H	0.380800	0.167700	0.712200	0.099482
H95	H	0.381900	0.438900	0.645900	0.117110
H96	H	0.517100	0.490500	0.695600	0.134077
C1	C	0.829000	0.859000	0.480200	0.097287
C2	C	0.893000	0.885000	0.522100	-0.082179
C3	C	0.994000	0.847000	0.519900	0.060471
C4	C	0.025000	0.790000	0.478900	-0.073321
C5	C	0.952000	0.768000	0.440500	0.097172
C6	C	0.063000	0.869000	0.565100	0.363918
C7	C	0.232000	0.846000	0.597200	0.081716
C8	C	0.344000	0.768000	0.663800	0.083181
C9	C	0.390000	0.885000	0.730900	0.334472
C10	C	0.359000	0.969000	0.763500	0.053950
C11	C	0.262000	0.010000	0.759500	-0.072679
C12	C	0.235000	0.091000	0.791000	0.089767
C13	C	0.392000	0.091000	0.829600	0.092963
C14	C	0.424000	0.010000	0.800000	-0.090503
C15	C	0.671000	0.641000	0.480200	0.097287
C16	C	0.607000	0.615000	0.522100	-0.082179
C17	C	0.506000	0.653000	0.519900	0.060471
C18	C	0.475000	0.710000	0.478900	-0.073321
C19	C	0.548000	0.732000	0.440500	0.097172
C20	C	0.437000	0.631000	0.565100	0.363918
C21	C	0.268000	0.654000	0.597200	0.081716
C22	C	0.156000	0.732000	0.663800	0.083181
C23	C	0.110000	0.615000	0.730900	0.334472
C24	C	0.141000	0.531000	0.763500	0.053950
C25	C	0.238000	0.490000	0.759500	-0.072679
C26	C	0.265000	0.409000	0.791000	0.089767
C27	C	0.108000	0.409000	0.829600	0.092963
C28	C	0.076000	0.490000	0.800000	-0.090503
C29	C	0.141000	0.329000	0.980200	0.097287
C30	C	0.115000	0.393000	0.022100	-0.082179
C31	C	0.153000	0.494000	0.019900	0.060471
C32	C	0.210000	0.525000	0.978900	-0.073321
C33	C	0.232000	0.452000	0.940500	0.097172
C34	C	0.131000	0.563000	0.065100	0.363918
C35	C	0.154000	0.732000	0.097200	0.081716
C36	C	0.232000	0.844000	0.163800	0.083181
C37	C	0.115000	0.890000	0.230900	0.334472
C38	C	0.031000	0.859000	0.263500	0.053950
C39	C	0.990000	0.762000	0.259500	-0.072679
C40	C	0.909000	0.735000	0.291000	0.089767
C41	C	0.909000	0.892000	0.329600	0.092963
C42	C	0.990000	0.924000	0.300000	-0.090503
C43	C	0.359000	0.171000	0.980200	0.097287
C44	C	0.385000	0.107000	0.022100	-0.082179
C45	C	0.347000	0.006000	0.019900	0.060471
C46	C	0.290000	0.975000	0.978900	-0.073321
C47	C	0.268000	0.048000	0.940500	0.097172
C48	C	0.369000	0.937000	0.065100	0.363918
C49	C	0.346000	0.768000	0.097200	0.081716
C50	C	0.268000	0.656000	0.163800	0.083181
C51	C	0.385000	0.610000	0.230900	0.334472
C52	C	0.469000	0.641000	0.263500	0.053950
C53	C	0.510000	0.738000	0.259500	-0.072679
C54	C	0.591000	0.765000	0.291000	0.089767
C55	C	0.591000	0.608000	0.329600	0.092963
C56	C	0.510000	0.576000	0.300000	-0.090503
C57	C	0.250000	0.750000	0.630600	0.016992
C58	C	0.250000	0.750000	0.130600	0.016992
C59	C	0.171000	0.141000	0.519800	0.097287
C60	C	0.107000	0.115000	0.477900	-0.082179
C61	C	0.006000	0.153000	0.480100	0.060471
C62	C	0.975000	0.210000	0.521100	-0.073321
C63	C	0.048000	0.232000	0.559500	0.097172
C64	C	0.937000	0.131000	0.434900	0.363918
C65	C	0.768000	0.154000	0.402800	0.081716
C66	C	0.656000	0.232000	0.336200	0.083181
C67	C	0.610000	0.115000	0.269100	0.334472
C68	C	0.641000	0.031000	0.236500	0.053950
C69	C	0.738000	0.990000	0.240500	-0.072679
C70	C	0.765000	0.909000	0.209000	0.089767
C71	C	0.608000	0.909000	0.170400	0.092963
C72	C	0.576000	0.990000	0.200000	-0.090503
C73	C	0.329000	0.359000	0.519800	0.097287
C74	C	0.393000	0.385000	0.477900	-0.082179
C75	C	0.494000	0.347000	0.480100	0.060471
C76	C	0.525000	0.290000	0.521100	-0.073321
C77	C	0.452000	0.268000	0.559500	0.097172
C78	C	0.563000	0.369000	0.434900	0.363918
C79	C	0.732000	0.346000	0.402800	0.081716
C80	C	0.844000	0.268000	0.336200	0.083181
C81	C	0.890000	0.385000	0.269100	0.334472
C82	C	0.859000	0.469000	0.236500	0.053950
C83	C	0.762000	0.510000	0.240500	-0.072679
C84	C	0.735000	0.591000	0.209000	0.089767
C85	C	0.892000	0.591000	0.170400	0.092963
C86	C	0.924000	0.510000	0.200000	-0.090503
C87	C	0.859000	0.671000	0.019800	0.097287
C88	C	0.885000	0.607000	0.977900	-0.082179
C89	C	0.847000	0.506000	0.980100	0.060471
C90	C	0.790000	0.475000	0.021100	-0.073321
C91	C	0.768000	0.548000	0.059500	0.097172
C92	C	0.869000	0.437000	0.934900	0.363918
C93	C	0.846000	0.268000	0.902800	0.081716
C94	C	0.768000	0.156000	0.836200	0.083181
C95	C	0.885000	0.110000	0.769100	0.334472
C96	C	0.969000	0.141000	0.736500	0.053950
C97	C	0.010000	0.238000	0.740500	-0.072679
C98	C	0.091000	0.265000	0.709000	0.089767
C99	C	0.091000	0.108000	0.670400	0.092963
C100	C	0.010000	0.076000	0.700000	-0.090503
C101	C	0.641000	0.829000	0.019800	0.097287
C102	C	0.615000	0.893000	0.977900	-0.082179
C103	C	0.653000	0.994000	0.980100	0.060471
C104	C	0.710000	0.025000	0.021100	-0.073321
C105	C	0.732000	0.952000	0.059500	0.097172
C106	C	0.631000	0.063000	0.934900	0.363918
C107	C	0.654000	0.232000	0.902800	0.081716
C108	C	0.732000	0.344000	0.836200	0.083181
C109	C	0.615000	0.390000	0.769100	0.334472
C110	C	0.531000	0.359000	0.736500	0.053950
C111	C	0.490000	0.262000	0.740500	-0.072679
C112	C	0.409000	0.235000	0.709000	0.089767
C113	C	0.409000	0.392000	0.670400	0.092963
C114	C	0.490000	0.424000	0.700000	-0.090503
C115	C	0.750000	0.250000	0.369400	0.016992
C116	C	0.750000	0.250000	0.869400	0.016992
N1	N	0.857000	0.800000	0.441000	-0.443852
N2	N	0.298000	0.133000	0.825600	-0.452773
N3	N	0.643000	0.700000	0.441000	-0.443852
N4	N	0.202000	0.367000	0.825600	-0.452773
N5	N	0.200000	0.357000	0.941000	-0.443852
N6	N	0.867000	0.798000	0.325600	-0.452773
N7	N	0.300000	0.143000	0.941000	-0.443852
N8	N	0.633000	0.702000	0.325600	-0.452773
N9	N	0.143000	0.200000	0.559000	-0.443852
N10	N	0.702000	0.867000	0.174400	-0.452773
N11	N	0.357000	0.300000	0.559000	-0.443852
N12	N	0.798000	0.633000	0.174400	-0.452773
N13	N	0.800000	0.643000	0.059000	-0.443852
N14	N	0.133000	0.202000	0.674400	-0.452773
N15	N	0.700000	0.857000	0.059000	-0.443852
N16	N	0.367000	0.298000	0.674400	-0.452773
Cl1	Cl	0.672200	0.917600	0.381000	-0.491117
Cl2	Cl	0.827800	0.582400	0.381000	-0.491117
Cl3	Cl	0.082400	0.172200	0.881000	-0.491117
Cl4	Cl	0.417600	0.327800	0.881000	-0.491117
Cl5	Cl	0.327800	0.082400	0.619000	-0.491117
Cl6	Cl	0.172200	0.417600	0.619000	-0.491117
Cl7	Cl	0.917600	0.827800	0.119000	-0.491117
Cl8	Cl	0.582400	0.672200	0.119000	-0.491117
O1	O	0.037000	0.920000	0.601100	-0.427511
O2	O	0.154100	0.825500	0.557900	-0.462471
O3	O	0.317100	0.850900	0.697700	-0.445998
O4	O	0.474000	0.845000	0.732300	-0.311287
O5	O	0.463000	0.580000	0.601100	-0.427511
O6	O	0.345900	0.674500	0.557900	-0.462471
O7	O	0.182900	0.649100	0.697700	-0.445998
O8	O	0.026000	0.655000	0.732300	-0.311287
O9	O	0.080000	0.537000	0.101100	-0.427511
O10	O	0.174500	0.654100	0.057900	-0.462471
O11	O	0.149100	0.817100	0.197700	-0.445998
O12	O	0.155000	0.974000	0.232300	-0.311287
O13	O	0.420000	0.963000	0.101100	-0.427511
O14	O	0.325500	0.845900	0.057900	-0.462471
O15	O	0.350900	0.682900	0.197700	-0.445998
O16	O	0.345000	0.526000	0.232300	-0.311287
O17	O	0.963000	0.080000	0.398900	-0.427511
O18	O	0.845900	0.174500	0.442100	-0.462471
O19	O	0.682900	0.149100	0.302300	-0.445998
O20	O	0.526000	0.155000	0.267700	-0.311287
O21	O	0.537000	0.420000	0.398900	-0.427511
O22	O	0.654100	0.325500	0.442100	-0.462471
O23	O	0.817100	0.350900	0.302300	-0.445998
O24	O	0.974000	0.345000	0.267700	-0.311287
O25	O	0.920000	0.463000	0.898900	-0.427511
O26	O	0.825500	0.345900	0.942100	-0.462471
O27	O	0.850900	0.182900	0.802300	-0.445998
O28	O	0.845000	0.026000	0.767700	-0.311287
O29	O	0.580000	0.037000	0.898900	-0.427511
O30	O	0.674500	0.154100	0.942100	-0.462471
O31	O	0.649100	0.317100	0.802300	-0.445998
O32	O	0.655000	0.474000	0.767700	-0.311287
