data_BIHMUC_clean_PM
_symmetry_space_group_name_H-M	'P1'
_cell_length_a	10.040600
_cell_length_b	11.214200
_cell_length_c	14.310000
_cell_angle_alpha	87.454001
_cell_angle_beta	84.296002
_cell_angle_gamma	68.866999
_symmetry_Int_Tables_number 1

loop_
_symmetry_equiv_pos_as_xyz
'x,y,z'

loop_
_atom_site_label
_atom_site_type_symbol
_atom_site_fract_x
_atom_site_fract_y
_atom_site_fract_z
_atom_site_charge
Co1	Co	0.828730	0.063910	0.420170	1.348223
Co2	Co	0.171270	0.936090	0.579830	1.348223
Co3	Co	0.000000	0.500000	-0.000000	1.199580
H1	H	0.621300	0.953000	0.589500	0.162036
H2	H	0.527200	0.730600	0.792500	0.148670
H3	H	0.918000	0.758100	0.763900	0.152082
H4	H	0.095500	0.212900	0.977900	0.074579
H5	H	0.258900	0.041300	0.896300	0.103101
H6	H	0.432100	0.074400	0.788900	0.088788
H7	H	0.243400	0.448800	0.837100	0.123215
H8	H	0.614300	0.194700	0.581400	0.118861
H9	H	0.853400	0.337600	0.416200	0.115014
H10	H	0.591800	0.549100	0.625700	0.124741
H11	H	0.048600	0.543700	0.275300	0.106022
H12	H	0.138000	0.694000	0.208200	0.104976
H13	H	0.052100	0.898400	0.265100	0.099763
H14	H	0.789700	0.810400	0.451200	0.134320
H15	H	0.528500	0.215100	0.715900	0.189829
H16	H	0.871000	0.505300	0.377800	0.210517
H17	H	0.378700	0.047000	0.410500	0.162036
H18	H	0.472800	0.269400	0.207500	0.148670
H19	H	0.082000	0.241900	0.236100	0.152082
H20	H	0.904500	0.787100	0.022100	0.074579
H21	H	0.741100	0.958700	0.103700	0.103101
H22	H	0.567900	0.925600	0.211100	0.088788
H23	H	0.756600	0.551200	0.162900	0.123215
H24	H	0.385700	0.805300	0.418600	0.118861
H25	H	0.146600	0.662400	0.583800	0.115014
H26	H	0.408200	0.450900	0.374300	0.124741
H27	H	0.951400	0.456300	0.724700	0.106022
H28	H	0.862000	0.306000	0.791800	0.104976
H29	H	0.947900	0.101600	0.734900	0.099763
H30	H	0.210300	0.189600	0.548800	0.134320
H31	H	0.471500	0.784900	0.284100	0.189829
H32	H	0.129000	0.494700	0.622200	0.210517
C1	C	0.890700	0.916800	0.618600	0.495447
C2	C	0.786500	0.865100	0.669000	0.031880
C3	C	0.648500	0.897300	0.640100	-0.063948
C4	C	0.552300	0.847300	0.685800	0.052051
C5	C	0.406500	0.880700	0.651100	0.386820
C6	C	0.592600	0.763200	0.761200	-0.115063
C7	C	0.729300	0.727600	0.789800	0.042252
C8	C	0.777000	0.633000	0.869100	0.415163
C9	C	0.826700	0.780200	0.744000	-0.073370
C10	C	0.160800	0.227100	0.932100	0.093969
C11	C	0.260200	0.123100	0.884600	-0.112073
C12	C	0.361100	0.142900	0.819600	-0.027804
C13	C	0.354600	0.265900	0.801200	0.131624
C14	C	0.248500	0.365400	0.850400	0.106790
C15	C	0.468800	0.387500	0.693800	0.275752
C16	C	0.586000	0.373000	0.616200	0.020611
C17	C	0.644300	0.262700	0.564300	0.090816
C18	C	0.785100	0.346500	0.466900	0.089584
C19	C	0.732000	0.461800	0.515000	0.023399
C20	C	0.629600	0.473600	0.591700	-0.061212
C21	C	0.782900	0.569000	0.488700	0.214766
C22	C	0.909000	0.662400	0.371700	0.119221
C23	C	0.014200	0.626900	0.297900	-0.020356
C24	C	0.067200	0.716100	0.258100	-0.137886
C25	C	0.015300	0.838600	0.292500	0.104306
C26	C	0.861600	0.785900	0.402000	0.097627
C27	C	0.109300	0.083200	0.381400	0.495447
C28	C	0.213500	0.134900	0.331000	0.031880
C29	C	0.351500	0.102700	0.359900	-0.063948
C30	C	0.447700	0.152700	0.314200	0.052051
C31	C	0.593500	0.119300	0.348900	0.386820
C32	C	0.407400	0.236800	0.238800	-0.115063
C33	C	0.270700	0.272400	0.210200	0.042252
C34	C	0.223000	0.367000	0.130900	0.415163
C35	C	0.173300	0.219800	0.256000	-0.073370
C36	C	0.839200	0.772900	0.067900	0.093969
C37	C	0.739800	0.876900	0.115400	-0.112073
C38	C	0.638900	0.857100	0.180400	-0.027804
C39	C	0.645400	0.734100	0.198800	0.131624
C40	C	0.751500	0.634600	0.149600	0.106790
C41	C	0.531200	0.612500	0.306200	0.275752
C42	C	0.414000	0.627000	0.383800	0.020611
C43	C	0.355700	0.737300	0.435700	0.090816
C44	C	0.214900	0.653500	0.533100	0.089584
C45	C	0.268000	0.538200	0.485000	0.023399
C46	C	0.370400	0.526400	0.408300	-0.061212
C47	C	0.217100	0.431000	0.511300	0.214766
C48	C	0.091000	0.337600	0.628300	0.119221
C49	C	0.985800	0.373100	0.702100	-0.020356
C50	C	0.932800	0.283900	0.741900	-0.137886
C51	C	0.984700	0.161400	0.707500	0.104306
C52	C	0.138400	0.214100	0.598000	0.097627
N1	N	0.154500	0.346100	0.915400	-0.439792
N2	N	0.459500	0.284300	0.733500	-0.428861
N3	N	0.742900	0.247800	0.489800	-0.364247
N4	N	0.853300	0.571200	0.412100	-0.427080
N5	N	0.914300	0.874200	0.363700	-0.407593
N6	N	0.845500	0.653900	0.084600	-0.439792
N7	N	0.540500	0.715700	0.266500	-0.428861
N8	N	0.257100	0.752200	0.510200	-0.364247
N9	N	0.146700	0.428800	0.587900	-0.427080
N10	N	0.085700	0.125800	0.636300	-0.407593
O1	O	0.852700	0.992800	0.551900	-0.724791
O2	O	0.014500	0.881700	0.647100	-0.666600
O3	O	0.907100	0.595700	0.883000	-0.719170
O4	O	0.684500	0.599400	0.916500	-0.362500
O5	O	0.381100	0.940100	0.574600	-0.569983
O6	O	0.310000	0.849600	0.697700	-0.494381
O7	O	0.656600	0.690300	0.492600	-0.267168
O8	O	0.365400	0.492200	0.704500	-0.312728
O9	O	0.147300	0.007200	0.448100	-0.724791
O10	O	0.985500	0.118300	0.352900	-0.666600
O11	O	0.092900	0.404300	0.117000	-0.719170
O12	O	0.315500	0.400600	0.083500	-0.362500
O13	O	0.618900	0.059900	0.425400	-0.569983
O14	O	0.690000	0.150400	0.302300	-0.494381
O15	O	0.343400	0.309700	0.507400	-0.267168
O16	O	0.634600	0.507800	0.295500	-0.312728
