data_CAZFOA_clean_PM
_symmetry_space_group_name_H-M	'P1'
_cell_length_a	10.354700
_cell_length_b	10.517200
_cell_length_c	12.390000
_cell_angle_alpha	70.645998
_cell_angle_beta	89.450999
_cell_angle_gamma	63.849000
_symmetry_Int_Tables_number 1

loop_
_symmetry_equiv_pos_as_xyz
'x,y,z'

loop_
_atom_site_label
_atom_site_type_symbol
_atom_site_fract_x
_atom_site_fract_y
_atom_site_fract_z
_atom_site_charge
Co1	Co	0.000000	0.000000	0.000000	1.352790
Co2	Co	0.000000	0.500000	0.000000	1.207893
H1	H	0.386700	0.462900	0.775200	0.194446
H2	H	0.717300	0.452100	0.019300	0.101310
H3	H	0.841500	0.659800	0.751800	0.095868
H4	H	0.665800	0.678700	0.629400	0.097802
H5	H	0.538400	0.463500	0.904300	0.098810
H6	H	0.401100	0.779500	0.334000	0.111894
H7	H	0.284800	0.893700	0.147600	0.128206
H8	H	0.989200	0.761600	0.233800	0.097975
H9	H	0.095600	0.647900	0.425000	0.099844
H10	H	0.689100	0.012400	0.321300	0.099538
H11	H	0.813700	0.945700	0.498400	0.091122
H12	H	0.061100	0.130000	0.344100	0.105599
H13	H	0.613300	0.537100	0.224800	0.194446
H14	H	0.282700	0.547900	0.980700	0.101310
H15	H	0.158500	0.340200	0.248200	0.095868
H16	H	0.334200	0.321300	0.370600	0.097802
H17	H	0.461600	0.536500	0.095700	0.098810
H18	H	0.598900	0.220500	0.666000	0.111894
H19	H	0.715200	0.106300	0.852400	0.128206
H20	H	0.010800	0.238400	0.766200	0.097975
H21	H	0.904400	0.352100	0.575000	0.099844
H22	H	0.310900	0.987600	0.678700	0.099538
H23	H	0.186300	0.054300	0.501600	0.091122
H24	H	0.938900	0.870000	0.655900	0.105599
C1	C	0.708600	0.496000	0.939300	0.113496
C2	C	0.781200	0.617500	0.783200	0.095664
C3	C	0.674300	0.631100	0.708900	-0.116197
C4	C	0.580400	0.574500	0.751700	0.049230
C5	C	0.599100	0.504300	0.871000	-0.058875
C6	C	0.467500	0.585500	0.673400	0.186115
C7	C	0.330300	0.639500	0.523500	0.167119
C8	C	0.259500	0.704900	0.401700	0.058083
C9	C	0.315600	0.776800	0.316000	-0.108382
C10	C	0.245500	0.844500	0.204200	0.100464
C11	C	0.071700	0.767800	0.254800	0.097772
C12	C	0.135300	0.698300	0.369800	-0.141976
C13	C	0.731800	0.111300	0.112500	0.393515
C14	C	0.809700	0.094900	0.222900	0.020053
C15	C	0.768700	0.030600	0.325000	-0.050352
C16	C	0.842000	0.992800	0.431800	-0.128324
C17	C	0.957600	0.023800	0.441900	0.032386
C18	C	0.989900	0.099900	0.339800	-0.078054
C19	C	0.921000	0.133600	0.230900	0.037373
C20	C	0.967800	0.218200	0.127700	0.477893
C21	C	0.291400	0.504000	0.060700	0.113496
C22	C	0.218800	0.382500	0.216800	0.095664
C23	C	0.325700	0.368900	0.291100	-0.116197
C24	C	0.419600	0.425500	0.248300	0.049230
C25	C	0.400900	0.495700	0.129000	-0.058875
C26	C	0.532500	0.414500	0.326600	0.186115
C27	C	0.669700	0.360500	0.476500	0.167119
C28	C	0.740500	0.295100	0.598300	0.058083
C29	C	0.684400	0.223200	0.684000	-0.108382
C30	C	0.754500	0.155500	0.795800	0.100464
C31	C	0.928300	0.232200	0.745200	0.097772
C32	C	0.864700	0.301700	0.630200	-0.141976
C33	C	0.268200	0.888700	0.887500	0.393515
C34	C	0.190300	0.905100	0.777100	0.020053
C35	C	0.231300	0.969400	0.675000	-0.050352
C36	C	0.158000	0.007200	0.568200	-0.128324
C37	C	0.042400	0.976200	0.558100	0.032386
C38	C	0.010100	0.900100	0.660200	-0.078054
C39	C	0.079000	0.866400	0.769100	0.037373
C40	C	0.032200	0.781800	0.872300	0.477893
N1	N	0.384800	0.517800	0.705500	-0.315944
N2	N	0.296000	0.549900	0.610100	-0.105090
N3	N	0.436400	0.663700	0.558900	-0.252996
N4	N	0.803400	0.547300	0.897700	-0.416989
N5	N	0.122900	0.843500	0.171900	-0.383861
N6	N	0.615200	0.482200	0.294500	-0.315944
N7	N	0.704000	0.450100	0.389900	-0.105090
N8	N	0.563600	0.336300	0.441100	-0.252996
N9	N	0.196600	0.452700	0.102300	-0.416989
N10	N	0.877100	0.156500	0.828100	-0.383861
O1	O	0.979300	0.330000	0.133000	-0.698413
O2	O	0.994100	0.177200	0.041500	-0.632034
O3	O	0.596200	0.188900	0.092100	-0.334763
O4	O	0.804200	0.035400	0.053700	-0.609670
O5	O	0.020700	0.670000	0.867000	-0.698413
O6	O	0.005900	0.822800	0.958500	-0.632034
O7	O	0.403800	0.811100	0.907900	-0.334763
O8	O	0.195800	0.964600	0.946300	-0.609670
