data_CEGWER_clean_PM
_symmetry_space_group_name_H-M	'P1'
_cell_length_a	7.260300
_cell_length_b	10.352300
_cell_length_c	18.692000
_cell_angle_alpha	90.000000
_cell_angle_beta	94.087002
_cell_angle_gamma	90.000000
_symmetry_Int_Tables_number 1

loop_
_symmetry_equiv_pos_as_xyz
'x,y,z'

loop_
_atom_site_label
_atom_site_type_symbol
_atom_site_fract_x
_atom_site_fract_y
_atom_site_fract_z
_atom_site_charge
Ca1	Ca	0.746950	0.257200	0.867080	1.247765
Ca2	Ca	0.753050	0.757200	0.632920	1.247765
Ca3	Ca	0.253050	0.742800	0.132920	1.247765
Ca4	Ca	0.246950	0.242800	0.367080	1.247765
P1	P	0.823660	0.434390	0.700060	0.994840
P2	P	0.676340	0.934390	0.799940	0.994840
P3	P	0.176340	0.565610	0.299940	0.994840
P4	P	0.323660	0.065610	0.200060	0.994840
H1	H	0.121300	0.417200	0.794800	0.126461
H2	H	0.238200	0.461800	0.732100	0.138478
H3	H	0.991700	0.301400	0.588300	0.147170
H4	H	0.184100	0.249400	0.618600	0.150890
H5	H	0.311400	0.453000	0.619600	0.145260
H6	H	0.117400	0.517800	0.604800	0.146019
H7	H	0.487400	0.153700	0.766000	0.352164
H8	H	0.716800	0.422300	0.576300	0.330558
H9	H	0.871500	0.053300	0.696700	0.439075
H10	H	0.378700	0.917200	0.705200	0.126461
H11	H	0.261800	0.961800	0.767900	0.138478
H12	H	0.508300	0.801400	0.911700	0.147170
H13	H	0.315900	0.749400	0.881400	0.150890
H14	H	0.188600	0.953000	0.880400	0.145260
H15	H	0.382600	0.017800	0.895200	0.146019
H16	H	0.012600	0.653700	0.734000	0.352164
H17	H	0.783200	0.922300	0.923700	0.330558
H18	H	0.628500	0.553300	0.803300	0.439075
H19	H	0.878700	0.582800	0.205200	0.126461
H20	H	0.761800	0.538200	0.267900	0.138478
H21	H	0.008300	0.698600	0.411700	0.147170
H22	H	0.815900	0.750600	0.381400	0.150890
H23	H	0.688600	0.547000	0.380400	0.145260
H24	H	0.882600	0.482200	0.395200	0.146019
H25	H	0.512600	0.846300	0.234000	0.352164
H26	H	0.283200	0.577700	0.423700	0.330558
H27	H	0.128500	0.946700	0.303300	0.439075
H28	H	0.621300	0.082800	0.294800	0.126461
H29	H	0.738200	0.038200	0.232100	0.138478
H30	H	0.491700	0.198600	0.088300	0.147170
H31	H	0.684100	0.250600	0.118600	0.150890
H32	H	0.811400	0.047000	0.119600	0.145260
H33	H	0.617400	0.982200	0.104800	0.146019
H34	H	0.987400	0.346300	0.266000	0.352164
H35	H	0.216800	0.077700	0.076300	0.330558
H36	H	0.371500	0.446700	0.196700	0.439075
C1	C	0.335000	0.296500	0.779400	0.455381
C2	C	0.182900	0.387100	0.753510	-0.155687
C3	C	0.035000	0.330300	0.698280	0.002547
C4	C	0.098400	0.320900	0.620720	-0.117855
C5	C	0.191400	0.443300	0.593910	-0.140454
C6	C	0.216200	0.441400	0.514500	0.461330
C7	C	0.978500	0.200400	0.726600	0.487871
C8	C	0.165000	0.796500	0.720600	0.455381
C9	C	0.317100	0.887100	0.746490	-0.155687
C10	C	0.465000	0.830300	0.801720	0.002547
C11	C	0.401600	0.820900	0.879280	-0.117855
C12	C	0.308600	0.943300	0.906090	-0.140454
C13	C	0.283800	0.941400	0.985500	0.461330
C14	C	0.521500	0.700400	0.773400	0.487871
C15	C	0.665000	0.703500	0.220600	0.455381
C16	C	0.817100	0.612900	0.246490	-0.155687
C17	C	0.965000	0.669700	0.301720	0.002547
C18	C	0.901600	0.679100	0.379280	-0.117855
C19	C	0.808600	0.556700	0.406090	-0.140454
C20	C	0.783800	0.558600	0.485500	0.461330
C21	C	0.021500	0.799600	0.273400	0.487871
C22	C	0.835000	0.203500	0.279400	0.455381
C23	C	0.682900	0.112900	0.253510	-0.155687
C24	C	0.535000	0.169700	0.198280	0.002547
C25	C	0.598400	0.179100	0.120720	-0.117855
C26	C	0.691400	0.056700	0.093910	-0.140454
C27	C	0.716200	0.058600	0.014500	0.461330
C28	C	0.478500	0.299600	0.226600	0.487871
O1	O	0.417900	0.309400	0.838700	-0.478589
O2	O	0.372300	0.204000	0.735280	-0.528674
O3	O	0.186200	0.349400	0.475650	-0.579813
O4	O	0.275800	0.552500	0.492320	-0.448332
O5	O	0.982200	0.176800	0.790760	-0.530134
O6	O	0.919000	0.117100	0.677540	-0.715675
O7	O	0.747100	0.411000	0.772560	-0.651944
O8	O	0.889300	0.572900	0.692190	-0.708347
O9	O	0.691400	0.395400	0.637280	-0.570304
O10	O	0.082100	0.809400	0.661300	-0.478589
O11	O	0.127700	0.704000	0.764720	-0.528674
O12	O	0.313800	0.849400	0.024350	-0.579813
O13	O	0.224200	0.052500	0.007680	-0.448332
O14	O	0.517800	0.676800	0.709240	-0.530134
O15	O	0.581000	0.617100	0.822460	-0.715675
O16	O	0.752900	0.911000	0.727440	-0.651944
O17	O	0.610700	0.072900	0.807810	-0.708347
O18	O	0.808600	0.895400	0.862720	-0.570304
O19	O	0.582100	0.690600	0.161300	-0.478589
O20	O	0.627700	0.796000	0.264720	-0.528674
O21	O	0.813800	0.650600	0.524350	-0.579813
O22	O	0.724200	0.447500	0.507680	-0.448332
O23	O	0.017800	0.823200	0.209240	-0.530134
O24	O	0.081000	0.882900	0.322460	-0.715675
O25	O	0.252900	0.589000	0.227440	-0.651944
O26	O	0.110700	0.427100	0.307810	-0.708347
O27	O	0.308600	0.604600	0.362720	-0.570304
O28	O	0.917900	0.190600	0.338700	-0.478589
O29	O	0.872300	0.296000	0.235280	-0.528674
O30	O	0.686200	0.150600	0.975650	-0.579813
O31	O	0.775800	0.947500	0.992320	-0.448332
O32	O	0.482200	0.323200	0.290760	-0.530134
O33	O	0.419000	0.382900	0.177540	-0.715675
O34	O	0.247100	0.089000	0.272560	-0.651944
O35	O	0.389300	0.927100	0.192190	-0.708347
O36	O	0.191400	0.104600	0.137280	-0.570304
