data_CETVAA_clean_PM
_symmetry_space_group_name_H-M	'P1'
_cell_length_a	11.752600
_cell_length_b	11.752600
_cell_length_c	11.832300
_cell_angle_alpha	91.781202
_cell_angle_beta	91.781202
_cell_angle_gamma	105.187001
_symmetry_Int_Tables_number 1

loop_
_symmetry_equiv_pos_as_xyz
'x,y,z'

loop_
_atom_site_label
_atom_site_type_symbol
_atom_site_fract_x
_atom_site_fract_y
_atom_site_fract_z
_atom_site_charge
Cu1	Cu	0.129450	0.731220	0.530170	1.059636
Cu2	Cu	0.731220	0.129450	0.030170	1.059636
H1	H	0.125600	0.565400	0.725100	0.085697
H2	H	0.031500	0.521900	0.893200	0.090423
H3	H	0.889800	0.798200	0.850300	0.123715
H4	H	0.986800	0.832600	0.682800	0.103352
H5	H	0.617000	0.635800	0.088600	0.100635
H6	H	0.743100	0.698900	0.942400	0.108031
H7	H	0.974400	0.532000	0.075000	0.094368
H8	H	0.850700	0.471900	0.224100	0.094444
H9	H	0.960900	0.213700	0.932000	0.095268
H10	H	0.157900	0.304300	0.972200	0.091460
H11	H	0.077100	0.355700	0.297300	0.114947
H12	H	0.881700	0.266500	0.246400	0.081513
H13	H	0.460200	0.548800	0.355800	0.095320
H14	H	0.258000	0.479400	0.314300	0.117388
H15	H	0.325900	0.303100	0.034400	0.099287
H16	H	0.528100	0.372500	0.076600	0.102943
H17	H	0.791800	0.372000	0.938700	0.071261
H18	H	0.783000	0.461800	0.767800	0.096720
H19	H	0.702300	0.137500	0.612000	0.094317
H20	H	0.711600	0.057000	0.786600	0.095863
H21	H	0.530900	0.302700	0.341400	0.092762
H22	H	0.574000	0.226000	0.511700	0.088860
H23	H	0.857400	0.506800	0.571000	0.110086
H24	H	0.815300	0.585500	0.399900	0.118030
H25	H	0.565400	0.125600	0.225100	0.085697
H26	H	0.521900	0.031500	0.393200	0.090423
H27	H	0.798200	0.889800	0.350300	0.123715
H28	H	0.832600	0.986800	0.182800	0.103352
H29	H	0.635800	0.617000	0.588600	0.100635
H30	H	0.698900	0.743100	0.442400	0.108031
H31	H	0.532000	0.974400	0.575000	0.094368
H32	H	0.471900	0.850700	0.724100	0.094444
H33	H	0.213700	0.960900	0.432000	0.095268
H34	H	0.304300	0.157900	0.472200	0.091460
H35	H	0.355700	0.077100	0.797300	0.114947
H36	H	0.266500	0.881700	0.746400	0.081513
H37	H	0.548800	0.460200	0.855800	0.095320
H38	H	0.479400	0.258000	0.814300	0.117388
H39	H	0.303100	0.325900	0.534400	0.099287
H40	H	0.372500	0.528100	0.576600	0.102943
H41	H	0.372000	0.791800	0.438700	0.071261
H42	H	0.461800	0.783000	0.267800	0.096720
H43	H	0.137500	0.702300	0.112000	0.094317
H44	H	0.057000	0.711600	0.286600	0.095863
H45	H	0.302700	0.530900	0.841400	0.092762
H46	H	0.226000	0.574000	0.011700	0.088860
H47	H	0.506800	0.857400	0.071000	0.110086
H48	H	0.585500	0.815300	0.899900	0.118030
C1	C	0.075580	0.612000	0.750160	0.100734
C2	C	0.019470	0.585410	0.850920	-0.153019
C3	C	0.944680	0.652100	0.890670	0.042301
C4	C	0.936000	0.747540	0.825700	-0.103793
C5	C	0.994810	0.767910	0.725600	0.099642
C6	C	0.718800	0.543960	0.170210	0.108878
C7	C	0.689180	0.613840	0.085800	-0.078877
C8	C	0.764590	0.651210	0.998300	-0.087841
C9	C	0.871740	0.620140	0.990660	0.029648
C10	C	0.901650	0.552970	0.077130	-0.135283
C11	C	0.827470	0.516070	0.166050	-0.073894
C12	C	0.984960	0.242860	0.007120	0.099933
C13	C	0.103350	0.295650	0.030940	-0.142840
C14	C	0.143160	0.336480	0.141500	0.045786
C15	C	0.056070	0.326310	0.221720	-0.119412
C16	C	0.938920	0.273100	0.190320	0.092570
C17	C	0.513510	0.466830	0.220540	0.103561
C18	C	0.432670	0.498690	0.290670	-0.081726
C19	C	0.312360	0.457660	0.265850	-0.102534
C20	C	0.270620	0.384020	0.169270	0.027071
C21	C	0.352850	0.353070	0.099780	-0.094272
C22	C	0.473390	0.394090	0.124800	-0.080346
C23	C	0.772390	0.323890	0.871250	0.089294
C24	C	0.767090	0.378370	0.769400	-0.123707
C25	C	0.738110	0.308950	0.669310	0.050742
C26	C	0.719510	0.187810	0.678170	-0.119402
C27	C	0.725910	0.140150	0.782700	0.104327
C28	C	0.668250	0.452530	0.354340	0.109498
C29	C	0.596720	0.344580	0.387980	-0.088168
C30	C	0.622560	0.299340	0.489460	-0.110610
C31	C	0.718700	0.359400	0.559890	0.030239
C32	C	0.790780	0.465840	0.524880	-0.074837
C33	C	0.765990	0.512830	0.422740	-0.091198
C34	C	0.612000	0.075580	0.250160	0.100734
C35	C	0.585410	0.019470	0.350920	-0.153019
C36	C	0.652100	0.944680	0.390670	0.042301
C37	C	0.747540	0.936000	0.325700	-0.103793
C38	C	0.767910	0.994810	0.225600	0.099642
C39	C	0.543960	0.718800	0.670210	0.108878
C40	C	0.613840	0.689180	0.585800	-0.078877
C41	C	0.651210	0.764590	0.498300	-0.087841
C42	C	0.620140	0.871740	0.490660	0.029648
C43	C	0.552970	0.901650	0.577130	-0.135283
C44	C	0.516070	0.827470	0.666050	-0.073894
C45	C	0.242860	0.984960	0.507120	0.099933
C46	C	0.295650	0.103350	0.530940	-0.142840
C47	C	0.336480	0.143160	0.641500	0.045786
C48	C	0.326310	0.056070	0.721720	-0.119412
C49	C	0.273100	0.938920	0.690320	0.092570
C50	C	0.466830	0.513510	0.720540	0.103561
C51	C	0.498690	0.432670	0.790670	-0.081726
C52	C	0.457660	0.312360	0.765850	-0.102534
C53	C	0.384020	0.270620	0.669270	0.027071
C54	C	0.353070	0.352850	0.599780	-0.094272
C55	C	0.394090	0.473390	0.624800	-0.080346
C56	C	0.323890	0.772390	0.371250	0.089294
C57	C	0.378370	0.767090	0.269400	-0.123707
C58	C	0.308950	0.738110	0.169310	0.050742
C59	C	0.187810	0.719510	0.178170	-0.119402
C60	C	0.140150	0.725910	0.282700	0.104327
C61	C	0.452530	0.668250	0.854340	0.109498
C62	C	0.344580	0.596720	0.887980	-0.088168
C63	C	0.299340	0.622560	0.989460	-0.110610
C64	C	0.359400	0.718700	0.059890	0.030239
C65	C	0.465840	0.790780	0.024880	-0.074837
C66	C	0.512830	0.765990	0.922740	-0.091198
N1	N	0.062480	0.701040	0.685930	-0.473442
N2	N	0.902030	0.230630	0.085240	-0.449259
N3	N	0.751480	0.206840	0.878960	-0.456094
N4	N	0.636760	0.501740	0.253570	-0.302057
N5	N	0.701040	0.062480	0.185930	-0.473442
N6	N	0.230630	0.902030	0.585240	-0.449259
N7	N	0.206840	0.751480	0.378960	-0.456094
N8	N	0.501740	0.636760	0.753570	-0.302057
Cl1	Cl	0.115700	0.533820	0.495370	-0.522307
Cl2	Cl	0.964710	0.804530	0.455940	-0.495634
Cl3	Cl	0.533820	0.115700	0.995370	-0.522307
Cl4	Cl	0.804530	0.964710	0.955940	-0.495634
