data_CUVGIK_clean_PM
_symmetry_space_group_name_H-M	'P1'
_cell_length_a	5.565500
_cell_length_b	9.370200
_cell_length_c	11.754300
_cell_angle_alpha	94.320998
_cell_angle_beta	96.734000
_cell_angle_gamma	100.837003
_symmetry_Int_Tables_number 1

loop_
_symmetry_equiv_pos_as_xyz
'x,y,z'

loop_
_atom_site_label
_atom_site_type_symbol
_atom_site_fract_x
_atom_site_fract_y
_atom_site_fract_z
_atom_site_charge
Mn1	Mn	0.000000	0.000000	0.000000	1.050025
H1	H	0.180600	0.324500	0.913200	0.102583
H2	H	0.345000	0.568800	0.909900	0.102160
H3	H	0.288600	0.912900	0.791100	0.089105
H4	H	0.280600	0.898400	0.596100	0.088643
H5	H	0.748700	0.115700	0.774900	0.081951
H6	H	0.731400	0.112600	0.580000	0.087550
H7	H	0.819400	0.675500	0.086800	0.102583
H8	H	0.655000	0.431200	0.090100	0.102160
H9	H	0.711400	0.087100	0.208900	0.089105
H10	H	0.719400	0.101600	0.403900	0.088643
H11	H	0.251300	0.884300	0.225100	0.081951
H12	H	0.268600	0.887400	0.420000	0.087550
C1	C	0.107300	0.394400	0.948250	-0.084085
C2	C	0.572700	0.166400	0.020260	0.248463
C3	C	0.206100	0.541700	0.946230	-0.085950
C4	C	0.003500	0.003000	0.563200	0.045145
C5	C	0.899000	0.350300	0.002370	0.121426
C6	C	0.170200	0.952100	0.748100	0.085432
C7	C	0.168500	0.944100	0.629900	-0.135803
C8	C	0.858500	0.070200	0.738900	0.083917
C9	C	0.846500	0.068800	0.620700	-0.140055
C10	C	0.892700	0.605600	0.051750	-0.084085
C11	C	0.427300	0.833600	0.979740	0.248463
C12	C	0.793900	0.458300	0.053770	-0.085950
C13	C	0.996500	0.997000	0.436800	0.045145
C14	C	0.101000	0.649700	0.997630	0.121426
C15	C	0.829800	0.047900	0.251900	0.085432
C16	C	0.831500	0.055900	0.370100	-0.135803
C17	C	0.141500	0.929800	0.261100	0.083917
C18	C	0.153500	0.931200	0.379300	-0.140055
N1	N	0.014700	0.011600	0.803870	-0.382440
N2	N	0.367600	0.131980	0.038020	-0.425727
N3	N	0.800400	0.198000	0.001880	-0.407329
N4	N	0.985300	0.988400	0.196130	-0.382440
N5	N	0.632400	0.868020	0.961980	-0.425727
N6	N	0.199600	0.802000	0.998120	-0.407329
