data_DANZOJ_neutral_PM
_symmetry_space_group_name_H-M	'P1'
_cell_length_a	18.807200
_cell_length_b	18.807200
_cell_length_c	18.807200
_cell_angle_alpha	59.999999
_cell_angle_beta	60.000000
_cell_angle_gamma	59.999999
_symmetry_Int_Tables_number 1

loop_
_symmetry_equiv_pos_as_xyz
'x,y,z'

loop_
_atom_site_label
_atom_site_type_symbol
_atom_site_fract_x
_atom_site_fract_y
_atom_site_fract_z
_atom_site_charge
Mn1	Mn	0.085660	0.500000	0.914340	-4.738478
Mn2	Mn	0.500000	0.085660	0.500000	-4.738468
Mn3	Mn	0.914340	0.500000	0.085660	-4.738478
Mn4	Mn	0.500000	0.914340	0.500000	-4.738468
Mn5	Mn	0.085660	0.914340	0.500000	-4.738467
Mn6	Mn	0.500000	0.500000	0.914340	-4.738464
Mn7	Mn	0.914340	0.085660	0.500000	-4.738467
Mn8	Mn	0.500000	0.500000	0.085660	-4.738481
Mn9	Mn	0.085660	0.500000	0.500000	-4.738481
Mn10	Mn	0.500000	0.914340	0.085660	-4.738467
Mn11	Mn	0.914340	0.500000	0.500000	-4.738464
Mn12	Mn	0.500000	0.085660	0.914340	-4.738467
H1	H	0.229300	0.229300	0.012300	0.205815
H2	H	0.229300	0.229300	0.529100	0.205817
H3	H	0.012300	0.529100	0.229300	0.205816
H4	H	0.529100	0.012300	0.229300	0.205816
H5	H	0.229300	0.012300	0.529100	0.205816
H6	H	0.229300	0.529100	0.012300	0.205816
H7	H	0.012300	0.229300	0.229300	0.205815
H8	H	0.529100	0.229300	0.229300	0.205817
H9	H	0.229300	0.529100	0.229300	0.205817
H10	H	0.229300	0.012300	0.229300	0.205815
H11	H	0.012300	0.229300	0.529100	0.205816
H12	H	0.529100	0.229300	0.012300	0.205816
H13	H	0.770700	0.770700	0.987700	0.205815
H14	H	0.770700	0.770700	0.470900	0.205817
H15	H	0.470900	0.987700	0.770700	0.205816
H16	H	0.987700	0.470900	0.770700	0.205816
H17	H	0.987700	0.770700	0.470900	0.205816
H18	H	0.470900	0.770700	0.987700	0.205816
H19	H	0.770700	0.987700	0.770700	0.205815
H20	H	0.770700	0.470900	0.770700	0.205816
H21	H	0.470900	0.770700	0.770700	0.205817
H22	H	0.987700	0.770700	0.770700	0.205815
H23	H	0.770700	0.987700	0.470900	0.205816
H24	H	0.770700	0.470900	0.987700	0.205816
C1	C	0.200100	0.200100	0.070500	0.023250
C2	C	0.200100	0.200100	0.529300	0.023257
C3	C	0.070500	0.529300	0.200100	0.023257
C4	C	0.529300	0.070500	0.200100	0.023257
C5	C	0.200100	0.070500	0.529300	0.023257
C6	C	0.200100	0.529300	0.070500	0.023257
C7	C	0.070500	0.200100	0.200100	0.023250
C8	C	0.529300	0.200100	0.200100	0.023257
C9	C	0.200100	0.529300	0.200100	0.023254
C10	C	0.200100	0.070500	0.200100	0.023250
C11	C	0.070500	0.200100	0.529300	0.023260
C12	C	0.529300	0.200100	0.070500	0.023260
C13	C	0.799900	0.799900	0.929500	0.023250
C14	C	0.799900	0.799900	0.470700	0.023257
C15	C	0.470700	0.929500	0.799900	0.023257
C16	C	0.929500	0.470700	0.799900	0.023257
C17	C	0.929500	0.799900	0.470700	0.023261
C18	C	0.470700	0.799900	0.929500	0.023261
C19	C	0.799900	0.929500	0.799900	0.023250
C20	C	0.799900	0.470700	0.799900	0.023254
C21	C	0.470700	0.799900	0.799900	0.023257
C22	C	0.929500	0.799900	0.799900	0.023250
C23	C	0.799900	0.929500	0.470700	0.023257
C24	C	0.799900	0.470700	0.929500	0.023257
C25	C	0.113900	0.242700	0.113900	-0.110494
C26	C	0.069800	0.334000	0.069800	0.514503
C27	C	0.242700	0.113900	0.529500	-0.110505
C28	C	0.334000	0.069800	0.526400	0.514500
C29	C	0.113900	0.529500	0.113900	-0.110496
C30	C	0.069800	0.526400	0.069800	0.514500
C31	C	0.529500	0.113900	0.242700	-0.110505
C32	C	0.526400	0.069800	0.334000	0.514500
C33	C	0.113900	0.113900	0.529500	-0.110495
C34	C	0.069800	0.069800	0.526400	0.514499
C35	C	0.242700	0.529500	0.113900	-0.110505
C36	C	0.334000	0.526400	0.069800	0.514501
C37	C	0.113900	0.113900	0.242700	-0.110494
C38	C	0.069800	0.069800	0.334000	0.514502
C39	C	0.529500	0.242700	0.113900	-0.110516
C40	C	0.526400	0.334000	0.069800	0.514501
C41	C	0.113900	0.529500	0.242700	-0.110505
C42	C	0.069800	0.526400	0.334000	0.514501
C43	C	0.242700	0.113900	0.113900	-0.110494
C44	C	0.334000	0.069800	0.069800	0.514502
C45	C	0.113900	0.242700	0.529500	-0.110516
C46	C	0.069800	0.334000	0.526400	0.514501
C47	C	0.529500	0.113900	0.113900	-0.110495
C48	C	0.526400	0.069800	0.069800	0.514499
C49	C	0.757300	0.886100	0.886100	-0.110494
C50	C	0.666000	0.930200	0.930200	0.514502
C51	C	0.886100	0.757300	0.470500	-0.110516
C52	C	0.930200	0.666000	0.473600	0.514501
C53	C	0.470500	0.886100	0.886100	-0.110495
C54	C	0.473600	0.930200	0.930200	0.514499
C55	C	0.886100	0.470500	0.757300	-0.110505
C56	C	0.930200	0.473600	0.666000	0.514501
C57	C	0.886100	0.886100	0.470500	-0.110495
C58	C	0.930200	0.930200	0.473600	0.514499
C59	C	0.470500	0.757300	0.886100	-0.110516
C60	C	0.473600	0.666000	0.930200	0.514501
C61	C	0.886100	0.886100	0.757300	-0.110494
C62	C	0.930200	0.930200	0.666000	0.514502
C63	C	0.757300	0.470500	0.886100	-0.110505
C64	C	0.666000	0.473600	0.930200	0.514501
C65	C	0.470500	0.886100	0.757300	-0.110505
C66	C	0.473600	0.930200	0.666000	0.514500
C67	C	0.886100	0.757300	0.886100	-0.110494
C68	C	0.930200	0.666000	0.930200	0.514503
C69	C	0.757300	0.886100	0.470500	-0.110505
C70	C	0.666000	0.930200	0.473600	0.514500
C71	C	0.886100	0.470500	0.886100	-0.110496
C72	C	0.930200	0.473600	0.930200	0.514500
O1	O	0.112800	0.369600	0.994400	0.629017
O2	O	0.369600	0.112800	0.523200	0.629016
O3	O	0.994400	0.523200	0.112800	0.629018
O4	O	0.523200	0.994400	0.369600	0.629018
O5	O	0.112800	0.994400	0.523200	0.629017
O6	O	0.369600	0.523200	0.994400	0.629018
O7	O	0.994400	0.112800	0.369600	0.629015
O8	O	0.523200	0.369600	0.112800	0.629019
O9	O	0.112800	0.523200	0.369600	0.629018
O10	O	0.369600	0.994400	0.112800	0.629015
O11	O	0.994400	0.369600	0.523200	0.629019
O12	O	0.523200	0.112800	0.994400	0.629017
O13	O	0.630400	0.887200	0.005600	0.629015
O14	O	0.887200	0.630400	0.476800	0.629017
O15	O	0.476800	0.005600	0.887200	0.629017
O16	O	0.005600	0.476800	0.630400	0.629020
O17	O	0.005600	0.887200	0.476800	0.629017
O18	O	0.476800	0.630400	0.005600	0.629021
O19	O	0.887200	0.005600	0.630400	0.629015
O20	O	0.630400	0.476800	0.887200	0.629016
O21	O	0.476800	0.887200	0.630400	0.629016
O22	O	0.005600	0.630400	0.887200	0.629017
O23	O	0.630400	0.005600	0.476800	0.629018
O24	O	0.887200	0.476800	0.005600	0.629018
O25	O	0.887200	0.630400	0.005600	0.629017
O26	O	0.630400	0.887200	0.476800	0.629016
O27	O	0.005600	0.476800	0.887200	0.629018
O28	O	0.476800	0.005600	0.630400	0.629018
O29	O	0.887200	0.005600	0.476800	0.629017
O30	O	0.630400	0.476800	0.005600	0.629020
O31	O	0.005600	0.887200	0.630400	0.629015
O32	O	0.476800	0.630400	0.887200	0.629017
O33	O	0.887200	0.476800	0.630400	0.629016
O34	O	0.630400	0.005600	0.887200	0.629015
O35	O	0.005600	0.630400	0.476800	0.629021
O36	O	0.476800	0.887200	0.005600	0.629017
O37	O	0.369600	0.112800	0.994400	0.629015
O38	O	0.112800	0.369600	0.523200	0.629019
O39	O	0.523200	0.994400	0.112800	0.629017
O40	O	0.994400	0.523200	0.369600	0.629018
O41	O	0.994400	0.112800	0.523200	0.629017
O42	O	0.523200	0.369600	0.994400	0.629019
O43	O	0.112800	0.994400	0.369600	0.629015
O44	O	0.369600	0.523200	0.112800	0.629018
O45	O	0.523200	0.112800	0.369600	0.629016
O46	O	0.994400	0.369600	0.112800	0.629017
O47	O	0.369600	0.994400	0.523200	0.629018
O48	O	0.112800	0.523200	0.994400	0.629018
O49	O	0.185200	0.522400	0.770000	0.478130
O50	O	0.522400	0.185200	0.522400	0.478130
O51	O	0.770000	0.522400	0.185200	0.478130
O52	O	0.522400	0.770000	0.522400	0.478132
O53	O	0.185200	0.770000	0.522400	0.478129
O54	O	0.522400	0.522400	0.770000	0.478131
O55	O	0.770000	0.185200	0.522400	0.478129
O56	O	0.522400	0.522400	0.185200	0.478132
O57	O	0.185200	0.522400	0.522400	0.478132
O58	O	0.522400	0.770000	0.185200	0.478129
O59	O	0.770000	0.522400	0.522400	0.478131
O60	O	0.522400	0.185200	0.770000	0.478129
O61	O	0.477600	0.814800	0.230000	0.478129
O62	O	0.814800	0.477600	0.477600	0.478130
O63	O	0.477600	0.230000	0.814800	0.478129
O64	O	0.230000	0.477600	0.477600	0.478133
O65	O	0.230000	0.814800	0.477600	0.478129
O66	O	0.477600	0.477600	0.230000	0.478133
O67	O	0.814800	0.230000	0.477600	0.478129
O68	O	0.477600	0.477600	0.814800	0.478130
O69	O	0.477600	0.814800	0.477600	0.478130
O70	O	0.230000	0.477600	0.814800	0.478130
O71	O	0.477600	0.230000	0.477600	0.478132
O72	O	0.814800	0.477600	0.230000	0.478130
