data_DONNAW01_clean_PM
_symmetry_space_group_name_H-M	'P1'
_cell_length_a	6.747483
_cell_length_b	11.150104
_cell_length_c	11.150100
_cell_angle_alpha	102.873615
_cell_angle_beta	107.612186
_cell_angle_gamma	107.612249
_symmetry_Int_Tables_number 1

loop_
_symmetry_equiv_pos_as_xyz
'x,y,z'

loop_
_atom_site_label
_atom_site_type_symbol
_atom_site_fract_x
_atom_site_fract_y
_atom_site_fract_z
_atom_site_charge
Ga1	Ga	0.000000	0.000000	0.000000	-2.045791
Ga2	Ga	0.500000	0.000000	0.000000	-2.045639
H1	H	0.232800	0.987000	0.610800	0.104201
H2	H	0.105700	0.968300	0.372500	0.110442
H3	H	0.865000	0.610800	0.987000	0.105643
H4	H	0.735100	0.372500	0.968300	0.104330
H5	H	0.767200	0.013000	0.389200	0.106061
H6	H	0.894300	0.031700	0.627500	0.107799
H7	H	0.135000	0.389200	0.013000	0.107265
H8	H	0.264900	0.627500	0.031700	0.101634
C1	C	0.336300	0.973830	0.556370	-0.064630
C2	C	0.272100	0.973450	0.425550	-0.085688
C3	C	0.693900	0.556370	0.973830	-0.083023
C4	C	0.626900	0.425550	0.973450	-0.070059
C5	C	0.663700	0.026170	0.443630	-0.061968
C6	C	0.727900	0.026550	0.574450	-0.079135
C7	C	0.306100	0.443630	0.026170	-0.079948
C8	C	0.373100	0.574450	0.026550	-0.062762
C9	C	0.541400	0.963260	0.619540	0.005028
C10	C	0.610000	0.960930	0.759070	0.261593
C11	C	0.421200	0.979020	0.363380	0.006886
C12	C	0.360800	0.993180	0.228420	0.262487
C13	C	0.541400	0.619540	0.963260	0.005691
C14	C	0.610000	0.759070	0.960930	0.264389
C15	C	0.421200	0.363380	0.979020	0.006261
C16	C	0.360800	0.228420	0.993180	0.267388
O1	O	0.802840	0.959520	0.812160	0.203138
O2	O	0.506000	0.999110	0.178090	0.204866
O3	O	0.468840	0.812160	0.959520	0.201053
O4	O	0.171200	0.178090	0.999110	0.203364
O5	O	0.197160	0.040480	0.187840	0.216701
O6	O	0.494000	0.000890	0.821910	0.202406
O7	O	0.531160	0.187840	0.040480	0.214169
O8	O	0.828800	0.821910	0.000890	0.201622
O9	O	0.823400	0.079800	0.067000	0.555688
O10	O	0.176600	0.920200	0.933000	0.548535
