data_DUBWON_clean_PM
_symmetry_space_group_name_H-M	'P1'
_cell_length_a	9.119000
_cell_length_b	14.471100
_cell_length_c	14.735500
_cell_angle_alpha	90.000000
_cell_angle_beta	90.000000
_cell_angle_gamma	107.752000
_symmetry_Int_Tables_number 1

loop_
_symmetry_equiv_pos_as_xyz
'x,y,z'

loop_
_atom_site_label
_atom_site_type_symbol
_atom_site_fract_x
_atom_site_fract_y
_atom_site_fract_z
_atom_site_charge
Zn1	Zn	0.277240	0.364370	0.349060	1.136195
Zn2	Zn	0.183110	0.134190	0.252610	1.131313
Zn3	Zn	0.222760	0.135630	0.849060	1.136195
Zn4	Zn	0.316890	0.365810	0.752610	1.131313
Zn5	Zn	0.722760	0.635630	0.650940	1.136195
Zn6	Zn	0.816890	0.865810	0.747390	1.131313
Zn7	Zn	0.777240	0.864370	0.150940	1.136195
Zn8	Zn	0.683110	0.634190	0.247390	1.131313
H1	H	0.858100	0.394500	0.298000	0.146125
H2	H	0.701300	0.102400	0.277900	0.127572
H3	H	0.450500	0.106700	0.286100	0.122366
H4	H	0.261100	0.410700	0.553300	0.099376
H5	H	0.641900	0.105500	0.798000	0.146125
H6	H	0.798700	0.397600	0.777900	0.127572
H7	H	0.049500	0.393300	0.786100	0.122366
H8	H	0.238900	0.089300	0.053300	0.099376
H9	H	0.141900	0.605500	0.702000	0.146125
H10	H	0.298700	0.897600	0.722100	0.127572
H11	H	0.549500	0.893300	0.713900	0.122366
H12	H	0.738900	0.589300	0.446700	0.099376
H13	H	0.358100	0.894500	0.202000	0.146125
H14	H	0.201300	0.602400	0.222100	0.127572
H15	H	0.950500	0.606700	0.213900	0.122366
H16	H	0.761100	0.910700	0.946700	0.099376
C1	C	0.497800	0.254600	0.295400	0.264936
C2	C	0.624300	0.341600	0.298500	0.038966
C3	C	0.774600	0.336100	0.295200	-0.055723
C4	C	0.806000	0.248400	0.287900	0.044094
C5	C	0.682200	0.163000	0.283700	-0.032480
C6	C	0.532500	0.165800	0.288000	-0.101234
C7	C	0.606300	0.441300	0.301200	0.478718
C8	C	0.967500	0.244900	0.284400	0.480861
C9	C	0.278200	0.349300	0.549900	0.387225
C10	C	0.002200	0.245400	0.795400	0.264936
C11	C	0.875700	0.158400	0.798500	0.038966
C12	C	0.725400	0.163900	0.795200	-0.055723
C13	C	0.694000	0.251600	0.787900	0.044094
C14	C	0.817800	0.337000	0.783700	-0.032480
C15	C	0.967500	0.334200	0.788000	-0.101234
C16	C	0.893700	0.058700	0.801200	0.478718
C17	C	0.532500	0.255100	0.784400	0.480861
C18	C	0.221800	0.150700	0.049900	0.387225
C19	C	0.502200	0.745400	0.704600	0.264936
C20	C	0.375700	0.658400	0.701500	0.038966
C21	C	0.225400	0.663900	0.704800	-0.055723
C22	C	0.194000	0.751600	0.712100	0.044094
C23	C	0.317800	0.837000	0.716300	-0.032480
C24	C	0.467500	0.834200	0.712000	-0.101234
C25	C	0.393700	0.558700	0.698800	0.478718
C26	C	0.032500	0.755100	0.715600	0.480861
C27	C	0.721800	0.650700	0.450100	0.387225
C28	C	0.997800	0.754600	0.204600	0.264936
C29	C	0.124300	0.841600	0.201500	0.038966
C30	C	0.274600	0.836100	0.204800	-0.055723
C31	C	0.306000	0.748400	0.212100	0.044094
C32	C	0.182200	0.663000	0.216300	-0.032480
C33	C	0.032500	0.665800	0.212000	-0.101234
C34	C	0.106300	0.941300	0.198800	0.478718
C35	C	0.467500	0.744900	0.215600	0.480861
C36	C	0.778200	0.849300	0.950100	0.387225
O1	O	0.351800	0.252640	0.296760	-0.738685
O2	O	0.476100	0.454650	0.309580	-0.638548
O3	O	0.726200	0.512260	0.293500	-0.672209
O4	O	0.074300	0.324370	0.290900	-0.656183
O5	O	0.987500	0.162450	0.276000	-0.586329
O6	O	0.280400	0.312600	0.473000	-0.564062
O7	O	0.297100	0.309600	0.622000	-0.412292
O8	O	0.148200	0.247360	0.796760	-0.738685
O9	O	0.023900	0.045350	0.809580	-0.638548
O10	O	0.773800	0.987740	0.793500	-0.672209
O11	O	0.425700	0.175630	0.790900	-0.656183
O12	O	0.512500	0.337550	0.776000	-0.586329
O13	O	0.219600	0.187400	0.973000	-0.564062
O14	O	0.202900	0.190400	0.122000	-0.412292
O15	O	0.648200	0.747360	0.703240	-0.738685
O16	O	0.523900	0.545350	0.690420	-0.638548
O17	O	0.273800	0.487740	0.706500	-0.672209
O18	O	0.925700	0.675630	0.709100	-0.656183
O19	O	0.012500	0.837550	0.724000	-0.586329
O20	O	0.719600	0.687400	0.527000	-0.564062
O21	O	0.702900	0.690400	0.378000	-0.412292
O22	O	0.851800	0.752640	0.203240	-0.738685
O23	O	0.976100	0.954650	0.190420	-0.638548
O24	O	0.226200	0.012260	0.206500	-0.672209
O25	O	0.574300	0.824370	0.209100	-0.656183
O26	O	0.487500	0.662450	0.224000	-0.586329
O27	O	0.780400	0.812600	0.027000	-0.564062
O28	O	0.797100	0.809600	0.878000	-0.412292
