data_EDADIX_clean_PM
_symmetry_space_group_name_H-M	'P1'
_cell_length_a	10.880000
_cell_length_b	10.918000
_cell_length_c	14.122000
_cell_angle_alpha	89.335001
_cell_angle_beta	89.170999
_cell_angle_gamma	78.379997
_symmetry_Int_Tables_number 1

loop_
_symmetry_equiv_pos_as_xyz
'x,y,z'

loop_
_atom_site_label
_atom_site_type_symbol
_atom_site_fract_x
_atom_site_fract_y
_atom_site_fract_z
_atom_site_charge
Zn1	Zn	0.726990	0.337220	0.802260	1.145004
Zn2	Zn	0.730700	0.340330	0.592580	1.138535
Zn3	Zn	0.273010	0.662780	0.197740	1.145004
Zn4	Zn	0.269300	0.659670	0.407420	1.138535
H1	H	0.788600	0.724700	0.568700	0.110670
H2	H	0.812800	0.932500	0.575400	0.120961
H3	H	0.692900	0.954700	0.842100	0.115670
H4	H	0.676200	0.748300	0.841800	0.113668
H5	H	0.333400	0.370800	0.552300	0.133837
H6	H	0.117500	0.368600	0.551100	0.121442
H7	H	0.125500	0.307000	0.839000	0.116266
H8	H	0.340400	0.314500	0.838000	0.116854
H9	H	0.916000	0.313500	0.429600	0.100224
H10	H	0.921200	0.309300	0.266800	0.098956
H11	H	0.541800	0.356000	0.270900	0.115884
H12	H	0.550900	0.350000	0.435700	0.126338
H13	H	0.892300	0.198400	0.119400	0.096730
H14	H	0.881000	0.216100	0.954300	0.099639
H15	H	0.571200	0.465800	0.964700	0.080364
H16	H	0.571400	0.458300	0.129300	0.119565
H17	H	0.211400	0.275300	0.431300	0.110670
H18	H	0.187200	0.067500	0.424600	0.120961
H19	H	0.307100	0.045300	0.157900	0.115670
H20	H	0.323800	0.251700	0.158200	0.113668
H21	H	0.666600	0.629200	0.447700	0.133837
H22	H	0.882500	0.631400	0.448900	0.121442
H23	H	0.874500	0.693000	0.161000	0.116266
H24	H	0.659600	0.685500	0.162000	0.116854
H25	H	0.084000	0.686500	0.570400	0.100224
H26	H	0.078800	0.690700	0.733200	0.098956
H27	H	0.458200	0.644000	0.729100	0.115884
H28	H	0.449100	0.650000	0.564300	0.126338
H29	H	0.107700	0.801600	0.880600	0.096730
H30	H	0.119000	0.783900	0.045700	0.099639
H31	H	0.428800	0.534200	0.035300	0.080364
H32	H	0.428600	0.541700	0.870700	0.119565
C1	C	0.713000	0.577800	0.700400	0.461223
C2	C	0.724800	0.712100	0.700900	0.059128
C3	C	0.767000	0.770000	0.625500	-0.102140
C4	C	0.778000	0.896000	0.628400	-0.052272
C5	C	0.742200	0.963200	0.704000	0.053942
C6	C	0.709000	0.908000	0.785500	-0.060722
C7	C	0.700000	0.786000	0.785200	-0.092817
C8	C	0.747200	0.100200	0.703600	0.465493
C9	C	0.492700	0.349800	0.695600	0.463770
C10	C	0.356100	0.347200	0.694200	0.051977
C11	C	0.290700	0.359800	0.610000	-0.032811
C12	C	0.162600	0.356600	0.608700	-0.087394
C13	C	0.102300	0.335300	0.694200	0.058647
C14	C	0.167500	0.320300	0.781500	-0.066856
C15	C	0.294700	0.325500	0.780600	-0.075278
C16	C	0.965400	0.330800	0.694100	0.456992
C17	C	0.839300	0.321700	0.396600	0.101420
C18	C	0.843000	0.320000	0.299700	-0.128594
C19	C	0.730900	0.334300	0.249200	0.039032
C20	C	0.620400	0.346400	0.301600	-0.082268
C21	C	0.626700	0.344200	0.400300	0.111383
C22	C	0.730900	0.333500	0.144400	0.048128
C23	C	0.825600	0.255100	0.090100	-0.131549
C24	C	0.816100	0.265500	0.991100	0.110085
C25	C	0.636600	0.410400	0.996400	0.097218
C26	C	0.638100	0.407000	0.095300	-0.124896
C27	C	0.287000	0.422200	0.299600	0.461223
C28	C	0.275200	0.287900	0.299100	0.059128
C29	C	0.233000	0.230000	0.374500	-0.102140
C30	C	0.222000	0.104000	0.371600	-0.052272
C31	C	0.257800	0.036800	0.296000	0.053942
C32	C	0.291000	0.092000	0.214500	-0.060722
C33	C	0.300000	0.214000	0.214800	-0.092817
C34	C	0.252800	0.899800	0.296400	0.465493
C35	C	0.507300	0.650200	0.304400	0.463770
C36	C	0.643900	0.652800	0.305800	0.051977
C37	C	0.709300	0.640200	0.390000	-0.032811
C38	C	0.837400	0.643400	0.391300	-0.087394
C39	C	0.897700	0.664700	0.305800	0.058647
C40	C	0.832500	0.679700	0.218500	-0.066856
C41	C	0.705300	0.674500	0.219400	-0.075278
C42	C	0.034600	0.669200	0.305900	0.456992
C43	C	0.160700	0.678300	0.603400	0.101420
C44	C	0.157000	0.680000	0.700300	-0.128594
C45	C	0.269100	0.665700	0.750800	0.039032
C46	C	0.379600	0.653600	0.698400	-0.082268
C47	C	0.373300	0.655800	0.599700	0.111383
C48	C	0.269100	0.666500	0.855600	0.048128
C49	C	0.174400	0.744900	0.909900	-0.131549
C50	C	0.183900	0.734500	0.008900	0.110085
C51	C	0.363400	0.589600	0.003600	0.097218
C52	C	0.361900	0.593000	0.904700	-0.124896
N1	N	0.732200	0.334400	0.446800	-0.405429
N2	N	0.725900	0.336900	0.946200	-0.403096
N3	N	0.267800	0.665600	0.553200	-0.405429
N4	N	0.274100	0.663100	0.053800	-0.403096
O1	O	0.708500	0.523200	0.778500	-0.605383
O2	O	0.708700	0.528100	0.621600	-0.608129
O3	O	0.750300	0.154100	0.625400	-0.569917
O4	O	0.749000	0.150400	0.781600	-0.589152
O5	O	0.543300	0.349900	0.774600	-0.628340
O6	O	0.545600	0.353200	0.614300	-0.604105
O7	O	0.914700	0.328800	0.613100	-0.606383
O8	O	0.911000	0.324100	0.773500	-0.591515
O9	O	0.291500	0.476800	0.221500	-0.605383
O10	O	0.291300	0.471900	0.378400	-0.608129
O11	O	0.249700	0.845900	0.374600	-0.569917
O12	O	0.251000	0.849600	0.218400	-0.589152
O13	O	0.456700	0.650100	0.225400	-0.628340
O14	O	0.454400	0.646800	0.385700	-0.604105
O15	O	0.085300	0.671200	0.386900	-0.606383
O16	O	0.089000	0.675900	0.226500	-0.591515
