data_FIPWOS_clean_PM
_symmetry_space_group_name_H-M	'P1'
_cell_length_a	9.126900
_cell_length_b	9.342699
_cell_length_c	9.604000
_cell_angle_alpha	114.454999
_cell_angle_beta	90.000000
_cell_angle_gamma	90.000000
_symmetry_Int_Tables_number 1

loop_
_symmetry_equiv_pos_as_xyz
'x,y,z'

loop_
_atom_site_label
_atom_site_type_symbol
_atom_site_fract_x
_atom_site_fract_y
_atom_site_fract_z
_atom_site_charge
Zn1	Zn	0.564660	0.403590	0.284560	1.083445
Zn2	Zn	0.064660	0.596410	0.715440	1.083445
H1	H	0.276900	0.566400	0.454400	0.092547
H2	H	0.431200	0.357300	0.842800	0.133188
H3	H	0.262400	0.387700	0.845300	0.161233
H4	H	0.574400	0.620600	0.912400	0.239661
H5	H	0.559400	0.338300	0.592100	0.082487
H6	H	0.678800	0.078900	0.252200	0.089866
H7	H	0.767200	0.111800	0.128700	0.092830
H8	H	0.289700	0.651200	-0.000000	0.119456
H9	H	0.661200	0.892400	0.933900	0.136476
H10	H	0.742300	0.841500	0.050000	0.120079
H11	H	0.550000	0.161000	0.046000	0.354217
H12	H	0.476000	0.133000	0.159000	0.363889
H13	H	0.776900	0.433600	0.545600	0.092547
H14	H	0.931200	0.642700	0.157200	0.133188
H15	H	0.762400	0.612300	0.154700	0.161233
H16	H	0.074400	0.379400	0.087600	0.239661
H17	H	0.059400	0.661700	0.407900	0.082487
H18	H	0.178800	0.921100	0.747800	0.089866
H19	H	0.267200	0.888200	0.871300	0.092830
H20	H	0.789700	0.348800	0.000000	0.119456
H21	H	0.161200	0.107600	0.066100	0.136476
H22	H	0.242300	0.158500	0.950000	0.120079
H23	H	0.050000	0.839000	0.954000	0.354217
H24	H	0.976000	0.867000	0.841000	0.363889
C1	C	0.323200	0.521500	0.512900	0.188833
C2	C	0.357800	0.432100	0.842200	-0.294538
C3	C	0.478300	0.396500	0.587700	0.081427
C4	C	0.370600	0.451200	0.696400	0.165747
C5	C	0.675100	0.071900	0.148700	0.125276
C6	C	0.384600	0.538400	0.122900	0.428373
C7	C	0.376300	0.584900	0.987600	0.119209
C8	C	0.659200	0.900000	0.037700	-0.276657
C9	C	0.519800	0.825500	0.060700	0.308645
C10	C	0.823200	0.478500	0.487100	0.188833
C11	C	0.857800	0.567900	0.157800	-0.294538
C12	C	0.978300	0.603500	0.412300	0.081427
C13	C	0.870600	0.548800	0.303600	0.165747
C14	C	0.175100	0.928100	0.851300	0.125276
C15	C	0.884600	0.461600	0.877100	0.428373
C16	C	0.876300	0.415100	0.012400	0.119209
C17	C	0.159200	0.100000	0.962300	-0.276657
C18	C	0.019800	0.174500	0.939300	0.308645
N1	N	0.552800	0.173500	0.137200	-1.140990
N2	N	0.505900	0.670300	0.975300	-0.380580
N3	N	0.447500	0.441000	0.470900	-0.478565
N4	N	0.270500	0.532300	0.646700	-0.467932
N5	N	0.052800	0.826500	0.862800	-1.140990
N6	N	0.005900	0.329700	0.024700	-0.380580
N7	N	0.947500	0.559000	0.529100	-0.478565
N8	N	0.770500	0.467700	0.353300	-0.467932
O1	O	0.513560	0.524400	0.167100	-0.646301
O2	O	0.269100	0.509400	0.174400	-0.452826
O3	O	0.422700	0.902900	0.150600	-0.348494
O4	O	0.013560	0.475600	0.832900	-0.646301
O5	O	0.769100	0.490600	0.825600	-0.452826
O6	O	0.922700	0.097100	0.849400	-0.348494
