data_FUFREE_clean_PM
_symmetry_space_group_name_H-M	'P1'
_cell_length_a	7.785000
_cell_length_b	10.238000
_cell_length_c	15.851000
_cell_angle_alpha	90.000000
_cell_angle_beta	90.000000
_cell_angle_gamma	90.000000
_symmetry_Int_Tables_number 1

loop_
_symmetry_equiv_pos_as_xyz
'x,y,z'

loop_
_atom_site_label
_atom_site_type_symbol
_atom_site_fract_x
_atom_site_fract_y
_atom_site_fract_z
_atom_site_charge
Fe1	Fe	0.638120	0.529830	0.901660	1.266953
Fe2	Fe	0.361880	0.470170	0.401660	1.266953
Fe3	Fe	0.138120	0.970170	0.901660	1.266953
Fe4	Fe	0.861880	0.029830	0.401660	1.266953
H1	H	0.586000	0.949300	0.710700	0.212832
H2	H	0.450800	0.411200	0.586400	0.136905
H3	H	0.342400	0.751600	0.485400	0.110174
H4	H	0.444300	0.859900	0.602700	0.106744
H5	H	0.563400	0.509100	0.704500	0.104051
H6	H	0.414000	0.050700	0.210700	0.212832
H7	H	0.549200	0.588800	0.086400	0.136905
H8	H	0.657600	0.248400	0.985400	0.110174
H9	H	0.555700	0.140100	0.102700	0.106744
H10	H	0.436600	0.490900	0.204500	0.104051
H11	H	0.086000	0.550700	0.710700	0.212832
H12	H	0.950800	0.088800	0.586400	0.136905
H13	H	0.842400	0.748400	0.485400	0.110174
H14	H	0.944300	0.640100	0.602700	0.106744
H15	H	0.063400	0.990900	0.704500	0.104051
H16	H	0.914000	0.449300	0.210700	0.212832
H17	H	0.049200	0.911200	0.086400	0.136905
H18	H	0.157600	0.251600	0.985400	0.110174
H19	H	0.055700	0.359900	0.102700	0.106744
H20	H	0.936600	0.009100	0.204500	0.104051
C1	C	0.453000	0.503900	0.589130	0.113628
C2	C	0.388900	0.701900	0.530560	0.096113
C3	C	0.450400	0.767400	0.599960	-0.098260
C4	C	0.519300	0.561300	0.659910	-0.092373
C5	C	0.521500	0.696700	0.666000	0.041956
C6	C	0.605400	0.759100	0.738150	0.215399
C7	C	0.732400	0.913000	0.812530	0.129417
C8	C	0.765000	0.791200	0.846980	0.120365
C9	C	0.780800	0.050200	0.835470	0.413113
C10	C	0.866800	0.751100	0.921640	0.461826
C11	C	0.547000	0.496100	0.089130	0.113628
C12	C	0.611100	0.298100	0.030560	0.096113
C13	C	0.549600	0.232600	0.099960	-0.098260
C14	C	0.480700	0.438700	0.159910	-0.092373
C15	C	0.478500	0.303300	0.166000	0.041956
C16	C	0.394600	0.240900	0.238150	0.215399
C17	C	0.267600	0.087000	0.312530	0.129417
C18	C	0.235000	0.208800	0.346980	0.120365
C19	C	0.219200	0.949800	0.335470	0.413113
C20	C	0.133200	0.248900	0.421640	0.461826
C21	C	0.953000	0.996100	0.589130	0.113628
C22	C	0.888900	0.798100	0.530560	0.096113
C23	C	0.950400	0.732600	0.599960	-0.098260
C24	C	0.019300	0.938700	0.659910	-0.092373
C25	C	0.021500	0.803300	0.666000	0.041956
C26	C	0.105400	0.740900	0.738150	0.215399
C27	C	0.232400	0.587000	0.812530	0.129417
C28	C	0.265000	0.708800	0.846980	0.120365
C29	C	0.280800	0.449800	0.835470	0.413113
C30	C	0.366800	0.748900	0.921640	0.461826
C31	C	0.047000	0.003900	0.089130	0.113628
C32	C	0.111100	0.201900	0.030560	0.096113
C33	C	0.049600	0.267400	0.099960	-0.098260
C34	C	0.980700	0.061300	0.159910	-0.092373
C35	C	0.978500	0.196700	0.166000	0.041956
C36	C	0.894600	0.259100	0.238150	0.215399
C37	C	0.767600	0.413000	0.312530	0.129417
C38	C	0.735000	0.291200	0.346980	0.120365
C39	C	0.719200	0.550200	0.335470	0.413113
C40	C	0.633200	0.251100	0.421640	0.461826
N1	N	0.391000	0.571800	0.523280	-0.396230
N2	N	0.629400	0.889680	0.744550	-0.412993
N3	N	0.682200	0.696040	0.800500	-0.411095
N4	N	0.609000	0.428200	0.023280	-0.396230
N5	N	0.370600	0.110320	0.244550	-0.412993
N6	N	0.317800	0.303960	0.300500	-0.411095
N7	N	0.891000	0.928200	0.523280	-0.396230
N8	N	0.129400	0.610320	0.744550	-0.412993
N9	N	0.182200	0.803960	0.800500	-0.411095
N10	N	0.109000	0.071800	0.023280	-0.396230
N11	N	0.870600	0.389680	0.244550	-0.412993
N12	N	0.817800	0.196040	0.300500	-0.411095
O1	O	0.665200	0.133320	0.828980	-0.291871
O2	O	0.932200	0.074570	0.856730	-0.671688
O3	O	0.970500	0.828710	0.954120	-0.570972
O4	O	0.844800	0.635180	0.947650	-0.583993
O5	O	0.334800	0.866680	0.328980	-0.291871
O6	O	0.067800	0.925430	0.356730	-0.671688
O7	O	0.029500	0.171290	0.454120	-0.570972
O8	O	0.155200	0.364820	0.447650	-0.583993
O9	O	0.165200	0.366680	0.828980	-0.291871
O10	O	0.432200	0.425430	0.856730	-0.671688
O11	O	0.470500	0.671290	0.954120	-0.570972
O12	O	0.344800	0.864820	0.947650	-0.583993
O13	O	0.834800	0.633320	0.328980	-0.291871
O14	O	0.567800	0.574570	0.356730	-0.671688
O15	O	0.529500	0.328710	0.454120	-0.570972
O16	O	0.655200	0.135180	0.447650	-0.583993
