data_GERWEH_clean_PM
_symmetry_space_group_name_H-M	'P1'
_cell_length_a	9.105000
_cell_length_b	17.492000
_cell_length_c	17.492000
_cell_angle_alpha	90.000000
_cell_angle_beta	90.000000
_cell_angle_gamma	90.000000
_symmetry_Int_Tables_number 1

loop_
_symmetry_equiv_pos_as_xyz
'x,y,z'

loop_
_atom_site_label
_atom_site_type_symbol
_atom_site_fract_x
_atom_site_fract_y
_atom_site_fract_z
_atom_site_charge
Cu1	Cu	0.415130	0.956280	0.543720	1.184490
Cu2	Cu	0.415130	0.543720	0.956280	1.184490
Cu3	Cu	0.415130	0.956280	0.956280	1.184490
Cu4	Cu	0.415130	0.543720	0.543720	1.184490
Cu5	Cu	0.584870	0.043720	0.043720	1.184490
Cu6	Cu	0.584870	0.456280	0.456280	1.184490
Cu7	Cu	0.584870	0.043720	0.456280	1.184490
Cu8	Cu	0.584870	0.456280	0.043720	1.184490
Si1	Si	0.000000	0.750000	0.250000	1.029536
Si2	Si	0.000000	0.250000	0.750000	1.029536
H1	H	0.860100	0.864800	0.348300	0.102311
H2	H	0.860100	0.635200	0.151700	0.102311
H3	H	0.860100	0.151700	0.864800	0.102311
H4	H	0.860100	0.348300	0.635200	0.102311
H5	H	0.139900	0.135200	0.848300	0.102311
H6	H	0.139900	0.364800	0.651700	0.102311
H7	H	0.139900	0.848300	0.364800	0.102311
H8	H	0.139900	0.651700	0.135200	0.102311
H9	H	0.139900	0.135200	0.651700	0.102311
H10	H	0.139900	0.364800	0.848300	0.102311
H11	H	0.139900	0.848300	0.135200	0.102311
H12	H	0.139900	0.651700	0.364800	0.102311
H13	H	0.860100	0.864800	0.151700	0.102311
H14	H	0.860100	0.635200	0.348300	0.102311
H15	H	0.860100	0.151700	0.635200	0.102311
H16	H	0.860100	0.348300	0.864800	0.102311
H17	H	0.610400	0.750000	0.497800	0.157620
H18	H	0.610400	0.750000	0.002200	0.157620
H19	H	0.610400	0.002200	0.750000	0.157620
H20	H	0.610400	0.497800	0.750000	0.157620
H21	H	0.389600	0.250000	0.997800	0.157620
H22	H	0.389600	0.250000	0.502200	0.157620
H23	H	0.389600	0.997800	0.250000	0.157620
H24	H	0.389600	0.502200	0.250000	0.157620
C1	C	0.826900	0.818550	0.368100	0.035727
C2	C	0.725200	0.818700	0.427700	0.041731
C3	C	0.658800	0.890500	0.458400	0.484562
C4	C	0.826900	0.681450	0.131900	0.035727
C5	C	0.725200	0.681300	0.072300	0.041731
C6	C	0.658800	0.609500	0.041600	0.484562
C7	C	0.826900	0.131900	0.818550	0.035727
C8	C	0.725200	0.072300	0.818700	0.041731
C9	C	0.658800	0.041600	0.890500	0.484562
C10	C	0.826900	0.368100	0.681450	0.035727
C11	C	0.725200	0.427700	0.681300	0.041731
C12	C	0.658800	0.458400	0.609500	0.484562
C13	C	0.173100	0.181450	0.868100	0.035727
C14	C	0.274800	0.181300	0.927700	0.041731
C15	C	0.341200	0.109500	0.958400	0.484562
C16	C	0.173100	0.318550	0.631900	0.035727
C17	C	0.274800	0.318700	0.572300	0.041731
C18	C	0.341200	0.390500	0.541600	0.484562
C19	C	0.173100	0.868100	0.318550	0.035727
C20	C	0.274800	0.927700	0.318700	0.041731
C21	C	0.341200	0.958400	0.390500	0.484562
C22	C	0.173100	0.631900	0.181450	0.035727
C23	C	0.274800	0.572300	0.181300	0.041731
C24	C	0.341200	0.541600	0.109500	0.484562
C25	C	0.173100	0.181450	0.631900	0.035727
C26	C	0.274800	0.181300	0.572300	0.041731
C27	C	0.341200	0.109500	0.541600	0.484562
C28	C	0.173100	0.318550	0.868100	0.035727
C29	C	0.274800	0.318700	0.927700	0.041731
C30	C	0.341200	0.390500	0.958400	0.484562
C31	C	0.173100	0.868100	0.181450	0.035727
C32	C	0.274800	0.927700	0.181300	0.041731
C33	C	0.341200	0.958400	0.109500	0.484562
C34	C	0.173100	0.631900	0.318550	0.035727
C35	C	0.274800	0.572300	0.318700	0.041731
C36	C	0.341200	0.541600	0.390500	0.484562
C37	C	0.826900	0.818550	0.131900	0.035727
C38	C	0.725200	0.818700	0.072300	0.041731
C39	C	0.658800	0.890500	0.041600	0.484562
C40	C	0.826900	0.681450	0.368100	0.035727
C41	C	0.725200	0.681300	0.427700	0.041731
C42	C	0.658800	0.609500	0.458400	0.484562
C43	C	0.826900	0.131900	0.681450	0.035727
C44	C	0.725200	0.072300	0.681300	0.041731
C45	C	0.658800	0.041600	0.609500	0.484562
C46	C	0.826900	0.368100	0.818550	0.035727
C47	C	0.725200	0.427700	0.818700	0.041731
C48	C	0.658800	0.458400	0.890500	0.484562
C49	C	0.879500	0.750000	0.337500	-0.414562
C50	C	0.676700	0.750000	0.457300	0.002896
C51	C	0.879500	0.750000	0.162500	-0.414562
C52	C	0.676700	0.750000	0.042700	0.002896
C53	C	0.879500	0.162500	0.750000	-0.414562
C54	C	0.676700	0.042700	0.750000	0.002896
C55	C	0.879500	0.337500	0.750000	-0.414562
C56	C	0.676700	0.457300	0.750000	0.002896
C57	C	0.120500	0.250000	0.837500	-0.414562
C58	C	0.323300	0.250000	0.957300	0.002896
C59	C	0.120500	0.250000	0.662500	-0.414562
C60	C	0.323300	0.250000	0.542700	0.002896
C61	C	0.120500	0.837500	0.250000	-0.414562
C62	C	0.323300	0.957300	0.250000	0.002896
C63	C	0.120500	0.662500	0.250000	-0.414562
C64	C	0.323300	0.542700	0.250000	0.002896
O1	O	0.558900	0.882200	0.506210	-0.655075
O2	O	0.704500	0.953000	0.432500	-0.603170
O3	O	0.558900	0.617800	0.993790	-0.655075
O4	O	0.704500	0.547000	0.067500	-0.603170
O5	O	0.558900	0.993790	0.882200	-0.655075
O6	O	0.704500	0.067500	0.953000	-0.603170
O7	O	0.558900	0.506210	0.617800	-0.655075
O8	O	0.704500	0.432500	0.547000	-0.603170
O9	O	0.441100	0.117800	0.006210	-0.655075
O10	O	0.295500	0.047000	0.932500	-0.603170
O11	O	0.441100	0.382200	0.493790	-0.655075
O12	O	0.295500	0.453000	0.567500	-0.603170
O13	O	0.441100	0.006210	0.382200	-0.655075
O14	O	0.295500	0.932500	0.453000	-0.603170
O15	O	0.441100	0.493790	0.117800	-0.655075
O16	O	0.295500	0.567500	0.047000	-0.603170
O17	O	0.441100	0.117800	0.493790	-0.655075
O18	O	0.295500	0.047000	0.567500	-0.603170
O19	O	0.441100	0.382200	0.006210	-0.655075
O20	O	0.295500	0.453000	0.932500	-0.603170
O21	O	0.441100	0.006210	0.117800	-0.655075
O22	O	0.295500	0.932500	0.047000	-0.603170
O23	O	0.441100	0.493790	0.382200	-0.655075
O24	O	0.295500	0.567500	0.453000	-0.603170
O25	O	0.558900	0.882200	0.993790	-0.655075
O26	O	0.704500	0.953000	0.067500	-0.603170
O27	O	0.558900	0.617800	0.506210	-0.655075
O28	O	0.704500	0.547000	0.432500	-0.603170
O29	O	0.558900	0.993790	0.617800	-0.655075
O30	O	0.704500	0.067500	0.547000	-0.603170
O31	O	0.558900	0.506210	0.882200	-0.655075
O32	O	0.704500	0.432500	0.953000	-0.603170
