data_GIZJOP_clean_PM
_symmetry_space_group_name_H-M	'P1'
_cell_length_a	15.662000
_cell_length_b	15.662100
_cell_length_c	18.207300
_cell_angle_alpha	90.000000
_cell_angle_beta	90.000000
_cell_angle_gamma	90.000000
_symmetry_Int_Tables_number 1

loop_
_symmetry_equiv_pos_as_xyz
'x,y,z'

loop_
_atom_site_label
_atom_site_type_symbol
_atom_site_fract_x
_atom_site_fract_y
_atom_site_fract_z
_atom_site_charge
Zn1	Zn	0.696570	0.860790	0.403410	1.021220
Zn2	Zn	0.502570	0.835010	0.683290	1.019619
Zn3	Zn	0.803430	0.139210	0.903410	1.021220
Zn4	Zn	0.997430	0.164990	0.183290	1.019619
Zn5	Zn	0.303430	0.360790	0.096590	1.021220
Zn6	Zn	0.497430	0.335010	0.816710	1.019619
Zn7	Zn	0.196570	0.639210	0.596590	1.021220
Zn8	Zn	0.002570	0.664990	0.316710	1.019619
Zn9	Zn	0.303430	0.139210	0.596590	1.021220
Zn10	Zn	0.497430	0.164990	0.316710	1.019619
Zn11	Zn	0.196570	0.860790	0.096590	1.021220
Zn12	Zn	0.002570	0.835010	0.816710	1.019619
Zn13	Zn	0.696570	0.639210	0.903410	1.021220
Zn14	Zn	0.502570	0.664990	0.183290	1.019619
Zn15	Zn	0.803430	0.360790	0.403410	1.021220
Zn16	Zn	0.997430	0.335010	0.683290	1.019619
H1	H	0.890500	0.940000	0.420900	0.046894
H2	H	0.019400	0.858500	0.388500	0.049650
H3	H	0.637200	0.663700	0.431900	0.052677
H4	H	0.730400	0.961300	0.252000	0.055567
H5	H	0.765200	0.938900	0.558300	0.049956
H6	H	0.556600	0.818100	0.517800	0.065755
H7	H	0.684200	0.927100	0.671500	0.055787
H8	H	0.589800	0.812400	0.268100	0.065975
H9	H	0.558300	0.583200	0.339600	0.052481
H10	H	0.639500	0.074900	0.208000	0.052257
H11	H	0.567500	0.012600	0.404300	0.067760
H12	H	0.817500	0.719100	0.347700	0.073219
H13	H	0.609500	0.060000	0.920900	0.046894
H14	H	0.480600	0.141500	0.888500	0.049650
H15	H	0.862800	0.336300	0.931900	0.052677
H16	H	0.769600	0.038700	0.752000	0.055567
H17	H	0.734800	0.061100	0.058300	0.049956
H18	H	0.943400	0.181900	0.017800	0.065755
H19	H	0.815800	0.072900	0.171500	0.055787
H20	H	0.910200	0.187600	0.768100	0.065975
H21	H	0.941700	0.416800	0.839600	0.052481
H22	H	0.860500	0.925100	0.708000	0.052257
H23	H	0.932500	0.987400	0.904300	0.067760
H24	H	0.682500	0.280900	0.847700	0.073219
H25	H	0.109500	0.440000	0.079100	0.046894
H26	H	0.980600	0.358500	0.111500	0.049650
H27	H	0.362800	0.163700	0.068100	0.052677
H28	H	0.269600	0.461300	0.248000	0.055567
H29	H	0.234800	0.438900	0.941700	0.049956
H30	H	0.443400	0.318100	0.982200	0.065755
H31	H	0.315800	0.427100	0.828500	0.055787
H32	H	0.410200	0.312400	0.231900	0.065975
H33	H	0.441700	0.083200	0.160400	0.052481
H34	H	0.360500	0.574900	0.292000	0.052257
H35	H	0.432500	0.512600	0.095700	0.067760
H36	H	0.182500	0.219100	0.152300	0.073219
H37	H	0.390500	0.560000	0.579100	0.046894
H38	H	0.519400	0.641500	0.611500	0.049650
H39	H	0.137200	0.836300	0.568100	0.052677
H40	H	0.230400	0.538700	0.748000	0.055567
H41	H	0.265200	0.561100	0.441700	0.049956
H42	H	0.056600	0.681900	0.482200	0.065755
H43	H	0.184200	0.572900	0.328500	0.055787
H44	H	0.089800	0.687600	0.731900	0.065975
H45	H	0.058300	0.916800	0.660400	0.052481
H46	H	0.139500	0.425100	0.792000	0.052257
H47	H	0.067500	0.487400	0.595700	0.067760
H48	H	0.317500	0.780900	0.652300	0.073219
H49	H	0.109500	0.060000	0.579100	0.046894
H50	H	0.980600	0.141500	0.611500	0.049650
H51	H	0.362800	0.336300	0.568100	0.052677
H52	H	0.269600	0.038700	0.748000	0.055567
H53	H	0.234800	0.061100	0.441700	0.049956
H54	H	0.443400	0.181900	0.482200	0.065755
H55	H	0.315800	0.072900	0.328500	0.055787
H56	H	0.410200	0.187600	0.731900	0.065975
H57	H	0.441700	0.416800	0.660400	0.052481
H58	H	0.360500	0.925100	0.792000	0.052257
H59	H	0.432500	0.987400	0.595700	0.067760
H60	H	0.182500	0.280900	0.652300	0.073219
H61	H	0.390500	0.940000	0.079100	0.046894
H62	H	0.519400	0.858500	0.111500	0.049650
H63	H	0.137200	0.663700	0.068100	0.052677
H64	H	0.230400	0.961300	0.248000	0.055567
H65	H	0.265200	0.938900	0.941700	0.049956
H66	H	0.056600	0.818100	0.982200	0.065755
H67	H	0.184200	0.927100	0.828500	0.055787
H68	H	0.089800	0.812400	0.231900	0.065975
H69	H	0.058300	0.583200	0.160400	0.052481
H70	H	0.139500	0.074900	0.292000	0.052257
H71	H	0.067500	0.012600	0.095700	0.067760
H72	H	0.317500	0.719100	0.152300	0.073219
H73	H	0.890500	0.560000	0.920900	0.046894
H74	H	0.019400	0.641500	0.888500	0.049650
H75	H	0.637200	0.836300	0.931900	0.052677
H76	H	0.730400	0.538700	0.752000	0.055567
H77	H	0.765200	0.561100	0.058300	0.049956
H78	H	0.556600	0.681900	0.017800	0.065755
H79	H	0.684200	0.572900	0.171500	0.055787
H80	H	0.589800	0.687600	0.768100	0.065975
H81	H	0.558300	0.916800	0.839600	0.052481
H82	H	0.639500	0.425100	0.708000	0.052257
H83	H	0.567500	0.487400	0.904300	0.067760
H84	H	0.817500	0.780900	0.847700	0.073219
H85	H	0.609500	0.440000	0.420900	0.046894
H86	H	0.480600	0.358500	0.388500	0.049650
H87	H	0.862800	0.163700	0.431900	0.052677
H88	H	0.769600	0.461300	0.252000	0.055567
H89	H	0.734800	0.438900	0.558300	0.049956
H90	H	0.943400	0.318100	0.517800	0.065755
H91	H	0.815800	0.427100	0.671500	0.055787
H92	H	0.910200	0.312400	0.268100	0.065975
H93	H	0.941700	0.083200	0.339600	0.052481
H94	H	0.860500	0.574900	0.208000	0.052257
H95	H	0.932500	0.512600	0.404300	0.067760
H96	H	0.682500	0.219100	0.347700	0.073219
C1	C	0.890900	0.885100	0.401400	0.071156
C2	C	0.963300	0.840000	0.382800	0.066594
C3	C	0.618400	0.684600	0.387000	0.074326
C4	C	0.685700	0.985700	0.278300	0.073395
C5	C	0.712000	0.913000	0.563000	0.074617
C6	C	0.599300	0.848200	0.542200	0.198604
C7	C	0.667100	0.906300	0.626000	0.076433
C8	C	0.592000	0.764200	0.297800	0.201370
C9	C	0.574300	0.640200	0.335900	0.073935
C10	C	0.636300	0.049300	0.253900	0.066805
C11	C	0.597800	0.014700	0.360400	0.196380
C12	C	0.851700	0.765200	0.360900	0.193003
C13	C	0.609100	0.114900	0.901400	0.071156
C14	C	0.536700	0.160000	0.882800	0.066594
C15	C	0.881600	0.315400	0.887000	0.074326
C16	C	0.814300	0.014300	0.778300	0.073395
C17	C	0.788000	0.087000	0.063000	0.074617
C18	C	0.900700	0.151800	0.042200	0.198604
C19	C	0.832900	0.093700	0.126000	0.076433
C20	C	0.908000	0.235800	0.797800	0.201370
C21	C	0.925700	0.359800	0.835900	0.073935
C22	C	0.863700	0.950700	0.753900	0.066805
C23	C	0.902200	0.985300	0.860400	0.196380
C24	C	0.648300	0.234800	0.860900	0.193003
C25	C	0.109100	0.385100	0.098600	0.071156
C26	C	0.036700	0.340000	0.117200	0.066594
C27	C	0.381600	0.184600	0.113000	0.074326
C28	C	0.314300	0.485700	0.221700	0.073395
C29	C	0.288000	0.413000	0.937000	0.074617
C30	C	0.400700	0.348200	0.957800	0.198604
C31	C	0.332900	0.406300	0.874000	0.076433
C32	C	0.408000	0.264200	0.202200	0.201370
C33	C	0.425700	0.140200	0.164100	0.073935
C34	C	0.363700	0.549300	0.246100	0.066805
C35	C	0.402200	0.514700	0.139600	0.196380
C36	C	0.148300	0.265200	0.139100	0.193003
C37	C	0.390900	0.614900	0.598600	0.071156
C38	C	0.463300	0.660000	0.617200	0.066594
C39	C	0.118400	0.815400	0.613000	0.074326
C40	C	0.185700	0.514300	0.721700	0.073395
C41	C	0.212000	0.587000	0.437000	0.074617
C42	C	0.099300	0.651800	0.457800	0.198604
C43	C	0.167100	0.593700	0.374000	0.076433
C44	C	0.092000	0.735800	0.702200	0.201370
C45	C	0.074300	0.859800	0.664100	0.073935
C46	C	0.136300	0.450700	0.746100	0.066805
C47	C	0.097800	0.485300	0.639600	0.196380
C48	C	0.351700	0.734800	0.639100	0.193003
C49	C	0.109100	0.114900	0.598600	0.071156
C50	C	0.036700	0.160000	0.617200	0.066594
C51	C	0.381600	0.315400	0.613000	0.074326
C52	C	0.314300	0.014300	0.721700	0.073395
C53	C	0.288000	0.087000	0.437000	0.074617
C54	C	0.400700	0.151800	0.457800	0.198604
C55	C	0.332900	0.093700	0.374000	0.076433
C56	C	0.408000	0.235800	0.702200	0.201370
C57	C	0.425700	0.359800	0.664100	0.073935
C58	C	0.363700	0.950700	0.746100	0.066805
C59	C	0.402200	0.985300	0.639600	0.196380
C60	C	0.148300	0.234800	0.639100	0.193003
C61	C	0.390900	0.885100	0.098600	0.071156
C62	C	0.463300	0.840000	0.117200	0.066594
C63	C	0.118400	0.684600	0.113000	0.074326
C64	C	0.185700	0.985700	0.221700	0.073395
C65	C	0.212000	0.913000	0.937000	0.074617
C66	C	0.099300	0.848200	0.957800	0.198604
C67	C	0.167100	0.906300	0.874000	0.076433
C68	C	0.092000	0.764200	0.202200	0.201370
C69	C	0.074300	0.640200	0.164100	0.073935
C70	C	0.136300	0.049300	0.246100	0.066805
C71	C	0.097800	0.014700	0.139600	0.196380
C72	C	0.351700	0.765200	0.139100	0.193003
C73	C	0.890900	0.614900	0.901400	0.071156
C74	C	0.963300	0.660000	0.882800	0.066594
C75	C	0.618400	0.815400	0.887000	0.074326
C76	C	0.685700	0.514300	0.778300	0.073395
C77	C	0.712000	0.587000	0.063000	0.074617
C78	C	0.599300	0.651800	0.042200	0.198604
C79	C	0.667100	0.593700	0.126000	0.076433
C80	C	0.592000	0.735800	0.797800	0.201370
C81	C	0.574300	0.859800	0.835900	0.073935
C82	C	0.636300	0.450700	0.753900	0.066805
C83	C	0.597800	0.485300	0.860400	0.196380
C84	C	0.851700	0.734800	0.860900	0.193003
C85	C	0.609100	0.385100	0.401400	0.071156
C86	C	0.536700	0.340000	0.382800	0.066594
C87	C	0.881600	0.184600	0.387000	0.074326
C88	C	0.814300	0.485700	0.278300	0.073395
C89	C	0.788000	0.413000	0.563000	0.074617
C90	C	0.900700	0.348200	0.542200	0.198604
C91	C	0.832900	0.406300	0.626000	0.076433
C92	C	0.908000	0.264200	0.297800	0.201370
C93	C	0.925700	0.140200	0.335900	0.073935
C94	C	0.863700	0.549300	0.253900	0.066805
C95	C	0.902200	0.514700	0.360400	0.196380
C96	C	0.648300	0.265200	0.360900	0.193003
N1	N	0.819900	0.837300	0.387000	-0.505332
N2	N	0.630200	0.763800	0.361800	-0.510337
N3	N	0.661500	0.962000	0.345800	-0.512912
N4	N	0.667700	0.876200	0.507700	-0.522212
N5	N	0.594300	0.864800	0.612400	-0.516326
N6	N	0.557400	0.692100	0.279100	-0.511272
N7	N	0.580200	0.070100	0.308500	-0.513711
N8	N	0.936300	0.763600	0.354900	-0.503334
N9	N	0.680100	0.162700	0.887000	-0.505332
N10	N	0.869800	0.236200	0.861800	-0.510337
N11	N	0.838500	0.038000	0.845800	-0.512912
N12	N	0.832300	0.123800	0.007700	-0.522212
N13	N	0.905700	0.135200	0.112400	-0.516326
N14	N	0.942600	0.307900	0.779100	-0.511272
N15	N	0.919800	0.929900	0.808500	-0.513711
N16	N	0.563700	0.236400	0.854900	-0.503334
N17	N	0.180100	0.337300	0.113000	-0.505332
N18	N	0.369800	0.263800	0.138200	-0.510337
N19	N	0.338500	0.462000	0.154200	-0.512912
N20	N	0.332300	0.376200	0.992300	-0.522212
N21	N	0.405700	0.364800	0.887600	-0.516326
N22	N	0.442600	0.192100	0.220900	-0.511272
N23	N	0.419800	0.570100	0.191500	-0.513711
N24	N	0.063700	0.263600	0.145100	-0.503334
N25	N	0.319900	0.662700	0.613000	-0.505332
N26	N	0.130200	0.736200	0.638200	-0.510337
N27	N	0.161500	0.538000	0.654200	-0.512912
N28	N	0.167700	0.623800	0.492300	-0.522212
N29	N	0.094300	0.635200	0.387600	-0.516326
N30	N	0.057400	0.807900	0.720900	-0.511272
N31	N	0.080200	0.429900	0.691500	-0.513711
N32	N	0.436300	0.736400	0.645100	-0.503334
N33	N	0.180100	0.162700	0.613000	-0.505332
N34	N	0.369800	0.236200	0.638200	-0.510337
N35	N	0.338500	0.038000	0.654200	-0.512912
N36	N	0.332300	0.123800	0.492300	-0.522212
N37	N	0.405700	0.135200	0.387600	-0.516326
N38	N	0.442600	0.307900	0.720900	-0.511272
N39	N	0.419800	0.929900	0.691500	-0.513711
N40	N	0.063700	0.236400	0.645100	-0.503334
N41	N	0.319900	0.837300	0.113000	-0.505332
N42	N	0.130200	0.763800	0.138200	-0.510337
N43	N	0.161500	0.962000	0.154200	-0.512912
N44	N	0.167700	0.876200	0.992300	-0.522212
N45	N	0.094300	0.864800	0.887600	-0.516326
N46	N	0.057400	0.692100	0.220900	-0.511272
N47	N	0.080200	0.070100	0.191500	-0.513711
N48	N	0.436300	0.763600	0.145100	-0.503334
N49	N	0.819900	0.662700	0.887000	-0.505332
N50	N	0.630200	0.736200	0.861800	-0.510337
N51	N	0.661500	0.538000	0.845800	-0.512912
N52	N	0.667700	0.623800	0.007700	-0.522212
N53	N	0.594300	0.635200	0.112400	-0.516326
N54	N	0.557400	0.807900	0.779100	-0.511272
N55	N	0.580200	0.429900	0.808500	-0.513711
N56	N	0.936300	0.736400	0.854900	-0.503334
N57	N	0.680100	0.337300	0.387000	-0.505332
N58	N	0.869800	0.263800	0.361800	-0.510337
N59	N	0.838500	0.462000	0.345800	-0.512912
N60	N	0.832300	0.376200	0.507700	-0.522212
N61	N	0.905700	0.364800	0.612400	-0.516326
N62	N	0.942600	0.192100	0.279100	-0.511272
N63	N	0.919800	0.570100	0.308500	-0.513711
N64	N	0.563700	0.263600	0.354900	-0.503334
