data_HAXMUP_clean_PM
_symmetry_space_group_name_H-M	'P1'
_cell_length_a	10.063100
_cell_length_b	14.516600
_cell_length_c	14.516600
_cell_angle_alpha	114.828899
_cell_angle_beta	103.360101
_cell_angle_gamma	103.359998
_symmetry_Int_Tables_number 1

loop_
_symmetry_equiv_pos_as_xyz
'x,y,z'

loop_
_atom_site_label
_atom_site_type_symbol
_atom_site_fract_x
_atom_site_fract_y
_atom_site_fract_z
_atom_site_charge
Cu1	Cu	0.382550	0.887600	0.450650	1.128498
Cu2	Cu	0.931900	0.549350	0.436950	1.128498
Cu3	Cu	0.494950	0.563050	0.112400	1.128499
Cu4	Cu	0.617450	0.112400	0.549350	1.128498
Cu5	Cu	0.068100	0.450650	0.563050	1.128498
Cu6	Cu	0.505050	0.436950	0.887600	1.128499
H1	H	0.473800	0.725000	0.308300	0.051019
H2	H	0.031500	0.658400	0.068000	0.085239
H3	H	0.105600	0.778900	0.251700	0.055589
H4	H	0.090400	0.534600	0.924500	0.182033
H5	H	0.244400	0.513000	0.952700	0.224904
H6	H	0.627000	0.019400	0.709000	0.051688
H7	H	0.451800	0.961400	0.686300	0.060278
H8	H	0.532800	0.091400	0.742300	0.093636
H9	H	0.165500	0.691700	0.416700	0.051020
H10	H	0.963500	0.932000	0.590400	0.085239
H11	H	0.853900	0.748300	0.527200	0.055589
H12	H	0.165900	0.075500	0.610100	0.182034
H13	H	0.291700	0.047300	0.560300	0.224904
H14	H	0.918000	0.291000	0.310400	0.051688
H15	H	0.765500	0.313700	0.275100	0.060278
H16	H	0.790500	0.257700	0.349100	0.093636
H17	H	0.748800	0.583300	0.275000	0.051019
H18	H	0.373100	0.409600	0.341600	0.085239
H19	H	0.326700	0.472800	0.221100	0.055589
H20	H	0.555800	0.389900	0.465400	0.182033
H21	H	0.731400	0.439700	0.487000	0.224904
H22	H	0.607600	0.689600	0.980600	0.051688
H23	H	0.490400	0.724900	0.038600	0.060278
H24	H	0.441400	0.650900	0.908600	0.093636
H25	H	0.526200	0.275000	0.691700	0.051019
H26	H	0.968500	0.341600	0.932000	0.085239
H27	H	0.894400	0.221100	0.748300	0.055589
H28	H	0.909600	0.465400	0.075500	0.182033
H29	H	0.755600	0.487000	0.047300	0.224904
H30	H	0.373000	0.980600	0.291000	0.051688
H31	H	0.548200	0.038600	0.313700	0.060278
H32	H	0.467200	0.908600	0.257700	0.093636
H33	H	0.834500	0.308300	0.583300	0.051020
H34	H	0.036500	0.068000	0.409600	0.085239
H35	H	0.146100	0.251700	0.472800	0.055589
H36	H	0.834100	0.924500	0.389900	0.182034
H37	H	0.708300	0.952700	0.439700	0.224904
H38	H	0.082000	0.709000	0.689600	0.051688
H39	H	0.234500	0.686300	0.724900	0.060278
H40	H	0.209500	0.742300	0.650900	0.093636
H41	H	0.251200	0.416700	0.725000	0.051019
H42	H	0.626900	0.590400	0.658400	0.085239
H43	H	0.673300	0.527200	0.778900	0.055589
H44	H	0.444200	0.610100	0.534600	0.182033
H45	H	0.268600	0.560300	0.513000	0.224904
H46	H	0.392400	0.310400	0.019400	0.051688
H47	H	0.509600	0.275100	0.961400	0.060278
H48	H	0.558600	0.349100	0.091400	0.093636
C1	C	0.123000	0.671700	0.118000	-0.139507
C2	C	0.381900	0.710700	0.258100	0.180127
C3	C	0.167000	0.742100	0.225800	0.087629
C4	C	0.216800	0.617900	0.080000	0.274562
C5	C	0.522600	0.024000	0.689100	0.085603
C6	C	0.005000	0.882000	0.553700	-0.139507
C7	C	0.123800	0.741900	0.452600	0.180127
C8	C	0.941200	0.774200	0.516300	0.087629
C9	C	0.136800	0.920000	0.537900	0.274562
C10	C	0.833500	0.310900	0.334900	0.085603
C11	C	0.451300	0.446300	0.328300	-0.139507
C12	C	0.671200	0.547400	0.289300	0.180127
C13	C	0.424900	0.483700	0.257900	0.087629
C14	C	0.598900	0.462100	0.382100	0.274562
C15	C	0.498600	0.665100	0.976000	0.085603
C16	C	0.877000	0.328300	0.882000	-0.139507
C17	C	0.618100	0.289300	0.741900	0.180127
C18	C	0.833000	0.257900	0.774200	0.087629
C19	C	0.783200	0.382100	0.920000	0.274562
C20	C	0.477400	0.976000	0.310900	0.085603
C21	C	0.995000	0.118000	0.446300	-0.139507
C22	C	0.876200	0.258100	0.547400	0.180127
C23	C	0.058800	0.225800	0.483700	0.087629
C24	C	0.863200	0.080000	0.462100	0.274562
C25	C	0.166500	0.689100	0.665100	0.085603
C26	C	0.548700	0.553700	0.671700	-0.139507
C27	C	0.328800	0.452600	0.710700	0.180127
C28	C	0.575100	0.516300	0.742100	0.087629
C29	C	0.401100	0.537900	0.617900	0.274562
C30	C	0.501400	0.334900	0.024000	0.085603
N1	N	0.299700	0.763900	0.299400	-0.505533
N2	N	0.348300	0.638900	0.154100	-0.462321
N3	N	0.180800	0.548800	0.976300	-0.535722
N4	N	0.000300	0.700600	0.464500	-0.505533
N5	N	0.194200	0.845900	0.484800	-0.462321
N6	N	0.204500	0.023700	0.572500	-0.535722
N7	N	0.535800	0.535500	0.236100	-0.505532
N8	N	0.709400	0.515200	0.361100	-0.462320
N9	N	0.632000	0.427500	0.451200	-0.535721
N10	N	0.700300	0.236100	0.700600	-0.505533
N11	N	0.651700	0.361100	0.845900	-0.462321
N12	N	0.819200	0.451200	0.023700	-0.535722
N13	N	0.999700	0.299400	0.535500	-0.505533
N14	N	0.805800	0.154100	0.515200	-0.462321
N15	N	0.795500	0.976300	0.427500	-0.535722
N16	N	0.464200	0.464500	0.763900	-0.505532
N17	N	0.290600	0.484800	0.638900	-0.462320
N18	N	0.368000	0.572500	0.548800	-0.535721
O1	O	0.487600	0.021700	0.587000	-0.917723
O2	O	0.900600	0.413000	0.434700	-0.917724
O3	O	0.465900	0.565300	0.978300	-0.917724
O4	O	0.512400	0.978300	0.413000	-0.917723
O5	O	0.099400	0.587000	0.565300	-0.917724
O6	O	0.534100	0.434700	0.021700	-0.917724
