data_HIFVUO_PM
_symmetry_space_group_name_H-M	'P1'
_cell_length_a	18.389000
_cell_length_b	18.389000
_cell_length_c	19.129000
_cell_angle_alpha	90.000000
_cell_angle_beta	90.000000
_cell_angle_gamma	90.000000
_symmetry_Int_Tables_number 1

loop_
_symmetry_equiv_pos_as_xyz
'x,y,z'

loop_
_atom_site_label
_atom_site_type_symbol
_atom_site_fract_x
_atom_site_fract_y
_atom_site_fract_z
_atom_site_charge
Zn1	Zn	0.684290	0.118130	0.406940	1.023663
Zn2	Zn	0.631870	0.934290	0.656940	1.023663
Zn3	Zn	0.184290	0.618130	0.906940	1.023663
Zn4	Zn	0.131870	0.434290	0.156940	1.023663
Zn5	Zn	0.368130	0.565710	0.656940	1.023663
Zn6	Zn	0.815710	0.881870	0.906940	1.023663
Zn7	Zn	0.868130	0.065710	0.156940	1.023663
Zn8	Zn	0.315710	0.381870	0.406940	1.023663
Zn9	Zn	0.315710	0.881870	0.593060	1.023663
Zn10	Zn	0.368130	0.065710	0.343060	1.023663
Zn11	Zn	0.815710	0.381870	0.093060	1.023663
Zn12	Zn	0.868130	0.565710	0.843060	1.023663
Zn13	Zn	0.631870	0.434290	0.343060	1.023663
Zn14	Zn	0.184290	0.118130	0.093060	1.023663
Zn15	Zn	0.131870	0.934290	0.843060	1.023663
Zn16	Zn	0.684290	0.618130	0.593060	1.023663
H1	H	0.610800	0.016000	0.514100	0.068389
H2	H	0.734000	0.860800	0.764100	0.068389
H3	H	0.110800	0.516000	0.014100	0.068389
H4	H	0.234000	0.360800	0.264100	0.068389
H5	H	0.266000	0.639200	0.764100	0.068389
H6	H	0.889200	0.984000	0.014100	0.068389
H7	H	0.766000	0.139200	0.264100	0.068389
H8	H	0.389200	0.484000	0.514100	0.068389
H9	H	0.389200	0.984000	0.485900	0.068389
H10	H	0.266000	0.139200	0.235900	0.068389
H11	H	0.889200	0.484000	0.985900	0.068389
H12	H	0.766000	0.639200	0.735900	0.068389
H13	H	0.734000	0.360800	0.235900	0.068389
H14	H	0.110800	0.016000	0.985900	0.068389
H15	H	0.234000	0.860800	0.735900	0.068389
H16	H	0.610800	0.516000	0.485900	0.068389
H17	H	0.794700	0.110900	0.540100	0.050876
H18	H	0.639100	0.044700	0.790100	0.050876
H19	H	0.294700	0.610900	0.040100	0.050876
H20	H	0.139100	0.544700	0.290100	0.050876
H21	H	0.360900	0.455300	0.790100	0.050876
H22	H	0.705300	0.889100	0.040100	0.050876
H23	H	0.860900	0.955300	0.290100	0.050876
H24	H	0.205300	0.389100	0.540100	0.050876
H25	H	0.205300	0.889100	0.459900	0.050876
H26	H	0.360900	0.955300	0.209900	0.050876
H27	H	0.705300	0.389100	0.959900	0.050876
H28	H	0.860900	0.455300	0.709900	0.050876
H29	H	0.639100	0.544700	0.209900	0.050876
H30	H	0.294700	0.110900	0.959900	0.050876
H31	H	0.139100	0.044700	0.709900	0.050876
H32	H	0.794700	0.610900	0.459900	0.050876
H33	H	0.766800	0.045800	0.645200	0.055933
H34	H	0.704200	0.016800	0.895200	0.055933
H35	H	0.266800	0.545800	0.145200	0.055933
H36	H	0.204200	0.516800	0.395200	0.055933
H37	H	0.295800	0.483200	0.895200	0.055933
H38	H	0.733200	0.954200	0.145200	0.055933
H39	H	0.795800	0.983200	0.395200	0.055933
H40	H	0.233200	0.454200	0.645200	0.055933
H41	H	0.233200	0.954200	0.354800	0.055933
H42	H	0.295800	0.983200	0.104800	0.055933
H43	H	0.733200	0.454200	0.854800	0.055933
H44	H	0.795800	0.483200	0.604800	0.055933
H45	H	0.704200	0.516800	0.104800	0.055933
H46	H	0.266800	0.045800	0.854800	0.055933
H47	H	0.204200	0.016800	0.604800	0.055933
H48	H	0.766800	0.545800	0.354800	0.055933
H49	H	0.511400	0.137400	0.406700	0.061927
H50	H	0.612600	0.761400	0.656700	0.061927
H51	H	0.011400	0.637400	0.906700	0.061927
H52	H	0.112600	0.261400	0.156700	0.061927
H53	H	0.387400	0.738600	0.656700	0.061927
H54	H	0.988600	0.862600	0.906700	0.061927
H55	H	0.887400	0.238600	0.156700	0.061927
H56	H	0.488600	0.362600	0.406700	0.061927
H57	H	0.488600	0.862600	0.593300	0.061927
H58	H	0.387400	0.238600	0.343300	0.061927
H59	H	0.988600	0.362600	0.093300	0.061927
H60	H	0.887400	0.738600	0.843300	0.061927
H61	H	0.612600	0.261400	0.343300	0.061927
H62	H	0.011400	0.137400	0.093300	0.061927
H63	H	0.112600	0.761400	0.843300	0.061927
H64	H	0.511400	0.637400	0.593300	0.061927
H65	H	0.626600	0.996600	0.310900	0.058588
H66	H	0.753400	0.876600	0.560900	0.058588
H67	H	0.126600	0.496600	0.810900	0.058588
H68	H	0.253400	0.376600	0.060900	0.058588
H69	H	0.246600	0.623400	0.560900	0.058588
H70	H	0.873400	0.003400	0.810900	0.058588
H71	H	0.746600	0.123400	0.060900	0.058588
H72	H	0.373400	0.503400	0.310900	0.058588
H73	H	0.373400	0.003400	0.689100	0.058588
H74	H	0.246600	0.123400	0.439100	0.058588
H75	H	0.873400	0.503400	0.189100	0.058588
H76	H	0.746600	0.623400	0.939100	0.058588
H77	H	0.753400	0.376600	0.439100	0.058588
H78	H	0.126600	0.996600	0.189100	0.058588
H79	H	0.253400	0.876600	0.939100	0.058588
H80	H	0.626600	0.496600	0.689100	0.058588
H81	H	0.497300	0.974300	0.278700	0.051704
H82	H	0.775700	0.747300	0.528700	0.051704
H83	H	0.997300	0.474300	0.778700	0.051704
H84	H	0.275700	0.247300	0.028700	0.051704
H85	H	0.224300	0.752700	0.528700	0.051704
H86	H	0.002700	0.025700	0.778700	0.051704
H87	H	0.724300	0.252700	0.028700	0.051704
H88	H	0.502700	0.525700	0.278700	0.051704
H89	H	0.502700	0.025700	0.721300	0.051704
H90	H	0.224300	0.252700	0.471300	0.051704
H91	H	0.002700	0.525700	0.221300	0.051704
H92	H	0.724300	0.752700	0.971300	0.051704
H93	H	0.775700	0.247300	0.471300	0.051704
H94	H	0.997300	0.974300	0.221300	0.051704
H95	H	0.275700	0.747300	0.971300	0.051704
H96	H	0.497300	0.474300	0.721300	0.051704
C1	C	0.653200	0.033500	0.534700	0.200170
C2	C	0.716500	0.903200	0.784700	0.200170
C3	C	0.153200	0.533500	0.034700	0.200170
C4	C	0.216500	0.403200	0.284700	0.200170
C5	C	0.283500	0.596800	0.784700	0.200170
C6	C	0.846800	0.966500	0.034700	0.200170
C7	C	0.783500	0.096800	0.284700	0.200170
C8	C	0.346800	0.466500	0.534700	0.200170
C9	C	0.346800	0.966500	0.465300	0.200170
C10	C	0.283500	0.096800	0.215300	0.200170
C11	C	0.846800	0.466500	0.965300	0.200170
C12	C	0.783500	0.596800	0.715300	0.200170
C13	C	0.716500	0.403200	0.215300	0.200170
C14	C	0.153200	0.033500	0.965300	0.200170
C15	C	0.216500	0.903200	0.715300	0.200170
C16	C	0.653200	0.533500	0.465300	0.200170
C17	C	0.752200	0.084800	0.548200	0.068064
C18	C	0.665200	0.002200	0.798200	0.068064
C19	C	0.252200	0.584800	0.048200	0.068064
C20	C	0.165200	0.502200	0.298200	0.068064
C21	C	0.334800	0.497800	0.798200	0.068064
C22	C	0.747800	0.915200	0.048200	0.068064
C23	C	0.834800	0.997800	0.298200	0.068064
C24	C	0.247800	0.415200	0.548200	0.068064
C25	C	0.247800	0.915200	0.451800	0.068064
C26	C	0.334800	0.997800	0.201800	0.068064
C27	C	0.747800	0.415200	0.951800	0.068064
C28	C	0.834800	0.497800	0.701800	0.068064
C29	C	0.665200	0.502200	0.201800	0.068064
C30	C	0.252200	0.084800	0.951800	0.068064
C31	C	0.165200	0.002200	0.701800	0.068064
C32	C	0.752200	0.584800	0.451800	0.068064
C33	C	0.737400	0.047700	0.605700	0.070337
C34	C	0.702300	0.987400	0.855700	0.070337
C35	C	0.237400	0.547700	0.105700	0.070337
C36	C	0.202300	0.487400	0.355700	0.070337
C37	C	0.297700	0.512600	0.855700	0.070337
C38	C	0.762600	0.952300	0.105700	0.070337
C39	C	0.797700	0.012600	0.355700	0.070337
C40	C	0.262600	0.452300	0.605700	0.070337
C41	C	0.262600	0.952300	0.394300	0.070337
C42	C	0.297700	0.012600	0.144300	0.070337
C43	C	0.762600	0.452300	0.894300	0.070337
C44	C	0.797700	0.512600	0.644300	0.070337
C45	C	0.702300	0.487400	0.144300	0.070337
C46	C	0.237400	0.047700	0.894300	0.070337
C47	C	0.202300	0.987400	0.644300	0.070337
C48	C	0.737400	0.547700	0.394300	0.070337
C49	C	0.524400	0.099400	0.377100	0.202796
C50	C	0.650600	0.774400	0.627100	0.202796
C51	C	0.024400	0.599400	0.877100	0.202796
C52	C	0.150600	0.274400	0.127100	0.202796
C53	C	0.349400	0.725600	0.627100	0.202796
C54	C	0.975600	0.900600	0.877100	0.202796
C55	C	0.849400	0.225600	0.127100	0.202796
C56	C	0.475600	0.400600	0.377100	0.202796
C57	C	0.475600	0.900600	0.622900	0.202796
C58	C	0.349400	0.225600	0.372900	0.202796
C59	C	0.975600	0.400600	0.122900	0.202796
C60	C	0.849400	0.725600	0.872900	0.202796
C61	C	0.650600	0.274400	0.372900	0.202796
C62	C	0.024400	0.099400	0.122900	0.202796
C63	C	0.150600	0.774400	0.872900	0.202796
C64	C	0.524400	0.599400	0.622900	0.202796
C65	C	0.587100	0.024100	0.326000	0.081327
C66	C	0.725900	0.837100	0.576000	0.081327
C67	C	0.087100	0.524100	0.826000	0.081327
C68	C	0.225900	0.337100	0.076000	0.081327
C69	C	0.274100	0.662900	0.576000	0.081327
C70	C	0.912900	0.975900	0.826000	0.081327
C71	C	0.774100	0.162900	0.076000	0.081327
C72	C	0.412900	0.475900	0.326000	0.081327
C73	C	0.412900	0.975900	0.674000	0.081327
C74	C	0.274100	0.162900	0.424000	0.081327
C75	C	0.912900	0.475900	0.174000	0.081327
C76	C	0.774100	0.662900	0.924000	0.081327
C77	C	0.725900	0.337100	0.424000	0.081327
C78	C	0.087100	0.024100	0.174000	0.081327
C79	C	0.225900	0.837100	0.924000	0.081327
C80	C	0.587100	0.524100	0.674000	0.081327
C81	C	0.514700	0.010500	0.308300	0.070523
C82	C	0.739500	0.764700	0.558300	0.070523
C83	C	0.014700	0.510500	0.808300	0.070523
C84	C	0.239500	0.264700	0.058300	0.070523
C85	C	0.260500	0.735300	0.558300	0.070523
C86	C	0.985300	0.989500	0.808300	0.070523
C87	C	0.760500	0.235300	0.058300	0.070523
C88	C	0.485300	0.489500	0.308300	0.070523
C89	C	0.485300	0.989500	0.691700	0.070523
C90	C	0.260500	0.235300	0.441700	0.070523
C91	C	0.985300	0.489500	0.191700	0.070523
C92	C	0.760500	0.735300	0.941700	0.070523
C93	C	0.739500	0.264700	0.441700	0.070523
C94	C	0.014700	0.010500	0.191700	0.070523
C95	C	0.239500	0.764700	0.941700	0.070523
C96	C	0.514700	0.510500	0.691700	0.070523
N1	N	0.695300	0.078800	0.502500	-0.514384
N2	N	0.671200	0.945300	0.752500	-0.514384
N3	N	0.195300	0.578800	0.002500	-0.514384
N4	N	0.171200	0.445300	0.252500	-0.514384
N5	N	0.328800	0.554700	0.752500	-0.514384
N6	N	0.804700	0.921200	0.002500	-0.514384
N7	N	0.828800	0.054700	0.252500	-0.514384
N8	N	0.304700	0.421200	0.502500	-0.514384
N9	N	0.304700	0.921200	0.497500	-0.514384
N10	N	0.328800	0.054700	0.247500	-0.514384
N11	N	0.804700	0.421200	0.997500	-0.514384
N12	N	0.828800	0.554700	0.747500	-0.514384
N13	N	0.671200	0.445300	0.247500	-0.514384
N14	N	0.195300	0.078800	0.997500	-0.514384
N15	N	0.171200	0.945300	0.747500	-0.514384
N16	N	0.695300	0.578800	0.497500	-0.514384
N17	N	0.673100	0.012900	0.598400	-0.509619
N18	N	0.737100	0.923100	0.848400	-0.509619
N19	N	0.173100	0.512900	0.098400	-0.509619
N20	N	0.237100	0.423100	0.348400	-0.509619
N21	N	0.262900	0.576900	0.848400	-0.509619
N22	N	0.826900	0.987100	0.098400	-0.509619
N23	N	0.762900	0.076900	0.348400	-0.509619
N24	N	0.326900	0.487100	0.598400	-0.509619
N25	N	0.326900	0.987100	0.401600	-0.509619
N26	N	0.262900	0.076900	0.151600	-0.509619
N27	N	0.826900	0.487100	0.901600	-0.509619
N28	N	0.762900	0.576900	0.651600	-0.509619
N29	N	0.737100	0.423100	0.151600	-0.509619
N30	N	0.173100	0.012900	0.901600	-0.509619
N31	N	0.237100	0.923100	0.651600	-0.509619
N32	N	0.673100	0.512900	0.401600	-0.509619
N33	N	0.591700	0.081400	0.367200	-0.524323
N34	N	0.668600	0.841700	0.617200	-0.524323
N35	N	0.091700	0.581400	0.867200	-0.524323
N36	N	0.168600	0.341700	0.117200	-0.524323
N37	N	0.331400	0.658300	0.617200	-0.524323
N38	N	0.908300	0.918600	0.867200	-0.524323
N39	N	0.831400	0.158300	0.117200	-0.524323
N40	N	0.408300	0.418600	0.367200	-0.524323
N41	N	0.408300	0.918600	0.632800	-0.524323
N42	N	0.331400	0.158300	0.382800	-0.524323
N43	N	0.908300	0.418600	0.132800	-0.524323
N44	N	0.831400	0.658300	0.882800	-0.524323
N45	N	0.668600	0.341700	0.382800	-0.524323
N46	N	0.091700	0.081400	0.132800	-0.524323
N47	N	0.168600	0.841700	0.882800	-0.524323
N48	N	0.591700	0.581400	0.632800	-0.524323
N49	N	0.475300	0.060800	0.343100	-0.515971
N50	N	0.689200	0.725300	0.593100	-0.515971
N51	N	0.975300	0.560800	0.843100	-0.515971
N52	N	0.189200	0.225300	0.093100	-0.515971
N53	N	0.310800	0.774700	0.593100	-0.515971
N54	N	0.024700	0.939200	0.843100	-0.515971
N55	N	0.810800	0.274700	0.093100	-0.515971
N56	N	0.524700	0.439200	0.343100	-0.515971
N57	N	0.524700	0.939200	0.656900	-0.515971
N58	N	0.310800	0.274700	0.406900	-0.515971
N59	N	0.024700	0.439200	0.156900	-0.515971
N60	N	0.810800	0.774700	0.906900	-0.515971
N61	N	0.689200	0.225300	0.406900	-0.515971
N62	N	0.975300	0.060800	0.156900	-0.515971
N63	N	0.189200	0.725300	0.906900	-0.515971
N64	N	0.475300	0.560800	0.656900	-0.515971
