data_HURGEH_clean_PM
_symmetry_space_group_name_H-M	'P1'
_cell_length_a	14.278000
_cell_length_b	18.030900
_cell_length_c	20.204700
_cell_angle_alpha	91.406001
_cell_angle_beta	90.000000
_cell_angle_gamma	90.000000
_symmetry_Int_Tables_number 1

loop_
_symmetry_equiv_pos_as_xyz
'x,y,z'

loop_
_atom_site_label
_atom_site_type_symbol
_atom_site_fract_x
_atom_site_fract_y
_atom_site_fract_z
_atom_site_charge
Co1	Co	0.946730	0.753470	0.075120	1.453643
Co2	Co	0.797590	0.798500	0.942360	1.330336
Co3	Co	0.819510	0.293360	0.908110	1.412061
Co4	Co	0.446730	0.746530	0.424880	1.453643
Co5	Co	0.297590	0.701500	0.557640	1.330336
Co6	Co	0.319510	0.206640	0.591890	1.412061
Co7	Co	0.053270	0.246530	0.924880	1.453643
Co8	Co	0.202410	0.201500	0.057640	1.330336
Co9	Co	0.180490	0.706640	0.091890	1.412061
Co10	Co	0.553270	0.253470	0.575120	1.453643
Co11	Co	0.702410	0.298500	0.442360	1.330336
Co12	Co	0.680490	0.793360	0.408110	1.412061
H1	H	0.867700	0.529400	0.906900	0.154650
H2	H	0.019300	0.810700	0.929500	0.153630
H3	H	0.007300	0.025400	0.873700	0.149400
H4	H	0.180000	0.968800	0.021200	0.148888
H5	H	0.424500	0.708600	0.212800	0.156795
H6	H	0.558400	0.713100	0.037100	0.149751
H7	H	0.704700	0.741600	0.206800	0.157740
H8	H	0.133200	0.462900	0.927300	0.152084
H9	H	0.071700	0.679700	0.950800	0.154762
H10	H	0.367700	0.970600	0.593100	0.154650
H11	H	0.519300	0.689300	0.570500	0.153630
H12	H	0.507300	0.474600	0.626300	0.149400
H13	H	0.680000	0.531200	0.478800	0.148888
H14	H	0.924500	0.791400	0.287200	0.156795
H15	H	0.058400	0.786900	0.462900	0.149751
H16	H	0.204700	0.758400	0.293200	0.157740
H17	H	0.633200	0.037100	0.572700	0.152084
H18	H	0.571700	0.820300	0.549200	0.154762
H19	H	0.132300	0.470600	0.093100	0.154650
H20	H	0.980700	0.189300	0.070500	0.153630
H21	H	0.992700	0.974600	0.126300	0.149400
H22	H	0.820000	0.031200	0.978800	0.148888
H23	H	0.575500	0.291400	0.787200	0.156795
H24	H	0.441600	0.286900	0.962900	0.149751
H25	H	0.295300	0.258400	0.793200	0.157740
H26	H	0.866800	0.537100	0.072700	0.152084
H27	H	0.928300	0.320300	0.049200	0.154762
H28	H	0.632300	0.029400	0.406900	0.154650
H29	H	0.480700	0.310700	0.429500	0.153630
H30	H	0.492700	0.525400	0.373700	0.149400
H31	H	0.320000	0.468800	0.521200	0.148888
H32	H	0.075500	0.208600	0.712800	0.156795
H33	H	0.941600	0.213100	0.537100	0.149751
H34	H	0.795300	0.241600	0.706800	0.157740
H35	H	0.366800	0.962900	0.427300	0.152084
H36	H	0.428300	0.179700	0.450800	0.154762
C1	C	0.732700	0.743500	0.076900	0.487911
C2	C	0.888000	0.676800	0.933400	0.452487
C3	C	0.959100	0.615000	0.929000	0.044901
C4	C	0.930900	0.541100	0.914900	-0.057819
C5	C	0.996600	0.484800	0.914400	0.048797
C6	C	0.967000	0.404500	0.908900	0.488175
C7	C	0.142600	0.823600	0.027000	0.445792
C8	C	0.107200	0.881500	0.981000	0.042791
C9	C	0.038700	0.860800	0.933700	-0.001590
C10	C	0.002400	0.914200	0.893700	0.025327
C11	C	0.031000	0.988600	0.901600	-0.067175
C12	C	0.096900	0.008600	0.950400	0.047567
C13	C	0.135900	0.955400	0.989200	-0.061083
C14	C	0.119100	0.089500	0.963700	0.494242
C15	C	0.925400	0.891700	0.844700	0.370458
C16	C	0.564600	0.737000	0.294400	0.470469
C17	C	0.563700	0.728300	0.221500	0.035585
C18	C	0.479200	0.714200	0.188300	-0.013892
C19	C	0.478300	0.709200	0.120500	0.031637
C20	C	0.560900	0.717100	0.083500	-0.041451
C21	C	0.644000	0.731500	0.116000	0.042828
C22	C	0.646800	0.735200	0.185200	-0.014032
C23	C	0.388700	0.691800	0.083000	0.384985
C24	C	0.090000	0.501700	0.926400	-0.072360
C25	C	0.119300	0.574100	0.939000	0.025574
C26	C	0.052400	0.630600	0.941100	-0.015314
C27	C	0.219100	0.589200	0.955400	0.316885
C28	C	0.232700	0.756500	0.423100	0.487911
C29	C	0.388000	0.823200	0.566600	0.452487
C30	C	0.459100	0.885000	0.571000	0.044901
C31	C	0.430900	0.958900	0.585100	-0.057819
C32	C	0.496600	0.015200	0.585600	0.048797
C33	C	0.467000	0.095500	0.591100	0.488175
C34	C	0.642600	0.676400	0.473000	0.445792
C35	C	0.607200	0.618500	0.519000	0.042791
C36	C	0.538700	0.639200	0.566300	-0.001590
C37	C	0.502400	0.585800	0.606300	0.025327
C38	C	0.531000	0.511400	0.598400	-0.067175
C39	C	0.596900	0.491400	0.549600	0.047567
C40	C	0.635900	0.544600	0.510800	-0.061083
C41	C	0.619100	0.410500	0.536300	0.494242
C42	C	0.425400	0.608300	0.655300	0.370458
C43	C	0.064600	0.763000	0.205600	0.470469
C44	C	0.063700	0.771700	0.278500	0.035585
C45	C	0.979200	0.785800	0.311700	-0.013892
C46	C	0.978300	0.790800	0.379500	0.031637
C47	C	0.060900	0.782900	0.416500	-0.041451
C48	C	0.144000	0.768500	0.384000	0.042828
C49	C	0.146800	0.764800	0.314800	-0.014032
C50	C	0.888700	0.808200	0.417000	0.384985
C51	C	0.590000	0.998300	0.573600	-0.072360
C52	C	0.619300	0.925900	0.561000	0.025574
C53	C	0.552400	0.869400	0.558900	-0.015314
C54	C	0.719100	0.910800	0.544600	0.316885
C55	C	0.267300	0.256500	0.923100	0.487911
C56	C	0.112000	0.323200	0.066600	0.452487
C57	C	0.040900	0.385000	0.071000	0.044901
C58	C	0.069100	0.458900	0.085100	-0.057819
C59	C	0.003400	0.515200	0.085600	0.048797
C60	C	0.033000	0.595500	0.091100	0.488175
C61	C	0.857400	0.176400	0.973000	0.445792
C62	C	0.892800	0.118500	0.019000	0.042791
C63	C	0.961300	0.139200	0.066300	-0.001590
C64	C	0.997600	0.085800	0.106300	0.025327
C65	C	0.969000	0.011400	0.098400	-0.067175
C66	C	0.903100	0.991400	0.049600	0.047567
C67	C	0.864100	0.044600	0.010800	-0.061083
C68	C	0.880900	0.910500	0.036300	0.494242
C69	C	0.074600	0.108300	0.155300	0.370458
C70	C	0.435400	0.263000	0.705600	0.470469
C71	C	0.436300	0.271700	0.778500	0.035585
C72	C	0.520800	0.285800	0.811700	-0.013892
C73	C	0.521700	0.290800	0.879500	0.031637
C74	C	0.439100	0.282900	0.916500	-0.041451
C75	C	0.356000	0.268500	0.884000	0.042828
C76	C	0.353200	0.264800	0.814800	-0.014032
C77	C	0.611300	0.308200	0.917000	0.384985
C78	C	0.910000	0.498300	0.073600	-0.072360
C79	C	0.880700	0.425900	0.061000	0.025574
C80	C	0.947600	0.369400	0.058900	-0.015314
C81	C	0.780900	0.410800	0.044600	0.316885
C82	C	0.767300	0.243500	0.576900	0.487911
C83	C	0.612000	0.176800	0.433400	0.452487
C84	C	0.540900	0.115000	0.429000	0.044901
C85	C	0.569100	0.041100	0.414900	-0.057819
C86	C	0.503400	0.984800	0.414400	0.048797
C87	C	0.533000	0.904500	0.408900	0.488175
C88	C	0.357400	0.323600	0.527000	0.445792
C89	C	0.392800	0.381500	0.481000	0.042791
C90	C	0.461300	0.360800	0.433700	-0.001590
C91	C	0.497600	0.414200	0.393700	0.025327
C92	C	0.469000	0.488600	0.401600	-0.067175
C93	C	0.403100	0.508600	0.450400	0.047567
C94	C	0.364100	0.455400	0.489200	-0.061083
C95	C	0.380900	0.589500	0.463700	0.494242
C96	C	0.574600	0.391700	0.344700	0.370458
C97	C	0.935400	0.237000	0.794400	0.470469
C98	C	0.936300	0.228300	0.721500	0.035585
C99	C	0.020800	0.214200	0.688300	-0.013892
C100	C	0.021700	0.209200	0.620500	0.031637
C101	C	0.939100	0.217100	0.583500	-0.041451
C102	C	0.856000	0.231500	0.616000	0.042828
C103	C	0.853200	0.235200	0.685200	-0.014032
C104	C	0.111300	0.191800	0.583000	0.384985
C105	C	0.410000	0.001700	0.426400	-0.072360
C106	C	0.380700	0.074100	0.439000	0.025574
C107	C	0.447600	0.130600	0.441100	-0.015314
C108	C	0.280900	0.089200	0.455400	0.316885
O1	O	0.809400	0.738400	0.106300	-0.543876
O2	O	0.719000	0.756200	0.016500	-0.641116
O3	O	0.909200	0.732300	0.972100	-0.800639
O4	O	0.817400	0.678100	0.898000	-0.435052
O5	O	0.028900	0.357900	0.912100	-0.623309
O6	O	0.878900	0.392800	0.901700	-0.645050
O7	O	0.089400	0.766100	0.036500	-0.840427
O8	O	0.221300	0.826500	0.052500	-0.407676
O9	O	0.176900	0.103400	0.008500	-0.673236
O10	O	0.073300	0.136700	0.930400	-0.614953
O11	O	0.876900	0.832800	0.858900	-0.532292
O12	O	0.915700	0.927400	0.795200	-0.241531
O13	O	0.644100	0.751200	0.319500	-0.606558
O14	O	0.490400	0.728900	0.326300	-0.537405
O15	O	0.314800	0.691100	0.116600	-0.586104
O16	O	0.393100	0.682300	0.021300	-0.209848
O17	O	0.233800	0.657600	0.979800	-0.323055
O18	O	0.280500	0.544000	0.944400	-0.223310
O19	O	0.309400	0.761600	0.393700	-0.543876
O20	O	0.219000	0.743800	0.483500	-0.641116
O21	O	0.409200	0.767700	0.527900	-0.800639
O22	O	0.317400	0.821900	0.602000	-0.435052
O23	O	0.528900	0.142100	0.587900	-0.623309
O24	O	0.378900	0.107200	0.598300	-0.645050
O25	O	0.589400	0.733900	0.463500	-0.840427
O26	O	0.721300	0.673500	0.447500	-0.407676
O27	O	0.676900	0.396600	0.491500	-0.673236
O28	O	0.573300	0.363300	0.569600	-0.614953
O29	O	0.376900	0.667200	0.641100	-0.532292
O30	O	0.415700	0.572600	0.704800	-0.241531
O31	O	0.144100	0.748800	0.180500	-0.606558
O32	O	0.990400	0.771100	0.173700	-0.537405
O33	O	0.814800	0.808900	0.383400	-0.586104
O34	O	0.893100	0.817700	0.478700	-0.209848
O35	O	0.733800	0.842400	0.520200	-0.323055
O36	O	0.780500	0.956000	0.555600	-0.223310
O37	O	0.190600	0.261600	0.893700	-0.543876
O38	O	0.281000	0.243800	0.983500	-0.641116
O39	O	0.090800	0.267700	0.027900	-0.800639
O40	O	0.182600	0.321900	0.102000	-0.435052
O41	O	0.971100	0.642100	0.087900	-0.623309
O42	O	0.121100	0.607200	0.098300	-0.645050
O43	O	0.910600	0.233900	0.963500	-0.840427
O44	O	0.778700	0.173500	0.947500	-0.407676
O45	O	0.823100	0.896600	0.991500	-0.673236
O46	O	0.926700	0.863300	0.069600	-0.614953
O47	O	0.123100	0.167200	0.141100	-0.532292
O48	O	0.084300	0.072600	0.204800	-0.241531
O49	O	0.355900	0.248800	0.680500	-0.606558
O50	O	0.509600	0.271100	0.673700	-0.537405
O51	O	0.685200	0.308900	0.883400	-0.586104
O52	O	0.606900	0.317700	0.978700	-0.209848
O53	O	0.766200	0.342400	0.020200	-0.323055
O54	O	0.719500	0.456000	0.055600	-0.223310
O55	O	0.690600	0.238400	0.606300	-0.543876
O56	O	0.781000	0.256200	0.516500	-0.641116
O57	O	0.590800	0.232300	0.472100	-0.800639
O58	O	0.682600	0.178100	0.398000	-0.435052
O59	O	0.471100	0.857900	0.412100	-0.623309
O60	O	0.621100	0.892800	0.401700	-0.645050
O61	O	0.410600	0.266100	0.536500	-0.840427
O62	O	0.278700	0.326500	0.552500	-0.407676
O63	O	0.323100	0.603400	0.508500	-0.673236
O64	O	0.426700	0.636700	0.430400	-0.614953
O65	O	0.623100	0.332800	0.358900	-0.532292
O66	O	0.584300	0.427400	0.295200	-0.241531
O67	O	0.855900	0.251200	0.819500	-0.606558
O68	O	0.009600	0.228900	0.826300	-0.537405
O69	O	0.185200	0.191100	0.616600	-0.586104
O70	O	0.106900	0.182300	0.521300	-0.209848
O71	O	0.266200	0.157600	0.479800	-0.323055
O72	O	0.219500	0.044000	0.444400	-0.223310
