data_HUZSUR01_clean_PM
_symmetry_space_group_name_H-M	'P1'
_cell_length_a	16.365600
_cell_length_b	17.979000
_cell_length_c	19.232000
_cell_angle_alpha	65.452001
_cell_angle_beta	66.274998
_cell_angle_gamma	69.153999
_symmetry_Int_Tables_number 1

loop_
_symmetry_equiv_pos_as_xyz
'x,y,z'

loop_
_atom_site_label
_atom_site_type_symbol
_atom_site_fract_x
_atom_site_fract_y
_atom_site_fract_z
_atom_site_charge
K1	K	0.178790	0.947410	0.966860	0.383594
K2	K	0.396310	0.805700	0.830350	-2.582013
K3	K	0.998100	0.934700	0.953900	0.310215
K4	K	0.821210	0.052590	0.033140	0.383594
K5	K	0.603690	0.194300	0.169650	-2.582013
K6	K	0.001900	0.065300	0.046100	0.310215
Zn1	Zn	0.384650	0.798530	0.034740	1.157326
Zn2	Zn	0.355050	0.035790	0.772420	1.157443
Zn3	Zn	0.615350	0.201470	0.965260	1.157326
Zn4	Zn	0.644950	0.964210	0.227580	1.157443
H1	H	0.952700	0.512000	0.861900	0.099577
H2	H	0.190100	0.493900	0.889300	0.110799
H3	H	0.976400	0.686700	0.925900	0.092077
H4	H	0.840200	0.632600	0.809500	0.112812
H5	H	0.683000	0.683300	0.835500	0.149367
H6	H	0.667700	0.714600	0.034900	0.117695
H7	H	0.824200	0.670500	0.006800	0.109294
H8	H	0.247000	0.423200	0.792100	0.120572
H9	H	0.307600	0.291900	0.776300	0.124904
H10	H	0.064900	0.231500	0.902700	0.076286
H11	H	0.001600	0.364700	0.913700	0.092661
H12	H	0.098100	0.749200	0.892500	0.085588
H13	H	0.181500	0.793600	0.933000	0.143316
H14	H	0.288100	0.554600	0.041900	0.135926
H15	H	0.211700	0.510200	0.994500	0.106229
H16	H	0.942400	0.916600	0.669800	0.098376
H17	H	0.175800	0.869400	0.498800	0.106589
H18	H	0.938300	0.867400	0.487000	0.101456
H19	H	0.803100	0.006700	0.650200	0.110077
H20	H	0.645700	0.037100	0.692700	0.117306
H21	H	0.649200	0.841000	0.641500	0.158490
H22	H	0.807100	0.814200	0.593800	0.114781
H23	H	0.043100	0.868100	0.744500	0.092716
H24	H	0.115700	0.902200	0.803500	0.064441
H25	H	0.276900	0.008500	0.586900	0.132009
H26	H	0.206400	0.970700	0.527900	0.107504
H27	H	0.231100	0.780500	0.417100	0.115748
H28	H	0.305100	0.772400	0.289600	0.126258
H29	H	0.088900	0.934600	0.219100	0.082768
H30	H	0.011800	0.935100	0.348400	0.097791
H31	H	0.454700	0.993200	0.882600	0.122323
H32	H	0.047300	0.488000	0.138100	0.099577
H33	H	0.809900	0.506100	0.110700	0.110799
H34	H	0.023600	0.313300	0.074100	0.092077
H35	H	0.159800	0.367400	0.190500	0.112812
H36	H	0.317000	0.316700	0.164500	0.149367
H37	H	0.332300	0.285400	0.965100	0.117695
H38	H	0.175800	0.329500	0.993200	0.109294
H39	H	0.753000	0.576800	0.207900	0.120572
H40	H	0.692400	0.708100	0.223700	0.124904
H41	H	0.935100	0.768500	0.097300	0.076286
H42	H	0.998400	0.635300	0.086300	0.092661
H43	H	0.901900	0.250800	0.107500	0.085588
H44	H	0.818500	0.206400	0.067000	0.143316
H45	H	0.711900	0.445400	0.958100	0.135926
H46	H	0.788300	0.489800	0.005500	0.106229
H47	H	0.057600	0.083400	0.330200	0.098376
H48	H	0.824200	0.130600	0.501200	0.106589
H49	H	0.061700	0.132600	0.513000	0.101456
H50	H	0.196900	0.993300	0.349800	0.110077
H51	H	0.354300	0.962900	0.307300	0.117306
H52	H	0.350800	0.159000	0.358500	0.158490
H53	H	0.192900	0.185800	0.406200	0.114781
H54	H	0.956900	0.131900	0.255500	0.092716
H55	H	0.884300	0.097800	0.196500	0.064441
H56	H	0.723100	0.991500	0.413100	0.132009
H57	H	0.793600	0.029300	0.472100	0.107504
H58	H	0.768900	0.219500	0.582900	0.115748
H59	H	0.694900	0.227600	0.710400	0.126258
H60	H	0.911100	0.065400	0.780900	0.082768
H61	H	0.988200	0.064900	0.651600	0.097791
H62	H	0.545300	0.006800	0.117400	0.122323
C1	C	0.949800	0.605500	0.895100	0.051054
C2	C	0.988000	0.532500	0.874400	-0.142337
C3	C	0.078560	0.489000	0.871760	0.043579
C4	C	0.129740	0.521900	0.890800	-0.109587
C5	C	0.093130	0.595280	0.911780	0.050128
C6	C	0.001900	0.637200	0.912900	-0.152703
C7	C	0.849600	0.644700	0.906200	0.051503
C8	C	0.806000	0.649300	0.854700	-0.170326
C9	C	0.711200	0.679000	0.871000	0.003140
C10	C	0.658800	0.701800	0.938500	0.034946
C11	C	0.702400	0.698400	0.989500	0.009408
C12	C	0.796100	0.671200	0.973000	-0.183943
C13	C	0.117100	0.408000	0.856600	0.048193
C14	C	0.209900	0.385200	0.814200	-0.151453
C15	C	0.246300	0.305900	0.805200	0.005339
C16	C	0.193300	0.247500	0.838300	0.041754
C17	C	0.101600	0.270200	0.879800	-0.063374
C18	C	0.063700	0.350000	0.887500	-0.156857
C19	C	0.146200	0.624800	0.937910	0.048086
C20	C	0.137600	0.709700	0.921400	-0.103160
C21	C	0.186400	0.736400	0.946900	0.053337
C22	C	0.243300	0.678500	0.993600	0.108869
C23	C	0.250900	0.594200	0.010900	0.021433
C24	C	0.204200	0.567400	0.983000	-0.109690
C25	C	0.233700	0.161000	0.831300	0.426632
C26	C	0.556600	0.731100	0.957000	0.288674
C27	C	0.296000	0.705800	0.023400	0.305449
C28	C	0.924200	0.892900	0.584900	0.048492
C29	C	0.973300	0.904100	0.622100	-0.142334
C30	C	0.067700	0.897300	0.590700	0.048202
C31	C	0.112400	0.877100	0.519300	-0.125369
C32	C	0.065000	0.868200	0.478300	0.045709
C33	C	0.970900	0.875000	0.512600	-0.140846
C34	C	0.822600	0.907500	0.616700	0.050366
C35	C	0.772300	0.973900	0.647300	-0.179678
C36	C	0.677900	0.992000	0.673200	0.008436
C37	C	0.630600	0.943300	0.670500	0.041394
C38	C	0.680000	0.875300	0.642000	0.009589
C39	C	0.774900	0.858700	0.614300	-0.162638
C40	C	0.118000	0.913900	0.629700	0.053030
C41	C	0.090900	0.895300	0.712600	-0.142375
C42	C	0.133700	0.916500	0.748000	-0.014165
C43	C	0.203500	0.959000	0.701800	0.070581
C44	C	0.230400	0.979600	0.618700	0.024424
C45	C	0.187900	0.956900	0.583300	-0.135861
C46	C	0.113100	0.859000	0.397700	0.046756
C47	C	0.201700	0.810800	0.377800	-0.157965
C48	C	0.246900	0.806900	0.300900	0.007977
C49	C	0.206100	0.853700	0.240500	0.042693
C50	C	0.117200	0.902700	0.259000	-0.058949
C51	C	0.071700	0.903800	0.336400	-0.147370
C52	C	0.527700	0.960800	0.700400	0.308116
C53	C	0.250400	0.979200	0.741400	0.315439
C54	C	0.254000	0.852700	0.155600	0.410194
C55	C	0.419800	0.952900	0.911500	0.322335
C56	C	0.050200	0.394500	0.104900	0.051054
C57	C	0.012000	0.467500	0.125600	-0.142337
C58	C	0.921440	0.511000	0.128240	0.043579
C59	C	0.870260	0.478100	0.109200	-0.109587
C60	C	0.906870	0.404720	0.088220	0.050128
C61	C	0.998100	0.362800	0.087100	-0.152703
C62	C	0.150400	0.355300	0.093800	0.051503
C63	C	0.194000	0.350700	0.145300	-0.170326
C64	C	0.288800	0.321000	0.129000	0.003140
C65	C	0.341200	0.298200	0.061500	0.034946
C66	C	0.297600	0.301600	0.010500	0.009408
C67	C	0.203900	0.328800	0.027000	-0.183943
C68	C	0.882900	0.592000	0.143400	0.048193
C69	C	0.790100	0.614800	0.185800	-0.151453
C70	C	0.753700	0.694100	0.194800	0.005339
C71	C	0.806700	0.752500	0.161700	0.041754
C72	C	0.898400	0.729800	0.120200	-0.063374
C73	C	0.936300	0.650000	0.112500	-0.156857
C74	C	0.853800	0.375200	0.062090	0.048086
C75	C	0.862400	0.290300	0.078600	-0.103160
C76	C	0.813600	0.263600	0.053100	0.053337
C77	C	0.756700	0.321500	0.006400	0.108869
C78	C	0.749100	0.405800	0.989100	0.021433
C79	C	0.795800	0.432600	0.017000	-0.109690
C80	C	0.766300	0.839000	0.168700	0.426632
C81	C	0.443400	0.268900	0.043000	0.288674
C82	C	0.704000	0.294200	0.976600	0.305449
C83	C	0.075800	0.107100	0.415100	0.048492
C84	C	0.026700	0.095900	0.377900	-0.142334
C85	C	0.932300	0.102700	0.409300	0.048202
C86	C	0.887600	0.122900	0.480700	-0.125369
C87	C	0.935000	0.131800	0.521700	0.045709
C88	C	0.029100	0.125000	0.487400	-0.140846
C89	C	0.177400	0.092500	0.383300	0.050366
C90	C	0.227700	0.026100	0.352700	-0.179678
C91	C	0.322100	0.008000	0.326800	0.008436
C92	C	0.369400	0.056700	0.329500	0.041394
C93	C	0.320000	0.124700	0.358000	0.009589
C94	C	0.225100	0.141300	0.385700	-0.162638
C95	C	0.882000	0.086100	0.370300	0.053030
C96	C	0.909100	0.104700	0.287400	-0.142375
C97	C	0.866300	0.083500	0.252000	-0.014165
C98	C	0.796500	0.041000	0.298200	0.070581
C99	C	0.769600	0.020400	0.381300	0.024424
C100	C	0.812100	0.043100	0.416700	-0.135861
C101	C	0.886900	0.141000	0.602300	0.046756
C102	C	0.798300	0.189200	0.622200	-0.157965
C103	C	0.753100	0.193100	0.699100	0.007977
C104	C	0.793900	0.146300	0.759500	0.042693
C105	C	0.882800	0.097300	0.741000	-0.058949
C106	C	0.928300	0.096200	0.663600	-0.147370
C107	C	0.472300	0.039200	0.299600	0.308116
C108	C	0.749600	0.020800	0.258600	0.315439
C109	C	0.746000	0.147300	0.844400	0.410194
C110	C	0.580200	0.047100	0.088500	0.322335
O1	O	0.521260	0.752330	0.903230	0.133968
O2	O	0.511410	0.733030	0.028090	-0.489930
O3	O	0.189040	0.105970	0.870670	-0.552086
O4	O	0.314780	0.148800	0.782740	-0.592977
O5	O	0.302970	0.783570	0.990950	-0.116587
O6	O	0.332620	0.654720	0.074750	-0.277222
O7	O	0.487390	0.030380	0.717070	-0.538522
O8	O	0.487050	0.910120	0.708450	0.137713
O9	O	0.246950	0.938010	0.813140	0.019721
O10	O	0.293290	0.037500	0.700430	-0.498894
O11	O	0.222760	0.903450	0.100600	-0.508943
O12	O	0.329300	0.795820	0.146750	-0.573101
O13	O	0.366370	0.951450	0.880450	-0.213733
O14	O	0.430110	0.905190	0.977610	-0.475980
O15	O	0.478740	0.247670	0.096770	0.133968
O16	O	0.488590	0.266970	0.971910	-0.489930
O17	O	0.810960	0.894030	0.129330	-0.552086
O18	O	0.685220	0.851200	0.217260	-0.592977
O19	O	0.697030	0.216430	0.009050	-0.116587
O20	O	0.667380	0.345280	0.925250	-0.277222
O21	O	0.512610	0.969620	0.282930	-0.538522
O22	O	0.512950	0.089880	0.291550	0.137713
O23	O	0.753050	0.061990	0.186860	0.019721
O24	O	0.706710	0.962500	0.299570	-0.498894
O25	O	0.777240	0.096550	0.899400	-0.508943
O26	O	0.670700	0.204180	0.853250	-0.573101
O27	O	0.633630	0.048550	0.119550	-0.213733
O28	O	0.569890	0.094810	0.022390	-0.475980
