data_IDAGUR_clean_PM
_symmetry_space_group_name_H-M	'P1'
_cell_length_a	7.362000
_cell_length_b	13.908000
_cell_length_c	18.015000
_cell_angle_alpha	90.000000
_cell_angle_beta	90.000000
_cell_angle_gamma	90.519999
_symmetry_Int_Tables_number 1

loop_
_symmetry_equiv_pos_as_xyz
'x,y,z'

loop_
_atom_site_label
_atom_site_type_symbol
_atom_site_fract_x
_atom_site_fract_y
_atom_site_fract_z
_atom_site_charge
Mn1	Mn	0.101030	0.920000	0.685910	1.053331
Mn2	Mn	0.605710	0.187510	0.708290	-1.274013
Mn3	Mn	0.898970	0.580000	0.185910	1.053331
Mn4	Mn	0.394290	0.312490	0.208290	-1.274013
Mn5	Mn	0.898970	0.080000	0.314090	1.053331
Mn6	Mn	0.394290	0.812490	0.291710	-1.274013
Mn7	Mn	0.101030	0.420000	0.814090	1.053331
Mn8	Mn	0.605710	0.687510	0.791710	-1.274013
H1	H	0.581600	0.728400	0.614300	0.102049
H2	H	0.577900	0.478100	0.710700	0.119786
H3	H	0.527000	0.661900	0.502100	0.105751
H4	H	0.525500	0.403100	0.599800	0.112511
H5	H	0.084500	0.822200	0.842300	0.098410
H6	H	0.080200	0.096600	0.801800	0.100617
H7	H	0.029100	0.844800	0.963800	0.092798
H8	H	0.025200	0.128700	0.924300	0.090467
H9	H	0.418400	0.771600	0.114300	0.102049
H10	H	0.422100	0.021900	0.210700	0.119786
H11	H	0.473000	0.838100	0.002100	0.105751
H12	H	0.474500	0.096900	0.099800	0.112511
H13	H	0.915500	0.677800	0.342300	0.098410
H14	H	0.919800	0.403400	0.301800	0.100617
H15	H	0.970900	0.655200	0.463800	0.092798
H16	H	0.974800	0.371300	0.424300	0.090467
H17	H	0.418400	0.271600	0.385700	0.102049
H18	H	0.422100	0.521900	0.289300	0.119786
H19	H	0.473000	0.338100	0.497900	0.105751
H20	H	0.474500	0.596900	0.400200	0.112511
H21	H	0.915500	0.177800	0.157700	0.098410
H22	H	0.919800	0.903400	0.198200	0.100617
H23	H	0.970900	0.155200	0.036200	0.092798
H24	H	0.974800	0.871300	0.075700	0.090467
H25	H	0.581600	0.228400	0.885700	0.102049
H26	H	0.577900	0.978100	0.789300	0.119786
H27	H	0.527000	0.161900	0.997900	0.105751
H28	H	0.525500	0.903100	0.900200	0.112511
H29	H	0.084500	0.322200	0.657700	0.098410
H30	H	0.080200	0.596600	0.698200	0.100617
H31	H	0.029100	0.344800	0.536200	0.092798
H32	H	0.025200	0.628700	0.575700	0.090467
C1	C	0.779600	0.084300	0.683100	0.416654
C2	C	0.406300	0.097300	0.682900	0.420951
C3	C	0.425900	0.774700	0.745700	0.414376
C4	C	0.797800	0.760100	0.737400	0.413603
C5	C	0.567900	0.661900	0.611500	0.053481
C6	C	0.566400	0.515700	0.668300	0.059243
C7	C	0.536400	0.622500	0.543600	-0.180154
C8	C	0.535200	0.469700	0.601300	-0.125876
C9	C	0.518100	0.522600	0.536100	0.051095
C10	C	0.069200	0.884900	0.858900	0.097143
C11	C	0.067200	0.045400	0.834600	0.097864
C12	C	0.037600	0.897600	0.932200	-0.136631
C13	C	0.035200	0.065200	0.908800	-0.114834
C14	C	0.017800	0.991000	0.960400	0.045858
C15	C	0.220400	0.415700	0.183100	0.416654
C16	C	0.593700	0.402700	0.182900	0.420951
C17	C	0.574100	0.725300	0.245700	0.414376
C18	C	0.202200	0.739900	0.237400	0.413603
C19	C	0.432100	0.838100	0.111500	0.053481
C20	C	0.433600	0.984300	0.168300	0.059243
C21	C	0.463600	0.877500	0.043600	-0.180154
C22	C	0.464800	0.030300	0.101300	-0.125876
C23	C	0.481900	0.977400	0.036100	0.051095
C24	C	0.930800	0.615100	0.358900	0.097143
C25	C	0.932800	0.454600	0.334600	0.097864
C26	C	0.962400	0.602400	0.432200	-0.136631
C27	C	0.964800	0.434800	0.408800	-0.114834
C28	C	0.982200	0.509000	0.460400	0.045858
C29	C	0.220400	0.915700	0.316900	0.416654
C30	C	0.593700	0.902700	0.317100	0.420951
C31	C	0.574100	0.225300	0.254300	0.414376
C32	C	0.202200	0.239900	0.262600	0.413603
C33	C	0.432100	0.338100	0.388500	0.053481
C34	C	0.433600	0.484300	0.331700	0.059243
C35	C	0.463600	0.377500	0.456400	-0.180154
C36	C	0.464800	0.530300	0.398700	-0.125876
C37	C	0.481900	0.477400	0.463900	0.051095
C38	C	0.930800	0.115100	0.141100	0.097143
C39	C	0.932800	0.954600	0.165400	0.097864
C40	C	0.962400	0.102400	0.067800	-0.136631
C41	C	0.964800	0.934800	0.091200	-0.114834
C42	C	0.982200	0.009000	0.039600	0.045858
C43	C	0.779600	0.584300	0.816900	0.416654
C44	C	0.406300	0.597300	0.817100	0.420951
C45	C	0.425900	0.274700	0.754300	0.414376
C46	C	0.797800	0.260100	0.762600	0.413603
C47	C	0.567900	0.161900	0.888500	0.053481
C48	C	0.566400	0.015700	0.831700	0.059243
C49	C	0.536400	0.122500	0.956400	-0.180154
C50	C	0.535200	0.969700	0.898700	-0.125876
C51	C	0.518100	0.022600	0.963900	0.051095
C52	C	0.069200	0.384900	0.641100	0.097143
C53	C	0.067200	0.545400	0.665400	0.097864
C54	C	0.037600	0.397600	0.567800	-0.136631
C55	C	0.035200	0.565200	0.591200	-0.114834
C56	C	0.017800	0.491000	0.539600	0.045858
N1	N	0.621800	0.239000	0.634100	0.148594
N2	N	0.580800	0.611100	0.675500	-0.047609
N3	N	0.080300	0.955800	0.807900	-0.384309
N4	N	0.325100	0.825200	0.718400	-0.469477
N5	N	0.295200	0.041800	0.669400	-0.447087
N6	N	0.877200	0.023700	0.667600	-0.441586
N7	N	0.902700	0.804400	0.704500	-0.473007
N8	N	0.378200	0.261000	0.134100	0.148594
N9	N	0.419200	0.888900	0.175500	-0.047609
N10	N	0.919700	0.544200	0.307900	-0.384309
N11	N	0.674900	0.674800	0.218400	-0.469477
N12	N	0.704800	0.458200	0.169400	-0.447087
N13	N	0.122800	0.476300	0.167600	-0.441586
N14	N	0.097300	0.695600	0.204500	-0.473007
N15	N	0.378200	0.761000	0.365900	0.148594
N16	N	0.419200	0.388900	0.324500	-0.047609
N17	N	0.919700	0.044200	0.192100	-0.384309
N18	N	0.674900	0.174800	0.281600	-0.469477
N19	N	0.704800	0.958200	0.330600	-0.447087
N20	N	0.122800	0.976300	0.332400	-0.441586
N21	N	0.097300	0.195600	0.295500	-0.473007
N22	N	0.621800	0.739000	0.865900	0.148594
N23	N	0.580800	0.111100	0.824500	-0.047609
N24	N	0.080300	0.455800	0.692100	-0.384309
N25	N	0.325100	0.325200	0.781600	-0.469477
N26	N	0.295200	0.541800	0.830600	-0.447087
N27	N	0.877200	0.523700	0.832400	-0.441586
N28	N	0.902700	0.304400	0.795500	-0.473007
