data_JEWCAP_clean_PM
_symmetry_space_group_name_H-M	'P1'
_cell_length_a	13.026000
_cell_length_b	14.639000
_cell_length_c	25.778000
_cell_angle_alpha	90.000000
_cell_angle_beta	90.000000
_cell_angle_gamma	110.108001
_symmetry_Int_Tables_number 1

loop_
_symmetry_equiv_pos_as_xyz
'x,y,z'

loop_
_atom_site_label
_atom_site_type_symbol
_atom_site_fract_x
_atom_site_fract_y
_atom_site_fract_z
_atom_site_charge
Cu1	Cu	0.221300	0.678300	0.642000	0.703729
Cu2	Cu	0.171300	0.690400	0.522000	0.699528
Cu3	Cu	0.473500	0.894900	0.812500	0.564566
Cu4	Cu	0.033400	0.756400	0.607100	0.615489
Cu5	Cu	0.278700	0.321700	0.142000	0.703729
Cu6	Cu	0.328700	0.309600	0.022000	0.699528
Cu7	Cu	0.026500	0.105100	0.312500	0.564566
Cu8	Cu	0.466600	0.243600	0.107100	0.615489
Cu9	Cu	0.778700	0.321700	0.358000	0.703729
Cu10	Cu	0.828700	0.309600	0.478000	0.699528
Cu11	Cu	0.526500	0.105100	0.187500	0.564566
Cu12	Cu	0.966600	0.243600	0.392900	0.615489
Cu13	Cu	0.721300	0.678300	0.858000	0.703729
Cu14	Cu	0.671300	0.690400	0.978000	0.699528
Cu15	Cu	0.973500	0.894900	0.687500	0.564566
Cu16	Cu	0.533400	0.756400	0.892900	0.615489
H1	H	0.396700	0.728900	0.770100	0.051476
H2	H	0.007200	0.444900	0.448300	0.062680
H3	H	0.265100	0.835400	0.702100	0.077401
H4	H	0.389300	0.573400	0.745100	0.095052
H5	H	0.466000	0.520000	0.681000	0.071921
H6	H	0.204400	0.477200	0.676000	0.071205
H7	H	0.163200	0.520000	0.400500	0.091442
H8	H	0.223000	0.654200	0.350800	0.068569
H9	H	0.336500	0.655300	0.465700	0.076666
H10	H	0.283800	0.980500	0.718400	0.101045
H11	H	0.279600	0.082700	0.785800	0.069169
H12	H	0.529300	0.078400	0.743400	0.071825
H13	H	0.321800	0.487700	0.615200	0.120212
H14	H	0.367000	0.613000	0.600600	0.132157
H15	H	0.454000	0.545500	0.589700	0.133940
H16	H	0.564000	0.683300	0.710300	0.128182
H17	H	0.598400	0.661800	0.646400	0.121232
H18	H	0.511500	0.729400	0.657300	0.153513
H19	H	0.209600	0.333100	0.726000	0.132244
H20	H	0.333000	0.388700	0.692200	0.127443
H21	H	0.326200	0.408100	0.759500	0.133404
H22	H	0.094300	0.431300	0.751100	0.124785
H23	H	0.201300	0.509900	0.788800	0.128685
H24	H	0.139800	0.557800	0.739800	0.145296
H25	H	0.334500	0.770400	0.416100	0.128892
H26	H	0.253500	0.820100	0.378500	0.129168
H27	H	0.214500	0.781300	0.442600	0.137664
H28	H	0.067900	0.712100	0.347900	0.124507
H29	H	0.027300	0.585000	0.356200	0.138563
H30	H	0.026200	0.660300	0.409500	0.161156
H31	H	0.241100	0.494300	0.506700	0.133023
H32	H	0.273600	0.437400	0.451900	0.133634
H33	H	0.378800	0.511800	0.492100	0.124744
H34	H	0.392800	0.662600	0.375300	0.124950
H35	H	0.468100	0.610000	0.414700	0.135238
H36	H	0.362900	0.535600	0.374600	0.127575
H37	H	0.141500	0.919400	0.786800	0.126687
H38	H	0.169500	0.969700	0.849600	0.135952
H39	H	0.223900	0.880400	0.829500	0.131120
H40	H	0.475400	0.083400	0.846100	0.137355
H41	H	0.359100	0.976700	0.844900	0.126913
H42	H	0.347500	0.087300	0.866100	0.143772
H43	H	0.487600	0.963500	0.671100	0.141241
H44	H	0.538200	0.084400	0.648400	0.124310
H45	H	0.397100	0.017200	0.644800	0.164783
H46	H	0.501300	0.219100	0.700700	0.126723
H47	H	0.414700	0.184300	0.755300	0.126537
H48	H	0.361200	0.151900	0.692400	0.142375
H49	H	0.103300	0.271100	0.270100	0.051476
H50	H	0.492800	0.555100	0.948300	0.062680
H51	H	0.234900	0.164600	0.202100	0.077401
H52	H	0.110700	0.426600	0.245100	0.095052
H53	H	0.034000	0.480000	0.181000	0.071921
H54	H	0.295600	0.522800	0.176000	0.071205
H55	H	0.336800	0.480000	0.900500	0.091442
H56	H	0.277000	0.345800	0.850800	0.068569
H57	H	0.163500	0.344700	0.965700	0.076666
H58	H	0.216200	0.019500	0.218400	0.101045
H59	H	0.220400	0.917300	0.285800	0.069169
H60	H	0.970700	0.921600	0.243400	0.071825
H61	H	0.178200	0.512300	0.115200	0.120212
H62	H	0.133000	0.387000	0.100600	0.132157
H63	H	0.046000	0.454500	0.089700	0.133940
H64	H	0.936000	0.316700	0.210300	0.128182
H65	H	0.901600	0.338200	0.146400	0.121232
H66	H	0.988500	0.270600	0.157300	0.153513
H67	H	0.290400	0.666900	0.226000	0.132244
H68	H	0.167000	0.611300	0.192200	0.127443
H69	H	0.173800	0.591900	0.259500	0.133404
H70	H	0.405700	0.568700	0.251100	0.124785
H71	H	0.298700	0.490100	0.288800	0.128685
H72	H	0.360200	0.442200	0.239800	0.145296
H73	H	0.165500	0.229600	0.916100	0.128892
H74	H	0.246500	0.179900	0.878500	0.129168
H75	H	0.285500	0.218700	0.942600	0.137664
H76	H	0.432100	0.287900	0.847900	0.124507
H77	H	0.472700	0.415000	0.856200	0.138563
H78	H	0.473800	0.339700	0.909500	0.161156
H79	H	0.258900	0.505700	0.006700	0.133023
H80	H	0.226400	0.562600	0.951900	0.133634
H81	H	0.121200	0.488200	0.992100	0.124744
H82	H	0.107200	0.337400	0.875300	0.124950
H83	H	0.031900	0.390000	0.914700	0.135238
H84	H	0.137100	0.464400	0.874600	0.127575
H85	H	0.358500	0.080600	0.286800	0.126687
H86	H	0.330500	0.030300	0.349600	0.135952
H87	H	0.276100	0.119600	0.329500	0.131120
H88	H	0.024600	0.916600	0.346100	0.137355
H89	H	0.140900	0.023300	0.344900	0.126913
H90	H	0.152500	0.912700	0.366100	0.143772
H91	H	0.012400	0.036500	0.171100	0.141241
H92	H	0.961800	0.915600	0.148400	0.124310
H93	H	0.102900	0.982800	0.144800	0.164783
H94	H	0.998700	0.780900	0.200700	0.126723
H95	H	0.085300	0.815700	0.255300	0.126537
H96	H	0.138800	0.848100	0.192400	0.142375
H97	H	0.603300	0.271100	0.229900	0.051476
H98	H	0.992800	0.555100	0.551700	0.062680
H99	H	0.734900	0.164600	0.297900	0.077401
H100	H	0.610700	0.426600	0.254900	0.095052
H101	H	0.534000	0.480000	0.319000	0.071921
H102	H	0.795600	0.522800	0.324000	0.071205
H103	H	0.836800	0.480000	0.599500	0.091442
H104	H	0.777000	0.345800	0.649200	0.068569
H105	H	0.663500	0.344700	0.534300	0.076666
H106	H	0.716200	0.019500	0.281600	0.101045
H107	H	0.720400	0.917300	0.214200	0.069169
H108	H	0.470700	0.921600	0.256600	0.071825
H109	H	0.678200	0.512300	0.384800	0.120212
H110	H	0.633000	0.387000	0.399400	0.132157
H111	H	0.546000	0.454500	0.410300	0.133940
H112	H	0.436000	0.316700	0.289700	0.128182
H113	H	0.401600	0.338200	0.353600	0.121232
H114	H	0.488500	0.270600	0.342700	0.153513
H115	H	0.790400	0.666900	0.274000	0.132244
H116	H	0.667000	0.611300	0.307800	0.127443
H117	H	0.673800	0.591900	0.240500	0.133404
H118	H	0.905700	0.568700	0.248900	0.124785
H119	H	0.798700	0.490100	0.211200	0.128685
H120	H	0.860200	0.442200	0.260200	0.145296
H121	H	0.665500	0.229600	0.583900	0.128892
H122	H	0.746500	0.179900	0.621500	0.129168
H123	H	0.785500	0.218700	0.557400	0.137664
H124	H	0.932100	0.287900	0.652100	0.124507
H125	H	0.972700	0.415000	0.643800	0.138563
H126	H	0.973800	0.339700	0.590500	0.161156
H127	H	0.758900	0.505700	0.493300	0.133023
H128	H	0.726400	0.562600	0.548100	0.133634
H129	H	0.621200	0.488200	0.507900	0.124744
H130	H	0.607200	0.337400	0.624700	0.124950
H131	H	0.531900	0.390000	0.585300	0.135238
H132	H	0.637100	0.464400	0.625400	0.127575
H133	H	0.858500	0.080600	0.213200	0.126687
H134	H	0.830500	0.030300	0.150400	0.135952
H135	H	0.776100	0.119600	0.170500	0.131120
H136	H	0.524600	0.916600	0.153900	0.137355
H137	H	0.640900	0.023300	0.155100	0.126913
H138	H	0.652500	0.912700	0.133900	0.143772
H139	H	0.512400	0.036500	0.328900	0.141241
H140	H	0.461800	0.915600	0.351600	0.124310
H141	H	0.602900	0.982800	0.355200	0.164783
H142	H	0.498700	0.780900	0.299300	0.126723
H143	H	0.585300	0.815700	0.244700	0.126537
H144	H	0.638800	0.848100	0.307600	0.142375
H145	H	0.896700	0.728900	0.729900	0.051476
H146	H	0.507200	0.444900	0.051700	0.062680
H147	H	0.765100	0.835400	0.797900	0.077401
H148	H	0.889300	0.573400	0.754900	0.095052
H149	H	0.966000	0.520000	0.819000	0.071921
H150	H	0.704400	0.477200	0.824000	0.071205
H151	H	0.663200	0.520000	0.099500	0.091442
H152	H	0.723000	0.654200	0.149200	0.068569
H153	H	0.836500	0.655300	0.034300	0.076666
H154	H	0.783800	0.980500	0.781600	0.101045
H155	H	0.779600	0.082700	0.714200	0.069169
H156	H	0.029300	0.078400	0.756600	0.071825
H157	H	0.821800	0.487700	0.884800	0.120212
H158	H	0.867000	0.613000	0.899400	0.132157
H159	H	0.954000	0.545500	0.910300	0.133940
H160	H	0.064000	0.683300	0.789700	0.128182
H161	H	0.098400	0.661800	0.853600	0.121232
H162	H	0.011500	0.729400	0.842700	0.153513
H163	H	0.709600	0.333100	0.774000	0.132244
H164	H	0.833000	0.388700	0.807800	0.127443
H165	H	0.826200	0.408100	0.740500	0.133404
H166	H	0.594300	0.431300	0.748900	0.124785
H167	H	0.701300	0.509900	0.711200	0.128685
H168	H	0.639800	0.557800	0.760200	0.145296
H169	H	0.834500	0.770400	0.083900	0.128892
H170	H	0.753500	0.820100	0.121500	0.129168
H171	H	0.714500	0.781300	0.057400	0.137664
H172	H	0.567900	0.712100	0.152100	0.124507
H173	H	0.527300	0.585000	0.143800	0.138563
H174	H	0.526200	0.660300	0.090500	0.161156
H175	H	0.741100	0.494300	0.993300	0.133023
H176	H	0.773600	0.437400	0.048100	0.133634
H177	H	0.878800	0.511800	0.007900	0.124744
H178	H	0.892800	0.662600	0.124700	0.124950
H179	H	0.968100	0.610000	0.085300	0.135238
H180	H	0.862900	0.535600	0.125400	0.127575
H181	H	0.641500	0.919400	0.713200	0.126687
H182	H	0.669500	0.969700	0.650400	0.135952
H183	H	0.723900	0.880400	0.670500	0.131120
H184	H	0.975400	0.083400	0.653900	0.137355
H185	H	0.859100	0.976700	0.655100	0.126913
H186	H	0.847500	0.087300	0.633900	0.143772
H187	H	0.987600	0.963500	0.828900	0.141241
H188	H	0.038200	0.084400	0.851600	0.124310
H189	H	0.897100	0.017200	0.855200	0.164783
H190	H	0.001300	0.219100	0.799300	0.126723
H191	H	0.914700	0.184300	0.744700	0.126537
H192	H	0.861200	0.151900	0.807600	0.142375
C1	C	0.350000	0.736700	0.736900	0.047578
C2	C	0.031100	0.502000	0.477100	0.066954
C3	C	0.324800	0.829700	0.729800	0.062978
C4	C	0.348900	0.575600	0.708800	0.046059
C5	C	0.437200	0.577900	0.669400	0.077577
C6	C	0.246800	0.486500	0.712700	0.073182
C7	C	0.192100	0.584800	0.424100	0.043867
C8	C	0.185900	0.664300	0.386800	0.066040
C9	C	0.306600	0.589900	0.442500	0.067796
C10	C	0.348500	0.990900	0.746400	0.055545
C11	C	0.302500	0.021100	0.796700	0.064308
C12	C	0.456200	0.068100	0.720900	0.070899
C13	C	0.534600	0.669400	0.670900	-0.413531
C14	C	0.391600	0.554200	0.614800	-0.459818
C15	C	0.281700	0.397400	0.723300	-0.470082
C16	C	0.164700	0.497200	0.750700	-0.426352
C17	C	0.252000	0.766700	0.407600	-0.445282
C18	C	0.068200	0.654800	0.374200	-0.402083
C19	C	0.299400	0.502000	0.475700	-0.412382
C20	C	0.388500	0.600100	0.398500	-0.465217
C21	C	0.202200	0.941900	0.817100	-0.453932
C22	C	0.388300	0.054600	0.839300	-0.449334
C23	C	0.470500	0.030300	0.667400	-0.390345
C24	C	0.431500	0.162800	0.717000	-0.461436
C25	C	0.150000	0.263300	0.236900	0.047578
C26	C	0.468900	0.498000	0.977100	0.066954
C27	C	0.175200	0.170300	0.229800	0.062978
C28	C	0.151100	0.424400	0.208800	0.046059
C29	C	0.062800	0.422100	0.169400	0.077577
C30	C	0.253200	0.513500	0.212700	0.073182
C31	C	0.307900	0.415200	0.924100	0.043867
C32	C	0.314100	0.335700	0.886800	0.066040
C33	C	0.193400	0.410100	0.942500	0.067796
C34	C	0.151500	0.009100	0.246400	0.055545
C35	C	0.197500	0.978900	0.296700	0.064308
C36	C	0.043800	0.931900	0.220900	0.070899
C37	C	0.965400	0.330600	0.170900	-0.413531
C38	C	0.108400	0.445800	0.114800	-0.459818
C39	C	0.218300	0.602600	0.223300	-0.470082
C40	C	0.335300	0.502800	0.250700	-0.426352
C41	C	0.248000	0.233300	0.907600	-0.445282
C42	C	0.431800	0.345200	0.874200	-0.402083
C43	C	0.200600	0.498000	0.975700	-0.412382
C44	C	0.111500	0.399900	0.898500	-0.465217
C45	C	0.297800	0.058100	0.317100	-0.453932
C46	C	0.111700	0.945400	0.339300	-0.449334
C47	C	0.029500	0.969700	0.167400	-0.390345
C48	C	0.068500	0.837200	0.217000	-0.461436
C49	C	0.650000	0.263300	0.263100	0.047578
C50	C	0.968900	0.498000	0.522900	0.066954
C51	C	0.675200	0.170300	0.270200	0.062978
C52	C	0.651100	0.424400	0.291200	0.046059
C53	C	0.562800	0.422100	0.330600	0.077577
C54	C	0.753200	0.513500	0.287300	0.073182
C55	C	0.807900	0.415200	0.575900	0.043867
C56	C	0.814100	0.335700	0.613200	0.066040
C57	C	0.693400	0.410100	0.557500	0.067796
C58	C	0.651500	0.009100	0.253600	0.055545
C59	C	0.697500	0.978900	0.203300	0.064308
C60	C	0.543800	0.931900	0.279100	0.070899
C61	C	0.465400	0.330600	0.329100	-0.413531
C62	C	0.608400	0.445800	0.385200	-0.459818
C63	C	0.718300	0.602600	0.276700	-0.470082
C64	C	0.835300	0.502800	0.249300	-0.426352
C65	C	0.748000	0.233300	0.592400	-0.445282
C66	C	0.931800	0.345200	0.625800	-0.402083
C67	C	0.700600	0.498000	0.524300	-0.412382
C68	C	0.611500	0.399900	0.601500	-0.465217
C69	C	0.797800	0.058100	0.182900	-0.453932
C70	C	0.611700	0.945400	0.160700	-0.449334
C71	C	0.529500	0.969700	0.332600	-0.390345
C72	C	0.568500	0.837200	0.283000	-0.461436
C73	C	0.850000	0.736700	0.763100	0.047578
C74	C	0.531100	0.502000	0.022900	0.066954
C75	C	0.824800	0.829700	0.770200	0.062978
C76	C	0.848900	0.575600	0.791200	0.046059
C77	C	0.937200	0.577900	0.830600	0.077577
C78	C	0.746800	0.486500	0.787300	0.073182
C79	C	0.692100	0.584800	0.075900	0.043867
C80	C	0.685900	0.664300	0.113200	0.066040
C81	C	0.806600	0.589900	0.057500	0.067796
C82	C	0.848500	0.990900	0.753600	0.055545
C83	C	0.802500	0.021100	0.703300	0.064308
C84	C	0.956200	0.068100	0.779100	0.070899
C85	C	0.034600	0.669400	0.829100	-0.413531
C86	C	0.891600	0.554200	0.885200	-0.459818
C87	C	0.781700	0.397400	0.776700	-0.470082
C88	C	0.664700	0.497200	0.749300	-0.426352
C89	C	0.752000	0.766700	0.092400	-0.445282
C90	C	0.568200	0.654800	0.125800	-0.402083
C91	C	0.799400	0.502000	0.024300	-0.412382
C92	C	0.888500	0.600100	0.101500	-0.465217
C93	C	0.702200	0.941900	0.682900	-0.453932
C94	C	0.888300	0.054600	0.660700	-0.449334
C95	C	0.970500	0.030300	0.832600	-0.390345
C96	C	0.931500	0.162800	0.783000	-0.461436
N1	N	0.316800	0.666500	0.702300	-0.414036
N2	N	0.119400	0.578900	0.472800	-0.438944
N3	N	0.379200	0.900400	0.758900	-0.458530
N4	N	0.183200	0.333500	0.202300	-0.414036
N5	N	0.380600	0.421100	0.972800	-0.438944
N6	N	0.120800	0.099600	0.258900	-0.458530
N7	N	0.683200	0.333500	0.297700	-0.414036
N8	N	0.880600	0.421100	0.527200	-0.438944
N9	N	0.620800	0.099600	0.241100	-0.458530
N10	N	0.816800	0.666500	0.797700	-0.414036
N11	N	0.619400	0.578900	0.027200	-0.438944
N12	N	0.879200	0.900400	0.741100	-0.458530
Cl1	Cl	0.621400	0.915200	0.854800	-0.597873
Cl2	Cl	0.305600	0.772500	0.573600	-0.640413
Cl3	Cl	0.025100	0.760500	0.518400	-0.550028
Cl4	Cl	0.039000	0.627000	0.654800	-0.692900
Cl5	Cl	0.878600	0.084800	0.354800	-0.597873
Cl6	Cl	0.194400	0.227500	0.073600	-0.640413
Cl7	Cl	0.474900	0.239500	0.018400	-0.550028
Cl8	Cl	0.461000	0.373000	0.154800	-0.692900
Cl9	Cl	0.378600	0.084800	0.145200	-0.597873
Cl10	Cl	0.694400	0.227500	0.426400	-0.640413
Cl11	Cl	0.974900	0.239500	0.481600	-0.550028
Cl12	Cl	0.961000	0.373000	0.345200	-0.692900
Cl13	Cl	0.121400	0.915200	0.645200	-0.597873
Cl14	Cl	0.805600	0.772500	0.926400	-0.640413
Cl15	Cl	0.525100	0.760500	0.981600	-0.550028
Cl16	Cl	0.539000	0.627000	0.845200	-0.692900
