data_KANMIX_clean_PM
_symmetry_space_group_name_H-M	'P1'
_cell_length_a	13.456600
_cell_length_b	18.997500
_cell_length_c	18.997500
_cell_angle_alpha	119.999999
_cell_angle_beta	90.000000
_cell_angle_gamma	90.000000
_symmetry_Int_Tables_number 1

loop_
_symmetry_equiv_pos_as_xyz
'x,y,z'

loop_
_atom_site_label
_atom_site_type_symbol
_atom_site_fract_x
_atom_site_fract_y
_atom_site_fract_z
_atom_site_charge
Cu1	Cu	0.738740	0.622780	0.811390	1.182716
Cu2	Cu	0.906600	0.707320	0.853660	1.208767
Cu3	Cu	0.738740	0.188610	0.377220	1.182716
Cu4	Cu	0.906600	0.146340	0.292680	1.208767
Cu5	Cu	0.738740	0.188610	0.811390	1.182716
Cu6	Cu	0.906600	0.146340	0.853660	1.208767
Cu7	Cu	0.238740	0.377220	0.188610	1.182716
Cu8	Cu	0.406600	0.292680	0.146340	1.208767
Cu9	Cu	0.238740	0.811390	0.622780	1.182716
Cu10	Cu	0.406600	0.853660	0.707320	1.208767
Cu11	Cu	0.238740	0.811390	0.188610	1.182716
Cu12	Cu	0.406600	0.853660	0.146340	1.208767
H1	H	0.039400	0.591600	0.613400	0.132848
H2	H	0.571400	0.775100	0.755400	0.145427
H3	H	0.039400	0.021800	0.408400	0.132848
H4	H	0.571400	0.980300	0.224900	0.145427
H5	H	0.039400	0.386600	0.978200	0.132848
H6	H	0.571400	0.244600	0.019700	0.145427
H7	H	0.539400	0.408400	0.386600	0.132848
H8	H	0.071400	0.224900	0.244600	0.145427
H9	H	0.539400	0.978200	0.591600	0.132848
H10	H	0.071400	0.019700	0.775100	0.145427
H11	H	0.539400	0.613400	0.021800	0.132848
H12	H	0.071400	0.755400	0.980300	0.145427
H13	H	0.039400	0.021800	0.613400	0.132848
H14	H	0.571400	0.980300	0.755400	0.145427
H15	H	0.039400	0.386600	0.408400	0.132848
H16	H	0.571400	0.244600	0.224900	0.145427
H17	H	0.039400	0.591600	0.978200	0.132848
H18	H	0.571400	0.775100	0.019700	0.145427
H19	H	0.539400	0.978200	0.386600	0.132848
H20	H	0.071400	0.019700	0.244600	0.145427
H21	H	0.539400	0.613400	0.591600	0.132848
H22	H	0.071400	0.755400	0.775100	0.145427
H23	H	0.539400	0.408400	0.021800	0.132848
H24	H	0.071400	0.224900	0.980300	0.145427
H25	H	0.821000	0.431350	0.568650	0.151722
H26	H	0.821000	0.137300	0.568650	0.151722
H27	H	0.821000	0.431350	0.862700	0.151722
H28	H	0.321000	0.568650	0.431350	0.151722
H29	H	0.321000	0.862700	0.431350	0.151722
H30	H	0.321000	0.568650	0.137300	0.151722
H31	H	0.824900	0.899650	0.799300	0.147566
H32	H	0.824900	0.899650	0.100350	0.147566
H33	H	0.824900	0.200700	0.100350	0.147566
H34	H	0.324900	0.100350	0.200700	0.147566
H35	H	0.324900	0.100350	0.899650	0.147566
H36	H	0.324900	0.799300	0.899650	0.147566
C1	C	0.011300	0.540800	0.579700	0.068024
C2	C	0.930600	0.518000	0.607200	0.034416
C3	C	0.888200	0.571500	0.691000	0.476622
C4	C	0.605500	0.820500	0.761900	0.098531
C5	C	0.705900	0.826600	0.780100	0.039071
C6	C	0.755100	0.763800	0.792800	0.480032
C7	C	0.011300	0.038900	0.459200	0.068024
C8	C	0.930600	0.089200	0.482000	0.034416
C9	C	0.888200	0.119500	0.428500	0.476622
C10	C	0.605500	0.941400	0.179500	0.098531
C11	C	0.705900	0.953500	0.173400	0.039071
C12	C	0.755100	0.029000	0.236200	0.480032
C13	C	0.011300	0.420300	0.961100	0.068024
C14	C	0.930600	0.392800	0.910800	0.034416
C15	C	0.888200	0.309000	0.880500	0.476622
C16	C	0.605500	0.238100	0.058600	0.098531
C17	C	0.705900	0.219900	0.046500	0.039071
C18	C	0.755100	0.207200	0.971000	0.480032
C19	C	0.511300	0.459200	0.420300	0.068024
C20	C	0.430600	0.482000	0.392800	0.034416
C21	C	0.388200	0.428500	0.309000	0.476622
C22	C	0.105500	0.179500	0.238100	0.098531
C23	C	0.205900	0.173400	0.219900	0.039071
C24	C	0.255100	0.236200	0.207200	0.480032
C25	C	0.511300	0.961100	0.540800	0.068024
C26	C	0.430600	0.910800	0.518000	0.034416
C27	C	0.388200	0.880500	0.571500	0.476622
C28	C	0.105500	0.058600	0.820500	0.098531
C29	C	0.205900	0.046500	0.826600	0.039071
C30	C	0.255100	0.971000	0.763800	0.480032
C31	C	0.511300	0.579700	0.038900	0.068024
C32	C	0.430600	0.607200	0.089200	0.034416
C33	C	0.388200	0.691000	0.119500	0.476622
C34	C	0.105500	0.761900	0.941400	0.098531
C35	C	0.205900	0.780100	0.953500	0.039071
C36	C	0.255100	0.792800	0.029000	0.480032
C37	C	0.011300	0.038900	0.579700	0.068024
C38	C	0.930600	0.089200	0.607200	0.034416
C39	C	0.888200	0.119500	0.691000	0.476622
C40	C	0.605500	0.941400	0.761900	0.098531
C41	C	0.705900	0.953500	0.780100	0.039071
C42	C	0.755100	0.029000	0.792800	0.480032
C43	C	0.011300	0.420300	0.459200	0.068024
C44	C	0.930600	0.392800	0.482000	0.034416
C45	C	0.888200	0.309000	0.428500	0.476622
C46	C	0.605500	0.238100	0.179500	0.098531
C47	C	0.705900	0.219900	0.173400	0.039071
C48	C	0.755100	0.207200	0.236200	0.480032
C49	C	0.011300	0.540800	0.961100	0.068024
C50	C	0.930600	0.518000	0.910800	0.034416
C51	C	0.888200	0.571500	0.880500	0.476622
C52	C	0.605500	0.820500	0.058600	0.098531
C53	C	0.705900	0.826600	0.046500	0.039071
C54	C	0.755100	0.763800	0.971000	0.480032
C55	C	0.511300	0.961100	0.420300	0.068024
C56	C	0.430600	0.910800	0.392800	0.034416
C57	C	0.388200	0.880500	0.309000	0.476622
C58	C	0.105500	0.058600	0.238100	0.098531
C59	C	0.205900	0.046500	0.219900	0.039071
C60	C	0.255100	0.971000	0.207200	0.480032
C61	C	0.511300	0.579700	0.540800	0.068024
C62	C	0.430600	0.607200	0.518000	0.034416
C63	C	0.388200	0.691000	0.571500	0.476622
C64	C	0.105500	0.761900	0.820500	0.098531
C65	C	0.205900	0.780100	0.826600	0.039071
C66	C	0.255100	0.792800	0.763800	0.480032
C67	C	0.511300	0.459200	0.038900	0.068024
C68	C	0.430600	0.482000	0.089200	0.034416
C69	C	0.388200	0.428500	0.119500	0.476622
C70	C	0.105500	0.179500	0.941400	0.098531
C71	C	0.205900	0.173400	0.953500	0.039071
C72	C	0.255100	0.236200	0.029000	0.480032
C73	C	0.884400	0.444000	0.556000	-0.003079
C74	C	0.884400	0.112000	0.556000	-0.003079
C75	C	0.884400	0.444000	0.888000	-0.003079
C76	C	0.384400	0.556000	0.444000	-0.003079
C77	C	0.384400	0.888000	0.444000	-0.003079
C78	C	0.384400	0.556000	0.112000	-0.003079
C79	C	0.757100	0.894200	0.788400	-0.008917
C80	C	0.757100	0.894200	0.105800	-0.008917
C81	C	0.757100	0.211600	0.105800	-0.008917
C82	C	0.257100	0.105800	0.211600	-0.008917
C83	C	0.257100	0.105800	0.894200	-0.008917
C84	C	0.257100	0.788400	0.894200	-0.008917
N1	N	0.051400	0.493450	0.506550	-0.233216
N2	N	0.051400	0.013100	0.506550	-0.233216
N3	N	0.051400	0.493450	0.986900	-0.233216
N4	N	0.551400	0.506550	0.493450	-0.233216
N5	N	0.551400	0.986900	0.493450	-0.233216
N6	N	0.551400	0.506550	0.013100	-0.233216
N7	N	0.554500	0.876530	0.753060	-0.366774
N8	N	0.554500	0.876530	0.123470	-0.366774
N9	N	0.554500	0.246940	0.123470	-0.366774
N10	N	0.054500	0.123470	0.246940	-0.366774
N11	N	0.054500	0.123470	0.876530	-0.366774
N12	N	0.054500	0.753060	0.876530	-0.366774
O1	O	0.802400	0.555700	0.705700	-0.620159
O2	O	0.942700	0.628900	0.741100	-0.627736
O3	O	0.702300	0.703800	0.780400	-0.648562
O4	O	0.843400	0.775800	0.815600	-0.617906
O5	O	0.802400	0.150000	0.444300	-0.620159
O6	O	0.942700	0.112200	0.371100	-0.627736
O7	O	0.702300	0.076600	0.296200	-0.648562
O8	O	0.843400	0.039800	0.224200	-0.617906
O9	O	0.802400	0.294300	0.850000	-0.620159
O10	O	0.942700	0.258900	0.887800	-0.627736
O11	O	0.702300	0.219600	0.923400	-0.648562
O12	O	0.843400	0.184400	0.960200	-0.617906
O13	O	0.302400	0.444300	0.294300	-0.620159
O14	O	0.442700	0.371100	0.258900	-0.627736
O15	O	0.202300	0.296200	0.219600	-0.648562
O16	O	0.343400	0.224200	0.184400	-0.617906
O17	O	0.302400	0.850000	0.555700	-0.620159
O18	O	0.442700	0.887800	0.628900	-0.627736
O19	O	0.202300	0.923400	0.703800	-0.648562
O20	O	0.343400	0.960200	0.775800	-0.617906
O21	O	0.302400	0.705700	0.150000	-0.620159
O22	O	0.442700	0.741100	0.112200	-0.627736
O23	O	0.202300	0.780400	0.076600	-0.648562
O24	O	0.343400	0.815600	0.039800	-0.617906
O25	O	0.802400	0.150000	0.705700	-0.620159
O26	O	0.942700	0.112200	0.741100	-0.627736
O27	O	0.702300	0.076600	0.780400	-0.648562
O28	O	0.843400	0.039800	0.815600	-0.617906
O29	O	0.802400	0.294300	0.444300	-0.620159
O30	O	0.942700	0.258900	0.371100	-0.627736
O31	O	0.702300	0.219600	0.296200	-0.648562
O32	O	0.843400	0.184400	0.224200	-0.617906
O33	O	0.802400	0.555700	0.850000	-0.620159
O34	O	0.942700	0.628900	0.887800	-0.627736
O35	O	0.702300	0.703800	0.923400	-0.648562
O36	O	0.843400	0.775800	0.960200	-0.617906
O37	O	0.302400	0.850000	0.294300	-0.620159
O38	O	0.442700	0.887800	0.258900	-0.627736
O39	O	0.202300	0.923400	0.219600	-0.648562
O40	O	0.343400	0.960200	0.184400	-0.617906
O41	O	0.302400	0.705700	0.555700	-0.620159
O42	O	0.442700	0.741100	0.628900	-0.627736
O43	O	0.202300	0.780400	0.703800	-0.648562
O44	O	0.343400	0.815600	0.775800	-0.617906
O45	O	0.302400	0.444300	0.150000	-0.620159
O46	O	0.442700	0.371100	0.112200	-0.627736
O47	O	0.202300	0.296200	0.076600	-0.648562
O48	O	0.343400	0.224200	0.039800	-0.617906
