data_KEDQAN_clean_PM
_symmetry_space_group_name_H-M	'P1'
_cell_length_a	11.980000
_cell_length_b	17.982000
_cell_length_c	18.625000
_cell_angle_alpha	90.000000
_cell_angle_beta	90.000000
_cell_angle_gamma	90.000000
_symmetry_Int_Tables_number 1

loop_
_symmetry_equiv_pos_as_xyz
'x,y,z'

loop_
_atom_site_label
_atom_site_type_symbol
_atom_site_fract_x
_atom_site_fract_y
_atom_site_fract_z
_atom_site_charge
Zn1	Zn	0.389900	0.802650	0.509130	1.233542
Zn2	Zn	0.110100	0.802650	0.490870	1.233542
Zn3	Zn	0.610100	0.697350	0.509130	1.233542
Zn4	Zn	0.889900	0.697350	0.490870	1.233542
Zn5	Zn	0.610100	0.197350	0.490870	1.233542
Zn6	Zn	0.889900	0.197350	0.509130	1.233542
Zn7	Zn	0.389900	0.302650	0.490870	1.233542
Zn8	Zn	0.110100	0.302650	0.509130	1.233542
H1	H	0.374500	0.743700	0.292800	0.116421
H2	H	0.384300	0.829900	0.735800	0.097618
H3	H	0.396900	0.065800	0.326200	0.105972
H4	H	0.386900	0.831500	0.858800	0.093533
H5	H	0.357400	0.806900	0.968200	0.086579
H6	H	0.290900	0.837400	0.357300	0.142207
H7	H	0.355300	0.805100	0.091000	0.088426
H8	H	0.151200	0.919700	0.362800	0.126563
H9	H	0.510900	0.894300	0.162200	0.092964
H10	H	0.428300	0.988500	0.227700	0.092741
H11	H	0.051300	0.010300	0.422600	0.123695
H12	H	0.297200	0.155800	0.386200	0.132346
H13	H	0.125500	0.743700	0.707200	0.116421
H14	H	0.115700	0.829900	0.264200	0.097618
H15	H	0.103100	0.065800	0.673800	0.105972
H16	H	0.113100	0.831500	0.141200	0.093533
H17	H	0.142600	0.806900	0.031800	0.086579
H18	H	0.209100	0.837400	0.642700	0.142207
H19	H	0.144700	0.805100	0.909000	0.088426
H20	H	0.348800	0.919700	0.637200	0.126563
H21	H	0.989100	0.894300	0.837800	0.092964
H22	H	0.071700	0.988500	0.772300	0.092741
H23	H	0.448700	0.010300	0.577400	0.123695
H24	H	0.202800	0.155800	0.613800	0.132346
H25	H	0.625500	0.756300	0.292800	0.116421
H26	H	0.615700	0.670100	0.735800	0.097618
H27	H	0.603100	0.434200	0.326200	0.105972
H28	H	0.613100	0.668500	0.858800	0.093533
H29	H	0.642600	0.693100	0.968200	0.086579
H30	H	0.709100	0.662600	0.357300	0.142207
H31	H	0.644700	0.694900	0.091000	0.088426
H32	H	0.848800	0.580300	0.362800	0.126563
H33	H	0.489100	0.605700	0.162200	0.092964
H34	H	0.571700	0.511500	0.227700	0.092741
H35	H	0.948700	0.489700	0.422600	0.123695
H36	H	0.702800	0.344200	0.386200	0.132346
H37	H	0.874500	0.756300	0.707200	0.116421
H38	H	0.884300	0.670100	0.264200	0.097618
H39	H	0.896900	0.434200	0.673800	0.105972
H40	H	0.886900	0.668500	0.141200	0.093533
H41	H	0.857400	0.693100	0.031800	0.086579
H42	H	0.790900	0.662600	0.642700	0.142207
H43	H	0.855300	0.694900	0.909000	0.088426
H44	H	0.651200	0.580300	0.637200	0.126563
H45	H	0.010900	0.605700	0.837800	0.092964
H46	H	0.928300	0.511500	0.772300	0.092741
H47	H	0.551300	0.489700	0.577400	0.123695
H48	H	0.797200	0.344200	0.613800	0.132346
H49	H	0.625500	0.256300	0.707200	0.116421
H50	H	0.615700	0.170100	0.264200	0.097618
H51	H	0.603100	0.934200	0.673800	0.105972
H52	H	0.613100	0.168500	0.141200	0.093533
H53	H	0.642600	0.193100	0.031800	0.086579
H54	H	0.709100	0.162600	0.642700	0.142207
H55	H	0.644700	0.194900	0.909000	0.088426
H56	H	0.848800	0.080300	0.637200	0.126563
H57	H	0.489100	0.105700	0.837800	0.092964
H58	H	0.571700	0.011500	0.772300	0.092741
H59	H	0.948700	0.989700	0.577400	0.123695
H60	H	0.702800	0.844200	0.613800	0.132346
H61	H	0.874500	0.256300	0.292800	0.116421
H62	H	0.884300	0.170100	0.735800	0.097618
H63	H	0.896900	0.934200	0.326200	0.105972
H64	H	0.886900	0.168500	0.858800	0.093533
H65	H	0.857400	0.193100	0.968200	0.086579
H66	H	0.790900	0.162600	0.357300	0.142207
H67	H	0.855300	0.194900	0.091000	0.088426
H68	H	0.651200	0.080300	0.362800	0.126563
H69	H	0.010900	0.105700	0.162200	0.092964
H70	H	0.928300	0.011500	0.227700	0.092741
H71	H	0.551300	0.989700	0.422600	0.123695
H72	H	0.797200	0.844200	0.386200	0.132346
H73	H	0.374500	0.243700	0.707200	0.116421
H74	H	0.384300	0.329900	0.264200	0.097618
H75	H	0.396900	0.565800	0.673800	0.105972
H76	H	0.386900	0.331500	0.141200	0.093533
H77	H	0.357400	0.306900	0.031800	0.086579
H78	H	0.290900	0.337400	0.642700	0.142207
H79	H	0.355300	0.305100	0.909000	0.088426
H80	H	0.151200	0.419700	0.637200	0.126563
H81	H	0.510900	0.394300	0.837800	0.092964
H82	H	0.428300	0.488500	0.772300	0.092741
H83	H	0.051300	0.510300	0.577400	0.123695
H84	H	0.297200	0.655800	0.613800	0.132346
H85	H	0.125500	0.243700	0.292800	0.116421
H86	H	0.115700	0.329900	0.735800	0.097618
H87	H	0.103100	0.565800	0.326200	0.105972
H88	H	0.113100	0.331500	0.858800	0.093533
H89	H	0.142600	0.306900	0.968200	0.086579
H90	H	0.209100	0.337400	0.357300	0.142207
H91	H	0.144700	0.305100	0.091000	0.088426
H92	H	0.348800	0.419700	0.362800	0.126563
H93	H	0.989100	0.394300	0.162200	0.092964
H94	H	0.071700	0.488500	0.227700	0.092741
H95	H	0.448700	0.510300	0.422600	0.123695
H96	H	0.202800	0.655800	0.386200	0.132346
H97	H	0.250000	0.404300	0.500000	0.456695
H98	H	0.750000	0.095700	0.500000	0.456695
H99	H	0.750000	0.595700	0.500000	0.456695
H100	H	0.250000	0.904300	0.500000	0.456695
C1	C	0.384500	0.792920	0.278800	-0.079230
C2	C	0.431600	0.797690	0.760410	-0.033923
C3	C	0.449100	0.808840	0.219820	0.108255
C4	C	0.327400	0.054180	0.345400	-0.152801
C5	C	0.432500	0.798170	0.834430	-0.160583
C6	C	0.285400	0.982280	0.337760	0.047215
C7	C	0.346900	0.923070	0.298360	0.029193
C8	C	0.415300	0.783400	0.992530	-0.125017
C9	C	0.334200	0.849320	0.317530	-0.042990
C10	C	0.414300	0.783000	0.066600	-0.080787
C11	C	0.181100	0.967180	0.367220	-0.134732
C12	C	0.465800	0.882560	0.201260	-0.085551
C13	C	0.415600	0.939210	0.240500	-0.137096
C14	C	0.163100	0.092750	0.409820	0.033565
C15	C	0.120700	0.021730	0.403040	-0.009219
C16	C	0.267400	0.108360	0.381200	0.004687
C17	C	0.098000	0.150690	0.447700	0.478986
C18	C	0.115500	0.792920	0.721200	-0.079230
C19	C	0.068400	0.797690	0.239590	-0.033923
C20	C	0.050900	0.808840	0.780180	0.108255
C21	C	0.172600	0.054180	0.654600	-0.152801
C22	C	0.067500	0.798170	0.165570	-0.160583
C23	C	0.214600	0.982280	0.662240	0.047215
C24	C	0.153100	0.923070	0.701640	0.029193
C25	C	0.084700	0.783400	0.007470	-0.125017
C26	C	0.165800	0.849320	0.682470	-0.042990
C27	C	0.085700	0.783000	0.933400	-0.080787
C28	C	0.318900	0.967180	0.632780	-0.134732
C29	C	0.034200	0.882560	0.798740	-0.085551
C30	C	0.084400	0.939210	0.759500	-0.137096
C31	C	0.336900	0.092750	0.590180	0.033565
C32	C	0.379300	0.021730	0.596960	-0.009219
C33	C	0.232600	0.108360	0.618800	0.004687
C34	C	0.402000	0.150690	0.552300	0.478986
C35	C	0.615500	0.707080	0.278800	-0.079230
C36	C	0.568400	0.702310	0.760410	-0.033923
C37	C	0.550900	0.691160	0.219820	0.108255
C38	C	0.672600	0.445820	0.345400	-0.152801
C39	C	0.567500	0.701830	0.834430	-0.160583
C40	C	0.714600	0.517720	0.337760	0.047215
C41	C	0.653100	0.576930	0.298360	0.029193
C42	C	0.584700	0.716600	0.992530	-0.125017
C43	C	0.665800	0.650680	0.317530	-0.042990
C44	C	0.585700	0.717000	0.066600	-0.080787
C45	C	0.818900	0.532820	0.367220	-0.134732
C46	C	0.534200	0.617440	0.201260	-0.085551
C47	C	0.584400	0.560790	0.240500	-0.137096
C48	C	0.836900	0.407250	0.409820	0.033565
C49	C	0.879300	0.478270	0.403040	-0.009219
C50	C	0.732600	0.391640	0.381200	0.004687
C51	C	0.902000	0.349310	0.447700	0.478986
C52	C	0.884500	0.707080	0.721200	-0.079230
C53	C	0.931600	0.702310	0.239590	-0.033923
C54	C	0.949100	0.691160	0.780180	0.108255
C55	C	0.827400	0.445820	0.654600	-0.152801
C56	C	0.932500	0.701830	0.165570	-0.160583
C57	C	0.785400	0.517720	0.662240	0.047215
C58	C	0.846900	0.576930	0.701640	0.029193
C59	C	0.915300	0.716600	0.007470	-0.125017
C60	C	0.834200	0.650680	0.682470	-0.042990
C61	C	0.914300	0.717000	0.933400	-0.080787
C62	C	0.681100	0.532820	0.632780	-0.134732
C63	C	0.965800	0.617440	0.798740	-0.085551
C64	C	0.915600	0.560790	0.759500	-0.137096
C65	C	0.663100	0.407250	0.590180	0.033565
C66	C	0.620700	0.478270	0.596960	-0.009219
C67	C	0.767400	0.391640	0.618800	0.004687
C68	C	0.598000	0.349310	0.552300	0.478986
C69	C	0.615500	0.207080	0.721200	-0.079230
C70	C	0.568400	0.202310	0.239590	-0.033923
C71	C	0.550900	0.191160	0.780180	0.108255
C72	C	0.672600	0.945820	0.654600	-0.152801
C73	C	0.567500	0.201830	0.165570	-0.160583
C74	C	0.714600	0.017720	0.662240	0.047215
C75	C	0.653100	0.076930	0.701640	0.029193
C76	C	0.584700	0.216600	0.007470	-0.125017
C77	C	0.665800	0.150680	0.682470	-0.042990
C78	C	0.585700	0.217000	0.933400	-0.080787
C79	C	0.818900	0.032820	0.632780	-0.134732
C80	C	0.534200	0.117440	0.798740	-0.085551
C81	C	0.584400	0.060790	0.759500	-0.137096
C82	C	0.836900	0.907250	0.590180	0.033565
C83	C	0.879300	0.978270	0.596960	-0.009219
C84	C	0.732600	0.891640	0.618800	0.004687
C85	C	0.902000	0.849310	0.552300	0.478986
C86	C	0.884500	0.207080	0.278800	-0.079230
C87	C	0.931600	0.202310	0.760410	-0.033923
C88	C	0.949100	0.191160	0.219820	0.108255
C89	C	0.827400	0.945820	0.345400	-0.152801
C90	C	0.932500	0.201830	0.834430	-0.160583
C91	C	0.785400	0.017720	0.337760	0.047215
C92	C	0.846900	0.076930	0.298360	0.029193
C93	C	0.915300	0.216600	0.992530	-0.125017
C94	C	0.834200	0.150680	0.317530	-0.042990
C95	C	0.914300	0.217000	0.066600	-0.080787
C96	C	0.681100	0.032820	0.367220	-0.134732
C97	C	0.965800	0.117440	0.201260	-0.085551
C98	C	0.915600	0.060790	0.240500	-0.137096
C99	C	0.663100	0.907250	0.409820	0.033565
C100	C	0.620700	0.978270	0.403040	-0.009219
C101	C	0.767400	0.891640	0.381200	0.004687
C102	C	0.598000	0.849310	0.447700	0.478986
C103	C	0.384500	0.292920	0.721200	-0.079230
C104	C	0.431600	0.297690	0.239590	-0.033923
C105	C	0.449100	0.308840	0.780180	0.108255
C106	C	0.327400	0.554180	0.654600	-0.152801
C107	C	0.432500	0.298170	0.165570	-0.160583
C108	C	0.285400	0.482280	0.662240	0.047215
C109	C	0.346900	0.423070	0.701640	0.029193
C110	C	0.415300	0.283400	0.007470	-0.125017
C111	C	0.334200	0.349320	0.682470	-0.042990
C112	C	0.414300	0.283000	0.933400	-0.080787
C113	C	0.181100	0.467180	0.632780	-0.134732
C114	C	0.465800	0.382560	0.798740	-0.085551
C115	C	0.415600	0.439210	0.759500	-0.137096
C116	C	0.163100	0.592750	0.590180	0.033565
C117	C	0.120700	0.521730	0.596960	-0.009219
C118	C	0.267400	0.608360	0.618800	0.004687
C119	C	0.098000	0.650690	0.552300	0.478986
C120	C	0.115500	0.292920	0.278800	-0.079230
C121	C	0.068400	0.297690	0.760410	-0.033923
C122	C	0.050900	0.308840	0.219820	0.108255
C123	C	0.172600	0.554180	0.345400	-0.152801
C124	C	0.067500	0.298170	0.834430	-0.160583
C125	C	0.214600	0.482280	0.337760	0.047215
C126	C	0.153100	0.423070	0.298360	0.029193
C127	C	0.084700	0.283400	0.992530	-0.125017
C128	C	0.165800	0.349320	0.317530	-0.042990
C129	C	0.085700	0.283000	0.066600	-0.080787
C130	C	0.318900	0.467180	0.367220	-0.134732
C131	C	0.034200	0.382560	0.201260	-0.085551
C132	C	0.084400	0.439210	0.240500	-0.137096
C133	C	0.336900	0.592750	0.409820	0.033565
C134	C	0.379300	0.521730	0.403040	-0.009219
C135	C	0.232600	0.608360	0.381200	0.004687
C136	C	0.402000	0.650690	0.447700	0.478986
C137	C	0.500000	0.750000	0.105000	0.114486
C138	C	0.500000	0.750000	0.873500	0.051612
C139	C	0.500000	0.750000	0.641550	0.486203
C140	C	0.500000	0.750000	0.722150	0.038034
C141	C	0.500000	0.750000	0.953100	0.040908
C142	C	0.000000	0.750000	0.895000	0.114486
C143	C	0.000000	0.750000	0.126500	0.051612
C144	C	0.000000	0.750000	0.358450	0.486203
C145	C	0.000000	0.750000	0.277850	0.038034
C146	C	0.000000	0.750000	0.046900	0.040908
C147	C	0.500000	0.250000	0.895000	0.114486
C148	C	0.500000	0.250000	0.126500	0.051612
C149	C	0.500000	0.250000	0.358450	0.486203
C150	C	0.500000	0.250000	0.277850	0.038034
C151	C	0.500000	0.250000	0.046900	0.040908
C152	C	0.000000	0.250000	0.105000	0.114486
C153	C	0.000000	0.250000	0.873500	0.051612
C154	C	0.000000	0.250000	0.641550	0.486203
C155	C	0.000000	0.250000	0.722150	0.038034
C156	C	0.000000	0.250000	0.953100	0.040908
N1	N	0.500000	0.750000	0.180670	-0.304690
N2	N	0.000000	0.750000	0.819330	-0.304690
N3	N	0.500000	0.250000	0.819330	-0.304690
N4	N	0.000000	0.250000	0.180670	-0.304690
O1	O	0.423060	0.784390	0.610680	-0.682783
O2	O	0.139600	0.214890	0.451500	-0.639752
O3	O	0.005590	0.132340	0.473550	-0.673912
O4	O	0.076940	0.784390	0.389320	-0.682783
O5	O	0.360400	0.214890	0.548500	-0.639752
O6	O	0.494410	0.132340	0.526450	-0.673912
O7	O	0.576940	0.715610	0.610680	-0.682783
O8	O	0.860400	0.285110	0.451500	-0.639752
O9	O	0.994410	0.367660	0.473550	-0.673912
O10	O	0.923060	0.715610	0.389320	-0.682783
O11	O	0.639600	0.285110	0.548500	-0.639752
O12	O	0.505590	0.367660	0.526450	-0.673912
O13	O	0.576940	0.215610	0.389320	-0.682783
O14	O	0.860400	0.785110	0.548500	-0.639752
O15	O	0.994410	0.867660	0.526450	-0.673912
O16	O	0.923060	0.215610	0.610680	-0.682783
O17	O	0.639600	0.785110	0.451500	-0.639752
O18	O	0.505590	0.867660	0.473550	-0.673912
O19	O	0.423060	0.284390	0.389320	-0.682783
O20	O	0.139600	0.714890	0.548500	-0.639752
O21	O	0.005590	0.632340	0.526450	-0.673912
O22	O	0.076940	0.284390	0.610680	-0.682783
O23	O	0.360400	0.714890	0.451500	-0.639752
O24	O	0.494410	0.632340	0.473550	-0.673912
O25	O	0.250000	0.352540	0.500000	-1.275519
O26	O	0.750000	0.147460	0.500000	-1.275519
O27	O	0.750000	0.647460	0.500000	-1.275519
O28	O	0.250000	0.852540	0.500000	-1.275519
