data_KIFJUF_clean_PM
_symmetry_space_group_name_H-M	'P1'
_cell_length_a	9.821000
_cell_length_b	15.076000
_cell_length_c	16.555000
_cell_angle_alpha	111.209999
_cell_angle_beta	90.000000
_cell_angle_gamma	90.000000
_symmetry_Int_Tables_number 1

loop_
_symmetry_equiv_pos_as_xyz
'x,y,z'

loop_
_atom_site_label
_atom_site_type_symbol
_atom_site_fract_x
_atom_site_fract_y
_atom_site_fract_z
_atom_site_charge
Mg1	Mg	0.080920	0.345130	0.112780	1.066578
Mg2	Mg	0.580920	0.154870	0.387220	1.066578
Mg3	Mg	0.919080	0.654870	0.887220	1.066578
Mg4	Mg	0.419080	0.845130	0.612780	1.066578
Mg5	Mg	0.000000	0.500000	0.000000	1.105518
Mg6	Mg	0.500000	0.000000	0.500000	1.105518
H1	H	0.734900	0.326400	0.850200	0.117437
H2	H	0.621200	0.217000	0.731600	0.115105
H3	H	0.688000	0.012300	0.829700	0.104855
H4	H	0.808400	0.121300	0.945300	0.106221
H5	H	0.504800	0.510600	0.144300	0.117631
H6	H	0.306500	0.439100	0.913800	0.116378
H7	H	0.234900	0.173600	0.649800	0.117437
H8	H	0.121200	0.283000	0.768400	0.115105
H9	H	0.188000	0.487700	0.670300	0.104855
H10	H	0.308400	0.378700	0.554700	0.106221
H11	H	0.004800	0.989400	0.355700	0.117631
H12	H	0.806500	0.060900	0.586200	0.116378
H13	H	0.265100	0.673600	0.149800	0.117437
H14	H	0.378800	0.783000	0.268400	0.115105
H15	H	0.312000	0.987700	0.170300	0.104855
H16	H	0.191600	0.878700	0.054700	0.106221
H17	H	0.495200	0.489400	0.855700	0.117631
H18	H	0.693500	0.560900	0.086200	0.116378
H19	H	0.765100	0.826400	0.350200	0.117437
H20	H	0.878800	0.717000	0.231600	0.115105
H21	H	0.812000	0.512300	0.329700	0.104855
H22	H	0.691600	0.621300	0.445300	0.106221
H23	H	0.995200	0.010600	0.644300	0.117631
H24	H	0.193500	0.939100	0.413800	0.116378
C1	C	0.866100	0.305900	0.980700	0.464344
C2	C	0.783300	0.233800	0.908200	0.044475
C3	C	0.726800	0.262000	0.845800	-0.065273
C4	C	0.657200	0.196900	0.775400	-0.100437
C5	C	0.640700	0.103800	0.769200	0.048426
C6	C	0.697600	0.076300	0.833000	-0.090021
C7	C	0.769300	0.141400	0.902300	-0.079620
C8	C	0.567000	0.033400	0.690900	0.449748
C9	C	0.264000	0.439300	0.073800	0.439114
C10	C	0.386000	0.472300	0.036500	0.043441
C11	C	0.502500	0.506800	0.085800	-0.125358
C12	C	0.384200	0.464100	0.948800	-0.009355
C13	C	0.366100	0.194100	0.519300	0.464344
C14	C	0.283300	0.266200	0.591800	0.044475
C15	C	0.226800	0.238000	0.654200	-0.065273
C16	C	0.157200	0.303100	0.724600	-0.100437
C17	C	0.140700	0.396200	0.730800	0.048426
C18	C	0.197600	0.423700	0.667000	-0.090021
C19	C	0.269300	0.358600	0.597700	-0.079620
C20	C	0.067000	0.466600	0.809100	0.449748
C21	C	0.764000	0.060700	0.426200	0.439114
C22	C	0.886000	0.027700	0.463500	0.043441
C23	C	0.002500	0.993200	0.414200	-0.125358
C24	C	0.884200	0.035900	0.551200	-0.009355
C25	C	0.133900	0.694100	0.019300	0.464344
C26	C	0.216700	0.766200	0.091800	0.044475
C27	C	0.273200	0.738000	0.154200	-0.065273
C28	C	0.342800	0.803100	0.224600	-0.100437
C29	C	0.359300	0.896200	0.230800	0.048426
C30	C	0.302400	0.923700	0.167000	-0.090021
C31	C	0.230700	0.858600	0.097700	-0.079620
C32	C	0.433000	0.966600	0.309100	0.449748
C33	C	0.736000	0.560700	0.926200	0.439114
C34	C	0.614000	0.527700	0.963500	0.043441
C35	C	0.497500	0.493200	0.914200	-0.125358
C36	C	0.615800	0.535900	0.051200	-0.009355
C37	C	0.633900	0.805900	0.480700	0.464344
C38	C	0.716700	0.733800	0.408200	0.044475
C39	C	0.773200	0.762000	0.345800	-0.065273
C40	C	0.842800	0.696900	0.275400	-0.100437
C41	C	0.859300	0.603800	0.269200	0.048426
C42	C	0.802400	0.576300	0.333000	-0.090021
C43	C	0.730700	0.641400	0.402300	-0.079620
C44	C	0.933000	0.533400	0.190900	0.449748
C45	C	0.236000	0.939300	0.573800	0.439114
C46	C	0.114000	0.972300	0.536500	0.043441
C47	C	0.997500	0.006800	0.585800	-0.125358
C48	C	0.115800	0.964100	0.448800	-0.009355
O1	O	0.926800	0.274900	0.033160	-0.615936
O2	O	0.870000	0.388330	0.981980	-0.491015
O3	O	0.548700	0.060710	0.628200	-0.482439
O4	O	0.532700	0.954660	0.694610	-0.569034
O5	O	0.275500	0.423800	0.143830	-0.552110
O6	O	0.153900	0.419980	0.031660	-0.605912
O7	O	0.426800	0.225100	0.466840	-0.615936
O8	O	0.370000	0.111670	0.518020	-0.491015
O9	O	0.048700	0.439290	0.871800	-0.482439
O10	O	0.032700	0.545340	0.805390	-0.569034
O11	O	0.775500	0.076200	0.356170	-0.552110
O12	O	0.653900	0.080020	0.468340	-0.605912
O13	O	0.073200	0.725100	0.966840	-0.615936
O14	O	0.130000	0.611670	0.018020	-0.491015
O15	O	0.451300	0.939290	0.371800	-0.482439
O16	O	0.467300	0.045340	0.305390	-0.569034
O17	O	0.724500	0.576200	0.856170	-0.552110
O18	O	0.846100	0.580020	0.968340	-0.605912
O19	O	0.573200	0.774900	0.533160	-0.615936
O20	O	0.630000	0.888330	0.481980	-0.491015
O21	O	0.951300	0.560710	0.128200	-0.482439
O22	O	0.967300	0.454660	0.194610	-0.569034
O23	O	0.224500	0.923800	0.643830	-0.552110
O24	O	0.346100	0.919980	0.531660	-0.605912
