data_KINQAB_clean_PM
_symmetry_space_group_name_H-M	'P1'
_cell_length_a	9.071700
_cell_length_b	14.939900
_cell_length_c	15.642800
_cell_angle_alpha	118.523999
_cell_angle_beta	105.209003
_cell_angle_gamma	90.000001
_symmetry_Int_Tables_number 1

loop_
_symmetry_equiv_pos_as_xyz
'x,y,z'

loop_
_atom_site_label
_atom_site_type_symbol
_atom_site_fract_x
_atom_site_fract_y
_atom_site_fract_z
_atom_site_charge
Ni1	Ni	0.501660	0.758210	0.425420	1.020142
Ni2	Ni	0.498340	0.332790	0.574580	1.020142
H1	H	0.349000	0.959700	0.539400	0.077861
H2	H	0.410400	0.068500	0.721800	0.060508
H3	H	0.667600	0.844500	0.663600	0.056531
H4	H	0.232800	0.762700	0.533800	0.071916
H5	H	0.049300	0.610700	0.478400	0.061314
H6	H	0.341400	0.533800	0.318600	0.081385
H7	H	0.578500	0.917900	0.354400	0.092824
H8	H	0.993000	0.838700	0.359600	0.078916
H9	H	0.866500	0.749900	0.423400	0.050416
H10	H	0.693800	0.869700	0.824800	0.087647
H11	H	0.825400	0.936000	0.997000	0.089542
H12	H	0.712400	0.214900	0.056800	0.094347
H13	H	0.591400	0.151400	0.883600	0.090924
H14	H	0.614900	0.040200	0.146600	0.100698
H15	H	0.584300	0.950800	0.229400	0.092308
H16	H	0.045100	0.988400	0.346600	0.095715
H17	H	0.075700	0.077700	0.263600	0.090270
H18	H	0.887400	0.262700	0.335200	0.096634
H19	H	0.023200	0.430200	0.432600	0.095121
H20	H	0.156200	0.389000	0.191000	0.093202
H21	H	0.048300	0.219500	0.105600	0.099785
H22	H	0.108000	0.664800	0.152800	0.106775
H23	H	0.156000	0.777400	0.177200	0.112795
H24	H	0.173500	0.646800	0.009800	0.082590
H25	H	0.311300	0.612200	0.067200	0.124152
H26	H	0.312300	0.817100	0.106200	0.095673
H27	H	0.453300	0.774000	0.150000	0.128515
H28	H	0.373900	0.761000	0.959000	0.104040
H29	H	0.370600	0.648800	0.942200	0.113720
H30	H	0.651000	0.420300	0.460600	0.077861
H31	H	0.589600	0.346700	0.278200	0.060508
H32	H	0.332400	0.180900	0.336400	0.056532
H33	H	0.767200	0.228900	0.466200	0.071916
H34	H	0.950700	0.132300	0.521600	0.061314
H35	H	0.658600	0.215200	0.681400	0.081384
H36	H	0.421500	0.563500	0.645600	0.092824
H37	H	0.007000	0.479100	0.640400	0.078916
H38	H	0.133500	0.326500	0.576600	0.050416
H39	H	0.306200	0.044900	0.175200	0.087648
H40	H	0.174600	0.939000	0.003000	0.089541
H41	H	0.287600	0.158100	0.943200	0.094347
H42	H	0.408600	0.267800	0.116400	0.090923
H43	H	0.385100	0.893600	0.853400	0.100698
H44	H	0.415700	0.721400	0.770600	0.092308
H45	H	0.954900	0.641800	0.653400	0.095715
H46	H	0.924300	0.814100	0.736400	0.090271
H47	H	0.112600	0.927500	0.664800	0.096633
H48	H	0.976800	0.997600	0.567400	0.095121
H49	H	0.843800	0.198000	0.809000	0.093202
H50	H	0.951700	0.113900	0.894400	0.099785
H51	H	0.892000	0.512000	0.847200	0.106775
H52	H	0.844000	0.600200	0.822800	0.112796
H53	H	0.826500	0.637000	0.990200	0.082591
H54	H	0.688700	0.545000	0.932800	0.124152
H55	H	0.687700	0.710900	0.893800	0.095674
H56	H	0.546700	0.624000	0.850000	0.128515
H57	H	0.626100	0.802000	0.041000	0.104040
H58	H	0.629400	0.706600	0.057800	0.113720
C1	C	0.422900	0.951450	0.588100	0.068440
C2	C	0.454200	0.010460	0.687720	0.032613
C3	C	0.597600	0.887300	0.655400	0.155846
C4	C	0.231800	0.696300	0.482600	0.076788
C5	C	0.129900	0.612000	0.452400	0.044803
C6	C	0.290700	0.571930	0.366060	0.167596
C7	C	0.665900	0.887520	0.365040	0.174797
C8	C	0.894300	0.843660	0.366720	0.044651
C9	C	0.824400	0.795900	0.403000	0.050270
C10	C	0.320800	0.731310	0.260820	0.439985
C11	C	0.633800	0.006600	0.838200	0.118987
C12	C	0.701100	0.939250	0.870900	-0.125205
C13	C	0.779000	0.979260	0.974120	-0.087471
C14	C	0.788000	0.083620	0.043640	0.115997
C15	C	0.713100	0.146580	0.010160	-0.100704
C16	C	0.638200	0.108060	0.906320	-0.112714
C17	C	0.848300	0.067850	0.196940	0.113107
C18	C	0.701100	0.029830	0.186680	-0.084594
C19	C	0.682800	0.976250	0.236300	-0.133863
C20	C	0.811700	0.960700	0.296200	0.116793
C21	C	0.958900	0.998730	0.306460	-0.129786
C22	C	0.977200	0.052320	0.256840	-0.106087
C23	C	0.945400	0.224170	0.205940	0.121777
C24	C	0.942500	0.287930	0.306860	-0.127697
C25	C	0.022200	0.389300	0.365200	-0.080815
C26	C	0.098000	0.426670	0.321540	0.115815
C27	C	0.105100	0.363230	0.220860	-0.096113
C28	C	0.035100	0.263220	0.168840	-0.085775
C29	C	0.193600	0.713100	0.166000	-0.204420
C30	C	0.257000	0.669600	0.072400	-0.141339
C31	C	0.364000	0.756900	0.092000	-0.191968
C32	C	0.415000	0.720100	0.990200	-0.189308
C33	C	0.577100	0.363350	0.411900	0.068441
C34	C	0.545800	0.322740	0.312280	0.032613
C35	C	0.402400	0.231900	0.344600	0.155846
C36	C	0.768200	0.213700	0.517400	0.076788
C37	C	0.870100	0.159600	0.547600	0.044803
C38	C	0.709300	0.205870	0.633940	0.167597
C39	C	0.334100	0.522480	0.634960	0.174796
C40	C	0.105700	0.476940	0.633280	0.044650
C41	C	0.175600	0.392900	0.597000	0.050269
C42	C	0.679200	0.470490	0.739180	0.439988
C43	C	0.366200	0.168400	0.161800	0.118987
C44	C	0.298900	0.068350	0.129100	-0.125208
C45	C	0.221000	0.005140	0.025880	-0.087469
C46	C	0.212000	0.039980	0.956360	0.115997
C47	C	0.286900	0.136420	0.989840	-0.100707
C48	C	0.361800	0.201740	0.093680	-0.112711
C49	C	0.151700	0.870910	0.803060	0.113106
C50	C	0.298900	0.843150	0.813320	-0.084594
C51	C	0.317200	0.739950	0.763700	-0.133863
C52	C	0.188300	0.664500	0.703800	0.116791
C53	C	0.041100	0.692270	0.693540	-0.129784
C54	C	0.022800	0.795480	0.743160	-0.106088
C55	C	0.054600	0.018230	0.794060	0.121779
C56	C	0.057500	0.981070	0.693140	-0.127696
C57	C	0.977800	0.024100	0.634800	-0.080816
C58	C	0.902000	0.105130	0.678460	0.115816
C59	C	0.894900	0.142370	0.779140	-0.096112
C60	C	0.964900	0.094380	0.831160	-0.085776
C61	C	0.806400	0.547100	0.834000	-0.204422
C62	C	0.743000	0.597200	0.927600	-0.141339
C63	C	0.636000	0.664900	0.908000	-0.191969
C64	C	0.585000	0.729900	0.009800	-0.189308
N1	N	0.517700	0.875050	0.566900	-0.454081
N2	N	0.567400	0.967580	0.731960	-0.273473
N3	N	0.328200	0.668730	0.427660	-0.442742
N4	N	0.168800	0.531030	0.377660	-0.279782
N5	N	0.680700	0.825220	0.405040	-0.422071
N6	N	0.792900	0.900170	0.342740	-0.293725
N7	N	0.867500	0.124230	0.147860	-0.301366
N8	N	0.482300	0.308150	0.433100	-0.454083
N9	N	0.432600	0.235620	0.268040	-0.273472
N10	N	0.671800	0.241070	0.572340	-0.442743
N11	N	0.831200	0.153370	0.622340	-0.279783
N12	N	0.319300	0.420180	0.594960	-0.422069
N13	N	0.207100	0.557430	0.657260	-0.293724
N14	N	0.132500	0.976370	0.852140	-0.301366
O1	O	0.407000	0.666590	0.258980	-0.560893
O2	O	0.333000	0.811720	0.343040	-0.578538
O3	O	0.593000	0.407610	0.741020	-0.560893
O4	O	0.667000	0.468680	0.656960	-0.578537
