data_KOJCUI_PM
_symmetry_space_group_name_H-M	'P1'
_cell_length_a	7.524000
_cell_length_b	18.325900
_cell_length_c	25.300000
_cell_angle_alpha	90.000000
_cell_angle_beta	90.000000
_cell_angle_gamma	90.000000
_symmetry_Int_Tables_number 1

loop_
_symmetry_equiv_pos_as_xyz
'x,y,z'

loop_
_atom_site_label
_atom_site_type_symbol
_atom_site_fract_x
_atom_site_fract_y
_atom_site_fract_z
_atom_site_charge
Mn1	Mn	0.264480	0.900730	0.517130	-2.561064
Mn2	Mn	0.264480	0.099270	0.482870	-2.561064
Mn3	Mn	0.764480	0.099270	0.517130	-2.561064
Mn4	Mn	0.764480	0.900730	0.482870	-2.561064
Mn5	Mn	0.764480	0.400730	0.017130	-2.561064
Mn6	Mn	0.764480	0.599270	0.982870	-2.561064
Mn7	Mn	0.264480	0.599270	0.017130	-2.561064
Mn8	Mn	0.264480	0.400730	0.982870	-2.561064
H1	H	0.829700	0.722600	0.585100	0.163849
H2	H	0.829700	0.277400	0.414900	0.163849
H3	H	0.329700	0.277400	0.585100	0.163849
H4	H	0.329700	0.722600	0.414900	0.163849
H5	H	0.329700	0.222600	0.085100	0.163849
H6	H	0.329700	0.777400	0.914900	0.163849
H7	H	0.829700	0.777400	0.085100	0.163849
H8	H	0.829700	0.222600	0.914900	0.163849
H9	H	0.349300	0.761800	0.649600	0.128199
H10	H	0.349300	0.238200	0.350400	0.128199
H11	H	0.849300	0.238200	0.649600	0.128199
H12	H	0.849300	0.761800	0.350400	0.128199
H13	H	0.849300	0.261800	0.149600	0.128199
H14	H	0.849300	0.738200	0.850400	0.128199
H15	H	0.349300	0.738200	0.149600	0.128199
H16	H	0.349300	0.261800	0.850400	0.128199
H17	H	0.539400	0.661400	0.876200	0.166359
H18	H	0.539400	0.338600	0.123800	0.166359
H19	H	0.039400	0.338600	0.876200	0.166359
H20	H	0.039400	0.661400	0.123800	0.166359
H21	H	0.039400	0.161400	0.376200	0.166359
H22	H	0.039400	0.838600	0.623800	0.166359
H23	H	0.539400	0.838600	0.376200	0.166359
H24	H	0.539400	0.161400	0.623800	0.166359
H25	H	0.627200	0.674600	0.788400	0.131562
H26	H	0.627200	0.325400	0.211600	0.131562
H27	H	0.127200	0.325400	0.788400	0.131562
H28	H	0.127200	0.674600	0.211600	0.131562
H29	H	0.127200	0.174600	0.288400	0.131562
H30	H	0.127200	0.825400	0.711600	0.131562
H31	H	0.627200	0.825400	0.288400	0.131562
H32	H	0.627200	0.174600	0.711600	0.131562
H33	H	0.530700	0.459000	0.763000	0.128491
H34	H	0.530700	0.541000	0.237000	0.128491
H35	H	0.030700	0.541000	0.763000	0.128491
H36	H	0.030700	0.459000	0.237000	0.128491
H37	H	0.030700	0.959000	0.263000	0.128491
H38	H	0.030700	0.041000	0.737000	0.128491
H39	H	0.530700	0.041000	0.263000	0.128491
H40	H	0.530700	0.959000	0.737000	0.128491
H41	H	0.432200	0.447400	0.849500	0.144626
H42	H	0.432200	0.552600	0.150500	0.144626
H43	H	0.932200	0.552600	0.849500	0.144626
H44	H	0.932200	0.447400	0.150500	0.144626
H45	H	0.932200	0.947400	0.349500	0.144626
H46	H	0.932200	0.052600	0.650500	0.144626
H47	H	0.432200	0.052600	0.349500	0.144626
H48	H	0.432200	0.947400	0.650500	0.144626
H49	H	0.733000	0.536000	0.711000	0.232507
H50	H	0.733000	0.464000	0.289000	0.232507
H51	H	0.233000	0.464000	0.711000	0.232507
H52	H	0.233000	0.536000	0.289000	0.232507
H53	H	0.233000	0.036000	0.211000	0.232507
H54	H	0.233000	0.964000	0.789000	0.232507
H55	H	0.733000	0.964000	0.211000	0.232507
H56	H	0.733000	0.036000	0.789000	0.232507
C1	C	0.583400	0.751000	0.611000	0.002213
C2	C	0.583400	0.249000	0.389000	0.002213
C3	C	0.083400	0.249000	0.611000	0.002213
C4	C	0.083400	0.751000	0.389000	0.002213
C5	C	0.083400	0.251000	0.111000	0.002213
C6	C	0.083400	0.749000	0.889000	0.002213
C7	C	0.583400	0.749000	0.111000	0.002213
C8	C	0.583400	0.251000	0.889000	0.002213
C9	C	0.738500	0.710200	0.609500	-0.074831
C10	C	0.738500	0.289800	0.390500	-0.074831
C11	C	0.238500	0.289800	0.609500	-0.074831
C12	C	0.238500	0.710200	0.390500	-0.074831
C13	C	0.238500	0.210200	0.109500	-0.074831
C14	C	0.238500	0.789800	0.890500	-0.074831
C15	C	0.738500	0.789800	0.109500	-0.074831
C16	C	0.738500	0.210200	0.890500	-0.074831
C17	C	0.761300	0.651600	0.643400	0.080484
C18	C	0.761300	0.348400	0.356600	0.080484
C19	C	0.261300	0.348400	0.643400	0.080484
C20	C	0.261300	0.651600	0.356600	0.080484
C21	C	0.261300	0.151600	0.143400	0.080484
C22	C	0.261300	0.848400	0.856600	0.080484
C23	C	0.761300	0.848400	0.143400	0.080484
C24	C	0.761300	0.151600	0.856600	0.080484
C25	C	0.632500	0.630700	0.681300	0.128994
C26	C	0.632500	0.369300	0.318700	0.128994
C27	C	0.132500	0.369300	0.681300	0.128994
C28	C	0.132500	0.630700	0.318700	0.128994
C29	C	0.132500	0.130700	0.181300	0.128994
C30	C	0.132500	0.869300	0.818700	0.128994
C31	C	0.632500	0.869300	0.181300	0.128994
C32	C	0.632500	0.130700	0.818700	0.128994
C33	C	0.480000	0.676100	0.681500	0.090359
C34	C	0.480000	0.323900	0.318500	0.090359
C35	C	0.980000	0.323900	0.681500	0.090359
C36	C	0.980000	0.676100	0.318500	0.090359
C37	C	0.980000	0.176100	0.181500	0.090359
C38	C	0.980000	0.823900	0.818500	0.090359
C39	C	0.480000	0.823900	0.181500	0.090359
C40	C	0.480000	0.176100	0.818500	0.090359
C41	C	0.455200	0.733700	0.647700	-0.067329
C42	C	0.455200	0.266300	0.352300	-0.067329
C43	C	0.955200	0.266300	0.647700	-0.067329
C44	C	0.955200	0.733700	0.352300	-0.067329
C45	C	0.955200	0.233700	0.147700	-0.067329
C46	C	0.955200	0.766300	0.852300	-0.067329
C47	C	0.455200	0.766300	0.147700	-0.067329
C48	C	0.455200	0.233700	0.852300	-0.067329
C49	C	0.553800	0.810900	0.570700	0.297889
C50	C	0.553800	0.189100	0.429300	0.297889
C51	C	0.053800	0.189100	0.570700	0.297889
C52	C	0.053800	0.810900	0.429300	0.297889
C53	C	0.053800	0.310900	0.070700	0.297889
C54	C	0.053800	0.689100	0.929300	0.297889
C55	C	0.553800	0.689100	0.070700	0.297889
C56	C	0.553800	0.310900	0.929300	0.297889
C57	C	0.479200	0.553100	0.872090	0.040282
C58	C	0.479200	0.446900	0.127910	0.040282
C59	C	0.979200	0.446900	0.872090	0.040282
C60	C	0.979200	0.553100	0.127910	0.040282
C61	C	0.979200	0.053100	0.372090	0.040282
C62	C	0.979200	0.946900	0.627910	0.040282
C63	C	0.479200	0.946900	0.372090	0.040282
C64	C	0.479200	0.053100	0.627910	0.040282
C65	C	0.536800	0.620400	0.853200	0.017200
C66	C	0.536800	0.379600	0.146800	0.017200
C67	C	0.036800	0.379600	0.853200	0.017200
C68	C	0.036800	0.620400	0.146800	0.017200
C69	C	0.036800	0.120400	0.353200	0.017200
C70	C	0.036800	0.879600	0.646800	0.017200
C71	C	0.536800	0.879600	0.353200	0.017200
C72	C	0.536800	0.120400	0.646800	0.017200
C73	C	0.590300	0.628200	0.801100	-0.118607
C74	C	0.590300	0.371800	0.198900	-0.118607
C75	C	0.090300	0.371800	0.801100	-0.118607
C76	C	0.090300	0.628200	0.198900	-0.118607
C77	C	0.090300	0.128200	0.301100	-0.118607
C78	C	0.090300	0.871800	0.698900	-0.118607
C79	C	0.590300	0.871800	0.301100	-0.118607
C80	C	0.590300	0.128200	0.698900	-0.118607
C81	C	0.590200	0.567900	0.766940	0.133607
C82	C	0.590200	0.432100	0.233060	0.133607
C83	C	0.090200	0.432100	0.766940	0.133607
C84	C	0.090200	0.567900	0.233060	0.133607
C85	C	0.090200	0.067900	0.266940	0.133607
C86	C	0.090200	0.932100	0.733060	0.133607
C87	C	0.590200	0.932100	0.266940	0.133607
C88	C	0.590200	0.067900	0.733060	0.133607
C89	C	0.531500	0.500200	0.785830	-0.074236
C90	C	0.531500	0.499800	0.214170	-0.074236
C91	C	0.031500	0.499800	0.785830	-0.074236
C92	C	0.031500	0.500200	0.214170	-0.074236
C93	C	0.031500	0.000200	0.285830	-0.074236
C94	C	0.031500	0.999800	0.714170	-0.074236
C95	C	0.531500	0.999800	0.285830	-0.074236
C96	C	0.531500	0.000200	0.714170	-0.074236
C97	C	0.474800	0.493200	0.837310	-0.087891
C98	C	0.474800	0.506800	0.162690	-0.087891
C99	C	0.974800	0.506800	0.837310	-0.087891
C100	C	0.974800	0.493200	0.162690	-0.087891
C101	C	0.974800	0.993200	0.337310	-0.087891
C102	C	0.974800	0.006800	0.662690	-0.087891
C103	C	0.474800	0.006800	0.337310	-0.087891
C104	C	0.474800	0.993200	0.662690	-0.087891
C105	C	0.421500	0.544800	0.926690	0.494773
C106	C	0.421500	0.455200	0.073310	0.494773
C107	C	0.921500	0.455200	0.926690	0.494773
C108	C	0.921500	0.544800	0.073310	0.494773
C109	C	0.921500	0.044800	0.426690	0.494773
C110	C	0.921500	0.955200	0.573310	0.494773
C111	C	0.421500	0.955200	0.426690	0.494773
C112	C	0.421500	0.044800	0.573310	0.494773
N1	N	0.926700	0.609900	0.637700	0.027637
N2	N	0.926700	0.390100	0.362300	0.027637
N3	N	0.426700	0.390100	0.637700	0.027637
N4	N	0.426700	0.609900	0.362300	0.027637
N5	N	0.426700	0.109900	0.137700	0.027637
N6	N	0.426700	0.890100	0.862300	0.027637
N7	N	0.926700	0.890100	0.137700	0.027637
N8	N	0.926700	0.109900	0.862300	0.027637
N9	N	0.323200	0.655900	0.713400	0.053345
N10	N	0.323200	0.344100	0.286600	0.053345
N11	N	0.823200	0.344100	0.713400	0.053345
N12	N	0.823200	0.655900	0.286600	0.053345
N13	N	0.823200	0.155900	0.213400	0.053345
N14	N	0.823200	0.844100	0.786600	0.053345
N15	N	0.323200	0.844100	0.213400	0.053345
N16	N	0.323200	0.155900	0.786600	0.053345
N17	N	0.655800	0.573400	0.715400	-0.360405
N18	N	0.655800	0.426600	0.284600	-0.360405
N19	N	0.155800	0.426600	0.715400	-0.360405
N20	N	0.155800	0.573400	0.284600	-0.360405
N21	N	0.155800	0.073400	0.215400	-0.360405
N22	N	0.155800	0.926600	0.784600	-0.360405
N23	N	0.655800	0.926600	0.215400	-0.360405
N24	N	0.655800	0.073400	0.784600	-0.360405
O1	O	0.055700	0.643900	0.620500	-0.106580
O2	O	0.055700	0.356100	0.379500	-0.106580
O3	O	0.555700	0.356100	0.620500	-0.106580
O4	O	0.555700	0.643900	0.379500	-0.106580
O5	O	0.555700	0.143900	0.120500	-0.106580
O6	O	0.555700	0.856100	0.879500	-0.106580
O7	O	0.055700	0.856100	0.120500	-0.106580
O8	O	0.055700	0.143900	0.879500	-0.106580
O9	O	0.930200	0.546900	0.651000	-0.112395
O10	O	0.930200	0.453100	0.349000	-0.112395
O11	O	0.430200	0.453100	0.651000	-0.112395
O12	O	0.430200	0.546900	0.349000	-0.112395
O13	O	0.430200	0.046900	0.151000	-0.112395
O14	O	0.430200	0.953100	0.849000	-0.112395
O15	O	0.930200	0.953100	0.151000	-0.112395
O16	O	0.930200	0.046900	0.849000	-0.112395
O17	O	0.278800	0.592500	0.714100	-0.161201
O18	O	0.278800	0.407500	0.285900	-0.161201
O19	O	0.778800	0.407500	0.714100	-0.161201
O20	O	0.778800	0.592500	0.285900	-0.161201
O21	O	0.778800	0.092500	0.214100	-0.161201
O22	O	0.778800	0.907500	0.785900	-0.161201
O23	O	0.278800	0.907500	0.214100	-0.161201
O24	O	0.278800	0.092500	0.785900	-0.161201
O25	O	0.246100	0.705100	0.736300	-0.230657
O26	O	0.246100	0.294900	0.263700	-0.230657
O27	O	0.746100	0.294900	0.736300	-0.230657
O28	O	0.746100	0.705100	0.263700	-0.230657
O29	O	0.746100	0.205100	0.236300	-0.230657
O30	O	0.746100	0.794900	0.763700	-0.230657
O31	O	0.246100	0.794900	0.236300	-0.230657
O32	O	0.246100	0.205100	0.763700	-0.230657
O33	O	0.401000	0.838300	0.571000	0.272481
O34	O	0.401000	0.161700	0.429000	0.272481
O35	O	0.901000	0.161700	0.571000	0.272481
O36	O	0.901000	0.838300	0.429000	0.272481
O37	O	0.901000	0.338300	0.071000	0.272481
O38	O	0.901000	0.661700	0.929000	0.272481
O39	O	0.401000	0.661700	0.071000	0.272481
O40	O	0.401000	0.338300	0.929000	0.272481
O41	O	0.678500	0.826900	0.540600	0.294757
O42	O	0.678500	0.173100	0.459400	0.294757
O43	O	0.178500	0.173100	0.540600	0.294757
O44	O	0.178500	0.826900	0.459400	0.294757
O45	O	0.178500	0.326900	0.040600	0.294757
O46	O	0.178500	0.673100	0.959400	0.294757
O47	O	0.678500	0.673100	0.040600	0.294757
O48	O	0.678500	0.326900	0.959400	0.294757
O49	O	0.490400	0.585600	0.962400	0.542275
O50	O	0.490400	0.414400	0.037600	0.542275
O51	O	0.990400	0.414400	0.962400	0.542275
O52	O	0.990400	0.585600	0.037600	0.542275
O53	O	0.990400	0.085600	0.462400	0.542275
O54	O	0.990400	0.914400	0.537600	0.542275
O55	O	0.490400	0.914400	0.462400	0.542275
O56	O	0.490400	0.085600	0.537600	0.542275
O57	O	0.298800	0.501000	0.938670	0.383306
O58	O	0.298800	0.499000	0.061330	0.383306
O59	O	0.798800	0.499000	0.938670	0.383306
O60	O	0.798800	0.501000	0.061330	0.383306
O61	O	0.798800	0.001000	0.438670	0.383306
O62	O	0.798800	0.999000	0.561330	0.383306
O63	O	0.298800	0.999000	0.438670	0.383306
O64	O	0.298800	0.001000	0.561330	0.383306
