data_LASWIN_clean_PM
_symmetry_space_group_name_H-M	'P1'
_cell_length_a	10.253700
_cell_length_b	10.932000
_cell_length_c	13.338300
_cell_angle_alpha	90.000000
_cell_angle_beta	90.000000
_cell_angle_gamma	113.148998
_symmetry_Int_Tables_number 1

loop_
_symmetry_equiv_pos_as_xyz
'x,y,z'

loop_
_atom_site_label
_atom_site_type_symbol
_atom_site_fract_x
_atom_site_fract_y
_atom_site_fract_z
_atom_site_charge
Co1	Co	0.288650	0.512230	0.163230	1.226930
Co2	Co	0.211350	0.987770	0.663230	1.226930
Co3	Co	0.711350	0.487770	0.836770	1.226930
Co4	Co	0.788650	0.012230	0.336770	1.226930
H1	H	0.155200	0.684600	0.417600	0.148294
H2	H	0.991600	0.315600	0.119300	0.130083
H3	H	0.870700	0.108700	0.056900	0.106025
H4	H	0.239000	0.083200	0.997500	0.107794
H5	H	0.350800	0.295500	0.053700	0.082610
H6	H	0.344800	0.815400	0.917600	0.148294
H7	H	0.508400	0.184400	0.619300	0.130083
H8	H	0.629300	0.391300	0.556900	0.106025
H9	H	0.261000	0.416800	0.497500	0.107794
H10	H	0.149200	0.204500	0.553700	0.082610
H11	H	0.844800	0.315400	0.582400	0.148294
H12	H	0.008400	0.684400	0.880700	0.130083
H13	H	0.129300	0.891300	0.943100	0.106025
H14	H	0.761000	0.916800	0.002500	0.107794
H15	H	0.649200	0.704500	0.946300	0.082610
H16	H	0.655200	0.184600	0.082400	0.148294
H17	H	0.491600	0.815600	0.380700	0.130083
H18	H	0.370700	0.608700	0.443100	0.106025
H19	H	0.739000	0.583200	0.502500	0.107794
H20	H	0.850800	0.795500	0.446300	0.082610
C1	C	0.117600	0.481100	0.304300	0.423872
C2	C	0.047800	0.488000	0.403230	0.051996
C3	C	0.952400	0.375700	0.453310	0.050428
C4	C	0.894500	0.241300	0.404300	0.417071
C5	C	0.092600	0.609700	0.450850	-0.116858
C6	C	0.042800	0.269000	0.093400	0.123715
C7	C	0.969300	0.143600	0.056500	-0.082989
C8	C	0.038600	0.068400	0.019100	0.035420
C9	C	0.185500	0.129100	0.020600	-0.058220
C10	C	0.252200	0.256600	0.056200	0.092705
C11	C	0.382400	0.018900	0.804300	0.423872
C12	C	0.452200	0.012000	0.903230	0.051996
C13	C	0.547600	0.124300	0.953310	0.050428
C14	C	0.605500	0.258700	0.904300	0.417071
C15	C	0.407400	0.890300	0.950850	-0.116858
C16	C	0.457200	0.231000	0.593400	0.123715
C17	C	0.530700	0.356400	0.556500	-0.082989
C18	C	0.461400	0.431600	0.519100	0.035420
C19	C	0.314500	0.370900	0.520600	-0.058220
C20	C	0.247800	0.243400	0.556200	0.092705
C21	C	0.882400	0.518900	0.695700	0.423872
C22	C	0.952200	0.512000	0.596770	0.051996
C23	C	0.047600	0.624300	0.546690	0.050428
C24	C	0.105500	0.758700	0.595700	0.417071
C25	C	0.907400	0.390300	0.549150	-0.116858
C26	C	0.957200	0.731000	0.906600	0.123715
C27	C	0.030700	0.856400	0.943500	-0.082989
C28	C	0.961400	0.931600	0.980900	0.035420
C29	C	0.814500	0.870900	0.979400	-0.058220
C30	C	0.747800	0.743400	0.943800	0.092705
C31	C	0.617600	0.981100	0.195700	0.423872
C32	C	0.547800	0.988000	0.096770	0.051996
C33	C	0.452400	0.875700	0.046690	0.050428
C34	C	0.394500	0.741300	0.095700	0.417071
C35	C	0.592600	0.109700	0.049150	-0.116858
C36	C	0.542800	0.769000	0.406600	0.123715
C37	C	0.469300	0.643600	0.443500	-0.082989
C38	C	0.538600	0.568400	0.480900	0.035420
C39	C	0.685500	0.629100	0.479400	-0.058220
C40	C	0.752200	0.756600	0.443800	0.092705
N1	N	0.184200	0.328000	0.093970	-0.462997
N2	N	0.315800	0.172000	0.593970	-0.462997
N3	N	0.815800	0.672000	0.906030	-0.462997
N4	N	0.684200	0.828000	0.406030	-0.462997
O1	O	0.209290	0.431990	0.306300	-0.632339
O2	O	0.096510	0.534910	0.227460	-0.480982
O3	O	0.898030	0.231630	0.310970	-0.517635
O4	O	0.840950	0.139750	0.458400	-0.644924
O5	O	0.290710	0.068010	0.806300	-0.632339
O6	O	0.403490	0.965090	0.727460	-0.480982
O7	O	0.601970	0.268370	0.810970	-0.517635
O8	O	0.659050	0.360250	0.958400	-0.644924
O9	O	0.790710	0.568010	0.693700	-0.632339
O10	O	0.903490	0.465090	0.772540	-0.480982
O11	O	0.101970	0.768370	0.689030	-0.517635
O12	O	0.159050	0.860250	0.541600	-0.644924
O13	O	0.709290	0.931990	0.193700	-0.632339
O14	O	0.596510	0.034910	0.272540	-0.480982
O15	O	0.398030	0.731630	0.189030	-0.517635
O16	O	0.340950	0.639750	0.041600	-0.644924
