data_LEVYOC_clean_PM
_symmetry_space_group_name_H-M	'P1'
_cell_length_a	8.017300
_cell_length_b	15.505200
_cell_length_c	18.323200
_cell_angle_alpha	74.631100
_cell_angle_beta	77.362898
_cell_angle_gamma	75.016798
_symmetry_Int_Tables_number 1

loop_
_symmetry_equiv_pos_as_xyz
'x,y,z'

loop_
_atom_site_label
_atom_site_type_symbol
_atom_site_fract_x
_atom_site_fract_y
_atom_site_fract_z
_atom_site_charge
Co1	Co	0.145220	0.873240	0.897600	1.429036
Co2	Co	0.822030	0.978060	0.993540	1.543736
Co3	Co	0.882740	0.748850	0.986830	1.474200
Co4	Co	0.916060	0.626760	0.602400	1.429117
Co5	Co	0.793630	0.521940	0.506460	1.543940
Co6	Co	0.618420	0.751150	0.513170	1.474458
Co7	Co	0.854780	0.126760	0.102400	1.429036
Co8	Co	0.177970	0.021940	0.006460	1.543736
Co9	Co	0.117260	0.251150	0.013170	1.474200
Co10	Co	0.083940	0.373240	0.397600	1.429117
Co11	Co	0.206370	0.478060	0.493540	1.543940
Co12	Co	0.381580	0.248850	0.486830	1.474458
H1	H	0.042400	0.821800	0.047600	0.593145
H2	H	0.045200	0.055000	0.878600	0.453860
H3	H	0.501900	0.725000	0.865800	0.270362
H4	H	0.671900	0.691600	0.895000	0.247367
H5	H	0.514700	0.944000	0.085200	0.263492
H6	H	0.642600	0.858400	0.100200	0.277681
H7	H	0.595900	0.325100	0.249300	0.141717
H8	H	0.888800	0.489400	0.099400	0.152714
H9	H	0.565100	0.576300	0.278900	0.140000
H10	H	0.911800	0.678200	0.452400	0.593519
H11	H	0.978800	0.445000	0.621400	0.454011
H12	H	0.092700	0.775000	0.634200	0.270523
H13	H	0.258500	0.808400	0.605000	0.247274
H14	H	0.543900	0.556000	0.414800	0.263695
H15	H	0.601200	0.641600	0.399800	0.277750
H16	H	0.170300	0.174900	0.250700	0.141271
H17	H	0.477600	0.010600	0.400600	0.152683
H18	H	0.420300	0.923700	0.221100	0.140009
H19	H	0.957600	0.178200	0.952400	0.593145
H20	H	0.954800	0.945000	0.121400	0.453860
H21	H	0.498100	0.275000	0.134200	0.270362
H22	H	0.328100	0.308400	0.105000	0.247367
H23	H	0.485300	0.056000	0.914800	0.263492
H24	H	0.357400	0.141600	0.899800	0.277681
H25	H	0.404100	0.674900	0.750700	0.141717
H26	H	0.111200	0.510600	0.900600	0.152714
H27	H	0.434900	0.423700	0.721100	0.140000
H28	H	0.088200	0.321800	0.547600	0.593519
H29	H	0.021200	0.555000	0.378600	0.454011
H30	H	0.907300	0.225000	0.365800	0.270523
H31	H	0.741500	0.191600	0.395000	0.247274
H32	H	0.456100	0.444000	0.585200	0.263695
H33	H	0.398800	0.358400	0.600200	0.277750
H34	H	0.829700	0.825100	0.749300	0.141271
H35	H	0.522400	0.989400	0.599400	0.152683
H36	H	0.579700	0.076300	0.778900	0.140009
C1	C	0.519480	0.790540	0.939700	0.362706
C2	C	0.528870	0.868560	0.017100	0.365619
C3	C	0.560480	0.448240	0.275600	0.044763
C4	C	0.631360	0.380580	0.233500	-0.074800
C5	C	0.755290	0.396220	0.167800	0.042497
C6	C	0.806670	0.478860	0.143400	-0.042192
C7	C	0.734600	0.546200	0.185200	0.044016
C8	C	0.612160	0.530880	0.251200	-0.085590
C9	C	0.428810	0.431180	0.347000	0.473190
C10	C	0.840760	0.322280	0.124200	0.513529
C11	C	0.249720	0.709460	0.560300	0.362534
C12	C	0.414530	0.631440	0.482900	0.365878
C13	C	0.284320	0.051760	0.224400	0.044687
C14	C	0.245440	0.119420	0.266500	-0.073600
C15	C	0.319310	0.103780	0.332200	0.041876
C16	C	0.428930	0.021140	0.356600	-0.041757
C17	C	0.466000	0.953800	0.314800	0.044068
C18	C	0.394240	0.969120	0.248800	-0.085725
C19	C	0.206990	0.068820	0.153000	0.472862
C20	C	0.287240	0.177720	0.375800	0.513693
C21	C	0.480520	0.209460	0.060300	0.362706
C22	C	0.471130	0.131440	0.982900	0.365619
C23	C	0.439520	0.551760	0.724400	0.044763
C24	C	0.368640	0.619420	0.766500	-0.074800
C25	C	0.244710	0.603780	0.832200	0.042497
C26	C	0.193330	0.521140	0.856600	-0.042192
C27	C	0.265400	0.453800	0.814800	0.044016
C28	C	0.387840	0.469120	0.748800	-0.085590
C29	C	0.571190	0.568820	0.653000	0.473190
C30	C	0.159240	0.677720	0.875800	0.513529
C31	C	0.750280	0.290540	0.439700	0.362534
C32	C	0.585470	0.368560	0.517100	0.365878
C33	C	0.715680	0.948240	0.775600	0.044687
C34	C	0.754560	0.880580	0.733500	-0.073600
C35	C	0.680690	0.896220	0.667800	0.041876
C36	C	0.571070	0.978860	0.643400	-0.041757
C37	C	0.534000	0.046200	0.685200	0.044068
C38	C	0.605760	0.030880	0.751200	-0.085725
C39	C	0.793010	0.931180	0.847000	0.472862
C40	C	0.712760	0.822280	0.624200	0.513693
S1	S	0.819600	0.645700	0.162540	0.468478
S2	S	0.627840	0.854300	0.337460	0.468103
S3	S	0.180400	0.354300	0.837460	0.468478
S4	S	0.372160	0.145700	0.662540	0.468103
N1	N	0.373550	0.900850	0.996050	-0.283072
N2	N	0.367450	0.849760	0.943740	-0.308160
N3	N	0.626350	0.798850	0.984450	-0.455635
N4	N	0.570670	0.728060	0.894600	-0.582951
N5	N	0.600000	0.904210	0.062790	-0.661036
N6	N	0.270450	0.599150	0.503950	-0.283298
N7	N	0.160950	0.650240	0.556260	-0.307937
N8	N	0.409650	0.701150	0.515550	-0.455714
N9	N	0.193330	0.771940	0.605400	-0.582753
N10	N	0.567000	0.595790	0.437210	-0.661439
N11	N	0.626450	0.099150	0.003950	-0.283072
N12	N	0.632550	0.150240	0.056260	-0.308160
N13	N	0.373650	0.201150	0.015550	-0.455635
N14	N	0.429330	0.271940	0.105400	-0.582951
N15	N	0.400000	0.095790	0.937210	-0.661036
N16	N	0.729550	0.400850	0.496050	-0.283298
N17	N	0.839050	0.349760	0.443740	-0.307937
N18	N	0.590350	0.298850	0.484450	-0.455714
N19	N	0.806670	0.228060	0.394600	-0.582753
N20	N	0.433000	0.404210	0.562790	-0.661439
O1	O	0.396900	0.483780	0.392220	-0.636447
O2	O	0.360920	0.363250	0.358110	-0.620736
O3	O	0.767980	0.256790	0.133850	-0.666494
O4	O	0.984170	0.332310	0.080550	-0.695508
O5	O	0.934960	0.627930	0.217550	-0.249542
O6	O	0.916950	0.649600	0.084100	-0.544348
O7	O	0.677190	0.722540	0.167680	-0.295838
O8	O	0.980790	0.842030	0.003390	-1.758767
O9	O	0.058140	0.003650	0.923070	-1.341008
O10	O	0.272900	0.016220	0.107780	-0.636554
O11	O	0.082280	0.136750	0.141890	-0.620549
O12	O	0.158620	0.243210	0.366150	-0.666800
O13	O	0.397030	0.167690	0.419450	-0.695487
O14	O	0.780440	0.872070	0.282450	-0.249413
O15	O	0.650650	0.850400	0.415900	-0.544375
O16	O	0.567410	0.777460	0.332320	-0.295617
O17	O	0.826210	0.657970	0.496610	-1.759787
O18	O	0.984860	0.496350	0.576930	-1.341128
O19	O	0.603100	0.516220	0.607780	-0.636447
O20	O	0.639080	0.636750	0.641890	-0.620736
O21	O	0.232020	0.743210	0.866150	-0.666494
O22	O	0.015830	0.667690	0.919450	-0.695508
O23	O	0.065040	0.372070	0.782450	-0.249542
O24	O	0.083050	0.350400	0.915900	-0.544348
O25	O	0.322810	0.277460	0.832320	-0.295838
O26	O	0.019210	0.157970	0.996610	-1.758767
O27	O	0.941860	0.996350	0.076930	-1.341008
O28	O	0.727100	0.983780	0.892220	-0.636554
O29	O	0.917720	0.863250	0.858110	-0.620549
O30	O	0.841380	0.756790	0.633850	-0.666800
O31	O	0.602970	0.832310	0.580550	-0.695487
O32	O	0.219560	0.127930	0.717550	-0.249413
O33	O	0.349350	0.149600	0.584100	-0.544375
O34	O	0.432590	0.222540	0.667680	-0.295617
O35	O	0.173790	0.342030	0.503390	-1.759787
O36	O	0.015140	0.503650	0.423070	-1.341128
