data_MIL-53Crlt_PM
_symmetry_space_group_name_H-M	'P1'
_cell_length_a	6.782000
_cell_length_b	7.849000
_cell_length_c	10.596061
_cell_angle_alpha	111.738652
_cell_angle_beta	103.818458
_cell_angle_gamma	90.000000
_symmetry_Int_Tables_number 1

loop_
_symmetry_equiv_pos_as_xyz
'x,y,z'

loop_
_atom_site_label
_atom_site_type_symbol
_atom_site_fract_x
_atom_site_fract_y
_atom_site_fract_z
_atom_site_charge
Cr1	Cr	0.000000	0.000000	0.000000	-2.420066
Cr2	Cr	0.500000	0.000000	0.000000	-2.420066
H1	H	0.250000	0.250000	0.000000	0.319686
H2	H	0.750000	0.750000	0.000000	0.319686
H3	H	0.297010	0.183840	0.682980	0.109634
H4	H	0.202990	0.500860	0.317020	0.109634
H5	H	0.702990	0.816160	0.317020	0.109634
H6	H	0.797010	0.499140	0.682980	0.109634
H7	H	0.130370	0.071420	0.418140	0.114747
H8	H	0.369630	0.653280	0.581860	0.114747
H9	H	0.869630	0.928580	0.581860	0.114747
H10	H	0.630370	0.346720	0.418140	0.114747
C1	C	0.170000	0.699000	0.778000	0.218547
C2	C	0.330000	0.921000	0.222000	0.218547
C3	C	0.830000	0.301000	0.222000	0.218547
C4	C	0.670000	0.079000	0.778000	0.218547
C5	C	0.382000	0.098000	0.604000	-0.042002
C6	C	0.118000	0.494000	0.396000	-0.042002
C7	C	0.618000	0.902000	0.396000	-0.042002
C8	C	0.882000	0.506000	0.604000	-0.042002
C9	C	0.296000	0.049000	0.458000	-0.100723
C10	C	0.204000	0.591000	0.542000	-0.100723
C11	C	0.704000	0.951000	0.542000	-0.100723
C12	C	0.796000	0.409000	0.458000	-0.100723
C13	C	0.579000	0.026000	0.632000	0.019751
C14	C	0.921000	0.394000	0.368000	0.019751
C15	C	0.421000	0.974000	0.368000	0.019751
C16	C	0.079000	0.606000	0.632000	0.019751
O1	O	0.250000	0.113000	0.000000	0.521573
O2	O	0.750000	0.887000	0.000000	0.521573
O3	O	0.055000	0.766000	0.864000	0.262228
O4	O	0.445000	0.902000	0.136000	0.262228
O5	O	0.945000	0.234000	0.136000	0.262228
O6	O	0.555000	0.098000	0.864000	0.262228
O7	O	0.348000	0.772000	0.826000	0.207222
O8	O	0.152000	0.946000	0.174000	0.207222
O9	O	0.652000	0.228000	0.174000	0.207222
O10	O	0.848000	0.054000	0.826000	0.207222
