data_NABMUA01_clean_PM
_symmetry_space_group_name_H-M	'P1'
_cell_length_a	11.479900
_cell_length_b	11.479900
_cell_length_c	14.735000
_cell_angle_alpha	90.000000
_cell_angle_beta	90.000000
_cell_angle_gamma	120.000000
_symmetry_Int_Tables_number 1

loop_
_symmetry_equiv_pos_as_xyz
'x,y,z'

loop_
_atom_site_label
_atom_site_type_symbol
_atom_site_fract_x
_atom_site_fract_y
_atom_site_fract_z
_atom_site_charge
Mg1	Mg	0.806200	0.193810	0.750000	1.083802
Mg2	Mg	0.387610	0.193810	0.416670	1.083793
Mg3	Mg	0.806200	0.612400	0.083330	1.083793
Mg4	Mg	0.193810	0.806200	0.250000	1.083801
Mg5	Mg	0.612390	0.806190	0.916670	1.083794
Mg6	Mg	0.193810	0.387610	0.583330	1.083794
H1	H	0.795000	0.362500	0.985500	0.112788
H2	H	0.567500	0.205000	0.652170	0.112797
H3	H	0.637500	0.432500	0.318830	0.112789
H4	H	0.205000	0.637500	0.485500	0.112786
H5	H	0.432500	0.795000	0.152170	0.112796
H6	H	0.362500	0.567500	0.818830	0.112788
H7	H	0.432500	0.637500	0.681170	0.112788
H8	H	0.362500	0.795000	0.014500	0.112786
H9	H	0.205000	0.567500	0.347830	0.112798
H10	H	0.567500	0.362500	0.181170	0.112789
H11	H	0.637500	0.205000	0.514500	0.112785
H12	H	0.795000	0.432500	0.847830	0.112797
H13	H	0.506500	0.013000	0.083330	0.129027
H14	H	0.506500	0.493500	0.750000	0.129137
H15	H	0.987000	0.493500	0.416670	0.129026
H16	H	0.493500	0.987000	0.583330	0.129026
H17	H	0.493500	0.506500	0.250000	0.129138
H18	H	0.013000	0.506500	0.916670	0.129027
C1	C	0.681890	0.102400	0.945840	0.463597
C2	C	0.652810	0.176320	0.019200	0.018565
C3	C	0.722830	0.315190	0.024740	0.075569
C4	C	0.420510	0.318110	0.612510	0.463671
C5	C	0.523510	0.347190	0.685870	0.018626
C6	C	0.592360	0.277170	0.691410	0.075563
C7	C	0.897600	0.579490	0.279170	0.463685
C8	C	0.823680	0.476490	0.352530	0.018575
C9	C	0.684810	0.407640	0.358070	0.075540
C10	C	0.318110	0.897600	0.445840	0.463601
C11	C	0.347190	0.823680	0.519200	0.018565
C12	C	0.277170	0.684810	0.524740	0.075571
C13	C	0.579490	0.681890	0.112510	0.463676
C14	C	0.476490	0.652810	0.185870	0.018629
C15	C	0.407640	0.722830	0.191410	0.075566
C16	C	0.102400	0.420510	0.779170	0.463712
C17	C	0.176320	0.523510	0.852530	0.018573
C18	C	0.315190	0.592360	0.858070	0.075540
C19	C	0.579490	0.897600	0.720830	0.463670
C20	C	0.476490	0.823680	0.647470	0.018574
C21	C	0.407640	0.684810	0.641930	0.075539
C22	C	0.102400	0.681890	0.054160	0.463604
C23	C	0.176320	0.652810	0.980800	0.018563
C24	C	0.315190	0.722830	0.975260	0.075571
C25	C	0.318110	0.420510	0.387490	0.463683
C26	C	0.347190	0.523510	0.314130	0.018630
C27	C	0.277170	0.592360	0.308590	0.075565
C28	C	0.420510	0.102400	0.220830	0.463694
C29	C	0.523510	0.176320	0.147470	0.018574
C30	C	0.592360	0.315190	0.141930	0.075539
C31	C	0.897600	0.318110	0.554160	0.463599
C32	C	0.823680	0.347190	0.480800	0.018565
C33	C	0.684810	0.277170	0.475260	0.075571
C34	C	0.681890	0.579490	0.887490	0.463702
C35	C	0.652810	0.476490	0.814130	0.018628
C36	C	0.722830	0.407640	0.808590	0.075566
C37	C	0.553320	0.106640	0.083330	-0.053340
C38	C	0.553320	0.446680	0.750000	-0.053539
C39	C	0.893360	0.446680	0.416670	-0.053342
C40	C	0.446680	0.893360	0.583330	-0.053341
C41	C	0.446680	0.553320	0.250000	-0.053549
C42	C	0.106640	0.553320	0.916670	-0.053330
N1	N	0.692870	0.385740	0.083330	-0.300368
N2	N	0.692870	0.307130	0.750000	-0.300397
N3	N	0.614260	0.307130	0.416670	-0.300392
N4	N	0.307130	0.614260	0.583330	-0.300390
N5	N	0.307130	0.692870	0.250000	-0.300399
N6	N	0.385740	0.692870	0.916670	-0.300389
O1	O	0.772690	0.172050	0.890060	-0.548160
O2	O	0.611100	0.977600	0.946880	-0.551866
O3	O	0.399360	0.227310	0.556730	-0.548234
O4	O	0.366500	0.388900	0.613550	-0.551939
O5	O	0.827950	0.600640	0.223390	-0.548212
O6	O	0.022400	0.633500	0.280210	-0.551919
O7	O	0.227310	0.827950	0.390060	-0.548173
O8	O	0.388900	0.022400	0.446880	-0.551869
O9	O	0.600640	0.772690	0.056730	-0.548254
O10	O	0.633500	0.611100	0.113550	-0.551919
O11	O	0.172050	0.399360	0.723390	-0.548210
O12	O	0.977600	0.366500	0.780210	-0.551993
O13	O	0.600640	0.827950	0.776610	-0.548177
O14	O	0.633500	0.022400	0.719790	-0.551917
O15	O	0.172050	0.772690	0.109940	-0.548172
O16	O	0.977600	0.611100	0.053120	-0.551885
O17	O	0.227310	0.399360	0.443270	-0.548258
O18	O	0.388900	0.366500	0.386450	-0.551942
O19	O	0.399360	0.172050	0.276610	-0.548210
O20	O	0.366500	0.977600	0.219790	-0.551955
O21	O	0.827950	0.227310	0.609940	-0.548168
O22	O	0.022400	0.388900	0.553120	-0.551862
O23	O	0.772690	0.600640	0.943270	-0.548256
O24	O	0.611100	0.633500	0.886450	-0.551981
