data_NESSOV_clean_PM
_symmetry_space_group_name_H-M	'P1'
_cell_length_a	14.760000
_cell_length_b	15.265300
_cell_length_c	15.265300
_cell_angle_alpha	100.999000
_cell_angle_beta	112.548999
_cell_angle_gamma	112.549001
_symmetry_Int_Tables_number 1

loop_
_symmetry_equiv_pos_as_xyz
'x,y,z'

loop_
_atom_site_label
_atom_site_type_symbol
_atom_site_fract_x
_atom_site_fract_y
_atom_site_fract_z
_atom_site_charge
Co1	Co	0.368790	0.277900	0.831710	1.341632
Co2	Co	0.131210	0.168290	0.722100	1.341632
Co3	Co	0.631210	0.722100	0.168290	1.341632
Co4	Co	0.868790	0.831710	0.277900	1.341632
H1	H	0.408600	0.321400	0.141600	0.101502
H2	H	0.407200	0.311400	0.287600	0.099594
H3	H	0.073800	0.112600	0.121800	0.101825
H4	H	0.074700	0.127500	0.976100	0.101634
H5	H	0.407300	0.257000	0.407000	0.101680
H6	H	0.409300	0.256900	0.557500	0.105650
H7	H	0.074300	0.137500	0.412700	0.117757
H8	H	0.072900	0.142500	0.264300	0.107458
H9	H	0.561600	0.237700	0.865500	0.097096
H10	H	0.751400	0.322800	0.921000	0.101170
H11	H	0.754500	0.588300	0.998300	0.119853
H12	H	0.563500	0.496700	0.936300	0.126707
H13	H	0.044400	0.663300	0.098900	0.187109
H14	H	0.940600	0.672900	0.030900	0.177307
H15	H	0.949800	0.647800	0.127800	0.196375
H16	H	0.091400	0.858400	0.678600	0.101502
H17	H	0.092800	0.712400	0.688600	0.099594
H18	H	0.426200	0.878200	0.887400	0.101825
H19	H	0.425300	0.023900	0.872500	0.101634
H20	H	0.092700	0.593000	0.743000	0.101680
H21	H	0.090700	0.442500	0.743100	0.105650
H22	H	0.425700	0.587300	0.862500	0.117757
H23	H	0.427100	0.735700	0.857500	0.107458
H24	H	0.938400	0.134500	0.762300	0.097096
H25	H	0.748600	0.079000	0.677200	0.101170
H26	H	0.745500	0.001700	0.411700	0.119853
H27	H	0.936500	0.063700	0.503300	0.126707
H28	H	0.455600	0.901100	0.336700	0.187109
H29	H	0.559400	0.969100	0.327100	0.177307
H30	H	0.550200	0.872200	0.352200	0.196375
H31	H	0.591400	0.678600	0.858400	0.101502
H32	H	0.592800	0.688600	0.712400	0.099594
H33	H	0.926200	0.887400	0.878200	0.101825
H34	H	0.925300	0.872500	0.023900	0.101634
H35	H	0.592700	0.743000	0.593000	0.101680
H36	H	0.590700	0.743100	0.442500	0.105650
H37	H	0.925700	0.862500	0.587300	0.117757
H38	H	0.927100	0.857500	0.735700	0.107458
H39	H	0.438400	0.762300	0.134500	0.097096
H40	H	0.248600	0.677200	0.079000	0.101170
H41	H	0.245500	0.411700	0.001700	0.119853
H42	H	0.436500	0.503300	0.063700	0.126707
H43	H	0.955600	0.336700	0.901100	0.187109
H44	H	0.059400	0.327100	0.969100	0.177307
H45	H	0.050200	0.352200	0.872200	0.196375
H46	H	0.908600	0.141600	0.321400	0.101502
H47	H	0.907200	0.287600	0.311400	0.099594
H48	H	0.573800	0.121800	0.112600	0.101825
H49	H	0.574700	0.976100	0.127500	0.101634
H50	H	0.907300	0.407000	0.257000	0.101680
H51	H	0.909300	0.557500	0.256900	0.105650
H52	H	0.574300	0.412700	0.137500	0.117757
H53	H	0.572900	0.264300	0.142500	0.107458
H54	H	0.061600	0.865500	0.237700	0.097096
H55	H	0.251400	0.921000	0.322800	0.101170
H56	H	0.254500	0.998300	0.588300	0.119853
H57	H	0.063500	0.936300	0.496700	0.126707
H58	H	0.544400	0.098900	0.663300	0.187109
H59	H	0.440600	0.030900	0.672900	0.177307
H60	H	0.449800	0.127800	0.647800	0.196375
C1	C	0.243070	0.229250	0.945070	0.488219
C2	C	0.241230	0.224970	0.041550	0.038612
C3	C	0.340410	0.279620	0.137200	-0.022919
C4	C	0.339480	0.273050	0.224710	-0.156345
C5	C	0.239960	0.210500	0.222760	0.052888
C6	C	0.141930	0.155950	0.126870	-0.167105
C7	C	0.142590	0.164050	0.038890	-0.020884
C8	C	0.239890	0.204240	0.318320	0.051616
C9	C	0.339840	0.235450	0.408230	-0.163951
C10	C	0.341160	0.235070	0.498690	-0.004322
C11	C	0.242840	0.202700	0.503500	0.037708
C12	C	0.142620	0.164910	0.412930	0.005375
C13	C	0.141770	0.166960	0.323440	-0.154258
C14	C	0.244030	0.205920	0.602100	0.486856
C15	C	0.600570	0.309440	0.891780	0.102191
C16	C	0.715200	0.360210	0.925710	-0.133251
C17	C	0.775760	0.466450	0.966470	0.051281
C18	C	0.716750	0.516480	0.970580	-0.088907
C19	C	0.601540	0.460770	0.933710	0.112094
C20	C	0.900640	0.524660	0.006180	0.164535
C21	C	0.964500	0.637170	0.071790	-0.585209
C22	C	0.256930	0.054930	0.770750	0.488219
C23	C	0.258770	0.958450	0.775030	0.038612
C24	C	0.159590	0.862800	0.720380	-0.022919
C25	C	0.160520	0.775290	0.726950	-0.156345
C26	C	0.260040	0.777240	0.789500	0.052888
C27	C	0.358070	0.873130	0.844050	-0.167105
C28	C	0.357410	0.961110	0.835950	-0.020884
C29	C	0.260110	0.681680	0.795760	0.051616
C30	C	0.160160	0.591770	0.764550	-0.163951
C31	C	0.158840	0.501310	0.764930	-0.004322
C32	C	0.257160	0.496500	0.797300	0.037708
C33	C	0.357380	0.587070	0.835090	0.005375
C34	C	0.358230	0.676560	0.833040	-0.154258
C35	C	0.255970	0.397900	0.794080	0.486856
C36	C	0.899430	0.108220	0.690560	0.102191
C37	C	0.784800	0.074290	0.639790	-0.133251
C38	C	0.724240	0.033530	0.533550	0.051281
C39	C	0.783250	0.029420	0.483520	-0.088907
C40	C	0.898460	0.066290	0.539230	0.112094
C41	C	0.599360	0.993820	0.475340	0.164535
C42	C	0.535500	0.928210	0.362830	-0.585209
C43	C	0.756930	0.770750	0.054930	0.488219
C44	C	0.758770	0.775030	0.958450	0.038612
C45	C	0.659590	0.720380	0.862800	-0.022919
C46	C	0.660520	0.726950	0.775290	-0.156345
C47	C	0.760040	0.789500	0.777240	0.052888
C48	C	0.858070	0.844050	0.873130	-0.167105
C49	C	0.857410	0.835950	0.961110	-0.020884
C50	C	0.760110	0.795760	0.681680	0.051616
C51	C	0.660160	0.764550	0.591770	-0.163951
C52	C	0.658840	0.764930	0.501310	-0.004322
C53	C	0.757160	0.797300	0.496500	0.037708
C54	C	0.857380	0.835090	0.587070	0.005375
C55	C	0.858230	0.833040	0.676560	-0.154258
C56	C	0.755970	0.794080	0.397900	0.486856
C57	C	0.399430	0.690560	0.108220	0.102191
C58	C	0.284800	0.639790	0.074290	-0.133251
C59	C	0.224240	0.533550	0.033530	0.051281
C60	C	0.283250	0.483520	0.029420	-0.088907
C61	C	0.398460	0.539230	0.066290	0.112094
C62	C	0.099360	0.475340	0.993820	0.164535
C63	C	0.035500	0.362830	0.928210	-0.585209
C64	C	0.743070	0.945070	0.229250	0.488219
C65	C	0.741230	0.041550	0.224970	0.038612
C66	C	0.840410	0.137200	0.279620	-0.022919
C67	C	0.839480	0.224710	0.273050	-0.156345
C68	C	0.739960	0.222760	0.210500	0.052888
C69	C	0.641930	0.126870	0.155950	-0.167105
C70	C	0.642590	0.038890	0.164050	-0.020884
C71	C	0.739890	0.318320	0.204240	0.051616
C72	C	0.839840	0.408230	0.235450	-0.163951
C73	C	0.841160	0.498690	0.235070	-0.004322
C74	C	0.742840	0.503500	0.202700	0.037708
C75	C	0.642620	0.412930	0.164910	0.005375
C76	C	0.641770	0.323440	0.166960	-0.154258
C77	C	0.744030	0.602100	0.205920	0.486856
C78	C	0.100570	0.891780	0.309440	0.102191
C79	C	0.215200	0.925710	0.360210	-0.133251
C80	C	0.275760	0.966470	0.466450	0.051281
C81	C	0.216750	0.970580	0.516480	-0.088907
C82	C	0.101540	0.933710	0.460770	0.112094
C83	C	0.400640	0.006180	0.524660	0.164535
C84	C	0.464500	0.071790	0.637170	-0.585209
N1	N	0.542400	0.358070	0.894650	-0.426578
N2	N	0.941830	0.471590	0.981630	-0.155254
N3	N	0.957600	0.105350	0.641930	-0.426578
N4	N	0.558170	0.018370	0.528410	-0.155254
N5	N	0.457600	0.641930	0.105350	-0.426578
N6	N	0.058170	0.528410	0.018370	-0.155254
N7	N	0.042400	0.894650	0.358070	-0.426578
N8	N	0.441830	0.981630	0.471590	-0.155254
O1	O	0.148550	0.181360	0.862760	-0.683632
O2	O	0.337940	0.279810	0.952330	-0.674921
O3	O	0.338060	0.242330	0.682590	-0.651535
O4	O	0.149550	0.170890	0.598670	-0.686652
O5	O	0.351450	0.137240	0.818640	-0.683632
O6	O	0.162060	0.047670	0.720190	-0.674921
O7	O	0.161940	0.317410	0.757670	-0.651535
O8	O	0.350450	0.401330	0.829110	-0.686652
O9	O	0.851450	0.818640	0.137240	-0.683632
O10	O	0.662060	0.720190	0.047670	-0.674921
O11	O	0.661940	0.757670	0.317410	-0.651535
O12	O	0.850450	0.829110	0.401330	-0.686652
O13	O	0.648550	0.862760	0.181360	-0.683632
O14	O	0.837940	0.952330	0.279810	-0.674921
O15	O	0.838060	0.682590	0.242330	-0.651535
O16	O	0.649550	0.598670	0.170890	-0.686652
