data_NURMUJ_clean_PM
_symmetry_space_group_name_H-M	'P1'
_cell_length_a	10.086100
_cell_length_b	10.252700
_cell_length_c	16.401300
_cell_angle_alpha	90.000000
_cell_angle_beta	95.478001
_cell_angle_gamma	90.000000
_symmetry_Int_Tables_number 1

loop_
_symmetry_equiv_pos_as_xyz
'x,y,z'

loop_
_atom_site_label
_atom_site_type_symbol
_atom_site_fract_x
_atom_site_fract_y
_atom_site_fract_z
_atom_site_charge
Zn1	Zn	0.227900	0.760870	0.076450	1.043839
Zn2	Zn	0.772100	0.260870	0.423550	1.043839
Zn3	Zn	0.772100	0.239130	0.923550	1.043839
Zn4	Zn	0.227900	0.739130	0.576450	1.043839
Zn5	Zn	0.000000	0.000000	0.000000	1.096573
Zn6	Zn	0.000000	0.500000	0.500000	1.096573
H1	H	0.679300	0.777100	0.077700	0.159282
H2	H	0.955100	0.643800	0.250100	0.152529
H3	H	0.568700	0.563600	0.264300	0.151929
H4	H	0.320700	0.277100	0.422300	0.159282
H5	H	0.044900	0.143800	0.249900	0.152529
H6	H	0.431300	0.063600	0.235700	0.151929
H7	H	0.320700	0.222900	0.922300	0.159282
H8	H	0.044900	0.356200	0.749900	0.152529
H9	H	0.431300	0.436400	0.735700	0.151929
H10	H	0.679300	0.722900	0.577700	0.159282
H11	H	0.955100	0.856200	0.750100	0.152529
H12	H	0.568700	0.936400	0.764300	0.151929
C1	C	0.457700	0.692600	0.134400	0.381745
C2	C	0.941100	0.779400	0.110620	0.475278
C3	C	0.802300	0.521800	0.349250	0.467383
C4	C	0.601000	0.674000	0.166580	0.040052
C5	C	0.701300	0.730700	0.125820	-0.030628
C6	C	0.834600	0.718700	0.156590	0.040505
C7	C	0.866500	0.650900	0.228830	-0.037828
C8	C	0.767200	0.593400	0.269880	0.048732
C9	C	0.635000	0.604000	0.237750	-0.045770
C10	C	0.542300	0.192600	0.365600	0.381745
C11	C	0.058900	0.279400	0.389380	0.475278
C12	C	0.197700	0.021800	0.150750	0.467383
C13	C	0.399000	0.174000	0.333420	0.040052
C14	C	0.298700	0.230700	0.374180	-0.030628
C15	C	0.165400	0.218700	0.343410	0.040505
C16	C	0.133500	0.150900	0.271170	-0.037828
C17	C	0.232800	0.093400	0.230120	0.048732
C18	C	0.365000	0.104000	0.262250	-0.045770
C19	C	0.542300	0.307400	0.865600	0.381745
C20	C	0.058900	0.220600	0.889380	0.475278
C21	C	0.197700	0.478200	0.650750	0.467383
C22	C	0.399000	0.326000	0.833420	0.040052
C23	C	0.298700	0.269300	0.874180	-0.030628
C24	C	0.165400	0.281300	0.843410	0.040505
C25	C	0.133500	0.349100	0.771170	-0.037828
C26	C	0.232800	0.406600	0.730120	0.048732
C27	C	0.365000	0.396000	0.762250	-0.045770
C28	C	0.457700	0.807400	0.634400	0.381745
C29	C	0.941100	0.720600	0.610620	0.475278
C30	C	0.802300	0.978200	0.849250	0.467383
C31	C	0.601000	0.826000	0.666580	0.040052
C32	C	0.701300	0.769300	0.625820	-0.030628
C33	C	0.834600	0.781300	0.656590	0.040505
C34	C	0.866500	0.849100	0.728830	-0.037828
C35	C	0.767200	0.906600	0.769880	0.048732
C36	C	0.635000	0.896000	0.737750	-0.045770
O1	O	0.367320	0.664430	0.178170	-0.436138
O2	O	0.433430	0.738310	0.063060	-0.542595
O3	O	0.902100	0.855290	0.053550	-0.624816
O4	O	0.059720	0.747240	0.132800	-0.642160
O5	O	0.909700	0.553400	0.388210	-0.604920
O6	O	0.720930	0.437640	0.368460	-0.544707
O7	O	0.632680	0.164430	0.321830	-0.436138
O8	O	0.566570	0.238310	0.436940	-0.542595
O9	O	0.097900	0.355290	0.446450	-0.624816
O10	O	0.940280	0.247240	0.367200	-0.642160
O11	O	0.090300	0.053400	0.111790	-0.604920
O12	O	0.279070	0.937640	0.131540	-0.544707
O13	O	0.632680	0.335570	0.821830	-0.436138
O14	O	0.566570	0.261690	0.936940	-0.542595
O15	O	0.097900	0.144710	0.946450	-0.624816
O16	O	0.940280	0.252760	0.867200	-0.642160
O17	O	0.090300	0.446600	0.611790	-0.604920
O18	O	0.279070	0.562360	0.631540	-0.544707
O19	O	0.367320	0.835570	0.678170	-0.436138
O20	O	0.433430	0.761690	0.563060	-0.542595
O21	O	0.902100	0.644710	0.553550	-0.624816
O22	O	0.059720	0.752760	0.632800	-0.642160
O23	O	0.909700	0.946600	0.888210	-0.604920
O24	O	0.720930	0.062360	0.868460	-0.544707
