data_OBUFIB_clean_PM
_symmetry_space_group_name_H-M	'P1'
_cell_length_a	8.541600
_cell_length_b	13.668800
_cell_length_c	18.225000
_cell_angle_alpha	88.270200
_cell_angle_beta	84.455900
_cell_angle_gamma	71.793202
_symmetry_Int_Tables_number 1

loop_
_symmetry_equiv_pos_as_xyz
'x,y,z'

loop_
_atom_site_label
_atom_site_type_symbol
_atom_site_fract_x
_atom_site_fract_y
_atom_site_fract_z
_atom_site_charge
Zn1	Zn	0.377070	0.446640	0.471130	1.170294
Zn2	Zn	0.189910	0.675600	0.508360	1.148195
Zn3	Zn	0.176290	0.446640	0.028870	1.170331
Zn4	Zn	0.134490	0.675600	0.991640	1.148342
Zn5	Zn	0.622930	0.553360	0.528870	1.170294
Zn6	Zn	0.810090	0.324400	0.491640	1.148195
Zn7	Zn	0.823710	0.553360	0.971130	1.170331
Zn8	Zn	0.865510	0.324400	0.008360	1.148342
H1	H	0.667400	0.383800	0.240700	0.129798
H2	H	0.479000	0.650400	0.163400	0.132600
H3	H	0.348500	0.613200	0.213700	0.124981
H4	H	0.272800	0.987800	0.606800	0.086576
H5	H	0.225200	0.834400	0.612700	0.087674
H6	H	0.170700	0.843200	0.404900	0.094654
H7	H	0.211800	0.999400	0.394200	0.085942
H8	H	0.360400	0.117000	0.591900	0.083185
H9	H	0.419300	0.267800	0.576500	0.116598
H10	H	0.246200	0.308800	0.387300	0.120742
H11	H	0.196100	0.154000	0.394900	0.094451
H12	H	0.948800	0.383800	0.259300	0.129816
H13	H	0.870600	0.650400	0.336600	0.132524
H14	H	0.038300	0.613200	0.286300	0.125039
H15	H	0.739400	0.987800	0.893200	0.086506
H16	H	0.940400	0.834400	0.887300	0.087738
H17	H	0.986100	0.843200	0.095100	0.094716
H18	H	0.788800	0.999400	0.105800	0.085750
H19	H	0.522600	0.117000	0.908100	0.083034
H20	H	0.312900	0.267800	0.923500	0.116668
H21	H	0.445000	0.308800	0.112700	0.120786
H22	H	0.649900	0.154000	0.105100	0.094496
H23	H	0.332600	0.616200	0.759300	0.129798
H24	H	0.521000	0.349600	0.836600	0.132600
H25	H	0.651500	0.386800	0.786300	0.124981
H26	H	0.727200	0.012200	0.393200	0.086576
H27	H	0.774800	0.165600	0.387300	0.087674
H28	H	0.829300	0.156800	0.595100	0.094654
H29	H	0.788200	0.000600	0.605800	0.085942
H30	H	0.639600	0.883000	0.408100	0.083185
H31	H	0.580700	0.732200	0.423500	0.116598
H32	H	0.753800	0.691200	0.612700	0.120742
H33	H	0.803900	0.846000	0.605100	0.094451
H34	H	0.051200	0.616200	0.740700	0.129816
H35	H	0.129400	0.349600	0.663400	0.132524
H36	H	0.961700	0.386800	0.713700	0.125039
H37	H	0.260600	0.012200	0.106800	0.086506
H38	H	0.059600	0.165600	0.112700	0.087738
H39	H	0.013900	0.156800	0.904900	0.094716
H40	H	0.211200	0.000600	0.894200	0.085750
H41	H	0.477400	0.883000	0.091900	0.083034
H42	H	0.687100	0.732200	0.076500	0.116668
H43	H	0.555000	0.691200	0.887300	0.120786
H44	H	0.350100	0.846000	0.894900	0.094496
C1	C	0.501820	0.486360	0.318850	0.349959
C2	C	0.586530	0.447940	0.242370	-0.053973
C3	C	0.559040	0.493320	0.181910	0.067910
C4	C	0.680520	0.454560	0.113820	0.484696
C5	C	0.427290	0.596420	0.170380	-0.141566
C6	C	0.337120	0.590560	0.102630	0.499415
C7	C	0.250000	0.960400	0.564490	-0.137486
C8	C	0.223150	0.868100	0.567570	0.102083
C9	C	0.190600	0.873200	0.446710	0.107514
C10	C	0.215030	0.967140	0.439990	-0.141530
C11	C	0.243890	0.014220	0.499660	0.057189
C12	C	0.275840	0.113720	0.493940	0.045629
C13	C	0.339040	0.153320	0.548130	-0.106338
C14	C	0.371600	0.245200	0.539310	0.111733
C15	C	0.272990	0.268420	0.429080	0.119103
C16	C	0.241340	0.175120	0.433560	-0.111140
C17	C	0.011820	0.486360	0.181150	0.349966
C18	C	0.965530	0.447940	0.257630	-0.053853
C19	C	0.947640	0.493320	0.318090	0.067816
C20	C	0.864920	0.454560	0.386180	0.484779
C21	C	0.976290	0.596420	0.329620	-0.141614
C22	C	0.072320	0.590560	0.397370	0.499305
C23	C	0.789600	0.960400	0.935510	-0.137566
C24	C	0.908750	0.868100	0.932430	0.102192
C25	C	0.936200	0.873200	0.053290	0.107469
C26	C	0.817830	0.967140	0.060010	-0.140915
C27	C	0.741890	0.014220	0.000340	0.056818
C28	C	0.610440	0.113720	0.006060	0.045972
C29	C	0.507640	0.153320	0.951870	-0.106430
C30	C	0.383200	0.245200	0.960690	0.111758
C31	C	0.458590	0.268420	0.070920	0.119370
C32	C	0.583540	0.175120	0.066440	-0.111234
C33	C	0.498180	0.513640	0.681150	0.349959
C34	C	0.413470	0.552060	0.757630	-0.053973
C35	C	0.440960	0.506680	0.818090	0.067910
C36	C	0.319480	0.545440	0.886180	0.484696
C37	C	0.572710	0.403580	0.829620	-0.141566
C38	C	0.662880	0.409440	0.897370	0.499415
C39	C	0.750000	0.039600	0.435510	-0.137486
C40	C	0.776850	0.131900	0.432430	0.102083
C41	C	0.809400	0.126800	0.553290	0.107514
C42	C	0.784970	0.032860	0.560010	-0.141530
C43	C	0.756110	0.985780	0.500340	0.057189
C44	C	0.724160	0.886280	0.506060	0.045629
C45	C	0.660960	0.846680	0.451870	-0.106338
C46	C	0.628400	0.754800	0.460690	0.111733
C47	C	0.727010	0.731580	0.570920	0.119103
C48	C	0.758660	0.824880	0.566440	-0.111140
C49	C	0.988180	0.513640	0.818850	0.349966
C50	C	0.034470	0.552060	0.742370	-0.053853
C51	C	0.052360	0.506680	0.681910	0.067816
C52	C	0.135080	0.545440	0.613820	0.484779
C53	C	0.023710	0.403580	0.670380	-0.141614
C54	C	0.927680	0.409440	0.602630	0.499305
C55	C	0.210400	0.039600	0.064490	-0.137566
C56	C	0.091250	0.131900	0.067570	0.102192
C57	C	0.063800	0.126800	0.946710	0.107469
C58	C	0.182170	0.032860	0.939990	-0.140915
C59	C	0.258110	0.985780	0.999660	0.056818
C60	C	0.389560	0.886280	0.993940	0.045972
C61	C	0.492360	0.846680	0.048130	-0.106430
C62	C	0.616800	0.754800	0.039310	0.111758
C63	C	0.541410	0.731580	0.929080	0.119370
C64	C	0.416460	0.824880	0.933560	-0.111234
N1	N	0.194090	0.823280	0.509100	-0.436556
N2	N	0.337670	0.302480	0.479950	-0.354149
N3	N	0.982630	0.823280	0.990900	-0.436791
N4	N	0.359850	0.302480	0.020050	-0.354459
N5	N	0.805910	0.176720	0.490900	-0.436556
N6	N	0.662330	0.697520	0.520050	-0.354149
N7	N	0.017370	0.176720	0.009100	-0.436791
N8	N	0.640150	0.697520	0.979950	-0.354459
O1	O	0.451560	0.588680	0.328220	-0.268961
O2	O	0.501730	0.411180	0.365890	-0.510725
O3	O	0.747820	0.358040	0.105370	-0.667961
O4	O	0.704800	0.521020	0.073160	-0.531402
O5	O	0.336500	0.507800	0.080710	-0.539590
O6	O	0.265620	0.676440	0.073300	-0.626464
O7	O	0.411040	0.593340	0.474350	-0.793255
O8	O	0.959760	0.588680	0.171780	-0.268996
O9	O	0.087090	0.411180	0.134110	-0.510781
O10	O	0.894140	0.358040	0.394630	-0.667883
O11	O	0.774180	0.521020	0.426840	-0.531525
O12	O	0.155700	0.507800	0.419290	-0.539531
O13	O	0.057940	0.676440	0.426700	-0.626186
O14	O	0.995620	0.593340	0.025650	-0.793249
O15	O	0.548440	0.411320	0.671780	-0.268961
O16	O	0.498270	0.588820	0.634110	-0.510725
O17	O	0.252180	0.641960	0.894630	-0.667961
O18	O	0.295200	0.478980	0.926840	-0.531402
O19	O	0.663500	0.492200	0.919290	-0.539590
O20	O	0.734380	0.323560	0.926700	-0.626464
O21	O	0.588960	0.406660	0.525650	-0.793255
O22	O	0.040240	0.411320	0.828220	-0.268996
O23	O	0.912910	0.588820	0.865890	-0.510781
O24	O	0.105860	0.641960	0.605370	-0.667883
O25	O	0.225820	0.478980	0.573160	-0.531525
O26	O	0.844300	0.492200	0.580710	-0.539531
O27	O	0.942060	0.323560	0.573300	-0.626186
O28	O	0.004380	0.406660	0.974350	-0.793249
