data_OFERUN04_PM
_symmetry_space_group_name_H-M	'P1'
_cell_length_a	17.054400
_cell_length_b	17.054400
_cell_length_c	17.054400
_cell_angle_alpha	90.000000
_cell_angle_beta	90.000000
_cell_angle_gamma	90.000000
_symmetry_Int_Tables_number 1

loop_
_symmetry_equiv_pos_as_xyz
'x,y,z'

loop_
_atom_site_label
_atom_site_type_symbol
_atom_site_fract_x
_atom_site_fract_y
_atom_site_fract_z
_atom_site_charge
Zn1	Zn	0.000000	0.500000	0.750000	1.031033
Zn2	Zn	0.000000	0.500000	0.250000	1.031033
Zn3	Zn	0.500000	0.000000	0.250000	1.031033
Zn4	Zn	0.500000	0.000000	0.750000	1.031033
Zn5	Zn	0.500000	0.750000	0.000000	1.031033
Zn6	Zn	0.500000	0.250000	0.000000	1.031033
Zn7	Zn	0.750000	0.500000	0.000000	1.031033
Zn8	Zn	0.250000	0.500000	0.000000	1.031033
Zn9	Zn	0.750000	0.000000	0.500000	1.031033
Zn10	Zn	0.250000	0.000000	0.500000	1.031033
Zn11	Zn	0.000000	0.750000	0.500000	1.031033
Zn12	Zn	0.000000	0.250000	0.500000	1.031033
H1	H	0.125400	0.362400	0.774900	0.060504
H2	H	0.125400	0.637600	0.225100	0.060504
H3	H	0.874600	0.637600	0.774900	0.060504
H4	H	0.874600	0.362400	0.225100	0.060504
H5	H	0.362400	0.874600	0.225100	0.060504
H6	H	0.637600	0.874600	0.774900	0.060504
H7	H	0.637600	0.125400	0.225100	0.060504
H8	H	0.362400	0.125400	0.774900	0.060504
H9	H	0.362400	0.774900	0.125400	0.060504
H10	H	0.637600	0.225100	0.125400	0.060504
H11	H	0.362400	0.225100	0.874600	0.060504
H12	H	0.637600	0.774900	0.874600	0.060504
H13	H	0.774900	0.637600	0.874600	0.060504
H14	H	0.774900	0.362400	0.125400	0.060504
H15	H	0.225100	0.362400	0.874600	0.060504
H16	H	0.225100	0.637600	0.125400	0.060504
H17	H	0.774900	0.125400	0.362400	0.060504
H18	H	0.225100	0.125400	0.637600	0.060504
H19	H	0.225100	0.874600	0.362400	0.060504
H20	H	0.774900	0.874600	0.637600	0.060504
H21	H	0.125400	0.774900	0.362400	0.060504
H22	H	0.125400	0.225100	0.637600	0.060504
H23	H	0.874600	0.774900	0.637600	0.060504
H24	H	0.874600	0.225100	0.362400	0.060504
H25	H	0.625400	0.862400	0.274900	0.060504
H26	H	0.625400	0.137600	0.725100	0.060504
H27	H	0.374600	0.137600	0.274900	0.060504
H28	H	0.374600	0.862400	0.725100	0.060504
H29	H	0.862400	0.374600	0.725100	0.060504
H30	H	0.137600	0.374600	0.274900	0.060504
H31	H	0.137600	0.625400	0.725100	0.060504
H32	H	0.862400	0.625400	0.274900	0.060504
H33	H	0.862400	0.274900	0.625400	0.060504
H34	H	0.137600	0.725100	0.625400	0.060504
H35	H	0.862400	0.725100	0.374600	0.060504
H36	H	0.137600	0.274900	0.374600	0.060504
H37	H	0.274900	0.137600	0.374600	0.060504
H38	H	0.274900	0.862400	0.625400	0.060504
H39	H	0.725100	0.862400	0.374600	0.060504
H40	H	0.725100	0.137600	0.625400	0.060504
H41	H	0.274900	0.625400	0.862400	0.060504
H42	H	0.725100	0.625400	0.137600	0.060504
H43	H	0.725100	0.374600	0.862400	0.060504
H44	H	0.274900	0.374600	0.137600	0.060504
H45	H	0.625400	0.274900	0.862400	0.060504
H46	H	0.625400	0.725100	0.137600	0.060504
H47	H	0.374600	0.274900	0.137600	0.060504
H48	H	0.374600	0.725100	0.862400	0.060504
H49	H	0.037400	0.589000	0.898700	0.195770
H50	H	0.037400	0.411000	0.101300	0.195770
H51	H	0.962600	0.411000	0.898700	0.195770
H52	H	0.962600	0.589000	0.101300	0.195770
H53	H	0.589000	0.962600	0.101300	0.195770
H54	H	0.411000	0.962600	0.898700	0.195770
H55	H	0.411000	0.037400	0.101300	0.195770
H56	H	0.589000	0.037400	0.898700	0.195770
H57	H	0.589000	0.898700	0.037400	0.195770
H58	H	0.411000	0.101300	0.037400	0.195770
H59	H	0.589000	0.101300	0.962600	0.195770
H60	H	0.411000	0.898700	0.962600	0.195770
H61	H	0.898700	0.411000	0.962600	0.195770
H62	H	0.898700	0.589000	0.037400	0.195770
H63	H	0.101300	0.589000	0.962600	0.195770
H64	H	0.101300	0.411000	0.037400	0.195770
H65	H	0.898700	0.037400	0.589000	0.195770
H66	H	0.101300	0.037400	0.411000	0.195770
H67	H	0.101300	0.962600	0.589000	0.195770
H68	H	0.898700	0.962600	0.411000	0.195770
H69	H	0.037400	0.898700	0.589000	0.195770
H70	H	0.037400	0.101300	0.411000	0.195770
H71	H	0.962600	0.898700	0.411000	0.195770
H72	H	0.962600	0.101300	0.589000	0.195770
H73	H	0.537400	0.089000	0.398700	0.195770
H74	H	0.537400	0.911000	0.601300	0.195770
H75	H	0.462600	0.911000	0.398700	0.195770
H76	H	0.462600	0.089000	0.601300	0.195770
H77	H	0.089000	0.462600	0.601300	0.195770
H78	H	0.911000	0.462600	0.398700	0.195770
H79	H	0.911000	0.537400	0.601300	0.195770
H80	H	0.089000	0.537400	0.398700	0.195770
H81	H	0.089000	0.398700	0.537400	0.195770
H82	H	0.911000	0.601300	0.537400	0.195770
H83	H	0.089000	0.601300	0.462600	0.195770
H84	H	0.911000	0.398700	0.462600	0.195770
H85	H	0.398700	0.911000	0.462600	0.195770
H86	H	0.398700	0.089000	0.537400	0.195770
H87	H	0.601300	0.089000	0.462600	0.195770
H88	H	0.601300	0.911000	0.537400	0.195770
H89	H	0.398700	0.537400	0.089000	0.195770
H90	H	0.601300	0.537400	0.911000	0.195770
H91	H	0.601300	0.462600	0.089000	0.195770
H92	H	0.398700	0.462600	0.911000	0.195770
H93	H	0.537400	0.398700	0.089000	0.195770
H94	H	0.537400	0.601300	0.911000	0.195770
H95	H	0.462600	0.398700	0.911000	0.195770
H96	H	0.462600	0.601300	0.089000	0.195770
H97	H	0.119200	0.627500	0.880800	0.178887
H98	H	0.119200	0.372500	0.119200	0.178887
H99	H	0.880800	0.372500	0.880800	0.178887
H100	H	0.880800	0.627500	0.119200	0.178887
H101	H	0.627500	0.880800	0.119200	0.178887
H102	H	0.372500	0.880800	0.880800	0.178887
H103	H	0.372500	0.119200	0.119200	0.178887
H104	H	0.627500	0.119200	0.880800	0.178887
H105	H	0.880800	0.119200	0.627500	0.178887
H106	H	0.119200	0.119200	0.372500	0.178887
H107	H	0.119200	0.880800	0.627500	0.178887
H108	H	0.880800	0.880800	0.372500	0.178887
H109	H	0.619200	0.127500	0.380800	0.178887
H110	H	0.619200	0.872500	0.619200	0.178887
H111	H	0.380800	0.872500	0.380800	0.178887
H112	H	0.380800	0.127500	0.619200	0.178887
H113	H	0.127500	0.380800	0.619200	0.178887
H114	H	0.872500	0.380800	0.380800	0.178887
H115	H	0.872500	0.619200	0.619200	0.178887
H116	H	0.127500	0.619200	0.380800	0.178887
H117	H	0.380800	0.619200	0.127500	0.178887
H118	H	0.619200	0.619200	0.872500	0.178887
H119	H	0.619200	0.380800	0.127500	0.178887
H120	H	0.380800	0.380800	0.872500	0.178887
C1	C	0.133700	0.402000	0.811400	0.058291
C2	C	0.133700	0.598000	0.188600	0.058291
C3	C	0.866300	0.598000	0.811400	0.058291
C4	C	0.866300	0.402000	0.188600	0.058291
C5	C	0.402000	0.866300	0.188600	0.058291
C6	C	0.598000	0.866300	0.811400	0.058291
C7	C	0.598000	0.133700	0.188600	0.058291
C8	C	0.402000	0.133700	0.811400	0.058291
C9	C	0.402000	0.811400	0.133700	0.058291
C10	C	0.598000	0.188600	0.133700	0.058291
C11	C	0.402000	0.188600	0.866300	0.058291
C12	C	0.598000	0.811400	0.866300	0.058291
C13	C	0.811400	0.598000	0.866300	0.058291
C14	C	0.811400	0.402000	0.133700	0.058291
C15	C	0.188600	0.402000	0.866300	0.058291
C16	C	0.188600	0.598000	0.133700	0.058291
C17	C	0.811400	0.133700	0.402000	0.058291
C18	C	0.188600	0.133700	0.598000	0.058291
C19	C	0.188600	0.866300	0.402000	0.058291
C20	C	0.811400	0.866300	0.598000	0.058291
C21	C	0.133700	0.811400	0.402000	0.058291
C22	C	0.133700	0.188600	0.598000	0.058291
C23	C	0.866300	0.811400	0.598000	0.058291
C24	C	0.866300	0.188600	0.402000	0.058291
C25	C	0.633700	0.902000	0.311400	0.058291
C26	C	0.633700	0.098000	0.688600	0.058291
C27	C	0.366300	0.098000	0.311400	0.058291
C28	C	0.366300	0.902000	0.688600	0.058291
C29	C	0.902000	0.366300	0.688600	0.058291
C30	C	0.098000	0.366300	0.311400	0.058291
C31	C	0.098000	0.633700	0.688600	0.058291
C32	C	0.902000	0.633700	0.311400	0.058291
C33	C	0.902000	0.311400	0.633700	0.058291
C34	C	0.098000	0.688600	0.633700	0.058291
C35	C	0.902000	0.688600	0.366300	0.058291
C36	C	0.098000	0.311400	0.366300	0.058291
C37	C	0.311400	0.098000	0.366300	0.058291
C38	C	0.311400	0.902000	0.633700	0.058291
C39	C	0.688600	0.902000	0.366300	0.058291
C40	C	0.688600	0.098000	0.633700	0.058291
C41	C	0.311400	0.633700	0.902000	0.058291
C42	C	0.688600	0.633700	0.098000	0.058291
C43	C	0.688600	0.366300	0.902000	0.058291
C44	C	0.311400	0.366300	0.098000	0.058291
C45	C	0.633700	0.311400	0.902000	0.058291
C46	C	0.633700	0.688600	0.098000	0.058291
C47	C	0.366300	0.311400	0.098000	0.058291
C48	C	0.366300	0.688600	0.902000	0.058291
C49	C	0.122530	0.507200	0.877470	0.334821
C50	C	0.122530	0.492800	0.122530	0.334821
C51	C	0.877470	0.492800	0.877470	0.334821
C52	C	0.877470	0.507200	0.122530	0.334821
C53	C	0.507200	0.877470	0.122530	0.334821
C54	C	0.492800	0.877470	0.877470	0.334821
C55	C	0.492800	0.122530	0.122530	0.334821
C56	C	0.507200	0.122530	0.877470	0.334821
C57	C	0.877470	0.122530	0.507200	0.334821
C58	C	0.122530	0.122530	0.492800	0.334821
C59	C	0.122530	0.877470	0.507200	0.334821
C60	C	0.877470	0.877470	0.492800	0.334821
C61	C	0.622530	0.007200	0.377470	0.334821
C62	C	0.622530	0.992800	0.622530	0.334821
C63	C	0.377470	0.992800	0.377470	0.334821
C64	C	0.377470	0.007200	0.622530	0.334821
C65	C	0.007200	0.377470	0.622530	0.334821
C66	C	0.992800	0.377470	0.377470	0.334821
C67	C	0.992800	0.622530	0.622530	0.334821
C68	C	0.007200	0.622530	0.377470	0.334821
C69	C	0.377470	0.622530	0.007200	0.334821
C70	C	0.622530	0.622530	0.992800	0.334821
C71	C	0.622530	0.377470	0.007200	0.334821
C72	C	0.377470	0.377470	0.992800	0.334821
C73	C	0.092800	0.585400	0.907200	-0.673375
C74	C	0.092800	0.414600	0.092800	-0.673375
C75	C	0.907200	0.414600	0.907200	-0.673375
C76	C	0.907200	0.585400	0.092800	-0.673375
C77	C	0.585400	0.907200	0.092800	-0.673375
C78	C	0.414600	0.907200	0.907200	-0.673375
C79	C	0.414600	0.092800	0.092800	-0.673375
C80	C	0.585400	0.092800	0.907200	-0.673375
C81	C	0.907200	0.092800	0.585400	-0.673375
C82	C	0.092800	0.092800	0.414600	-0.673375
C83	C	0.092800	0.907200	0.585400	-0.673375
C84	C	0.907200	0.907200	0.414600	-0.673375
C85	C	0.592800	0.085400	0.407200	-0.673375
C86	C	0.592800	0.914600	0.592800	-0.673375
C87	C	0.407200	0.914600	0.407200	-0.673375
C88	C	0.407200	0.085400	0.592800	-0.673375
C89	C	0.085400	0.407200	0.592800	-0.673375
C90	C	0.914600	0.407200	0.407200	-0.673375
C91	C	0.914600	0.592800	0.592800	-0.673375
C92	C	0.085400	0.592800	0.407200	-0.673375
C93	C	0.407200	0.592800	0.085400	-0.673375
C94	C	0.592800	0.592800	0.914600	-0.673375
C95	C	0.592800	0.407200	0.085400	-0.673375
C96	C	0.407200	0.407200	0.914600	-0.673375
N1	N	0.090400	0.470850	0.817150	-0.492489
N2	N	0.090400	0.529150	0.182850	-0.492489
N3	N	0.909600	0.529150	0.817150	-0.492489
N4	N	0.909600	0.470850	0.182850	-0.492489
N5	N	0.470850	0.909600	0.182850	-0.492489
N6	N	0.529150	0.909600	0.817150	-0.492489
N7	N	0.529150	0.090400	0.182850	-0.492489
N8	N	0.470850	0.090400	0.817150	-0.492489
N9	N	0.470850	0.817150	0.090400	-0.492489
N10	N	0.529150	0.182850	0.090400	-0.492489
N11	N	0.470850	0.182850	0.909600	-0.492489
N12	N	0.529150	0.817150	0.909600	-0.492489
N13	N	0.817150	0.529150	0.909600	-0.492489
N14	N	0.817150	0.470850	0.090400	-0.492489
N15	N	0.182850	0.470850	0.909600	-0.492489
N16	N	0.182850	0.529150	0.090400	-0.492489
N17	N	0.817150	0.090400	0.470850	-0.492489
N18	N	0.182850	0.090400	0.529150	-0.492489
N19	N	0.182850	0.909600	0.470850	-0.492489
N20	N	0.817150	0.909600	0.529150	-0.492489
N21	N	0.090400	0.817150	0.470850	-0.492489
N22	N	0.090400	0.182850	0.529150	-0.492489
N23	N	0.909600	0.817150	0.529150	-0.492489
N24	N	0.909600	0.182850	0.470850	-0.492489
N25	N	0.590400	0.970850	0.317150	-0.492489
N26	N	0.590400	0.029150	0.682850	-0.492489
N27	N	0.409600	0.029150	0.317150	-0.492489
N28	N	0.409600	0.970850	0.682850	-0.492489
N29	N	0.970850	0.409600	0.682850	-0.492489
N30	N	0.029150	0.409600	0.317150	-0.492489
N31	N	0.029150	0.590400	0.682850	-0.492489
N32	N	0.970850	0.590400	0.317150	-0.492489
N33	N	0.970850	0.317150	0.590400	-0.492489
N34	N	0.029150	0.682850	0.590400	-0.492489
N35	N	0.970850	0.682850	0.409600	-0.492489
N36	N	0.029150	0.317150	0.409600	-0.492489
N37	N	0.317150	0.029150	0.409600	-0.492489
N38	N	0.317150	0.970850	0.590400	-0.492489
N39	N	0.682850	0.970850	0.409600	-0.492489
N40	N	0.682850	0.029150	0.590400	-0.492489
N41	N	0.317150	0.590400	0.970850	-0.492489
N42	N	0.682850	0.590400	0.029150	-0.492489
N43	N	0.682850	0.409600	0.970850	-0.492489
N44	N	0.317150	0.409600	0.029150	-0.492489
N45	N	0.590400	0.317150	0.970850	-0.492489
N46	N	0.590400	0.682850	0.029150	-0.492489
N47	N	0.409600	0.317150	0.029150	-0.492489
N48	N	0.409600	0.682850	0.970850	-0.492489
