data_PAZXUJ_clean_PM
_symmetry_space_group_name_H-M	'P1'
_cell_length_a	8.868000
_cell_length_b	9.848000
_cell_length_c	13.752000
_cell_angle_alpha	90.000000
_cell_angle_beta	90.000000
_cell_angle_gamma	116.350002
_symmetry_Int_Tables_number 1

loop_
_symmetry_equiv_pos_as_xyz
'x,y,z'

loop_
_atom_site_label
_atom_site_type_symbol
_atom_site_fract_x
_atom_site_fract_y
_atom_site_fract_z
_atom_site_charge
Cu1	Cu	0.918020	0.471130	0.648370	0.718884
Cu2	Cu	0.000000	0.000000	0.848970	1.122947
Cu3	Cu	0.418020	0.971130	0.351630	0.718884
Cu4	Cu	0.500000	0.500000	0.151030	1.122947
H1	H	0.326600	0.987100	0.913900	0.111346
H2	H	0.439000	0.813700	0.891900	0.120778
H3	H	0.288500	0.597700	0.798700	0.109124
H4	H	0.652300	0.891700	0.727600	0.071595
H5	H	0.492000	0.682900	0.629600	0.075266
H6	H	0.587200	0.494900	0.607700	0.051217
H7	H	0.728600	0.046200	0.964800	0.112273
H8	H	0.585300	0.200100	0.955000	0.121830
H9	H	0.672000	0.385200	0.811900	0.122481
H10	H	0.276800	0.119900	0.637800	0.058537
H11	H	0.342500	0.308500	0.519000	0.078613
H12	H	0.170200	0.456100	0.525800	0.045968
H13	H	0.826600	0.487100	0.086100	0.111346
H14	H	0.939000	0.313700	0.108100	0.120778
H15	H	0.788500	0.097700	0.201300	0.109124
H16	H	0.152300	0.391700	0.272400	0.071595
H17	H	0.992000	0.182900	0.370400	0.075266
H18	H	0.087200	0.994900	0.392300	0.051217
H19	H	0.228600	0.546200	0.035200	0.112273
H20	H	0.085300	0.700100	0.045000	0.121830
H21	H	0.172000	0.885200	0.188100	0.122481
H22	H	0.776800	0.619900	0.362200	0.058537
H23	H	0.842500	0.808500	0.481000	0.078613
H24	H	0.670200	0.956100	0.474200	0.045968
C1	C	0.044300	0.748400	0.782200	0.223462
C2	C	0.668400	0.209000	0.907400	-0.082155
C3	C	0.882600	0.725500	0.738700	0.241720
C4	C	0.708100	0.310800	0.831600	0.107375
C5	C	0.651900	0.583800	0.645600	0.086840
C6	C	0.244800	0.670100	0.808100	0.095621
C7	C	0.898100	0.229900	0.774200	0.224603
C8	C	0.025300	0.248000	0.699600	0.224999
C9	C	0.689800	0.815300	0.716300	0.105908
C10	C	0.218400	0.181900	0.637100	0.088900
C11	C	0.751900	0.116600	0.912000	0.097831
C12	C	0.256600	0.292500	0.566300	-0.149877
C13	C	0.594800	0.693700	0.659200	-0.111459
C14	C	0.169900	0.375700	0.565400	0.088718
C15	C	0.334000	0.797100	0.862500	-0.123650
C16	C	0.267600	0.897800	0.875200	0.110738
C17	C	0.544300	0.248400	0.217800	0.223462
C18	C	0.168400	0.709000	0.092600	-0.082155
C19	C	0.382600	0.225500	0.261300	0.241720
C20	C	0.208100	0.810800	0.168400	0.107375
C21	C	0.151900	0.083800	0.354400	0.086840
C22	C	0.744800	0.170100	0.191900	0.095621
C23	C	0.398100	0.729900	0.225800	0.224603
C24	C	0.525300	0.748000	0.300400	0.224999
C25	C	0.189800	0.315300	0.283700	0.105908
C26	C	0.718400	0.681900	0.362900	0.088900
C27	C	0.251900	0.616600	0.088000	0.097831
C28	C	0.756600	0.792500	0.433700	-0.149877
C29	C	0.094800	0.193700	0.340800	-0.111459
C30	C	0.669900	0.875700	0.434600	0.088718
C31	C	0.834000	0.297100	0.137500	-0.123650
C32	C	0.767600	0.397800	0.124800	0.110738
S1	S	0.228000	0.201500	0.020800	0.596580
S2	S	0.728000	0.701500	0.979200	0.596580
N1	N	0.121300	0.875300	0.833500	-0.457775
N2	N	0.097600	0.643900	0.766800	-0.336272
N3	N	0.833900	0.831600	0.756900	-0.420258
N4	N	0.798600	0.603100	0.684400	-0.438698
N5	N	0.866100	0.127000	0.844400	-0.421662
N6	N	0.823100	0.320400	0.765100	-0.398749
N7	N	0.099700	0.157100	0.703500	-0.334431
N8	N	0.053800	0.355300	0.633200	-0.461378
N9	N	0.621300	0.375300	0.166500	-0.457775
N10	N	0.597600	0.143900	0.233200	-0.336272
N11	N	0.333900	0.331600	0.243100	-0.420258
N12	N	0.298600	0.103100	0.315600	-0.438698
N13	N	0.366100	0.627000	0.155600	-0.421662
N14	N	0.323100	0.820400	0.234900	-0.398749
N15	N	0.599700	0.657100	0.296500	-0.334431
N16	N	0.553800	0.855300	0.366800	-0.461378
O1	O	0.187200	0.164400	0.914800	-0.516290
O2	O	0.345900	0.362000	0.023700	-0.404848
O3	O	0.305400	0.108600	0.058400	-0.281008
O4	O	0.074300	0.172800	0.072500	-0.275645
O5	O	0.687200	0.664400	0.085200	-0.516290
O6	O	0.845900	0.862000	0.976300	-0.404848
O7	O	0.805400	0.608600	0.941600	-0.281008
O8	O	0.574300	0.672800	0.927500	-0.275645
