data_POJTOY01_clean_PM
_symmetry_space_group_name_H-M	'P1'
_cell_length_a	6.886500
_cell_length_b	10.557900
_cell_length_c	13.466200
_cell_angle_alpha	70.144003
_cell_angle_beta	88.058003
_cell_angle_gamma	76.033002
_symmetry_Int_Tables_number 1

loop_
_symmetry_equiv_pos_as_xyz
'x,y,z'

loop_
_atom_site_label
_atom_site_type_symbol
_atom_site_fract_x
_atom_site_fract_y
_atom_site_fract_z
_atom_site_charge
Fe1	Fe	0.530800	0.496800	0.722300	1.445351
Fe2	Fe	0.026600	0.495600	0.712800	1.431703
Fe3	Fe	0.469200	0.503200	0.277700	1.445351
Fe4	Fe	0.973400	0.504400	0.287200	1.431703
H1	H	0.828700	0.830200	0.506400	0.131804
H2	H	0.340000	0.933500	0.556700	0.111191
H3	H	0.736300	0.145500	0.681600	0.127118
H4	H	0.879200	0.907800	0.716900	0.111707
H5	H	0.332200	0.826800	0.786400	0.130843
H6	H	0.189300	0.064500	0.751100	0.114961
H7	H	0.210300	0.154000	0.961500	0.129843
H8	H	0.662000	0.081600	0.938600	0.116171
H9	H	0.171300	0.169800	0.493600	0.131804
H10	H	0.660000	0.066500	0.443300	0.111191
H11	H	0.263700	0.854500	0.318400	0.127118
H12	H	0.120800	0.092200	0.283100	0.111707
H13	H	0.667800	0.173200	0.213600	0.130843
H14	H	0.810700	0.935500	0.248900	0.114961
H15	H	0.789700	0.846000	0.038500	0.129843
H16	H	0.338000	0.918400	0.061400	0.116171
C1	C	0.098400	0.862300	0.536800	0.043398
C2	C	0.900100	0.901000	0.503700	-0.069397
C3	C	0.198200	0.961300	0.533000	-0.095947
C4	C	0.208200	0.708500	0.577800	0.420067
C5	C	0.450900	0.124700	0.713400	0.049178
C6	C	0.652000	0.079100	0.703400	-0.055074
C7	C	0.735300	0.940500	0.724000	-0.094623
C8	C	0.617600	0.847600	0.754600	0.047088
C9	C	0.416500	0.893200	0.764600	-0.048995
C10	C	0.333200	0.031800	0.743900	-0.101924
C11	C	0.360900	0.274500	0.691100	0.432269
C12	C	0.707600	0.697800	0.776900	0.411782
C13	C	0.925500	0.137300	0.941700	0.048949
C14	C	0.122600	0.089800	0.977500	-0.050156
C15	C	0.803000	0.047600	0.964200	-0.091708
C16	C	0.844600	0.286700	0.878400	0.414924
C17	C	0.901600	0.137700	0.463200	0.043398
C18	C	0.099900	0.099000	0.496300	-0.069397
C19	C	0.801800	0.038700	0.467000	-0.095947
C20	C	0.791800	0.291500	0.422200	0.420067
C21	C	0.549100	0.875300	0.286600	0.049178
C22	C	0.348000	0.920900	0.296600	-0.055074
C23	C	0.264700	0.059500	0.276000	-0.094623
C24	C	0.382400	0.152400	0.245400	0.047088
C25	C	0.583500	0.106800	0.235400	-0.048995
C26	C	0.666800	0.968200	0.256100	-0.101924
C27	C	0.639100	0.725500	0.308900	0.432269
C28	C	0.292400	0.302200	0.223100	0.411782
C29	C	0.074500	0.862700	0.058300	0.048949
C30	C	0.877400	0.910200	0.022500	-0.050156
C31	C	0.197000	0.952400	0.035800	-0.091708
C32	C	0.155400	0.713300	0.121600	0.414924
O1	O	0.275000	0.494800	0.785000	-0.555885
O2	O	0.783700	0.504200	0.642000	-0.589972
O3	O	0.117000	0.616900	0.578900	-0.473651
O4	O	0.390600	0.672400	0.610800	-0.539062
O5	O	0.467500	0.361600	0.656600	-0.449492
O6	O	0.177100	0.315900	0.706400	-0.561585
O7	O	0.895300	0.654600	0.772500	-0.489829
O8	O	0.597000	0.612500	0.800400	-0.485128
O9	O	0.956800	0.370600	0.860100	-0.422564
O10	O	0.663500	0.330000	0.842700	-0.543353
O11	O	0.725000	0.505200	0.215000	-0.555885
O12	O	0.216300	0.495800	0.358000	-0.589972
O13	O	0.883000	0.383100	0.421100	-0.473651
O14	O	0.609400	0.327600	0.389200	-0.539062
O15	O	0.532500	0.638400	0.343400	-0.449492
O16	O	0.822900	0.684100	0.293600	-0.561585
O17	O	0.104700	0.345400	0.227500	-0.489829
O18	O	0.403000	0.387500	0.199600	-0.485128
O19	O	0.043200	0.629400	0.139900	-0.422564
O20	O	0.336500	0.670000	0.157300	-0.543353
