data_QARCET_clean_PM
_symmetry_space_group_name_H-M	'P1'
_cell_length_a	13.551000
_cell_length_b	16.181000
_cell_length_c	16.540000
_cell_angle_alpha	109.460000
_cell_angle_beta	101.210001
_cell_angle_gamma	109.750000
_symmetry_Int_Tables_number 1

loop_
_symmetry_equiv_pos_as_xyz
'x,y,z'

loop_
_atom_site_label
_atom_site_type_symbol
_atom_site_fract_x
_atom_site_fract_y
_atom_site_fract_z
_atom_site_charge
Zn1	Zn	0.504570	0.423150	0.824760	1.015245
Zn2	Zn	0.829590	0.543170	0.426530	1.014382
Zn3	Zn	0.410810	0.796470	0.489120	1.017725
Zn4	Zn	0.495430	0.576850	0.175240	1.015245
Zn5	Zn	0.170410	0.456830	0.573470	1.014382
Zn6	Zn	0.589190	0.203530	0.510880	1.017725
H1	H	0.875900	0.679600	0.878500	0.101739
H2	H	0.841200	0.671000	0.731000	0.090231
H3	H	0.658000	0.583900	0.628900	0.103334
H4	H	0.523900	0.491900	0.667900	0.087691
H5	H	0.029500	0.732300	0.110800	0.105329
H6	H	0.168300	0.874900	0.132800	0.088697
H7	H	0.119000	0.988500	0.101100	0.101120
H8	H	0.935000	0.949000	0.032700	0.069331
H9	H	0.004100	0.885500	0.678400	0.100921
H10	H	0.838500	0.898000	0.682300	0.073109
H11	H	0.669000	0.767700	0.585300	0.108027
H12	H	0.667900	0.629100	0.488400	0.080124
H13	H	0.125500	0.818200	0.786800	0.112098
H14	H	0.213000	0.960700	0.922000	0.073499
H15	H	0.317200	0.104200	0.916900	0.120418
H16	H	0.341800	0.099700	0.783300	0.102297
H17	H	0.044400	0.755700	0.289900	0.106888
H18	H	0.988200	0.600600	0.179900	0.086691
H19	H	0.093300	0.517800	0.193500	0.097769
H20	H	0.250500	0.590500	0.320400	0.096117
H21	H	0.095800	0.959700	0.319900	0.104822
H22	H	0.909200	0.908300	0.242000	0.083485
H23	H	0.776400	0.824500	0.290300	0.111800
H24	H	0.831300	0.791700	0.409100	0.109805
H25	H	0.124100	0.320400	0.121500	0.101739
H26	H	0.158800	0.329000	0.269000	0.090231
H27	H	0.342000	0.416100	0.371100	0.103334
H28	H	0.476100	0.508100	0.332100	0.087691
H29	H	0.970500	0.267700	0.889200	0.105329
H30	H	0.831700	0.125100	0.867200	0.088697
H31	H	0.881000	0.011500	0.898900	0.101120
H32	H	0.065000	0.051000	0.967300	0.069331
H33	H	0.995900	0.114500	0.321600	0.100921
H34	H	0.161500	0.102000	0.317700	0.073109
H35	H	0.331000	0.232300	0.414700	0.108027
H36	H	0.332100	0.370900	0.511600	0.080124
H37	H	0.874500	0.181800	0.213200	0.112098
H38	H	0.787000	0.039300	0.078000	0.073499
H39	H	0.682800	0.895800	0.083100	0.120418
H40	H	0.658200	0.900300	0.216700	0.102297
H41	H	0.955600	0.244300	0.710100	0.106888
H42	H	0.011800	0.399400	0.820100	0.086691
H43	H	0.906700	0.482200	0.806500	0.097769
H44	H	0.749500	0.409500	0.679600	0.096117
H45	H	0.904200	0.040300	0.680100	0.104822
H46	H	0.090800	0.091700	0.758000	0.083485
H47	H	0.223600	0.175500	0.709700	0.111800
H48	H	0.168700	0.208300	0.590900	0.109805
C1	C	0.546800	0.412100	0.000500	0.175345
C2	C	0.722600	0.561900	0.189100	0.201390
C3	C	0.645400	0.499300	0.019200	0.112121
C4	C	0.729500	0.567600	0.102900	0.098373
C5	C	0.815300	0.655900	0.031500	0.099110
C6	C	0.731000	0.588500	0.946900	0.123630
C7	C	0.718200	0.590700	0.856200	0.142765
C8	C	0.804500	0.642300	0.835000	-0.126411
C9	C	0.783800	0.638100	0.747500	0.008818
C10	C	0.675900	0.584000	0.686200	-0.100786
C11	C	0.595800	0.530800	0.710500	0.092904
C12	C	0.905500	0.750600	0.048600	0.111964
C13	C	0.011400	0.774800	0.091700	-0.154221
C14	C	0.093600	0.860800	0.108100	0.016503
C15	C	0.064100	0.927700	0.087200	-0.188104
C16	C	0.953700	0.903600	0.046100	0.060127
C17	C	0.029900	0.514400	0.408500	0.179877
C18	C	0.279600	0.637300	0.537100	0.233308
C19	C	0.077500	0.611400	0.485100	0.114002
C20	C	0.190100	0.670200	0.541400	0.090119
C21	C	0.143100	0.787200	0.625300	0.107337
C22	C	0.028700	0.728600	0.571500	0.121607
C23	C	0.928700	0.747300	0.580300	0.146203
C24	C	0.935200	0.833400	0.640100	-0.136898
C25	C	0.836300	0.840700	0.642100	0.007943
C26	C	0.735800	0.763700	0.584900	-0.122894
C27	C	0.736100	0.681400	0.527800	0.088074
C28	C	0.187600	0.879100	0.709900	0.123055
C29	C	0.170800	0.876500	0.787600	-0.151307
C30	C	0.221400	0.961100	0.867700	0.005949
C31	C	0.284100	0.045400	0.864800	-0.135745
C32	C	0.297500	0.042000	0.784000	0.072056
C33	C	0.508800	0.002100	0.616700	0.184259
C34	C	0.426900	0.162000	0.620000	0.208892
C35	C	0.399800	0.986100	0.561400	0.117381
C36	C	0.358700	0.054700	0.564100	0.099333
C37	C	0.189100	0.932600	0.457400	0.104378
C38	C	0.235000	0.865100	0.444000	0.130483
C39	C	0.182500	0.763200	0.369900	0.137062
C40	C	0.086500	0.721600	0.295700	-0.099157
C41	C	0.053400	0.629300	0.230100	0.007900
C42	C	0.114400	0.580000	0.237900	-0.109258
C43	C	0.209000	0.624800	0.313800	0.100019
C44	C	0.069500	0.905400	0.410300	0.122003
C45	C	0.040700	0.925600	0.337800	-0.148303
C46	C	0.930400	0.895100	0.291600	0.007487
C47	C	0.851900	0.845000	0.319700	-0.093256
C48	C	0.885500	0.825600	0.390500	0.078121
C49	C	0.453200	0.587900	0.999500	0.175345
C50	C	0.277400	0.438100	0.810900	0.201390
C51	C	0.354600	0.500700	0.980800	0.112121
C52	C	0.270500	0.432400	0.897100	0.098373
C53	C	0.184700	0.344100	0.968500	0.099110
C54	C	0.269000	0.411500	0.053100	0.123630
C55	C	0.281800	0.409300	0.143800	0.142765
C56	C	0.195500	0.357700	0.165000	-0.126411
C57	C	0.216200	0.361900	0.252500	0.008818
C58	C	0.324100	0.416000	0.313800	-0.100786
C59	C	0.404200	0.469200	0.289500	0.092904
C60	C	0.094500	0.249400	0.951400	0.111964
C61	C	0.988600	0.225200	0.908300	-0.154221
C62	C	0.906400	0.139200	0.891900	0.016503
C63	C	0.935900	0.072300	0.912800	-0.188104
C64	C	0.046300	0.096400	0.953900	0.060127
C65	C	0.970100	0.485600	0.591500	0.179877
C66	C	0.720400	0.362700	0.462900	0.233308
C67	C	0.922500	0.388600	0.514900	0.114002
C68	C	0.809900	0.329800	0.458600	0.090119
C69	C	0.856900	0.212800	0.374700	0.107337
C70	C	0.971300	0.271400	0.428500	0.121607
C71	C	0.071300	0.252700	0.419700	0.146203
C72	C	0.064800	0.166600	0.359900	-0.136898
C73	C	0.163700	0.159300	0.357900	0.007943
C74	C	0.264200	0.236300	0.415100	-0.122894
C75	C	0.263900	0.318600	0.472200	0.088074
C76	C	0.812400	0.120900	0.290100	0.123055
C77	C	0.829200	0.123500	0.212400	-0.151307
C78	C	0.778600	0.038900	0.132300	0.005949
C79	C	0.715900	0.954600	0.135200	-0.135745
C80	C	0.702500	0.958000	0.216000	0.072056
C81	C	0.491200	0.997900	0.383300	0.184259
C82	C	0.573100	0.838000	0.380000	0.208892
C83	C	0.600200	0.013900	0.438600	0.117381
C84	C	0.641300	0.945300	0.435900	0.099333
C85	C	0.810900	0.067400	0.542600	0.104378
C86	C	0.765000	0.134900	0.556000	0.130483
C87	C	0.817500	0.236800	0.630100	0.137062
C88	C	0.913500	0.278400	0.704300	-0.099157
C89	C	0.946600	0.370700	0.769900	0.007900
C90	C	0.885600	0.420000	0.762100	-0.109258
C91	C	0.791000	0.375200	0.686200	0.100019
C92	C	0.930500	0.094600	0.589700	0.122003
C93	C	0.959300	0.074400	0.662200	-0.148303
C94	C	0.069600	0.104900	0.708400	0.007487
C95	C	0.148100	0.155000	0.680300	-0.093256
C96	C	0.114500	0.174400	0.609500	0.078121
N1	N	0.470000	0.364100	0.917700	-0.353220
N2	N	0.391900	0.288300	0.920000	0.003499
N3	N	0.422500	0.291600	0.002200	-0.022978
N4	N	0.522100	0.371100	0.055600	-0.126067
N5	N	0.640100	0.567200	0.219800	-0.375581
N6	N	0.663300	0.562100	0.299700	0.010446
N7	N	0.757400	0.554000	0.314400	-0.273361
N8	N	0.797400	0.553400	0.246200	-0.079964
N9	N	0.647800	0.512600	0.943600	-0.424790
N10	N	0.814300	0.643300	0.107600	-0.248499
N11	N	0.617200	0.532600	0.793800	-0.399117
N12	N	0.869000	0.813100	0.024000	-0.233239
N13	N	0.918800	0.468500	0.369600	-0.338201
N14	N	0.898400	0.383700	0.301900	0.015075
N15	N	0.995200	0.380300	0.302700	-0.058876
N16	N	0.080700	0.463400	0.371400	-0.163371
N17	N	0.374700	0.685900	0.527800	-0.373661
N18	N	0.437500	0.637300	0.534800	-0.012458
N19	N	0.382400	0.563100	0.549300	-0.020809
N20	N	0.281500	0.561300	0.550800	-0.373892
N21	N	0.001200	0.642900	0.501300	-0.405007
N22	N	0.221000	0.758200	0.608600	-0.205627
N23	N	0.830400	0.671700	0.525200	-0.413207
N24	N	0.250200	0.960000	0.705800	-0.218323
N25	N	0.533000	0.926300	0.600400	-0.351715
N26	N	0.637700	0.961300	0.657600	0.001578
N27	N	0.672500	0.055300	0.707100	-0.054987
N28	N	0.591000	0.084000	0.681800	-0.119343
N29	N	0.414100	0.212900	0.694600	-0.106146
N30	N	0.487500	0.305000	0.719400	-0.277859
N31	N	0.540300	0.309300	0.662100	0.011290
N32	N	0.503700	0.218400	0.597800	-0.382575
N33	N	0.337600	0.893700	0.499300	-0.416449
N34	N	0.252700	0.027200	0.514300	-0.222300
N35	N	0.245100	0.714600	0.378800	-0.388073
N36	N	0.994700	0.853200	0.436200	-0.228444
N37	N	0.530000	0.635900	0.082300	-0.353220
N38	N	0.608100	0.711700	0.080000	0.003499
N39	N	0.577500	0.708400	0.997800	-0.022978
N40	N	0.477900	0.628900	0.944400	-0.126067
N41	N	0.359900	0.432800	0.780200	-0.375581
N42	N	0.336700	0.437900	0.700300	0.010446
N43	N	0.242600	0.446000	0.685600	-0.273361
N44	N	0.202600	0.446600	0.753800	-0.079964
N45	N	0.352200	0.487400	0.056400	-0.424790
N46	N	0.185700	0.356700	0.892400	-0.248499
N47	N	0.382800	0.467400	0.206200	-0.399117
N48	N	0.131000	0.186900	0.976000	-0.233239
N49	N	0.081200	0.531500	0.630400	-0.338201
N50	N	0.101600	0.616300	0.698100	0.015075
N51	N	0.004800	0.619700	0.697300	-0.058876
N52	N	0.919300	0.536600	0.628600	-0.163371
N53	N	0.625300	0.314100	0.472200	-0.373661
N54	N	0.562500	0.362700	0.465200	-0.012458
N55	N	0.617600	0.436900	0.450700	-0.020809
N56	N	0.718500	0.438700	0.449200	-0.373892
N57	N	0.998800	0.357100	0.498700	-0.405007
N58	N	0.779000	0.241800	0.391400	-0.205627
N59	N	0.169600	0.328300	0.474800	-0.413207
N60	N	0.749800	0.040000	0.294200	-0.218323
N61	N	0.467000	0.073700	0.399600	-0.351715
N62	N	0.362300	0.038700	0.342400	0.001578
N63	N	0.327500	0.944700	0.292900	-0.054987
N64	N	0.409000	0.916000	0.318200	-0.119343
N65	N	0.585900	0.787100	0.305400	-0.106146
N66	N	0.512500	0.695000	0.280600	-0.277859
N67	N	0.459700	0.690700	0.337900	0.011290
N68	N	0.496300	0.781600	0.402200	-0.382575
N69	N	0.662400	0.106300	0.500700	-0.416449
N70	N	0.747300	0.972800	0.485700	-0.222300
N71	N	0.754900	0.285400	0.621200	-0.388073
N72	N	0.005300	0.146800	0.563800	-0.228444
