data_QOKCID_clean_PM
_symmetry_space_group_name_H-M	'P1'
_cell_length_a	7.623800
_cell_length_b	12.341600
_cell_length_c	12.341600
_cell_angle_alpha	83.661101
_cell_angle_beta	85.840001
_cell_angle_gamma	85.839999
_symmetry_Int_Tables_number 1

loop_
_symmetry_equiv_pos_as_xyz
'x,y,z'

loop_
_atom_site_label
_atom_site_type_symbol
_atom_site_fract_x
_atom_site_fract_y
_atom_site_fract_z
_atom_site_charge
Zn1	Zn	0.436820	0.297220	0.234780	1.179090
Zn2	Zn	0.063180	0.765220	0.702780	1.179090
Zn3	Zn	0.563180	0.702780	0.765220	1.179090
Zn4	Zn	0.936820	0.234780	0.297220	1.179090
H1	H	0.710800	0.457100	0.947100	0.151005
H2	H	0.196100	0.434900	0.796500	0.133903
H3	H	0.066500	0.216800	0.053800	0.138322
H4	H	0.484000	0.364200	0.859600	0.107777
H5	H	0.413800	0.299000	0.770600	0.083649
H6	H	0.512700	0.120900	0.995500	0.120704
H7	H	0.789200	0.052900	0.542900	0.151005
H8	H	0.303900	0.203500	0.565100	0.133903
H9	H	0.433500	0.946200	0.783200	0.138322
H10	H	0.016000	0.140400	0.635800	0.107777
H11	H	0.086200	0.229400	0.701000	0.083649
H12	H	0.987300	0.004500	0.879100	0.120704
H13	H	0.289200	0.542900	0.052900	0.151005
H14	H	0.803900	0.565100	0.203500	0.133903
H15	H	0.933500	0.783200	0.946200	0.138322
H16	H	0.516000	0.635800	0.140400	0.107777
H17	H	0.586200	0.701000	0.229400	0.083649
H18	H	0.487300	0.879100	0.004500	0.120704
H19	H	0.210800	0.947100	0.457100	0.151005
H20	H	0.696100	0.796500	0.434900	0.133903
H21	H	0.566500	0.053800	0.216800	0.138322
H22	H	0.984000	0.859600	0.364200	0.107777
H23	H	0.913800	0.770600	0.299000	0.083649
H24	H	0.012700	0.995500	0.120900	0.120704
H25	H	0.750000	0.991200	0.008800	0.120678
H26	H	0.750000	0.273300	0.726700	0.119468
H27	H	0.250000	0.008800	0.991200	0.120678
H28	H	0.250000	0.726700	0.273300	0.119468
C1	C	0.870800	0.332300	0.015700	0.033732
C2	C	0.823200	0.422700	0.941900	-0.074359
C3	C	0.946100	0.459000	0.862000	0.048720
C4	C	0.114500	0.408300	0.850900	-0.119339
C5	C	0.158100	0.317500	0.922700	0.178429
C6	C	0.036800	0.278000	0.006000	-0.045908
C7	C	0.743500	0.293700	0.106900	0.457181
C8	C	0.451000	0.293100	0.844700	0.059543
C9	C	0.605500	0.208800	0.858600	0.050313
C10	C	0.607400	0.125300	0.943700	0.009942
C11	C	0.896300	0.558800	0.785000	0.482253
C12	C	0.629200	0.984300	0.667700	0.033732
C13	C	0.676800	0.058100	0.577300	-0.074359
C14	C	0.553900	0.138000	0.541000	0.048720
C15	C	0.385500	0.149100	0.591700	-0.119339
C16	C	0.341900	0.077300	0.682500	0.178429
C17	C	0.463200	0.994000	0.722000	-0.045908
C18	C	0.756500	0.893100	0.706300	0.457181
C19	C	0.049000	0.155300	0.706900	0.059543
C20	C	0.894500	0.141400	0.791200	0.050313
C21	C	0.892600	0.056300	0.874700	0.009942
C22	C	0.603700	0.215000	0.441200	0.482253
C23	C	0.129200	0.667700	0.984300	0.033732
C24	C	0.176800	0.577300	0.058100	-0.074359
C25	C	0.053900	0.541000	0.138000	0.048720
C26	C	0.885500	0.591700	0.149100	-0.119339
C27	C	0.841900	0.682500	0.077300	0.178429
C28	C	0.963200	0.722000	0.994000	-0.045908
C29	C	0.256500	0.706300	0.893100	0.457181
C30	C	0.549000	0.706900	0.155300	0.059543
C31	C	0.394500	0.791200	0.141400	0.050313
C32	C	0.392600	0.874700	0.056300	0.009942
C33	C	0.103700	0.441200	0.215000	0.482253
C34	C	0.370800	0.015700	0.332300	0.033732
C35	C	0.323200	0.941900	0.422700	-0.074359
C36	C	0.446100	0.862000	0.459000	0.048720
C37	C	0.614500	0.850900	0.408300	-0.119339
C38	C	0.658100	0.922700	0.317500	0.178429
C39	C	0.536800	0.006000	0.278000	-0.045908
C40	C	0.243500	0.106900	0.293700	0.457181
C41	C	0.951000	0.844700	0.293100	0.059543
C42	C	0.105500	0.858600	0.208800	0.050313
C43	C	0.107400	0.943700	0.125300	0.009942
C44	C	0.396300	0.785000	0.558800	0.482253
C45	C	0.750000	0.047700	0.952300	-0.133733
C46	C	0.750000	0.216800	0.783200	-0.192443
C47	C	0.250000	0.952300	0.047700	-0.133733
C48	C	0.250000	0.783200	0.216800	-0.192443
O1	O	0.590300	0.341340	0.108940	-0.617482
O2	O	0.787200	0.218120	0.178240	-0.678767
O3	O	0.736300	0.579000	0.773800	-0.617188
O4	O	0.019800	0.612300	0.738720	-0.624927
O5	O	0.313200	0.256440	0.920280	-0.413580
O6	O	0.909700	0.891060	0.658660	-0.617482
O7	O	0.712800	0.821760	0.781880	-0.678767
O8	O	0.763700	0.226200	0.421000	-0.617188
O9	O	0.480200	0.261280	0.387700	-0.624927
O10	O	0.186800	0.079720	0.743560	-0.413580
O11	O	0.409700	0.658660	0.891060	-0.617482
O12	O	0.212800	0.781880	0.821760	-0.678767
O13	O	0.263700	0.421000	0.226200	-0.617188
O14	O	0.980200	0.387700	0.261280	-0.624927
O15	O	0.686800	0.743560	0.079720	-0.413580
O16	O	0.090300	0.108940	0.341340	-0.617482
O17	O	0.287200	0.178240	0.218120	-0.678767
O18	O	0.236300	0.773800	0.579000	-0.617188
O19	O	0.519800	0.738720	0.612300	-0.624927
O20	O	0.813200	0.920280	0.256440	-0.413580
