data_QUDJOP_clean_PM
_symmetry_space_group_name_H-M	'P1'
_cell_length_a	10.101000
_cell_length_b	10.218400
_cell_length_c	21.058000
_cell_angle_alpha	90.000000
_cell_angle_beta	90.000000
_cell_angle_gamma	106.097998
_symmetry_Int_Tables_number 1

loop_
_symmetry_equiv_pos_as_xyz
'x,y,z'

loop_
_atom_site_label
_atom_site_type_symbol
_atom_site_fract_x
_atom_site_fract_y
_atom_site_fract_z
_atom_site_charge
Zn1	Zn	0.899520	0.376890	0.212650	1.043062
Zn2	Zn	0.600480	0.123110	0.712650	1.043062
Zn3	Zn	0.100480	0.623110	0.787350	1.043062
Zn4	Zn	0.399520	0.876890	0.287350	1.043062
H1	H	0.934700	0.658800	0.023600	0.136770
H2	H	0.209600	0.037100	0.129100	0.131203
H3	H	0.861100	0.810600	0.946900	0.118013
H4	H	0.891700	0.284600	0.077800	0.099739
H5	H	0.742100	0.151900	0.006000	0.107813
H6	H	0.466400	0.037600	0.146300	0.124192
H7	H	0.620100	0.178200	0.214400	0.124205
H8	H	0.565300	0.841200	0.523600	0.136770
H9	H	0.290400	0.462900	0.629100	0.131203
H10	H	0.638900	0.689400	0.446900	0.118013
H11	H	0.608300	0.215400	0.577800	0.099739
H12	H	0.757900	0.348100	0.506000	0.107813
H13	H	0.033600	0.462400	0.646300	0.124192
H14	H	0.879900	0.321800	0.714400	0.124205
H15	H	0.065300	0.341200	0.976400	0.136770
H16	H	0.790400	0.962900	0.870900	0.131203
H17	H	0.138900	0.189400	0.053100	0.118013
H18	H	0.108300	0.715400	0.922200	0.099739
H19	H	0.257900	0.848100	0.994000	0.107813
H20	H	0.533600	0.962400	0.853700	0.124192
H21	H	0.379900	0.821800	0.785600	0.124205
H22	H	0.434700	0.158800	0.476400	0.136770
H23	H	0.709600	0.537100	0.370900	0.131203
H24	H	0.361100	0.310600	0.553100	0.118013
H25	H	0.391700	0.784600	0.422200	0.099739
H26	H	0.242100	0.651900	0.494000	0.107813
H27	H	0.966400	0.537600	0.353700	0.124192
H28	H	0.120100	0.678200	0.285600	0.124205
C1	C	0.038300	0.575400	0.122640	0.417956
C2	C	0.062500	0.717100	0.096910	0.065716
C3	C	0.988600	0.735000	0.044590	-0.130374
C4	C	0.992100	0.865800	0.021690	0.044401
C5	C	0.076700	0.983800	0.053810	0.040326
C6	C	0.154100	0.962100	0.107760	-0.105962
C7	C	0.148900	0.835800	0.128650	0.061164
C8	C	0.916500	0.885800	0.968060	-0.146431
C9	C	0.240600	0.816600	0.182290	0.393979
C10	C	0.804700	0.235000	0.091480	0.088614
C11	C	0.716000	0.155200	0.048210	-0.072895
C12	C	0.587100	0.079900	0.068840	0.116163
C13	C	0.552000	0.088000	0.131510	-0.094142
C14	C	0.645100	0.171700	0.172230	0.104488
C15	C	0.461700	0.924600	0.622640	0.417956
C16	C	0.437500	0.782900	0.596910	0.065716
C17	C	0.511400	0.765000	0.544590	-0.130374
C18	C	0.507900	0.634200	0.521690	0.044401
C19	C	0.423300	0.516200	0.553810	0.040326
C20	C	0.345900	0.537900	0.607760	-0.105962
C21	C	0.351100	0.664200	0.628650	0.061164
C22	C	0.583500	0.614200	0.468060	-0.146431
C23	C	0.259400	0.683400	0.682290	0.393979
C24	C	0.695300	0.265000	0.591480	0.088614
C25	C	0.784000	0.344800	0.548210	-0.072895
C26	C	0.912900	0.420100	0.568840	0.116163
C27	C	0.948000	0.412000	0.631510	-0.094142
C28	C	0.854900	0.328300	0.672230	0.104488
C29	C	0.961700	0.424600	0.877360	0.417956
C30	C	0.937500	0.282900	0.903090	0.065716
C31	C	0.011400	0.265000	0.955410	-0.130374
C32	C	0.007900	0.134200	0.978310	0.044401
C33	C	0.923300	0.016200	0.946190	0.040326
C34	C	0.845900	0.037900	0.892240	-0.105962
C35	C	0.851100	0.164200	0.871350	0.061164
C36	C	0.083500	0.114200	0.031940	-0.146431
C37	C	0.759400	0.183400	0.817710	0.393979
C38	C	0.195300	0.765000	0.908520	0.088614
C39	C	0.284000	0.844800	0.951790	-0.072895
C40	C	0.412900	0.920100	0.931160	0.116163
C41	C	0.448000	0.912000	0.868490	-0.094142
C42	C	0.354900	0.828300	0.827770	0.104488
C43	C	0.538300	0.075400	0.377360	0.417956
C44	C	0.562500	0.217100	0.403090	0.065716
C45	C	0.488600	0.235000	0.455410	-0.130374
C46	C	0.492100	0.365800	0.478310	0.044401
C47	C	0.576700	0.483800	0.446190	0.040326
C48	C	0.654100	0.462100	0.392240	-0.105962
C49	C	0.648900	0.335800	0.371350	0.061164
C50	C	0.416500	0.385800	0.531940	-0.146431
C51	C	0.740600	0.316600	0.317710	0.393979
C52	C	0.304700	0.735000	0.408520	0.088614
C53	C	0.216000	0.655200	0.451790	-0.072895
C54	C	0.087100	0.579900	0.431160	0.116163
C55	C	0.052000	0.588000	0.368490	-0.094142
C56	C	0.145100	0.671700	0.327770	0.104488
N1	N	0.770800	0.244100	0.152700	-0.468162
N2	N	0.486200	0.991300	0.028610	-0.133493
N3	N	0.729200	0.255900	0.652700	-0.468162
N4	N	0.013800	0.508700	0.528610	-0.133493
N5	N	0.229200	0.755900	0.847300	-0.468162
N6	N	0.513800	0.008700	0.971390	-0.133493
N7	N	0.270800	0.744100	0.347300	-0.468162
N8	N	0.986200	0.491300	0.471390	-0.133493
O1	O	0.975900	0.558100	0.177140	-0.614102
O2	O	0.067900	0.485000	0.091880	-0.411608
O3	O	0.275300	0.710600	0.186790	-0.403830
O4	O	0.282300	0.918000	0.220170	-0.636803
O5	O	0.524100	0.941900	0.677140	-0.614102
O6	O	0.432100	0.015000	0.591880	-0.411608
O7	O	0.224700	0.789400	0.686790	-0.403830
O8	O	0.217700	0.582000	0.720170	-0.636803
O9	O	0.024100	0.441900	0.822860	-0.614102
O10	O	0.932100	0.515000	0.908120	-0.411608
O11	O	0.724700	0.289400	0.813210	-0.403830
O12	O	0.717700	0.082000	0.779830	-0.636803
O13	O	0.475900	0.058100	0.322860	-0.614102
O14	O	0.567900	0.985000	0.408120	-0.411608
O15	O	0.775300	0.210600	0.313210	-0.403830
O16	O	0.782300	0.418000	0.279830	-0.636803
