data_QUQHAM_clean_PM
_symmetry_space_group_name_H-M	'P1'
_cell_length_a	5.859500
_cell_length_b	11.538200
_cell_length_c	11.538200
_cell_angle_alpha	85.890898
_cell_angle_beta	78.279199
_cell_angle_gamma	78.279000
_symmetry_Int_Tables_number 1

loop_
_symmetry_equiv_pos_as_xyz
'x,y,z'

loop_
_atom_site_label
_atom_site_type_symbol
_atom_site_fract_x
_atom_site_fract_y
_atom_site_fract_z
_atom_site_charge
Cu1	Cu	0.851510	0.008930	0.260130	-2.072254
Cu2	Cu	0.648490	0.739870	0.991070	-2.072255
Cu3	Cu	0.148490	0.991070	0.739870	-2.072254
Cu4	Cu	0.351510	0.260130	0.008930	-2.072255
Cu5	Cu	0.750000	0.008780	0.991220	1.158547
Cu6	Cu	0.250000	0.991220	0.008780	1.158547
H1	H	0.927500	0.138500	0.095100	0.362557
H2	H	0.841800	0.263300	0.458500	0.103674
H3	H	0.166000	0.242600	0.305200	0.146530
H4	H	0.572500	0.904900	0.861500	0.362557
H5	H	0.658200	0.541500	0.736700	0.103674
H6	H	0.334000	0.694800	0.757400	0.146530
H7	H	0.072500	0.861500	0.904900	0.362557
H8	H	0.158200	0.736700	0.541500	0.103674
H9	H	0.834000	0.757400	0.694800	0.146530
H10	H	0.427500	0.095100	0.138500	0.362557
H11	H	0.341800	0.458500	0.263300	0.103674
H12	H	0.666000	0.305200	0.242600	0.146530
C1	C	0.786600	0.138400	0.666000	0.340506
C2	C	0.995300	0.137200	0.565000	0.175766
C3	C	0.979300	0.208300	0.464300	-0.071577
C4	C	0.172600	0.195200	0.373600	0.008759
C5	C	0.380300	0.111800	0.381000	0.137930
C6	C	0.394200	0.044070	0.489110	0.149826
C7	C	0.713400	0.334000	0.861600	0.340503
C8	C	0.504700	0.435000	0.862800	0.175765
C9	C	0.520700	0.535700	0.791700	-0.071577
C10	C	0.327400	0.626400	0.804800	0.008759
C11	C	0.119700	0.619000	0.888200	0.137930
C12	C	0.105800	0.510890	0.955930	0.149828
C13	C	0.213400	0.861600	0.334000	0.340506
C14	C	0.004700	0.862800	0.435000	0.175766
C15	C	0.020700	0.791700	0.535700	-0.071577
C16	C	0.827400	0.804800	0.626400	0.008759
C17	C	0.619700	0.888200	0.619000	0.137930
C18	C	0.605800	0.955930	0.510890	0.149826
C19	C	0.286600	0.666000	0.138400	0.340503
C20	C	0.495300	0.565000	0.137200	0.175765
C21	C	0.479300	0.464300	0.208300	-0.071577
C22	C	0.672600	0.373600	0.195200	0.008759
C23	C	0.880300	0.381000	0.111800	0.137930
C24	C	0.894200	0.489110	0.044070	0.149828
N1	N	0.196400	0.060270	0.577310	0.196696
N2	N	0.303600	0.422690	0.939730	0.196697
N3	N	0.803600	0.939730	0.422690	0.196696
N4	N	0.696400	0.577310	0.060270	0.196697
O1	O	0.933200	0.067010	0.092510	-0.227353
O2	O	0.822900	0.066700	0.752920	0.175001
O3	O	0.593900	0.203080	0.659020	-0.207269
O4	O	0.547000	0.102500	0.283800	0.201933
O5	O	0.566800	0.907490	0.932990	-0.227350
O6	O	0.677100	0.247080	0.933300	0.175001
O7	O	0.906100	0.340980	0.796920	-0.207266
O8	O	0.953000	0.716200	0.897500	0.201932
O9	O	0.066800	0.932990	0.907490	-0.227353
O10	O	0.177100	0.933300	0.247080	0.175001
O11	O	0.406100	0.796920	0.340980	-0.207269
O12	O	0.453000	0.897500	0.716200	0.201933
O13	O	0.433200	0.092510	0.067010	-0.227350
O14	O	0.322900	0.752920	0.066700	0.175001
O15	O	0.093900	0.659020	0.203080	-0.207266
O16	O	0.047000	0.283800	0.102500	0.201932
