data_RAZYIC_clean_PM
_symmetry_space_group_name_H-M	'P1'
_cell_length_a	13.126100
_cell_length_b	17.131500
_cell_length_c	17.131500
_cell_angle_alpha	81.560499
_cell_angle_beta	67.474201
_cell_angle_gamma	67.474301
_symmetry_Int_Tables_number 1

loop_
_symmetry_equiv_pos_as_xyz
'x,y,z'

loop_
_atom_site_label
_atom_site_type_symbol
_atom_site_fract_x
_atom_site_fract_y
_atom_site_fract_z
_atom_site_charge
Cu1	Cu	0.366950	0.250000	0.766100	0.324035
Cu2	Cu	0.883050	0.250000	0.733900	0.324011
Cu3	Cu	0.633050	0.233900	0.750000	0.324038
Cu4	Cu	0.116950	0.266100	0.750000	0.324012
Cu5	Cu	0.633050	0.750000	0.233900	0.324035
Cu6	Cu	0.116950	0.750000	0.266100	0.324011
Cu7	Cu	0.366950	0.766100	0.250000	0.324038
Cu8	Cu	0.883050	0.733900	0.250000	0.324012
H1	H	0.210200	0.182500	0.945700	0.121472
H2	H	0.257300	0.145900	0.856500	0.102052
H3	H	0.267500	0.016000	0.902400	0.120149
H4	H	0.146200	0.075000	0.958600	0.110287
H5	H	0.838400	0.317500	0.554300	0.121464
H6	H	0.759700	0.354100	0.643500	0.102047
H7	H	0.685900	0.484000	0.597600	0.120152
H8	H	0.679800	0.425000	0.541400	0.110301
H9	H	0.655900	0.054300	0.682500	0.121477
H10	H	0.613800	0.143500	0.645900	0.102046
H11	H	0.669900	0.097600	0.516000	0.120135
H12	H	0.604800	0.041400	0.575000	0.110278
H13	H	0.892700	0.445700	0.817500	0.121480
H14	H	0.903200	0.356500	0.854100	0.102071
H15	H	0.783500	0.402400	0.984000	0.120130
H16	H	0.721200	0.458600	0.925000	0.110276
H17	H	0.161600	0.445700	0.682500	0.121468
H18	H	0.240300	0.356500	0.645900	0.102050
H19	H	0.314100	0.402400	0.516000	0.120150
H20	H	0.320200	0.458600	0.575000	0.110299
H21	H	0.789800	0.054300	0.817500	0.121476
H22	H	0.742700	0.143500	0.854100	0.102055
H23	H	0.732500	0.097600	0.984000	0.120148
H24	H	0.853800	0.041400	0.925000	0.110286
H25	H	0.107300	0.182500	0.554300	0.121478
H26	H	0.096800	0.145900	0.643500	0.102070
H27	H	0.216500	0.016000	0.597600	0.120130
H28	H	0.278800	0.075000	0.541400	0.110277
H29	H	0.344100	0.317500	0.945700	0.121475
H30	H	0.386200	0.354100	0.856500	0.102046
H31	H	0.330100	0.484000	0.902400	0.120135
H32	H	0.395200	0.425000	0.958600	0.110279
H33	H	0.789800	0.817500	0.054300	0.121472
H34	H	0.742700	0.854100	0.143500	0.102052
H35	H	0.732500	0.984000	0.097600	0.120149
H36	H	0.853800	0.925000	0.041400	0.110287
H37	H	0.161600	0.682500	0.445700	0.121464
H38	H	0.240300	0.645900	0.356500	0.102047
H39	H	0.314100	0.516000	0.402400	0.120152
H40	H	0.320200	0.575000	0.458600	0.110301
H41	H	0.344100	0.945700	0.317500	0.121477
H42	H	0.386200	0.856500	0.354100	0.102046
H43	H	0.330100	0.902400	0.484000	0.120135
H44	H	0.395200	0.958600	0.425000	0.110278
H45	H	0.107300	0.554300	0.182500	0.121480
H46	H	0.096800	0.643500	0.145900	0.102071
H47	H	0.216500	0.597600	0.016000	0.120130
H48	H	0.278800	0.541400	0.075000	0.110276
H49	H	0.838400	0.554300	0.317500	0.121468
H50	H	0.759700	0.643500	0.354100	0.102050
H51	H	0.685900	0.597600	0.484000	0.120150
H52	H	0.679800	0.541400	0.425000	0.110299
H53	H	0.210200	0.945700	0.182500	0.121476
H54	H	0.257300	0.856500	0.145900	0.102055
H55	H	0.267500	0.902400	0.016000	0.120148
H56	H	0.146200	0.958600	0.075000	0.110286
H57	H	0.892700	0.817500	0.445700	0.121478
H58	H	0.903200	0.854100	0.356500	0.102070
H59	H	0.783500	0.984000	0.402400	0.120130
H60	H	0.721200	0.925000	0.458600	0.110277
H61	H	0.655900	0.682500	0.054300	0.121475
H62	H	0.613800	0.645900	0.143500	0.102046
H63	H	0.669900	0.516000	0.097600	0.120135
H64	H	0.604800	0.575000	0.041400	0.110279
H65	H	0.207800	0.065100	0.065100	0.080572
H66	H	0.838000	0.434900	0.434900	0.080572
H67	H	0.772900	0.934900	0.565100	0.080573
H68	H	0.772900	0.565100	0.934900	0.080573
H69	H	0.162000	0.565100	0.565100	0.080572
H70	H	0.792200	0.934900	0.934900	0.080572
H71	H	0.227100	0.065100	0.434900	0.080573
H72	H	0.227100	0.434900	0.065100	0.080573
C1	C	0.386700	0.119500	0.901700	0.123113
C2	C	0.441300	0.059100	0.952700	0.009005
C3	C	0.263200	0.134300	0.911100	-0.226882
C4	C	0.229800	0.058500	0.944700	-0.281625
C5	C	0.907900	0.380500	0.598300	0.123111
C6	C	0.953100	0.440900	0.547300	0.008985
C7	C	0.808600	0.365700	0.588900	-0.226850
C8	C	0.733000	0.441500	0.555300	-0.281658
C9	C	0.788400	0.098300	0.619500	0.123122
C10	C	0.894000	0.047300	0.559100	0.008991
C11	C	0.674300	0.088900	0.634300	-0.226908
C12	C	0.674500	0.055300	0.558500	-0.281566
C13	C	0.006200	0.401700	0.880500	0.123159
C14	C	0.000400	0.452700	0.940900	0.008973
C15	C	0.897500	0.411100	0.865700	-0.226971
C16	C	0.788300	0.444700	0.941500	-0.281542
C17	C	0.092100	0.401700	0.619500	0.123114
C18	C	0.046900	0.452700	0.559100	0.008985
C19	C	0.191400	0.411100	0.634300	-0.226863
C20	C	0.267000	0.444700	0.558500	-0.281649
C21	C	0.613300	0.098300	0.880500	0.123115
C22	C	0.558700	0.047300	0.940900	0.009005
C23	C	0.736800	0.088900	0.865700	-0.226896
C24	C	0.770200	0.055300	0.941500	-0.281616
C25	C	0.993800	0.119500	0.598300	0.123158
C26	C	0.999600	0.059100	0.547300	0.008973
C27	C	0.102500	0.134300	0.588900	-0.226967
C28	C	0.211700	0.058500	0.555300	-0.281544
C29	C	0.211600	0.380500	0.901700	0.123121
C30	C	0.106000	0.440900	0.952700	0.008991
C31	C	0.325700	0.365700	0.911100	-0.226903
C32	C	0.325500	0.441500	0.944700	-0.281569
C33	C	0.613300	0.880500	0.098300	0.123113
C34	C	0.558700	0.940900	0.047300	0.009005
C35	C	0.736800	0.865700	0.088900	-0.226882
C36	C	0.770200	0.941500	0.055300	-0.281625
C37	C	0.092100	0.619500	0.401700	0.123111
C38	C	0.046900	0.559100	0.452700	0.008985
C39	C	0.191400	0.634300	0.411100	-0.226850
C40	C	0.267000	0.558500	0.444700	-0.281658
C41	C	0.211600	0.901700	0.380500	0.123122
C42	C	0.106000	0.952700	0.440900	0.008991
C43	C	0.325700	0.911100	0.365700	-0.226908
C44	C	0.325500	0.944700	0.441500	-0.281566
C45	C	0.993800	0.598300	0.119500	0.123159
C46	C	0.999600	0.547300	0.059100	0.008973
C47	C	0.102500	0.588900	0.134300	-0.226971
C48	C	0.211700	0.555300	0.058500	-0.281542
C49	C	0.907900	0.598300	0.380500	0.123114
C50	C	0.953100	0.547300	0.440900	0.008985
C51	C	0.808600	0.588900	0.365700	-0.226863
C52	C	0.733000	0.555300	0.441500	-0.281649
C53	C	0.386700	0.901700	0.119500	0.123115
C54	C	0.441300	0.952700	0.059100	0.009005
C55	C	0.263200	0.911100	0.134300	-0.226896
C56	C	0.229800	0.944700	0.058500	-0.281616
C57	C	0.006200	0.880500	0.401700	0.123158
C58	C	0.000400	0.940900	0.452700	0.008973
C59	C	0.897500	0.865700	0.411100	-0.226967
C60	C	0.788300	0.941500	0.444700	-0.281544
C61	C	0.788400	0.619500	0.098300	0.123121
C62	C	0.894000	0.559100	0.047300	0.008991
C63	C	0.674300	0.634300	0.088900	-0.226903
C64	C	0.674500	0.558500	0.055300	-0.281569
C65	C	0.380700	0.011500	0.011500	-0.002662
C66	C	0.256700	0.022800	0.022800	0.030940
C67	C	0.903700	0.488500	0.488500	-0.002622
C68	C	0.802300	0.477200	0.477200	0.030942
C69	C	0.892200	0.988500	0.511500	-0.002604
C70	C	0.779500	0.977200	0.522800	0.030894
C71	C	0.892200	0.511500	0.988500	-0.002604
C72	C	0.779500	0.522800	0.977200	0.030894
C73	C	0.096300	0.511500	0.511500	-0.002622
C74	C	0.197700	0.522800	0.522800	0.030942
C75	C	0.619300	0.988500	0.988500	-0.002662
C76	C	0.743300	0.977200	0.977200	0.030940
C77	C	0.107800	0.011500	0.488500	-0.002604
C78	C	0.220500	0.022800	0.477200	0.030894
C79	C	0.107800	0.488500	0.011500	-0.002604
C80	C	0.220500	0.477200	0.022800	0.030894
I1	I	0.500000	0.332780	0.667220	-0.099292
I2	I	0.000000	0.167220	0.832780	-0.099285
I3	I	0.667220	0.332780	0.832780	-0.099291
I4	I	0.332780	0.167220	0.667220	-0.099291
I5	I	0.500000	0.667220	0.332780	-0.099292
I6	I	0.000000	0.832780	0.167220	-0.099285
I7	I	0.332780	0.667220	0.167220	-0.099291
I8	I	0.667220	0.832780	0.332780	-0.099291
N1	N	0.441600	0.165100	0.845700	-0.244365
N2	N	0.952400	0.334900	0.654300	-0.244357
N3	N	0.787300	0.154300	0.665100	-0.244382
N4	N	0.106700	0.345700	0.834900	-0.244372
N5	N	0.047600	0.345700	0.665100	-0.244358
N6	N	0.558400	0.154300	0.834900	-0.244366
N7	N	0.893300	0.165100	0.654300	-0.244372
N8	N	0.212700	0.334900	0.845700	-0.244382
N9	N	0.558400	0.834900	0.154300	-0.244365
N10	N	0.047600	0.665100	0.345700	-0.244357
N11	N	0.212700	0.845700	0.334900	-0.244382
N12	N	0.893300	0.654300	0.165100	-0.244372
N13	N	0.952400	0.654300	0.334900	-0.244358
N14	N	0.441600	0.845700	0.165100	-0.244366
N15	N	0.106700	0.834900	0.345700	-0.244372
N16	N	0.787300	0.665100	0.154300	-0.244382
