data_RIBTAZ_clean_PM
_symmetry_space_group_name_H-M	'P1'
_cell_length_a	16.000000
_cell_length_b	19.198000
_cell_length_c	21.411000
_cell_angle_alpha	90.000000
_cell_angle_beta	90.000000
_cell_angle_gamma	99.861000
_symmetry_Int_Tables_number 1

loop_
_symmetry_equiv_pos_as_xyz
'x,y,z'

loop_
_atom_site_label
_atom_site_type_symbol
_atom_site_fract_x
_atom_site_fract_y
_atom_site_fract_z
_atom_site_charge
Cu1	Cu	0.638770	0.978090	0.350950	-2.075282
Cu2	Cu	0.510470	0.904160	0.227950	1.087087
Cu3	Cu	0.687440	0.870600	0.261570	1.147213
Cu4	Cu	0.812680	0.914640	0.374100	1.158662
Cu5	Cu	0.361230	0.521910	0.850950	-2.075282
Cu6	Cu	0.489530	0.595840	0.727950	1.087087
Cu7	Cu	0.312560	0.629400	0.761570	1.147213
Cu8	Cu	0.187320	0.585360	0.874100	1.158662
Cu9	Cu	0.361230	0.021910	0.649050	-2.075291
Cu10	Cu	0.489530	0.095840	0.772060	1.087084
Cu11	Cu	0.312560	0.129400	0.738430	1.147217
Cu12	Cu	0.187320	0.085360	0.625900	1.158661
Cu13	Cu	0.638770	0.478090	0.149050	-2.075291
Cu14	Cu	0.510470	0.404160	0.272060	1.087084
Cu15	Cu	0.687440	0.370600	0.238430	1.147217
Cu16	Cu	0.812680	0.414640	0.125900	1.158661
H1	H	0.122600	0.036800	0.337600	0.209365
H2	H	0.048400	0.167800	0.128700	0.211018
H3	H	0.177300	0.034400	0.435900	0.122246
H4	H	0.310000	0.988300	0.287900	0.133969
H5	H	0.410200	0.987700	0.460500	0.144223
H6	H	0.957700	0.250200	0.158600	0.130773
H7	H	0.319500	0.035000	0.137100	0.209092
H8	H	0.947800	0.061900	0.242900	0.135896
H9	H	0.201200	0.126400	0.037700	0.120120
H10	H	0.233400	0.145300	0.934100	0.127118
H11	H	0.443900	0.063100	0.955700	0.107818
H12	H	0.407400	0.036400	0.057600	0.107302
H13	H	0.763900	0.175700	0.273500	0.156402
H14	H	0.877400	0.463200	0.837600	0.209365
H15	H	0.951600	0.332200	0.628700	0.211018
H16	H	0.822700	0.465600	0.935900	0.122246
H17	H	0.690000	0.511700	0.787900	0.133969
H18	H	0.589800	0.512300	0.960500	0.144223
H19	H	0.042300	0.249800	0.658600	0.130773
H20	H	0.680500	0.465000	0.637100	0.209092
H21	H	0.052200	0.438100	0.742900	0.135896
H22	H	0.798800	0.373600	0.537700	0.120120
H23	H	0.766600	0.354700	0.434100	0.127118
H24	H	0.556100	0.436900	0.455700	0.107818
H25	H	0.592600	0.463600	0.557600	0.107302
H26	H	0.236100	0.324300	0.773500	0.156402
H27	H	0.877400	0.963200	0.662400	0.209365
H28	H	0.951600	0.832200	0.871300	0.211018
H29	H	0.822700	0.965600	0.564100	0.122246
H30	H	0.690000	0.011700	0.712100	0.133967
H31	H	0.589800	0.012300	0.539500	0.144223
H32	H	0.042300	0.749800	0.841400	0.130773
H33	H	0.680500	0.965000	0.862900	0.209089
H34	H	0.052200	0.938100	0.757100	0.135896
H35	H	0.798800	0.873600	0.962300	0.120121
H36	H	0.766600	0.854700	0.065900	0.127118
H37	H	0.556100	0.936900	0.044300	0.107817
H38	H	0.592600	0.963600	0.942400	0.107300
H39	H	0.236100	0.824300	0.726500	0.156402
H40	H	0.122600	0.536800	0.162400	0.209365
H41	H	0.048400	0.667800	0.371300	0.211018
H42	H	0.177300	0.534400	0.064100	0.122246
H43	H	0.310000	0.488300	0.212100	0.133967
H44	H	0.410200	0.487700	0.039500	0.144223
H45	H	0.957700	0.750200	0.341400	0.130773
H46	H	0.319500	0.535000	0.362900	0.209089
H47	H	0.947800	0.561900	0.257100	0.135896
H48	H	0.201200	0.626400	0.462300	0.120121
H49	H	0.233400	0.645300	0.565900	0.127118
H50	H	0.443900	0.563100	0.544300	0.107817
H51	H	0.407400	0.536400	0.442400	0.107300
H52	H	0.763900	0.675700	0.226500	0.156402
C1	C	0.966190	0.154700	0.197430	0.124377
C2	C	0.226880	0.023030	0.419200	-0.094517
C3	C	0.169080	0.058700	0.257830	0.293045
C4	C	0.104490	0.113610	0.184470	0.291742
C5	C	0.306000	0.995860	0.330670	-0.034336
C6	C	0.291190	0.010650	0.459070	0.040733
C7	C	0.235210	0.018770	0.355060	0.124036
C8	C	0.221920	0.071410	0.161220	0.292398
C9	C	0.365340	0.993170	0.434390	-0.117105
C10	C	0.930940	0.215470	0.185590	-0.081885
C11	C	0.299800	0.077820	0.058460	0.152906
C12	C	0.924480	0.102320	0.235490	-0.056410
C13	C	0.249100	0.111900	0.021070	-0.079939
C14	C	0.282890	0.019750	0.528600	0.385801
C15	C	0.269400	0.124200	0.959200	-0.043908
C16	C	0.342190	0.106040	0.933200	0.055333
C17	C	0.393800	0.074400	0.971580	0.001654
C18	C	0.363100	0.116280	0.865540	0.518773
C19	C	0.372600	0.059300	0.033000	-0.159190
C20	C	0.854730	0.223020	0.215070	0.063883
C21	C	0.847360	0.109400	0.263140	0.019381
C22	C	0.798300	0.048260	0.298930	0.346765
C23	C	0.814090	0.170220	0.253680	-0.075451
C24	C	0.817100	0.288940	0.203630	0.520578
C25	C	0.371670	0.984080	0.370630	0.039144
C26	C	0.450310	0.963360	0.342580	0.398369
C27	C	0.033810	0.345300	0.697430	0.124377
C28	C	0.773120	0.476970	0.919200	-0.094517
C29	C	0.830920	0.441300	0.757830	0.293045
C30	C	0.895510	0.386390	0.684470	0.291742
C31	C	0.694000	0.504140	0.830670	-0.034336
C32	C	0.708810	0.489350	0.959070	0.040733
C33	C	0.764790	0.481230	0.855060	0.124036
C34	C	0.778080	0.428590	0.661220	0.292398
C35	C	0.634660	0.506830	0.934390	-0.117105
C36	C	0.069060	0.284530	0.685590	-0.081885
C37	C	0.700200	0.422180	0.558460	0.152906
C38	C	0.075520	0.397680	0.735490	-0.056410
C39	C	0.750900	0.388100	0.521070	-0.079939
C40	C	0.717110	0.480250	0.028600	0.385801
C41	C	0.730600	0.375800	0.459200	-0.043908
C42	C	0.657810	0.393960	0.433200	0.055333
C43	C	0.606200	0.425600	0.471580	0.001654
C44	C	0.636900	0.383720	0.365540	0.518773
C45	C	0.627400	0.440700	0.533000	-0.159190
C46	C	0.145270	0.276980	0.715070	0.063883
C47	C	0.152640	0.390600	0.763140	0.019381
C48	C	0.201700	0.451740	0.798930	0.346765
C49	C	0.185910	0.329780	0.753680	-0.075451
C50	C	0.182900	0.211060	0.703630	0.520578
C51	C	0.628330	0.515920	0.870630	0.039144
C52	C	0.549690	0.536640	0.842580	0.398369
C53	C	0.033810	0.845300	0.802570	0.124377
C54	C	0.773120	0.976970	0.580800	-0.094516
C55	C	0.830920	0.941300	0.742170	0.293046
C56	C	0.895510	0.886390	0.815530	0.291742
C57	C	0.694000	0.004140	0.669330	-0.034344
C58	C	0.708810	0.989350	0.540930	0.040732
C59	C	0.764790	0.981230	0.644940	0.124038
C60	C	0.778080	0.928590	0.838780	0.292397
C61	C	0.634660	0.006830	0.565610	-0.117103
C62	C	0.069060	0.784530	0.814410	-0.081885
C63	C	0.700200	0.922180	0.941540	0.152906
C64	C	0.075520	0.897680	0.764510	-0.056410
C65	C	0.750900	0.888100	0.978930	-0.079941
C66	C	0.717110	0.980250	0.471400	0.385801
C67	C	0.730600	0.875800	0.040800	-0.043905
C68	C	0.657810	0.893960	0.066800	0.055330
C69	C	0.606200	0.925600	0.028420	0.001653
C70	C	0.636900	0.883720	0.134460	0.518746
C71	C	0.627400	0.940700	0.967000	-0.159191
C72	C	0.145270	0.776980	0.784930	0.063883
C73	C	0.152640	0.890600	0.736860	0.019381
C74	C	0.201700	0.951740	0.701070	0.346766
C75	C	0.185910	0.829780	0.746320	-0.075452
C76	C	0.182900	0.711060	0.796370	0.520578
C77	C	0.628330	0.015920	0.629370	0.039143
C78	C	0.549690	0.036640	0.657420	0.398355
C79	C	0.966190	0.654700	0.302570	0.124377
C80	C	0.226880	0.523030	0.080800	-0.094516
C81	C	0.169080	0.558700	0.242170	0.293046
C82	C	0.104490	0.613610	0.315530	0.291742
C83	C	0.306000	0.495860	0.169330	-0.034344
C84	C	0.291190	0.510650	0.040930	0.040732
C85	C	0.235210	0.518770	0.144940	0.124038
C86	C	0.221920	0.571410	0.338780	0.292397
C87	C	0.365340	0.493170	0.065610	-0.117103
C88	C	0.930940	0.715470	0.314410	-0.081885
C89	C	0.299800	0.577820	0.441540	0.152906
C90	C	0.924480	0.602320	0.264510	-0.056410
C91	C	0.249100	0.611900	0.478930	-0.079941
C92	C	0.282890	0.519750	0.971400	0.385801
C93	C	0.269400	0.624200	0.540800	-0.043905
C94	C	0.342190	0.606040	0.566800	0.055330
C95	C	0.393800	0.574400	0.528420	0.001653
C96	C	0.363100	0.616280	0.634460	0.518746
C97	C	0.372600	0.559300	0.467000	-0.159191
C98	C	0.854730	0.723020	0.284930	0.063883
C99	C	0.847360	0.609400	0.236860	0.019381
C100	C	0.798300	0.548260	0.201070	0.346766
C101	C	0.814090	0.670220	0.246320	-0.075452
C102	C	0.817100	0.788940	0.296370	0.520578
C103	C	0.371670	0.484080	0.129370	0.039143
C104	C	0.450310	0.463360	0.157420	0.398355
N1	N	0.229680	0.046070	0.218950	-0.255939
N2	N	0.163150	0.107600	0.141150	-0.256209
N3	N	0.103330	0.090850	0.243520	-0.250627
N4	N	0.170050	0.038190	0.318310	-0.411770
N5	N	0.041690	0.147980	0.164760	-0.411309
N6	N	0.283860	0.058840	0.121140	-0.405692
N7	N	0.770320	0.453930	0.718950	-0.255939
N8	N	0.836850	0.392400	0.641150	-0.256209
N9	N	0.896670	0.409150	0.743520	-0.250627
N10	N	0.829950	0.461810	0.818310	-0.411770
N11	N	0.958310	0.352020	0.664760	-0.411309
N12	N	0.716140	0.441160	0.621140	-0.405692
N13	N	0.770320	0.953930	0.781050	-0.255941
N14	N	0.836850	0.892400	0.858850	-0.256209
N15	N	0.896670	0.909150	0.756480	-0.250627
N16	N	0.829950	0.961810	0.681690	-0.411770
N17	N	0.958310	0.852020	0.835240	-0.411309
N18	N	0.716140	0.941160	0.878860	-0.405693
N19	N	0.229680	0.546070	0.281050	-0.255941
N20	N	0.163150	0.607600	0.358850	-0.256209
N21	N	0.103330	0.590850	0.256480	-0.250627
N22	N	0.170050	0.538190	0.181690	-0.411770
N23	N	0.041690	0.647980	0.335240	-0.411309
N24	N	0.283860	0.558840	0.378860	-0.405693
O1	O	0.343960	0.006770	0.561380	0.209212
O2	O	0.216450	0.038920	0.548150	-0.594181
O3	O	0.306600	0.129670	0.828850	-0.647623
O4	O	0.437450	0.110540	0.850620	-0.823825
O5	O	0.730820	0.058650	0.325340	0.175275
O6	O	0.824290	0.990210	0.297500	-0.520825
O7	O	0.757530	0.297890	0.239310	-0.662781
O8	O	0.847870	0.328630	0.160850	-0.752355
O9	O	0.695540	0.885080	0.351490	-0.084296
O10	O	0.619350	0.949510	0.263130	0.035750
O11	O	0.517730	0.979620	0.370950	0.188248
O12	O	0.439570	0.930040	0.292340	-0.690319
O13	O	0.656040	0.493230	0.061380	0.209212
O14	O	0.783550	0.461080	0.048150	-0.594181
O15	O	0.693400	0.370330	0.328850	-0.647623
O16	O	0.562550	0.389460	0.350620	-0.823825
O17	O	0.269180	0.441350	0.825340	0.175275
O18	O	0.175710	0.509790	0.797500	-0.520825
O19	O	0.242470	0.202110	0.739310	-0.662781
O20	O	0.152130	0.171370	0.660850	-0.752355
O21	O	0.304460	0.614920	0.851490	-0.084296
O22	O	0.380650	0.550490	0.763130	0.035750
O23	O	0.482270	0.520380	0.870950	0.188248
O24	O	0.560430	0.569960	0.792340	-0.690319
O25	O	0.656040	0.993230	0.438620	0.209210
O26	O	0.783550	0.961080	0.451850	-0.594181
O27	O	0.693400	0.870330	0.171150	-0.647621
O28	O	0.562550	0.889460	0.149380	-0.823731
O29	O	0.269180	0.941350	0.674660	0.175276
O30	O	0.175710	0.009790	0.702500	-0.520826
O31	O	0.242470	0.702110	0.760690	-0.662781
O32	O	0.152130	0.671370	0.839150	-0.752354
O33	O	0.304460	0.114920	0.648510	-0.084286
O34	O	0.380650	0.050490	0.736870	0.035765
O35	O	0.482270	0.020380	0.629050	0.188253
O36	O	0.560430	0.069960	0.707660	-0.690247
O37	O	0.343960	0.506770	0.938620	0.209210
O38	O	0.216450	0.538920	0.951850	-0.594181
O39	O	0.306600	0.629670	0.671150	-0.647621
O40	O	0.437450	0.610540	0.649380	-0.823731
O41	O	0.730820	0.558650	0.174660	0.175276
O42	O	0.824290	0.490210	0.202500	-0.520826
O43	O	0.757530	0.797890	0.260690	-0.662781
O44	O	0.847870	0.828630	0.339150	-0.752354
O45	O	0.695540	0.385080	0.148510	-0.084286
O46	O	0.619350	0.449510	0.236870	0.035765
O47	O	0.517730	0.479620	0.129050	0.188253
O48	O	0.439570	0.430040	0.207660	-0.690247
