data_ROGSAI_clean_PM
_symmetry_space_group_name_H-M	'P1'
_cell_length_a	11.077000
_cell_length_b	13.433600
_cell_length_c	14.815600
_cell_angle_alpha	99.046000
_cell_angle_beta	90.000000
_cell_angle_gamma	90.000000
_symmetry_Int_Tables_number 1

loop_
_symmetry_equiv_pos_as_xyz
'x,y,z'

loop_
_atom_site_label
_atom_site_type_symbol
_atom_site_fract_x
_atom_site_fract_y
_atom_site_fract_z
_atom_site_charge
Ni1	Ni	0.998630	0.888250	0.956530	1.436491
Ni2	Ni	0.148190	0.092480	0.864880	1.258974
Ni3	Ni	0.498630	0.611750	0.043470	1.436491
Ni4	Ni	0.648190	0.407520	0.135120	1.258974
Ni5	Ni	0.001370	0.111750	0.043470	1.436491
Ni6	Ni	0.851810	0.907520	0.135120	1.258974
Ni7	Ni	0.501370	0.388250	0.956530	1.436491
Ni8	Ni	0.351810	0.592480	0.864880	1.258974
H1	H	0.062100	0.962500	0.114300	0.717345
H2	H	0.366000	0.927400	0.047100	0.124989
H3	H	0.397500	0.090000	0.946900	0.122356
H4	H	0.497300	0.911800	0.878100	0.121585
H5	H	0.104300	0.193100	0.700500	0.102443
H6	H	0.055500	0.157400	0.551000	0.093502
H7	H	0.008700	0.876300	0.582000	0.094060
H8	H	0.071700	0.918400	0.729200	0.110232
H9	H	0.562100	0.537500	0.885700	0.717345
H10	H	0.866000	0.572600	0.952900	0.124989
H11	H	0.897500	0.410000	0.053100	0.122356
H12	H	0.997300	0.588200	0.121900	0.121585
H13	H	0.604300	0.306900	0.299500	0.102443
H14	H	0.555500	0.342600	0.449000	0.093502
H15	H	0.508700	0.623700	0.418000	0.094060
H16	H	0.571700	0.581600	0.270800	0.110232
H17	H	0.937900	0.037500	0.885700	0.717345
H18	H	0.634000	0.072600	0.952900	0.124989
H19	H	0.602500	0.910000	0.053100	0.122356
H20	H	0.502700	0.088200	0.121900	0.121585
H21	H	0.895700	0.806900	0.299500	0.102443
H22	H	0.944500	0.842600	0.449000	0.093502
H23	H	0.991300	0.123700	0.418000	0.094060
H24	H	0.928300	0.081600	0.270800	0.110232
H25	H	0.437900	0.462500	0.114300	0.717345
H26	H	0.134000	0.427400	0.047100	0.124989
H27	H	0.102500	0.590000	0.946900	0.122356
H28	H	0.002700	0.411800	0.878100	0.121585
H29	H	0.395700	0.693100	0.700500	0.102443
H30	H	0.444500	0.657400	0.551000	0.093502
H31	H	0.491300	0.376300	0.582000	0.094060
H32	H	0.428300	0.418400	0.729200	0.110232
C1	C	0.378200	0.951000	0.988500	-0.073603
C2	C	0.393800	0.066700	0.006300	-0.080222
C3	C	0.491500	0.898100	0.941000	-0.017462
C4	C	0.264400	0.926100	0.929000	0.454665
C5	C	0.280800	0.111300	0.055600	0.416668
C6	C	0.475500	0.785000	0.940900	0.496284
C7	C	0.087600	0.126400	0.676000	0.106071
C8	C	0.054600	0.106100	0.586400	-0.135839
C9	C	0.020500	0.011800	0.548300	0.054526
C10	C	0.028900	0.942900	0.603700	-0.142945
C11	C	0.067300	0.969100	0.693200	0.125469
C12	C	0.878200	0.549000	0.011500	-0.073603
C13	C	0.893800	0.433300	0.993700	-0.080222
C14	C	0.991500	0.601900	0.059000	-0.017462
C15	C	0.764400	0.573900	0.071000	0.454665
C16	C	0.780800	0.388700	0.944400	0.416668
C17	C	0.975500	0.715000	0.059100	0.496284
C18	C	0.587600	0.373600	0.324000	0.106071
C19	C	0.554600	0.393900	0.413600	-0.135839
C20	C	0.520500	0.488200	0.451700	0.054526
C21	C	0.528900	0.557100	0.396300	-0.142945
C22	C	0.567300	0.530900	0.306800	0.125469
C23	C	0.621800	0.049000	0.011500	-0.073603
C24	C	0.606200	0.933300	0.993700	-0.080222
C25	C	0.508500	0.101900	0.059000	-0.017462
C26	C	0.735600	0.073900	0.071000	0.454665
C27	C	0.719200	0.888700	0.944400	0.416668
C28	C	0.524500	0.215000	0.059100	0.496284
C29	C	0.912400	0.873600	0.324000	0.106071
C30	C	0.945400	0.893900	0.413600	-0.135839
C31	C	0.979500	0.988200	0.451700	0.054526
C32	C	0.971100	0.057100	0.396300	-0.142945
C33	C	0.932700	0.030900	0.306800	0.125469
C34	C	0.121800	0.451000	0.988500	-0.073603
C35	C	0.106200	0.566700	0.006300	-0.080222
C36	C	0.008500	0.398100	0.941000	-0.017462
C37	C	0.235600	0.426100	0.929000	0.454665
C38	C	0.219200	0.611300	0.055600	0.416668
C39	C	0.024500	0.285000	0.940900	0.496284
C40	C	0.412400	0.626400	0.676000	0.106071
C41	C	0.445400	0.606100	0.586400	-0.135839
C42	C	0.479500	0.511800	0.548300	0.054526
C43	C	0.471100	0.442900	0.603700	-0.142945
C44	C	0.432700	0.469100	0.693200	0.125469
N1	N	0.097200	0.058600	0.729700	-0.405581
N2	N	0.597200	0.441400	0.270300	-0.405581
N3	N	0.902800	0.941400	0.270300	-0.405581
N4	N	0.402800	0.558600	0.729700	-0.405581
O1	O	0.185700	0.873200	0.958900	-0.429648
O2	O	0.256000	0.962200	0.855400	-0.573084
O3	O	0.186500	0.113000	0.006500	-0.605734
O4	O	0.282000	0.141000	0.138800	-0.333862
O5	O	0.425900	0.734500	0.872800	-0.572676
O6	O	0.509400	0.751700	0.010500	-0.609673
O7	O	0.998400	0.972500	0.085000	-1.855331
O8	O	0.685700	0.626800	0.041100	-0.429648
O9	O	0.756000	0.537800	0.144600	-0.573084
O10	O	0.686500	0.387000	0.993500	-0.605734
O11	O	0.782000	0.359000	0.861200	-0.333862
O12	O	0.925900	0.765500	0.127200	-0.572676
O13	O	0.009400	0.748300	0.989500	-0.609673
O14	O	0.498400	0.527500	0.915000	-1.855331
O15	O	0.814300	0.126800	0.041100	-0.429648
O16	O	0.744000	0.037800	0.144600	-0.573084
O17	O	0.813500	0.887000	0.993500	-0.605734
O18	O	0.718000	0.859000	0.861200	-0.333862
O19	O	0.574100	0.265500	0.127200	-0.572676
O20	O	0.490600	0.248300	0.989500	-0.609673
O21	O	0.001600	0.027500	0.915000	-1.855331
O22	O	0.314300	0.373200	0.958900	-0.429648
O23	O	0.244000	0.462200	0.855400	-0.573084
O24	O	0.313500	0.613000	0.006500	-0.605734
O25	O	0.218000	0.641000	0.138800	-0.333862
O26	O	0.074100	0.234500	0.872800	-0.572676
O27	O	0.990600	0.251700	0.010500	-0.609673
O28	O	0.501600	0.472500	0.085000	-1.855331
