data_TAPHOJ_clean_PM
_symmetry_space_group_name_H-M	'P1'
_cell_length_a	9.856100
_cell_length_b	11.953800
_cell_length_c	22.846300
_cell_angle_alpha	90.000000
_cell_angle_beta	95.506002
_cell_angle_gamma	90.000000
_symmetry_Int_Tables_number 1

loop_
_symmetry_equiv_pos_as_xyz
'x,y,z'

loop_
_atom_site_label
_atom_site_type_symbol
_atom_site_fract_x
_atom_site_fract_y
_atom_site_fract_z
_atom_site_charge
Zn1	Zn	0.734650	0.219900	0.963340	1.115188
Zn2	Zn	0.234650	0.280100	0.463350	1.115190
Zn3	Zn	0.765350	0.719900	0.536660	1.115188
Zn4	Zn	0.265350	0.780100	0.036660	1.115188
H1	H	0.406000	0.548000	0.742600	0.200283
H2	H	0.576600	0.988700	0.785500	0.108307
H3	H	0.591300	0.143200	0.846500	0.086039
H4	H	0.870800	0.997000	0.955300	0.112326
H5	H	0.862800	0.838000	0.897100	0.096713
H6	H	0.749900	0.728400	0.819100	0.085940
H7	H	0.776800	0.806500	0.764600	0.106567
H8	H	0.648000	0.728000	0.689600	0.119558
H9	H	0.636000	0.621900	0.731600	0.093485
H10	H	0.407500	0.735800	0.672500	0.113566
H11	H	0.463400	0.617100	0.652400	0.109134
H12	H	0.544500	0.644700	0.825400	0.096344
H13	H	0.488400	0.764500	0.843300	0.091133
H14	H	0.307100	0.751800	0.768400	0.075490
H15	H	0.304800	0.644200	0.810200	0.077170
H16	H	0.186500	0.527900	0.731700	0.079523
H17	H	0.175000	0.640200	0.693500	0.081839
H18	H	0.114300	0.609100	0.594900	0.110698
H19	H	0.121600	0.504800	0.509500	0.082594
H20	H	0.357400	0.376600	0.680400	0.087709
H21	H	0.431800	0.483400	0.080300	0.134287
H22	H	0.284400	0.234900	0.971100	0.128970
H23	H	0.024800	0.429800	0.053100	0.145585
H24	H	0.354800	0.278500	0.593200	0.102988
H25	H	0.906000	0.952000	0.242600	0.200283
H26	H	0.076600	0.511300	0.285500	0.108308
H27	H	0.091300	0.356800	0.346500	0.086043
H28	H	0.370800	0.503000	0.455300	0.112326
H29	H	0.362800	0.662000	0.397100	0.096714
H30	H	0.249900	0.771600	0.319100	0.085940
H31	H	0.276800	0.693500	0.264600	0.106567
H32	H	0.148000	0.772000	0.189600	0.119558
H33	H	0.136000	0.878100	0.231600	0.093485
H34	H	0.907500	0.764200	0.172500	0.113566
H35	H	0.963400	0.882900	0.152400	0.109134
H36	H	0.044500	0.855300	0.325400	0.096344
H37	H	0.988400	0.735500	0.343300	0.091133
H38	H	0.807100	0.748200	0.268400	0.075490
H39	H	0.804800	0.855800	0.310200	0.077170
H40	H	0.686500	0.972100	0.231700	0.079523
H41	H	0.675000	0.859800	0.193500	0.081839
H42	H	0.614300	0.890900	0.094900	0.110699
H43	H	0.621600	0.995200	0.009500	0.082596
H44	H	0.857400	0.123400	0.180400	0.087711
H45	H	0.931800	0.016600	0.580300	0.134287
H46	H	0.784400	0.265100	0.471100	0.128971
H47	H	0.524800	0.070200	0.553100	0.145586
H48	H	0.854800	0.221500	0.093200	0.102992
H49	H	0.094000	0.048000	0.757400	0.200284
H50	H	0.923400	0.488700	0.714500	0.108307
H51	H	0.908700	0.643200	0.653500	0.086039
H52	H	0.629200	0.497000	0.544700	0.112326
H53	H	0.637200	0.338000	0.602900	0.096713
H54	H	0.750100	0.228400	0.680900	0.085940
H55	H	0.723200	0.306500	0.735400	0.106567
H56	H	0.852000	0.228000	0.810400	0.119558
H57	H	0.864000	0.121900	0.768400	0.093485
H58	H	0.092500	0.235800	0.827500	0.113566
H59	H	0.036600	0.117100	0.847600	0.109134
H60	H	0.955500	0.144700	0.674600	0.096344
H61	H	0.011600	0.264500	0.656700	0.091133
H62	H	0.192900	0.251800	0.731600	0.075489
H63	H	0.195200	0.144200	0.689800	0.077170
H64	H	0.313500	0.027900	0.768300	0.079523
H65	H	0.325000	0.140200	0.806500	0.081839
H66	H	0.385700	0.109100	0.905100	0.110699
H67	H	0.378400	0.004800	0.990500	0.082596
H68	H	0.142600	0.876600	0.819600	0.087711
H69	H	0.068200	0.983400	0.419700	0.134286
H70	H	0.215600	0.734900	0.528900	0.128970
H71	H	0.475200	0.929800	0.446900	0.145585
H72	H	0.145200	0.778500	0.906800	0.102992
H73	H	0.594000	0.452000	0.257400	0.200284
H74	H	0.423400	0.011300	0.214500	0.108307
H75	H	0.408700	0.856800	0.153500	0.086039
H76	H	0.129200	0.003000	0.044700	0.112326
H77	H	0.137200	0.162000	0.102900	0.096713
H78	H	0.250100	0.271600	0.180900	0.085940
H79	H	0.223200	0.193500	0.235400	0.106566
H80	H	0.352000	0.272000	0.310400	0.119559
H81	H	0.364000	0.378100	0.268400	0.093485
H82	H	0.592500	0.264200	0.327500	0.113566
H83	H	0.536600	0.382900	0.347600	0.109134
H84	H	0.455500	0.355300	0.174600	0.096344
H85	H	0.511600	0.235500	0.156700	0.091133
H86	H	0.692900	0.248200	0.231600	0.075489
H87	H	0.695200	0.355800	0.189800	0.077170
H88	H	0.813500	0.472100	0.268300	0.079523
H89	H	0.825000	0.359800	0.306500	0.081839
H90	H	0.885700	0.390900	0.405100	0.110700
H91	H	0.878400	0.495200	0.490500	0.082596
H92	H	0.642600	0.623400	0.319600	0.087711
H93	H	0.568200	0.516600	0.919700	0.134287
H94	H	0.715600	0.765100	0.028900	0.128970
H95	H	0.975200	0.570200	0.946900	0.145585
H96	H	0.645200	0.721500	0.406800	0.102992
C1	C	0.637400	0.987900	0.820400	-0.106851
C2	C	0.646700	0.080000	0.857110	0.086599
C3	C	0.809500	0.995000	0.920590	0.106548
C4	C	0.805300	0.899800	0.885910	-0.153772
C5	C	0.716900	0.894600	0.834630	0.060425
C6	C	0.714800	0.793600	0.795550	-0.067016
C7	C	0.590800	0.692200	0.717610	-0.008871
C8	C	0.453300	0.665900	0.686770	0.018121
C9	C	0.497600	0.713300	0.809850	-0.047290
C10	C	0.357000	0.682900	0.781280	0.000643
C11	C	0.231200	0.572600	0.702570	-0.069227
C12	C	0.235900	0.504800	0.647280	0.058222
C13	C	0.165200	0.541500	0.595650	-0.111671
C14	C	0.169700	0.478200	0.544790	0.093209
C15	C	0.307700	0.404700	0.645860	-0.159286
C16	C	0.224800	0.468300	0.072580	0.052218
C17	C	0.357200	0.442400	0.061690	-0.066619
C18	C	0.379600	0.355300	0.022940	0.044412
C19	C	0.523900	0.325800	0.012260	0.388856
C20	C	0.269200	0.295000	0.996840	-0.077249
C21	C	0.137400	0.321700	0.008020	0.043128
C22	C	0.016900	0.253200	0.982500	0.416767
C23	C	0.115000	0.410000	0.045820	-0.046548
C24	C	0.305700	0.346800	0.593590	0.105268
C25	C	0.137400	0.512100	0.320400	-0.106856
C26	C	0.146700	0.420000	0.357110	0.086597
C27	C	0.309500	0.505000	0.420590	0.106541
C28	C	0.305300	0.600200	0.385910	-0.153775
C29	C	0.216900	0.605400	0.334630	0.060426
C30	C	0.214800	0.706400	0.295550	-0.067016
C31	C	0.090800	0.807800	0.217610	-0.008871
C32	C	0.953300	0.834100	0.186770	0.018121
C33	C	0.997600	0.786700	0.309850	-0.047290
C34	C	0.857000	0.817100	0.281280	0.000643
C35	C	0.731200	0.927400	0.202570	-0.069226
C36	C	0.735900	0.995200	0.147280	0.058223
C37	C	0.665200	0.958500	0.095650	-0.111674
C38	C	0.669700	0.021800	0.044790	0.093201
C39	C	0.807700	0.095300	0.145860	-0.159292
C40	C	0.724800	0.031700	0.572580	0.052217
C41	C	0.857200	0.057600	0.561690	-0.066618
C42	C	0.879600	0.144700	0.522940	0.044413
C43	C	0.023900	0.174200	0.512260	0.388858
C44	C	0.769200	0.205000	0.496840	-0.077250
C45	C	0.637400	0.178300	0.508020	0.043128
C46	C	0.516900	0.246800	0.482500	0.416777
C47	C	0.615000	0.090000	0.545820	-0.046546
C48	C	0.805700	0.153200	0.093590	0.105265
C49	C	0.862600	0.487900	0.679600	-0.106851
C50	C	0.853300	0.580000	0.642890	0.086599
C51	C	0.690500	0.495000	0.579410	0.106548
C52	C	0.694700	0.399800	0.614090	-0.153773
C53	C	0.783100	0.394600	0.665370	0.060426
C54	C	0.785200	0.293600	0.704450	-0.067016
C55	C	0.909200	0.192200	0.782390	-0.008871
C56	C	0.046700	0.165900	0.813230	0.018121
C57	C	0.002400	0.213300	0.690150	-0.047289
C58	C	0.143000	0.182900	0.718720	0.000643
C59	C	0.268800	0.072600	0.797430	-0.069226
C60	C	0.264100	0.004800	0.852720	0.058223
C61	C	0.334800	0.041500	0.904350	-0.111674
C62	C	0.330300	0.978200	0.955210	0.093201
C63	C	0.192300	0.904700	0.854140	-0.159292
C64	C	0.275200	0.968300	0.427420	0.052218
C65	C	0.142800	0.942400	0.438310	-0.066620
C66	C	0.120400	0.855300	0.477060	0.044412
C67	C	0.976100	0.825800	0.487740	0.388857
C68	C	0.230800	0.795000	0.503160	-0.077248
C69	C	0.362600	0.821700	0.491980	0.043128
C70	C	0.483100	0.753200	0.517500	0.416767
C71	C	0.385000	0.910000	0.454180	-0.046546
C72	C	0.194300	0.846800	0.906410	0.105265
C73	C	0.362600	0.012100	0.179600	-0.106851
C74	C	0.353300	0.920000	0.142890	0.086599
C75	C	0.190500	0.005000	0.079410	0.106548
C76	C	0.194700	0.100200	0.114090	-0.153772
C77	C	0.283100	0.105400	0.165370	0.060426
C78	C	0.285200	0.206400	0.204450	-0.067017
C79	C	0.409200	0.307800	0.282390	-0.008870
C80	C	0.546700	0.334100	0.313230	0.018121
C81	C	0.502400	0.286700	0.190150	-0.047289
C82	C	0.643000	0.317100	0.218720	0.000643
C83	C	0.768800	0.427400	0.297430	-0.069226
C84	C	0.764100	0.495200	0.352720	0.058223
C85	C	0.834800	0.458500	0.404350	-0.111675
C86	C	0.830300	0.521800	0.455210	0.093201
C87	C	0.692300	0.595300	0.354140	-0.159292
C88	C	0.775200	0.531700	0.927420	0.052218
C89	C	0.642800	0.557600	0.938310	-0.066619
C90	C	0.620400	0.644700	0.977060	0.044412
C91	C	0.476100	0.674200	0.987740	0.388856
C92	C	0.730800	0.705000	0.003160	-0.077249
C93	C	0.862600	0.678300	0.991980	0.043128
C94	C	0.983100	0.746800	0.017500	0.416767
C95	C	0.885000	0.590000	0.954180	-0.046548
C96	C	0.694300	0.653200	0.406410	0.105265
S1	S	0.194250	0.569610	0.126730	0.451218
S2	S	0.694250	0.930390	0.626730	0.451218
S3	S	0.305750	0.069610	0.373270	0.451206
S4	S	0.805750	0.430390	0.873270	0.451218
N1	N	0.730100	0.084600	0.907000	-0.439636
N2	N	0.579200	0.767100	0.767700	-0.242533
N3	N	0.369400	0.607800	0.729070	-0.441774
N4	N	0.237400	0.382600	0.542930	-0.374940
N5	N	0.230100	0.415400	0.407000	-0.439587
N6	N	0.079200	0.732900	0.267700	-0.242533
N7	N	0.869400	0.892200	0.229070	-0.441774
N8	N	0.737400	0.117400	0.042930	-0.374883
N9	N	0.769900	0.584600	0.593000	-0.439636
N10	N	0.920800	0.267100	0.732300	-0.242533
N11	N	0.130600	0.107800	0.770930	-0.441774
N12	N	0.262600	0.882600	0.957070	-0.374883
N13	N	0.269900	0.915400	0.093000	-0.439636
N14	N	0.420800	0.232900	0.232300	-0.242534
N15	N	0.630600	0.392200	0.270930	-0.441774
N16	N	0.762600	0.617400	0.457070	-0.374883
O1	O	0.901400	0.293280	0.993190	-0.636273
O2	O	0.036500	0.165950	0.956030	-0.433811
O3	O	0.538400	0.261130	0.967910	-0.616918
O4	O	0.620200	0.362810	0.044920	-0.395405
O5	O	0.278900	0.667210	0.116180	-0.436635
O6	O	0.049500	0.591980	0.120910	-0.287585
O7	O	0.240700	0.516650	0.182810	-0.347207
O8	O	0.401400	0.206720	0.493190	-0.636306
O9	O	0.536500	0.334050	0.456030	-0.433807
O10	O	0.038400	0.238870	0.467910	-0.616931
O11	O	0.120200	0.137190	0.544920	-0.395427
O12	O	0.778900	0.832790	0.616180	-0.436635
O13	O	0.549500	0.908020	0.620910	-0.287585
O14	O	0.740700	0.983350	0.682810	-0.347207
O15	O	0.598600	0.793280	0.506810	-0.636273
O16	O	0.463500	0.665950	0.543970	-0.433811
O17	O	0.961600	0.761130	0.532090	-0.616918
O18	O	0.879800	0.862810	0.455080	-0.395405
O19	O	0.221100	0.167210	0.383820	-0.436573
O20	O	0.450500	0.091980	0.379090	-0.287579
O21	O	0.259300	0.016650	0.317190	-0.347211
O22	O	0.098600	0.706720	0.006810	-0.636273
O23	O	0.963500	0.834050	0.043970	-0.433811
O24	O	0.461600	0.738870	0.032090	-0.616918
O25	O	0.379800	0.637190	0.955080	-0.395405
O26	O	0.721100	0.332790	0.883820	-0.436635
O27	O	0.950500	0.408020	0.879090	-0.287585
O28	O	0.759300	0.483350	0.817190	-0.347207
