data_TARVOX_clean_PM
_symmetry_space_group_name_H-M	'P1'
_cell_length_a	6.940000
_cell_length_b	12.698100
_cell_length_c	12.698100
_cell_angle_alpha	82.567099
_cell_angle_beta	83.697700
_cell_angle_gamma	83.697699
_symmetry_Int_Tables_number 1

loop_
_symmetry_equiv_pos_as_xyz
'x,y,z'

loop_
_atom_site_label
_atom_site_type_symbol
_atom_site_fract_x
_atom_site_fract_y
_atom_site_fract_z
_atom_site_charge
Co1	Co	0.908700	0.320460	0.946680	1.078581
Co2	Co	0.591300	0.053320	0.679540	1.078581
Co3	Co	0.091300	0.679540	0.053320	1.078581
Co4	Co	0.408700	0.946680	0.320460	1.078581
H1	H	0.430100	0.423000	0.451600	0.248515
H2	H	0.069900	0.548400	0.577000	0.248515
H3	H	0.569900	0.577000	0.548400	0.248515
H4	H	0.930100	0.451600	0.423000	0.248515
C1	C	0.443800	0.536300	0.334300	0.299268
C2	C	0.364100	0.359700	0.330900	0.287102
C3	C	0.331200	0.486300	0.188100	0.295780
C4	C	0.518400	0.701600	0.350200	0.311164
C5	C	0.314100	0.184000	0.346800	0.299378
C6	C	0.201700	0.447800	0.040000	0.314047
C7	C	0.056200	0.665700	0.463700	0.299268
C8	C	0.135900	0.669100	0.640300	0.287102
C9	C	0.168800	0.811900	0.513700	0.295780
C10	C	0.981600	0.649800	0.298400	0.311164
C11	C	0.185900	0.653200	0.816000	0.299378
C12	C	0.298300	0.960000	0.552200	0.314047
C13	C	0.556200	0.463700	0.665700	0.299268
C14	C	0.635900	0.640300	0.669100	0.287102
C15	C	0.668800	0.513700	0.811900	0.295780
C16	C	0.481600	0.298400	0.649800	0.311164
C17	C	0.685900	0.816000	0.653200	0.299378
C18	C	0.798300	0.552200	0.960000	0.314047
C19	C	0.943800	0.334300	0.536300	0.299268
C20	C	0.864100	0.330900	0.359700	0.287102
C21	C	0.831200	0.188100	0.486300	0.295780
C22	C	0.018400	0.350200	0.701600	0.311164
C23	C	0.814100	0.346800	0.184000	0.299378
C24	C	0.701700	0.040000	0.447800	0.314047
N1	N	0.415500	0.437100	0.384700	-0.387759
N2	N	0.324400	0.382500	0.229500	-0.206499
N3	N	0.398100	0.562500	0.234100	-0.247983
N4	N	0.509300	0.601800	0.392000	-0.251429
N5	N	0.528500	0.790500	0.321500	-0.496527
N6	N	0.350800	0.266300	0.390500	-0.215246
N7	N	0.285400	0.103800	0.318600	-0.489589
N8	N	0.259400	0.520100	0.092300	-0.401073
N9	N	0.144900	0.393000	0.987800	-0.437730
N10	N	0.084500	0.615300	0.562900	-0.387759
N11	N	0.175600	0.770500	0.617500	-0.206499
N12	N	0.101900	0.765900	0.437500	-0.247983
N13	N	0.990700	0.608000	0.398200	-0.251429
N14	N	0.971500	0.678500	0.209500	-0.496527
N15	N	0.149200	0.609500	0.733700	-0.215246
N16	N	0.214600	0.681400	0.896200	-0.489589
N17	N	0.240600	0.907700	0.479900	-0.401073
N18	N	0.355100	0.012200	0.607000	-0.437730
N19	N	0.584500	0.562900	0.615300	-0.387759
N20	N	0.675600	0.617500	0.770500	-0.206499
N21	N	0.601900	0.437500	0.765900	-0.247983
N22	N	0.490700	0.398200	0.608000	-0.251429
N23	N	0.471500	0.209500	0.678500	-0.496527
N24	N	0.649200	0.733700	0.609500	-0.215246
N25	N	0.714600	0.896200	0.681400	-0.489589
N26	N	0.740600	0.479900	0.907700	-0.401073
N27	N	0.855100	0.607000	0.012200	-0.437730
N28	N	0.915500	0.384700	0.437100	-0.387759
N29	N	0.824400	0.229500	0.382500	-0.206499
N30	N	0.898100	0.234100	0.562500	-0.247983
N31	N	0.009300	0.392000	0.601800	-0.251429
N32	N	0.028500	0.321500	0.790500	-0.496527
N33	N	0.850800	0.390500	0.266300	-0.215246
N34	N	0.785400	0.318600	0.103800	-0.489589
N35	N	0.759400	0.092300	0.520100	-0.401073
N36	N	0.644900	0.987800	0.393000	-0.437730
