data_TATPOV_clean_PM
_symmetry_space_group_name_H-M	'P1'
_cell_length_a	10.523600
_cell_length_b	25.768000
_cell_length_c	25.950700
_cell_angle_alpha	90.000000
_cell_angle_beta	90.000000
_cell_angle_gamma	90.000000
_symmetry_Int_Tables_number 1

loop_
_symmetry_equiv_pos_as_xyz
'x,y,z'

loop_
_atom_site_label
_atom_site_type_symbol
_atom_site_fract_x
_atom_site_fract_y
_atom_site_fract_z
_atom_site_charge
Zn1	Zn	0.437840	0.421530	0.131480	1.050967
Zn2	Zn	0.201210	0.503890	0.111230	1.178653
Zn3	Zn	0.937840	0.578470	0.368520	1.050967
Zn4	Zn	0.701210	0.496110	0.388770	1.178653
Zn5	Zn	0.562160	0.921530	0.868520	1.050967
Zn6	Zn	0.798790	0.003890	0.888770	1.178653
Zn7	Zn	0.062160	0.078470	0.631480	1.050967
Zn8	Zn	0.298790	0.996110	0.611230	1.178653
Zn9	Zn	0.562160	0.578470	0.868520	1.050967
Zn10	Zn	0.798790	0.496110	0.888770	1.178653
Zn11	Zn	0.062160	0.421530	0.631480	1.050967
Zn12	Zn	0.298790	0.503890	0.611230	1.178653
Zn13	Zn	0.437840	0.078470	0.131480	1.050967
Zn14	Zn	0.201210	0.996110	0.111230	1.178653
Zn15	Zn	0.937840	0.921530	0.368520	1.050967
Zn16	Zn	0.701210	0.003890	0.388770	1.178653
H1	H	0.500800	0.624500	0.131500	0.128901
H2	H	0.718600	0.665300	0.254000	0.125251
H3	H	0.539700	0.526700	0.252300	0.153496
H4	H	0.871600	0.543500	0.008600	0.161175
H5	H	0.870800	0.633300	0.136300	0.127091
H6	H	0.619000	0.661500	0.021500	0.130510
H7	H	0.000800	0.375500	0.368500	0.128901
H8	H	0.218600	0.334700	0.246000	0.125251
H9	H	0.039700	0.473300	0.247700	0.153496
H10	H	0.371600	0.456500	0.491400	0.161175
H11	H	0.370800	0.366700	0.363700	0.127091
H12	H	0.119000	0.338500	0.478500	0.130510
H13	H	0.499200	0.124500	0.868500	0.128901
H14	H	0.281400	0.165300	0.746000	0.125251
H15	H	0.460300	0.026700	0.747700	0.153496
H16	H	0.128400	0.043500	0.991400	0.161175
H17	H	0.129200	0.133300	0.863700	0.127091
H18	H	0.381000	0.161500	0.978500	0.130510
H19	H	0.999200	0.875500	0.631500	0.128901
H20	H	0.781400	0.834700	0.754000	0.125251
H21	H	0.960300	0.973300	0.752300	0.153496
H22	H	0.628400	0.956500	0.508600	0.161175
H23	H	0.629200	0.866700	0.636300	0.127091
H24	H	0.881000	0.838500	0.521500	0.130510
H25	H	0.499200	0.375500	0.868500	0.128901
H26	H	0.281400	0.334700	0.746000	0.125251
H27	H	0.460300	0.473300	0.747700	0.153496
H28	H	0.128400	0.456500	0.991400	0.161175
H29	H	0.129200	0.366700	0.863700	0.127091
H30	H	0.381000	0.338500	0.978500	0.130510
H31	H	0.999200	0.624500	0.631500	0.128901
H32	H	0.781400	0.665300	0.754000	0.125251
H33	H	0.960300	0.526700	0.752300	0.153496
H34	H	0.628400	0.543500	0.508600	0.161175
H35	H	0.629200	0.633300	0.636300	0.127091
H36	H	0.881000	0.661500	0.521500	0.130510
H37	H	0.500800	0.875500	0.131500	0.128901
H38	H	0.718600	0.834700	0.254000	0.125251
H39	H	0.539700	0.973300	0.252300	0.153496
H40	H	0.871600	0.956500	0.008600	0.161175
H41	H	0.870800	0.866700	0.136300	0.127091
H42	H	0.619000	0.838500	0.021500	0.130510
H43	H	0.000800	0.124500	0.368500	0.128901
H44	H	0.218600	0.165300	0.246000	0.125251
H45	H	0.039700	0.026700	0.247700	0.153496
H46	H	0.371600	0.043500	0.491400	0.161175
H47	H	0.370800	0.133300	0.363700	0.127091
H48	H	0.119000	0.161500	0.478500	0.130510
H49	H	0.594000	0.750000	0.220500	0.107977
H50	H	0.744800	0.750000	0.052000	0.112522
H51	H	0.094000	0.250000	0.279500	0.107977
H52	H	0.244800	0.250000	0.448000	0.112522
H53	H	0.406000	0.250000	0.779500	0.107977
H54	H	0.255200	0.250000	0.948000	0.112522
H55	H	0.906000	0.750000	0.720500	0.107977
H56	H	0.755200	0.750000	0.552000	0.112522
C1	C	0.418800	0.532430	0.162610	0.455432
C2	C	0.505500	0.570440	0.188410	0.050293
C3	C	0.535200	0.616950	0.164510	-0.089108
C4	C	0.615200	0.652820	0.188550	0.019690
C5	C	0.664200	0.641200	0.237200	-0.099476
C6	C	0.557300	0.559120	0.236450	-0.023354
C7	C	0.009700	0.559020	0.093510	0.379604
C8	C	0.891200	0.585990	0.074000	0.048671
C9	C	0.838800	0.572250	0.027290	-0.018005
C10	C	0.838200	0.625950	0.102890	-0.103158
C11	C	0.681800	0.586860	0.956480	0.473475
C12	C	0.736700	0.600950	0.007560	0.052151
C13	C	0.687700	0.642050	0.035310	-0.093024
C14	C	0.737600	0.655530	0.083480	0.019943
C15	C	0.694700	0.702830	0.110890	0.018268
C16	C	0.646600	0.702640	0.161740	0.019302
C17	C	0.633900	0.594640	0.261140	0.054936
C18	C	0.689600	0.580170	0.312630	0.471638
C19	C	0.918800	0.467570	0.337390	0.455432
C20	C	0.005500	0.429560	0.311590	0.050293
C21	C	0.035200	0.383050	0.335490	-0.089108
C22	C	0.115200	0.347180	0.311450	0.019690
C23	C	0.164200	0.358800	0.262800	-0.099476
C24	C	0.057300	0.440880	0.263550	-0.023354
C25	C	0.509700	0.440980	0.406490	0.379604
C26	C	0.391200	0.414010	0.426000	0.048671
C27	C	0.338800	0.427750	0.472710	-0.018005
C28	C	0.338200	0.374050	0.397110	-0.103158
C29	C	0.181800	0.413140	0.543520	0.473475
C30	C	0.236700	0.399050	0.492440	0.052151
C31	C	0.187700	0.357950	0.464690	-0.093024
C32	C	0.237600	0.344470	0.416520	0.019943
C33	C	0.194700	0.297170	0.389110	0.018268
C34	C	0.146600	0.297360	0.338260	0.019302
C35	C	0.133900	0.405360	0.238860	0.054936
C36	C	0.189600	0.419830	0.187370	0.471638
C37	C	0.581200	0.032430	0.837390	0.455432
C38	C	0.494500	0.070440	0.811590	0.050293
C39	C	0.464800	0.116950	0.835490	-0.089108
C40	C	0.384800	0.152820	0.811450	0.019690
C41	C	0.335800	0.141200	0.762800	-0.099476
C42	C	0.442700	0.059120	0.763550	-0.023354
C43	C	0.990300	0.059020	0.906490	0.379604
C44	C	0.108800	0.085990	0.926000	0.048671
C45	C	0.161200	0.072250	0.972710	-0.018005
C46	C	0.161800	0.125950	0.897110	-0.103158
C47	C	0.318200	0.086860	0.043520	0.473475
C48	C	0.263300	0.100950	0.992440	0.052151
C49	C	0.312300	0.142050	0.964690	-0.093024
C50	C	0.262400	0.155530	0.916520	0.019943
C51	C	0.305300	0.202830	0.889110	0.018268
C52	C	0.353400	0.202640	0.838260	0.019302
C53	C	0.366100	0.094640	0.738860	0.054936
C54	C	0.310400	0.080170	0.687370	0.471638
C55	C	0.081200	0.967570	0.662610	0.455432
C56	C	0.994500	0.929560	0.688410	0.050293
C57	C	0.964800	0.883050	0.664510	-0.089108
C58	C	0.884800	0.847180	0.688550	0.019690
C59	C	0.835800	0.858800	0.737200	-0.099476
C60	C	0.942700	0.940880	0.736450	-0.023354
C61	C	0.490300	0.940980	0.593510	0.379604
C62	C	0.608800	0.914010	0.574000	0.048671
C63	C	0.661200	0.927750	0.527290	-0.018005
C64	C	0.661800	0.874050	0.602890	-0.103158
C65	C	0.818200	0.913140	0.456480	0.473475
C66	C	0.763300	0.899050	0.507560	0.052151
C67	C	0.812300	0.857950	0.535310	-0.093024
C68	C	0.762400	0.844470	0.583480	0.019943
C69	C	0.805300	0.797170	0.610890	0.018268
C70	C	0.853400	0.797360	0.661740	0.019302
C71	C	0.866100	0.905360	0.761140	0.054936
C72	C	0.810400	0.919830	0.812630	0.471638
C73	C	0.581200	0.467570	0.837390	0.455432
C74	C	0.494500	0.429560	0.811590	0.050293
C75	C	0.464800	0.383050	0.835490	-0.089108
C76	C	0.384800	0.347180	0.811450	0.019690
C77	C	0.335800	0.358800	0.762800	-0.099476
C78	C	0.442700	0.440880	0.763550	-0.023354
C79	C	0.990300	0.440980	0.906490	0.379604
C80	C	0.108800	0.414010	0.926000	0.048671
C81	C	0.161200	0.427750	0.972710	-0.018005
C82	C	0.161800	0.374050	0.897110	-0.103158
C83	C	0.318200	0.413140	0.043520	0.473475
C84	C	0.263300	0.399050	0.992440	0.052151
C85	C	0.312300	0.357950	0.964690	-0.093024
C86	C	0.262400	0.344470	0.916520	0.019943
C87	C	0.305300	0.297170	0.889110	0.018268
C88	C	0.353400	0.297360	0.838260	0.019302
C89	C	0.366100	0.405360	0.738860	0.054936
C90	C	0.310400	0.419830	0.687370	0.471638
C91	C	0.081200	0.532430	0.662610	0.455432
C92	C	0.994500	0.570440	0.688410	0.050293
C93	C	0.964800	0.616950	0.664510	-0.089108
C94	C	0.884800	0.652820	0.688550	0.019690
C95	C	0.835800	0.641200	0.737200	-0.099476
C96	C	0.942700	0.559120	0.736450	-0.023354
C97	C	0.490300	0.559020	0.593510	0.379604
C98	C	0.608800	0.585990	0.574000	0.048671
C99	C	0.661200	0.572250	0.527290	-0.018005
C100	C	0.661800	0.625950	0.602890	-0.103158
C101	C	0.818200	0.586860	0.456480	0.473475
C102	C	0.763300	0.600950	0.507560	0.052151
C103	C	0.812300	0.642050	0.535310	-0.093024
C104	C	0.762400	0.655530	0.583480	0.019943
C105	C	0.805300	0.702830	0.610890	0.018268
C106	C	0.853400	0.702640	0.661740	0.019302
C107	C	0.866100	0.594640	0.761140	0.054936
C108	C	0.810400	0.580170	0.812630	0.471638
C109	C	0.418800	0.967570	0.162610	0.455432
C110	C	0.505500	0.929560	0.188410	0.050293
C111	C	0.535200	0.883050	0.164510	-0.089108
C112	C	0.615200	0.847180	0.188550	0.019690
C113	C	0.664200	0.858800	0.237200	-0.099476
C114	C	0.557300	0.940880	0.236450	-0.023354
C115	C	0.009700	0.940980	0.093510	0.379604
C116	C	0.891200	0.914010	0.074000	0.048671
C117	C	0.838800	0.927750	0.027290	-0.018005
C118	C	0.838200	0.874050	0.102890	-0.103158
C119	C	0.681800	0.913140	0.956480	0.473475
C120	C	0.736700	0.899050	0.007560	0.052151
C121	C	0.687700	0.857950	0.035310	-0.093024
C122	C	0.737600	0.844470	0.083480	0.019943
C123	C	0.694700	0.797170	0.110890	0.018268
C124	C	0.646600	0.797360	0.161740	0.019302
C125	C	0.633900	0.905360	0.261140	0.054936
C126	C	0.689600	0.919830	0.312630	0.471638
C127	C	0.918800	0.032430	0.337390	0.455432
C128	C	0.005500	0.070440	0.311590	0.050293
C129	C	0.035200	0.116950	0.335490	-0.089108
C130	C	0.115200	0.152820	0.311450	0.019690
C131	C	0.164200	0.141200	0.262800	-0.099476
C132	C	0.057300	0.059120	0.263550	-0.023354
C133	C	0.509700	0.059020	0.406490	0.379604
C134	C	0.391200	0.085990	0.426000	0.048671
C135	C	0.338800	0.072250	0.472710	-0.018005
C136	C	0.338200	0.125950	0.397110	-0.103158
C137	C	0.181800	0.086860	0.543520	0.473475
C138	C	0.236700	0.100950	0.492440	0.052151
C139	C	0.187700	0.142050	0.464690	-0.093024
C140	C	0.237600	0.155530	0.416520	0.019943
C141	C	0.194700	0.202830	0.389110	0.018268
C142	C	0.146600	0.202640	0.338260	0.019302
C143	C	0.133900	0.094640	0.238860	0.054936
C144	C	0.189600	0.080170	0.187370	0.471638
C145	C	0.624800	0.750000	0.186070	-0.134649
C146	C	0.715400	0.750000	0.086570	-0.129974
C147	C	0.124800	0.250000	0.313930	-0.134649
C148	C	0.215400	0.250000	0.413430	-0.129974
C149	C	0.375200	0.250000	0.813930	-0.134649
C150	C	0.284600	0.250000	0.913430	-0.129974
C151	C	0.875200	0.750000	0.686070	-0.134649
C152	C	0.784600	0.750000	0.586570	-0.129974
O1	O	0.049100	0.568490	0.137220	-0.399933
O2	O	0.064000	0.527030	0.063990	-0.556827
O3	O	0.342400	0.549930	0.129850	-0.597064
O4	O	0.426300	0.485460	0.177040	-0.665087
O5	O	0.705900	0.543520	0.936530	-0.696290
O6	O	0.607300	0.618100	0.934490	-0.592534
O7	O	0.639900	0.542530	0.335260	-0.607698
O8	O	0.782400	0.607070	0.328960	-0.555830
O9	O	0.549100	0.431510	0.362780	-0.399933
O10	O	0.564000	0.472970	0.436010	-0.556827
O11	O	0.842400	0.450070	0.370150	-0.597064
O12	O	0.926300	0.514540	0.322960	-0.665087
O13	O	0.205900	0.456480	0.563470	-0.696290
O14	O	0.107300	0.381900	0.565510	-0.592534
O15	O	0.139900	0.457470	0.164740	-0.607698
O16	O	0.282400	0.392930	0.171040	-0.555830
O17	O	0.950900	0.068490	0.862780	-0.399933
O18	O	0.936000	0.027030	0.936010	-0.556827
O19	O	0.657600	0.049930	0.870150	-0.597064
O20	O	0.573700	0.985460	0.822960	-0.665087
O21	O	0.294100	0.043520	0.063470	-0.696290
O22	O	0.392700	0.118100	0.065510	-0.592534
O23	O	0.360100	0.042530	0.664740	-0.607698
O24	O	0.217600	0.107070	0.671040	-0.555830
O25	O	0.450900	0.931510	0.637220	-0.399933
O26	O	0.436000	0.972970	0.563990	-0.556827
O27	O	0.157600	0.950070	0.629850	-0.597064
O28	O	0.073700	0.014540	0.677040	-0.665087
O29	O	0.794100	0.956480	0.436530	-0.696290
O30	O	0.892700	0.881900	0.434490	-0.592534
O31	O	0.860100	0.957470	0.835260	-0.607698
O32	O	0.717600	0.892930	0.828960	-0.555830
O33	O	0.950900	0.431510	0.862780	-0.399933
O34	O	0.936000	0.472970	0.936010	-0.556827
O35	O	0.657600	0.450070	0.870150	-0.597064
O36	O	0.573700	0.514540	0.822960	-0.665087
O37	O	0.294100	0.456480	0.063470	-0.696290
O38	O	0.392700	0.381900	0.065510	-0.592534
O39	O	0.360100	0.457470	0.664740	-0.607698
O40	O	0.217600	0.392930	0.671040	-0.555830
O41	O	0.450900	0.568490	0.637220	-0.399933
O42	O	0.436000	0.527030	0.563990	-0.556827
O43	O	0.157600	0.549930	0.629850	-0.597064
O44	O	0.073700	0.485460	0.677040	-0.665087
O45	O	0.794100	0.543520	0.436530	-0.696290
O46	O	0.892700	0.618100	0.434490	-0.592534
O47	O	0.860100	0.542530	0.835260	-0.607698
O48	O	0.717600	0.607070	0.828960	-0.555830
O49	O	0.049100	0.931510	0.137220	-0.399933
O50	O	0.064000	0.972970	0.063990	-0.556827
O51	O	0.342400	0.950070	0.129850	-0.597064
O52	O	0.426300	0.014540	0.177040	-0.665087
O53	O	0.705900	0.956480	0.936530	-0.696290
O54	O	0.607300	0.881900	0.934490	-0.592534
O55	O	0.639900	0.957470	0.335260	-0.607698
O56	O	0.782400	0.892930	0.328960	-0.555830
O57	O	0.549100	0.068490	0.362780	-0.399933
O58	O	0.564000	0.027030	0.436010	-0.556827
O59	O	0.842400	0.049930	0.370150	-0.597064
O60	O	0.926300	0.985460	0.322960	-0.665087
O61	O	0.205900	0.043520	0.563470	-0.696290
O62	O	0.107300	0.118100	0.565510	-0.592534
O63	O	0.139900	0.042530	0.164740	-0.607698
O64	O	0.282400	0.107070	0.171040	-0.555830
