data_VUNCAJ_clean_PM
_symmetry_space_group_name_H-M	'P1'
_cell_length_a	8.629600
_cell_length_b	9.608000
_cell_length_c	14.497000
_cell_angle_alpha	90.000000
_cell_angle_beta	93.096998
_cell_angle_gamma	90.000000
_symmetry_Int_Tables_number 1

loop_
_symmetry_equiv_pos_as_xyz
'x,y,z'

loop_
_atom_site_label
_atom_site_type_symbol
_atom_site_fract_x
_atom_site_fract_y
_atom_site_fract_z
_atom_site_charge
Zn1	Zn	0.656740	0.502940	0.671690	1.066262
Zn2	Zn	0.843260	0.002940	0.828310	1.066262
Zn3	Zn	0.343260	0.497060	0.328310	1.066262
Zn4	Zn	0.156740	0.997060	0.171690	1.066262
H1	H	0.044000	0.040400	0.591400	0.124019
H2	H	0.161700	0.985200	0.518200	0.123518
H3	H	0.097700	0.184500	0.423100	0.140650
H4	H	0.183100	0.224700	0.520100	0.102439
H5	H	0.715800	0.495800	0.459700	0.095777
H6	H	0.934400	0.266800	0.648400	0.124942
H7	H	0.450300	0.773400	0.451300	0.121479
H8	H	0.456000	0.540400	0.908600	0.124019
H9	H	0.338300	0.485200	0.981800	0.123518
H10	H	0.402300	0.684500	0.076900	0.140650
H11	H	0.316900	0.724700	0.979900	0.102439
H12	H	0.784200	0.995800	0.040300	0.095777
H13	H	0.565600	0.766800	0.851600	0.124942
H14	H	0.049700	0.273400	0.048700	0.121479
H15	H	0.956000	0.959600	0.408600	0.124019
H16	H	0.838300	0.014800	0.481800	0.123518
H17	H	0.902300	0.815500	0.576900	0.140650
H18	H	0.816900	0.775300	0.479900	0.102439
H19	H	0.284200	0.504200	0.540300	0.095777
H20	H	0.065600	0.733200	0.351600	0.124942
H21	H	0.549700	0.226600	0.548700	0.121479
H22	H	0.544000	0.459600	0.091400	0.124019
H23	H	0.661700	0.514800	0.018200	0.123518
H24	H	0.597700	0.315500	0.923100	0.140650
H25	H	0.683100	0.275300	0.020100	0.102439
H26	H	0.215800	0.004200	0.959700	0.095777
H27	H	0.434400	0.233200	0.148400	0.124942
H28	H	0.950300	0.726600	0.951300	0.121479
C1	C	0.064100	0.037600	0.524800	-0.195446
C2	C	0.086200	0.186200	0.490700	0.017332
C3	C	0.784200	0.429400	0.488500	0.160834
C4	C	0.900100	0.307900	0.591300	0.174389
C5	C	0.469500	0.866200	0.471500	-0.124305
C6	C	0.526200	0.889100	0.561100	0.054858
C7	C	0.560000	0.025300	0.589700	0.043069
C8	C	0.542400	0.767600	0.626600	0.439567
C9	C	0.638300	0.056000	0.683100	0.412250
C10	C	0.435900	0.537600	0.975200	-0.195446
C11	C	0.413800	0.686200	0.009300	0.017332
C12	C	0.715800	0.929400	0.011500	0.160834
C13	C	0.599900	0.807900	0.908700	0.174389
C14	C	0.030500	0.366200	0.028500	-0.124305
C15	C	0.973800	0.389100	0.938900	0.054858
C16	C	0.940000	0.525300	0.910300	0.043069
C17	C	0.957600	0.267600	0.873400	0.439567
C18	C	0.861700	0.556000	0.816900	0.412250
C19	C	0.935900	0.962400	0.475200	-0.195446
C20	C	0.913800	0.813800	0.509300	0.017332
C21	C	0.215800	0.570600	0.511500	0.160834
C22	C	0.099900	0.692100	0.408700	0.174389
C23	C	0.530500	0.133800	0.528500	-0.124305
C24	C	0.473800	0.110900	0.438900	0.054858
C25	C	0.440000	0.974700	0.410300	0.043069
C26	C	0.457600	0.232400	0.373400	0.439567
C27	C	0.361700	0.944000	0.316900	0.412250
C28	C	0.564100	0.462400	0.024800	-0.195446
C29	C	0.586200	0.313800	0.990700	0.017332
C30	C	0.284200	0.070600	0.988500	0.160834
C31	C	0.400100	0.192100	0.091300	0.174389
C32	C	0.969500	0.633800	0.971500	-0.124305
C33	C	0.026200	0.610900	0.061100	0.054858
C34	C	0.060000	0.474700	0.089700	0.043069
C35	C	0.042400	0.732400	0.126600	0.439567
C36	C	0.138300	0.444000	0.183100	0.412250
N1	N	0.955200	0.278600	0.511100	-0.188043
N2	N	0.880600	0.355600	0.442900	-0.086283
N3	N	0.789400	0.403700	0.581000	-0.444386
N4	N	0.544800	0.778600	0.988900	-0.188043
N5	N	0.619400	0.855600	0.057100	-0.086283
N6	N	0.710600	0.903700	0.919000	-0.444386
N7	N	0.044800	0.721400	0.488900	-0.188043
N8	N	0.119400	0.644400	0.557100	-0.086283
N9	N	0.210600	0.596300	0.419000	-0.444386
N10	N	0.455200	0.221400	0.011100	-0.188043
N11	N	0.380600	0.144400	0.942900	-0.086283
N12	N	0.289400	0.096300	0.081000	-0.444386
O1	O	0.605800	0.660800	0.592900	-0.716603
O2	O	0.493000	0.775200	0.704600	-0.391823
O3	O	0.758100	0.982400	0.703200	-0.666458
O4	O	0.591000	0.149300	0.733300	-0.388037
O5	O	0.894200	0.160800	0.907100	-0.716603
O6	O	0.007000	0.275200	0.795400	-0.391823
O7	O	0.741900	0.482400	0.796800	-0.666458
O8	O	0.909000	0.649300	0.766700	-0.388037
O9	O	0.394200	0.339200	0.407100	-0.716603
O10	O	0.507000	0.224800	0.295400	-0.391823
O11	O	0.241900	0.017600	0.296800	-0.666458
O12	O	0.409000	0.850700	0.266700	-0.388037
O13	O	0.105800	0.839200	0.092900	-0.716603
O14	O	0.993000	0.724800	0.204600	-0.391823
O15	O	0.258100	0.517600	0.203200	-0.666458
O16	O	0.091000	0.350700	0.233300	-0.388037
