data_WEBKOF_clean_PM
_symmetry_space_group_name_H-M	'P1'
_cell_length_a	17.303300
_cell_length_b	18.248100
_cell_length_c	18.248100
_cell_angle_alpha	77.009900
_cell_angle_beta	61.698501
_cell_angle_gamma	61.698499
_symmetry_Int_Tables_number 1

loop_
_symmetry_equiv_pos_as_xyz
'x,y,z'

loop_
_atom_site_label
_atom_site_type_symbol
_atom_site_fract_x
_atom_site_fract_y
_atom_site_fract_z
_atom_site_charge
Zn1	Zn	0.250000	0.500000	0.500000	1.181935
In1	In	0.390960	0.400800	0.999460	-3.227915
In2	In	0.791220	0.599200	0.000540	-3.227882
In3	In	0.609580	0.999460	0.599200	-3.227906
In4	In	0.208240	0.000540	0.400800	-3.227893
In5	In	0.000000	0.000000	0.000000	-3.226866
H1	H	0.911400	0.784800	0.021600	0.133859
H2	H	0.164400	0.705200	0.025000	0.130165
H3	H	0.068600	0.537600	0.033600	0.135657
H4	H	0.424500	0.284500	0.595900	0.145291
H5	H	0.363200	0.463800	0.738400	0.133492
H6	H	0.497400	0.218000	0.788000	0.136023
H7	H	0.717800	0.215200	0.978400	0.133869
H8	H	0.894600	0.294800	0.975000	0.130147
H9	H	0.639800	0.462400	0.966400	0.135646
H10	H	0.304900	0.715500	0.404100	0.145271
H11	H	0.565400	0.536200	0.261600	0.133483
H12	H	0.503400	0.782000	0.212000	0.136019
H13	H	0.067000	0.021600	0.215200	0.133866
H14	H	0.810600	0.025000	0.294800	0.130164
H15	H	0.897800	0.033600	0.462400	0.135648
H16	H	0.979600	0.595900	0.715500	0.145282
H17	H	0.898400	0.738400	0.536200	0.133483
H18	H	0.714600	0.788000	0.782000	0.136028
H19	H	0.303800	0.978400	0.784800	0.133862
H20	H	0.130400	0.975000	0.705200	0.130162
H21	H	0.393800	0.966400	0.537600	0.135652
H22	H	0.291000	0.404100	0.284500	0.145284
H23	H	0.173000	0.261600	0.463800	0.133496
H24	H	0.284600	0.212000	0.218000	0.136001
C1	C	0.036100	0.755400	0.025400	0.019711
C2	C	0.966800	0.740500	0.024100	-0.114939
C3	C	0.229600	0.534200	0.018200	0.365668
C4	C	0.978600	0.658400	0.026600	0.017440
C5	C	0.117700	0.693300	0.025100	-0.113185
C6	C	0.061600	0.592000	0.029200	-0.111223
C7	C	0.022700	0.846600	0.012000	0.366167
C8	C	0.135400	0.609000	0.024800	0.015222
C9	C	0.466600	0.241400	0.684200	0.000470
C10	C	0.424800	0.299600	0.641200	-0.046084
C11	C	0.385300	0.408500	0.726900	-0.089985
C12	C	0.425800	0.345700	0.775300	0.012520
C13	C	0.377900	0.389100	0.661900	0.064508
C14	C	0.469200	0.259700	0.756500	-0.107165
C15	C	0.430900	0.362600	0.853800	0.391311
C16	C	0.332200	0.453700	0.609500	0.387468
C17	C	0.515100	0.153900	0.657100	0.342671
C18	C	0.907300	0.640300	0.018100	0.369786
C19	C	0.816900	0.244600	0.974600	0.019694
C20	C	0.731400	0.259500	0.975900	-0.114976
C21	C	0.782000	0.465800	0.981800	0.365668
C22	C	0.663600	0.341600	0.973400	0.017416
C23	C	0.836100	0.306700	0.974900	-0.113100
C24	C	0.682800	0.408000	0.970800	-0.111162
C25	C	0.881300	0.153400	0.988000	0.366166
C26	C	0.769200	0.391000	0.975200	0.015174
C27	C	0.392200	0.758600	0.315800	0.000427
C28	C	0.365600	0.700400	0.358800	-0.045985
C29	C	0.520700	0.591500	0.273100	-0.089939
C30	C	0.546800	0.654300	0.224700	0.012486
C31	C	0.428900	0.610900	0.338100	0.064472
C32	C	0.485400	0.740300	0.243500	-0.107161
C33	C	0.647300	0.637400	0.146200	0.391314
C34	C	0.395400	0.546300	0.390500	0.387477
C35	C	0.326100	0.846100	0.342900	0.342645
C36	C	0.565700	0.359700	0.981900	0.369784
C37	C	0.938500	0.025400	0.244600	0.019728
C38	C	0.009100	0.024100	0.259500	-0.114978
C39	C	0.752200	0.018200	0.465800	0.365668
C40	C	0.994800	0.026600	0.341600	0.017413
C41	C	0.857200	0.025100	0.306700	-0.113191
C42	C	0.909200	0.029200	0.408000	-0.111177
C43	C	0.965300	0.012000	0.153400	0.366175
C44	C	0.839800	0.024800	0.391000	0.015213
C45	C	0.849200	0.684200	0.758600	0.000449
C46	C	0.934000	0.641200	0.700400	-0.046043
C47	C	0.887800	0.726900	0.591500	-0.089945
C48	C	0.798900	0.775300	0.654300	0.012484
C49	C	0.960200	0.661900	0.610900	0.064498
C50	C	0.774300	0.756500	0.740300	-0.107176
C51	C	0.715300	0.853800	0.637400	0.391331
C52	C	0.058300	0.609500	0.546300	0.387462
C53	C	0.827800	0.657100	0.846100	0.342648
C54	C	0.074600	0.018100	0.359700	0.369795
C55	C	0.208500	0.974600	0.755400	0.019725
C56	C	0.292700	0.975900	0.740500	-0.114959
C57	C	0.236200	0.981800	0.534200	0.365659
C58	C	0.363000	0.973400	0.658400	0.017414
C59	C	0.189000	0.974900	0.693300	-0.113195
C60	C	0.346400	0.970800	0.592000	-0.111184
C61	C	0.130700	0.988000	0.846600	0.366166
C62	C	0.255600	0.975200	0.609000	0.015220
C63	C	0.292000	0.315800	0.241400	0.000445
C64	C	0.275600	0.358800	0.299600	-0.046050
C65	C	0.206200	0.273100	0.408500	-0.090003
C66	C	0.228500	0.224700	0.345700	0.012504
C67	C	0.233000	0.338100	0.389100	0.064528
C68	C	0.271100	0.243500	0.259700	-0.107124
C69	C	0.206500	0.146200	0.362600	0.391312
C70	C	0.214100	0.390500	0.453700	0.387442
C71	C	0.331000	0.342900	0.153900	0.342652
C72	C	0.452400	0.981900	0.640300	0.369781
O1	O	0.235000	0.462700	0.020900	0.209062
O2	O	0.913900	0.568200	0.029000	0.240214
O3	O	0.411900	0.437200	0.861400	0.166504
O4	O	0.839000	0.699100	0.004700	0.169323
O5	O	0.520000	0.133600	0.594200	0.228601
O6	O	0.564800	0.092100	0.696500	0.206656
O7	O	0.428000	0.311800	0.907800	0.213731
O8	O	0.298100	0.545300	0.011700	0.187776
O9	O	0.953700	0.902400	0.008800	0.223822
O10	O	0.090900	0.858000	0.014000	0.178794
O11	O	0.316400	0.421000	0.565200	-0.559405
O12	O	0.311600	0.525400	0.616600	-0.310773
O13	O	0.718600	0.537300	0.979100	0.209058
O14	O	0.511100	0.431800	0.971000	0.240212
O15	O	0.710500	0.562800	0.138600	0.166498
O16	O	0.542800	0.300900	0.995300	0.169325
O17	O	0.247800	0.866400	0.405800	0.228600
O18	O	0.353400	0.907900	0.303500	0.206661
O19	O	0.647600	0.688200	0.092200	0.213728
O20	O	0.855100	0.454700	0.988300	0.187775
O21	O	0.864900	0.097600	0.991200	0.223822
O22	O	0.962900	0.142000	0.986000	0.178797
O23	O	0.302600	0.579000	0.434800	-0.559417
O24	O	0.453600	0.474600	0.383400	-0.310782
O25	O	0.744100	0.020900	0.537300	0.209059
O26	O	0.057100	0.029000	0.431800	0.240215
O27	O	0.726700	0.861400	0.562800	0.166496
O28	O	0.156300	0.004700	0.300900	0.169325
O29	O	0.885800	0.594200	0.866400	0.228596
O30	O	0.738700	0.696500	0.907900	0.206661
O31	O	0.664200	0.907800	0.688200	0.213732
O32	O	0.690200	0.011700	0.454700	0.187775
O33	O	0.037500	0.008800	0.097600	0.223821
O34	O	0.895100	0.014000	0.142000	0.178791
O35	O	0.118400	0.565200	0.579000	-0.559396
O36	O	0.071800	0.616600	0.474600	-0.310777
O37	O	0.302300	0.979100	0.462700	0.209063
O38	O	0.517900	0.971000	0.568200	0.240214
O39	O	0.150900	0.138600	0.437200	0.166504
O40	O	0.461900	0.995300	0.699100	0.169324
O41	O	0.346400	0.405800	0.133600	0.228601
O42	O	0.343100	0.303500	0.092100	0.206667
O43	O	0.260200	0.092200	0.311800	0.213728
O44	O	0.156600	0.988300	0.545300	0.187779
O45	O	0.143900	0.991200	0.902400	0.223823
O46	O	0.051100	0.986000	0.858000	0.178797
O47	O	0.262600	0.434800	0.421000	-0.559372
O48	O	0.163000	0.383400	0.525400	-0.310775
