data_WUCRUH_clean_PM
_symmetry_space_group_name_H-M	'P1'
_cell_length_a	7.106200
_cell_length_b	9.736700
_cell_length_c	9.859000
_cell_angle_alpha	60.409499
_cell_angle_beta	84.151504
_cell_angle_gamma	78.091104
_symmetry_Int_Tables_number 1

loop_
_symmetry_equiv_pos_as_xyz
'x,y,z'

loop_
_atom_site_label
_atom_site_type_symbol
_atom_site_fract_x
_atom_site_fract_y
_atom_site_fract_z
_atom_site_charge
Fe1	Fe	0.431610	0.356850	0.676900	1.316340
Fe2	Fe	0.568390	0.966250	0.676900	1.316278
Fe3	Fe	0.000000	0.336390	0.327220	1.289327
H1	H	0.284100	0.157100	0.092000	0.124617
H2	H	0.251500	0.753800	0.498800	0.134154
H3	H	0.211000	0.758500	0.093400	0.145858
H4	H	0.715900	0.750900	0.092000	0.125120
H5	H	0.748500	0.747400	0.498800	0.134276
H6	H	0.789000	0.148100	0.093400	0.145418
C1	C	0.274300	0.968200	0.309000	0.039761
C2	C	0.215600	0.731800	0.309800	0.030996
C3	C	0.255800	0.966700	0.067800	0.039986
C4	C	0.273300	0.049200	0.147200	-0.105434
C5	C	0.282700	0.043800	0.894400	0.457553
C6	C	0.247700	0.808800	0.390400	-0.043537
C7	C	0.176800	0.565000	0.395000	0.452804
C8	C	0.321400	0.045100	0.399200	0.453044
C9	C	0.225300	0.811100	0.148000	-0.051943
C10	C	0.725700	0.722800	0.309000	0.040619
C11	C	0.784400	0.958400	0.309800	0.030526
C12	C	0.744200	0.965500	0.067800	0.039680
C13	C	0.726700	0.803600	0.147200	-0.107036
C14	C	0.717300	0.061800	0.894400	0.457567
C15	C	0.752300	0.800800	0.390400	-0.043701
C16	C	0.823200	0.040000	0.395000	0.453428
C17	C	0.678600	0.555700	0.399200	0.452703
C18	C	0.774700	0.040900	0.148000	-0.050546
O1	O	0.174600	0.492200	0.543400	-0.544145
O2	O	0.398700	0.952000	0.529800	-0.625106
O3	O	0.284100	0.196100	0.339000	-0.511783
O4	O	0.257800	0.194000	0.816400	-0.597311
O5	O	0.145600	0.505700	0.313000	-0.618878
O6	O	0.332500	0.953300	0.835600	-0.570870
O7	O	0.825400	0.964400	0.543400	-0.544417
O8	O	0.601300	0.518200	0.529800	-0.625225
O9	O	0.715900	0.464900	0.339000	-0.511511
O10	O	0.742200	0.989600	0.816400	-0.597027
O11	O	0.854400	0.181300	0.313000	-0.619158
O12	O	0.667500	0.211100	0.835600	-0.571096
O13	O	0.500000	0.236200	0.527600	-0.341331
