data_XADFAL_clean_PM
_symmetry_space_group_name_H-M	'P1'
_cell_length_a	9.747000
_cell_length_b	9.747000
_cell_length_c	14.769500
_cell_angle_alpha	100.159998
_cell_angle_beta	100.159998
_cell_angle_gamma	107.053004
_symmetry_Int_Tables_number 1

loop_
_symmetry_equiv_pos_as_xyz
'x,y,z'

loop_
_atom_site_label
_atom_site_type_symbol
_atom_site_fract_x
_atom_site_fract_y
_atom_site_fract_z
_atom_site_charge
Cu1	Cu	0.496620	0.006440	0.757040	1.133574
Cu2	Cu	0.993560	0.503380	0.742960	1.133574
Cu3	Cu	0.503380	0.993560	0.242960	1.133574
Cu4	Cu	0.006440	0.496620	0.257040	1.133574
H1	H	0.833900	0.830900	0.868600	0.125186
H2	H	0.397400	0.273200	0.765700	0.085463
H3	H	0.259800	0.399000	0.752600	0.088397
H4	H	0.169100	0.166100	0.631400	0.125186
H5	H	0.726800	0.602600	0.734300	0.085463
H6	H	0.601000	0.740200	0.747400	0.088397
H7	H	0.166100	0.169100	0.131400	0.125186
H8	H	0.602600	0.726800	0.234300	0.085463
H9	H	0.740200	0.601000	0.247400	0.088397
H10	H	0.830900	0.833900	0.368600	0.125186
H11	H	0.273200	0.397400	0.265700	0.085463
H12	H	0.399000	0.259800	0.252600	0.088397
H13	H	0.218000	0.782000	0.750000	0.124189
H14	H	0.776000	0.224000	0.750000	0.133999
H15	H	0.782000	0.218000	0.250000	0.124189
H16	H	0.224000	0.776000	0.250000	0.133999
C1	C	0.721160	0.034840	0.918900	0.424676
C2	C	0.869320	0.023280	0.960700	0.040871
C3	C	0.900730	0.899070	0.921800	-0.060058
C4	C	0.970840	0.126560	0.039900	0.039702
C5	C	0.949600	0.268400	0.083300	0.424052
C6	C	0.493100	0.311500	0.758600	0.091096
C7	C	0.300770	0.497430	0.751200	0.093321
C8	C	0.965160	0.278840	0.581100	0.424676
C9	C	0.976720	0.130680	0.539300	0.040871
C10	C	0.100930	0.099270	0.578200	-0.060058
C11	C	0.873440	0.029160	0.460100	0.039702
C12	C	0.731600	0.050400	0.416700	0.424052
C13	C	0.688500	0.506900	0.741400	0.091096
C14	C	0.502570	0.699230	0.748800	0.093321
C15	C	0.278840	0.965160	0.081100	0.424676
C16	C	0.130680	0.976720	0.039300	0.040871
C17	C	0.099270	0.100930	0.078200	-0.060058
C18	C	0.029160	0.873440	0.960100	0.039702
C19	C	0.050400	0.731600	0.916700	0.424052
C20	C	0.506900	0.688500	0.241400	0.091096
C21	C	0.699230	0.502570	0.248800	0.093321
C22	C	0.034840	0.721160	0.418900	0.424676
C23	C	0.023280	0.869320	0.460700	0.040871
C24	C	0.899070	0.900730	0.421800	-0.060058
C25	C	0.126560	0.970840	0.539900	0.039702
C26	C	0.268400	0.949600	0.583300	0.424052
C27	C	0.311500	0.493100	0.258600	0.091096
C28	C	0.497430	0.300770	0.251200	0.093321
C29	C	0.716300	0.283700	0.750000	0.218511
C30	C	0.543600	0.456400	0.750000	-0.006578
C31	C	0.448900	0.551100	0.750000	-0.007403
C32	C	0.276600	0.723400	0.750000	0.215797
C33	C	0.283700	0.716300	0.250000	0.218511
C34	C	0.456400	0.543600	0.250000	-0.006578
C35	C	0.551100	0.448900	0.250000	-0.007403
C36	C	0.723400	0.276600	0.250000	0.215797
N1	N	0.577540	0.225260	0.756810	-0.410821
N2	N	0.214880	0.582320	0.750510	-0.413387
N3	N	0.774740	0.422460	0.743190	-0.410821
N4	N	0.417680	0.785120	0.749490	-0.413387
N5	N	0.422460	0.774740	0.243190	-0.410821
N6	N	0.785120	0.417680	0.249490	-0.413387
N7	N	0.225260	0.577540	0.256810	-0.410821
N8	N	0.582320	0.214880	0.250510	-0.413387
O1	O	0.688920	0.019680	0.830580	-0.695667
O2	O	0.640200	0.050800	0.970000	-0.307096
O3	O	0.993120	0.311960	0.172000	-0.704098
O4	O	0.891300	0.330900	0.031200	-0.294468
O5	O	0.980320	0.311080	0.669420	-0.695667
O6	O	0.949200	0.359800	0.530000	-0.307096
O7	O	0.688040	0.006880	0.328000	-0.704098
O8	O	0.669100	0.108700	0.468800	-0.294468
O9	O	0.311080	0.980320	0.169420	-0.695667
O10	O	0.359800	0.949200	0.030000	-0.307096
O11	O	0.006880	0.688040	0.828000	-0.704098
O12	O	0.108700	0.669100	0.968800	-0.294468
O13	O	0.019680	0.688920	0.330580	-0.695667
O14	O	0.050800	0.640200	0.470000	-0.307096
O15	O	0.311960	0.993120	0.672000	-0.704098
O16	O	0.330900	0.891300	0.531200	-0.294468
