data_XAXQEU_clean_PM
_symmetry_space_group_name_H-M	'P1'
_cell_length_a	7.162200
_cell_length_b	9.094000
_cell_length_c	9.749000
_cell_angle_alpha	105.662998
_cell_angle_beta	103.180998
_cell_angle_gamma	98.248001
_symmetry_Int_Tables_number 1

loop_
_symmetry_equiv_pos_as_xyz
'x,y,z'

loop_
_atom_site_label
_atom_site_type_symbol
_atom_site_fract_x
_atom_site_fract_y
_atom_site_fract_z
_atom_site_charge
In1	In	0.000000	0.500000	0.000000	-3.985199
In2	In	0.500000	0.500000	0.000000	-3.982518
H1	H	0.508000	0.013000	0.709000	0.109915
H2	H	0.767100	0.114100	0.548700	0.122848
H3	H	0.812900	0.007900	0.649600	0.143219
H4	H	0.079200	0.282500	0.350300	0.138474
H5	H	0.056500	0.303200	0.510200	0.124302
H6	H	0.206500	0.547700	0.411800	0.182852
H7	H	0.330700	0.483100	0.527700	0.117422
H8	H	0.291600	0.145100	0.603700	0.155034
H9	H	0.435600	0.200100	0.518800	0.119799
H10	H	0.759000	0.277000	0.346000	0.109085
H11	H	0.492000	0.987000	0.291000	0.109915
H12	H	0.232900	0.885900	0.451300	0.122848
H13	H	0.187100	0.992100	0.350400	0.143219
H14	H	0.920800	0.717500	0.649700	0.138474
H15	H	0.943500	0.696800	0.489800	0.124302
H16	H	0.793500	0.452300	0.588200	0.182852
H17	H	0.669300	0.516900	0.472300	0.117422
H18	H	0.708400	0.854900	0.396300	0.155034
H19	H	0.564400	0.799900	0.481200	0.119799
H20	H	0.241000	0.723000	0.654000	0.109085
C1	C	0.708800	0.031300	0.581300	-0.232460
C2	C	0.049800	0.352600	0.433100	-0.167666
C3	C	0.841800	0.377000	0.382400	-0.164841
C4	C	0.202500	0.504000	0.491800	-0.133814
C5	C	0.801000	0.419700	0.240400	0.393615
C6	C	0.646300	0.231500	0.792700	0.387307
C7	C	0.559200	0.086800	0.660500	-0.073390
C8	C	0.388400	0.114700	0.552700	-0.186245
C9	C	0.291200	0.968700	0.418700	-0.232460
C10	C	0.950200	0.647400	0.566900	-0.167666
C11	C	0.158200	0.623000	0.617600	-0.164841
C12	C	0.797500	0.496000	0.508200	-0.133814
C13	C	0.199000	0.580300	0.759600	0.393615
C14	C	0.353700	0.768500	0.207300	0.387307
C15	C	0.440800	0.913200	0.339500	-0.073390
C16	C	0.611600	0.885300	0.447300	-0.186245
O1	O	0.766400	0.614600	0.985500	1.024020
O2	O	0.532700	0.276200	0.869900	0.466739
O3	O	0.643600	0.464400	0.203600	0.444554
O4	O	0.821300	0.298800	0.818800	0.438367
O5	O	0.922100	0.404100	0.164400	0.464721
O6	O	0.233600	0.385400	0.014500	1.024020
O7	O	0.467300	0.723800	0.130100	0.466739
O8	O	0.356400	0.535600	0.796400	0.444554
O9	O	0.178700	0.701200	0.181200	0.438367
O10	O	0.077900	0.595900	0.835600	0.464721
