data_YEGDAR_clean_PM
_symmetry_space_group_name_H-M	'P1'
_cell_length_a	9.777000
_cell_length_b	9.777000
_cell_length_c	33.611000
_cell_angle_alpha	90.000000
_cell_angle_beta	90.000000
_cell_angle_gamma	90.340999
_symmetry_Int_Tables_number 1

loop_
_symmetry_equiv_pos_as_xyz
'x,y,z'

loop_
_atom_site_label
_atom_site_type_symbol
_atom_site_fract_x
_atom_site_fract_y
_atom_site_fract_z
_atom_site_charge
Mn1	Mn	0.952650	0.027410	0.392580	-2.163061
Mn2	Mn	0.027410	0.952650	0.607420	-2.163061
Mn3	Mn	0.027410	0.952650	0.892580	-2.163061
Mn4	Mn	0.952650	0.027410	0.107420	-2.163061
Mn5	Mn	0.972690	0.972690	0.500000	-2.339299
Mn6	Mn	0.972690	0.972690	0.000000	-2.339299
H1	H	0.273400	0.959800	0.382900	0.179447
H2	H	0.680100	0.925300	0.389700	0.215633
H3	H	0.460400	0.976000	0.488900	0.115500
H4	H	0.231800	0.301200	0.309200	0.105607
H5	H	0.487500	0.329700	0.289000	0.177280
H6	H	0.528300	0.483500	0.282600	0.175206
H7	H	0.400600	0.445600	0.308700	0.172559
H8	H	0.799400	0.280000	0.340100	0.097283
H9	H	0.676300	0.473700	0.367200	0.066242
H10	H	0.793600	0.236800	0.455500	0.181917
H11	H	0.656000	0.439800	0.477800	0.084232
H12	H	0.678100	0.566500	0.449700	0.092186
H13	H	0.453300	0.278300	0.449200	0.100826
H14	H	0.231500	0.275900	0.429500	0.148859
H15	H	0.249200	0.676400	0.416400	0.108412
H16	H	0.477600	0.673600	0.431900	0.102837
H17	H	0.010700	0.466500	0.434800	0.091266
H18	H	0.046000	0.393000	0.394700	0.130392
H19	H	0.966800	0.726200	0.432000	0.202790
H20	H	0.986500	0.787700	0.317400	0.095396
H21	H	0.048600	0.551000	0.329200	0.062329
H22	H	0.281700	0.919700	0.321600	0.193294
H23	H	0.363300	0.836500	0.289700	0.175066
H24	H	0.333400	0.772000	0.331500	0.175283
H25	H	0.585300	0.101700	0.325900	0.186954
H26	H	0.508400	0.054200	0.287300	0.171316
H27	H	0.425800	0.114200	0.323200	0.172440
H28	H	0.603400	0.743200	0.332900	0.168500
H29	H	0.599300	0.816300	0.291400	0.171102
H30	H	0.689900	0.876500	0.325800	0.216955
H31	H	0.959800	0.273400	0.617100	0.179447
H32	H	0.925300	0.680100	0.610300	0.215633
H33	H	0.976000	0.460400	0.511100	0.115500
H34	H	0.301200	0.231800	0.690800	0.105607
H35	H	0.329700	0.487500	0.711000	0.177280
H36	H	0.483500	0.528300	0.717400	0.175206
H37	H	0.445600	0.400600	0.691300	0.172559
H38	H	0.280000	0.799400	0.659900	0.097283
H39	H	0.473700	0.676300	0.632800	0.066242
H40	H	0.236800	0.793600	0.544500	0.181917
H41	H	0.439800	0.656000	0.522200	0.084232
H42	H	0.566500	0.678100	0.550300	0.092186
H43	H	0.278300	0.453300	0.550800	0.100826
H44	H	0.275900	0.231500	0.570500	0.148859
H45	H	0.676400	0.249200	0.583600	0.108412
H46	H	0.673600	0.477600	0.568100	0.102837
H47	H	0.466500	0.010700	0.565200	0.091266
H48	H	0.393000	0.046000	0.605300	0.130392
H49	H	0.726200	0.966800	0.568000	0.202790
H50	H	0.787700	0.986500	0.682600	0.095396
H51	H	0.551000	0.048600	0.670800	0.062329
H52	H	0.919700	0.281700	0.678400	0.193294
H53	H	0.836500	0.363300	0.710300	0.175066
H54	H	0.772000	0.333400	0.668500	0.175283
H55	H	0.101700	0.585300	0.674100	0.186954
H56	H	0.054200	0.508400	0.712700	0.171316
H57	H	0.114200	0.425800	0.676800	0.172440
H58	H	0.743200	0.603400	0.667100	0.168500
H59	H	0.816300	0.599300	0.708600	0.171102
H60	H	0.876500	0.689900	0.674200	0.216955
H61	H	0.959800	0.273400	0.882900	0.179447
H62	H	0.925300	0.680100	0.889700	0.215633
H63	H	0.976000	0.460400	0.988900	0.115500
H64	H	0.301200	0.231800	0.809200	0.105607
H65	H	0.329700	0.487500	0.789000	0.177280
H66	H	0.483500	0.528300	0.782600	0.175206
H67	H	0.445600	0.400600	0.808700	0.172559
H68	H	0.280000	0.799400	0.840100	0.097283
H69	H	0.473700	0.676300	0.867200	0.066242
H70	H	0.236800	0.793600	0.955500	0.181917
H71	H	0.439800	0.656000	0.977800	0.084232
H72	H	0.566500	0.678100	0.949700	0.092186
H73	H	0.278300	0.453300	0.949200	0.100826
H74	H	0.275900	0.231500	0.929500	0.148859
H75	H	0.676400	0.249200	0.916400	0.108412
H76	H	0.673600	0.477600	0.931900	0.102837
H77	H	0.466500	0.010700	0.934800	0.091266
H78	H	0.393000	0.046000	0.894700	0.130392
H79	H	0.726200	0.966800	0.932000	0.202790
H80	H	0.787700	0.986500	0.817400	0.095396
H81	H	0.551000	0.048600	0.829200	0.062329
H82	H	0.919700	0.281700	0.821600	0.193294
H83	H	0.836500	0.363300	0.789700	0.175066
H84	H	0.772000	0.333400	0.831500	0.175283
H85	H	0.101700	0.585300	0.825900	0.186954
H86	H	0.054200	0.508400	0.787300	0.171316
H87	H	0.114200	0.425800	0.823200	0.172440
H88	H	0.743200	0.603400	0.832900	0.168500
H89	H	0.816300	0.599300	0.791400	0.171102
H90	H	0.876500	0.689900	0.825800	0.216955
H91	H	0.273400	0.959800	0.117100	0.179447
H92	H	0.680100	0.925300	0.110300	0.215633
H93	H	0.460400	0.976000	0.011100	0.115500
H94	H	0.231800	0.301200	0.190800	0.105607
H95	H	0.487500	0.329700	0.211000	0.177280
H96	H	0.528300	0.483500	0.217400	0.175206
H97	H	0.400600	0.445600	0.191300	0.172559
H98	H	0.799400	0.280000	0.159900	0.097283
H99	H	0.676300	0.473700	0.132800	0.066242
H100	H	0.793600	0.236800	0.044500	0.181917
H101	H	0.656000	0.439800	0.022200	0.084232
H102	H	0.678100	0.566500	0.050300	0.092186
H103	H	0.453300	0.278300	0.050800	0.100826
H104	H	0.231500	0.275900	0.070500	0.148859
H105	H	0.249200	0.676400	0.083600	0.108412
H106	H	0.477600	0.673600	0.068100	0.102837
H107	H	0.010700	0.466500	0.065200	0.091266
H108	H	0.046000	0.393000	0.105300	0.130392
H109	H	0.966800	0.726200	0.068000	0.202790
H110	H	0.986500	0.787700	0.182600	0.095396
H111	H	0.048600	0.551000	0.170800	0.062329
H112	H	0.281700	0.919700	0.178400	0.193294
H113	H	0.363300	0.836500	0.210300	0.175066
H114	H	0.333400	0.772000	0.168500	0.175283
H115	H	0.585300	0.101700	0.174100	0.186954
H116	H	0.508400	0.054200	0.212700	0.171316
H117	H	0.425800	0.114200	0.176800	0.172440
H118	H	0.603400	0.743200	0.167100	0.168500
H119	H	0.599300	0.816300	0.208600	0.171102
H120	H	0.689900	0.876500	0.174200	0.216955
H121	H	0.961700	0.068100	0.250000	0.106341
H122	H	0.068100	0.961700	0.750000	0.106341
C1	C	0.209900	0.980900	0.458310	0.293628
C2	C	0.345900	0.969700	0.438660	0.032268
C3	C	0.353400	0.955400	0.397760	-0.116006
C4	C	0.477800	0.934600	0.378140	0.030290
C5	C	0.595400	0.936400	0.401860	-0.060555
C6	C	0.590500	0.954100	0.442650	0.028304
C7	C	0.465000	0.968000	0.461370	-0.228801
C8	C	0.720600	0.958400	0.466290	0.283240
C9	C	0.487600	0.915000	0.333360	0.221521
C10	C	0.035100	0.121900	0.324400	0.247659
C11	C	0.089300	0.175500	0.285840	0.027205
C12	C	0.196400	0.270000	0.285220	-0.163486
C13	C	0.453100	0.420700	0.285700	-0.629933
C14	C	0.782700	0.295500	0.366970	0.036830
C15	C	0.715100	0.402700	0.381660	0.020381
C16	C	0.780100	0.271500	0.430030	0.156774
C17	C	0.641800	0.474000	0.451010	-0.080206
C18	C	0.490600	0.475400	0.441740	0.053563
C19	C	0.413100	0.360100	0.441500	-0.086583
C20	C	0.279400	0.358200	0.430700	-0.088450
C21	C	0.215700	0.477500	0.421450	0.019828
C22	C	0.290800	0.593600	0.422400	-0.035331
C23	C	0.428000	0.592200	0.432100	-0.174386
C24	C	0.064300	0.473900	0.410560	-0.004626
C25	C	0.980500	0.712900	0.404870	0.168254
C26	C	0.990900	0.745900	0.342160	0.032147
C27	C	0.025600	0.614800	0.348510	0.016497
C28	C	0.354200	0.855200	0.317600	-0.590941
C29	C	0.503300	0.059900	0.315800	-0.573414
C30	C	0.605700	0.830100	0.319600	-0.598712
C31	C	0.980900	0.209900	0.541690	0.293628
C32	C	0.969700	0.345900	0.561340	0.032268
C33	C	0.955400	0.353400	0.602240	-0.116006
C34	C	0.934600	0.477800	0.621860	0.030290
C35	C	0.936400	0.595400	0.598140	-0.060555
C36	C	0.954100	0.590500	0.557350	0.028304
C37	C	0.968000	0.465000	0.538630	-0.228801
C38	C	0.958400	0.720600	0.533710	0.283240
C39	C	0.915000	0.487600	0.666640	0.221521
C40	C	0.121900	0.035100	0.675600	0.247659
C41	C	0.175500	0.089300	0.714160	0.027205
C42	C	0.270000	0.196400	0.714780	-0.163486
C43	C	0.420700	0.453100	0.714300	-0.629933
C44	C	0.295500	0.782700	0.633030	0.036830
C45	C	0.402700	0.715100	0.618340	0.020381
C46	C	0.271500	0.780100	0.569970	0.156774
C47	C	0.474000	0.641800	0.548990	-0.080206
C48	C	0.475400	0.490600	0.558260	0.053563
C49	C	0.360100	0.413100	0.558500	-0.086583
C50	C	0.358200	0.279400	0.569300	-0.088450
C51	C	0.477500	0.215700	0.578550	0.019828
C52	C	0.593600	0.290800	0.577600	-0.035331
C53	C	0.592200	0.428000	0.567900	-0.174386
C54	C	0.473900	0.064300	0.589440	-0.004626
C55	C	0.712900	0.980500	0.595130	0.168254
C56	C	0.745900	0.990900	0.657840	0.032147
C57	C	0.614800	0.025600	0.651490	0.016497
C58	C	0.855200	0.354200	0.682400	-0.590941
C59	C	0.059900	0.503300	0.684200	-0.573414
C60	C	0.830100	0.605700	0.680400	-0.598712
C61	C	0.980900	0.209900	0.958310	0.293628
C62	C	0.969700	0.345900	0.938660	0.032268
C63	C	0.955400	0.353400	0.897760	-0.116006
C64	C	0.934600	0.477800	0.878140	0.030290
C65	C	0.936400	0.595400	0.901860	-0.060555
C66	C	0.954100	0.590500	0.942650	0.028304
C67	C	0.968000	0.465000	0.961370	-0.228801
C68	C	0.958400	0.720600	0.966290	0.283240
C69	C	0.915000	0.487600	0.833360	0.221521
C70	C	0.121900	0.035100	0.824400	0.247659
C71	C	0.175500	0.089300	0.785840	0.027205
C72	C	0.270000	0.196400	0.785220	-0.163486
C73	C	0.420700	0.453100	0.785700	-0.629933
C74	C	0.295500	0.782700	0.866970	0.036830
C75	C	0.402700	0.715100	0.881660	0.020381
C76	C	0.271500	0.780100	0.930030	0.156774
C77	C	0.474000	0.641800	0.951010	-0.080206
C78	C	0.475400	0.490600	0.941740	0.053563
C79	C	0.360100	0.413100	0.941500	-0.086583
C80	C	0.358200	0.279400	0.930700	-0.088450
C81	C	0.477500	0.215700	0.921450	0.019828
C82	C	0.593600	0.290800	0.922400	-0.035331
C83	C	0.592200	0.428000	0.932100	-0.174386
C84	C	0.473900	0.064300	0.910560	-0.004626
C85	C	0.712900	0.980500	0.904870	0.168254
C86	C	0.745900	0.990900	0.842160	0.032147
C87	C	0.614800	0.025600	0.848510	0.016497
C88	C	0.855200	0.354200	0.817600	-0.590941
C89	C	0.059900	0.503300	0.815800	-0.573414
C90	C	0.830100	0.605700	0.819600	-0.598712
C91	C	0.209900	0.980900	0.041690	0.293628
C92	C	0.345900	0.969700	0.061340	0.032268
C93	C	0.353400	0.955400	0.102240	-0.116006
C94	C	0.477800	0.934600	0.121860	0.030290
C95	C	0.595400	0.936400	0.098140	-0.060555
C96	C	0.590500	0.954100	0.057350	0.028304
C97	C	0.465000	0.968000	0.038630	-0.228801
C98	C	0.720600	0.958400	0.033710	0.283240
C99	C	0.487600	0.915000	0.166640	0.221521
C100	C	0.035100	0.121900	0.175600	0.247659
C101	C	0.089300	0.175500	0.214160	0.027205
C102	C	0.196400	0.270000	0.214780	-0.163486
C103	C	0.453100	0.420700	0.214300	-0.629933
C104	C	0.782700	0.295500	0.133030	0.036830
C105	C	0.715100	0.402700	0.118340	0.020381
C106	C	0.780100	0.271500	0.069970	0.156774
C107	C	0.641800	0.474000	0.048990	-0.080206
C108	C	0.490600	0.475400	0.058260	0.053563
C109	C	0.413100	0.360100	0.058500	-0.086583
C110	C	0.279400	0.358200	0.069300	-0.088450
C111	C	0.215700	0.477500	0.078550	0.019828
C112	C	0.290800	0.593600	0.077600	-0.035331
C113	C	0.428000	0.592200	0.067900	-0.174386
C114	C	0.064300	0.473900	0.089440	-0.004626
C115	C	0.980500	0.712900	0.095130	0.168254
C116	C	0.990900	0.745900	0.157840	0.032147
C117	C	0.025600	0.614800	0.151490	0.016497
C118	C	0.354200	0.855200	0.182400	-0.590941
C119	C	0.503300	0.059900	0.184200	-0.573414
C120	C	0.605700	0.830100	0.180400	-0.598712
C121	C	0.034700	0.129500	0.250000	-0.177547
C122	C	0.251800	0.319200	0.250000	0.061925
C123	C	0.365200	0.426200	0.250000	0.174538
C124	C	0.299600	0.564600	0.250000	-0.040936
C125	C	0.129500	0.034700	0.750000	-0.177547
C126	C	0.319200	0.251800	0.750000	0.061925
C127	C	0.426200	0.365200	0.750000	0.174538
C128	C	0.564600	0.299600	0.750000	-0.040936
N1	N	0.824000	0.211800	0.397500	0.182833
N2	N	0.714400	0.387000	0.422450	-0.318759
N3	N	0.962700	0.808900	0.377770	0.178916
N4	N	0.021000	0.593000	0.388760	-0.349125
N5	N	0.211800	0.824000	0.602500	0.182833
N6	N	0.387000	0.714400	0.577550	-0.318759
N7	N	0.808900	0.962700	0.622230	0.178916
N8	N	0.593000	0.021000	0.611240	-0.349125
N9	N	0.211800	0.824000	0.897500	0.182833
N10	N	0.387000	0.714400	0.922450	-0.318759
N11	N	0.808900	0.962700	0.877770	0.178916
N12	N	0.593000	0.021000	0.888760	-0.349125
N13	N	0.824000	0.211800	0.102500	0.182833
N14	N	0.714400	0.387000	0.077550	-0.318759
N15	N	0.962700	0.808900	0.122230	0.178916
N16	N	0.021000	0.593000	0.111240	-0.349125
O1	O	0.106570	0.009030	0.437690	0.325720
O2	O	0.198500	0.962100	0.494990	0.148762
O3	O	0.717100	0.964900	0.502900	0.034162
O4	O	0.834810	0.958990	0.447980	0.350936
O5	O	0.099000	0.149000	0.356130	0.086228
O6	O	0.928980	0.049620	0.324640	0.056803
O7	O	0.009030	0.106570	0.562310	0.325720
O8	O	0.962100	0.198500	0.505010	0.148762
O9	O	0.964900	0.717100	0.497100	0.034162
O10	O	0.958990	0.834810	0.552020	0.350936
O11	O	0.149000	0.099000	0.643870	0.086228
O12	O	0.049620	0.928980	0.675360	0.056803
O13	O	0.009030	0.106570	0.937690	0.325720
O14	O	0.962100	0.198500	0.994990	0.148762
O15	O	0.964900	0.717100	0.002900	0.034162
O16	O	0.958990	0.834810	0.947980	0.350936
O17	O	0.149000	0.099000	0.856130	0.086228
O18	O	0.049620	0.928980	0.824640	0.056803
O19	O	0.106570	0.009030	0.062310	0.325720
O20	O	0.198500	0.962100	0.005010	0.148762
O21	O	0.717100	0.964900	0.997100	0.034162
O22	O	0.834810	0.958990	0.052020	0.350936
O23	O	0.099000	0.149000	0.143870	0.086228
O24	O	0.928980	0.049620	0.175360	0.056803
