data_ZEKRIS_clean_PM
_symmetry_space_group_name_H-M	'P1'
_cell_length_a	9.666000
_cell_length_b	11.692000
_cell_length_c	12.366000
_cell_angle_alpha	72.750000
_cell_angle_beta	67.911999
_cell_angle_gamma	76.869001
_symmetry_Int_Tables_number 1

loop_
_symmetry_equiv_pos_as_xyz
'x,y,z'

loop_
_atom_site_label
_atom_site_type_symbol
_atom_site_fract_x
_atom_site_fract_y
_atom_site_fract_z
_atom_site_charge
Li1	Li	0.546900	0.383300	0.053300	-2.416542
Li2	Li	0.534900	0.072600	0.387500	-2.443349
Li3	Li	0.234000	0.108500	0.516500	4.808561
Li4	Li	0.554900	0.307400	0.305200	-2.327639
Li5	Li	0.453100	0.616700	0.946700	-2.416542
Li6	Li	0.465100	0.927400	0.612500	-2.443349
Li7	Li	0.766000	0.891500	0.483500	4.808561
Li8	Li	0.445100	0.692600	0.694800	-2.327639
H1	H	0.097200	0.101900	0.338100	-1.581446
H2	H	0.849500	0.330600	0.146300	0.343304
H3	H	0.251600	0.403500	0.111900	0.363490
H4	H	0.581800	0.610700	0.348600	0.167557
H5	H	0.544300	0.773900	0.025500	0.279854
H6	H	0.538200	0.970000	0.244000	0.322386
H7	H	0.902800	0.898100	0.661900	-1.581446
H8	H	0.150500	0.669400	0.853700	0.343304
H9	H	0.748400	0.596500	0.888100	0.363490
H10	H	0.418200	0.389300	0.651400	0.167557
H11	H	0.455700	0.226100	0.974500	0.279854
H12	H	0.461800	0.030000	0.756000	0.322386
C1	C	0.337130	0.218150	0.263090	0.415602
C2	C	0.826720	0.127360	0.319920	1.027494
C3	C	0.197880	0.247370	0.228660	-0.084465
C4	C	0.084650	0.173600	0.282420	0.926900
C5	C	0.952460	0.205690	0.253920	0.137832
C6	C	0.936320	0.309520	0.167390	-0.083749
C7	C	0.050730	0.381820	0.112360	0.058967
C8	C	0.178160	0.351860	0.145980	-0.051350
C9	C	0.555520	0.799230	0.436100	0.131790
C10	C	0.571820	0.551450	0.162840	0.355176
C11	C	0.558160	0.791750	0.315720	0.016047
C12	C	0.569930	0.681290	0.291510	-0.151403
C13	C	0.564340	0.673930	0.183140	0.047795
C14	C	0.547700	0.777970	0.098420	0.019162
C15	C	0.535800	0.888940	0.122080	0.081051
C16	C	0.543300	0.895160	0.229720	0.028624
C17	C	0.662870	0.781850	0.736910	0.415602
C18	C	0.173280	0.872640	0.680080	1.027494
C19	C	0.802120	0.752630	0.771340	-0.084465
C20	C	0.915350	0.826400	0.717580	0.926900
C21	C	0.047540	0.794310	0.746080	0.137832
C22	C	0.063680	0.690480	0.832610	-0.083749
C23	C	0.949270	0.618180	0.887640	0.058967
C24	C	0.821840	0.648140	0.854020	-0.051350
C25	C	0.444480	0.200770	0.563900	0.131790
C26	C	0.428180	0.448550	0.837160	0.355176
C27	C	0.441840	0.208250	0.684280	0.016047
C28	C	0.430070	0.318710	0.708490	-0.151403
C29	C	0.435660	0.326070	0.816860	0.047795
C30	C	0.452300	0.222030	0.901580	0.019162
C31	C	0.464200	0.111060	0.877920	0.081051
C32	C	0.456700	0.104840	0.770280	0.028624
N1	N	0.048820	0.491680	0.022760	-0.022039
N2	N	0.512150	0.002620	0.044290	-0.015898
N3	N	0.951180	0.508320	0.977240	-0.022039
N4	N	0.487850	0.997380	0.955710	-0.015898
O1	O	0.348330	0.126950	0.345180	-0.433235
O2	O	0.436270	0.287010	0.209270	0.566597
O3	O	0.703390	0.164650	0.301840	0.474813
O4	O	0.852780	0.031270	0.389320	-2.095611
O5	O	0.572190	0.900860	0.444580	0.052437
O6	O	0.541960	0.546040	0.074080	0.581490
O7	O	0.604640	0.463190	0.237130	0.322372
O8	O	0.536740	0.709170	0.519700	0.177425
O9	O	0.651670	0.873050	0.654820	-0.433235
O10	O	0.563730	0.712990	0.790730	0.566597
O11	O	0.296610	0.835350	0.698160	0.474813
O12	O	0.147220	0.968730	0.610680	-2.095611
O13	O	0.427810	0.099140	0.555420	0.052437
O14	O	0.458040	0.453960	0.925920	0.581490
O15	O	0.395360	0.536810	0.762870	0.322372
O16	O	0.463260	0.290830	0.480300	0.177425
