data_ZISYAD_clean_PM
_symmetry_space_group_name_H-M	'P1'
_cell_length_a	7.111000
_cell_length_b	19.454900
_cell_length_c	19.454900
_cell_angle_alpha	88.085999
_cell_angle_beta	79.469801
_cell_angle_gamma	79.469700
_symmetry_Int_Tables_number 1

loop_
_symmetry_equiv_pos_as_xyz
'x,y,z'

loop_
_atom_site_label
_atom_site_type_symbol
_atom_site_fract_x
_atom_site_fract_y
_atom_site_fract_z
_atom_site_charge
Cu1	Cu	0.875000	0.050200	0.449800	0.384082
Cu2	Cu	0.375000	0.949800	0.550200	0.384083
Cu3	Cu	0.675200	0.449800	0.949800	0.384082
Cu4	Cu	0.074800	0.550200	0.050200	0.384083
H1	H	0.850500	0.207600	0.425800	0.070893
H2	H	0.613100	0.309600	0.442800	0.089829
H3	H	0.211300	0.188800	0.497200	0.085512
H4	H	0.450000	0.089800	0.476400	0.046405
H5	H	0.049500	0.282200	0.560800	0.086297
H6	H	0.796900	0.376200	0.574000	0.091170
H7	H	0.093600	0.475000	0.416000	0.091045
H8	H	0.345900	0.380000	0.400800	0.092711
H9	H	0.483900	0.792400	0.574200	0.070893
H10	H	0.365500	0.690400	0.557200	0.089829
H11	H	0.897300	0.811200	0.502800	0.085512
H12	H	0.016200	0.910200	0.523600	0.046405
H13	H	0.892500	0.717800	0.439200	0.086297
H14	H	0.747100	0.623800	0.426000	0.091171
H15	H	0.984600	0.525000	0.584000	0.091045
H16	H	0.126700	0.620000	0.599200	0.092711
H17	H	0.723700	0.425800	0.792400	0.070893
H18	H	0.944100	0.442800	0.690400	0.089829
H19	H	0.291500	0.497200	0.811200	0.085512
H20	H	0.073600	0.476400	0.910200	0.046405
H21	H	0.389700	0.560800	0.717800	0.086297
H22	H	0.629100	0.574000	0.623800	0.091171
H23	H	0.490400	0.416000	0.525000	0.091045
H24	H	0.253300	0.400800	0.620000	0.092711
H25	H	0.941900	0.574200	0.207600	0.070893
H26	H	0.077300	0.557200	0.309600	0.089829
H27	H	0.599900	0.502800	0.188800	0.085512
H28	H	0.460200	0.523600	0.089800	0.046405
H29	H	0.668300	0.439200	0.282200	0.086297
H30	H	0.826900	0.426000	0.376200	0.091171
H31	H	0.431400	0.584000	0.475000	0.091045
H32	H	0.274100	0.599200	0.380000	0.092711
H33	H	0.899500	0.074200	0.292400	0.070893
H34	H	0.136900	0.057200	0.190400	0.089829
H35	H	0.538700	0.002800	0.311200	0.085512
H36	H	0.300000	0.023600	0.410200	0.046405
H37	H	0.700500	0.939200	0.217800	0.086297
H38	H	0.953100	0.926000	0.123800	0.091171
H39	H	0.656400	0.084000	0.025000	0.091045
H40	H	0.404100	0.099200	0.120000	0.092711
H41	H	0.266100	0.925800	0.707600	0.070893
H42	H	0.384500	0.942800	0.809600	0.089829
H43	H	0.852700	0.997200	0.688800	0.085512
H44	H	0.733800	0.976400	0.589800	0.046405
H45	H	0.857500	0.060800	0.782200	0.086297
H46	H	0.002900	0.074000	0.876200	0.091171
H47	H	0.765400	0.916000	0.975000	0.091045
H48	H	0.623300	0.900800	0.880000	0.092711
H49	H	0.026300	0.707600	0.074200	0.070893
H50	H	0.805900	0.809600	0.057200	0.089829
H51	H	0.458500	0.688800	0.002800	0.085512
H52	H	0.676400	0.589800	0.023600	0.046405
H53	H	0.360300	0.782200	0.939200	0.086297
H54	H	0.120900	0.876200	0.926000	0.091171
H55	H	0.259600	0.975000	0.084000	0.091045
H56	H	0.496700	0.880000	0.099200	0.092711
H57	H	0.808100	0.292400	0.925800	0.070893
H58	H	0.672700	0.190400	0.942800	0.089829
H59	H	0.150100	0.311200	0.997200	0.085512
H60	H	0.289800	0.410200	0.976400	0.046405
H61	H	0.081700	0.217800	0.060800	0.086297
H62	H	0.923100	0.123800	0.074000	0.091170
H63	H	0.318600	0.025000	0.916000	0.091045
H64	H	0.475900	0.120000	0.900800	0.092711
C1	C	0.718400	0.204000	0.442400	0.080904
C2	C	0.576900	0.265000	0.451000	-0.143017
C3	C	0.385000	0.259200	0.471400	0.050261
C4	C	0.342900	0.193900	0.482300	-0.131524
C5	C	0.485200	0.134700	0.472300	0.071754
C6	C	0.222500	0.320500	0.479300	0.029341
C7	C	0.057700	0.321300	0.530700	-0.110970
C8	C	0.907500	0.377100	0.538500	-0.105524
C9	C	0.914700	0.435300	0.494900	0.032701
C10	C	0.083300	0.434900	0.444900	-0.085064
C11	C	0.234500	0.379000	0.436000	-0.106781
C12	C	0.364800	0.796000	0.557600	0.080905
C13	C	0.292900	0.735000	0.549000	-0.143017
C14	C	0.115600	0.740800	0.528600	0.050261
C15	C	0.019100	0.806100	0.517700	-0.131525
C16	C	0.092200	0.865300	0.527700	0.071755
C17	C	0.022300	0.679500	0.520700	0.029341
C18	C	0.909700	0.678700	0.469300	-0.110970
C19	C	0.823100	0.622900	0.461500	-0.105524
C20	C	0.844900	0.564700	0.505100	0.032701
C21	C	0.963100	0.565100	0.555100	-0.085063
C22	C	0.049500	0.621000	0.564000	-0.106782
C23	C	0.839200	0.442400	0.796000	0.080904
C24	C	0.972100	0.451000	0.735000	-0.143017
C25	C	0.143600	0.471400	0.740800	0.050261
C26	C	0.174800	0.482300	0.806100	-0.131525
C27	C	0.042500	0.472300	0.865300	0.071755
C28	C	0.298200	0.479300	0.679500	0.029340
C29	C	0.411600	0.530700	0.678700	-0.110970
C30	C	0.554000	0.538500	0.622900	-0.105524
C31	C	0.590400	0.494900	0.564700	0.032701
C32	C	0.471800	0.444900	0.565100	-0.085064
C33	C	0.329500	0.436000	0.621000	-0.106781
C34	C	0.077600	0.557600	0.204000	0.080904
C35	C	0.158100	0.549000	0.265000	-0.143017
C36	C	0.355800	0.528600	0.259200	0.050261
C37	C	0.463200	0.517700	0.193900	-0.131524
C38	C	0.380100	0.527700	0.134700	0.071754
C39	C	0.457000	0.520700	0.320500	0.029341
C40	C	0.621000	0.469300	0.321300	-0.110970
C41	C	0.715400	0.461500	0.377100	-0.105524
C42	C	0.650000	0.505100	0.435300	0.032701
C43	C	0.481800	0.555100	0.434900	-0.085063
C44	C	0.386500	0.564000	0.379000	-0.106782
C45	C	0.031600	0.057600	0.296000	0.080904
C46	C	0.173100	0.049000	0.235000	-0.143017
C47	C	0.365000	0.028600	0.240800	0.050261
C48	C	0.407100	0.017700	0.306100	-0.131525
C49	C	0.264800	0.027700	0.365300	0.071755
C50	C	0.527500	0.020700	0.179500	0.029340
C51	C	0.692300	0.969300	0.178700	-0.110970
C52	C	0.842500	0.961500	0.122900	-0.105524
C53	C	0.835300	0.005100	0.064700	0.032701
C54	C	0.666700	0.055100	0.065100	-0.085064
C55	C	0.515500	0.064000	0.121000	-0.106781
C56	C	0.385200	0.942400	0.704000	0.080904
C57	C	0.457100	0.951000	0.765000	-0.143017
C58	C	0.634400	0.971400	0.759200	0.050261
C59	C	0.730900	0.982300	0.693900	-0.131524
C60	C	0.657800	0.972300	0.634700	0.071754
C61	C	0.727700	0.979300	0.820500	0.029341
C62	C	0.840300	0.030700	0.821300	-0.110970
C63	C	0.926900	0.038500	0.877100	-0.105524
C64	C	0.905100	0.994900	0.935300	0.032701
C65	C	0.786900	0.944900	0.934900	-0.085063
C66	C	0.700500	0.936000	0.879000	-0.106782
C67	C	0.910800	0.704000	0.057600	0.080905
C68	C	0.777900	0.765000	0.049000	-0.143017
C69	C	0.606400	0.759200	0.028600	0.050261
C70	C	0.575200	0.693900	0.017700	-0.131525
C71	C	0.707500	0.634700	0.027700	0.071755
C72	C	0.451800	0.820500	0.020700	0.029341
C73	C	0.338400	0.821300	0.969300	-0.110970
C74	C	0.196000	0.877100	0.961500	-0.105524
C75	C	0.159600	0.935300	0.005100	0.032701
C76	C	0.278200	0.934900	0.055100	-0.085063
C77	C	0.420500	0.879000	0.064000	-0.106782
C78	C	0.672400	0.296000	0.942400	0.080904
C79	C	0.591900	0.235000	0.951000	-0.143017
C80	C	0.394200	0.240800	0.971400	0.050261
C81	C	0.286800	0.306100	0.982300	-0.131524
C82	C	0.369900	0.365300	0.972300	0.071754
C83	C	0.293000	0.179500	0.979300	0.029341
C84	C	0.129000	0.178700	0.030700	-0.110970
C85	C	0.034600	0.122900	0.038500	-0.105524
C86	C	0.100000	0.064700	0.994900	0.032701
C87	C	0.268200	0.065100	0.944900	-0.085064
C88	C	0.363500	0.121000	0.936000	-0.106781
C89	C	0.750000	0.500000	0.500000	-0.048926
C90	C	0.000000	0.000000	0.000000	-0.048926
I1	I	0.678070	0.946930	0.446930	-0.102008
I2	I	0.071930	0.053070	0.553070	-0.102008
I3	I	0.875000	0.446930	0.053070	-0.102008
I4	I	0.375000	0.553070	0.946930	-0.102008
N1	N	0.671600	0.140700	0.456900	-0.364750
N2	N	0.269200	0.859300	0.543100	-0.364750
N3	N	0.871500	0.456900	0.859300	-0.364750
N4	N	0.187700	0.543100	0.140700	-0.364750
N5	N	0.078400	0.043100	0.359300	-0.364750
N6	N	0.480800	0.956900	0.640700	-0.364750
N7	N	0.878500	0.640700	0.043100	-0.364750
N8	N	0.562300	0.359300	0.956900	-0.364750
