data_ABAYIO_freeONLY_PM
_symmetry_space_group_name_H-M	'P1'
_cell_length_a	26.771000
_cell_length_b	26.771000
_cell_length_c	26.771000
_cell_angle_alpha	90.000000
_cell_angle_beta	90.000000
_cell_angle_gamma	90.000000
_symmetry_Int_Tables_number 1

loop_
_symmetry_equiv_pos_as_xyz
'x,y,z'

loop_
_atom_site_label
_atom_site_type_symbol
_atom_site_fract_x
_atom_site_fract_y
_atom_site_fract_z
O11	O1	0.258700	0.183200	0.945400
O21	O2	0.258700	0.683200	0.445400
O31	O3	0.758700	0.183200	0.445400
O41	O4	0.758700	0.683200	0.945400
O51	O5	0.741300	0.816800	0.945400
O61	O6	0.741300	0.316800	0.445400
O71	O7	0.241300	0.816800	0.445400
O81	O8	0.241300	0.316800	0.945400
O91	O9	0.741300	0.183200	0.054600
O101	O10	0.741300	0.683200	0.554600
O111	O11	0.241300	0.183200	0.554600
O121	O12	0.241300	0.683200	0.054600
O131	O13	0.258700	0.816800	0.054600
O141	O14	0.258700	0.316800	0.554600
O151	O15	0.758700	0.816800	0.554600
O161	O16	0.758700	0.316800	0.054600
O171	O17	0.945400	0.258700	0.183200
O181	O18	0.945400	0.758700	0.683200
O191	O19	0.445400	0.258700	0.683200
O201	O20	0.445400	0.758700	0.183200
O211	O21	0.945400	0.741300	0.816800
O221	O22	0.945400	0.241300	0.316800
O231	O23	0.445400	0.741300	0.316800
O241	O24	0.445400	0.241300	0.816800
O251	O25	0.054600	0.741300	0.183200
O261	O26	0.054600	0.241300	0.683200
O271	O27	0.554600	0.741300	0.683200
O281	O28	0.554600	0.241300	0.183200
O291	O29	0.054600	0.258700	0.816800
O301	O30	0.054600	0.758700	0.316800
O311	O31	0.554600	0.258700	0.316800
O321	O32	0.554600	0.758700	0.816800
O331	O33	0.183200	0.945400	0.258700
O341	O34	0.183200	0.445400	0.758700
O351	O35	0.683200	0.945400	0.758700
O361	O36	0.683200	0.445400	0.258700
O371	O37	0.816800	0.945400	0.741300
O381	O38	0.816800	0.445400	0.241300
O391	O39	0.316800	0.945400	0.241300
O401	O40	0.316800	0.445400	0.741300
O411	O41	0.183200	0.054600	0.741300
O421	O42	0.183200	0.554600	0.241300
O431	O43	0.683200	0.054600	0.241300
O441	O44	0.683200	0.554600	0.741300
O451	O45	0.816800	0.054600	0.258700
O461	O46	0.816800	0.554600	0.758700
O471	O47	0.316800	0.054600	0.758700
O481	O48	0.316800	0.554600	0.258700
O491	O49	0.183200	0.258700	0.054600
O501	O50	0.183200	0.758700	0.554600
O511	O51	0.683200	0.258700	0.554600
O521	O52	0.683200	0.758700	0.054600
O531	O53	0.816800	0.741300	0.054600
O541	O54	0.816800	0.241300	0.554600
O551	O55	0.316800	0.741300	0.554600
O561	O56	0.316800	0.241300	0.054600
O571	O57	0.183200	0.741300	0.945400
O581	O58	0.183200	0.241300	0.445400
O591	O59	0.683200	0.741300	0.445400
O601	O60	0.683200	0.241300	0.945400
O611	O61	0.816800	0.258700	0.945400
O621	O62	0.816800	0.758700	0.445400
O631	O63	0.316800	0.258700	0.445400
O641	O64	0.316800	0.758700	0.945400
O651	O65	0.258700	0.945400	0.816800
O661	O66	0.258700	0.445400	0.316800
O671	O67	0.758700	0.945400	0.316800
O681	O68	0.758700	0.445400	0.816800
O691	O69	0.741300	0.945400	0.183200
O701	O70	0.741300	0.445400	0.683200
O711	O71	0.241300	0.945400	0.683200
O721	O72	0.241300	0.445400	0.183200
O731	O73	0.741300	0.054600	0.816800
O741	O74	0.741300	0.554600	0.316800
O751	O75	0.241300	0.054600	0.316800
O761	O76	0.241300	0.554600	0.816800
O771	O77	0.258700	0.054600	0.183200
O781	O78	0.258700	0.554600	0.683200
O791	O79	0.758700	0.054600	0.683200
O801	O80	0.758700	0.554600	0.183200
O811	O81	0.945400	0.183200	0.741300
O821	O82	0.945400	0.683200	0.241300
O831	O83	0.445400	0.183200	0.241300
O841	O84	0.445400	0.683200	0.741300
O851	O85	0.945400	0.816800	0.258700
O861	O86	0.945400	0.316800	0.758700
O871	O87	0.445400	0.816800	0.758700
O881	O88	0.445400	0.316800	0.258700
O891	O89	0.054600	0.183200	0.258700
O901	O90	0.054600	0.683200	0.758700
O911	O91	0.554600	0.183200	0.758700
O921	O92	0.554600	0.683200	0.258700
O931	O93	0.054600	0.816800	0.741300
O941	O94	0.054600	0.316800	0.241300
O951	O95	0.554600	0.816800	0.241300
O961	O96	0.554600	0.316800	0.741300
O971	O97	0.741300	0.816800	0.054600
O981	O98	0.741300	0.316800	0.554600
O991	O99	0.241300	0.816800	0.554600
O1001	O100	0.241300	0.316800	0.054600
O1011	O101	0.258700	0.183200	0.054600
O1021	O102	0.258700	0.683200	0.554600
O1031	O103	0.758700	0.183200	0.554600
O1041	O104	0.758700	0.683200	0.054600
O1051	O105	0.258700	0.816800	0.945400
O1061	O106	0.258700	0.316800	0.445400
O1071	O107	0.758700	0.816800	0.445400
O1081	O108	0.758700	0.316800	0.945400
O1091	O109	0.741300	0.183200	0.945400
O1101	O110	0.741300	0.683200	0.445400
O1111	O111	0.241300	0.183200	0.445400
O1121	O112	0.241300	0.683200	0.945400
O1131	O113	0.054600	0.741300	0.816800
O1141	O114	0.054600	0.241300	0.316800
O1151	O115	0.554600	0.741300	0.316800
O1161	O116	0.554600	0.241300	0.816800
O1171	O117	0.054600	0.258700	0.183200
O1181	O118	0.054600	0.758700	0.683200
O1191	O119	0.554600	0.258700	0.683200
O1201	O120	0.554600	0.758700	0.183200
O1211	O121	0.945400	0.258700	0.816800
O1221	O122	0.945400	0.758700	0.316800
O1231	O123	0.445400	0.258700	0.316800
O1241	O124	0.445400	0.758700	0.816800
O1251	O125	0.945400	0.741300	0.183200
O1261	O126	0.945400	0.241300	0.683200
O1271	O127	0.445400	0.741300	0.683200
O1281	O128	0.445400	0.241300	0.183200
O1291	O129	0.816800	0.054600	0.741300
O1301	O130	0.816800	0.554600	0.241300
O1311	O131	0.316800	0.054600	0.241300
O1321	O132	0.316800	0.554600	0.741300
O1331	O133	0.183200	0.054600	0.258700
O1341	O134	0.183200	0.554600	0.758700
O1351	O135	0.683200	0.054600	0.758700
O1361	O136	0.683200	0.554600	0.258700
O1371	O137	0.816800	0.945400	0.258700
O1381	O138	0.816800	0.445400	0.758700
O1391	O139	0.316800	0.945400	0.758700
O1401	O140	0.316800	0.445400	0.258700
O1411	O141	0.183200	0.945400	0.741300
O1421	O142	0.183200	0.445400	0.241300
O1431	O143	0.683200	0.945400	0.241300
O1441	O144	0.683200	0.445400	0.741300
O1451	O145	0.816800	0.741300	0.945400
O1461	O146	0.816800	0.241300	0.445400
O1471	O147	0.316800	0.741300	0.445400
O1481	O148	0.316800	0.241300	0.945400
O1491	O149	0.183200	0.258700	0.945400
O1501	O150	0.183200	0.758700	0.445400
O1511	O151	0.683200	0.258700	0.445400
O1521	O152	0.683200	0.758700	0.945400
O1531	O153	0.816800	0.258700	0.054600
O1541	O154	0.816800	0.758700	0.554600
O1551	O155	0.316800	0.258700	0.554600
O1561	O156	0.316800	0.758700	0.054600
O1571	O157	0.183200	0.741300	0.054600
O1581	O158	0.183200	0.241300	0.554600
O1591	O159	0.683200	0.741300	0.554600
O1601	O160	0.683200	0.241300	0.054600
O1611	O161	0.741300	0.054600	0.183200
O1621	O162	0.741300	0.554600	0.683200
O1631	O163	0.241300	0.054600	0.683200
O1641	O164	0.241300	0.554600	0.183200
O1651	O165	0.258700	0.054600	0.816800
O1661	O166	0.258700	0.554600	0.316800
O1671	O167	0.758700	0.054600	0.316800
O1681	O168	0.758700	0.554600	0.816800
O1691	O169	0.258700	0.945400	0.183200
O1701	O170	0.258700	0.445400	0.683200
O1711	O171	0.758700	0.945400	0.683200
O1721	O172	0.758700	0.445400	0.183200
O1731	O173	0.741300	0.945400	0.816800
O1741	O174	0.741300	0.445400	0.316800
O1751	O175	0.241300	0.945400	0.316800
O1761	O176	0.241300	0.445400	0.816800
O1771	O177	0.054600	0.816800	0.258700
O1781	O178	0.054600	0.316800	0.758700
O1791	O179	0.554600	0.816800	0.758700
O1801	O180	0.554600	0.316800	0.258700
O1811	O181	0.054600	0.183200	0.741300
O1821	O182	0.054600	0.683200	0.241300
O1831	O183	0.554600	0.183200	0.241300
O1841	O184	0.554600	0.683200	0.741300
O1851	O185	0.945400	0.816800	0.741300
O1861	O186	0.945400	0.316800	0.241300
O1871	O187	0.445400	0.816800	0.241300
O1881	O188	0.445400	0.316800	0.741300
O1891	O189	0.945400	0.183200	0.258700
O1901	O190	0.945400	0.683200	0.758700
O1911	O191	0.445400	0.183200	0.758700
O1921	O192	0.445400	0.683200	0.258700
Mn11	Mn1	0.207770	0.207770	0.000000
Cl11	Cl1	0.145390	0.145390	0.000000
Mn21	Mn2	0.207770	0.707770	0.500000
Cl21	Cl2	0.145390	0.645390	0.500000
Mn31	Mn3	0.707770	0.207770	0.500000
Cl31	Cl3	0.645390	0.145390	0.500000
Mn41	Mn4	0.707770	0.707770	0.000000
Cl41	Cl4	0.645390	0.645390	0.000000
Mn51	Mn5	0.792230	0.792230	0.000000
Cl51	Cl5	0.854610	0.854610	0.000000
Mn61	Mn6	0.792230	0.292230	0.500000
Cl61	Cl6	0.854610	0.354610	0.500000
Mn71	Mn7	0.292230	0.792230	0.500000
Cl71	Cl7	0.354610	0.854610	0.500000
Mn81	Mn8	0.292230	0.292230	0.000000
Cl81	Cl8	0.354610	0.354610	0.000000
Mn91	Mn9	0.792230	0.207770	0.000000
Cl91	Cl9	0.854610	0.145390	0.000000
Mn101	Mn10	0.792230	0.707770	0.500000
Cl101	Cl10	0.854610	0.645390	0.500000
Mn111	Mn11	0.292230	0.207770	0.500000
Cl111	Cl11	0.354610	0.145390	0.500000
Mn121	Mn12	0.292230	0.707770	0.000000
Cl121	Cl12	0.354610	0.645390	0.000000
Mn131	Mn13	0.207770	0.792230	0.000000
Cl131	Cl13	0.145390	0.854610	0.000000
Mn141	Mn14	0.207770	0.292230	0.500000
Cl141	Cl14	0.145390	0.354610	0.500000
Mn151	Mn15	0.707770	0.792230	0.500000
Cl151	Cl15	0.645390	0.854610	0.500000
Mn161	Mn16	0.707770	0.292230	0.000000
Cl161	Cl16	0.645390	0.354610	0.000000
Mn171	Mn17	0.000000	0.207770	0.207770
Cl171	Cl17	0.000000	0.145390	0.145390
Mn181	Mn18	0.000000	0.707770	0.707770
Cl181	Cl18	0.000000	0.645390	0.645390
Mn191	Mn19	0.500000	0.207770	0.707770
Cl191	Cl19	0.500000	0.145390	0.645390
Mn201	Mn20	0.500000	0.707770	0.207770
Cl201	Cl20	0.500000	0.645390	0.145390
Mn211	Mn21	0.000000	0.792230	0.792230
Cl211	Cl21	0.000000	0.854610	0.854610
Mn221	Mn22	0.000000	0.292230	0.292230
Cl221	Cl22	0.000000	0.354610	0.354610
Mn231	Mn23	0.500000	0.792230	0.292230
Cl231	Cl23	0.500000	0.854610	0.354610
Mn241	Mn24	0.500000	0.292230	0.792230
Cl241	Cl24	0.500000	0.354610	0.854610
Mn251	Mn25	0.000000	0.792230	0.207770
Cl251	Cl25	0.000000	0.854610	0.145390
Mn261	Mn26	0.000000	0.292230	0.707770
Cl261	Cl26	0.000000	0.354610	0.645390
Mn271	Mn27	0.500000	0.792230	0.707770
Cl271	Cl27	0.500000	0.854610	0.645390
Mn281	Mn28	0.500000	0.292230	0.207770
Cl281	Cl28	0.500000	0.354610	0.145390
Mn291	Mn29	0.000000	0.207770	0.792230
Cl291	Cl29	0.000000	0.145390	0.854610
Mn301	Mn30	0.000000	0.707770	0.292230
Cl301	Cl30	0.000000	0.645390	0.354610
Mn311	Mn31	0.500000	0.207770	0.292230
Cl311	Cl31	0.500000	0.145390	0.354610
Mn321	Mn32	0.500000	0.707770	0.792230
Cl321	Cl32	0.500000	0.645390	0.854610
Mn331	Mn33	0.207770	0.000000	0.207770
Cl331	Cl33	0.145390	0.000000	0.145390
Mn341	Mn34	0.207770	0.500000	0.707770
Cl341	Cl34	0.145390	0.500000	0.645390
Mn351	Mn35	0.707770	0.000000	0.707770
Cl351	Cl35	0.645390	0.000000	0.645390
Mn361	Mn36	0.707770	0.500000	0.207770
Cl361	Cl36	0.645390	0.500000	0.145390
Mn371	Mn37	0.792230	0.000000	0.792230
Cl371	Cl37	0.854610	0.000000	0.854610
Mn381	Mn38	0.792230	0.500000	0.292230
Cl381	Cl38	0.854610	0.500000	0.354610
Mn391	Mn39	0.292230	0.000000	0.292230
Cl391	Cl39	0.354610	0.000000	0.354610
Mn401	Mn40	0.292230	0.500000	0.792230
Cl401	Cl40	0.354610	0.500000	0.854610
Mn411	Mn41	0.207770	0.000000	0.792230
Cl411	Cl41	0.145390	0.000000	0.854610
Mn421	Mn42	0.207770	0.500000	0.292230
Cl421	Cl42	0.145390	0.500000	0.354610
Mn431	Mn43	0.707770	0.000000	0.292230
Cl431	Cl43	0.645390	0.000000	0.354610
Mn441	Mn44	0.707770	0.500000	0.792230
Cl441	Cl44	0.645390	0.500000	0.854610
Mn451	Mn45	0.792230	0.000000	0.207770
Cl451	Cl45	0.854610	0.000000	0.145390
Mn461	Mn46	0.792230	0.500000	0.707770
Cl461	Cl46	0.854610	0.500000	0.645390
Mn471	Mn47	0.292230	0.000000	0.707770
Cl471	Cl47	0.354610	0.000000	0.645390
Mn481	Mn48	0.292230	0.500000	0.207770
Cl481	Cl48	0.354610	0.500000	0.145390
C11	C1	0.322100	0.177900	0.885000
C21	C2	0.297500	0.202500	0.929800
C31	C3	0.322100	0.677900	0.385000
C41	C4	0.297500	0.702500	0.429800
C51	C5	0.677900	0.822100	0.885000
C61	C6	0.702500	0.797500	0.929800
C71	C7	0.677900	0.322100	0.385000
C81	C8	0.702500	0.297500	0.429800
C91	C9	0.177900	0.322100	0.885000
C101	C10	0.202500	0.297500	0.929800
C111	C11	0.677900	0.177900	0.115000
C121	C12	0.702500	0.202500	0.070200
C131	C13	0.677900	0.677900	0.615000
C141	C14	0.702500	0.702500	0.570200
C151	C15	0.177900	0.177900	0.615000
C161	C16	0.202500	0.202500	0.570200
C171	C17	0.322100	0.822100	0.115000
C181	C18	0.297500	0.797500	0.070200
C191	C19	0.322100	0.322100	0.615000
C201	C20	0.297500	0.297500	0.570200
C211	C21	0.885000	0.322100	0.177900
C221	C22	0.929800	0.297500	0.202500
C231	C23	0.385000	0.322100	0.677900
C241	C24	0.429800	0.297500	0.702500
C251	C25	0.885000	0.677900	0.822100
C261	C26	0.929800	0.702500	0.797500
C271	C27	0.885000	0.177900	0.322100
C281	C28	0.929800	0.202500	0.297500
C291	C29	0.385000	0.677900	0.322100
C301	C30	0.429800	0.702500	0.297500
C311	C31	0.115000	0.677900	0.177900
C321	C32	0.070200	0.702500	0.202500
C331	C33	0.615000	0.677900	0.677900
C341	C34	0.570200	0.702500	0.702500
C351	C35	0.615000	0.177900	0.177900
C361	C36	0.570200	0.202500	0.202500
C371	C37	0.115000	0.322100	0.822100
C381	C38	0.070200	0.297500	0.797500
C391	C39	0.615000	0.322100	0.322100
C401	C40	0.570200	0.297500	0.297500
C411	C41	0.177900	0.885000	0.322100
C421	C42	0.202500	0.929800	0.297500
C431	C43	0.177900	0.385000	0.822100
C441	C44	0.202500	0.429800	0.797500
C451	C45	0.822100	0.885000	0.677900
C461	C46	0.797500	0.929800	0.702500
C471	C47	0.822100	0.385000	0.177900
C481	C48	0.797500	0.429800	0.202500
C491	C49	0.322100	0.885000	0.177900
C501	C50	0.297500	0.929800	0.202500
C511	C51	0.177900	0.115000	0.677900
C521	C52	0.202500	0.070200	0.702500
C531	C53	0.177900	0.615000	0.177900
C541	C54	0.202500	0.570200	0.202500
C551	C55	0.822100	0.115000	0.322100
C561	C56	0.797500	0.070200	0.297500
C571	C57	0.822100	0.615000	0.822100
C581	C58	0.797500	0.570200	0.797500
C591	C59	0.322100	0.615000	0.322100
C601	C60	0.297500	0.570200	0.297500
C611	C61	0.177900	0.322100	0.115000
C621	C62	0.202500	0.297500	0.070200
C631	C63	0.177900	0.822100	0.615000
C641	C64	0.202500	0.797500	0.570200
C651	C65	0.822100	0.677900	0.115000
C661	C66	0.797500	0.702500	0.070200
C671	C67	0.822100	0.177900	0.615000
C681	C68	0.797500	0.202500	0.570200
C691	C69	0.322100	0.177900	0.115000
C701	C70	0.297500	0.202500	0.070200
C711	C71	0.177900	0.677900	0.885000
C721	C72	0.202500	0.702500	0.929800
C731	C73	0.177900	0.177900	0.385000
C741	C74	0.202500	0.202500	0.429800
C751	C75	0.822100	0.322100	0.885000
C761	C76	0.797500	0.297500	0.929800
C771	C77	0.822100	0.822100	0.385000
C781	C78	0.797500	0.797500	0.429800
C791	C79	0.322100	0.322100	0.385000
C801	C80	0.297500	0.297500	0.429800
C811	C81	0.322100	0.885000	0.822100
C821	C82	0.297500	0.929800	0.797500
C831	C83	0.322100	0.385000	0.322100
C841	C84	0.297500	0.429800	0.297500
C851	C85	0.677900	0.885000	0.177900
C861	C86	0.702500	0.929800	0.202500
C871	C87	0.677900	0.385000	0.677900
C881	C88	0.702500	0.429800	0.702500
C891	C89	0.177900	0.385000	0.177900
C901	C90	0.202500	0.429800	0.202500
C911	C91	0.677900	0.115000	0.822100
C921	C92	0.702500	0.070200	0.797500
C931	C93	0.677900	0.615000	0.322100
C941	C94	0.702500	0.570200	0.297500
C951	C95	0.177900	0.115000	0.322100
C961	C96	0.202500	0.070200	0.297500
C971	C97	0.322100	0.115000	0.177900
C981	C98	0.297500	0.070200	0.202500
C991	C99	0.322100	0.615000	0.677900
C1001	C100	0.297500	0.570200	0.702500
C1011	C101	0.885000	0.177900	0.677900
C1021	C102	0.929800	0.202500	0.702500
C1031	C103	0.385000	0.177900	0.177900
C1041	C104	0.429800	0.202500	0.202500
C1051	C105	0.885000	0.822100	0.322100
C1061	C106	0.929800	0.797500	0.297500
C1071	C107	0.385000	0.822100	0.822100
C1081	C108	0.429800	0.797500	0.797500
C1091	C109	0.385000	0.322100	0.322100
C1101	C110	0.429800	0.297500	0.297500
C1111	C111	0.115000	0.177900	0.322100
C1121	C112	0.070200	0.202500	0.297500
C1131	C113	0.615000	0.177900	0.822100
C1141	C114	0.570200	0.202500	0.797500
C1151	C115	0.115000	0.822100	0.677900
C1161	C116	0.070200	0.797500	0.702500
C1171	C117	0.115000	0.322100	0.177900
C1181	C118	0.070200	0.297500	0.202500
C1191	C119	0.615000	0.822100	0.177900
C1201	C120	0.570200	0.797500	0.202500
C1211	C121	0.677900	0.822100	0.115000
C1221	C122	0.702500	0.797500	0.070200
C1231	C123	0.677900	0.322100	0.615000
C1241	C124	0.702500	0.297500	0.570200
C1251	C125	0.322100	0.677900	0.615000
C1261	C126	0.297500	0.702500	0.570200
C1271	C127	0.322100	0.822100	0.885000
C1281	C128	0.297500	0.797500	0.929800
C1291	C129	0.677900	0.177900	0.885000
C1301	C130	0.702500	0.202500	0.929800
C1311	C131	0.677900	0.677900	0.385000
C1321	C132	0.702500	0.702500	0.429800
C1331	C133	0.115000	0.677900	0.822100
C1341	C134	0.070200	0.702500	0.797500
C1351	C135	0.615000	0.677900	0.322100
C1361	C136	0.570200	0.702500	0.297500
C1371	C137	0.615000	0.322100	0.677900
C1381	C138	0.570200	0.297500	0.702500
C1391	C139	0.885000	0.322100	0.822100
C1401	C140	0.929800	0.297500	0.797500
C1411	C141	0.885000	0.677900	0.177900
C1421	C142	0.929800	0.702500	0.202500
C1431	C143	0.385000	0.677900	0.677900
C1441	C144	0.429800	0.702500	0.702500
C1451	C145	0.822100	0.115000	0.677900
C1461	C146	0.797500	0.070200	0.702500
C1471	C147	0.822100	0.615000	0.177900
C1481	C148	0.797500	0.570200	0.202500
C1491	C149	0.177900	0.615000	0.822100
C1501	C150	0.202500	0.570200	0.797500
C1511	C151	0.822100	0.885000	0.322100
C1521	C152	0.797500	0.929800	0.297500
C1531	C153	0.822100	0.385000	0.822100
C1541	C154	0.797500	0.429800	0.797500
C1551	C155	0.177900	0.885000	0.677900
C1561	C156	0.202500	0.929800	0.702500
C1571	C157	0.822100	0.677900	0.885000
C1581	C158	0.797500	0.702500	0.929800
C1591	C159	0.822100	0.177900	0.385000
C1601	C160	0.797500	0.202500	0.429800
C1611	C161	0.177900	0.822100	0.385000
C1621	C162	0.202500	0.797500	0.429800
C1631	C163	0.822100	0.322100	0.115000
C1641	C164	0.797500	0.297500	0.070200
C1651	C165	0.822100	0.822100	0.615000
C1661	C166	0.797500	0.797500	0.570200
C1671	C167	0.177900	0.677900	0.115000
C1681	C168	0.202500	0.702500	0.070200
C1691	C169	0.677900	0.115000	0.177900
C1701	C170	0.702500	0.070200	0.202500
C1711	C171	0.677900	0.615000	0.677900
C1721	C172	0.702500	0.570200	0.702500
C1731	C173	0.322100	0.115000	0.822100
C1741	C174	0.297500	0.070200	0.797500
C1751	C175	0.322100	0.385000	0.677900
C1761	C176	0.297500	0.429800	0.702500
C1771	C177	0.677900	0.885000	0.822100
C1781	C178	0.702500	0.929800	0.797500
C1791	C179	0.677900	0.385000	0.322100
C1801	C180	0.702500	0.429800	0.297500
C1811	C181	0.115000	0.822100	0.322100
C1821	C182	0.070200	0.797500	0.297500
C1831	C183	0.615000	0.822100	0.822100
C1841	C184	0.570200	0.797500	0.797500
C1851	C185	0.115000	0.177900	0.677900
C1861	C186	0.070200	0.202500	0.702500
C1871	C187	0.885000	0.822100	0.677900
C1881	C188	0.929800	0.797500	0.702500
C1891	C189	0.385000	0.822100	0.177900
C1901	C190	0.429800	0.797500	0.202500
C1911	C191	0.385000	0.177900	0.822100
C1921	C192	0.429800	0.202500	0.797500
C1931	C193	0.301200	0.136300	0.863700
H11	H1	0.271800	0.121700	0.878300
C1941	C194	0.301200	0.636300	0.363700
H21	H2	0.271800	0.621700	0.378300
C1951	C195	0.801200	0.136300	0.363700
H31	H3	0.771800	0.121700	0.378300
C1961	C196	0.801200	0.636300	0.863700
H41	H4	0.771800	0.621700	0.878300
C1971	C197	0.698800	0.863700	0.863700
H51	H5	0.728200	0.878300	0.878300
C1981	C198	0.698800	0.363700	0.363700
H61	H6	0.728200	0.378300	0.378300
C1991	C199	0.198800	0.863700	0.363700
H71	H7	0.228200	0.878300	0.378300
C2001	C200	0.198800	0.363700	0.863700
H81	H8	0.228200	0.378300	0.878300
C2011	C201	0.698800	0.136300	0.136300
H91	H9	0.728200	0.121700	0.121700
C2021	C202	0.698800	0.636300	0.636300
H101	H10	0.728200	0.621700	0.621700
C2031	C203	0.198800	0.136300	0.636300
H111	H11	0.228200	0.121700	0.621700
C2041	C204	0.198800	0.636300	0.136300
H121	H12	0.228200	0.621700	0.121700
C2051	C205	0.301200	0.863700	0.136300
H131	H13	0.271800	0.878300	0.121700
C2061	C206	0.301200	0.363700	0.636300
H141	H14	0.271800	0.378300	0.621700
C2071	C207	0.801200	0.863700	0.636300
H151	H15	0.771800	0.878300	0.621700
C2081	C208	0.801200	0.363700	0.136300
H161	H16	0.771800	0.378300	0.121700
C2091	C209	0.863700	0.301200	0.136300
H171	H17	0.878300	0.271800	0.121700
C2101	C210	0.863700	0.801200	0.636300
H181	H18	0.878300	0.771800	0.621700
C2111	C211	0.363700	0.301200	0.636300
H191	H19	0.378300	0.271800	0.621700
C2121	C212	0.363700	0.801200	0.136300
H201	H20	0.378300	0.771800	0.121700
C2131	C213	0.863700	0.698800	0.863700
H211	H21	0.878300	0.728200	0.878300
C2141	C214	0.863700	0.198800	0.363700
H221	H22	0.878300	0.228200	0.378300
C2151	C215	0.363700	0.698800	0.363700
H231	H23	0.378300	0.728200	0.378300
C2161	C216	0.363700	0.198800	0.863700
H241	H24	0.378300	0.228200	0.878300
C2171	C217	0.136300	0.698800	0.136300
H251	H25	0.121700	0.728200	0.121700
C2181	C218	0.136300	0.198800	0.636300
H261	H26	0.121700	0.228200	0.621700
C2191	C219	0.636300	0.698800	0.636300
H271	H27	0.621700	0.728200	0.621700
C2201	C220	0.636300	0.198800	0.136300
H281	H28	0.621700	0.228200	0.121700
C2211	C221	0.136300	0.301200	0.863700
H291	H29	0.121700	0.271800	0.878300
C2221	C222	0.136300	0.801200	0.363700
H301	H30	0.121700	0.771800	0.378300
C2231	C223	0.636300	0.301200	0.363700
H311	H31	0.621700	0.271800	0.378300
C2241	C224	0.636300	0.801200	0.863700
H321	H32	0.621700	0.771800	0.878300
C2251	C225	0.136300	0.863700	0.301200
H331	H33	0.121700	0.878300	0.271800
C2261	C226	0.136300	0.363700	0.801200
H341	H34	0.121700	0.378300	0.771800
C2271	C227	0.636300	0.863700	0.801200
H351	H35	0.621700	0.878300	0.771800
C2281	C228	0.636300	0.363700	0.301200
H361	H36	0.621700	0.378300	0.271800
C2291	C229	0.863700	0.863700	0.698800
H371	H37	0.878300	0.878300	0.728200
C2301	C230	0.863700	0.363700	0.198800
H381	H38	0.878300	0.378300	0.228200
C2311	C231	0.363700	0.863700	0.198800
H391	H39	0.378300	0.878300	0.228200
C2321	C232	0.363700	0.363700	0.698800
H401	H40	0.378300	0.378300	0.728200
C2331	C233	0.136300	0.136300	0.698800
H411	H41	0.121700	0.121700	0.728200
C2341	C234	0.136300	0.636300	0.198800
H421	H42	0.121700	0.621700	0.228200
C2351	C235	0.636300	0.136300	0.198800
H431	H43	0.621700	0.121700	0.228200
C2361	C236	0.636300	0.636300	0.698800
H441	H44	0.621700	0.621700	0.728200
C2371	C237	0.863700	0.136300	0.301200
H451	H45	0.878300	0.121700	0.271800
C2381	C238	0.863700	0.636300	0.801200
H461	H46	0.878300	0.621700	0.771800
C2391	C239	0.363700	0.136300	0.801200
H471	H47	0.378300	0.121700	0.771800
C2401	C240	0.363700	0.636300	0.301200
H481	H48	0.378300	0.621700	0.271800
C2411	C241	0.136300	0.301200	0.136300
H491	H49	0.121700	0.271800	0.121700
C2421	C242	0.136300	0.801200	0.636300
H501	H50	0.121700	0.771800	0.621700
C2431	C243	0.636300	0.301200	0.636300
H511	H51	0.621700	0.271800	0.621700
C2441	C244	0.636300	0.801200	0.136300
H521	H52	0.621700	0.771800	0.121700
C2451	C245	0.863700	0.698800	0.136300
H531	H53	0.878300	0.728200	0.121700
C2461	C246	0.863700	0.198800	0.636300
H541	H54	0.878300	0.228200	0.621700
C2471	C247	0.363700	0.698800	0.636300
H551	H55	0.378300	0.728200	0.621700
C2481	C248	0.363700	0.198800	0.136300
H561	H56	0.378300	0.228200	0.121700
C2491	C249	0.136300	0.698800	0.863700
H571	H57	0.121700	0.728200	0.878300
C2501	C250	0.136300	0.198800	0.363700
H581	H58	0.121700	0.228200	0.378300
C2511	C251	0.636300	0.698800	0.363700
H591	H59	0.621700	0.728200	0.378300
C2521	C252	0.636300	0.198800	0.863700
H601	H60	0.621700	0.228200	0.878300
C2531	C253	0.863700	0.301200	0.863700
H611	H61	0.878300	0.271800	0.878300
C2541	C254	0.863700	0.801200	0.363700
H621	H62	0.878300	0.771800	0.378300
C2551	C255	0.363700	0.301200	0.363700
H631	H63	0.378300	0.271800	0.378300
C2561	C256	0.363700	0.801200	0.863700
H641	H64	0.378300	0.771800	0.878300
C2571	C257	0.301200	0.863700	0.863700
H651	H65	0.271800	0.878300	0.878300
C2581	C258	0.301200	0.363700	0.363700
H661	H66	0.271800	0.378300	0.378300
C2591	C259	0.801200	0.863700	0.363700
H671	H67	0.771800	0.878300	0.378300
C2601	C260	0.801200	0.363700	0.863700
H681	H68	0.771800	0.378300	0.878300
C2611	C261	0.698800	0.863700	0.136300
H691	H69	0.728200	0.878300	0.121700
C2621	C262	0.698800	0.363700	0.636300
H701	H70	0.728200	0.378300	0.621700
C2631	C263	0.198800	0.863700	0.636300
H711	H71	0.228200	0.878300	0.621700
C2641	C264	0.198800	0.363700	0.136300
H721	H72	0.228200	0.378300	0.121700
C2651	C265	0.698800	0.136300	0.863700
H731	H73	0.728200	0.121700	0.878300
C2661	C266	0.698800	0.636300	0.363700
H741	H74	0.728200	0.621700	0.378300
C2671	C267	0.198800	0.136300	0.363700
H751	H75	0.228200	0.121700	0.378300
C2681	C268	0.198800	0.636300	0.863700
H761	H76	0.228200	0.621700	0.878300
C2691	C269	0.301200	0.136300	0.136300
H771	H77	0.271800	0.121700	0.121700
C2701	C270	0.301200	0.636300	0.636300
H781	H78	0.271800	0.621700	0.621700
C2711	C271	0.801200	0.136300	0.636300
H791	H79	0.771800	0.121700	0.621700
C2721	C272	0.801200	0.636300	0.136300
H801	H80	0.771800	0.621700	0.121700
C2731	C273	0.863700	0.136300	0.698800
H811	H81	0.878300	0.121700	0.728200
C2741	C274	0.863700	0.636300	0.198800
H821	H82	0.878300	0.621700	0.228200
C2751	C275	0.363700	0.136300	0.198800
H831	H83	0.378300	0.121700	0.228200
C2761	C276	0.363700	0.636300	0.698800
H841	H84	0.378300	0.621700	0.728200
C2771	C277	0.863700	0.863700	0.301200
H851	H85	0.878300	0.878300	0.271800
C2781	C278	0.863700	0.363700	0.801200
H861	H86	0.878300	0.378300	0.771800
C2791	C279	0.363700	0.863700	0.801200
H871	H87	0.378300	0.878300	0.771800
C2801	C280	0.363700	0.363700	0.301200
H881	H88	0.378300	0.378300	0.271800
C2811	C281	0.136300	0.136300	0.301200
H891	H89	0.121700	0.121700	0.271800
C2821	C282	0.136300	0.636300	0.801200
H901	H90	0.121700	0.621700	0.771800
C2831	C283	0.636300	0.136300	0.801200
H911	H91	0.621700	0.121700	0.771800
C2841	C284	0.636300	0.636300	0.301200
H921	H92	0.621700	0.621700	0.271800
C2851	C285	0.136300	0.863700	0.698800
H931	H93	0.121700	0.878300	0.728200
C2861	C286	0.136300	0.363700	0.198800
H941	H94	0.121700	0.378300	0.228200
C2871	C287	0.636300	0.863700	0.198800
H951	H95	0.621700	0.878300	0.228200
C2881	C288	0.636300	0.363700	0.698800
H961	H96	0.621700	0.378300	0.728200
