data_ABETAE_freeONLY_PM
_symmetry_space_group_name_H-M	'P1'
_cell_length_a	15.520000
_cell_length_b	13.890000
_cell_length_c	13.076900
_cell_angle_alpha	90.000000
_cell_angle_beta	90.000000
_cell_angle_gamma	90.000000
_symmetry_Int_Tables_number 1

loop_
_symmetry_equiv_pos_as_xyz
'x,y,z'

loop_
_atom_site_label
_atom_site_type_symbol
_atom_site_fract_x
_atom_site_fract_y
_atom_site_fract_z
U11	U1	0.261360	0.989590	0.437330
U21	U2	0.274380	0.737500	0.585200
P11	P1	0.275800	0.518700	0.175700
P21	P2	0.312900	0.739500	0.345900
O11	O1	0.155600	0.948400	0.423000
O21	O2	0.367200	0.029200	0.455100
O31	O3	0.160500	0.734700	0.561100
O41	O4	0.386500	0.734000	0.605000
O51	O5	0.305100	0.825000	0.420400
O61	O6	0.233000	0.593600	0.103900
O71	O7	0.279800	0.431400	0.102100
O81	O8	0.284600	0.653700	0.414400
O91	O9	0.217400	0.494600	0.264800
O101	O10	0.249100	0.752100	0.255400
O111	O11	0.404600	0.727600	0.308700
O121	O12	0.363300	0.549700	0.209600
U31	U3	0.761360	0.489590	0.437330
U41	U4	0.774380	0.237500	0.585200
P31	P3	0.775800	0.018700	0.175700
P41	P4	0.812900	0.239500	0.345900
O131	O13	0.655600	0.448400	0.423000
O141	O14	0.867200	0.529200	0.455100
O151	O15	0.660500	0.234700	0.561100
O161	O16	0.886500	0.234000	0.605000
O171	O17	0.805100	0.325000	0.420400
O181	O18	0.733000	0.093600	0.103900
O191	O19	0.779800	0.931400	0.102100
O201	O20	0.784600	0.153700	0.414400
O211	O21	0.717400	0.994600	0.264800
O221	O22	0.749100	0.252100	0.255400
O231	O23	0.904600	0.227600	0.308700
O241	O24	0.863300	0.049700	0.209600
U51	U5	0.738640	0.010410	0.937330
U61	U6	0.725620	0.262500	0.085200
P51	P5	0.724200	0.481300	0.675700
P61	P6	0.687100	0.260500	0.845900
O251	O25	0.844400	0.051600	0.923000
O261	O26	0.632800	0.970800	0.955100
O271	O27	0.839500	0.265300	0.061100
O281	O28	0.613500	0.266000	0.105000
O291	O29	0.694900	0.175000	0.920400
O301	O30	0.767000	0.406400	0.603900
O311	O31	0.720200	0.568600	0.602100
O321	O32	0.715400	0.346300	0.914400
O331	O33	0.782600	0.505400	0.764800
O341	O34	0.750900	0.247900	0.755400
O351	O35	0.595400	0.272400	0.808700
O361	O36	0.636700	0.450300	0.709600
U71	U7	0.238640	0.510410	0.937330
U81	U8	0.225620	0.762500	0.085200
P71	P7	0.224200	0.981300	0.675700
P81	P8	0.187100	0.760500	0.845900
O371	O37	0.344400	0.551600	0.923000
O381	O38	0.132800	0.470800	0.955100
O391	O39	0.339500	0.765300	0.061100
O401	O40	0.113500	0.766000	0.105000
O411	O41	0.194900	0.675000	0.920400
O421	O42	0.267000	0.906400	0.603900
O431	O43	0.220200	0.068600	0.602100
O441	O44	0.215400	0.846300	0.914400
O451	O45	0.282600	0.005400	0.764800
O461	O46	0.250900	0.747900	0.755400
O471	O47	0.095400	0.772400	0.808700
O481	O48	0.136700	0.950300	0.709600
U91	U9	0.261360	0.010410	0.937330
U101	U10	0.274380	0.262500	0.085200
P91	P9	0.275800	0.481300	0.675700
P101	P10	0.312900	0.260500	0.845900
O491	O49	0.155600	0.051600	0.923000
O501	O50	0.367200	0.970800	0.955100
O511	O51	0.160500	0.265300	0.061100
O521	O52	0.386500	0.266000	0.105000
O531	O53	0.305100	0.175000	0.920400
O541	O54	0.233000	0.406400	0.603900
O551	O55	0.279800	0.568600	0.602100
O561	O56	0.284600	0.346300	0.914400
O571	O57	0.217400	0.505400	0.764800
O581	O58	0.249100	0.247900	0.755400
O591	O59	0.404600	0.272400	0.808700
O601	O60	0.363300	0.450300	0.709600
U111	U11	0.761360	0.510410	0.937330
U121	U12	0.774380	0.762500	0.085200
P111	P11	0.775800	0.981300	0.675700
P121	P12	0.812900	0.760500	0.845900
O611	O61	0.655600	0.551600	0.923000
O621	O62	0.867200	0.470800	0.955100
O631	O63	0.660500	0.765300	0.061100
O641	O64	0.886500	0.766000	0.105000
O651	O65	0.805100	0.675000	0.920400
O661	O66	0.733000	0.906400	0.603900
O671	O67	0.779800	0.068600	0.602100
O681	O68	0.784600	0.846300	0.914400
O691	O69	0.717400	0.005400	0.764800
O701	O70	0.749100	0.747900	0.755400
O711	O71	0.904600	0.772400	0.808700
O721	O72	0.863300	0.950300	0.709600
U131	U13	0.738640	0.989590	0.437330
U141	U14	0.725620	0.737500	0.585200
P131	P13	0.724200	0.518700	0.175700
P141	P14	0.687100	0.739500	0.345900
O731	O73	0.844400	0.948400	0.423000
O741	O74	0.632800	0.029200	0.455100
O751	O75	0.839500	0.734700	0.561100
O761	O76	0.613500	0.734000	0.605000
O771	O77	0.694900	0.825000	0.420400
O781	O78	0.767000	0.593600	0.103900
O791	O79	0.720200	0.431400	0.102100
O801	O80	0.715400	0.653700	0.414400
O811	O81	0.782600	0.494600	0.264800
O821	O82	0.750900	0.752100	0.255400
O831	O83	0.595400	0.727600	0.308700
O841	O84	0.636700	0.549700	0.209600
U151	U15	0.238640	0.489590	0.437330
U161	U16	0.225620	0.237500	0.585200
P151	P15	0.224200	0.018700	0.175700
P161	P16	0.187100	0.239500	0.345900
O851	O85	0.344400	0.448400	0.423000
O861	O86	0.132800	0.529200	0.455100
O871	O87	0.339500	0.234700	0.561100
O881	O88	0.113500	0.234000	0.605000
O891	O89	0.194900	0.325000	0.420400
O901	O90	0.267000	0.093600	0.103900
O911	O91	0.220200	0.931400	0.102100
O921	O92	0.215400	0.153700	0.414400
O931	O93	0.282600	0.994600	0.264800
O941	O94	0.250900	0.252100	0.255400
O951	O95	0.095400	0.227600	0.308700
O961	O96	0.136700	0.049700	0.209600
U171	U17	0.500000	0.610030	0.247300
O971	O97	0.500000	0.673500	0.131100
O981	O98	0.500000	0.547700	0.364300
O991	O99	0.500000	0.445300	0.151100
U181	U18	0.000000	0.110030	0.247300
O1001	O100	0.000000	0.173500	0.131100
O1011	O101	0.000000	0.047700	0.364300
O1021	O102	0.000000	0.945300	0.151100
U191	U19	0.500000	0.389970	0.747300
O1031	O103	0.500000	0.326500	0.631100
O1041	O104	0.500000	0.452300	0.864300
O1051	O105	0.500000	0.554700	0.651100
U201	U20	0.000000	0.889970	0.747300
O1061	O106	0.000000	0.826500	0.631100
O1071	O107	0.000000	0.952300	0.864300
O1081	O108	0.000000	0.054700	0.651100
