data_ABEXEM_freeONLY_PM
_symmetry_space_group_name_H-M	'P1'
_cell_length_a	11.041700
_cell_length_b	12.135000
_cell_length_c	19.650900
_cell_angle_alpha	90.000000
_cell_angle_beta	90.000000
_cell_angle_gamma	90.000000
_symmetry_Int_Tables_number 1

loop_
_symmetry_equiv_pos_as_xyz
'x,y,z'

loop_
_atom_site_label
_atom_site_type_symbol
_atom_site_fract_x
_atom_site_fract_y
_atom_site_fract_z
La11	La1	0.635830	0.159590	0.121360
La21	La2	0.116410	0.981930	0.335130
La31	La3	0.364170	0.840410	0.621360
La41	La4	0.883590	0.018070	0.835130
La51	La5	0.864170	0.659590	0.121360
La61	La6	0.383590	0.481930	0.335130
La71	La7	0.135830	0.340410	0.621360
La81	La8	0.616410	0.518070	0.835130
H11	H1	0.845000	0.012500	0.232200
H21	H2	0.733700	0.267800	0.388000
H31	H3	0.370300	0.099800	0.231600
H41	H4	0.507600	0.747400	0.224200
H51	H5	0.359400	0.123800	0.097600
H61	H6	0.385300	0.220700	0.059700
H71	H7	0.553800	0.343700	0.025500
H81	H8	0.648000	0.413200	0.072400
H91	H9	0.063500	0.890900	0.198900
H101	H10	0.138100	0.977000	0.184100
H111	H11	0.155000	0.987500	0.732200
H121	H12	0.266300	0.732200	0.888000
H131	H13	0.629700	0.900200	0.731600
H141	H14	0.492400	0.252600	0.724200
H151	H15	0.640600	0.876200	0.597600
H161	H16	0.614700	0.779300	0.559700
H171	H17	0.446200	0.656300	0.525500
H181	H18	0.352000	0.586800	0.572400
H191	H19	0.936500	0.109100	0.698900
H201	H20	0.861900	0.023000	0.684100
H211	H21	0.655000	0.512500	0.232200
H221	H22	0.766300	0.767800	0.388000
H231	H23	0.129700	0.599800	0.231600
H241	H24	0.992400	0.247400	0.224200
H251	H25	0.140600	0.623800	0.097600
H261	H26	0.114700	0.720700	0.059700
H271	H27	0.946200	0.843700	0.025500
H281	H28	0.852000	0.913200	0.072400
H291	H29	0.436500	0.390900	0.198900
H301	H30	0.361900	0.477000	0.184100
H311	H31	0.345000	0.487500	0.732200
H321	H32	0.233700	0.232200	0.888000
H331	H33	0.870300	0.400200	0.731600
H341	H34	0.007600	0.752600	0.724200
H351	H35	0.859400	0.376200	0.597600
H361	H36	0.885300	0.279300	0.559700
H371	H37	0.053800	0.156300	0.525500
H381	H38	0.148000	0.086800	0.572400
H391	H39	0.563500	0.609100	0.698900
H401	H40	0.638100	0.523000	0.684100
C11	C1	0.823700	0.067300	0.263000
C21	C2	0.862500	0.157600	0.362700
C31	C3	0.758700	0.218000	0.354900
C41	C4	0.692700	0.202200	0.296300
C51	C5	0.586500	0.275800	0.277500
C61	C6	0.947300	0.176000	0.422300
C71	C7	0.398300	0.027500	0.230600
C81	C8	0.373400	0.849900	0.260600
C91	C9	0.480400	0.819800	0.226400
C101	C10	0.541300	0.905900	0.196500
C111	C11	0.661300	0.884600	0.158100
C121	C12	0.295800	0.761000	0.293800
C131	C13	0.178000	0.887200	0.491200
C141	C14	0.299200	0.938400	0.468000
C151	C15	0.176300	0.932700	0.763000
C161	C16	0.137500	0.842400	0.862700
C171	C17	0.241300	0.782000	0.854900
C181	C18	0.307300	0.797800	0.796300
C191	C19	0.413500	0.724200	0.777500
C201	C20	0.052700	0.824000	0.922300
C211	C21	0.601700	0.972500	0.730600
C221	C22	0.626600	0.150100	0.760600
C231	C23	0.519600	0.180200	0.726400
C241	C24	0.458700	0.094100	0.696500
C251	C25	0.338700	0.115400	0.658100
C261	C26	0.704200	0.239000	0.793800
C271	C27	0.822000	0.112800	0.991200
C281	C28	0.700800	0.061600	0.968000
C291	C29	0.676300	0.567300	0.263000
C301	C30	0.637500	0.657600	0.362700
C311	C31	0.741300	0.718000	0.354900
C321	C32	0.807300	0.702200	0.296300
C331	C33	0.913500	0.775800	0.277500
C341	C34	0.552700	0.676000	0.422300
C351	C35	0.101700	0.527500	0.230600
C361	C36	0.126600	0.349900	0.260600
C371	C37	0.019600	0.319800	0.226400
C381	C38	0.958700	0.405900	0.196500
C391	C39	0.838700	0.384600	0.158100
C401	C40	0.204200	0.261000	0.293800
C411	C41	0.322000	0.387200	0.491200
C421	C42	0.200800	0.438400	0.468000
C431	C43	0.323700	0.432700	0.763000
C441	C44	0.362500	0.342400	0.862700
C451	C45	0.258700	0.282000	0.854900
C461	C46	0.192700	0.297800	0.796300
C471	C47	0.086500	0.224200	0.777500
C481	C48	0.447300	0.324000	0.922300
C491	C49	0.898300	0.472500	0.730600
C501	C50	0.873400	0.650100	0.760600
C511	C51	0.980400	0.680200	0.726400
C521	C52	0.041300	0.594100	0.696500
C531	C53	0.161300	0.615400	0.658100
C541	C54	0.795800	0.739000	0.793800
C551	C55	0.678000	0.612800	0.991200
C561	C56	0.799200	0.561600	0.968000
N11	N1	0.725100	0.126400	0.249700
N21	N2	0.893400	0.080800	0.317000
N31	N3	0.500000	0.008900	0.196300
N41	N4	0.332800	0.953100	0.263600
N51	N5	0.274900	0.873600	0.749700
N61	N6	0.106600	0.919200	0.817000
N71	N7	0.500000	0.991100	0.696300
N81	N8	0.667200	0.046900	0.763600
N91	N9	0.774900	0.626400	0.249700
N101	N10	0.606600	0.580800	0.317000
N111	N11	0.000000	0.508900	0.196300
N121	N12	0.167200	0.453100	0.263600
N131	N13	0.225100	0.373600	0.749700
N141	N14	0.393400	0.419200	0.817000
N151	N15	0.000000	0.491100	0.696300
N161	N16	0.832800	0.546900	0.763600
O11	O1	0.543100	0.263900	0.219000
O21	O2	0.553000	0.343700	0.321700
O31	O3	0.038500	0.115500	0.426100
O41	O4	0.917300	0.249300	0.463100
O51	O5	0.709800	0.965500	0.128600
O61	O6	0.702700	0.789700	0.162700
O71	O7	0.200800	0.791800	0.322200
O81	O8	0.332900	0.662800	0.289400
O91	O9	0.091200	0.885300	0.448300
O101	O10	0.173700	0.850200	0.550500
O111	O11	0.295900	0.994300	0.413100
O121	O12	0.387300	0.924600	0.504500
O131	O13	0.416400	0.178400	0.091600
O141	O14	0.615000	0.341400	0.059000
O151	O15	0.073500	0.965100	0.208100
O161	O16	0.456900	0.736100	0.719000
O171	O17	0.447000	0.656300	0.821700
O181	O18	0.961500	0.884500	0.926100
O191	O19	0.082700	0.750700	0.963100
O201	O20	0.290200	0.034500	0.628600
O211	O21	0.297300	0.210300	0.662700
O221	O22	0.799200	0.208200	0.822200
O231	O23	0.667100	0.337200	0.789400
O241	O24	0.908800	0.114700	0.948300
O251	O25	0.826300	0.149800	0.050500
O261	O26	0.704100	0.005700	0.913100
O271	O27	0.612700	0.075400	0.004500
O281	O28	0.583600	0.821600	0.591600
O291	O29	0.385000	0.658600	0.559000
O301	O30	0.926500	0.034900	0.708100
O311	O31	0.956900	0.763900	0.219000
O321	O32	0.947000	0.843700	0.321700
O331	O33	0.461500	0.615500	0.426100
O341	O34	0.582700	0.749300	0.463100
O351	O35	0.790200	0.465500	0.128600
O361	O36	0.797300	0.289700	0.162700
O371	O37	0.299200	0.291800	0.322200
O381	O38	0.167100	0.162800	0.289400
O391	O39	0.408800	0.385300	0.448300
O401	O40	0.326300	0.350200	0.550500
O411	O41	0.204100	0.494300	0.413100
O421	O42	0.112700	0.424600	0.504500
O431	O43	0.083600	0.678400	0.091600
O441	O44	0.885000	0.841400	0.059000
O451	O45	0.426500	0.465100	0.208100
O461	O46	0.043100	0.236100	0.719000
O471	O47	0.053000	0.156300	0.821700
O481	O48	0.538500	0.384500	0.926100
O491	O49	0.417300	0.250700	0.963100
O501	O50	0.209800	0.534500	0.628600
O511	O51	0.202700	0.710300	0.662700
O521	O52	0.700800	0.708200	0.822200
O531	O53	0.832900	0.837200	0.789400
O541	O54	0.591200	0.614700	0.948300
O551	O55	0.673700	0.649800	0.050500
O561	O56	0.795900	0.505700	0.913100
O571	O57	0.887300	0.575400	0.004500
O581	O58	0.916400	0.321600	0.591600
O591	O59	0.115000	0.158600	0.559000
O601	O60	0.573500	0.534900	0.708100
