data_ACIBIY_freeONLY_PM
_symmetry_space_group_name_H-M	'P1'
_cell_length_a	15.205000
_cell_length_b	18.005000
_cell_length_c	21.500000
_cell_angle_alpha	71.210000
_cell_angle_beta	84.470000
_cell_angle_gamma	67.150000
_symmetry_Int_Tables_number 1

loop_
_symmetry_equiv_pos_as_xyz
'x,y,z'

loop_
_atom_site_label
_atom_site_type_symbol
_atom_site_fract_x
_atom_site_fract_y
_atom_site_fract_z
Co11	Co1	0.524630	0.635770	0.730480
Co21	Co2	0.237810	0.349050	0.516900
Co31	Co3	0.141820	0.031170	0.603050
Co41	Co4	0.219630	0.175170	0.520770
Co51	Co5	0.636720	0.592600	0.603740
Co61	Co6	0.904770	0.015790	0.850300
Co71	Co7	0.696840	0.740290	0.063110
Co81	Co8	0.808820	0.697770	0.936350
Co91	Co9	0.446930	0.490870	0.812280
Co101	Co10	0.886100	0.842250	0.854370
Co111	Co11	0.029820	0.073640	0.729770
Co121	Co12	0.571170	0.682480	0.183580
Co131	Co13	0.333700	0.333280	0.666640
Co141	Co14	0.333500	0.833400	0.666900
Co151	Co15	0.666700	0.666630	0.833160
Co161	Co16	0.666400	0.166680	0.833420
Co171	Co17	0.475370	0.364230	0.269520
Co181	Co18	0.762190	0.650950	0.483100
Co191	Co19	0.858180	0.968830	0.396950
Co201	Co20	0.780370	0.824830	0.479230
Co211	Co21	0.363280	0.407400	0.396260
Co221	Co22	0.095230	0.984210	0.149700
Co231	Co23	0.303160	0.259710	0.936890
Co241	Co24	0.191180	0.302230	0.063650
Co251	Co25	0.553070	0.509130	0.187720
Co261	Co26	0.113900	0.157750	0.145630
Co271	Co27	0.970180	0.926360	0.270230
Co281	Co28	0.428830	0.317520	0.816420
Co291	Co29	0.666300	0.666720	0.333360
Co301	Co30	0.666500	0.166600	0.333100
Co311	Co31	0.333300	0.333370	0.166840
Co321	Co32	0.333600	0.833320	0.166580
Co331	Co33	0.000000	0.000000	0.000000
Co341	Co34	0.000000	0.500000	0.000000
Co351	Co35	0.000000	0.000000	0.500000
Co361	Co36	0.000000	0.500000	0.500000
H11	H1	0.789700	0.611100	0.677400
H21	H2	0.583800	0.551400	0.917800
H31	H3	0.748400	0.783100	0.750700
H41	H4	0.608300	0.350800	0.907500
H51	H5	0.183700	0.801200	0.620800
H61	H6	0.423900	0.685800	0.557100
H71	H7	0.354200	0.537200	0.676600
H81	H8	0.714400	0.991800	0.759200
H91	H9	0.935000	0.317400	0.114300
H101	H10	0.485300	0.862700	0.718200
H111	H11	0.544200	0.727300	0.986300
H121	H12	0.842300	0.465500	0.962800
H131	H13	0.313800	0.129700	0.658900
H141	H14	0.609400	0.232500	0.697300
H151	H15	0.754600	0.552100	0.079300
H161	H16	0.400600	0.011700	0.539000
H171	H17	0.838700	0.234600	0.706700
H181	H18	0.247400	0.969200	0.780700
H191	H19	0.716900	0.937400	0.932600
H201	H20	0.722600	0.106200	0.971700
H211	H21	0.611900	0.399900	0.731600
H221	H22	0.056900	0.436700	0.640100
H231	H23	0.177000	0.565700	0.378900
H241	H24	0.087500	0.881400	0.750500
H251	H25	0.496300	0.097800	0.957400
H261	H26	0.047500	0.269800	0.596800
H271	H27	0.905700	0.645300	0.111700
H281	H28	0.262300	0.659500	0.783100
H291	H29	0.432900	0.210700	0.421000
H301	H30	0.021300	0.205100	0.008500
H311	H31	0.110900	0.065300	0.897300
H321	H32	0.226500	0.260800	0.771800
H331	H33	0.435200	0.410300	0.559800
H341	H34	0.073400	0.121500	0.418100
H351	H35	0.047300	0.314800	0.430500
H361	H36	0.880700	0.052000	0.654300
H371	H37	0.210300	0.388900	0.322600
H381	H38	0.416200	0.448600	0.082200
H391	H39	0.251600	0.216900	0.249300
H401	H40	0.391700	0.649200	0.092500
H411	H41	0.816300	0.198800	0.379200
H421	H42	0.576100	0.314200	0.442900
H431	H43	0.645800	0.462800	0.323400
H441	H44	0.285600	0.008200	0.240800
H451	H45	0.065000	0.682600	0.885700
H461	H46	0.514700	0.137300	0.281800
H471	H47	0.455800	0.272700	0.013700
H481	H48	0.157700	0.534500	0.037200
H491	H49	0.686200	0.870300	0.341100
H501	H50	0.390600	0.767500	0.302700
H511	H51	0.245400	0.447900	0.920700
H521	H52	0.599400	0.988300	0.461000
H531	H53	0.161300	0.765400	0.293300
H541	H54	0.752600	0.030800	0.219300
H551	H55	0.283100	0.062600	0.067400
H561	H56	0.277400	0.893800	0.028300
H571	H57	0.388100	0.600100	0.268400
H581	H58	0.943100	0.563300	0.359900
H591	H59	0.823000	0.434300	0.621100
H601	H60	0.912500	0.118600	0.249500
H611	H61	0.503700	0.902200	0.042600
H621	H62	0.952500	0.730200	0.403200
H631	H63	0.094300	0.354700	0.888300
H641	H64	0.737700	0.340500	0.216900
H651	H65	0.567100	0.789300	0.579000
H661	H66	0.978700	0.794900	0.991500
H671	H67	0.889100	0.934700	0.102700
H681	H68	0.773500	0.739200	0.228200
H691	H69	0.564800	0.589700	0.440200
H701	H70	0.926600	0.878500	0.581900
H711	H71	0.952700	0.685200	0.569500
H721	H72	0.119300	0.948000	0.345700
C11	C1	0.738900	0.619400	0.705600
C21	C2	0.558000	0.555200	0.878900
C31	C3	0.774700	0.778800	0.789600
C41	C4	0.592900	0.321800	0.884200
C51	C5	0.154500	0.859900	0.604200
C61	C6	0.425400	0.700400	0.594700
C71	C7	0.361000	0.480800	0.694400
C81	C8	0.734100	0.018500	0.782500
C91	C9	0.979800	0.340300	0.094700
C101	C10	0.516500	0.804000	0.731600
C111	C11	0.596300	0.715000	0.959600
C121	C12	0.818900	0.523600	0.941500
C131	C13	0.306800	0.186200	0.640900
C141	C14	0.548500	0.256000	0.712300
C151	C15	0.706200	0.561700	0.109200
C161	C16	0.359300	0.990400	0.566700
C171	C17	0.825100	0.196800	0.743600
C181	C18	0.245200	0.961000	0.740400
C191	C19	0.726300	0.880500	0.951200
C201	C20	0.782900	0.079600	0.957400
C211	C21	0.604900	0.456500	0.714200
C221	C22	0.117300	0.412400	0.624800
C231	C23	0.161500	0.526800	0.413800
C241	C24	0.037600	0.892400	0.779100
C251	C25	0.510100	0.136400	0.921300
C261	C26	0.058800	0.212600	0.616500
C271	C27	0.904900	0.633300	0.072800
C281	C28	0.308600	0.679700	0.762100
C291	C29	0.378000	0.223900	0.445200
C301	C30	0.027500	0.148800	0.026500
C311	C31	0.070600	0.062200	0.869100
C321	C32	0.264800	0.267900	0.799000
C331	C33	0.399700	0.400000	0.533000
C341	C34	0.105400	0.112900	0.456100
C351	C35	0.067300	0.345400	0.449600
C361	C36	0.930200	0.046000	0.625000
C371	C37	0.261100	0.380600	0.294400
C381	C38	0.442000	0.444800	0.121100
C391	C39	0.225300	0.221200	0.210400
C401	C40	0.407100	0.678200	0.115800
C411	C41	0.845500	0.140100	0.395800
C421	C42	0.574600	0.299600	0.405300
C431	C43	0.639000	0.519200	0.305600
C441	C44	0.265900	0.981500	0.217500
C451	C45	0.020200	0.659700	0.905300
C461	C46	0.483500	0.196000	0.268400
C471	C47	0.403700	0.285000	0.040400
C481	C48	0.181100	0.476400	0.058500
C491	C49	0.693200	0.813800	0.359100
C501	C50	0.451500	0.744000	0.287700
C511	C51	0.293800	0.438300	0.890800
C521	C52	0.640700	0.009600	0.433300
C531	C53	0.174900	0.803200	0.256400
C541	C54	0.754800	0.039000	0.259600
C551	C55	0.273700	0.119500	0.048800
C561	C56	0.217100	0.920400	0.042600
C571	C57	0.395100	0.543500	0.285800
C581	C58	0.882700	0.587600	0.375200
C591	C59	0.838500	0.473200	0.586200
C601	C60	0.962400	0.107600	0.220900
C611	C61	0.489900	0.863600	0.078700
C621	C62	0.941200	0.787400	0.383500
C631	C63	0.095100	0.366700	0.927200
C641	C64	0.691400	0.320300	0.237900
C651	C65	0.622000	0.776100	0.554800
C661	C66	0.972500	0.851200	0.973500
C671	C67	0.929400	0.937800	0.130900
C681	C68	0.735200	0.732100	0.201000
C691	C69	0.600300	0.600000	0.467000
C701	C70	0.894600	0.887100	0.543900
C711	C71	0.932700	0.654600	0.550400
C721	C72	0.069800	0.954000	0.375000
O11	O1	0.013300	0.420300	0.445000
O21	O2	0.311400	0.906700	0.728400
O31	O3	0.354400	0.762400	0.602000
O41	O4	0.330500	0.451900	0.659700
O51	O5	0.997000	0.118100	0.994000
O61	O6	0.679200	0.087300	0.779100
O71	O7	0.336900	0.214500	0.675500
O81	O8	0.652400	0.248900	0.888300
O91	O9	0.948500	0.420100	0.070300
O101	O10	0.976000	0.572200	0.061900
O111	O11	0.388900	0.913600	0.596800
O121	O12	0.749900	0.629600	0.757700
O131	O13	0.913000	0.037100	0.575100
O141	O14	0.749400	0.223300	0.767100
O151	O15	0.582100	0.701900	0.908200
O161	O16	0.281100	0.755200	0.737800
O171	O17	0.082800	0.555400	0.435000
O181	O18	0.346200	0.295200	0.456200
O191	O19	0.585600	0.111200	0.898700
O201	O20	0.671500	0.503800	0.133500
O211	O21	0.851900	0.046300	0.997400
O221	O22	0.890400	0.121500	0.763700
O231	O23	0.338500	0.169200	0.465700
O241	O24	0.749100	0.553700	0.902000
O251	O25	0.689700	0.858000	0.006800
O261	O26	0.586500	0.780400	0.763100
O271	O27	0.015000	0.962200	0.790600
O281	O28	0.248400	0.248400	0.858000
O291	O29	0.081000	0.889000	0.567800
O301	O30	0.680600	0.629200	0.122200
O311	O31	0.511300	0.509900	0.882400
O321	O32	0.021400	0.192800	0.670800
O331	O33	0.004200	0.836500	0.799600
O341	O34	0.185700	0.379900	0.664000
O351	O35	0.169400	0.010800	0.703100
O361	O36	0.481700	0.287400	0.670600
O371	O37	0.833800	0.678300	0.034100
O381	O38	0.498800	0.655300	0.632600
O391	O39	0.225300	0.454000	0.430700
O401	O40	0.417800	0.417400	0.475300
O411	O41	0.820300	0.822600	0.785300
O421	O42	0.443400	0.212600	0.901500
O431	O43	0.085100	0.084000	0.809500
O441	O44	0.155000	0.156000	0.451900
O451	O45	0.095200	0.058200	0.508500
O461	O46	0.643100	0.475900	0.662000
O471	O47	0.790500	0.079200	0.896800
O481	O48	0.148000	0.309800	0.479400
O491	O49	0.759400	0.727700	0.841900
O501	O50	0.671200	0.713400	0.978900
O511	O51	0.572500	0.605900	0.826000
O521	O52	0.110400	0.162200	0.586200
O531	O53	0.068400	0.106400	0.085400
O541	O54	0.007400	0.048500	0.644600
O551	O55	0.393500	0.621700	0.763700
O561	O56	0.267600	0.223500	0.584100
O571	O57	0.328600	0.297100	0.770100
O581	O58	0.659600	0.619600	0.688200
O591	O59	0.193200	0.902700	0.620900
O601	O60	0.516800	0.359100	0.853100
O611	O61	0.338300	0.369200	0.562200
O621	O62	0.816200	0.973000	0.812500
O631	O63	0.123000	0.415200	0.564100
O641	O64	0.860600	0.567000	0.954700
O651	O65	0.544300	0.252000	0.771800
O661	O66	0.274700	0.042300	0.571700
O671	O67	0.557700	0.504400	0.746700
O681	O68	0.003900	0.035800	0.895000
O691	O69	0.472700	0.766200	0.711300
O701	O70	0.059100	0.291200	0.095700
O711	O71	0.400400	0.442100	0.751100
O721	O72	0.776100	0.828200	0.919000
O731	O73	0.986700	0.579700	0.555000
O741	O74	0.688600	0.093300	0.271600
O751	O75	0.645600	0.237600	0.398000
O761	O76	0.669500	0.548100	0.340300
O771	O77	0.003000	0.881900	0.006000
O781	O78	0.320800	0.912700	0.220900
O791	O79	0.663100	0.785500	0.324500
O801	O80	0.347600	0.751100	0.111700
O811	O81	0.051500	0.579900	0.929700
O821	O82	0.024000	0.427800	0.938100
O831	O83	0.611100	0.086400	0.403200
O841	O84	0.250100	0.370400	0.242300
O851	O85	0.087000	0.962900	0.424900
O861	O86	0.250600	0.776700	0.232900
O871	O87	0.417900	0.298100	0.091800
O881	O88	0.718900	0.244800	0.262200
O891	O89	0.917200	0.444600	0.565000
O901	O90	0.653800	0.704800	0.543800
O911	O91	0.414400	0.888800	0.101300
O921	O92	0.328500	0.496200	0.866500
O931	O93	0.148100	0.953700	0.002600
O941	O94	0.109600	0.878500	0.236300
O951	O95	0.661500	0.830800	0.534300
O961	O96	0.250900	0.446300	0.098000
O971	O97	0.310300	0.142000	0.993200
O981	O98	0.413500	0.219600	0.236900
O991	O99	0.985000	0.037800	0.209400
O1001	O100	0.751600	0.751600	0.142000
O1011	O101	0.919000	0.111000	0.432200
O1021	O102	0.319400	0.370800	0.877800
O1031	O103	0.488700	0.490100	0.117600
O1041	O104	0.978600	0.807200	0.329200
O1051	O105	0.995800	0.163500	0.200400
O1061	O106	0.814300	0.620100	0.336000
O1071	O107	0.830600	0.989200	0.296900
O1081	O108	0.518300	0.712600	0.329400
O1091	O109	0.166200	0.321700	0.965900
O1101	O110	0.501200	0.344700	0.367400
O1111	O111	0.774700	0.546000	0.569300
O1121	O112	0.582200	0.582600	0.524700
O1131	O113	0.179700	0.177400	0.214700
O1141	O114	0.556600	0.787400	0.098500
O1151	O115	0.914900	0.916000	0.190500
O1161	O116	0.845000	0.844000	0.548100
O1171	O117	0.904800	0.941800	0.491500
O1181	O118	0.356900	0.524100	0.338000
O1191	O119	0.209500	0.920800	0.103200
O1201	O120	0.852000	0.690200	0.520600
O1211	O121	0.240600	0.272300	0.158100
O1221	O122	0.328800	0.286600	0.021100
O1231	O123	0.427500	0.394100	0.174000
O1241	O124	0.889600	0.837800	0.413800
O1251	O125	0.931600	0.893600	0.914600
O1261	O126	0.992600	0.951500	0.355400
O1271	O127	0.606500	0.378300	0.236300
O1281	O128	0.732400	0.776500	0.415900
O1291	O129	0.671400	0.702900	0.229900
O1301	O130	0.340400	0.380400	0.311800
O1311	O131	0.806800	0.097300	0.379100
O1321	O132	0.483200	0.640900	0.146900
O1331	O133	0.661700	0.630800	0.437800
O1341	O134	0.183800	0.027000	0.187500
O1351	O135	0.877000	0.584800	0.435900
O1361	O136	0.139400	0.433000	0.045300
O1371	O137	0.455700	0.748000	0.228200
O1381	O138	0.725300	0.957700	0.428300
O1391	O139	0.442300	0.495600	0.253300
O1401	O140	0.996100	0.964200	0.105000
O1411	O141	0.527300	0.233800	0.288700
O1421	O142	0.940900	0.708800	0.904300
O1431	O143	0.599600	0.557900	0.248900
O1441	O144	0.223900	0.171800	0.081000
