data_ACOLIP_freeONLY_PM
_symmetry_space_group_name_H-M	'P1'
_cell_length_a	11.567000
_cell_length_b	11.839300
_cell_length_c	14.227000
_cell_angle_alpha	112.497000
_cell_angle_beta	90.000000
_cell_angle_gamma	119.242000
_symmetry_Int_Tables_number 1

loop_
_symmetry_equiv_pos_as_xyz
'x,y,z'

loop_
_atom_site_label
_atom_site_type_symbol
_atom_site_fract_x
_atom_site_fract_y
_atom_site_fract_z
Zn11	Zn1	0.345140	0.716260	0.756240
Zn21	Zn2	0.371120	0.716260	0.256240
H11	H1	0.530800	0.421800	0.146100
H21	H2	0.160800	0.186400	0.968300
H31	H3	0.189700	0.006800	0.870100
H41	H4	0.418500	0.553800	0.547700
H51	H5	0.550000	0.973800	0.708300
H61	H6	0.656700	0.941600	0.553500
H71	H7	0.613500	0.703200	0.381500
H81	H8	0.536900	0.557400	0.390800
H91	H9	0.665900	0.528600	0.519300
H101	H10	0.878800	0.580200	0.583800
H111	H11	0.055900	0.905200	0.501200
H121	H12	0.843000	0.853600	0.436700
H131	H13	0.135900	0.763000	0.646600
H141	H14	0.195500	0.896600	0.620400
H151	H15	0.315000	0.885800	0.462200
H161	H16	0.174800	0.456600	0.317800
H171	H17	0.071200	0.497400	0.473600
H181	H18	0.639700	0.209400	0.996000
H191	H19	0.678700	0.342600	0.092300
H201	H20	0.891000	0.421800	0.646100
H211	H21	0.025600	0.186400	0.468300
H221	H22	0.817100	0.006800	0.370100
H231	H23	0.135300	0.553800	0.047700
H241	H24	0.423800	0.973800	0.208300
H251	H25	0.284900	0.941600	0.053500
H261	H26	0.089700	0.703200	0.881500
H271	H27	0.020500	0.557400	0.890800
H281	H28	0.862700	0.528600	0.019300
H291	H29	0.701400	0.580200	0.083800
H301	H30	0.849300	0.905200	0.001200
H311	H31	0.010600	0.853600	0.936700
H321	H32	0.627100	0.763000	0.146600
H331	H33	0.701100	0.896600	0.120400
H341	H34	0.570800	0.885800	0.962200
H351	H35	0.281800	0.456600	0.817800
H361	H36	0.426200	0.497400	0.973600
H371	H37	0.569700	0.209400	0.496000
H381	H38	0.663900	0.342600	0.592300
C11	C1	0.404100	0.983400	0.882000
C21	C2	0.389600	0.110000	0.946000
C31	C3	0.496200	0.232800	0.027900
C41	C4	0.464300	0.339000	0.089100
C51	C5	0.339800	0.323000	0.067000
C61	C6	0.244900	0.197800	0.984200
C71	C7	0.260300	0.090400	0.924000
C81	C8	0.304900	0.431600	0.129800
C91	C9	0.460400	0.651600	0.566300
C101	C10	0.534800	0.887200	0.657100
C111	C11	0.594700	0.868800	0.570200
C121	C12	0.601100	0.660200	0.429600
C131	C13	0.733400	0.686000	0.471600
C141	C14	0.744100	0.604000	0.515600
C151	C15	0.871700	0.635000	0.554300
C161	C16	0.988500	0.747800	0.548900
C171	C17	0.977800	0.829800	0.504800
C181	C18	0.850200	0.798800	0.466200
C191	C19	0.133600	0.793200	0.592500
C201	C20	0.265500	0.787400	0.443400
C211	C21	0.186900	0.544400	0.363900
C221	C22	0.126400	0.566000	0.451100
C231	C23	0.579300	0.983400	0.382000
C241	C24	0.720400	0.110000	0.446000
C251	C25	0.736600	0.232800	0.527900
C261	C26	0.874700	0.339000	0.589100
C271	C27	0.983200	0.323000	0.567000
C281	C28	0.952900	0.197800	0.484200
C291	C29	0.830100	0.090400	0.424000
C301	C30	0.126700	0.431600	0.629800
C311	C31	0.191200	0.651600	0.066300
C321	C32	0.352400	0.887200	0.157100
C331	C33	0.274100	0.868800	0.070200
C341	C34	0.059100	0.660200	0.929600
C351	C35	0.952600	0.686000	0.971600
C361	C36	0.859900	0.604000	0.015600
C371	C37	0.763300	0.635000	0.054300
C381	C38	0.759300	0.747800	0.048900
C391	C39	0.852000	0.829800	0.004800
C401	C40	0.948600	0.798800	0.966200
C411	C41	0.659600	0.793200	0.092500
C421	C42	0.521900	0.787400	0.943400
C431	C43	0.357500	0.544400	0.863900
C441	C44	0.439600	0.566000	0.951100
N11	N1	0.448200	0.749800	0.651200
N21	N2	0.544200	0.722000	0.514000
N31	N3	0.270100	0.679600	0.357900
N41	N4	0.167500	0.714600	0.497400
N51	N5	0.617600	0.265000	0.040000
N61	N6	0.301600	0.749800	0.151200
N71	N7	0.177800	0.722000	0.014000
N81	N8	0.409500	0.679600	0.857900
N91	N9	0.547100	0.714600	0.997400
N101	N10	0.647400	0.265000	0.540000
O11	O1	0.525400	0.011400	0.896100
O21	O2	0.302000	0.866200	0.822000
O31	O3	0.406700	0.548000	0.190700
O41	O4	0.188000	0.417600	0.120600
O51	O5	0.486000	0.011400	0.396100
O61	O6	0.564200	0.866200	0.322000
O71	O7	0.141300	0.548000	0.690700
O81	O8	0.229600	0.417600	0.620600
