data_acs_PM
_symmetry_space_group_name_H-M	'P1'
_cell_length_a	25.014100
_cell_length_b	21.238300
_cell_length_c	10.032400
_cell_angle_alpha	90.000000
_cell_angle_beta	97.166000
_cell_angle_gamma	90.000000
_symmetry_Int_Tables_number 1

loop_
_symmetry_equiv_pos_as_xyz
'x,y,z'

loop_
_atom_site_label
_atom_site_type_symbol
_atom_site_fract_x
_atom_site_fract_y
_atom_site_fract_z
C11	C1	0.288000	0.172200	0.098200
C21	C2	0.271900	0.133400	0.975100
C31	C3	0.257900	0.165100	0.855400
H11	H1	0.259800	0.209760	0.854550
C41	C4	0.241000	0.133500	0.736500
C51	C5	0.226300	0.173800	0.614600
C61	C6	0.239900	0.067200	0.734000
C71	C7	0.223200	0.031600	0.613600
H21	H2	0.211950	0.053430	0.532290
C81	C8	0.284300	0.031900	0.098600
H31	H3	0.294280	0.053660	0.180640
C91	C9	0.269900	0.067000	0.979500
C101	C10	0.254300	0.033800	0.856300
C111	C11	0.406200	0.172000	0.388100
C121	C12	0.454800	0.133200	0.442700
C131	C13	0.408500	0.031900	0.378100
H41	H4	0.377840	0.053790	0.335690
C141	C14	0.453800	0.067300	0.440800
C151	C15	0.397100	0.384000	0.232100
C161	C16	0.419900	0.442900	0.178500
C171	C17	0.480500	0.384300	0.040500
H51	H5	0.466300	0.345330	0.066850
C181	C18	0.459900	0.441900	0.087400
Li11	Li1	0.288300	0.184900	0.385300
O11	O1	0.322320	0.214960	0.087300
O21	O2	0.265800	0.161830	0.201900
O31	O3	0.198360	0.223320	0.630800
O41	O4	0.242470	0.160550	0.506700
O51	O5	0.416110	0.221170	0.323800
O61	O6	0.360920	0.155500	0.409800
O71	O7	0.380350	0.341610	0.146000
O81	O8	0.394700	0.378900	0.353100
Zn11	Zn1	0.354230	0.268960	0.236990
C191	C19	0.788000	0.672200	0.098200
C201	C20	0.771900	0.633400	0.975100
C211	C21	0.757900	0.665100	0.855400
H61	H6	0.759800	0.709760	0.854550
C221	C22	0.741000	0.633500	0.736500
C231	C23	0.726300	0.673800	0.614600
C241	C24	0.739900	0.567200	0.734000
C251	C25	0.723200	0.531600	0.613600
H71	H7	0.711950	0.553430	0.532290
C261	C26	0.784300	0.531900	0.098600
H81	H8	0.794280	0.553660	0.180640
C271	C27	0.769900	0.567000	0.979500
C281	C28	0.754300	0.533800	0.856300
C291	C29	0.906200	0.672000	0.388100
C301	C30	0.954800	0.633200	0.442700
C311	C31	0.908500	0.531900	0.378100
H91	H9	0.877840	0.553790	0.335690
C321	C32	0.953800	0.567300	0.440800
C331	C33	0.897100	0.884000	0.232100
C341	C34	0.919900	0.942900	0.178500
C351	C35	0.980500	0.884300	0.040500
H101	H10	0.966300	0.845330	0.066850
C361	C36	0.959900	0.941900	0.087400
Li21	Li2	0.788300	0.684900	0.385300
O91	O9	0.822320	0.714960	0.087300
O101	O10	0.765800	0.661830	0.201900
O111	O11	0.698360	0.723320	0.630800
O121	O12	0.742470	0.660550	0.506700
O131	O13	0.916110	0.721170	0.323800
O141	O14	0.860920	0.655500	0.409800
O151	O15	0.880350	0.841610	0.146000
O161	O16	0.894700	0.878900	0.353100
Zn21	Zn2	0.854230	0.768960	0.236990
C371	C37	0.712000	0.172200	0.901800
C381	C38	0.728100	0.133400	0.024900
C391	C39	0.742100	0.165100	0.144600
H111	H11	0.740200	0.209760	0.145450
C401	C40	0.759000	0.133500	0.263500
C411	C41	0.773700	0.173800	0.385400
C421	C42	0.760100	0.067200	0.266000
C431	C43	0.776800	0.031600	0.386400
H121	H12	0.788050	0.053430	0.467710
C441	C44	0.715700	0.031900	0.901400
H131	H13	0.705720	0.053660	0.819360
C451	C45	0.730100	0.067000	0.020500
C461	C46	0.745700	0.033800	0.143700
C471	C47	0.593800	0.172000	0.611900
C481	C48	0.545200	0.133200	0.557300
C491	C49	0.591500	0.031900	0.621900
H141	H14	0.622160	0.053790	0.664310
C501	C50	0.546200	0.067300	0.559200
C511	C51	0.602900	0.384000	0.767900
C521	C52	0.580100	0.442900	0.821500
C531	C53	0.519500	0.384300	0.959500
H151	H15	0.533700	0.345330	0.933150
C541	C54	0.540100	0.441900	0.912600
Li31	Li3	0.711700	0.184900	0.614700
O171	O17	0.677680	0.214960	0.912700
O181	O18	0.734200	0.161830	0.798100
O191	O19	0.801640	0.223320	0.369200
O201	O20	0.757530	0.160550	0.493300
O211	O21	0.583890	0.221170	0.676200
O221	O22	0.639080	0.155500	0.590200
O231	O23	0.619650	0.341610	0.854000
O241	O24	0.605300	0.378900	0.646900
Zn31	Zn3	0.645770	0.268960	0.763010
C551	C55	0.212000	0.672200	0.901800
C561	C56	0.228100	0.633400	0.024900
C571	C57	0.242100	0.665100	0.144600
H161	H16	0.240200	0.709760	0.145450
C581	C58	0.259000	0.633500	0.263500
C591	C59	0.273700	0.673800	0.385400
C601	C60	0.260100	0.567200	0.266000
C611	C61	0.276800	0.531600	0.386400
H171	H17	0.288050	0.553430	0.467710
C621	C62	0.215700	0.531900	0.901400
H181	H18	0.205720	0.553660	0.819360
C631	C63	0.230100	0.567000	0.020500
C641	C64	0.245700	0.533800	0.143700
C651	C65	0.093800	0.672000	0.611900
C661	C66	0.045200	0.633200	0.557300
C671	C67	0.091500	0.531900	0.621900
H191	H19	0.122160	0.553790	0.664310
C681	C68	0.046200	0.567300	0.559200
C691	C69	0.102900	0.884000	0.767900
C701	C70	0.080100	0.942900	0.821500
C711	C71	0.019500	0.884300	0.959500
H201	H20	0.033700	0.845330	0.933150
C721	C72	0.040100	0.941900	0.912600
Li41	Li4	0.211700	0.684900	0.614700
O251	O25	0.177680	0.714960	0.912700
O261	O26	0.234200	0.661830	0.798100
O271	O27	0.301640	0.723320	0.369200
O281	O28	0.257530	0.660550	0.493300
O291	O29	0.083890	0.721170	0.676200
O301	O30	0.139080	0.655500	0.590200
O311	O31	0.119650	0.841610	0.854000
O321	O32	0.105300	0.878900	0.646900
Zn41	Zn4	0.145770	0.768960	0.763010
C731	C73	0.712000	0.827800	0.901800
C741	C74	0.728100	0.866600	0.024900
C751	C75	0.742100	0.834900	0.144600
H211	H21	0.740200	0.790240	0.145450
C761	C76	0.759000	0.866500	0.263500
C771	C77	0.773700	0.826200	0.385400
C781	C78	0.760100	0.932800	0.266000
C791	C79	0.776800	0.968400	0.386400
H221	H22	0.788050	0.946570	0.467710
C801	C80	0.715700	0.968100	0.901400
H231	H23	0.705720	0.946330	0.819360
C811	C81	0.730100	0.933000	0.020500
C821	C82	0.745700	0.966200	0.143700
C831	C83	0.593800	0.828000	0.611900
C841	C84	0.545200	0.866800	0.557300
C851	C85	0.591500	0.968100	0.621900
H241	H24	0.622160	0.946210	0.664310
C861	C86	0.546200	0.932700	0.559200
C871	C87	0.602900	0.616000	0.767900
C881	C88	0.580100	0.557100	0.821500
C891	C89	0.519500	0.615700	0.959500
H251	H25	0.533700	0.654670	0.933150
C901	C90	0.540100	0.558100	0.912600
Li51	Li5	0.711700	0.815100	0.614700
O331	O33	0.677680	0.785040	0.912700
O341	O34	0.734200	0.838170	0.798100
O351	O35	0.801640	0.776680	0.369200
O361	O36	0.757530	0.839450	0.493300
O371	O37	0.583890	0.778830	0.676200
O381	O38	0.639080	0.844500	0.590200
O391	O39	0.619650	0.658390	0.854000
O401	O40	0.605300	0.621100	0.646900
Zn51	Zn5	0.645770	0.731040	0.763010
C911	C91	0.212000	0.327800	0.901800
C921	C92	0.228100	0.366600	0.024900
C931	C93	0.242100	0.334900	0.144600
H261	H26	0.240200	0.290240	0.145450
C941	C94	0.259000	0.366500	0.263500
C951	C95	0.273700	0.326200	0.385400
C961	C96	0.260100	0.432800	0.266000
C971	C97	0.276800	0.468400	0.386400
H271	H27	0.288050	0.446570	0.467710
C981	C98	0.215700	0.468100	0.901400
H281	H28	0.205720	0.446330	0.819360
C991	C99	0.230100	0.433000	0.020500
C1001	C100	0.245700	0.466200	0.143700
C1011	C101	0.093800	0.328000	0.611900
C1021	C102	0.045200	0.366800	0.557300
C1031	C103	0.091500	0.468100	0.621900
H291	H29	0.122160	0.446210	0.664310
C1041	C104	0.046200	0.432700	0.559200
C1051	C105	0.102900	0.116000	0.767900
C1061	C106	0.080100	0.057100	0.821500
C1071	C107	0.019500	0.115700	0.959500
H301	H30	0.033700	0.154670	0.933150
C1081	C108	0.040100	0.058100	0.912600
Li61	Li6	0.211700	0.315100	0.614700
O411	O41	0.177680	0.285040	0.912700
O421	O42	0.234200	0.338170	0.798100
O431	O43	0.301640	0.276680	0.369200
O441	O44	0.257530	0.339450	0.493300
O451	O45	0.083890	0.278830	0.676200
O461	O46	0.139080	0.344500	0.590200
O471	O47	0.119650	0.158390	0.854000
O481	O48	0.105300	0.121100	0.646900
Zn61	Zn6	0.145770	0.231040	0.763010
C1091	C109	0.288000	0.827800	0.098200
C1101	C110	0.271900	0.866600	0.975100
C1111	C111	0.257900	0.834900	0.855400
H311	H31	0.259800	0.790240	0.854550
C1121	C112	0.241000	0.866500	0.736500
C1131	C113	0.226300	0.826200	0.614600
C1141	C114	0.239900	0.932800	0.734000
C1151	C115	0.223200	0.968400	0.613600
H321	H32	0.211950	0.946570	0.532290
C1161	C116	0.284300	0.968100	0.098600
H331	H33	0.294280	0.946330	0.180640
C1171	C117	0.269900	0.933000	0.979500
C1181	C118	0.254300	0.966200	0.856300
C1191	C119	0.406200	0.828000	0.388100
C1201	C120	0.454800	0.866800	0.442700
C1211	C121	0.408500	0.968100	0.378100
H341	H34	0.377840	0.946210	0.335690
C1221	C122	0.453800	0.932700	0.440800
C1231	C123	0.397100	0.616000	0.232100
C1241	C124	0.419900	0.557100	0.178500
C1251	C125	0.480500	0.615700	0.040500
H351	H35	0.466300	0.654670	0.066850
C1261	C126	0.459900	0.558100	0.087400
Li71	Li7	0.288300	0.815100	0.385300
O491	O49	0.322320	0.785040	0.087300
O501	O50	0.265800	0.838170	0.201900
O511	O51	0.198360	0.776680	0.630800
O521	O52	0.242470	0.839450	0.506700
O531	O53	0.416110	0.778830	0.323800
O541	O54	0.360920	0.844500	0.409800
O551	O55	0.380350	0.658390	0.146000
O561	O56	0.394700	0.621100	0.353100
Zn71	Zn7	0.354230	0.731040	0.236990
C1271	C127	0.788000	0.327800	0.098200
C1281	C128	0.771900	0.366600	0.975100
C1291	C129	0.757900	0.334900	0.855400
H361	H36	0.759800	0.290240	0.854550
C1301	C130	0.741000	0.366500	0.736500
C1311	C131	0.726300	0.326200	0.614600
C1321	C132	0.739900	0.432800	0.734000
C1331	C133	0.723200	0.468400	0.613600
H371	H37	0.711950	0.446570	0.532290
C1341	C134	0.784300	0.468100	0.098600
H381	H38	0.794280	0.446330	0.180640
C1351	C135	0.769900	0.433000	0.979500
C1361	C136	0.754300	0.466200	0.856300
C1371	C137	0.906200	0.328000	0.388100
C1381	C138	0.954800	0.366800	0.442700
C1391	C139	0.908500	0.468100	0.378100
H391	H39	0.877840	0.446210	0.335690
C1401	C140	0.953800	0.432700	0.440800
C1411	C141	0.897100	0.116000	0.232100
C1421	C142	0.919900	0.057100	0.178500
C1431	C143	0.980500	0.115700	0.040500
H401	H40	0.966300	0.154670	0.066850
C1441	C144	0.959900	0.058100	0.087400
Li81	Li8	0.788300	0.315100	0.385300
O571	O57	0.822320	0.285040	0.087300
O581	O58	0.765800	0.338170	0.201900
O591	O59	0.698360	0.276680	0.630800
O601	O60	0.742470	0.339450	0.506700
O611	O61	0.916110	0.278830	0.323800
O621	O62	0.860920	0.344500	0.409800
O631	O63	0.880350	0.158390	0.146000
O641	O64	0.894700	0.121100	0.353100
Zn81	Zn8	0.854230	0.231040	0.236990
C1451	C145	0.500000	0.165000	0.500000
H411	H41	0.500000	0.209700	0.500000
C1461	C146	0.500000	0.033700	0.500000
C1471	C147	0.000000	0.665000	0.500000
H421	H42	0.000000	0.709700	0.500000
C1481	C148	0.000000	0.533700	0.500000
C1491	C149	0.500000	0.835000	0.500000
H431	H43	0.500000	0.790300	0.500000
C1501	C150	0.500000	0.966300	0.500000
C1511	C151	0.000000	0.335000	0.500000
H441	H44	0.000000	0.290300	0.500000
C1521	C152	0.000000	0.466300	0.500000
C1531	C153	0.403200	0.500000	0.223900
H451	H45	0.378990	0.500000	0.289680
C1541	C154	0.479500	0.500000	0.044500
C1551	C155	0.903200	0.000000	0.223900
H461	H46	0.878990	0.000000	0.289680
C1561	C156	0.979500	0.000000	0.044500
C1571	C157	0.596800	0.500000	0.776100
H471	H47	0.621010	0.500000	0.710320
C1581	C158	0.520500	0.500000	0.955500
C1591	C159	0.096800	0.000000	0.776100
H481	H48	0.121010	0.000000	0.710320
C1601	C160	0.020500	0.000000	0.955500
