data_acs_PM
_symmetry_space_group_name_H-M	'P1'
_cell_length_a	11.627400
_cell_length_b	19.663000
_cell_length_c	32.678000
_cell_angle_alpha	90.000000
_cell_angle_beta	90.000000
_cell_angle_gamma	90.000000
_symmetry_Int_Tables_number 1

loop_
_symmetry_equiv_pos_as_xyz
'x,y,z'

loop_
_atom_site_label
_atom_site_type_symbol
_atom_site_fract_x
_atom_site_fract_y
_atom_site_fract_z
C11	C1	0.940200	0.462200	0.441700
C21	C2	0.914200	0.534600	0.976300
C31	C3	0.001700	0.614100	0.025600
H11	H1	0.056200	0.580700	0.031300
C41	C4	0.799500	0.928700	0.199700
H21	H2	0.785100	0.971900	0.210100
C51	C5	0.863400	0.456300	0.922200
H31	H3	0.828800	0.450300	0.896800
C61	C6	0.964800	0.114300	0.207700
C71	C7	0.842000	0.807300	0.169400
H41	H4	0.850100	0.764000	0.158300
C81	C8	0.065400	0.091300	0.230300
C91	C9	0.421300	0.140700	0.299100
C101	C10	0.173000	0.905900	0.299600
C111	C11	0.928100	0.725100	0.036500
C121	C12	0.852300	0.650200	0.988300
H51	H5	0.796600	0.643900	0.968200
C131	C13	0.944300	0.095700	0.163700
H61	H6	0.997600	0.069400	0.149600
C141	C14	0.473500	0.850300	0.280700
H71	H7	0.422400	0.815200	0.286400
C151	C15	0.879300	0.919200	0.167800
H81	H8	0.915900	0.956700	0.156300
C161	C16	0.355200	0.926100	0.324700
H91	H9	0.374400	0.964700	0.342300
C171	C17	0.743900	0.873300	0.215000
C181	C18	0.012400	0.675700	0.048000
H101	H10	0.068000	0.683000	0.068000
C191	C19	0.648800	0.885900	0.249300
C201	C20	0.759700	0.149800	0.163800
C211	C21	0.472800	0.038200	0.192600
H111	H11	0.495400	0.079100	0.204400
C221	C22	0.690900	0.235000	0.352800
C231	C23	0.604300	0.210000	0.378000
H121	H12	0.609400	0.215600	0.406200
C241	C24	0.510200	0.176800	0.361100
H131	H13	0.452200	0.160100	0.377900
C251	C25	0.502700	0.168500	0.318900
C261	C26	0.589300	0.193400	0.293700
H141	H14	0.584300	0.187900	0.265500
C271	C27	0.683400	0.226700	0.310700
H151	H15	0.741400	0.243300	0.293800
C281	C28	0.640200	0.944500	0.268900
H161	H16	0.696900	0.977200	0.264800
C291	C29	0.921300	0.597800	0.996900
C301	C30	0.763600	0.814300	0.201600
H171	H17	0.727200	0.776600	0.212900
C311	C31	0.776100	0.773800	0.998500
H181	H18	0.779700	0.789700	0.970400
H191	H19	0.696900	0.764700	0.006000
C321	C32	0.845500	0.118100	0.144300
H201	H20	0.838300	0.110700	0.116300
C331	C33	0.538800	0.009400	0.163600
H211	H21	0.603600	0.033100	0.155000
C341	C34	0.802400	0.725100	0.399300
H221	H22	0.799400	0.715200	0.427100
C351	C35	0.899200	0.756400	0.382900
H231	H23	0.961000	0.767400	0.399700
C361	C36	0.903700	0.771200	0.341300
C371	C37	0.811400	0.754800	0.316200
H241	H24	0.814300	0.764800	0.288400
C381	C38	0.714500	0.723600	0.332600
H251	H25	0.652800	0.712600	0.315700
N11	N1	0.710100	0.708700	0.374100
C391	C39	0.773200	0.169000	0.201200
H261	H26	0.718300	0.197000	0.213300
C401	C40	0.546100	0.960100	0.296700
H271	H27	0.542000	0.000500	0.311500
C411	C41	0.001000	0.700000	0.542800
C421	C42	0.966000	0.471800	0.997600
H281	H28	0.992500	0.472600	0.024400
C431	C43	0.066600	0.905700	0.277200
H291	H29	0.054100	0.932100	0.254000
C441	C44	0.855100	0.519300	0.940200
H301	H30	0.809300	0.552400	0.928000
C451	C45	0.879100	0.146500	0.226200
H311	H31	0.882900	0.155400	0.254200
C461	C46	0.997400	0.817400	0.326100
C471	C47	0.460100	0.908200	0.299400
C481	C48	0.986100	0.863200	0.293100
H321	H32	0.914200	0.864500	0.280600
C491	C49	0.975700	0.641800	0.513900
C501	C50	0.912100	0.588100	0.529800
H331	H33	0.878500	0.591900	0.555500
C511	C51	0.898600	0.528700	0.507300
H341	H34	0.856000	0.492800	0.517900
C521	C52	0.948800	0.523000	0.468800
C531	C53	0.012400	0.576700	0.452900
H351	H35	0.046000	0.572900	0.427200
C541	C54	0.025900	0.636100	0.475500
H361	H36	0.068500	0.672000	0.464800
C551	C55	0.648200	0.167200	0.141700
C561	C56	0.969000	0.414500	0.973600
H371	H37	0.013600	0.378200	0.982900
C571	C57	0.599000	0.847500	0.111800
H381	H38	0.552400	0.821100	0.128500
C581	C58	0.597600	0.918000	0.115400
C591	C59	0.667400	0.957500	0.090300
H391	H39	0.666500	0.004600	0.092700
C601	C60	0.738600	0.926500	0.061700
H401	H40	0.785300	0.953000	0.044900
C611	C61	0.740000	0.856100	0.058100
C621	C62	0.670200	0.816600	0.083100
H411	H41	0.671200	0.769500	0.080700
C631	C63	0.302500	0.872300	0.350000
H421	H42	0.294000	0.887300	0.378100
H431	H43	0.348700	0.831300	0.349500
C641	C64	0.831500	0.820300	0.026600
H441	H44	0.867700	0.856400	0.010400
C651	C65	0.103900	0.813400	0.345800
H451	H45	0.119100	0.782900	0.366900
C661	C66	0.563300	0.838600	0.251900
H461	H46	0.563600	0.800100	0.235400
C671	C67	0.518500	0.951000	0.146700
C681	C68	0.421300	0.919500	0.159700
H471	H47	0.400800	0.877700	0.148600
C691	C69	0.350500	0.949700	0.190100
H481	H48	0.285700	0.926900	0.199600
Cd11	Cd1	0.974050	0.341900	0.401760
Cd21	Cd2	0.035710	0.806430	0.595220
Cd31	Cd3	0.264410	0.046650	0.259840
N21	N2	0.903800	0.855700	0.153400
N31	N3	0.919000	0.787900	0.049800
N41	N4	0.263000	0.948400	0.294600
N51	N5	0.857300	0.710300	0.006200
N61	N6	0.187100	0.860300	0.330700
N71	N7	0.376100	0.008800	0.204600
N81	N8	0.914100	0.406800	0.937600
O11	O1	0.644200	0.151300	0.105200
O21	O2	0.572000	0.195800	0.159000
O31	O3	0.970000	0.459400	0.409600
O41	O4	0.092900	0.117000	0.259700
O51	O5	0.349200	0.095300	0.317900
O61	O6	0.391100	0.137300	0.262600
O71	O7	0.122700	0.048100	0.214300
O81	O8	0.905000	0.409100	0.460300
O91	O9	0.986000	0.699100	0.578400
O101	O10	0.054000	0.748500	0.527000
C701	C70	0.783900	0.265100	0.369500
O111	O11	0.796300	0.281400	0.404100
O121	O12	0.872700	0.276800	0.351800
C711	C71	0.559800	0.537800	0.941700
C721	C72	0.585800	0.465400	0.476300
C731	C73	0.498300	0.385900	0.525600
H491	H49	0.443800	0.419300	0.531300
C741	C74	0.700500	0.071300	0.699700
H501	H50	0.714900	0.028100	0.710100
C751	C75	0.636600	0.543700	0.422200
H511	H51	0.671200	0.549700	0.396800
C761	C76	0.535200	0.885700	0.707700
C771	C77	0.658000	0.192700	0.669400
H521	H52	0.649900	0.236000	0.658300
C781	C78	0.434600	0.908700	0.730300
C791	C79	0.078700	0.859300	0.799100
C801	C80	0.327000	0.094100	0.799600
C811	C81	0.571900	0.274900	0.536500
C821	C82	0.647700	0.349800	0.488300
H531	H53	0.703400	0.356100	0.468200
C831	C83	0.555700	0.904300	0.663700
H541	H54	0.502400	0.930600	0.649600
C841	C84	0.026500	0.149700	0.780700
H551	H55	0.077600	0.184800	0.786400
C851	C85	0.620700	0.080800	0.667800
H561	H56	0.584100	0.043300	0.656300
C861	C86	0.144800	0.073900	0.824700
H571	H57	0.125600	0.035300	0.842300
C871	C87	0.756100	0.126700	0.715000
C881	C88	0.487600	0.324300	0.548000
H581	H58	0.432000	0.317000	0.568000
C891	C89	0.851200	0.114100	0.749300
C901	C90	0.740300	0.850200	0.663800
C911	C91	0.027200	0.961800	0.692600
H591	H59	0.004600	0.920900	0.704400
C921	C92	0.809100	0.765000	0.852800
C931	C93	0.895700	0.790000	0.878000
H601	H60	0.890600	0.784400	0.906200
C941	C94	0.989800	0.823200	0.861100
H611	H61	0.047800	0.839900	0.877900
C951	C95	0.997300	0.831500	0.818900
C961	C96	0.910700	0.806600	0.793700
H621	H62	0.915700	0.812100	0.765500
C971	C97	0.816600	0.773300	0.810700
H631	H63	0.758600	0.756700	0.793800
C981	C98	0.859800	0.055500	0.768900
H641	H64	0.803100	0.022800	0.764800
C991	C99	0.578700	0.402200	0.496900
C1001	C100	0.736400	0.185700	0.701600
H651	H65	0.772800	0.223400	0.712900
C1011	C101	0.723900	0.226200	0.498500
H661	H66	0.720300	0.210300	0.470400
H671	H67	0.803100	0.235300	0.506000
C1021	C102	0.654500	0.881900	0.644300
H681	H68	0.661700	0.889300	0.616300
C1031	C103	0.961200	0.990600	0.663600
H691	H69	0.896400	0.966900	0.655000
C1041	C104	0.697600	0.274900	0.899300
H701	H70	0.700600	0.284800	0.927100
C1051	C105	0.600800	0.243600	0.882900
H711	H71	0.539000	0.232600	0.899700
C1061	C106	0.596300	0.228800	0.841300
C1071	C107	0.688600	0.245200	0.816200
H721	H72	0.685700	0.235200	0.788400
C1081	C108	0.785500	0.276400	0.832600
H731	H73	0.847200	0.287400	0.815700
N91	N9	0.789900	0.291300	0.874100
C1091	C109	0.726800	0.831000	0.701200
H741	H74	0.781700	0.803000	0.713300
C1101	C110	0.953900	0.039900	0.796700
H751	H75	0.958000	0.999500	0.811500
C1111	C111	0.499000	0.300000	0.042800
C1121	C112	0.534000	0.528200	0.497600
H761	H76	0.507500	0.527400	0.524400
C1131	C113	0.433400	0.094300	0.777200
H771	H77	0.445900	0.067900	0.754000
C1141	C114	0.644900	0.480700	0.440200
H781	H78	0.690700	0.447600	0.428000
C1151	C115	0.620900	0.853500	0.726200
H791	H79	0.617100	0.844600	0.754200
C1161	C116	0.502600	0.182600	0.826100
C1171	C117	0.039900	0.091800	0.799400
C1181	C118	0.513900	0.136800	0.793100
H801	H80	0.585800	0.135500	0.780600
C1191	C119	0.524300	0.358200	0.013900
C1201	C120	0.587900	0.411900	0.029800
H811	H81	0.621500	0.408100	0.055500
C1211	C121	0.601400	0.471300	0.007300
H821	H82	0.644000	0.507200	0.017900
C1221	C122	0.551200	0.477000	0.968800
C1231	C123	0.487600	0.423300	0.952900
H831	H83	0.454000	0.427100	0.927200
C1241	C124	0.474100	0.363900	0.975500
H841	H84	0.431500	0.328000	0.964800
C1251	C125	0.851800	0.832800	0.641700
C1261	C126	0.531000	0.585500	0.473600
H851	H85	0.486400	0.621800	0.482900
C1271	C127	0.901000	0.152500	0.611800
H861	H86	0.947600	0.178900	0.628500
C1281	C128	0.902400	0.082000	0.615400
C1291	C129	0.832600	0.042500	0.590300
H871	H87	0.833500	0.995400	0.592700
C1301	C130	0.761400	0.073500	0.561700
H881	H88	0.714700	0.047000	0.544900
C1311	C131	0.760000	0.143900	0.558100
C1321	C132	0.829800	0.183400	0.583100
H891	H89	0.828800	0.230500	0.580700
C1331	C133	0.197500	0.127700	0.850000
H901	H90	0.206000	0.112700	0.878100
H911	H91	0.151300	0.168700	0.849500
C1341	C134	0.668500	0.179700	0.526600
H921	H92	0.632300	0.143600	0.510400
C1351	C135	0.396100	0.186600	0.845800
H931	H93	0.380900	0.217100	0.866900
C1361	C136	0.936700	0.161400	0.751900
H941	H94	0.936400	0.199900	0.735400
C1371	C137	0.981500	0.049000	0.646700
C1381	C138	0.078700	0.080500	0.659700
H951	H95	0.099200	0.122300	0.648600
C1391	C139	0.149500	0.050300	0.690100
H961	H96	0.214300	0.073100	0.699600
Cd41	Cd4	0.525950	0.658100	0.901760
Cd51	Cd5	0.464290	0.193570	0.095220
Cd61	Cd6	0.235590	0.953350	0.759840
N101	N10	0.596200	0.144300	0.653400
N111	N11	0.581000	0.212100	0.549800
N121	N12	0.237000	0.051600	0.794600
N131	N13	0.642700	0.289700	0.506200
N141	N14	0.312900	0.139700	0.830700
N151	N15	0.123900	0.991200	0.704600
N161	N16	0.585900	0.593200	0.437600
O131	O13	0.855800	0.848700	0.605200
O141	O14	0.928000	0.804200	0.659000
O151	O15	0.530000	0.540600	0.909600
O161	O16	0.407100	0.883000	0.759700
O171	O17	0.150800	0.904700	0.817900
O181	O18	0.108900	0.862700	0.762600
O191	O19	0.377300	0.951900	0.714300
O201	O20	0.595000	0.590900	0.960300
O211	O21	0.514000	0.300900	0.078400
O221	O22	0.446000	0.251500	0.027000
C1401	C140	0.716100	0.734900	0.869500
O231	O23	0.703700	0.718600	0.904100
O241	O24	0.627300	0.723200	0.851800
C1411	C141	0.059800	0.962200	0.058300
C1421	C142	0.085800	0.034600	0.523700
C1431	C143	0.998300	0.114100	0.474400
H971	H97	0.943800	0.080700	0.468700
C1441	C144	0.200500	0.428700	0.300300
H981	H98	0.214900	0.471900	0.289900
C1451	C145	0.136600	0.956300	0.577800
H991	H99	0.171200	0.950300	0.603200
C1461	C146	0.035200	0.614300	0.292300
C1471	C147	0.158000	0.307300	0.330600
H1001	H100	0.149900	0.264000	0.341700
C1481	C148	0.934600	0.591300	0.269700
C1491	C149	0.578700	0.640700	0.200900
C1501	C150	0.827000	0.405900	0.200400
C1511	C151	0.071900	0.225100	0.463500
C1521	C152	0.147700	0.150200	0.511700
H1011	H101	0.203400	0.143900	0.531800
C1531	C153	0.055700	0.595700	0.336300
H1021	H102	0.002400	0.569400	0.350400
C1541	C154	0.526500	0.350300	0.219300
H1031	H103	0.577600	0.315200	0.213600
C1551	C155	0.120700	0.419200	0.332200
H1041	H104	0.084100	0.456700	0.343700
C1561	C156	0.644800	0.426100	0.175300
H1051	H105	0.625600	0.464700	0.157700
C1571	C157	0.256100	0.373300	0.285000
C1581	C158	0.987600	0.175700	0.452000
H1061	H106	0.932000	0.183000	0.432000
C1591	C159	0.351200	0.385900	0.250700
C1601	C160	0.240300	0.649800	0.336200
C1611	C161	0.527200	0.538200	0.307400
H1071	H107	0.504600	0.579100	0.295600
C1621	C162	0.309100	0.735000	0.147200
C1631	C163	0.395700	0.710000	0.122000
H1081	H108	0.390600	0.715600	0.093800
C1641	C164	0.489800	0.676800	0.138900
H1091	H109	0.547800	0.660100	0.122100
C1651	C165	0.497300	0.668500	0.181100
C1661	C166	0.410700	0.693400	0.206300
H1101	H110	0.415700	0.687900	0.234500
C1671	C167	0.316600	0.726700	0.189300
H1111	H111	0.258600	0.743300	0.206200
C1681	C168	0.359800	0.444500	0.231100
H1121	H112	0.303100	0.477200	0.235200
C1691	C169	0.078700	0.097800	0.503100
C1701	C170	0.236400	0.314300	0.298400
H1131	H113	0.272800	0.276600	0.287100
C1711	C171	0.223900	0.273800	0.501500
H1141	H114	0.220300	0.289700	0.529600
H1151	H115	0.303100	0.264700	0.494000
C1721	C172	0.154500	0.618100	0.355700
H1161	H116	0.161700	0.610700	0.383700
C1731	C173	0.461200	0.509400	0.336400
H1171	H117	0.396400	0.533100	0.345000
C1741	C174	0.197600	0.225100	0.100700
H1181	H118	0.200600	0.215200	0.072900
C1751	C175	0.100800	0.256400	0.117100
H1191	H119	0.039000	0.267400	0.100300
C1761	C176	0.096300	0.271200	0.158700
C1771	C177	0.188600	0.254800	0.183800
H1201	H120	0.185700	0.264800	0.211600
C1781	C178	0.285500	0.223600	0.167400
H1211	H121	0.347200	0.212600	0.184300
N171	N17	0.289900	0.208700	0.125900
C1791	C179	0.226800	0.669000	0.298800
H1221	H122	0.281700	0.697000	0.286700
C1801	C180	0.453900	0.460100	0.203300
H1231	H123	0.458000	0.500500	0.188500
C1811	C181	0.999000	0.200000	0.957200
C1821	C182	0.034000	0.971800	0.502400
H1241	H124	0.007500	0.972600	0.475600
C1831	C183	0.933400	0.405700	0.222800
H1251	H125	0.945900	0.432100	0.246000
C1841	C184	0.144900	0.019300	0.559800
H1261	H126	0.190700	0.052400	0.572000
C1851	C185	0.120900	0.646500	0.273800
H1271	H127	0.117100	0.655400	0.245800
C1861	C186	0.002600	0.317400	0.173900
C1871	C187	0.539900	0.408200	0.200600
C1881	C188	0.013900	0.363200	0.206900
H1281	H128	0.085800	0.364500	0.219400
C1891	C189	0.024300	0.141800	0.986100
C1901	C190	0.087900	0.088100	0.970200
H1291	H129	0.121500	0.091900	0.944500
C1911	C191	0.101400	0.028700	0.992700
H1301	H130	0.144000	0.992800	0.982100
C1921	C192	0.051200	0.023000	0.031200
C1931	C193	0.987600	0.076700	0.047100
H1311	H131	0.954000	0.072900	0.072800
C1941	C194	0.974100	0.136100	0.024500
H1321	H132	0.931500	0.172000	0.035200
C1951	C195	0.351800	0.667200	0.358300
C1961	C196	0.031000	0.914500	0.526400
H1331	H133	0.986400	0.878200	0.517100
C1971	C197	0.401000	0.347500	0.388200
H1341	H134	0.447600	0.321100	0.371500
C1981	C198	0.402400	0.418000	0.384600
C1991	C199	0.332600	0.457500	0.409700
H1351	H135	0.333500	0.504600	0.407300
C2001	C200	0.261400	0.426500	0.438300
H1361	H136	0.214700	0.453000	0.455100
C2011	C201	0.260000	0.356100	0.441900
C2021	C202	0.329800	0.316600	0.416900
H1371	H137	0.328800	0.269500	0.419300
C2031	C203	0.697500	0.372300	0.150000
H1381	H138	0.706000	0.387300	0.121900
H1391	H139	0.651300	0.331300	0.150500
C2041	C204	0.168500	0.320300	0.473400
H1401	H140	0.132300	0.356400	0.489600
C2051	C205	0.896100	0.313400	0.154200
H1411	H141	0.880900	0.282900	0.133100
C2061	C206	0.436700	0.338600	0.248100
H1421	H142	0.436400	0.300100	0.264600
C2071	C207	0.481500	0.451000	0.353300
C2081	C208	0.578700	0.419500	0.340300
H1431	H143	0.599200	0.377700	0.351400
C2091	C209	0.649500	0.449700	0.309900
H1441	H144	0.714300	0.426900	0.300400
Cd71	Cd7	0.025950	0.841900	0.098240
Cd81	Cd8	0.964290	0.306430	0.904780
Cd91	Cd9	0.735590	0.546650	0.240160
N181	N18	0.096200	0.355700	0.346600
N191	N19	0.081000	0.287900	0.450200
N201	N20	0.737000	0.448400	0.205400
N211	N21	0.142700	0.210300	0.493800
N221	N22	0.812900	0.360300	0.169300
N231	N23	0.623900	0.508800	0.295400
N241	N24	0.085900	0.906800	0.562400
O251	O25	0.355800	0.651300	0.394800
O261	O26	0.428000	0.695800	0.341000
O271	O27	0.030000	0.959400	0.090400
O281	O28	0.907100	0.617000	0.240300
O291	O29	0.650800	0.595300	0.182100
O301	O30	0.608900	0.637300	0.237400
O311	O31	0.877300	0.548100	0.285700
O321	O32	0.095000	0.909100	0.039700
O331	O33	0.014000	0.199100	0.921600
O341	O34	0.946000	0.248500	0.973000
C2101	C210	0.216100	0.765100	0.130500
O351	O35	0.203700	0.781400	0.095900
O361	O36	0.127300	0.776800	0.148200
C2111	C211	0.440200	0.037800	0.558300
C2121	C212	0.414200	0.965400	0.023700
C2131	C213	0.501700	0.885900	0.974400
H1451	H145	0.556200	0.919300	0.968700
C2141	C214	0.299500	0.571300	0.800300
H1461	H146	0.285100	0.528100	0.789900
C2151	C215	0.363400	0.043700	0.077800
H1471	H147	0.328800	0.049700	0.103200
C2161	C216	0.464800	0.385700	0.792300
C2171	C217	0.342000	0.692700	0.830600
H1481	H148	0.350100	0.736000	0.841700
C2181	C218	0.565400	0.408700	0.769700
C2191	C219	0.921300	0.359300	0.700900
C2201	C220	0.673000	0.594100	0.700400
C2211	C221	0.428100	0.774900	0.963500
C2221	C222	0.352300	0.849800	0.011700
H1491	H149	0.296600	0.856100	0.031800
C2231	C223	0.444300	0.404300	0.836300
H1501	H150	0.497600	0.430600	0.850400
C2241	C224	0.973500	0.649700	0.719300
H1511	H151	0.922400	0.684800	0.713600
C2251	C225	0.379300	0.580800	0.832200
H1521	H152	0.415900	0.543300	0.843700
C2261	C226	0.855200	0.573900	0.675300
H1531	H153	0.874400	0.535300	0.657700
C2271	C227	0.243900	0.626700	0.785000
C2281	C228	0.512400	0.824300	0.952000
H1541	H154	0.568000	0.817000	0.932000
C2291	C229	0.148800	0.614100	0.750700
C2301	C230	0.259700	0.350200	0.836200
C2311	C231	0.972800	0.461800	0.807400
H1551	H155	0.995400	0.420900	0.795600
C2321	C232	0.190900	0.265000	0.647200
C2331	C233	0.104300	0.290000	0.622000
H1561	H156	0.109400	0.284400	0.593800
C2341	C234	0.010200	0.323200	0.638900
H1571	H157	0.952200	0.339900	0.622100
C2351	C235	0.002700	0.331500	0.681100
C2361	C236	0.089300	0.306600	0.706300
H1581	H158	0.084300	0.312100	0.734500
C2371	C237	0.183400	0.273300	0.689300
H1591	H159	0.241400	0.256700	0.706200
C2381	C238	0.140200	0.555500	0.731100
H1601	H160	0.196900	0.522800	0.735200
C2391	C239	0.421300	0.902200	0.003100
C2401	C240	0.263600	0.685700	0.798400
H1611	H161	0.227200	0.723400	0.787100
C2411	C241	0.276100	0.726200	0.001500
H1621	H162	0.279700	0.710300	0.029600
H1631	H163	0.196900	0.735300	0.994000
C2421	C242	0.345500	0.381900	0.855700
H1641	H164	0.338300	0.389300	0.883700
C2431	C243	0.038800	0.490600	0.836400
H1651	H165	0.103600	0.466900	0.845000
C2441	C244	0.302400	0.774900	0.600700
H1661	H166	0.299400	0.784800	0.572900
C2451	C245	0.399200	0.743600	0.617100
H1671	H167	0.461000	0.732600	0.600300
C2461	C246	0.403700	0.728800	0.658700
C2471	C247	0.311400	0.745200	0.683800
H1681	H168	0.314300	0.735200	0.711600
C2481	C248	0.214500	0.776400	0.667400
H1691	H169	0.152800	0.787400	0.684300
N251	N25	0.210100	0.791300	0.625900
C2491	C249	0.273200	0.331000	0.798800
H1701	H170	0.218300	0.303000	0.786700
C2501	C250	0.046100	0.539900	0.703300
H1711	H171	0.042000	0.499500	0.688500
C2511	C251	0.501000	0.800000	0.457200
C2521	C252	0.466000	0.028200	0.002400
H1721	H172	0.492500	0.027400	0.975600
C2531	C253	0.566600	0.594300	0.722800
H1731	H173	0.554100	0.567900	0.746000
C2541	C254	0.355100	0.980700	0.059800
H1741	H174	0.309300	0.947600	0.072000
C2551	C255	0.379100	0.353500	0.773800
H1751	H175	0.382900	0.344600	0.745800
C2561	C256	0.497400	0.682600	0.673900
C2571	C257	0.960100	0.591800	0.700600
C2581	C258	0.486100	0.636800	0.706900
H1761	H176	0.414200	0.635500	0.719400
C2591	C259	0.475700	0.858200	0.486100
C2601	C260	0.412100	0.911900	0.470200
H1771	H177	0.378500	0.908100	0.444500
C2611	C261	0.398600	0.971300	0.492700
H1781	H178	0.356000	0.007200	0.482100
C2621	C262	0.448800	0.977000	0.531200
C2631	C263	0.512400	0.923300	0.547100
H1791	H179	0.546000	0.927100	0.572800
C2641	C264	0.525900	0.863900	0.524500
H1801	H180	0.568500	0.828000	0.535200
C2651	C265	0.148200	0.332800	0.858300
C2661	C266	0.469000	0.085500	0.026400
H1811	H181	0.513600	0.121800	0.017100
C2671	C267	0.099000	0.652500	0.888200
H1821	H182	0.052400	0.678900	0.871500
C2681	C268	0.097600	0.582000	0.884600
C2691	C269	0.167400	0.542500	0.909700
H1831	H183	0.166500	0.495400	0.907300
C2701	C270	0.238600	0.573500	0.938300
H1841	H184	0.285300	0.547000	0.955100
C2711	C271	0.240000	0.643900	0.941900
C2721	C272	0.170200	0.683400	0.916900
H1851	H185	0.171200	0.730500	0.919300
C2731	C273	0.802500	0.627700	0.650000
H1861	H186	0.794000	0.612700	0.621900
H1871	H187	0.848700	0.668700	0.650500
C2741	C274	0.331500	0.679700	0.973400
H1881	H188	0.367700	0.643600	0.989600
C2751	C275	0.603900	0.686600	0.654200
H1891	H189	0.619100	0.717100	0.633100
C2761	C276	0.063300	0.661400	0.748100
H1901	H190	0.063600	0.699900	0.764600
C2771	C277	0.018500	0.549000	0.853300
C2781	C278	0.921300	0.580500	0.840300
H1911	H191	0.900800	0.622300	0.851400
C2791	C279	0.850500	0.550300	0.809900
H1921	H192	0.785700	0.573100	0.800400
Cd101	Cd10	0.474050	0.158100	0.598240
Cd111	Cd11	0.535710	0.693570	0.404780
Cd121	Cd12	0.764410	0.453350	0.740160
N261	N26	0.403800	0.644300	0.846600
N271	N27	0.419000	0.712100	0.950200
N281	N28	0.763000	0.551600	0.705400
N291	N29	0.357300	0.789700	0.993800
N301	N30	0.687100	0.639700	0.669300
N311	N31	0.876100	0.491200	0.795400
N321	N32	0.414100	0.093200	0.062400
O371	O37	0.144200	0.348700	0.894800
O381	O38	0.072000	0.304200	0.841000
O391	O39	0.470000	0.040600	0.590400
O401	O40	0.592900	0.383000	0.740300
O411	O41	0.849200	0.404700	0.682100
O421	O42	0.891100	0.362700	0.737400
O431	O43	0.622700	0.451900	0.785700
O441	O44	0.405000	0.090900	0.539700
O451	O45	0.486000	0.800900	0.421600
O461	O46	0.554000	0.751500	0.473000
C2801	C280	0.283900	0.234900	0.630500
O471	O47	0.296300	0.218600	0.595900
O481	O48	0.372700	0.223200	0.648200
