data_acs_PM
_symmetry_space_group_name_H-M	'P1'
_cell_length_a	10.796100
_cell_length_b	8.795000
_cell_length_c	25.174800
_cell_angle_alpha	90.000000
_cell_angle_beta	98.811000
_cell_angle_gamma	90.000000
_symmetry_Int_Tables_number 1

loop_
_symmetry_equiv_pos_as_xyz
'x,y,z'

loop_
_atom_site_label
_atom_site_type_symbol
_atom_site_fract_x
_atom_site_fract_y
_atom_site_fract_z
Cu11	Cu1	0.838610	0.219050	0.263360
O11	O1	0.009500	0.177900	0.251960
N11	N1	0.772800	0.180800	0.185470
O21	O2	0.034700	0.996600	0.314560
N21	N2	0.502400	0.928100	0.359020
O31	O3	0.608100	0.974000	0.373320
N31	N3	0.399000	0.235000	0.841590
N41	N4	0.631400	0.135100	0.021220
C11	C1	0.421700	0.010400	0.316960
C21	C2	0.212600	0.084500	0.280010
C31	C3	0.473700	0.089800	0.277750
C41	C4	0.624900	0.254900	0.110190
H11	H1	0.557300	0.315500	0.096000
C51	C5	0.675600	0.265900	0.163020
H21	H2	0.641300	0.335500	0.184500
O41	O4	0.458500	0.813500	0.377450
C61	C6	0.675300	0.152700	0.078330
C71	C7	0.773400	0.062500	0.100510
H31	H3	0.808200	0.991900	0.079600
C81	C8	0.501300	0.215900	0.948860
C91	C9	0.261400	0.161000	0.240060
H41	H4	0.207400	0.210500	0.213300
C101	C10	0.390400	0.165700	0.239030
H51	H5	0.420900	0.220100	0.212100
C111	C11	0.295300	0.007200	0.318390
H61	H6	0.264700	0.952900	0.345300
C121	C12	0.074200	0.082600	0.283180
C131	C13	0.819800	0.078700	0.154720
H71	H7	0.885400	0.016700	0.170100
C141	C14	0.549900	0.128500	0.911050
H81	H8	0.616600	0.062500	0.921300
N51	N5	0.549100	0.223900	0.004960
C151	C15	0.496200	0.142300	0.857570
H91	H9	0.528900	0.085300	0.831900
C161	C16	0.352500	0.315600	0.878830
H101	H10	0.283700	0.378000	0.868100
C171	C17	0.401900	0.310300	0.932150
H111	H11	0.368300	0.370200	0.956900
O51	O5	0.659900	0.972800	0.260150
C181	C18	0.610900	0.090700	0.272780
O61	O6	0.664300	0.219000	0.279460
Cu21	Cu2	0.661390	0.719050	0.236640
O71	O7	0.490500	0.677900	0.248040
N61	N6	0.727200	0.680800	0.314530
O81	O8	0.465300	0.496600	0.185440
N71	N7	0.997600	0.428100	0.140980
O91	O9	0.891900	0.474000	0.126680
N81	N8	0.101000	0.735000	0.658410
N91	N9	0.868600	0.635100	0.478780
C191	C19	0.078300	0.510400	0.183040
C201	C20	0.287400	0.584500	0.219990
C211	C21	0.026300	0.589800	0.222250
C221	C22	0.875100	0.754900	0.389810
H121	H12	0.942700	0.815500	0.404000
C231	C23	0.824400	0.765900	0.336980
H131	H13	0.858700	0.835500	0.315500
O101	O10	0.041500	0.313500	0.122550
C241	C24	0.824700	0.652700	0.421670
C251	C25	0.726600	0.562500	0.399490
H141	H14	0.691800	0.491900	0.420400
C261	C26	0.998700	0.715900	0.551140
C271	C27	0.238600	0.661000	0.259940
H151	H15	0.292600	0.710500	0.286700
C281	C28	0.109600	0.665700	0.260970
H161	H16	0.079100	0.720100	0.287900
C291	C29	0.204700	0.507200	0.181610
H171	H17	0.235300	0.452900	0.154700
C301	C30	0.425800	0.582600	0.216820
C311	C31	0.680200	0.578700	0.345280
H181	H18	0.614600	0.516700	0.329900
C321	C32	0.950100	0.628500	0.588950
H191	H19	0.883400	0.562500	0.578700
N101	N10	0.950900	0.723900	0.495040
C331	C33	0.003800	0.642300	0.642430
H201	H20	0.971100	0.585300	0.668100
C341	C34	0.147500	0.815600	0.621170
H211	H21	0.216300	0.878000	0.631900
C351	C35	0.098100	0.810300	0.567850
H221	H22	0.131700	0.870200	0.543100
O111	O11	0.840100	0.472800	0.239850
C361	C36	0.889100	0.590700	0.227220
O121	O12	0.835700	0.719000	0.220540
Cu31	Cu3	0.161390	0.780950	0.736640
O131	O13	0.990500	0.822100	0.748040
N111	N11	0.227200	0.819200	0.814530
O141	O14	0.965300	0.003400	0.685440
N121	N12	0.497600	0.071900	0.640980
O151	O15	0.391900	0.026000	0.626680
N131	N13	0.601000	0.765000	0.158410
N141	N14	0.368600	0.864900	0.978780
C371	C37	0.578300	0.989600	0.683040
C381	C38	0.787400	0.915500	0.719990
C391	C39	0.526300	0.910200	0.722250
C401	C40	0.375100	0.745100	0.889810
H231	H23	0.442700	0.684500	0.904000
C411	C41	0.324400	0.734100	0.836980
H241	H24	0.358700	0.664500	0.815500
O161	O16	0.541500	0.186500	0.622550
C421	C42	0.324700	0.847300	0.921670
C431	C43	0.226600	0.937500	0.899490
H251	H25	0.191800	0.008100	0.920400
C441	C44	0.498700	0.784100	0.051140
C451	C45	0.738600	0.839000	0.759940
H261	H26	0.792600	0.789500	0.786700
C461	C46	0.609600	0.834300	0.760970
H271	H27	0.579100	0.779900	0.787900
C471	C47	0.704700	0.992800	0.681610
H281	H28	0.735300	0.047100	0.654700
C481	C48	0.925800	0.917400	0.716820
C491	C49	0.180200	0.921300	0.845280
H291	H29	0.114600	0.983300	0.829900
C501	C50	0.450100	0.871500	0.088950
H301	H30	0.383400	0.937500	0.078700
N151	N15	0.450900	0.776100	0.995040
C511	C51	0.503800	0.857700	0.142430
H311	H31	0.471100	0.914700	0.168100
C521	C52	0.647500	0.684400	0.121170
H321	H32	0.716300	0.622000	0.131900
C531	C53	0.598100	0.689700	0.067850
H331	H33	0.631700	0.629800	0.043100
O171	O17	0.340100	0.027200	0.739850
C541	C54	0.389100	0.909300	0.727220
O181	O18	0.335700	0.781000	0.720540
Cu41	Cu4	0.338610	0.280950	0.763360
O191	O19	0.509500	0.322100	0.751960
N161	N16	0.272800	0.319200	0.685470
O201	O20	0.534700	0.503400	0.814560
N171	N17	0.002400	0.571900	0.859020
O211	O21	0.108100	0.526000	0.873320
N181	N18	0.899000	0.265000	0.341590
N191	N19	0.131400	0.364900	0.521220
C551	C55	0.921700	0.489600	0.816960
C561	C56	0.712600	0.415500	0.780010
C571	C57	0.973700	0.410200	0.777750
C581	C58	0.124900	0.245100	0.610190
H341	H34	0.057300	0.184500	0.596000
C591	C59	0.175600	0.234100	0.663020
H351	H35	0.141300	0.164500	0.684500
O221	O22	0.958500	0.686500	0.877450
C601	C60	0.175300	0.347300	0.578330
C611	C61	0.273400	0.437500	0.600510
H361	H36	0.308200	0.508100	0.579600
C621	C62	0.001300	0.284100	0.448860
C631	C63	0.761400	0.339000	0.740060
H371	H37	0.707400	0.289500	0.713300
C641	C64	0.890400	0.334300	0.739030
H381	H38	0.920900	0.279900	0.712100
C651	C65	0.795300	0.492800	0.818390
H391	H39	0.764700	0.547100	0.845300
C661	C66	0.574200	0.417400	0.783180
C671	C67	0.319800	0.421300	0.654720
H401	H40	0.385400	0.483300	0.670100
C681	C68	0.049900	0.371500	0.411050
H411	H41	0.116600	0.437500	0.421300
N201	N20	0.049100	0.276100	0.504960
C691	C69	0.996200	0.357700	0.357570
H421	H42	0.028900	0.414700	0.331900
C701	C70	0.852500	0.184400	0.378830
H431	H43	0.783700	0.122000	0.368100
C711	C71	0.901900	0.189700	0.432150
H441	H44	0.868300	0.129800	0.456900
O231	O23	0.159900	0.527200	0.760150
C721	C72	0.110900	0.409300	0.772780
O241	O24	0.164300	0.281000	0.779460
