data_acscombsci_PM
_symmetry_space_group_name_H-M	'P1'
_cell_length_a	8.597400
_cell_length_b	10.654600
_cell_length_c	7.681500
_cell_angle_alpha	84.205000
_cell_angle_beta	103.475000
_cell_angle_gamma	84.909900
_symmetry_Int_Tables_number 1

loop_
_symmetry_equiv_pos_as_xyz
'x,y,z'

loop_
_atom_site_label
_atom_site_type_symbol
_atom_site_fract_x
_atom_site_fract_y
_atom_site_fract_z
O11	O1	0.101760	0.173660	0.172450
O21	O2	0.637920	0.193670	0.102080
O31	O3	0.880510	0.000850	0.138880
O41	O4	0.859180	0.366480	0.135650
O51	O5	0.910360	0.977070	0.436270
O61	O6	0.667780	0.169880	0.399470
O71	O7	0.131620	0.149870	0.469840
Zn11	Zn1	0.904440	0.156100	0.481870
Zn21	Zn2	0.865100	0.187440	0.090050
O81	O8	0.889040	0.342690	0.433040
C11	C1	0.593460	0.180950	0.241760
C21	C2	0.416490	0.178490	0.214910
C31	C3	0.893870	0.942170	0.287330
C41	C4	0.889180	0.802760	0.286610
C51	C5	0.870710	0.750230	0.124180
C61	C6	0.866290	0.619240	0.123510
C71	C7	0.898830	0.593320	0.447740
C81	C8	0.903230	0.724310	0.448400
C91	C9	0.856650	0.828680	0.962390
C101	C10	0.838180	0.776150	0.799940
C111	C11	0.833760	0.645160	0.799280
C121	C12	0.847820	0.566700	0.961070
C131	C13	0.176080	0.162590	0.330150
C141	C14	0.353050	0.165060	0.356990
C151	C15	0.875670	0.401370	0.284580
C161	C16	0.880360	0.540780	0.285290
N11	N1	0.931300	0.134710	0.749280
N21	N2	0.838260	0.208820	0.822640
H11	H1	0.860250	0.935340	0.962910
H21	H2	0.434140	0.155450	0.499200
H31	H3	0.026300	0.059070	0.838900
H41	H4	0.335410	0.188080	0.072720
C171	C17	0.822720	0.862460	0.621980
N31	N3	0.811070	0.927460	0.487940
H51	H5	0.910280	0.529430	0.579460
H61	H6	0.818710	0.602400	0.667000
H71	H7	0.844200	0.460040	0.960510
H81	H8	0.918240	0.767090	0.580660
H91	H9	0.743280	0.284460	0.733040
