data_ACUTOI_freeONLY_PM
_symmetry_space_group_name_H-M	'P1'
_cell_length_a	7.082200
_cell_length_b	20.720000
_cell_length_c	22.878000
_cell_angle_alpha	90.000000
_cell_angle_beta	90.000000
_cell_angle_gamma	90.000000
_symmetry_Int_Tables_number 1

loop_
_symmetry_equiv_pos_as_xyz
'x,y,z'

loop_
_atom_site_label
_atom_site_type_symbol
_atom_site_fract_x
_atom_site_fract_y
_atom_site_fract_z
Na11	Na1	0.826400	0.544170	0.950410
Na21	Na2	0.673600	0.955830	0.450410
Na31	Na3	0.826400	0.455830	0.549590
Na41	Na4	0.673600	0.044170	0.049590
Na51	Na5	0.173600	0.455830	0.049590
Na61	Na6	0.326400	0.044170	0.549590
Na71	Na7	0.173600	0.544170	0.450410
Na81	Na8	0.326400	0.955830	0.950410
Cd11	Cd1	0.779420	0.040320	0.903100
Cd21	Cd2	0.720580	0.459680	0.403100
Cd31	Cd3	0.779420	0.959680	0.596900
Cd41	Cd4	0.720580	0.540320	0.096900
Cd51	Cd5	0.220580	0.959680	0.096900
Cd61	Cd6	0.279420	0.540320	0.596900
Cd71	Cd7	0.220580	0.040320	0.403100
Cd81	Cd8	0.279420	0.459680	0.903100
H11	H1	0.780900	0.276300	0.890200
H21	H2	0.737100	0.205100	0.052000
H31	H3	0.710700	0.308400	0.088700
H41	H4	0.030100	0.979300	0.804800
H51	H5	0.019700	0.051900	0.785800
H61	H6	0.548100	0.952300	0.809500
H71	H7	0.746100	0.918600	0.814300
H81	H8	0.732200	0.103400	0.778800
H91	H9	0.542000	0.065300	0.784500
H101	H10	0.719100	0.223700	0.390200
H111	H11	0.762900	0.294900	0.552000
H121	H12	0.789300	0.191600	0.588700
H131	H13	0.469900	0.520700	0.304800
H141	H14	0.480300	0.448100	0.285800
H151	H15	0.951900	0.547700	0.309500
H161	H16	0.753900	0.581400	0.314300
H171	H17	0.767800	0.396600	0.278800
H181	H18	0.958000	0.434700	0.284500
H191	H19	0.780900	0.723700	0.609800
H201	H20	0.737100	0.794900	0.448000
H211	H21	0.710700	0.691600	0.411300
H221	H22	0.030100	0.020700	0.695200
H231	H23	0.019700	0.948100	0.714200
H241	H24	0.548100	0.047700	0.690500
H251	H25	0.746100	0.081400	0.685700
H261	H26	0.732200	0.896600	0.721200
H271	H27	0.542000	0.934700	0.715500
H281	H28	0.719100	0.776300	0.109800
H291	H29	0.762900	0.705100	0.948000
H301	H30	0.789300	0.808400	0.911300
H311	H31	0.469900	0.479300	0.195200
H321	H32	0.480300	0.551900	0.214200
H331	H33	0.951900	0.452300	0.190500
H341	H34	0.753900	0.418600	0.185700
H351	H35	0.767800	0.603400	0.221200
H361	H36	0.958000	0.565300	0.215500
H371	H37	0.219100	0.723700	0.109800
H381	H38	0.262900	0.794900	0.948000
H391	H39	0.289300	0.691600	0.911300
H401	H40	0.969900	0.020700	0.195200
H411	H41	0.980300	0.948100	0.214200
H421	H42	0.451900	0.047700	0.190500
H431	H43	0.253900	0.081400	0.185700
H441	H44	0.267800	0.896600	0.221200
H451	H45	0.458000	0.934700	0.215500
H461	H46	0.280900	0.776300	0.609800
H471	H47	0.237100	0.705100	0.448000
H481	H48	0.210700	0.808400	0.411300
H491	H49	0.530100	0.479300	0.695200
H501	H50	0.519700	0.551900	0.714200
H511	H51	0.048100	0.452300	0.690500
H521	H52	0.246100	0.418600	0.685700
H531	H53	0.232200	0.603400	0.721200
H541	H54	0.042000	0.565300	0.715500
H551	H55	0.219100	0.276300	0.390200
H561	H56	0.262900	0.205100	0.552000
H571	H57	0.289300	0.308400	0.588700
H581	H58	0.969900	0.979300	0.304800
H591	H59	0.980300	0.051900	0.285800
H601	H60	0.451900	0.952300	0.309500
H611	H61	0.253900	0.918600	0.314300
H621	H62	0.267800	0.103400	0.278800
H631	H63	0.458000	0.065300	0.284500
H641	H64	0.280900	0.223700	0.890200
H651	H65	0.237100	0.294900	0.052000
H661	H66	0.210700	0.191600	0.088700
H671	H67	0.530100	0.520700	0.804800
H681	H68	0.519700	0.448100	0.785800
H691	H69	0.048100	0.547700	0.809500
H701	H70	0.246100	0.581400	0.814300
H711	H71	0.232200	0.396600	0.778800
H721	H72	0.042000	0.434700	0.784500
C11	C1	0.738200	0.356200	0.011700
C21	C2	0.769700	0.282900	0.930300
C31	C3	0.769400	0.162500	0.943200
C41	C4	0.761400	0.345300	0.951200
C51	C5	0.762000	0.229800	0.966900
C61	C6	0.741500	0.240200	0.026700
C71	C7	0.727400	0.302300	0.048700
C81	C8	0.720000	0.420200	0.041400
C91	C9	0.958300	0.010300	0.782100
C101	C10	0.676000	0.952200	0.794400
C111	C11	0.672000	0.062000	0.771800
C121	C12	0.761800	0.143800	0.511700
C131	C13	0.730300	0.217100	0.430300
C141	C14	0.730600	0.337500	0.443200
C151	C15	0.738600	0.154700	0.451200
C161	C16	0.738000	0.270200	0.466900
C171	C17	0.758500	0.259800	0.526700
C181	C18	0.772600	0.197700	0.548700
C191	C19	0.780000	0.079800	0.541400
C201	C20	0.541700	0.489700	0.282100
C211	C21	0.824000	0.547800	0.294400
C221	C22	0.828000	0.438000	0.271800
C231	C23	0.738200	0.643800	0.488300
C241	C24	0.769700	0.717100	0.569700
C251	C25	0.769400	0.837500	0.556800
C261	C26	0.761400	0.654700	0.548800
C271	C27	0.762000	0.770200	0.533100
C281	C28	0.741500	0.759800	0.473300
C291	C29	0.727400	0.697700	0.451300
C301	C30	0.720000	0.579800	0.458600
C311	C31	0.958300	0.989700	0.717900
C321	C32	0.676000	0.047800	0.705600
C331	C33	0.672000	0.938000	0.728200
C341	C34	0.761800	0.856200	0.988300
C351	C35	0.730300	0.782900	0.069700
C361	C36	0.730600	0.662500	0.056800
C371	C37	0.738600	0.845300	0.048800
C381	C38	0.738000	0.729800	0.033100
C391	C39	0.758500	0.740200	0.973300
C401	C40	0.772600	0.802300	0.951300
C411	C41	0.780000	0.920200	0.958600
C421	C42	0.541700	0.510300	0.217900
C431	C43	0.824000	0.452200	0.205600
C441	C44	0.828000	0.562000	0.228200
C451	C45	0.261800	0.643800	0.988300
C461	C46	0.230300	0.717100	0.069700
C471	C47	0.230600	0.837500	0.056800
C481	C48	0.238600	0.654700	0.048800
C491	C49	0.238000	0.770200	0.033100
C501	C50	0.258500	0.759800	0.973300
C511	C51	0.272600	0.697700	0.951300
C521	C52	0.280000	0.579800	0.958600
C531	C53	0.041700	0.989700	0.217900
C541	C54	0.324000	0.047800	0.205600
C551	C55	0.328000	0.938000	0.228200
C561	C56	0.238200	0.856200	0.488300
C571	C57	0.269700	0.782900	0.569700
C581	C58	0.269400	0.662500	0.556800
C591	C59	0.261400	0.845300	0.548800
C601	C60	0.262000	0.729800	0.533100
C611	C61	0.241500	0.740200	0.473300
C621	C62	0.227400	0.802300	0.451300
C631	C63	0.220000	0.920200	0.458600
C641	C64	0.458300	0.510300	0.717900
C651	C65	0.176000	0.452200	0.705600
C661	C66	0.172000	0.562000	0.728200
C671	C67	0.261800	0.356200	0.511700
C681	C68	0.230300	0.282900	0.430300
C691	C69	0.230600	0.162500	0.443200
C701	C70	0.238600	0.345300	0.451200
C711	C71	0.238000	0.229800	0.466900
C721	C72	0.258500	0.240200	0.526700
C731	C73	0.272600	0.302300	0.548700
C741	C74	0.280000	0.420200	0.541400
C751	C75	0.041700	0.010300	0.282100
C761	C76	0.324000	0.952200	0.294400
C771	C77	0.328000	0.062000	0.271800
C781	C78	0.238200	0.143800	0.011700
C791	C79	0.269700	0.217100	0.930300
C801	C80	0.269400	0.337500	0.943200
C811	C81	0.261400	0.154700	0.951200
C821	C82	0.262000	0.270200	0.966900
C831	C83	0.241500	0.259800	0.026700
C841	C84	0.227400	0.197700	0.048700
C851	C85	0.220000	0.079800	0.041400
C861	C86	0.458300	0.489700	0.782100
C871	C87	0.176000	0.547800	0.794400
C881	C88	0.172000	0.438000	0.771800
S11	S1	0.763300	0.409060	0.899040
S21	S2	0.736700	0.090940	0.399040
S31	S3	0.763300	0.590940	0.600960
S41	S4	0.736700	0.909060	0.100960
S51	S5	0.236700	0.590940	0.100960
S61	S6	0.263300	0.909060	0.600960
S71	S7	0.236700	0.409060	0.399040
S81	S8	0.263300	0.090940	0.899040
N11	N1	0.764000	0.014600	0.806000
N21	N2	0.736000	0.485400	0.306000
N31	N3	0.764000	0.985400	0.694000
N41	N4	0.736000	0.514600	0.194000
N51	N5	0.236000	0.985400	0.194000
N61	N6	0.264000	0.514600	0.694000
N71	N7	0.236000	0.014600	0.306000
N81	N8	0.264000	0.485400	0.806000
O11	O1	0.783900	0.154200	0.889700
O21	O2	0.939700	0.444900	0.904500
O31	O3	0.759900	0.116100	0.978400
O41	O4	0.828000	0.464200	0.030000
O51	O5	0.736500	0.378800	0.843800
O61	O6	0.609200	0.452800	0.915100
O71	O7	0.760200	0.609100	0.871400
O81	O8	0.594900	0.427200	0.081100
O91	O9	0.716100	0.345800	0.389700
O101	O10	0.560300	0.055100	0.404500
O111	O11	0.740100	0.383900	0.478400
O121	O12	0.672000	0.035800	0.530000
O131	O13	0.763500	0.121200	0.343800
O141	O14	0.890800	0.047200	0.415100
O151	O15	0.739800	0.890900	0.371400
O161	O16	0.905100	0.072800	0.581100
O171	O17	0.783900	0.845800	0.610300
O181	O18	0.939700	0.555100	0.595500
O191	O19	0.759900	0.883900	0.521600
O201	O20	0.828000	0.535800	0.470000
O211	O21	0.736500	0.621200	0.656200
O221	O22	0.609200	0.547200	0.584900
O231	O23	0.760200	0.390900	0.628600
O241	O24	0.594900	0.572800	0.418900
O251	O25	0.716100	0.654200	0.110300
O261	O26	0.560300	0.944900	0.095500
O271	O27	0.740100	0.616100	0.021600
O281	O28	0.672000	0.964200	0.970000
O291	O29	0.763500	0.878800	0.156200
O301	O30	0.890800	0.952800	0.084900
O311	O31	0.739800	0.109100	0.128600
O321	O32	0.905100	0.927200	0.918900
O331	O33	0.216100	0.845800	0.110300
O341	O34	0.060300	0.555100	0.095500
O351	O35	0.240100	0.883900	0.021600
O361	O36	0.172000	0.535800	0.970000
O371	O37	0.263500	0.621200	0.156200
O381	O38	0.390800	0.547200	0.084900
O391	O39	0.239800	0.390900	0.128600
O401	O40	0.405100	0.572800	0.918900
O411	O41	0.283900	0.654200	0.610300
O421	O42	0.439700	0.944900	0.595500
O431	O43	0.259900	0.616100	0.521600
O441	O44	0.328000	0.964200	0.470000
O451	O45	0.236500	0.878800	0.656200
O461	O46	0.109200	0.952800	0.584900
O471	O47	0.260200	0.109100	0.628600
O481	O48	0.094900	0.927200	0.418900
O491	O49	0.216100	0.154200	0.389700
O501	O50	0.060300	0.444900	0.404500
O511	O51	0.240100	0.116100	0.478400
O521	O52	0.172000	0.464200	0.530000
O531	O53	0.263500	0.378800	0.343800
O541	O54	0.390800	0.452800	0.415100
O551	O55	0.239800	0.609100	0.371400
O561	O56	0.405100	0.427200	0.581100
O571	O57	0.283900	0.345800	0.889700
O581	O58	0.439700	0.055100	0.904500
O591	O59	0.259900	0.383900	0.978400
O601	O60	0.328000	0.035800	0.030000
O611	O61	0.236500	0.121200	0.843800
O621	O62	0.109200	0.047200	0.915100
O631	O63	0.260200	0.890900	0.871400
O641	O64	0.094900	0.072800	0.081100
