data_ADASUV_freeONLY_PM
_symmetry_space_group_name_H-M	'P1'
_cell_length_a	29.395100
_cell_length_b	29.395100
_cell_length_c	29.418800
_cell_angle_alpha	60.026700
_cell_angle_beta	60.026700
_cell_angle_gamma	90.000000
_symmetry_Int_Tables_number 1

loop_
_symmetry_equiv_pos_as_xyz
'x,y,z'

loop_
_atom_site_label
_atom_site_type_symbol
_atom_site_fract_x
_atom_site_fract_y
_atom_site_fract_z
Co11	Co1	0.241540	0.508860	0.269060
Co21	Co2	0.144350	0.511130	0.366960
Co31	Co3	0.489400	0.222080	0.269060
Co41	Co4	0.488690	0.121910	0.366960
Co51	Co5	0.508860	0.489400	0.269060
Co61	Co6	0.511130	0.488690	0.366960
Co71	Co7	0.222080	0.241540	0.269060
Co81	Co8	0.121910	0.144350	0.366960
Co91	Co9	0.758460	0.491140	0.730940
Co101	Co10	0.855650	0.488870	0.633040
Co111	Co11	0.510600	0.777920	0.730940
Co121	Co12	0.511310	0.878090	0.633040
Co131	Co13	0.491140	0.510600	0.730940
Co141	Co14	0.488870	0.511310	0.633040
Co151	Co15	0.777920	0.758460	0.730940
Co161	Co16	0.878090	0.855650	0.633040
Co171	Co17	0.522080	0.865630	0.000000
Co181	Co18	0.518830	0.766860	0.000000
Co191	Co19	0.477920	0.134370	0.000000
Co201	Co20	0.481170	0.233140	0.000000
Co211	Co21	0.865630	0.477920	0.000000
Co221	Co22	0.766860	0.481170	0.000000
Co231	Co23	0.134370	0.522080	0.000000
Co241	Co24	0.233140	0.518830	0.000000
H11	H1	0.690900	0.820100	0.842200
H21	H2	0.650300	0.318300	0.851000
H31	H3	0.172100	0.343900	0.341600
H41	H4	0.842900	0.941900	0.735600
H51	H5	0.701300	0.940900	0.870000
H61	H6	0.661700	0.174000	0.870400
H71	H7	0.783000	0.323300	0.703600
H81	H8	0.051800	0.326900	0.506600
H91	H9	0.051100	0.195300	0.497800
H101	H10	0.773200	0.013000	0.842400
H111	H11	0.743300	0.030800	0.805600
H121	H12	0.988000	0.151800	0.620000
H131	H13	0.966000	0.165500	0.576000
H141	H14	0.835400	0.224400	0.766800
H151	H15	0.836700	0.260900	0.703000
H161	H16	0.918300	0.232500	0.643600
H171	H17	0.766600	0.116800	0.800000
H181	H18	0.886400	0.074000	0.696600
H191	H19	0.466900	0.337700	0.842200
H201	H20	0.498700	0.830700	0.851000
H211	H21	0.486300	0.314500	0.341600
H221	H22	0.421500	0.322500	0.735600
H231	H23	0.428700	0.189100	0.870000
H241	H24	0.467900	0.955600	0.870400
H251	H25	0.513400	0.973100	0.703600
H261	H26	0.441600	0.166500	0.506600
H271	H27	0.451100	0.306900	0.497800
H281	H28	0.384400	0.144600	0.842400
H291	H29	0.451100	0.163600	0.805600
H301	H30	0.392000	0.228200	0.620000
H311	H31	0.458000	0.258500	0.576000
H321	H32	0.397800	0.008800	0.766800
H331	H33	0.460300	0.036100	0.703000
H341	H34	0.438100	0.123900	0.643600
H351	H35	0.433400	0.083200	0.800000
H361	H36	0.417000	0.229400	0.696600
H371	H37	0.820100	0.466900	0.842200
H381	H38	0.318300	0.498700	0.851000
H391	H39	0.343900	0.486300	0.341600
H401	H40	0.941900	0.421500	0.735600
H411	H41	0.940900	0.428700	0.870000
H421	H42	0.174000	0.467900	0.870400
H431	H43	0.323300	0.513400	0.703600
H441	H44	0.326900	0.441600	0.506600
H451	H45	0.195300	0.451100	0.497800
H461	H46	0.013000	0.384400	0.842400
H471	H47	0.030800	0.451100	0.805600
H481	H48	0.151800	0.392000	0.620000
H491	H49	0.165500	0.458000	0.576000
H501	H50	0.224400	0.397800	0.766800
H511	H51	0.260900	0.460300	0.703000
H521	H52	0.232500	0.438100	0.643600
H531	H53	0.116800	0.433400	0.800000
H541	H54	0.074000	0.417000	0.696600
H551	H55	0.337700	0.690900	0.842200
H561	H56	0.830700	0.650300	0.851000
H571	H57	0.314500	0.172100	0.341600
H581	H58	0.322500	0.842900	0.735600
H591	H59	0.189100	0.701300	0.870000
H601	H60	0.955600	0.661700	0.870400
H611	H61	0.973100	0.783000	0.703600
H621	H62	0.166500	0.051800	0.506600
H631	H63	0.306900	0.051100	0.497800
H641	H64	0.144600	0.773200	0.842400
H651	H65	0.163600	0.743300	0.805600
H661	H66	0.228200	0.988000	0.620000
H671	H67	0.258500	0.966000	0.576000
H681	H68	0.008800	0.835400	0.766800
H691	H69	0.036100	0.836700	0.703000
H701	H70	0.123900	0.918300	0.643600
H711	H71	0.083200	0.766600	0.800000
H721	H72	0.229400	0.886400	0.696600
H731	H73	0.309100	0.179900	0.157800
H741	H74	0.349700	0.681700	0.149000
H751	H75	0.827900	0.656100	0.658400
H761	H76	0.157100	0.058100	0.264400
H771	H77	0.298700	0.059100	0.130000
H781	H78	0.338300	0.826000	0.129600
H791	H79	0.217000	0.676700	0.296400
H801	H80	0.948200	0.673100	0.493400
H811	H81	0.948900	0.804700	0.502200
H821	H82	0.226800	0.987000	0.157600
H831	H83	0.256700	0.969200	0.194400
H841	H84	0.012000	0.848200	0.380000
H851	H85	0.034000	0.834500	0.424000
H861	H86	0.164600	0.775600	0.233200
H871	H87	0.163300	0.739100	0.297000
H881	H88	0.081700	0.767500	0.356400
H891	H89	0.233400	0.883200	0.200000
H901	H90	0.113600	0.926000	0.303400
H911	H91	0.533100	0.662300	0.157800
H921	H92	0.501300	0.169300	0.149000
H931	H93	0.513700	0.685500	0.658400
H941	H94	0.578500	0.677500	0.264400
H951	H95	0.571300	0.810900	0.130000
H961	H96	0.532100	0.044400	0.129600
H971	H97	0.486600	0.026900	0.296400
H981	H98	0.558400	0.833500	0.493400
H991	H99	0.548900	0.693100	0.502200
H1001	H100	0.615600	0.855400	0.157600
H1011	H101	0.548900	0.836400	0.194400
H1021	H102	0.608000	0.771800	0.380000
H1031	H103	0.542000	0.741500	0.424000
H1041	H104	0.602200	0.991200	0.233200
H1051	H105	0.539700	0.963900	0.297000
H1061	H106	0.561900	0.876100	0.356400
H1071	H107	0.566600	0.916800	0.200000
H1081	H108	0.583000	0.770600	0.303400
H1091	H109	0.179900	0.533100	0.157800
H1101	H110	0.681700	0.501300	0.149000
H1111	H111	0.656100	0.513700	0.658400
H1121	H112	0.058100	0.578500	0.264400
H1131	H113	0.059100	0.571300	0.130000
H1141	H114	0.826000	0.532100	0.129600
H1151	H115	0.676700	0.486600	0.296400
H1161	H116	0.673100	0.558400	0.493400
H1171	H117	0.804700	0.548900	0.502200
H1181	H118	0.987000	0.615600	0.157600
H1191	H119	0.969200	0.548900	0.194400
H1201	H120	0.848200	0.608000	0.380000
H1211	H121	0.834500	0.542000	0.424000
H1221	H122	0.775600	0.602200	0.233200
H1231	H123	0.739100	0.539700	0.297000
H1241	H124	0.767500	0.561900	0.356400
H1251	H125	0.883200	0.566600	0.200000
H1261	H126	0.926000	0.583000	0.303400
H1271	H127	0.662300	0.309100	0.157800
H1281	H128	0.169300	0.349700	0.149000
H1291	H129	0.685500	0.827900	0.658400
H1301	H130	0.677500	0.157100	0.264400
H1311	H131	0.810900	0.298700	0.130000
H1321	H132	0.044400	0.338300	0.129600
H1331	H133	0.026900	0.217000	0.296400
H1341	H134	0.833500	0.948200	0.493400
H1351	H135	0.693100	0.948900	0.502200
H1361	H136	0.855400	0.226800	0.157600
H1371	H137	0.836400	0.256700	0.194400
H1381	H138	0.771800	0.012000	0.380000
H1391	H139	0.741500	0.034000	0.424000
H1401	H140	0.991200	0.164600	0.233200
H1411	H141	0.963900	0.163300	0.297000
H1421	H142	0.876100	0.081700	0.356400
H1431	H143	0.916800	0.233400	0.200000
H1441	H144	0.770600	0.113600	0.303400
C11	C1	0.711100	0.855400	0.827200
C21	C2	0.766600	0.881300	0.774400
C31	C3	0.685100	0.879600	0.857800
C41	C4	0.754100	0.386300	0.747800
C51	C5	0.583200	0.219400	0.912400
C61	C6	0.670600	0.299200	0.834200
C71	C7	0.645600	0.245800	0.859600
C81	C8	0.726700	0.325700	0.782800
C91	C9	0.138200	0.245000	0.373000
C101	C10	0.138700	0.407400	0.386000
C111	C11	0.137400	0.322800	0.382400
C121	C12	0.111900	0.347200	0.415600
C131	C13	0.111900	0.268500	0.409400
C141	C14	0.792500	0.856600	0.737400
C151	C15	0.623300	0.850200	0.911000
C161	C16	0.803500	0.928500	0.763400
C171	C17	0.718300	0.926500	0.845200
C181	C18	0.678100	0.213200	0.845800
C191	C19	0.755100	0.302900	0.748600
C201	C20	0.066300	0.312400	0.481600
C211	C21	0.066000	0.234300	0.476200
C221	C22	0.773500	0.949100	0.798000
C231	C23	0.732900	0.239100	0.797000
C241	C24	0.043800	0.257500	0.508400
C251	C25	0.779100	0.029800	0.800400
C261	C26	0.967300	0.173700	0.604200
C271	C27	0.821000	0.223200	0.743200
C281	C28	0.908800	0.156800	0.660600
C291	C29	0.893000	0.195600	0.672000
C301	C30	0.803600	0.128200	0.764400
C311	C31	0.837000	0.181500	0.728000
C321	C32	0.822800	0.086800	0.750400
C331	C33	0.873200	0.101200	0.703000
C341	C34	0.461700	0.317400	0.827200
C351	C35	0.459000	0.344300	0.774400
C361	C36	0.457100	0.262600	0.857800
C371	C37	0.498100	0.865900	0.747800
C381	C38	0.504400	0.868200	0.912400
C391	C39	0.495200	0.866600	0.834200
C401	C40	0.494800	0.894600	0.859600
C411	C41	0.490500	0.891500	0.782800
C421	C42	0.488800	0.382000	0.373000
C431	C43	0.475300	0.206600	0.386000
C441	C44	0.480200	0.294800	0.382400
C451	C45	0.472500	0.237200	0.415600
C461	C46	0.478700	0.322100	0.409400
C471	C47	0.470100	0.406000	0.737400
C481	C48	0.465700	0.238800	0.911000
C491	C49	0.433100	0.308100	0.763400
C501	C50	0.436500	0.228300	0.845200
C511	C51	0.476100	0.941000	0.845800
C521	C52	0.496300	0.948500	0.748600
C531	C53	0.452100	0.206000	0.481600
C541	C54	0.457800	0.289500	0.476200
C551	C55	0.428500	0.252900	0.798000
C561	C56	0.470100	0.963900	0.797000
C571	C57	0.447800	0.234100	0.508400
C581	C58	0.420500	0.169800	0.800400
C591	C59	0.428500	0.222100	0.604200
C601	C60	0.435800	0.033600	0.743200
C611	C61	0.430600	0.182600	0.660600
C621	C62	0.435000	0.132400	0.672000
C631	C63	0.432000	0.107400	0.764400
C641	C64	0.435000	0.090500	0.728000
C651	C65	0.426800	0.162800	0.750400
C661	C66	0.423800	0.195800	0.703000
C671	C67	0.855400	0.461700	0.827200
C681	C68	0.881300	0.459000	0.774400
C691	C69	0.879600	0.457100	0.857800
C701	C70	0.386300	0.498100	0.747800
C711	C71	0.219400	0.504400	0.912400
C721	C72	0.299200	0.495200	0.834200
C731	C73	0.245800	0.494800	0.859600
C741	C74	0.325700	0.490500	0.782800
C751	C75	0.245000	0.488800	0.373000
C761	C76	0.407400	0.475300	0.386000
C771	C77	0.322800	0.480200	0.382400
C781	C78	0.347200	0.472500	0.415600
C791	C79	0.268500	0.478700	0.409400
C801	C80	0.856600	0.470100	0.737400
C811	C81	0.850200	0.465700	0.911000
C821	C82	0.928500	0.433100	0.763400
C831	C83	0.926500	0.436500	0.845200
C841	C84	0.213200	0.476100	0.845800
C851	C85	0.302900	0.496300	0.748600
C861	C86	0.312400	0.452100	0.481600
C871	C87	0.234300	0.457800	0.476200
C881	C88	0.949100	0.428500	0.798000
C891	C89	0.239100	0.470100	0.797000
C901	C90	0.257500	0.447800	0.508400
C911	C91	0.029800	0.420500	0.800400
C921	C92	0.173700	0.428500	0.604200
C931	C93	0.223200	0.435800	0.743200
C941	C94	0.156800	0.430600	0.660600
C951	C95	0.195600	0.435000	0.672000
C961	C96	0.128200	0.432000	0.764400
C971	C97	0.181500	0.435000	0.728000
C981	C98	0.086800	0.426800	0.750400
C991	C99	0.101200	0.423800	0.703000
C1001	C100	0.317400	0.711100	0.827200
C1011	C101	0.344300	0.766600	0.774400
C1021	C102	0.262600	0.685100	0.857800
C1031	C103	0.865900	0.754100	0.747800
C1041	C104	0.868200	0.583200	0.912400
C1051	C105	0.866600	0.670600	0.834200
C1061	C106	0.894600	0.645600	0.859600
C1071	C107	0.891500	0.726700	0.782800
C1081	C108	0.382000	0.138200	0.373000
C1091	C109	0.206600	0.138700	0.386000
C1101	C110	0.294800	0.137400	0.382400
C1111	C111	0.237200	0.111900	0.415600
C1121	C112	0.322100	0.111900	0.409400
C1131	C113	0.406000	0.792500	0.737400
C1141	C114	0.238800	0.623300	0.911000
C1151	C115	0.308100	0.803500	0.763400
C1161	C116	0.228300	0.718300	0.845200
C1171	C117	0.941000	0.678100	0.845800
C1181	C118	0.948500	0.755100	0.748600
C1191	C119	0.206000	0.066300	0.481600
C1201	C120	0.289500	0.066000	0.476200
C1211	C121	0.252900	0.773500	0.798000
C1221	C122	0.963900	0.732900	0.797000
C1231	C123	0.234100	0.043800	0.508400
C1241	C124	0.169800	0.779100	0.800400
C1251	C125	0.222100	0.967300	0.604200
C1261	C126	0.033600	0.821000	0.743200
C1271	C127	0.182600	0.908800	0.660600
C1281	C128	0.132400	0.893000	0.672000
C1291	C129	0.107400	0.803600	0.764400
C1301	C130	0.090500	0.837000	0.728000
C1311	C131	0.162800	0.822800	0.750400
C1321	C132	0.195800	0.873200	0.703000
C1331	C133	0.288900	0.144600	0.172800
C1341	C134	0.233400	0.118700	0.225600
C1351	C135	0.314900	0.120400	0.142200
C1361	C136	0.245900	0.613700	0.252200
C1371	C137	0.416800	0.780600	0.087600
C1381	C138	0.329400	0.700800	0.165800
C1391	C139	0.354400	0.754200	0.140400
C1401	C140	0.273300	0.674300	0.217200
C1411	C141	0.861800	0.755000	0.627000
C1421	C142	0.861300	0.592600	0.614000
C1431	C143	0.862600	0.677200	0.617600
C1441	C144	0.888100	0.652800	0.584400
C1451	C145	0.888100	0.731500	0.590600
C1461	C146	0.207500	0.143400	0.262600
C1471	C147	0.376700	0.149800	0.089000
C1481	C148	0.196500	0.071500	0.236600
C1491	C149	0.281700	0.073500	0.154800
C1501	C150	0.321900	0.786800	0.154200
C1511	C151	0.244900	0.697100	0.251400
C1521	C152	0.933700	0.687600	0.518400
C1531	C153	0.934000	0.765700	0.523800
C1541	C154	0.226500	0.050900	0.202000
C1551	C155	0.267100	0.760900	0.203000
C1561	C156	0.956200	0.742500	0.491600
C1571	C157	0.220900	0.970200	0.199600
C1581	C158	0.032700	0.826300	0.395800
C1591	C159	0.179000	0.776800	0.256800
C1601	C160	0.091200	0.843200	0.339400
C1611	C161	0.107000	0.804400	0.328000
C1621	C162	0.196400	0.871800	0.235600
C1631	C163	0.163000	0.818500	0.272000
C1641	C164	0.177200	0.913200	0.249600
C1651	C165	0.126800	0.898800	0.297000
C1661	C166	0.538300	0.682600	0.172800
C1671	C167	0.541000	0.655700	0.225600
C1681	C168	0.542900	0.737400	0.142200
C1691	C169	0.501900	0.134100	0.252200
C1701	C170	0.495600	0.131800	0.087600
C1711	C171	0.504800	0.133400	0.165800
C1721	C172	0.505200	0.105400	0.140400
C1731	C173	0.509500	0.108500	0.217200
C1741	C174	0.511200	0.618000	0.627000
C1751	C175	0.524700	0.793400	0.614000
C1761	C176	0.519800	0.705200	0.617600
C1771	C177	0.527500	0.762800	0.584400
C1781	C178	0.521300	0.677900	0.590600
C1791	C179	0.529900	0.594000	0.262600
C1801	C180	0.534300	0.761200	0.089000
C1811	C181	0.566900	0.691900	0.236600
C1821	C182	0.563500	0.771700	0.154800
C1831	C183	0.523900	0.059000	0.154200
C1841	C184	0.503700	0.051500	0.251400
C1851	C185	0.547900	0.794000	0.518400
C1861	C186	0.542200	0.710500	0.523800
C1871	C187	0.571500	0.747100	0.202000
C1881	C188	0.529900	0.036100	0.203000
C1891	C189	0.552200	0.765900	0.491600
C1901	C190	0.579500	0.830200	0.199600
C1911	C191	0.571500	0.777900	0.395800
C1921	C192	0.564200	0.966400	0.256800
C1931	C193	0.569400	0.817400	0.339400
C1941	C194	0.565000	0.867600	0.328000
C1951	C195	0.568000	0.892600	0.235600
C1961	C196	0.565000	0.909500	0.272000
C1971	C197	0.573200	0.837200	0.249600
C1981	C198	0.576200	0.804200	0.297000
C1991	C199	0.144600	0.538300	0.172800
C2001	C200	0.118700	0.541000	0.225600
C2011	C201	0.120400	0.542900	0.142200
C2021	C202	0.613700	0.501900	0.252200
C2031	C203	0.780600	0.495600	0.087600
C2041	C204	0.700800	0.504800	0.165800
C2051	C205	0.754200	0.505200	0.140400
C2061	C206	0.674300	0.509500	0.217200
C2071	C207	0.755000	0.511200	0.627000
C2081	C208	0.592600	0.524700	0.614000
C2091	C209	0.677200	0.519800	0.617600
C2101	C210	0.652800	0.527500	0.584400
C2111	C211	0.731500	0.521300	0.590600
C2121	C212	0.143400	0.529900	0.262600
C2131	C213	0.149800	0.534300	0.089000
C2141	C214	0.071500	0.566900	0.236600
C2151	C215	0.073500	0.563500	0.154800
C2161	C216	0.786800	0.523900	0.154200
C2171	C217	0.697100	0.503700	0.251400
C2181	C218	0.687600	0.547900	0.518400
C2191	C219	0.765700	0.542200	0.523800
C2201	C220	0.050900	0.571500	0.202000
C2211	C221	0.760900	0.529900	0.203000
C2221	C222	0.742500	0.552200	0.491600
C2231	C223	0.970200	0.579500	0.199600
C2241	C224	0.826300	0.571500	0.395800
C2251	C225	0.776800	0.564200	0.256800
C2261	C226	0.843200	0.569400	0.339400
C2271	C227	0.804400	0.565000	0.328000
C2281	C228	0.871800	0.568000	0.235600
C2291	C229	0.818500	0.565000	0.272000
C2301	C230	0.913200	0.573200	0.249600
C2311	C231	0.898800	0.576200	0.297000
C2321	C232	0.682600	0.288900	0.172800
C2331	C233	0.655700	0.233400	0.225600
C2341	C234	0.737400	0.314900	0.142200
C2351	C235	0.134100	0.245900	0.252200
C2361	C236	0.131800	0.416800	0.087600
C2371	C237	0.133400	0.329400	0.165800
C2381	C238	0.105400	0.354400	0.140400
C2391	C239	0.108500	0.273300	0.217200
C2401	C240	0.618000	0.861800	0.627000
C2411	C241	0.793400	0.861300	0.614000
C2421	C242	0.705200	0.862600	0.617600
C2431	C243	0.762800	0.888100	0.584400
C2441	C244	0.677900	0.888100	0.590600
C2451	C245	0.594000	0.207500	0.262600
C2461	C246	0.761200	0.376700	0.089000
C2471	C247	0.691900	0.196500	0.236600
C2481	C248	0.771700	0.281700	0.154800
C2491	C249	0.059000	0.321900	0.154200
C2501	C250	0.051500	0.244900	0.251400
C2511	C251	0.794000	0.933700	0.518400
C2521	C252	0.710500	0.934000	0.523800
C2531	C253	0.747100	0.226500	0.202000
C2541	C254	0.036100	0.267100	0.203000
C2551	C255	0.765900	0.956200	0.491600
C2561	C256	0.830200	0.220900	0.199600
C2571	C257	0.777900	0.032700	0.395800
C2581	C258	0.966400	0.179000	0.256800
C2591	C259	0.817400	0.091200	0.339400
C2601	C260	0.867600	0.107000	0.328000
C2611	C261	0.892600	0.196400	0.235600
C2621	C262	0.909500	0.163000	0.272000
C2631	C263	0.837200	0.177200	0.249600
C2641	C264	0.804200	0.126800	0.297000
O11	O1	0.187090	0.430690	0.334220
O21	O2	0.111550	0.429450	0.411700
O31	O3	0.109420	0.196120	0.396360
O41	O4	0.187050	0.271550	0.322300
O51	O5	0.802600	0.409200	0.697600
O61	O6	0.727700	0.409400	0.772600
O71	O7	0.842660	0.885360	0.685280
O81	O8	0.765700	0.808700	0.761200
O91	O9	0.601180	0.880080	0.933640
O101	O10	0.600010	0.803410	0.932180
O111	O11	0.559900	0.170200	0.932600
O121	O12	0.560430	0.246930	0.932540
O131	O13	0.292300	0.494800	0.203200
O141	O14	0.089200	0.523200	0.436400
O151	O15	0.544800	0.940400	0.983600
O161	O16	0.804400	0.000900	0.772400
O171	O17	0.995100	0.231100	0.569000
O181	O18	0.761300	0.205200	0.782000
O191	O19	0.478690	0.235090	0.334220
O201	O20	0.476750	0.158850	0.411700
O211	O21	0.494220	0.407520	0.396360
O221	O22	0.490650	0.406150	0.322300
O231	O23	0.499800	0.893200	0.697600
O241	O24	0.499700	0.818000	0.772600
O251	O25	0.472060	0.429360	0.685280
O261	O26	0.473100	0.430100	0.761200
O271	O27	0.465180	0.186280	0.933640
O281	O28	0.467810	0.264410	0.932180
O291	O29	0.507500	0.897200	0.932600
O301	O30	0.507030	0.820530	0.932540
O311	O31	0.504500	0.302000	0.203200
O321	O32	0.474400	0.040400	0.436400
O331	O33	0.471600	0.076000	0.983600
O341	O34	0.423200	0.226700	0.772400
O351	O35	0.435900	0.199900	0.569000
O361	O36	0.456700	0.012800	0.782000
O371	O37	0.430690	0.478690	0.334220
O381	O38	0.429450	0.476750	0.411700
O391	O39	0.196120	0.494220	0.396360
O401	O40	0.271550	0.490650	0.322300
O411	O41	0.409200	0.499800	0.697600
O421	O42	0.409400	0.499700	0.772600
O431	O43	0.885360	0.472060	0.685280
O441	O44	0.808700	0.473100	0.761200
O451	O45	0.880080	0.465180	0.933640
O461	O46	0.803410	0.467810	0.932180
O471	O47	0.170200	0.507500	0.932600
O481	O48	0.246930	0.507030	0.932540
O491	O49	0.494800	0.504500	0.203200
O501	O50	0.523200	0.474400	0.436400
O511	O51	0.940400	0.471600	0.983600
O521	O52	0.000900	0.423200	0.772400
O531	O53	0.231100	0.435900	0.569000
O541	O54	0.205200	0.456700	0.782000
O551	O55	0.235090	0.187090	0.334220
O561	O56	0.158850	0.111550	0.411700
O571	O57	0.407520	0.109420	0.396360
O581	O58	0.406150	0.187050	0.322300
O591	O59	0.893200	0.802600	0.697600
O601	O60	0.818000	0.727700	0.772600
O611	O61	0.429360	0.842660	0.685280
O621	O62	0.430100	0.765700	0.761200
O631	O63	0.186280	0.601180	0.933640
O641	O64	0.264410	0.600010	0.932180
O651	O65	0.897200	0.559900	0.932600
O661	O66	0.820530	0.560430	0.932540
O671	O67	0.302000	0.292300	0.203200
O681	O68	0.040400	0.089200	0.436400
O691	O69	0.076000	0.544800	0.983600
O701	O70	0.226700	0.804400	0.772400
O711	O71	0.199900	0.995100	0.569000
O721	O72	0.012800	0.761300	0.782000
O731	O73	0.812910	0.569310	0.665780
O741	O74	0.888450	0.570550	0.588300
O751	O75	0.890580	0.803880	0.603640
O761	O76	0.812950	0.728450	0.677700
O771	O77	0.197400	0.590800	0.302400
O781	O78	0.272300	0.590600	0.227400
O791	O79	0.157340	0.114640	0.314720
O801	O80	0.234300	0.191300	0.238800
O811	O81	0.398820	0.119920	0.066360
O821	O82	0.399990	0.196590	0.067820
O831	O83	0.440100	0.829800	0.067400
O841	O84	0.439570	0.753070	0.067460
O851	O85	0.707700	0.505200	0.796800
O861	O86	0.910800	0.476800	0.563600
O871	O87	0.455200	0.059600	0.016400
O881	O88	0.195600	0.999100	0.227600
O891	O89	0.004900	0.768900	0.431000
O901	O90	0.238700	0.794800	0.218000
O911	O91	0.521310	0.764910	0.665780
O921	O92	0.523250	0.841150	0.588300
O931	O93	0.505780	0.592480	0.603640
O941	O94	0.509350	0.593850	0.677700
O951	O95	0.500200	0.106800	0.302400
O961	O96	0.500300	0.182000	0.227400
O971	O97	0.527940	0.570640	0.314720
O981	O98	0.526900	0.569900	0.238800
O991	O99	0.534820	0.813720	0.066360
O1001	O100	0.532190	0.735590	0.067820
O1011	O101	0.492500	0.102800	0.067400
O1021	O102	0.492970	0.179470	0.067460
O1031	O103	0.495500	0.698000	0.796800
O1041	O104	0.525600	0.959600	0.563600
O1051	O105	0.528400	0.924000	0.016400
O1061	O106	0.576800	0.773300	0.227600
O1071	O107	0.564100	0.800100	0.431000
O1081	O108	0.543300	0.987200	0.218000
O1091	O109	0.569310	0.521310	0.665780
O1101	O110	0.570550	0.523250	0.588300
O1111	O111	0.803880	0.505780	0.603640
O1121	O112	0.728450	0.509350	0.677700
O1131	O113	0.590800	0.500200	0.302400
O1141	O114	0.590600	0.500300	0.227400
O1151	O115	0.114640	0.527940	0.314720
O1161	O116	0.191300	0.526900	0.238800
O1171	O117	0.119920	0.534820	0.066360
O1181	O118	0.196590	0.532190	0.067820
O1191	O119	0.829800	0.492500	0.067400
O1201	O120	0.753070	0.492970	0.067460
O1211	O121	0.505200	0.495500	0.796800
O1221	O122	0.476800	0.525600	0.563600
O1231	O123	0.059600	0.528400	0.016400
O1241	O124	0.999100	0.576800	0.227600
O1251	O125	0.768900	0.564100	0.431000
O1261	O126	0.794800	0.543300	0.218000
O1271	O127	0.764910	0.812910	0.665780
O1281	O128	0.841150	0.888450	0.588300
O1291	O129	0.592480	0.890580	0.603640
O1301	O130	0.593850	0.812950	0.677700
O1311	O131	0.106800	0.197400	0.302400
O1321	O132	0.182000	0.272300	0.227400
O1331	O133	0.570640	0.157340	0.314720
O1341	O134	0.569900	0.234300	0.238800
O1351	O135	0.813720	0.398820	0.066360
O1361	O136	0.735590	0.399990	0.067820
O1371	O137	0.102800	0.440100	0.067400
O1381	O138	0.179470	0.439570	0.067460
O1391	O139	0.698000	0.707700	0.796800
O1401	O140	0.959600	0.910800	0.563600
O1411	O141	0.924000	0.455200	0.016400
O1421	O142	0.773300	0.195600	0.227600
O1431	O143	0.800100	0.004900	0.431000
O1441	O144	0.987200	0.238700	0.218000
O1451	O145	0.504500	0.697700	0.000000
O1461	O146	0.495500	0.302300	0.000000
O1471	O147	0.697700	0.495500	0.000000
O1481	O148	0.302300	0.504500	0.000000
