data_ADATUW_freeONLY_PM
_symmetry_space_group_name_H-M	'P1'
_cell_length_a	25.574000
_cell_length_b	25.574000
_cell_length_c	25.574000
_cell_angle_alpha	90.000000
_cell_angle_beta	90.000000
_cell_angle_gamma	90.000000
_symmetry_Int_Tables_number 1

loop_
_symmetry_equiv_pos_as_xyz
'x,y,z'

loop_
_atom_site_label
_atom_site_type_symbol
_atom_site_fract_x
_atom_site_fract_y
_atom_site_fract_z
N11	N1	0.198100	0.863100	0.062500
N21	N2	0.219200	0.940900	0.109100
H11	H1	0.214600	0.962800	0.134200
N31	N3	0.254000	0.951900	0.070600
C11	C1	0.179200	0.813600	0.060000
H21	H2	0.187400	0.791800	0.032100
C21	C2	0.146000	0.795900	0.101700
H31	H3	0.127000	0.765000	0.098800
C31	C3	0.143000	0.828800	0.149900
H41	H4	0.126700	0.815200	0.179400
C41	C4	0.162600	0.875800	0.152100
H51	H5	0.157700	0.896400	0.181600
C51	C5	0.191700	0.895500	0.108200
C61	C6	0.274100	0.001400	0.070700
C71	C7	0.251200	0.040200	0.113200
H61	H6	0.224300	0.022800	0.132800
H71	H7	0.236600	0.070300	0.096100
H81	H8	0.278600	0.051000	0.136400
C81	C8	0.315500	0.012900	0.036200
C91	C9	0.322300	0.067900	0.024500
H91	H9	0.300500	0.093000	0.039100
C101	C10	0.362700	0.081900	0.990500
H101	H10	0.366700	0.116200	0.979200
C111	C11	0.394800	0.045000	0.975100
C121	C12	0.387600	0.989000	0.985600
H111	H11	0.410300	0.964500	0.971000
C131	C13	0.349100	0.973800	0.015500
H121	H12	0.343900	0.938700	0.023100
N41	N4	0.698100	0.363100	0.562500
N51	N5	0.719200	0.440900	0.609100
H131	H13	0.714600	0.462800	0.634200
N61	N6	0.754000	0.451900	0.570600
C141	C14	0.679200	0.313600	0.560000
H141	H14	0.687400	0.291800	0.532100
C151	C15	0.646000	0.295900	0.601700
H151	H15	0.627000	0.265000	0.598800
C161	C16	0.643000	0.328800	0.649900
H161	H16	0.626700	0.315200	0.679400
C171	C17	0.662600	0.375800	0.652100
H171	H17	0.657700	0.396400	0.681600
C181	C18	0.691700	0.395500	0.608200
C191	C19	0.774100	0.501400	0.570700
C201	C20	0.751200	0.540200	0.613200
H181	H18	0.724300	0.522800	0.632800
H191	H19	0.736600	0.570300	0.596100
H201	H20	0.778600	0.551000	0.636400
C211	C21	0.815500	0.512900	0.536200
C221	C22	0.822300	0.567900	0.524500
H211	H21	0.800500	0.593000	0.539100
C231	C23	0.862700	0.581900	0.490500
H221	H22	0.866700	0.616200	0.479200
C241	C24	0.894800	0.545000	0.475100
C251	C25	0.887600	0.489000	0.485600
H231	H23	0.910300	0.464500	0.471000
C261	C26	0.849100	0.473800	0.515500
H241	H24	0.843900	0.438700	0.523100
N71	N7	0.301900	0.136900	0.562500
N81	N8	0.280800	0.059100	0.609100
H251	H25	0.285400	0.037200	0.634200
N91	N9	0.246000	0.048100	0.570600
C271	C27	0.320800	0.186400	0.560000
H261	H26	0.312600	0.208200	0.532100
C281	C28	0.354000	0.204100	0.601700
H271	H27	0.373000	0.235000	0.598800
C291	C29	0.357000	0.171200	0.649900
H281	H28	0.373300	0.184800	0.679400
C301	C30	0.337400	0.124200	0.652100
H291	H29	0.342300	0.103600	0.681600
C311	C31	0.308300	0.104500	0.608200
C321	C32	0.225900	0.998600	0.570700
C331	C33	0.248800	0.959800	0.613200
H301	H30	0.275700	0.977200	0.632800
H311	H31	0.263400	0.929700	0.596100
H321	H32	0.221400	0.949000	0.636400
C341	C34	0.184500	0.987100	0.536200
C351	C35	0.177700	0.932100	0.524500
H331	H33	0.199500	0.907000	0.539100
C361	C36	0.137300	0.918100	0.490500
H341	H34	0.133300	0.883800	0.479200
C371	C37	0.105200	0.955000	0.475100
C381	C38	0.112400	0.011000	0.485600
H351	H35	0.089700	0.035500	0.471000
C391	C39	0.150900	0.026200	0.515500
H361	H36	0.156100	0.061300	0.523100
N101	N10	0.801900	0.636900	0.062500
N111	N11	0.780800	0.559100	0.109100
H371	H37	0.785400	0.537200	0.134200
N121	N12	0.746000	0.548100	0.070600
C401	C40	0.820800	0.686400	0.060000
H381	H38	0.812600	0.708200	0.032100
C411	C41	0.854000	0.704100	0.101700
H391	H39	0.873000	0.735000	0.098800
C421	C42	0.857000	0.671200	0.149900
H401	H40	0.873300	0.684800	0.179400
C431	C43	0.837400	0.624200	0.152100
H411	H41	0.842300	0.603600	0.181600
C441	C44	0.808300	0.604500	0.108200
C451	C45	0.725900	0.498600	0.070700
C461	C46	0.748800	0.459800	0.113200
H421	H42	0.775700	0.477200	0.132800
H431	H43	0.763400	0.429700	0.096100
H441	H44	0.721400	0.449000	0.136400
C471	C47	0.684500	0.487100	0.036200
C481	C48	0.677700	0.432100	0.024500
H451	H45	0.699500	0.407000	0.039100
C491	C49	0.637300	0.418100	0.990500
H461	H46	0.633300	0.383800	0.979200
C501	C50	0.605200	0.455000	0.975100
C511	C51	0.612400	0.511000	0.985600
H471	H47	0.589700	0.535500	0.971000
C521	C52	0.650900	0.526200	0.015500
H481	H48	0.656100	0.561300	0.023100
N131	N13	0.801900	0.363100	0.437500
N141	N14	0.780800	0.440900	0.390900
H491	H49	0.785400	0.462800	0.365800
N151	N15	0.746000	0.451900	0.429400
C531	C53	0.820800	0.313600	0.440000
H501	H50	0.812600	0.291800	0.467900
C541	C54	0.854000	0.295900	0.398300
H511	H51	0.873000	0.265000	0.401200
C551	C55	0.857000	0.328800	0.350100
H521	H52	0.873300	0.315200	0.320600
C561	C56	0.837400	0.375800	0.347900
H531	H53	0.842300	0.396400	0.318400
C571	C57	0.808300	0.395500	0.391800
C581	C58	0.725900	0.501400	0.429300
C591	C59	0.748800	0.540200	0.386800
H541	H54	0.775700	0.522800	0.367200
H551	H55	0.763400	0.570300	0.403900
H561	H56	0.721400	0.551000	0.363600
C601	C60	0.684500	0.512900	0.463800
C611	C61	0.677700	0.567900	0.475500
H571	H57	0.699500	0.593000	0.460900
C621	C62	0.637300	0.581900	0.509500
H581	H58	0.633300	0.616200	0.520800
C631	C63	0.605200	0.545000	0.524900
C641	C64	0.612400	0.489000	0.514400
H591	H59	0.589700	0.464500	0.529000
C651	C65	0.650900	0.473800	0.484500
H601	H60	0.656100	0.438700	0.476900
N161	N16	0.301900	0.863100	0.937500
N171	N17	0.280800	0.940900	0.890900
H611	H61	0.285400	0.962800	0.865800
N181	N18	0.246000	0.951900	0.929400
C661	C66	0.320800	0.813600	0.940000
H621	H62	0.312600	0.791800	0.967900
C671	C67	0.354000	0.795900	0.898300
H631	H63	0.373000	0.765000	0.901200
C681	C68	0.357000	0.828800	0.850100
H641	H64	0.373300	0.815200	0.820600
C691	C69	0.337400	0.875800	0.847900
H651	H65	0.342300	0.896400	0.818400
C701	C70	0.308300	0.895500	0.891800
C711	C71	0.225900	0.001400	0.929300
C721	C72	0.248800	0.040200	0.886800
H661	H66	0.275700	0.022800	0.867200
H671	H67	0.263400	0.070300	0.903900
H681	H68	0.221400	0.051000	0.863600
C731	C73	0.184500	0.012900	0.963800
C741	C74	0.177700	0.067900	0.975500
H691	H69	0.199500	0.093000	0.960900
C751	C75	0.137300	0.081900	0.009500
H701	H70	0.133300	0.116200	0.020800
C761	C76	0.105200	0.045000	0.024900
C771	C77	0.112400	0.989000	0.014400
H711	H71	0.089700	0.964500	0.029000
C781	C78	0.150900	0.973800	0.984500
H721	H72	0.156100	0.938700	0.976900
N191	N19	0.698100	0.636900	0.937500
N201	N20	0.719200	0.559100	0.890900
H731	H73	0.714600	0.537200	0.865800
N211	N21	0.754000	0.548100	0.929400
C791	C79	0.679200	0.686400	0.940000
H741	H74	0.687400	0.708200	0.967900
C801	C80	0.646000	0.704100	0.898300
H751	H75	0.627000	0.735000	0.901200
C811	C81	0.643000	0.671200	0.850100
H761	H76	0.626700	0.684800	0.820600
C821	C82	0.662600	0.624200	0.847900
H771	H77	0.657700	0.603600	0.818400
C831	C83	0.691700	0.604500	0.891800
C841	C84	0.774100	0.498600	0.929300
C851	C85	0.751200	0.459800	0.886800
H781	H78	0.724300	0.477200	0.867200
H791	H79	0.736600	0.429700	0.903900
H801	H80	0.778600	0.449000	0.863600
C861	C86	0.815500	0.487100	0.963800
C871	C87	0.822300	0.432100	0.975500
H811	H81	0.800500	0.407000	0.960900
C881	C88	0.862700	0.418100	0.009500
H821	H82	0.866700	0.383800	0.020800
C891	C89	0.894800	0.455000	0.024900
C901	C90	0.887600	0.511000	0.014400
H831	H83	0.910300	0.535500	0.029000
C911	C91	0.849100	0.526200	0.984500
H841	H84	0.843900	0.561300	0.976900
N221	N22	0.198100	0.136900	0.437500
N231	N23	0.219200	0.059100	0.390900
H851	H85	0.214600	0.037200	0.365800
N241	N24	0.254000	0.048100	0.429400
C921	C92	0.179200	0.186400	0.440000
H861	H86	0.187400	0.208200	0.467900
C931	C93	0.146000	0.204100	0.398300
H871	H87	0.127000	0.235000	0.401200
C941	C94	0.143000	0.171200	0.350100
H881	H88	0.126700	0.184800	0.320600
C951	C95	0.162600	0.124200	0.347900
H891	H89	0.157700	0.103600	0.318400
C961	C96	0.191700	0.104500	0.391800
C971	C97	0.274100	0.998600	0.429300
C981	C98	0.251200	0.959800	0.386800
H901	H90	0.224300	0.977200	0.367200
H911	H91	0.236600	0.929700	0.403900
H921	H92	0.278600	0.949000	0.363600
C991	C99	0.315500	0.987100	0.463800
C1001	C100	0.322300	0.932100	0.475500
H931	H93	0.300500	0.907000	0.460900
C1011	C101	0.362700	0.918100	0.509500
H941	H94	0.366700	0.883800	0.520800
C1021	C102	0.394800	0.955000	0.524900
C1031	C103	0.387600	0.011000	0.514400
H951	H95	0.410300	0.035500	0.529000
C1041	C104	0.349100	0.026200	0.484500
H961	H96	0.343900	0.061300	0.476900
N251	N25	0.062500	0.198100	0.863100
N261	N26	0.109100	0.219200	0.940900
H971	H97	0.134200	0.214600	0.962800
N271	N27	0.070600	0.254000	0.951900
C1051	C105	0.060000	0.179200	0.813600
H981	H98	0.032100	0.187400	0.791800
C1061	C106	0.101700	0.146000	0.795900
H991	H99	0.098800	0.127000	0.765000
C1071	C107	0.149900	0.143000	0.828800
H1001	H100	0.179400	0.126700	0.815200
C1081	C108	0.152100	0.162600	0.875800
H1011	H101	0.181600	0.157700	0.896400
C1091	C109	0.108200	0.191700	0.895500
C1101	C110	0.070700	0.274100	0.001400
C1111	C111	0.113200	0.251200	0.040200
H1021	H102	0.132800	0.224300	0.022800
H1031	H103	0.096100	0.236600	0.070300
H1041	H104	0.136400	0.278600	0.051000
C1121	C112	0.036200	0.315500	0.012900
C1131	C113	0.024500	0.322300	0.067900
H1051	H105	0.039100	0.300500	0.093000
C1141	C114	0.990500	0.362700	0.081900
H1061	H106	0.979200	0.366700	0.116200
C1151	C115	0.975100	0.394800	0.045000
C1161	C116	0.985600	0.387600	0.989000
H1071	H107	0.971000	0.410300	0.964500
C1171	C117	0.015500	0.349100	0.973800
H1081	H108	0.023100	0.343900	0.938700
N281	N28	0.562500	0.698100	0.363100
N291	N29	0.609100	0.719200	0.440900
H1091	H109	0.634200	0.714600	0.462800
N301	N30	0.570600	0.754000	0.451900
C1181	C118	0.560000	0.679200	0.313600
H1101	H110	0.532100	0.687400	0.291800
C1191	C119	0.601700	0.646000	0.295900
H1111	H111	0.598800	0.627000	0.265000
C1201	C120	0.649900	0.643000	0.328800
H1121	H112	0.679400	0.626700	0.315200
C1211	C121	0.652100	0.662600	0.375800
H1131	H113	0.681600	0.657700	0.396400
C1221	C122	0.608200	0.691700	0.395500
C1231	C123	0.570700	0.774100	0.501400
C1241	C124	0.613200	0.751200	0.540200
H1141	H114	0.632800	0.724300	0.522800
H1151	H115	0.596100	0.736600	0.570300
H1161	H116	0.636400	0.778600	0.551000
C1251	C125	0.536200	0.815500	0.512900
C1261	C126	0.524500	0.822300	0.567900
H1171	H117	0.539100	0.800500	0.593000
C1271	C127	0.490500	0.862700	0.581900
H1181	H118	0.479200	0.866700	0.616200
C1281	C128	0.475100	0.894800	0.545000
C1291	C129	0.485600	0.887600	0.489000
H1191	H119	0.471000	0.910300	0.464500
C1301	C130	0.515500	0.849100	0.473800
H1201	H120	0.523100	0.843900	0.438700
N311	N31	0.562500	0.301900	0.136900
N321	N32	0.609100	0.280800	0.059100
H1211	H121	0.634200	0.285400	0.037200
N331	N33	0.570600	0.246000	0.048100
C1311	C131	0.560000	0.320800	0.186400
H1221	H122	0.532100	0.312600	0.208200
C1321	C132	0.601700	0.354000	0.204100
H1231	H123	0.598800	0.373000	0.235000
C1331	C133	0.649900	0.357000	0.171200
H1241	H124	0.679400	0.373300	0.184800
C1341	C134	0.652100	0.337400	0.124200
H1251	H125	0.681600	0.342300	0.103600
C1351	C135	0.608200	0.308300	0.104500
C1361	C136	0.570700	0.225900	0.998600
C1371	C137	0.613200	0.248800	0.959800
H1261	H126	0.632800	0.275700	0.977200
H1271	H127	0.596100	0.263400	0.929700
H1281	H128	0.636400	0.221400	0.949000
C1381	C138	0.536200	0.184500	0.987100
C1391	C139	0.524500	0.177700	0.932100
H1291	H129	0.539100	0.199500	0.907000
C1401	C140	0.490500	0.137300	0.918100
H1301	H130	0.479200	0.133300	0.883800
C1411	C141	0.475100	0.105200	0.955000
C1421	C142	0.485600	0.112400	0.011000
H1311	H131	0.471000	0.089700	0.035500
C1431	C143	0.515500	0.150900	0.026200
H1321	H132	0.523100	0.156100	0.061300
N341	N34	0.062500	0.801900	0.636900
N351	N35	0.109100	0.780800	0.559100
H1331	H133	0.134200	0.785400	0.537200
N361	N36	0.070600	0.746000	0.548100
C1441	C144	0.060000	0.820800	0.686400
H1341	H134	0.032100	0.812600	0.708200
C1451	C145	0.101700	0.854000	0.704100
H1351	H135	0.098800	0.873000	0.735000
C1461	C146	0.149900	0.857000	0.671200
H1361	H136	0.179400	0.873300	0.684800
C1471	C147	0.152100	0.837400	0.624200
H1371	H137	0.181600	0.842300	0.603600
C1481	C148	0.108200	0.808300	0.604500
C1491	C149	0.070700	0.725900	0.498600
C1501	C150	0.113200	0.748800	0.459800
H1381	H138	0.132800	0.775700	0.477200
H1391	H139	0.096100	0.763400	0.429700
H1401	H140	0.136400	0.721400	0.449000
C1511	C151	0.036200	0.684500	0.487100
C1521	C152	0.024500	0.677700	0.432100
H1411	H141	0.039100	0.699500	0.407000
C1531	C153	0.990500	0.637300	0.418100
H1421	H142	0.979200	0.633300	0.383800
C1541	C154	0.975100	0.605200	0.455000
C1551	C155	0.985600	0.612400	0.511000
H1431	H143	0.971000	0.589700	0.535500
C1561	C156	0.015500	0.650900	0.526200
H1441	H144	0.023100	0.656100	0.561300
N371	N37	0.437500	0.801900	0.363100
N381	N38	0.390900	0.780800	0.440900
H1451	H145	0.365800	0.785400	0.462800
N391	N39	0.429400	0.746000	0.451900
C1571	C157	0.440000	0.820800	0.313600
H1461	H146	0.467900	0.812600	0.291800
C1581	C158	0.398300	0.854000	0.295900
H1471	H147	0.401200	0.873000	0.265000
C1591	C159	0.350100	0.857000	0.328800
H1481	H148	0.320600	0.873300	0.315200
C1601	C160	0.347900	0.837400	0.375800
H1491	H149	0.318400	0.842300	0.396400
C1611	C161	0.391800	0.808300	0.395500
C1621	C162	0.429300	0.725900	0.501400
C1631	C163	0.386800	0.748800	0.540200
H1501	H150	0.367200	0.775700	0.522800
H1511	H151	0.403900	0.763400	0.570300
H1521	H152	0.363600	0.721400	0.551000
C1641	C164	0.463800	0.684500	0.512900
C1651	C165	0.475500	0.677700	0.567900
H1531	H153	0.460900	0.699500	0.593000
C1661	C166	0.509500	0.637300	0.581900
H1541	H154	0.520800	0.633300	0.616200
C1671	C167	0.524900	0.605200	0.545000
C1681	C168	0.514400	0.612400	0.489000
H1551	H155	0.529000	0.589700	0.464500
C1691	C169	0.484500	0.650900	0.473800
H1561	H156	0.476900	0.656100	0.438700
N401	N40	0.937500	0.301900	0.863100
N411	N41	0.890900	0.280800	0.940900
H1571	H157	0.865800	0.285400	0.962800
N421	N42	0.929400	0.246000	0.951900
C1701	C170	0.940000	0.320800	0.813600
H1581	H158	0.967900	0.312600	0.791800
C1711	C171	0.898300	0.354000	0.795900
H1591	H159	0.901200	0.373000	0.765000
C1721	C172	0.850100	0.357000	0.828800
H1601	H160	0.820600	0.373300	0.815200
C1731	C173	0.847900	0.337400	0.875800
H1611	H161	0.818400	0.342300	0.896400
C1741	C174	0.891800	0.308300	0.895500
C1751	C175	0.929300	0.225900	0.001400
C1761	C176	0.886800	0.248800	0.040200
H1621	H162	0.867200	0.275700	0.022800
H1631	H163	0.903900	0.263400	0.070300
H1641	H164	0.863600	0.221400	0.051000
C1771	C177	0.963800	0.184500	0.012900
C1781	C178	0.975500	0.177700	0.067900
H1651	H165	0.960900	0.199500	0.093000
C1791	C179	0.009500	0.137300	0.081900
H1661	H166	0.020800	0.133300	0.116200
C1801	C180	0.024900	0.105200	0.045000
C1811	C181	0.014400	0.112400	0.989000
H1671	H167	0.029000	0.089700	0.964500
C1821	C182	0.984500	0.150900	0.973800
H1681	H168	0.976900	0.156100	0.938700
N431	N43	0.937500	0.698100	0.636900
N441	N44	0.890900	0.719200	0.559100
H1691	H169	0.865800	0.714600	0.537200
N451	N45	0.929400	0.754000	0.548100
C1831	C183	0.940000	0.679200	0.686400
H1701	H170	0.967900	0.687400	0.708200
C1841	C184	0.898300	0.646000	0.704100
H1711	H171	0.901200	0.627000	0.735000
C1851	C185	0.850100	0.643000	0.671200
H1721	H172	0.820600	0.626700	0.684800
C1861	C186	0.847900	0.662600	0.624200
H1731	H173	0.818400	0.657700	0.603600
C1871	C187	0.891800	0.691700	0.604500
C1881	C188	0.929300	0.774100	0.498600
C1891	C189	0.886800	0.751200	0.459800
H1741	H174	0.867200	0.724300	0.477200
H1751	H175	0.903900	0.736600	0.429700
H1761	H176	0.863600	0.778600	0.449000
C1901	C190	0.963800	0.815500	0.487100
C1911	C191	0.975500	0.822300	0.432100
H1771	H177	0.960900	0.800500	0.407000
C1921	C192	0.009500	0.862700	0.418100
H1781	H178	0.020800	0.866700	0.383800
C1931	C193	0.024900	0.894800	0.455000
C1941	C194	0.014400	0.887600	0.511000
H1791	H179	0.029000	0.910300	0.535500
C1951	C195	0.984500	0.849100	0.526200
H1801	H180	0.976900	0.843900	0.561300
N461	N46	0.437500	0.198100	0.136900
N471	N47	0.390900	0.219200	0.059100
H1811	H181	0.365800	0.214600	0.037200
N481	N48	0.429400	0.254000	0.048100
C1961	C196	0.440000	0.179200	0.186400
H1821	H182	0.467900	0.187400	0.208200
C1971	C197	0.398300	0.146000	0.204100
H1831	H183	0.401200	0.127000	0.235000
C1981	C198	0.350100	0.143000	0.171200
H1841	H184	0.320600	0.126700	0.184800
C1991	C199	0.347900	0.162600	0.124200
H1851	H185	0.318400	0.157700	0.103600
C2001	C200	0.391800	0.191700	0.104500
C2011	C201	0.429300	0.274100	0.998600
C2021	C202	0.386800	0.251200	0.959800
H1861	H186	0.367200	0.224300	0.977200
H1871	H187	0.403900	0.236600	0.929700
H1881	H188	0.363600	0.278600	0.949000
C2031	C203	0.463800	0.315500	0.987100
C2041	C204	0.475500	0.322300	0.932100
H1891	H189	0.460900	0.300500	0.907000
C2051	C205	0.509500	0.362700	0.918100
H1901	H190	0.520800	0.366700	0.883800
C2061	C206	0.524900	0.394800	0.955000
C2071	C207	0.514400	0.387600	0.011000
H1911	H191	0.529000	0.410300	0.035500
C2081	C208	0.484500	0.349100	0.026200
H1921	H192	0.476900	0.343900	0.061300
N491	N49	0.863100	0.062500	0.198100
N501	N50	0.940900	0.109100	0.219200
H1931	H193	0.962800	0.134200	0.214600
N511	N51	0.951900	0.070600	0.254000
C2091	C209	0.813600	0.060000	0.179200
H1941	H194	0.791800	0.032100	0.187400
C2101	C210	0.795900	0.101700	0.146000
H1951	H195	0.765000	0.098800	0.127000
C2111	C211	0.828800	0.149900	0.143000
H1961	H196	0.815200	0.179400	0.126700
C2121	C212	0.875800	0.152100	0.162600
H1971	H197	0.896400	0.181600	0.157700
C2131	C213	0.895500	0.108200	0.191700
C2141	C214	0.001400	0.070700	0.274100
C2151	C215	0.040200	0.113200	0.251200
H1981	H198	0.022800	0.132800	0.224300
H1991	H199	0.070300	0.096100	0.236600
H2001	H200	0.051000	0.136400	0.278600
C2161	C216	0.012900	0.036200	0.315500
C2171	C217	0.067900	0.024500	0.322300
H2011	H201	0.093000	0.039100	0.300500
C2181	C218	0.081900	0.990500	0.362700
H2021	H202	0.116200	0.979200	0.366700
C2191	C219	0.045000	0.975100	0.394800
C2201	C220	0.989000	0.985600	0.387600
H2031	H203	0.964500	0.971000	0.410300
C2211	C221	0.973800	0.015500	0.349100
H2041	H204	0.938700	0.023100	0.343900
N521	N52	0.363100	0.562500	0.698100
N531	N53	0.440900	0.609100	0.719200
H2051	H205	0.462800	0.634200	0.714600
N541	N54	0.451900	0.570600	0.754000
C2221	C222	0.313600	0.560000	0.679200
H2061	H206	0.291800	0.532100	0.687400
C2231	C223	0.295900	0.601700	0.646000
H2071	H207	0.265000	0.598800	0.627000
C2241	C224	0.328800	0.649900	0.643000
H2081	H208	0.315200	0.679400	0.626700
C2251	C225	0.375800	0.652100	0.662600
H2091	H209	0.396400	0.681600	0.657700
C2261	C226	0.395500	0.608200	0.691700
C2271	C227	0.501400	0.570700	0.774100
C2281	C228	0.540200	0.613200	0.751200
H2101	H210	0.522800	0.632800	0.724300
H2111	H211	0.570300	0.596100	0.736600
H2121	H212	0.551000	0.636400	0.778600
C2291	C229	0.512900	0.536200	0.815500
C2301	C230	0.567900	0.524500	0.822300
H2131	H213	0.593000	0.539100	0.800500
C2311	C231	0.581900	0.490500	0.862700
H2141	H214	0.616200	0.479200	0.866700
C2321	C232	0.545000	0.475100	0.894800
C2331	C233	0.489000	0.485600	0.887600
H2151	H215	0.464500	0.471000	0.910300
C2341	C234	0.473800	0.515500	0.849100
H2161	H216	0.438700	0.523100	0.843900
N551	N55	0.136900	0.562500	0.301900
N561	N56	0.059100	0.609100	0.280800
H2171	H217	0.037200	0.634200	0.285400
N571	N57	0.048100	0.570600	0.246000
C2351	C235	0.186400	0.560000	0.320800
H2181	H218	0.208200	0.532100	0.312600
C2361	C236	0.204100	0.601700	0.354000
H2191	H219	0.235000	0.598800	0.373000
C2371	C237	0.171200	0.649900	0.357000
H2201	H220	0.184800	0.679400	0.373300
C2381	C238	0.124200	0.652100	0.337400
H2211	H221	0.103600	0.681600	0.342300
C2391	C239	0.104500	0.608200	0.308300
C2401	C240	0.998600	0.570700	0.225900
C2411	C241	0.959800	0.613200	0.248800
H2221	H222	0.977200	0.632800	0.275700
H2231	H223	0.929700	0.596100	0.263400
H2241	H224	0.949000	0.636400	0.221400
C2421	C242	0.987100	0.536200	0.184500
C2431	C243	0.932100	0.524500	0.177700
H2251	H225	0.907000	0.539100	0.199500
C2441	C244	0.918100	0.490500	0.137300
H2261	H226	0.883800	0.479200	0.133300
C2451	C245	0.955000	0.475100	0.105200
C2461	C246	0.011000	0.485600	0.112400
H2271	H227	0.035500	0.471000	0.089700
C2471	C247	0.026200	0.515500	0.150900
H2281	H228	0.061300	0.523100	0.156100
N581	N58	0.636900	0.062500	0.801900
N591	N59	0.559100	0.109100	0.780800
H2291	H229	0.537200	0.134200	0.785400
N601	N60	0.548100	0.070600	0.746000
C2481	C248	0.686400	0.060000	0.820800
H2301	H230	0.708200	0.032100	0.812600
C2491	C249	0.704100	0.101700	0.854000
H2311	H231	0.735000	0.098800	0.873000
C2501	C250	0.671200	0.149900	0.857000
H2321	H232	0.684800	0.179400	0.873300
C2511	C251	0.624200	0.152100	0.837400
H2331	H233	0.603600	0.181600	0.842300
C2521	C252	0.604500	0.108200	0.808300
C2531	C253	0.498600	0.070700	0.725900
C2541	C254	0.459800	0.113200	0.748800
H2341	H234	0.477200	0.132800	0.775700
H2351	H235	0.429700	0.096100	0.763400
H2361	H236	0.449000	0.136400	0.721400
C2551	C255	0.487100	0.036200	0.684500
C2561	C256	0.432100	0.024500	0.677700
H2371	H237	0.407000	0.039100	0.699500
C2571	C257	0.418100	0.990500	0.637300
H2381	H238	0.383800	0.979200	0.633300
C2581	C258	0.455000	0.975100	0.605200
C2591	C259	0.511000	0.985600	0.612400
H2391	H239	0.535500	0.971000	0.589700
C2601	C260	0.526200	0.015500	0.650900
H2401	H240	0.561300	0.023100	0.656100
N611	N61	0.363100	0.437500	0.801900
N621	N62	0.440900	0.390900	0.780800
H2411	H241	0.462800	0.365800	0.785400
N631	N63	0.451900	0.429400	0.746000
C2611	C261	0.313600	0.440000	0.820800
H2421	H242	0.291800	0.467900	0.812600
C2621	C262	0.295900	0.398300	0.854000
H2431	H243	0.265000	0.401200	0.873000
C2631	C263	0.328800	0.350100	0.857000
H2441	H244	0.315200	0.320600	0.873300
C2641	C264	0.375800	0.347900	0.837400
H2451	H245	0.396400	0.318400	0.842300
C2651	C265	0.395500	0.391800	0.808300
C2661	C266	0.501400	0.429300	0.725900
C2671	C267	0.540200	0.386800	0.748800
H2461	H246	0.522800	0.367200	0.775700
H2471	H247	0.570300	0.403900	0.763400
H2481	H248	0.551000	0.363600	0.721400
C2681	C268	0.512900	0.463800	0.684500
C2691	C269	0.567900	0.475500	0.677700
H2491	H249	0.593000	0.460900	0.699500
C2701	C270	0.581900	0.509500	0.637300
H2501	H250	0.616200	0.520800	0.633300
C2711	C271	0.545000	0.524900	0.605200
C2721	C272	0.489000	0.514400	0.612400
H2511	H251	0.464500	0.529000	0.589700
C2731	C273	0.473800	0.484500	0.650900
H2521	H252	0.438700	0.476900	0.656100
N641	N64	0.863100	0.937500	0.301900
N651	N65	0.940900	0.890900	0.280800
H2531	H253	0.962800	0.865800	0.285400
N661	N66	0.951900	0.929400	0.246000
C2741	C274	0.813600	0.940000	0.320800
H2541	H254	0.791800	0.967900	0.312600
C2751	C275	0.795900	0.898300	0.354000
H2551	H255	0.765000	0.901200	0.373000
C2761	C276	0.828800	0.850100	0.357000
H2561	H256	0.815200	0.820600	0.373300
C2771	C277	0.875800	0.847900	0.337400
H2571	H257	0.896400	0.818400	0.342300
C2781	C278	0.895500	0.891800	0.308300
C2791	C279	0.001400	0.929300	0.225900
C2801	C280	0.040200	0.886800	0.248800
H2581	H258	0.022800	0.867200	0.275700
H2591	H259	0.070300	0.903900	0.263400
H2601	H260	0.051000	0.863600	0.221400
C2811	C281	0.012900	0.963800	0.184500
C2821	C282	0.067900	0.975500	0.177700
H2611	H261	0.093000	0.960900	0.199500
C2831	C283	0.081900	0.009500	0.137300
H2621	H262	0.116200	0.020800	0.133300
C2841	C284	0.045000	0.024900	0.105200
C2851	C285	0.989000	0.014400	0.112400
H2631	H263	0.964500	0.029000	0.089700
C2861	C286	0.973800	0.984500	0.150900
H2641	H264	0.938700	0.976900	0.156100
N671	N67	0.636900	0.937500	0.698100
N681	N68	0.559100	0.890900	0.719200
H2651	H265	0.537200	0.865800	0.714600
N691	N69	0.548100	0.929400	0.754000
C2871	C287	0.686400	0.940000	0.679200
H2661	H266	0.708200	0.967900	0.687400
C2881	C288	0.704100	0.898300	0.646000
H2671	H267	0.735000	0.901200	0.627000
C2891	C289	0.671200	0.850100	0.643000
H2681	H268	0.684800	0.820600	0.626700
C2901	C290	0.624200	0.847900	0.662600
H2691	H269	0.603600	0.818400	0.657700
C2911	C291	0.604500	0.891800	0.691700
C2921	C292	0.498600	0.929300	0.774100
C2931	C293	0.459800	0.886800	0.751200
H2701	H270	0.477200	0.867200	0.724300
H2711	H271	0.429700	0.903900	0.736600
H2721	H272	0.449000	0.863600	0.778600
C2941	C294	0.487100	0.963800	0.815500
C2951	C295	0.432100	0.975500	0.822300
H2731	H273	0.407000	0.960900	0.800500
C2961	C296	0.418100	0.009500	0.862700
H2741	H274	0.383800	0.020800	0.866700
C2971	C297	0.455000	0.024900	0.894800
C2981	C298	0.511000	0.014400	0.887600
H2751	H275	0.535500	0.029000	0.910300
C2991	C299	0.526200	0.984500	0.849100
H2761	H276	0.561300	0.976900	0.843900
N701	N70	0.136900	0.437500	0.198100
N711	N71	0.059100	0.390900	0.219200
H2771	H277	0.037200	0.365800	0.214600
N721	N72	0.048100	0.429400	0.254000
C3001	C300	0.186400	0.440000	0.179200
H2781	H278	0.208200	0.467900	0.187400
C3011	C301	0.204100	0.398300	0.146000
H2791	H279	0.235000	0.401200	0.127000
C3021	C302	0.171200	0.350100	0.143000
H2801	H280	0.184800	0.320600	0.126700
C3031	C303	0.124200	0.347900	0.162600
H2811	H281	0.103600	0.318400	0.157700
C3041	C304	0.104500	0.391800	0.191700
C3051	C305	0.998600	0.429300	0.274100
C3061	C306	0.959800	0.386800	0.251200
H2821	H282	0.977200	0.367200	0.224300
H2831	H283	0.929700	0.403900	0.236600
H2841	H284	0.949000	0.363600	0.278600
C3071	C307	0.987100	0.463800	0.315500
C3081	C308	0.932100	0.475500	0.322300
H2851	H285	0.907000	0.460900	0.300500
C3091	C309	0.918100	0.509500	0.362700
H2861	H286	0.883800	0.520800	0.366700
C3101	C310	0.955000	0.524900	0.394800
C3111	C311	0.011000	0.514400	0.387600
H2871	H287	0.035500	0.529000	0.410300
C3121	C312	0.026200	0.484500	0.349100
H2881	H288	0.061300	0.476900	0.343900
Ag11	Ag1	0.250000	0.891330	0.000000
Ag21	Ag2	0.250000	0.108670	0.500000
Ag31	Ag3	0.750000	0.391330	0.500000
Ag41	Ag4	0.750000	0.608670	0.000000
Ag51	Ag5	0.000000	0.250000	0.891330
Ag61	Ag6	0.500000	0.250000	0.108670
Ag71	Ag7	0.500000	0.750000	0.391330
Ag81	Ag8	0.000000	0.750000	0.608670
Ag91	Ag9	0.891330	0.000000	0.250000
Ag101	Ag10	0.108670	0.500000	0.250000
Ag111	Ag11	0.391330	0.500000	0.750000
Ag121	Ag12	0.608670	0.000000	0.750000
N731	N73	0.440400	0.059600	0.940400
N741	N74	0.940400	0.559600	0.440400
N751	N75	0.059600	0.940400	0.440400
N761	N76	0.559600	0.440400	0.940400
N771	N77	0.559600	0.559600	0.559600
N781	N78	0.059600	0.059600	0.059600
N791	N79	0.940400	0.440400	0.059600
N801	N80	0.440400	0.940400	0.559600
