data_ADAVAE_freeONLY_PM
_symmetry_space_group_name_H-M	'P1'
_cell_length_a	25.381000
_cell_length_b	25.381000
_cell_length_c	25.381000
_cell_angle_alpha	90.000000
_cell_angle_beta	90.000000
_cell_angle_gamma	90.000000
_symmetry_Int_Tables_number 1

loop_
_symmetry_equiv_pos_as_xyz
'x,y,z'

loop_
_atom_site_label
_atom_site_type_symbol
_atom_site_fract_x
_atom_site_fract_y
_atom_site_fract_z
N11	N1	0.637800	0.937000	0.696400
N21	N2	0.562300	0.892000	0.716400
H11	H1	0.539500	0.868000	0.709100
N31	N3	0.550500	0.928100	0.752500
C11	C1	0.684600	0.937900	0.674100
H21	H2	0.705300	0.967700	0.678500
C21	C2	0.705300	0.895400	0.643500
H31	H3	0.737100	0.898300	0.625600
C31	C3	0.675800	0.850200	0.642100
H41	H4	0.689000	0.820300	0.625600
C41	C4	0.627200	0.849200	0.664900
H51	H5	0.607100	0.818800	0.662000
C51	C5	0.606800	0.891800	0.692100
C61	C6	0.502600	0.926400	0.769200
C71	C7	0.460100	0.892000	0.746500
H61	H6	0.474700	0.870300	0.719100
H71	H7	0.432600	0.913700	0.732100
H81	H8	0.445800	0.870000	0.773700
C81	C8	0.487500	0.960000	0.814500
C91	C9	0.435600	0.977300	0.822600
H91	H9	0.410000	0.967400	0.798400
C101	C10	0.420200	0.008700	0.865200
H101	H10	0.385100	0.016900	0.871300
C111	C11	0.457300	0.025800	0.895700
C121	C12	0.510500	0.013100	0.889000
H111	H11	0.536200	0.025800	0.911800
C131	C13	0.523100	0.981800	0.848200
H121	H12	0.558600	0.974600	0.842500
N41	N4	0.137800	0.437000	0.196400
N51	N5	0.062300	0.392000	0.216400
H131	H13	0.039500	0.368000	0.209100
N61	N6	0.050500	0.428100	0.252500
C141	C14	0.184600	0.437900	0.174100
H141	H14	0.205300	0.467700	0.178500
C151	C15	0.205300	0.395400	0.143500
H151	H15	0.237100	0.398300	0.125600
C161	C16	0.175800	0.350200	0.142100
H161	H16	0.189000	0.320300	0.125600
C171	C17	0.127200	0.349200	0.164900
H171	H17	0.107100	0.318800	0.162000
C181	C18	0.106800	0.391800	0.192100
C191	C19	0.002600	0.426400	0.269200
C201	C20	0.960100	0.392000	0.246500
H181	H18	0.974700	0.370300	0.219100
H191	H19	0.932600	0.413700	0.232100
H201	H20	0.945800	0.370000	0.273700
C211	C21	0.987500	0.460000	0.314500
C221	C22	0.935600	0.477300	0.322600
H211	H21	0.910000	0.467400	0.298400
C231	C23	0.920200	0.508700	0.365200
H221	H22	0.885100	0.516900	0.371300
C241	C24	0.957300	0.525800	0.395700
C251	C25	0.010500	0.513100	0.389000
H231	H23	0.036200	0.525800	0.411800
C261	C26	0.023100	0.481800	0.348200
H241	H24	0.058600	0.474600	0.342500
N71	N7	0.862200	0.063000	0.196400
N81	N8	0.937700	0.108000	0.216400
H251	H25	0.960500	0.132000	0.209100
N91	N9	0.949500	0.071900	0.252500
C271	C27	0.815400	0.062100	0.174100
H261	H26	0.794700	0.032300	0.178500
C281	C28	0.794700	0.104600	0.143500
H271	H27	0.762900	0.101700	0.125600
C291	C29	0.824200	0.149800	0.142100
H281	H28	0.811000	0.179700	0.125600
C301	C30	0.872800	0.150800	0.164900
H291	H29	0.892900	0.181200	0.162000
C311	C31	0.893200	0.108200	0.192100
C321	C32	0.997400	0.073600	0.269200
C331	C33	0.039900	0.108000	0.246500
H301	H30	0.025300	0.129700	0.219100
H311	H31	0.067400	0.086300	0.232100
H321	H32	0.054200	0.130000	0.273700
C341	C34	0.012500	0.040000	0.314500
C351	C35	0.064400	0.022700	0.322600
H331	H33	0.090000	0.032600	0.298400
C361	C36	0.079800	0.991300	0.365200
H341	H34	0.114900	0.983100	0.371300
C371	C37	0.042700	0.974200	0.395700
C381	C38	0.989500	0.986900	0.389000
H351	H35	0.963800	0.974200	0.411800
C391	C39	0.976900	0.018200	0.348200
H361	H36	0.941400	0.025400	0.342500
N101	N10	0.362200	0.563000	0.696400
N111	N11	0.437700	0.608000	0.716400
H371	H37	0.460500	0.632000	0.709100
N121	N12	0.449500	0.571900	0.752500
C401	C40	0.315400	0.562100	0.674100
H381	H38	0.294700	0.532300	0.678500
C411	C41	0.294700	0.604600	0.643500
H391	H39	0.262900	0.601700	0.625600
C421	C42	0.324200	0.649800	0.642100
H401	H40	0.311000	0.679700	0.625600
C431	C43	0.372800	0.650800	0.664900
H411	H41	0.392900	0.681200	0.662000
C441	C44	0.393200	0.608200	0.692100
C451	C45	0.497400	0.573600	0.769200
C461	C46	0.539900	0.608000	0.746500
H421	H42	0.525300	0.629700	0.719100
H431	H43	0.567400	0.586300	0.732100
H441	H44	0.554200	0.630000	0.773700
C471	C47	0.512500	0.540000	0.814500
C481	C48	0.564400	0.522700	0.822600
H451	H45	0.590000	0.532600	0.798400
C491	C49	0.579800	0.491300	0.865200
H461	H46	0.614900	0.483100	0.871300
C501	C50	0.542700	0.474200	0.895700
C511	C51	0.489500	0.486900	0.889000
H471	H47	0.463800	0.474200	0.911800
C521	C52	0.476900	0.518200	0.848200
H481	H48	0.441400	0.525400	0.842500
N131	N13	0.362200	0.437000	0.803600
N141	N14	0.437700	0.392000	0.783600
H491	H49	0.460500	0.368000	0.790900
N151	N15	0.449500	0.428100	0.747500
C531	C53	0.315400	0.437900	0.825900
H501	H50	0.294700	0.467700	0.821500
C541	C54	0.294700	0.395400	0.856500
H511	H51	0.262900	0.398300	0.874400
C551	C55	0.324200	0.350200	0.857900
H521	H52	0.311000	0.320300	0.874400
C561	C56	0.372800	0.349200	0.835100
H531	H53	0.392900	0.318800	0.838000
C571	C57	0.393200	0.391800	0.807900
C581	C58	0.497400	0.426400	0.730800
C591	C59	0.539900	0.392000	0.753500
H541	H54	0.525300	0.370300	0.780900
H551	H55	0.567400	0.413700	0.767900
H561	H56	0.554200	0.370000	0.726300
C601	C60	0.512500	0.460000	0.685500
C611	C61	0.564400	0.477300	0.677400
H571	H57	0.590000	0.467400	0.701600
C621	C62	0.579800	0.508700	0.634800
H581	H58	0.614900	0.516900	0.628700
C631	C63	0.542700	0.525800	0.604300
C641	C64	0.489500	0.513100	0.611000
H591	H59	0.463800	0.525800	0.588200
C651	C65	0.476900	0.481800	0.651800
H601	H60	0.441400	0.474600	0.657500
N161	N16	0.862200	0.937000	0.303600
N171	N17	0.937700	0.892000	0.283600
H611	H61	0.960500	0.868000	0.290900
N181	N18	0.949500	0.928100	0.247500
C661	C66	0.815400	0.937900	0.325900
H621	H62	0.794700	0.967700	0.321500
C671	C67	0.794700	0.895400	0.356500
H631	H63	0.762900	0.898300	0.374400
C681	C68	0.824200	0.850200	0.357900
H641	H64	0.811000	0.820300	0.374400
C691	C69	0.872800	0.849200	0.335100
H651	H65	0.892900	0.818800	0.338000
C701	C70	0.893200	0.891800	0.307900
C711	C71	0.997400	0.926400	0.230800
C721	C72	0.039900	0.892000	0.253500
H661	H66	0.025300	0.870300	0.280900
H671	H67	0.067400	0.913700	0.267900
H681	H68	0.054200	0.870000	0.226300
C731	C73	0.012500	0.960000	0.185500
C741	C74	0.064400	0.977300	0.177400
H691	H69	0.090000	0.967400	0.201600
C751	C75	0.079800	0.008700	0.134800
H701	H70	0.114900	0.016900	0.128700
C761	C76	0.042700	0.025800	0.104300
C771	C77	0.989500	0.013100	0.111000
H711	H71	0.963800	0.025800	0.088200
C781	C78	0.976900	0.981800	0.151800
H721	H72	0.941400	0.974600	0.157500
N191	N19	0.137800	0.563000	0.303600
N201	N20	0.062300	0.608000	0.283600
H731	H73	0.039500	0.632000	0.290900
N211	N21	0.050500	0.571900	0.247500
C791	C79	0.184600	0.562100	0.325900
H741	H74	0.205300	0.532300	0.321500
C801	C80	0.205300	0.604600	0.356500
H751	H75	0.237100	0.601700	0.374400
C811	C81	0.175800	0.649800	0.357900
H761	H76	0.189000	0.679700	0.374400
C821	C82	0.127200	0.650800	0.335100
H771	H77	0.107100	0.681200	0.338000
C831	C83	0.106800	0.608200	0.307900
C841	C84	0.002600	0.573600	0.230800
C851	C85	0.960100	0.608000	0.253500
H781	H78	0.974700	0.629700	0.280900
H791	H79	0.932600	0.586300	0.267900
H801	H80	0.945800	0.630000	0.226300
C861	C86	0.987500	0.540000	0.185500
C871	C87	0.935600	0.522700	0.177400
H811	H81	0.910000	0.532600	0.201600
C881	C88	0.920200	0.491300	0.134800
H821	H82	0.885100	0.483100	0.128700
C891	C89	0.957300	0.474200	0.104300
C901	C90	0.010500	0.486900	0.111000
H831	H83	0.036200	0.474200	0.088200
C911	C91	0.023100	0.518200	0.151800
H841	H84	0.058600	0.525400	0.157500
N221	N22	0.637800	0.063000	0.803600
N231	N23	0.562300	0.108000	0.783600
H851	H85	0.539500	0.132000	0.790900
N241	N24	0.550500	0.071900	0.747500
C921	C92	0.684600	0.062100	0.825900
H861	H86	0.705300	0.032300	0.821500
C931	C93	0.705300	0.104600	0.856500
H871	H87	0.737100	0.101700	0.874400
C941	C94	0.675800	0.149800	0.857900
H881	H88	0.689000	0.179700	0.874400
C951	C95	0.627200	0.150800	0.835100
H891	H89	0.607100	0.181200	0.838000
C961	C96	0.606800	0.108200	0.807900
C971	C97	0.502600	0.073600	0.730800
C981	C98	0.460100	0.108000	0.753500
H901	H90	0.474700	0.129700	0.780900
H911	H91	0.432600	0.086300	0.767900
H921	H92	0.445800	0.130000	0.726300
C991	C99	0.487500	0.040000	0.685500
C1001	C100	0.435600	0.022700	0.677400
H931	H93	0.410000	0.032600	0.701600
C1011	C101	0.420200	0.991300	0.634800
H941	H94	0.385100	0.983100	0.628700
C1021	C102	0.457300	0.974200	0.604300
C1031	C103	0.510500	0.986900	0.611000
H951	H95	0.536200	0.974200	0.588200
C1041	C104	0.523100	0.018200	0.651800
H961	H96	0.558600	0.025400	0.657500
N251	N25	0.696400	0.637800	0.937000
N261	N26	0.716400	0.562300	0.892000
H971	H97	0.709100	0.539500	0.868000
N271	N27	0.752500	0.550500	0.928100
C1051	C105	0.674100	0.684600	0.937900
H981	H98	0.678500	0.705300	0.967700
C1061	C106	0.643500	0.705300	0.895400
H991	H99	0.625600	0.737100	0.898300
C1071	C107	0.642100	0.675800	0.850200
H1001	H100	0.625600	0.689000	0.820300
C1081	C108	0.664900	0.627200	0.849200
H1011	H101	0.662000	0.607100	0.818800
C1091	C109	0.692100	0.606800	0.891800
C1101	C110	0.769200	0.502600	0.926400
C1111	C111	0.746500	0.460100	0.892000
H1021	H102	0.719100	0.474700	0.870300
H1031	H103	0.732100	0.432600	0.913700
H1041	H104	0.773700	0.445800	0.870000
C1121	C112	0.814500	0.487500	0.960000
C1131	C113	0.822600	0.435600	0.977300
H1051	H105	0.798400	0.410000	0.967400
C1141	C114	0.865200	0.420200	0.008700
H1061	H106	0.871300	0.385100	0.016900
C1151	C115	0.895700	0.457300	0.025800
C1161	C116	0.889000	0.510500	0.013100
H1071	H107	0.911800	0.536200	0.025800
C1171	C117	0.848200	0.523100	0.981800
H1081	H108	0.842500	0.558600	0.974600
N281	N28	0.196400	0.137800	0.437000
N291	N29	0.216400	0.062300	0.392000
H1091	H109	0.209100	0.039500	0.368000
N301	N30	0.252500	0.050500	0.428100
C1181	C118	0.174100	0.184600	0.437900
H1101	H110	0.178500	0.205300	0.467700
C1191	C119	0.143500	0.205300	0.395400
H1111	H111	0.125600	0.237100	0.398300
C1201	C120	0.142100	0.175800	0.350200
H1121	H112	0.125600	0.189000	0.320300
C1211	C121	0.164900	0.127200	0.349200
H1131	H113	0.162000	0.107100	0.318800
C1221	C122	0.192100	0.106800	0.391800
C1231	C123	0.269200	0.002600	0.426400
C1241	C124	0.246500	0.960100	0.392000
H1141	H114	0.219100	0.974700	0.370300
H1151	H115	0.232100	0.932600	0.413700
H1161	H116	0.273700	0.945800	0.370000
C1251	C125	0.314500	0.987500	0.460000
C1261	C126	0.322600	0.935600	0.477300
H1171	H117	0.298400	0.910000	0.467400
C1271	C127	0.365200	0.920200	0.508700
H1181	H118	0.371300	0.885100	0.516900
C1281	C128	0.395700	0.957300	0.525800
C1291	C129	0.389000	0.010500	0.513100
H1191	H119	0.411800	0.036200	0.525800
C1301	C130	0.348200	0.023100	0.481800
H1201	H120	0.342500	0.058600	0.474600
N311	N31	0.196400	0.862200	0.063000
N321	N32	0.216400	0.937700	0.108000
H1211	H121	0.209100	0.960500	0.132000
N331	N33	0.252500	0.949500	0.071900
C1311	C131	0.174100	0.815400	0.062100
H1221	H122	0.178500	0.794700	0.032300
C1321	C132	0.143500	0.794700	0.104600
H1231	H123	0.125600	0.762900	0.101700
C1331	C133	0.142100	0.824200	0.149800
H1241	H124	0.125600	0.811000	0.179700
C1341	C134	0.164900	0.872800	0.150800
H1251	H125	0.162000	0.892900	0.181200
C1351	C135	0.192100	0.893200	0.108200
C1361	C136	0.269200	0.997400	0.073600
C1371	C137	0.246500	0.039900	0.108000
H1261	H126	0.219100	0.025300	0.129700
H1271	H127	0.232100	0.067400	0.086300
H1281	H128	0.273700	0.054200	0.130000
C1381	C138	0.314500	0.012500	0.040000
C1391	C139	0.322600	0.064400	0.022700
H1291	H129	0.298400	0.090000	0.032600
C1401	C140	0.365200	0.079800	0.991300
H1301	H130	0.371300	0.114900	0.983100
C1411	C141	0.395700	0.042700	0.974200
C1421	C142	0.389000	0.989500	0.986900
H1311	H131	0.411800	0.963800	0.974200
C1431	C143	0.348200	0.976900	0.018200
H1321	H132	0.342500	0.941400	0.025400
N341	N34	0.696400	0.362200	0.563000
N351	N35	0.716400	0.437700	0.608000
H1331	H133	0.709100	0.460500	0.632000
N361	N36	0.752500	0.449500	0.571900
C1441	C144	0.674100	0.315400	0.562100
H1341	H134	0.678500	0.294700	0.532300
C1451	C145	0.643500	0.294700	0.604600
H1351	H135	0.625600	0.262900	0.601700
C1461	C146	0.642100	0.324200	0.649800
H1361	H136	0.625600	0.311000	0.679700
C1471	C147	0.664900	0.372800	0.650800
H1371	H137	0.662000	0.392900	0.681200
C1481	C148	0.692100	0.393200	0.608200
C1491	C149	0.769200	0.497400	0.573600
C1501	C150	0.746500	0.539900	0.608000
H1381	H138	0.719100	0.525300	0.629700
H1391	H139	0.732100	0.567400	0.586300
H1401	H140	0.773700	0.554200	0.630000
C1511	C151	0.814500	0.512500	0.540000
C1521	C152	0.822600	0.564400	0.522700
H1411	H141	0.798400	0.590000	0.532600
C1531	C153	0.865200	0.579800	0.491300
H1421	H142	0.871300	0.614900	0.483100
C1541	C154	0.895700	0.542700	0.474200
C1551	C155	0.889000	0.489500	0.486900
H1431	H143	0.911800	0.463800	0.474200
C1561	C156	0.848200	0.476900	0.518200
H1441	H144	0.842500	0.441400	0.525400
N371	N37	0.803600	0.362200	0.437000
N381	N38	0.783600	0.437700	0.392000
H1451	H145	0.790900	0.460500	0.368000
N391	N39	0.747500	0.449500	0.428100
C1571	C157	0.825900	0.315400	0.437900
H1461	H146	0.821500	0.294700	0.467700
C1581	C158	0.856500	0.294700	0.395400
H1471	H147	0.874400	0.262900	0.398300
C1591	C159	0.857900	0.324200	0.350200
H1481	H148	0.874400	0.311000	0.320300
C1601	C160	0.835100	0.372800	0.349200
H1491	H149	0.838000	0.392900	0.318800
C1611	C161	0.807900	0.393200	0.391800
C1621	C162	0.730800	0.497400	0.426400
C1631	C163	0.753500	0.539900	0.392000
H1501	H150	0.780900	0.525300	0.370300
H1511	H151	0.767900	0.567400	0.413700
H1521	H152	0.726300	0.554200	0.370000
C1641	C164	0.685500	0.512500	0.460000
C1651	C165	0.677400	0.564400	0.477300
H1531	H153	0.701600	0.590000	0.467400
C1661	C166	0.634800	0.579800	0.508700
H1541	H154	0.628700	0.614900	0.516900
C1671	C167	0.604300	0.542700	0.525800
C1681	C168	0.611000	0.489500	0.513100
H1551	H155	0.588200	0.463800	0.525800
C1691	C169	0.651800	0.476900	0.481800
H1561	H156	0.657500	0.441400	0.474600
N401	N40	0.303600	0.862200	0.937000
N411	N41	0.283600	0.937700	0.892000
H1571	H157	0.290900	0.960500	0.868000
N421	N42	0.247500	0.949500	0.928100
C1701	C170	0.325900	0.815400	0.937900
H1581	H158	0.321500	0.794700	0.967700
C1711	C171	0.356500	0.794700	0.895400
H1591	H159	0.374400	0.762900	0.898300
C1721	C172	0.357900	0.824200	0.850200
H1601	H160	0.374400	0.811000	0.820300
C1731	C173	0.335100	0.872800	0.849200
H1611	H161	0.338000	0.892900	0.818800
C1741	C174	0.307900	0.893200	0.891800
C1751	C175	0.230800	0.997400	0.926400
C1761	C176	0.253500	0.039900	0.892000
H1621	H162	0.280900	0.025300	0.870300
H1631	H163	0.267900	0.067400	0.913700
H1641	H164	0.226300	0.054200	0.870000
C1771	C177	0.185500	0.012500	0.960000
C1781	C178	0.177400	0.064400	0.977300
H1651	H165	0.201600	0.090000	0.967400
C1791	C179	0.134800	0.079800	0.008700
H1661	H166	0.128700	0.114900	0.016900
C1801	C180	0.104300	0.042700	0.025800
C1811	C181	0.111000	0.989500	0.013100
H1671	H167	0.088200	0.963800	0.025800
C1821	C182	0.151800	0.976900	0.981800
H1681	H168	0.157500	0.941400	0.974600
N431	N43	0.303600	0.137800	0.563000
N441	N44	0.283600	0.062300	0.608000
H1691	H169	0.290900	0.039500	0.632000
N451	N45	0.247500	0.050500	0.571900
C1831	C183	0.325900	0.184600	0.562100
H1701	H170	0.321500	0.205300	0.532300
C1841	C184	0.356500	0.205300	0.604600
H1711	H171	0.374400	0.237100	0.601700
C1851	C185	0.357900	0.175800	0.649800
H1721	H172	0.374400	0.189000	0.679700
C1861	C186	0.335100	0.127200	0.650800
H1731	H173	0.338000	0.107100	0.681200
C1871	C187	0.307900	0.106800	0.608200
C1881	C188	0.230800	0.002600	0.573600
C1891	C189	0.253500	0.960100	0.608000
H1741	H174	0.280900	0.974700	0.629700
H1751	H175	0.267900	0.932600	0.586300
H1761	H176	0.226300	0.945800	0.630000
C1901	C190	0.185500	0.987500	0.540000
C1911	C191	0.177400	0.935600	0.522700
H1771	H177	0.201600	0.910000	0.532600
C1921	C192	0.134800	0.920200	0.491300
H1781	H178	0.128700	0.885100	0.483100
C1931	C193	0.104300	0.957300	0.474200
C1941	C194	0.111000	0.010500	0.486900
H1791	H179	0.088200	0.036200	0.474200
C1951	C195	0.151800	0.023100	0.518200
H1801	H180	0.157500	0.058600	0.525400
N461	N46	0.803600	0.637800	0.063000
N471	N47	0.783600	0.562300	0.108000
H1811	H181	0.790900	0.539500	0.132000
N481	N48	0.747500	0.550500	0.071900
C1961	C196	0.825900	0.684600	0.062100
H1821	H182	0.821500	0.705300	0.032300
C1971	C197	0.856500	0.705300	0.104600
H1831	H183	0.874400	0.737100	0.101700
C1981	C198	0.857900	0.675800	0.149800
H1841	H184	0.874400	0.689000	0.179700
C1991	C199	0.835100	0.627200	0.150800
H1851	H185	0.838000	0.607100	0.181200
C2001	C200	0.807900	0.606800	0.108200
C2011	C201	0.730800	0.502600	0.073600
C2021	C202	0.753500	0.460100	0.108000
H1861	H186	0.780900	0.474700	0.129700
H1871	H187	0.767900	0.432600	0.086300
H1881	H188	0.726300	0.445800	0.130000
C2031	C203	0.685500	0.487500	0.040000
C2041	C204	0.677400	0.435600	0.022700
H1891	H189	0.701600	0.410000	0.032600
C2051	C205	0.634800	0.420200	0.991300
H1901	H190	0.628700	0.385100	0.983100
C2061	C206	0.604300	0.457300	0.974200
C2071	C207	0.611000	0.510500	0.986900
H1911	H191	0.588200	0.536200	0.974200
C2081	C208	0.651800	0.523100	0.018200
H1921	H192	0.657500	0.558600	0.025400
N491	N49	0.937000	0.696400	0.637800
N501	N50	0.892000	0.716400	0.562300
H1931	H193	0.868000	0.709100	0.539500
N511	N51	0.928100	0.752500	0.550500
C2091	C209	0.937900	0.674100	0.684600
H1941	H194	0.967700	0.678500	0.705300
C2101	C210	0.895400	0.643500	0.705300
H1951	H195	0.898300	0.625600	0.737100
C2111	C211	0.850200	0.642100	0.675800
H1961	H196	0.820300	0.625600	0.689000
C2121	C212	0.849200	0.664900	0.627200
H1971	H197	0.818800	0.662000	0.607100
C2131	C213	0.891800	0.692100	0.606800
C2141	C214	0.926400	0.769200	0.502600
C2151	C215	0.892000	0.746500	0.460100
H1981	H198	0.870300	0.719100	0.474700
H1991	H199	0.913700	0.732100	0.432600
H2001	H200	0.870000	0.773700	0.445800
C2161	C216	0.960000	0.814500	0.487500
C2171	C217	0.977300	0.822600	0.435600
H2011	H201	0.967400	0.798400	0.410000
C2181	C218	0.008700	0.865200	0.420200
H2021	H202	0.016900	0.871300	0.385100
C2191	C219	0.025800	0.895700	0.457300
C2201	C220	0.013100	0.889000	0.510500
H2031	H203	0.025800	0.911800	0.536200
C2211	C221	0.981800	0.848200	0.523100
H2041	H204	0.974600	0.842500	0.558600
N521	N52	0.437000	0.196400	0.137800
N531	N53	0.392000	0.216400	0.062300
H2051	H205	0.368000	0.209100	0.039500
N541	N54	0.428100	0.252500	0.050500
C2221	C222	0.437900	0.174100	0.184600
H2061	H206	0.467700	0.178500	0.205300
C2231	C223	0.395400	0.143500	0.205300
H2071	H207	0.398300	0.125600	0.237100
C2241	C224	0.350200	0.142100	0.175800
H2081	H208	0.320300	0.125600	0.189000
C2251	C225	0.349200	0.164900	0.127200
H2091	H209	0.318800	0.162000	0.107100
C2261	C226	0.391800	0.192100	0.106800
C2271	C227	0.426400	0.269200	0.002600
C2281	C228	0.392000	0.246500	0.960100
H2101	H210	0.370300	0.219100	0.974700
H2111	H211	0.413700	0.232100	0.932600
H2121	H212	0.370000	0.273700	0.945800
C2291	C229	0.460000	0.314500	0.987500
C2301	C230	0.477300	0.322600	0.935600
H2131	H213	0.467400	0.298400	0.910000
C2311	C231	0.508700	0.365200	0.920200
H2141	H214	0.516900	0.371300	0.885100
C2321	C232	0.525800	0.395700	0.957300
C2331	C233	0.513100	0.389000	0.010500
H2151	H215	0.525800	0.411800	0.036200
C2341	C234	0.481800	0.348200	0.023100
H2161	H216	0.474600	0.342500	0.058600
N551	N55	0.063000	0.196400	0.862200
N561	N56	0.108000	0.216400	0.937700
H2171	H217	0.132000	0.209100	0.960500
N571	N57	0.071900	0.252500	0.949500
C2351	C235	0.062100	0.174100	0.815400
H2181	H218	0.032300	0.178500	0.794700
C2361	C236	0.104600	0.143500	0.794700
H2191	H219	0.101700	0.125600	0.762900
C2371	C237	0.149800	0.142100	0.824200
H2201	H220	0.179700	0.125600	0.811000
C2381	C238	0.150800	0.164900	0.872800
H2211	H221	0.181200	0.162000	0.892900
C2391	C239	0.108200	0.192100	0.893200
C2401	C240	0.073600	0.269200	0.997400
C2411	C241	0.108000	0.246500	0.039900
H2221	H222	0.129700	0.219100	0.025300
H2231	H223	0.086300	0.232100	0.067400
H2241	H224	0.130000	0.273700	0.054200
C2421	C242	0.040000	0.314500	0.012500
C2431	C243	0.022700	0.322600	0.064400
H2251	H225	0.032600	0.298400	0.090000
C2441	C244	0.991300	0.365200	0.079800
H2261	H226	0.983100	0.371300	0.114900
C2451	C245	0.974200	0.395700	0.042700
C2461	C246	0.986900	0.389000	0.989500
H2271	H227	0.974200	0.411800	0.963800
C2471	C247	0.018200	0.348200	0.976900
H2281	H228	0.025400	0.342500	0.941400
N581	N58	0.563000	0.696400	0.362200
N591	N59	0.608000	0.716400	0.437700
H2291	H229	0.632000	0.709100	0.460500
N601	N60	0.571900	0.752500	0.449500
C2481	C248	0.562100	0.674100	0.315400
H2301	H230	0.532300	0.678500	0.294700
C2491	C249	0.604600	0.643500	0.294700
H2311	H231	0.601700	0.625600	0.262900
C2501	C250	0.649800	0.642100	0.324200
H2321	H232	0.679700	0.625600	0.311000
C2511	C251	0.650800	0.664900	0.372800
H2331	H233	0.681200	0.662000	0.392900
C2521	C252	0.608200	0.692100	0.393200
C2531	C253	0.573600	0.769200	0.497400
C2541	C254	0.608000	0.746500	0.539900
H2341	H234	0.629700	0.719100	0.525300
H2351	H235	0.586300	0.732100	0.567400
H2361	H236	0.630000	0.773700	0.554200
C2551	C255	0.540000	0.814500	0.512500
C2561	C256	0.522700	0.822600	0.564400
H2371	H237	0.532600	0.798400	0.590000
C2571	C257	0.491300	0.865200	0.579800
H2381	H238	0.483100	0.871300	0.614900
C2581	C258	0.474200	0.895700	0.542700
C2591	C259	0.486900	0.889000	0.489500
H2391	H239	0.474200	0.911800	0.463800
C2601	C260	0.518200	0.848200	0.476900
H2401	H240	0.525400	0.842500	0.441400
N611	N61	0.437000	0.803600	0.362200
N621	N62	0.392000	0.783600	0.437700
H2411	H241	0.368000	0.790900	0.460500
N631	N63	0.428100	0.747500	0.449500
C2611	C261	0.437900	0.825900	0.315400
H2421	H242	0.467700	0.821500	0.294700
C2621	C262	0.395400	0.856500	0.294700
H2431	H243	0.398300	0.874400	0.262900
C2631	C263	0.350200	0.857900	0.324200
H2441	H244	0.320300	0.874400	0.311000
C2641	C264	0.349200	0.835100	0.372800
H2451	H245	0.318800	0.838000	0.392900
C2651	C265	0.391800	0.807900	0.393200
C2661	C266	0.426400	0.730800	0.497400
C2671	C267	0.392000	0.753500	0.539900
H2461	H246	0.370300	0.780900	0.525300
H2471	H247	0.413700	0.767900	0.567400
H2481	H248	0.370000	0.726300	0.554200
C2681	C268	0.460000	0.685500	0.512500
C2691	C269	0.477300	0.677400	0.564400
H2491	H249	0.467400	0.701600	0.590000
C2701	C270	0.508700	0.634800	0.579800
H2501	H250	0.516900	0.628700	0.614900
C2711	C271	0.525800	0.604300	0.542700
C2721	C272	0.513100	0.611000	0.489500
H2511	H251	0.525800	0.588200	0.463800
C2731	C273	0.481800	0.651800	0.476900
H2521	H252	0.474600	0.657500	0.441400
N641	N64	0.937000	0.303600	0.862200
N651	N65	0.892000	0.283600	0.937700
H2531	H253	0.868000	0.290900	0.960500
N661	N66	0.928100	0.247500	0.949500
C2741	C274	0.937900	0.325900	0.815400
H2541	H254	0.967700	0.321500	0.794700
C2751	C275	0.895400	0.356500	0.794700
H2551	H255	0.898300	0.374400	0.762900
C2761	C276	0.850200	0.357900	0.824200
H2561	H256	0.820300	0.374400	0.811000
C2771	C277	0.849200	0.335100	0.872800
H2571	H257	0.818800	0.338000	0.892900
C2781	C278	0.891800	0.307900	0.893200
C2791	C279	0.926400	0.230800	0.997400
C2801	C280	0.892000	0.253500	0.039900
H2581	H258	0.870300	0.280900	0.025300
H2591	H259	0.913700	0.267900	0.067400
H2601	H260	0.870000	0.226300	0.054200
C2811	C281	0.960000	0.185500	0.012500
C2821	C282	0.977300	0.177400	0.064400
H2611	H261	0.967400	0.201600	0.090000
C2831	C283	0.008700	0.134800	0.079800
H2621	H262	0.016900	0.128700	0.114900
C2841	C284	0.025800	0.104300	0.042700
C2851	C285	0.013100	0.111000	0.989500
H2631	H263	0.025800	0.088200	0.963800
C2861	C286	0.981800	0.151800	0.976900
H2641	H264	0.974600	0.157500	0.941400
N671	N67	0.563000	0.303600	0.137800
N681	N68	0.608000	0.283600	0.062300
H2651	H265	0.632000	0.290900	0.039500
N691	N69	0.571900	0.247500	0.050500
C2871	C287	0.562100	0.325900	0.184600
H2661	H266	0.532300	0.321500	0.205300
C2881	C288	0.604600	0.356500	0.205300
H2671	H267	0.601700	0.374400	0.237100
C2891	C289	0.649800	0.357900	0.175800
H2681	H268	0.679700	0.374400	0.189000
C2901	C290	0.650800	0.335100	0.127200
H2691	H269	0.681200	0.338000	0.107100
C2911	C291	0.608200	0.307900	0.106800
C2921	C292	0.573600	0.230800	0.002600
C2931	C293	0.608000	0.253500	0.960100
H2701	H270	0.629700	0.280900	0.974700
H2711	H271	0.586300	0.267900	0.932600
H2721	H272	0.630000	0.226300	0.945800
C2941	C294	0.540000	0.185500	0.987500
C2951	C295	0.522700	0.177400	0.935600
H2731	H273	0.532600	0.201600	0.910000
C2961	C296	0.491300	0.134800	0.920200
H2741	H274	0.483100	0.128700	0.885100
C2971	C297	0.474200	0.104300	0.957300
C2981	C298	0.486900	0.111000	0.010500
H2751	H275	0.474200	0.088200	0.036200
C2991	C299	0.518200	0.151800	0.023100
H2761	H276	0.525400	0.157500	0.058600
N701	N70	0.063000	0.803600	0.637800
N711	N71	0.108000	0.783600	0.562300
H2771	H277	0.132000	0.790900	0.539500
N721	N72	0.071900	0.747500	0.550500
C3001	C300	0.062100	0.825900	0.684600
H2781	H278	0.032300	0.821500	0.705300
C3011	C301	0.104600	0.856500	0.705300
H2791	H279	0.101700	0.874400	0.737100
C3021	C302	0.149800	0.857900	0.675800
H2801	H280	0.179700	0.874400	0.689000
C3031	C303	0.150800	0.835100	0.627200
H2811	H281	0.181200	0.838000	0.607100
C3041	C304	0.108200	0.807900	0.606800
C3051	C305	0.073600	0.730800	0.502600
C3061	C306	0.108000	0.753500	0.460100
H2821	H282	0.129700	0.780900	0.474700
H2831	H283	0.086300	0.767900	0.432600
H2841	H284	0.130000	0.726300	0.445800
C3071	C307	0.040000	0.685500	0.487500
C3081	C308	0.022700	0.677400	0.435600
H2851	H285	0.032600	0.701600	0.410000
C3091	C309	0.991300	0.634800	0.420200
H2861	H286	0.983100	0.628700	0.385100
C3101	C310	0.974200	0.604300	0.457300
C3111	C311	0.986900	0.611000	0.510500
H2871	H287	0.974200	0.588200	0.536200
C3121	C312	0.018200	0.651800	0.523100
H2881	H288	0.025400	0.657500	0.558600
Ag11	Ag1	0.612250	0.000000	0.750000
Ag21	Ag2	0.887750	0.000000	0.250000
Ag31	Ag3	0.387750	0.500000	0.750000
Ag41	Ag4	0.112250	0.500000	0.250000
Ag51	Ag5	0.750000	0.612250	0.000000
Ag61	Ag6	0.250000	0.887750	0.000000
Ag71	Ag7	0.750000	0.387750	0.500000
Ag81	Ag8	0.250000	0.112250	0.500000
Ag91	Ag9	0.000000	0.750000	0.612250
Ag101	Ag10	0.000000	0.250000	0.887750
Ag111	Ag11	0.500000	0.750000	0.387750
Ag121	Ag12	0.500000	0.250000	0.112250
N731	N73	0.443500	0.056500	0.943500
N741	N74	0.943500	0.556500	0.443500
N751	N75	0.056500	0.943500	0.443500
N761	N76	0.556500	0.443500	0.943500
N771	N77	0.556500	0.556500	0.556500
N781	N78	0.056500	0.056500	0.056500
N791	N79	0.943500	0.443500	0.056500
N801	N80	0.443500	0.943500	0.556500
