data_ADIQEL_freeONLY_PM
_symmetry_space_group_name_H-M	'P1'
_cell_length_a	8.201000
_cell_length_b	10.492000
_cell_length_c	11.125000
_cell_angle_alpha	90.000000
_cell_angle_beta	95.280000
_cell_angle_gamma	90.000000
_symmetry_Int_Tables_number 1

loop_
_symmetry_equiv_pos_as_xyz
'x,y,z'

loop_
_atom_site_label
_atom_site_type_symbol
_atom_site_fract_x
_atom_site_fract_y
_atom_site_fract_z
Co11	Co1	0.000000	0.500000	0.000000
Co21	Co2	0.500000	0.000000	0.500000
H11	H1	0.701600	0.400100	0.900400
H21	H2	0.458000	0.465500	0.812300
H31	H3	0.637000	0.824100	0.799000
H41	H4	0.874900	0.748900	0.889100
H51	H5	0.268000	0.822100	0.631500
H61	H6	0.119100	0.691300	0.760600
H71	H7	0.798400	0.900100	0.599600
H81	H8	0.042000	0.965500	0.687700
H91	H9	0.863000	0.324100	0.701000
H101	H10	0.625100	0.248900	0.610900
H111	H11	0.232000	0.322100	0.868500
H121	H12	0.380900	0.191300	0.739400
H131	H13	0.298400	0.599900	0.099600
H141	H14	0.542000	0.534500	0.187700
H151	H15	0.363000	0.175900	0.201000
H161	H16	0.125100	0.251100	0.110900
H171	H17	0.732000	0.177900	0.368500
H181	H18	0.880900	0.308700	0.239400
H191	H19	0.201600	0.099900	0.400400
H201	H20	0.958000	0.034500	0.312300
H211	H21	0.137000	0.675900	0.299000
H221	H22	0.374900	0.751100	0.389100
H231	H23	0.768000	0.677900	0.131500
H241	H24	0.619100	0.808700	0.260600
C11	C1	0.685300	0.487300	0.879800
C21	C2	0.544600	0.524800	0.828900
C31	C3	0.648600	0.736800	0.820700
C41	C4	0.785400	0.692200	0.872300
C51	C5	0.522100	0.652500	0.798900
C61	C6	0.370900	0.696900	0.750700
C71	C7	0.372300	0.788300	0.658800
C81	C8	0.215600	0.653900	0.799100
C91	C9	0.814700	0.987300	0.620200
C101	C10	0.955400	0.024800	0.671100
C111	C11	0.851400	0.236800	0.679300
C121	C12	0.714600	0.192200	0.627700
C131	C13	0.977900	0.152500	0.701100
C141	C14	0.129100	0.196900	0.749300
C151	C15	0.127700	0.288300	0.841200
C161	C16	0.284400	0.153900	0.700900
C171	C17	0.314700	0.512700	0.120200
C181	C18	0.455400	0.475200	0.171100
C191	C19	0.351400	0.263200	0.179300
C201	C20	0.214600	0.307800	0.127700
C211	C21	0.477900	0.347500	0.201100
C221	C22	0.629100	0.303100	0.249300
C231	C23	0.627700	0.211700	0.341200
C241	C24	0.784400	0.346100	0.200900
C251	C25	0.185300	0.012700	0.379800
C261	C26	0.044600	0.975200	0.328900
C271	C27	0.148600	0.763200	0.320700
C281	C28	0.285400	0.807800	0.372300
C291	C29	0.022100	0.847500	0.298900
C301	C30	0.870900	0.803100	0.250700
C311	C31	0.872300	0.711700	0.158800
C321	C32	0.715600	0.846100	0.299100
N11	N1	0.804900	0.569200	0.902720
N21	N2	0.695100	0.069200	0.597280
N31	N3	0.195100	0.430800	0.097280
N41	N4	0.304900	0.930800	0.402720
O11	O1	0.498900	0.835850	0.603060
O21	O2	0.190700	0.575700	0.883020
O31	O3	0.001100	0.335850	0.896940
O41	O4	0.309300	0.075700	0.616980
O51	O5	0.501100	0.164150	0.396940
O61	O6	0.809300	0.424300	0.116980
O71	O7	0.998900	0.664150	0.103060
O81	O8	0.690700	0.924300	0.383020
