data_AFEJOK_ion_b_PM
_symmetry_space_group_name_H-M	'P1'
_cell_length_a	13.477900
_cell_length_b	13.477900
_cell_length_c	11.108500
_cell_angle_alpha	93.047600
_cell_angle_beta	93.047600
_cell_angle_gamma	69.232500
_symmetry_Int_Tables_number 1

loop_
_symmetry_equiv_pos_as_xyz
'x,y,z'

loop_
_atom_site_label
_atom_site_type_symbol
_atom_site_fract_x
_atom_site_fract_y
_atom_site_fract_z
F11	F1	0.731000	0.524400	0.662900
N21	N2	0.270800	0.725400	0.817400
N31	N3	0.360900	0.821300	0.006700
C41	C4	0.311500	0.636900	0.751400
C51	C5	0.313700	0.635900	0.625300
C61	C6	0.267900	0.729900	0.566900
C71	C7	0.225000	0.819600	0.636800
C81	C8	0.227100	0.816500	0.759800
C91	C9	0.447800	0.797800	0.944100
C101	C10	0.503000	0.867400	0.939000
C111	C11	0.470400	0.961800	0.001000
C121	C12	0.382100	0.984300	0.068900
C131	C13	0.329200	0.914000	0.068900
H141	H14	0.340800	0.570600	0.792300
H151	H15	0.347600	0.569600	0.579000
H161	H16	0.190000	0.887000	0.597500
H171	H17	0.195300	0.881900	0.807600
H181	H18	0.472000	0.730800	0.898900
H191	H19	0.565900	0.847300	0.891100
H201	H20	0.354900	0.051700	0.114600
H211	H21	0.266700	0.930900	0.115300
F221	F22	0.475600	0.269000	0.337100
N231	N23	0.274600	0.729200	0.182600
N241	N24	0.178700	0.639100	0.993300
C251	C25	0.363100	0.688500	0.248600
C261	C26	0.364100	0.686300	0.374700
C271	C27	0.270100	0.732100	0.433100
C281	C28	0.180400	0.775000	0.363200
C291	C29	0.183500	0.772900	0.240200
C301	C30	0.202200	0.552200	0.055900
C311	C31	0.132600	0.497000	0.061000
C321	C32	0.038200	0.529600	0.999000
C331	C33	0.015700	0.617900	0.931100
C341	C34	0.086000	0.670800	0.931100
H351	H35	0.429400	0.659200	0.207700
H361	H36	0.430400	0.652400	0.421000
H371	H37	0.113000	0.810000	0.402500
H381	H38	0.118100	0.804700	0.192400
H391	H39	0.269200	0.528000	0.101100
H401	H40	0.152700	0.434100	0.108900
H411	H41	0.948300	0.645100	0.885400
H421	H42	0.069100	0.733300	0.884700
F431	F43	0.269000	0.475600	0.337100
N441	N44	0.729200	0.274600	0.182600
N451	N45	0.639100	0.178700	0.993300
C461	C46	0.688500	0.363100	0.248600
C471	C47	0.686300	0.364100	0.374700
C481	C48	0.732100	0.270100	0.433100
C491	C49	0.775000	0.180400	0.363200
C501	C50	0.772900	0.183500	0.240200
C511	C51	0.552200	0.202200	0.055900
C521	C52	0.497000	0.132600	0.061000
C531	C53	0.529600	0.038200	0.999000
C541	C54	0.617900	0.015700	0.931100
C551	C55	0.670800	0.086000	0.931100
H561	H56	0.659200	0.429400	0.207700
H571	H57	0.652400	0.430400	0.421000
H581	H58	0.810000	0.113000	0.402500
H591	H59	0.804700	0.118100	0.192400
H601	H60	0.528000	0.269200	0.101100
H611	H61	0.434100	0.152700	0.108900
H621	H62	0.645100	0.948300	0.885400
H631	H63	0.733300	0.069100	0.884700
F641	F64	0.524400	0.731000	0.662900
N651	N65	0.725400	0.270800	0.817400
N661	N66	0.821300	0.360900	0.006700
C671	C67	0.636900	0.311500	0.751400
C681	C68	0.635900	0.313700	0.625300
C691	C69	0.729900	0.267900	0.566900
C701	C70	0.819600	0.225000	0.636800
C711	C71	0.816500	0.227100	0.759800
C721	C72	0.797800	0.447800	0.944100
C731	C73	0.867400	0.503000	0.939000
C741	C74	0.961800	0.470400	0.001000
C751	C75	0.984300	0.382100	0.068900
C761	C76	0.914000	0.329200	0.068900
H771	H77	0.570600	0.340800	0.792300
H781	H78	0.569600	0.347600	0.579000
H791	H79	0.887000	0.190000	0.597500
H801	H80	0.881900	0.195300	0.807600
H811	H81	0.730800	0.472000	0.898900
H821	H82	0.847300	0.565900	0.891100
H831	H83	0.051700	0.354900	0.114600
H841	H84	0.930900	0.266700	0.115300
Cu851	Cu85	0.277750	0.722250	0.000000
F861	F86	0.102700	0.897300	0.000000
O871	O87	0.428400	0.571600	0.000000
Cu881	Cu88	0.722250	0.277750	0.000000
F891	F89	0.897300	0.102700	0.000000
O901	O90	0.571600	0.428400	0.000000
P911	P91	0.000000	0.000000	0.000000
P921	P92	0.631600	0.631600	0.660000
F931	F93	0.582100	0.582100	0.757500
F941	F94	0.583900	0.583900	0.556100
F951	F95	0.682000	0.682000	0.570900
F961	F96	0.675900	0.675900	0.772900
P1001	P100	0.368400	0.368400	0.340000
F1011	F101	0.417900	0.417900	0.242500
F1021	F102	0.416100	0.416100	0.443900
F1031	F103	0.318000	0.318000	0.429100
F1041	F104	0.324100	0.324100	0.227100
O1051	O105	0.434100	0.434100	0.927500
N1071	N107	0.486200	0.486200	0.981000
F1081	F108	0.972900	0.972900	0.117500
F1091	F109	0.063100	0.063100	0.057000
F1101	F110	0.027100	0.027100	0.882500
F1111	F111	0.936900	0.936900	0.943000
