data_AFENEE_freeONLY_PM
_symmetry_space_group_name_H-M	'P1'
_cell_length_a	11.540000
_cell_length_b	11.540000
_cell_length_c	14.943000
_cell_angle_alpha	90.000000
_cell_angle_beta	90.000000
_cell_angle_gamma	90.000000
_symmetry_Int_Tables_number 1

loop_
_symmetry_equiv_pos_as_xyz
'x,y,z'

loop_
_atom_site_label
_atom_site_type_symbol
_atom_site_fract_x
_atom_site_fract_y
_atom_site_fract_z
N11	N1	0.927200	0.689600	0.926200
C11	C1	0.876300	0.717400	0.004700
H11	H1	0.865300	0.658500	0.048400
C21	C2	0.839700	0.829100	0.023600
H21	H2	0.805700	0.845800	0.080100
C31	C3	0.852200	0.915500	0.961700
C41	C4	0.898200	0.886100	0.878100
H31	H3	0.904400	0.942300	0.831900
C51	C5	0.934700	0.772600	0.864200
H41	H4	0.966700	0.753100	0.807600
C61	C6	0.816800	0.037700	0.985200
C71	C7	0.752900	0.106600	0.916300
H51	H5	0.673600	0.121000	0.936900
H61	H6	0.750800	0.063300	0.859900
H71	H7	0.792500	0.180800	0.906900
N21	N2	0.844600	0.070700	0.063400
C81	C8	0.812600	0.185600	0.096700
H81	H8	0.734000	0.205600	0.075100
H91	H9	0.867400	0.243900	0.072800
C91	C9	0.814400	0.189500	0.197800
H101	H10	0.795900	0.268800	0.218700
H111	H11	0.755200	0.135900	0.222100
N31	N3	0.929500	0.155600	0.230000
C101	C10	0.962400	0.182400	0.308500
C111	C11	0.894100	0.248100	0.376800
H121	H12	0.890300	0.329900	0.359700
H131	H13	0.931600	0.241000	0.435400
H141	H14	0.815400	0.216300	0.380100
C121	C12	0.084400	0.148200	0.332800
C131	C13	0.171400	0.161100	0.270000
H151	H15	0.155000	0.196200	0.213800
C141	C14	0.282400	0.122900	0.289000
H161	H16	0.341000	0.132500	0.245000
N41	N4	0.310400	0.072700	0.367200
C151	C15	0.227800	0.064400	0.428900
H171	H17	0.247100	0.031700	0.485300
C161	C16	0.113600	0.101700	0.414700
H181	H18	0.057200	0.094900	0.460700
N51	N5	0.072800	0.310400	0.926200
C171	C17	0.123700	0.282600	0.004700
H191	H19	0.134700	0.341500	0.048400
C181	C18	0.160300	0.170900	0.023600
H201	H20	0.194300	0.154200	0.080100
C191	C19	0.147800	0.084500	0.961700
C201	C20	0.101800	0.113900	0.878100
H211	H21	0.095600	0.057700	0.831900
C211	C21	0.065300	0.227400	0.864200
H221	H22	0.033300	0.246900	0.807600
C221	C22	0.183200	0.962300	0.985200
C231	C23	0.247100	0.893400	0.916300
H231	H23	0.326400	0.879000	0.936900
H241	H24	0.249200	0.936700	0.859900
H251	H25	0.207500	0.819200	0.906900
N61	N6	0.155400	0.929300	0.063400
C241	C24	0.187400	0.814400	0.096700
H261	H26	0.266000	0.794400	0.075100
H271	H27	0.132600	0.756100	0.072800
C251	C25	0.185600	0.810500	0.197800
H281	H28	0.204100	0.731200	0.218700
H291	H29	0.244800	0.864100	0.222100
N71	N7	0.070500	0.844400	0.230000
C261	C26	0.037600	0.817600	0.308500
C271	C27	0.105900	0.751900	0.376800
H301	H30	0.109700	0.670100	0.359700
H311	H31	0.068400	0.759000	0.435400
H321	H32	0.184600	0.783700	0.380100
C281	C28	0.915600	0.851800	0.332800
C291	C29	0.828600	0.838900	0.270000
H331	H33	0.845000	0.803800	0.213800
C301	C30	0.717600	0.877100	0.289000
H341	H34	0.659000	0.867500	0.245000
N81	N8	0.689600	0.927300	0.367200
C311	C31	0.772200	0.935600	0.428900
H351	H35	0.752900	0.968300	0.485300
C321	C32	0.886400	0.898300	0.414700
H361	H36	0.942800	0.905100	0.460700
N91	N9	0.427200	0.810400	0.426200
C331	C33	0.376300	0.782600	0.504700
H371	H37	0.365300	0.841500	0.548400
C341	C34	0.339700	0.670900	0.523600
H381	H38	0.305700	0.654200	0.580100
C351	C35	0.352200	0.584500	0.461700
C361	C36	0.398200	0.613900	0.378100
H391	H39	0.404400	0.557700	0.331900
C371	C37	0.434700	0.727400	0.364200
H401	H40	0.466700	0.746900	0.307600
C381	C38	0.316800	0.462300	0.485200
C391	C39	0.252900	0.393400	0.416300
H411	H41	0.173600	0.379000	0.436900
H421	H42	0.250800	0.436700	0.359900
H431	H43	0.292500	0.319200	0.406900
N101	N10	0.344600	0.429300	0.563400
C401	C40	0.312600	0.314400	0.596700
H441	H44	0.234000	0.294400	0.575100
H451	H45	0.367400	0.256100	0.572800
C411	C41	0.314400	0.310500	0.697800
H461	H46	0.295900	0.231200	0.718700
H471	H47	0.255200	0.364100	0.722100
N111	N11	0.429500	0.344400	0.730000
C421	C42	0.462400	0.317600	0.808500
C431	C43	0.394100	0.251900	0.876800
H481	H48	0.390300	0.170100	0.859700
H491	H49	0.431600	0.259000	0.935400
H501	H50	0.315400	0.283700	0.880100
C441	C44	0.584400	0.351800	0.832800
C451	C45	0.671400	0.338900	0.770000
H511	H51	0.655000	0.303800	0.713800
C461	C46	0.782400	0.377100	0.789000
H521	H52	0.841000	0.367500	0.745000
N121	N12	0.810400	0.427300	0.867200
C471	C47	0.727800	0.435600	0.928900
H531	H53	0.747100	0.468300	0.985300
C481	C48	0.613600	0.398300	0.914700
H541	H54	0.557200	0.405100	0.960700
N131	N13	0.572800	0.189600	0.426200
C491	C49	0.623700	0.217400	0.504700
H551	H55	0.634700	0.158500	0.548400
C501	C50	0.660300	0.329100	0.523600
H561	H56	0.694300	0.345800	0.580100
C511	C51	0.647800	0.415500	0.461700
C521	C52	0.601800	0.386100	0.378100
H571	H57	0.595600	0.442300	0.331900
C531	C53	0.565300	0.272600	0.364200
H581	H58	0.533300	0.253100	0.307600
C541	C54	0.683200	0.537700	0.485200
C551	C55	0.747100	0.606600	0.416300
H591	H59	0.826400	0.621000	0.436900
H601	H60	0.749200	0.563300	0.359900
H611	H61	0.707500	0.680800	0.406900
N141	N14	0.655400	0.570700	0.563400
C561	C56	0.687400	0.685600	0.596700
H621	H62	0.766000	0.705600	0.575100
H631	H63	0.632600	0.743900	0.572800
C571	C57	0.685600	0.689500	0.697800
H641	H64	0.704100	0.768800	0.718700
H651	H65	0.744800	0.635900	0.722100
N151	N15	0.570500	0.655600	0.730000
C581	C58	0.537600	0.682400	0.808500
C591	C59	0.605900	0.748100	0.876800
H661	H66	0.609700	0.829900	0.859700
H671	H67	0.568400	0.741000	0.935400
H681	H68	0.684600	0.716300	0.880100
C601	C60	0.415600	0.648200	0.832800
C611	C61	0.328600	0.661100	0.770000
H691	H69	0.345000	0.696200	0.713800
C621	C62	0.217600	0.622900	0.789000
H701	H70	0.159000	0.632500	0.745000
N161	N16	0.189600	0.572700	0.867200
C631	C63	0.272200	0.564400	0.928900
H711	H71	0.252900	0.531700	0.985300
C641	C64	0.386400	0.601700	0.914700
H721	H72	0.442800	0.594900	0.960700
Ag11	Ag1	0.000000	0.000000	0.146000
Ag21	Ag2	0.500000	0.500000	0.646000
Ag31	Ag3	0.000000	0.500000	0.896000
Ag41	Ag4	0.500000	0.000000	0.396000
