data_AFIXES_freeONLY_PM
_symmetry_space_group_name_H-M	'P1'
_cell_length_a	9.518200
_cell_length_b	24.246000
_cell_length_c	24.685000
_cell_angle_alpha	90.960000
_cell_angle_beta	90.000000
_cell_angle_gamma	90.000000
_symmetry_Int_Tables_number 1

loop_
_symmetry_equiv_pos_as_xyz
'x,y,z'

loop_
_atom_site_label
_atom_site_type_symbol
_atom_site_fract_x
_atom_site_fract_y
_atom_site_fract_z
Co11	Co1	0.958560	0.265790	0.680270
Co21	Co2	0.324580	0.160740	0.517060
Co31	Co3	0.268850	0.969600	0.361500
Co41	Co4	0.737360	0.485960	0.721620
Co51	Co5	0.465940	0.284750	0.316460
Co61	Co6	0.458560	0.234210	0.819730
Co71	Co7	0.824580	0.339260	0.982940
Co81	Co8	0.768850	0.530400	0.138500
Co91	Co9	0.237360	0.014040	0.778380
Co101	Co10	0.965940	0.215250	0.183540
Co111	Co11	0.041440	0.734210	0.319730
Co121	Co12	0.675420	0.839260	0.482940
Co131	Co13	0.731150	0.030400	0.638500
Co141	Co14	0.262640	0.514040	0.278380
Co151	Co15	0.534060	0.715250	0.683540
Co161	Co16	0.541440	0.765790	0.180270
Co171	Co17	0.175420	0.660740	0.017060
Co181	Co18	0.231150	0.469600	0.861500
Co191	Co19	0.762640	0.985960	0.221620
Co201	Co20	0.034060	0.784750	0.816460
H11	H1	0.929200	0.387100	0.718400
H21	H2	0.669900	0.279100	0.733300
H31	H3	0.926500	0.159500	0.760300
H41	H4	0.720300	0.146400	0.817400
H51	H5	0.213600	0.220900	0.619900
H61	H6	0.831500	0.209800	0.568100
H71	H7	0.987100	0.170700	0.499400
H81	H8	0.353800	0.086600	0.410400
H91	H9	0.161800	0.050700	0.541700
H101	H10	0.142200	0.972000	0.481200
H111	H11	0.526100	0.071700	0.551200
H121	H12	0.481000	0.211500	0.629300
H131	H13	0.658500	0.158300	0.675800
H141	H14	0.437900	0.504500	0.769400
H151	H15	0.708600	0.399400	0.819100
H161	H16	0.502300	0.390600	0.874900
H171	H17	0.942100	0.455900	0.814400
H181	H18	0.300500	0.215100	0.400700
H191	H19	0.639000	0.607400	0.742000
H201	H20	0.671900	0.211800	0.244200
H211	H21	0.686000	0.310300	0.617300
H221	H22	0.598200	0.404400	0.628200
H231	H23	0.008000	0.562500	0.701200
H241	H24	0.215600	0.555700	0.758300
H251	H25	0.592900	0.237000	0.506500
H261	H26	0.647900	0.288900	0.426200
H271	H27	0.729700	0.540500	0.605300
H281	H28	0.653500	0.636500	0.590800
H291	H29	0.891900	0.337600	0.213400
H301	H30	0.701200	0.365300	0.273900
H311	H31	0.429200	0.112900	0.781600
H321	H32	0.169900	0.220900	0.766700
H331	H33	0.426500	0.340500	0.739700
H341	H34	0.220300	0.353600	0.682600
H351	H35	0.713600	0.279100	0.880100
H361	H36	0.331500	0.290200	0.931900
H371	H37	0.487100	0.329300	0.000600
H381	H38	0.853800	0.413400	0.089600
H391	H39	0.661800	0.449300	0.958300
H401	H40	0.642200	0.528000	0.018800
H411	H41	0.026100	0.428300	0.948800
H421	H42	0.981000	0.288500	0.870700
H431	H43	0.158500	0.341700	0.824200
H441	H44	0.937900	0.995500	0.730600
H451	H45	0.208600	0.100600	0.680900
H461	H46	0.002300	0.109400	0.625100
H471	H47	0.442100	0.044100	0.685600
H481	H48	0.800500	0.284900	0.099300
H491	H49	0.139000	0.892600	0.758000
H501	H50	0.171900	0.288200	0.255800
H511	H51	0.186000	0.189700	0.882700
H521	H52	0.098200	0.095600	0.871800
H531	H53	0.508000	0.937500	0.798800
H541	H54	0.715600	0.944300	0.741700
H551	H55	0.092900	0.263000	0.993500
H561	H56	0.147900	0.211100	0.073800
H571	H57	0.229700	0.959500	0.894700
H581	H58	0.153500	0.863500	0.909200
H591	H59	0.391900	0.162400	0.286600
H601	H60	0.201200	0.134700	0.226100
H611	H61	0.070800	0.612900	0.281600
H621	H62	0.330100	0.720900	0.266700
H631	H63	0.073500	0.840500	0.239700
H641	H64	0.279700	0.853600	0.182600
H651	H65	0.786400	0.779100	0.380100
H661	H66	0.168500	0.790200	0.431900
H671	H67	0.012900	0.829300	0.500600
H681	H68	0.646200	0.913400	0.589600
H691	H69	0.838200	0.949300	0.458300
H701	H70	0.857800	0.028000	0.518800
H711	H71	0.473900	0.928300	0.448800
H721	H72	0.519000	0.788500	0.370700
H731	H73	0.341500	0.841700	0.324200
H741	H74	0.562100	0.495500	0.230600
H751	H75	0.291400	0.600600	0.180900
H761	H76	0.497700	0.609400	0.125100
H771	H77	0.057900	0.544100	0.185600
H781	H78	0.699500	0.784900	0.599300
H791	H79	0.361000	0.392600	0.258000
H801	H80	0.328100	0.788200	0.755800
H811	H81	0.314000	0.689700	0.382700
H821	H82	0.401800	0.595600	0.371800
H831	H83	0.992000	0.437500	0.298800
H841	H84	0.784400	0.444300	0.241700
H851	H85	0.407100	0.763000	0.493500
H861	H86	0.352100	0.711100	0.573800
H871	H87	0.270300	0.459500	0.394700
H881	H88	0.346500	0.363500	0.409200
H891	H89	0.108100	0.662400	0.786600
H901	H90	0.298800	0.634700	0.726100
H911	H91	0.570800	0.887100	0.218400
H921	H92	0.830100	0.779100	0.233300
H931	H93	0.573500	0.659500	0.260300
H941	H94	0.779700	0.646400	0.317400
H951	H95	0.286400	0.720900	0.119900
H961	H96	0.668500	0.709800	0.068100
H971	H97	0.512900	0.670700	0.999400
H981	H98	0.146200	0.586600	0.910400
H991	H99	0.338200	0.550700	0.041700
H1001	H100	0.357800	0.472000	0.981200
H1011	H101	0.973900	0.571700	0.051200
H1021	H102	0.019000	0.711500	0.129300
H1031	H103	0.841500	0.658300	0.175800
H1041	H104	0.062100	0.004500	0.269400
H1051	H105	0.791400	0.899400	0.319100
H1061	H106	0.997700	0.890600	0.374900
H1071	H107	0.557900	0.955900	0.314400
H1081	H108	0.199500	0.715100	0.900700
H1091	H109	0.861000	0.107400	0.242000
H1101	H110	0.828100	0.711800	0.744200
H1111	H111	0.814000	0.810300	0.117300
H1121	H112	0.901800	0.904400	0.128200
H1131	H113	0.492000	0.062500	0.201200
H1141	H114	0.284400	0.055700	0.258300
H1151	H115	0.907100	0.737000	0.006500
H1161	H116	0.852100	0.788900	0.926200
H1171	H117	0.770300	0.040500	0.105300
H1181	H118	0.846500	0.136500	0.090800
H1191	H119	0.608100	0.837600	0.713400
H1201	H120	0.798800	0.865300	0.773900
C11	C1	0.865400	0.381500	0.690300
C21	C2	0.709300	0.247300	0.747500
C31	C3	0.849000	0.182800	0.761700
C41	C4	0.734200	0.175200	0.793600
C51	C5	0.136700	0.213500	0.597700
C61	C6	0.928900	0.207900	0.570600
C71	C7	0.015600	0.186000	0.532500
C81	C8	0.302500	0.067700	0.436200
C91	C9	0.199600	0.048600	0.507000
C101	C10	0.187800	0.004900	0.473500
C111	C11	0.537100	0.100300	0.576400
C121	C12	0.511600	0.176500	0.618800
C131	C13	0.610700	0.147100	0.644600
C141	C14	0.481300	0.477000	0.789200
C151	C15	0.627300	0.420300	0.815800
C161	C16	0.513400	0.415300	0.846900
C171	C17	0.982800	0.484700	0.795700
C181	C18	0.389100	0.222500	0.415000
C191	C19	0.631400	0.600100	0.705000
C201	C20	0.712200	0.246400	0.249500
C211	C21	0.730600	0.338800	0.636300
C221	C22	0.680700	0.390600	0.642900
C231	C23	0.017000	0.541700	0.732300
C241	C24	0.131200	0.537600	0.764500
C251	C25	0.543000	0.235900	0.474100
C261	C26	0.574300	0.263900	0.429000
C271	C27	0.688800	0.563800	0.631200
C281	C28	0.646800	0.617400	0.623100
C291	C29	0.830400	0.313800	0.230700
C301	C30	0.721500	0.329100	0.263500
C311	C31	0.365400	0.118500	0.809700
C321	C32	0.209300	0.252700	0.752500
C331	C33	0.349000	0.317200	0.738300
C341	C34	0.234200	0.324800	0.706400
C351	C35	0.636700	0.286500	0.902300
C361	C36	0.428900	0.292100	0.929400
C371	C37	0.515600	0.314000	0.967500
C381	C38	0.802500	0.432300	0.063800
C391	C39	0.699600	0.451400	0.993000
C401	C40	0.687800	0.495100	0.026500
C411	C41	0.037100	0.399700	0.923600
C421	C42	0.011600	0.323500	0.881200
C431	C43	0.110700	0.352900	0.855400
C441	C44	0.981300	0.023000	0.710800
C451	C45	0.127300	0.079700	0.684200
C461	C46	0.013400	0.084700	0.653100
C471	C47	0.482800	0.015300	0.704300
C481	C48	0.889100	0.277500	0.085000
C491	C49	0.131400	0.899900	0.795000
C501	C50	0.212200	0.253600	0.250500
C511	C51	0.230600	0.161200	0.863700
C521	C52	0.180700	0.109400	0.857100
C531	C53	0.517000	0.958300	0.767700
C541	C54	0.631200	0.962400	0.735500
C551	C55	0.043000	0.264100	0.025900
C561	C56	0.074300	0.236100	0.071000
C571	C57	0.188800	0.936200	0.868800
C581	C58	0.146800	0.882600	0.876900
C591	C59	0.330400	0.186200	0.269300
C601	C60	0.221500	0.170900	0.236500
C611	C61	0.134600	0.618500	0.309700
C621	C62	0.290700	0.752700	0.252500
C631	C63	0.151000	0.817200	0.238300
C641	C64	0.265800	0.824800	0.206400
C651	C65	0.863300	0.786500	0.402300
C661	C66	0.071100	0.792100	0.429400
C671	C67	0.984400	0.814000	0.467500
C681	C68	0.697500	0.932300	0.563800
C691	C69	0.800400	0.951400	0.493000
C701	C70	0.812200	0.995100	0.526500
C711	C71	0.462900	0.899700	0.423600
C721	C72	0.488400	0.823500	0.381200
C731	C73	0.389300	0.852900	0.355400
C741	C74	0.518700	0.523000	0.210800
C751	C75	0.372700	0.579700	0.184200
C761	C76	0.486600	0.584700	0.153100
C771	C77	0.017200	0.515300	0.204300
C781	C78	0.610900	0.777500	0.585000
C791	C79	0.368600	0.399900	0.295000
C801	C80	0.287800	0.753600	0.750500
C811	C81	0.269400	0.661200	0.363700
C821	C82	0.319300	0.609400	0.357100
C831	C83	0.983000	0.458300	0.267700
C841	C84	0.868800	0.462400	0.235500
C851	C85	0.457000	0.764100	0.525900
C861	C86	0.425700	0.736100	0.571000
C871	C87	0.311200	0.436200	0.368800
C881	C88	0.353200	0.382600	0.376900
C891	C89	0.169600	0.686200	0.769300
C901	C90	0.278500	0.670900	0.736500
C911	C91	0.634600	0.881500	0.190300
C921	C92	0.790700	0.747300	0.247500
C931	C93	0.651000	0.682800	0.261700
C941	C94	0.765800	0.675200	0.293600
C951	C95	0.363300	0.713500	0.097700
C961	C96	0.571100	0.707900	0.070600
C971	C97	0.484400	0.686000	0.032500
C981	C98	0.197500	0.567700	0.936200
C991	C99	0.300400	0.548600	0.007000
C1001	C100	0.312200	0.504900	0.973500
C1011	C101	0.962900	0.600300	0.076400
C1021	C102	0.988400	0.676500	0.118800
C1031	C103	0.889300	0.647100	0.144600
C1041	C104	0.018700	0.977000	0.289200
C1051	C105	0.872700	0.920300	0.315800
C1061	C106	0.986600	0.915300	0.346900
C1071	C107	0.517200	0.984700	0.295700
C1081	C108	0.110900	0.722500	0.915000
C1091	C109	0.868600	0.100100	0.205000
C1101	C110	0.787800	0.746400	0.749500
C1111	C111	0.769400	0.838800	0.136300
C1121	C112	0.819300	0.890600	0.142900
C1131	C113	0.483000	0.041700	0.232300
C1141	C114	0.368800	0.037600	0.264500
C1151	C115	0.957000	0.735900	0.974100
C1161	C116	0.925700	0.763900	0.929000
C1171	C117	0.811200	0.063800	0.131200
C1181	C118	0.853200	0.117400	0.123100
C1191	C119	0.669600	0.813800	0.730700
C1201	C120	0.778500	0.829100	0.763500
N11	N1	0.859500	0.334900	0.662530
N21	N2	0.775400	0.420060	0.676000
N31	N3	0.834500	0.229130	0.732490
N41	N4	0.643400	0.217300	0.784340
N51	N5	0.006400	0.226290	0.612470
N61	N6	0.150300	0.189780	0.549800
N71	N7	0.273700	0.088990	0.483800
N81	N8	0.253300	0.016900	0.426930
N91	N9	0.629200	0.098010	0.617330
N101	N10	0.417100	0.452300	0.830370
N111	N11	0.607700	0.460320	0.778630
N121	N12	0.916600	0.508600	0.755600
N131	N13	0.108200	0.503150	0.808060
N141	N14	0.423900	0.205250	0.463610
N151	N15	0.481800	0.250400	0.387100
N161	N16	0.592800	0.638120	0.671700
N171	N17	0.659600	0.550600	0.684260
N181	N18	0.462200	0.146910	0.574420
N191	N19	0.646400	0.284300	0.279100
N201	N20	0.833700	0.257600	0.227700
N211	N21	0.359500	0.165100	0.837470
N221	N22	0.275400	0.079940	0.824000
N231	N23	0.334500	0.270870	0.767510
N241	N24	0.143400	0.282700	0.715660
N251	N25	0.506400	0.273710	0.887530
N261	N26	0.650300	0.310220	0.950200
N271	N27	0.773700	0.411010	0.016200
N281	N28	0.753300	0.483100	0.073070
N291	N29	0.129200	0.401990	0.882670
N301	N30	0.917100	0.047700	0.669630
N311	N31	0.107700	0.039680	0.721370
N321	N32	0.416600	0.991400	0.744400
N331	N33	0.608200	0.996850	0.691940
N341	N34	0.923900	0.294750	0.036390
N351	N35	0.981800	0.249600	0.112900
N361	N36	0.092800	0.861880	0.828300
N371	N37	0.159600	0.949400	0.815740
N381	N38	0.962200	0.353090	0.925580
N391	N39	0.146400	0.215700	0.220900
N401	N40	0.333700	0.242400	0.272300
N411	N41	0.140500	0.665100	0.337470
N421	N42	0.224600	0.579940	0.324000
N431	N43	0.165500	0.770870	0.267510
N441	N44	0.356600	0.782700	0.215660
N451	N45	0.993600	0.773710	0.387530
N461	N46	0.849700	0.810220	0.450200
N471	N47	0.726300	0.911010	0.516200
N481	N48	0.746700	0.983100	0.573070
N491	N49	0.370800	0.901990	0.382670
N501	N50	0.582900	0.547700	0.169630
N511	N51	0.392300	0.539680	0.221370
N521	N52	0.083400	0.491400	0.244400
N531	N53	0.891800	0.496850	0.191940
N541	N54	0.576100	0.794750	0.536390
N551	N55	0.518200	0.749600	0.612900
N561	N56	0.407200	0.361880	0.328300
N571	N57	0.340400	0.449400	0.315740
N581	N58	0.537800	0.853090	0.425580
N591	N59	0.353600	0.715700	0.720900
N601	N60	0.166300	0.742400	0.772300
N611	N61	0.640500	0.834900	0.162530
N621	N62	0.724600	0.920060	0.176000
N631	N63	0.665500	0.729130	0.232490
N641	N64	0.856600	0.717300	0.284340
N651	N65	0.493600	0.726290	0.112470
N661	N66	0.349700	0.689780	0.049800
N671	N67	0.226300	0.588990	0.983800
N681	N68	0.246700	0.516900	0.926930
N691	N69	0.870800	0.598010	0.117330
N701	N70	0.082900	0.952300	0.330370
N711	N71	0.892300	0.960320	0.278630
N721	N72	0.583400	0.008600	0.255600
N731	N73	0.391800	0.003150	0.308060
N741	N74	0.076100	0.705250	0.963610
N751	N75	0.018200	0.750400	0.887100
N761	N76	0.907200	0.138120	0.171700
N771	N77	0.840400	0.050600	0.184260
N781	N78	0.037800	0.646910	0.074420
N791	N79	0.853600	0.784300	0.779100
N801	N80	0.666300	0.757600	0.727700
