data_AGESIP_freeONLY_PM
_symmetry_space_group_name_H-M	'P1'
_cell_length_a	5.643700
_cell_length_b	9.150700
_cell_length_c	12.835700
_cell_angle_alpha	90.000000
_cell_angle_beta	90.000000
_cell_angle_gamma	95.892000
_symmetry_Int_Tables_number 1

loop_
_symmetry_equiv_pos_as_xyz
'x,y,z'

loop_
_atom_site_label
_atom_site_type_symbol
_atom_site_fract_x
_atom_site_fract_y
_atom_site_fract_z
Cu11	Cu1	0.012360	0.539360	0.111720
Cu21	Cu2	0.987640	0.960640	0.611720
Cu31	Cu3	0.987640	0.460640	0.888280
Cu41	Cu4	0.012360	0.039360	0.388280
Cu51	Cu5	0.500000	0.000000	0.500000
Cu61	Cu6	0.500000	0.500000	0.000000
H11	H1	0.777000	0.839000	0.467000
H21	H2	0.223000	0.661000	0.967000
H31	H3	0.223000	0.161000	0.533000
H41	H4	0.777000	0.339000	0.033000
C11	C1	0.366700	0.758600	0.211430
C21	C2	0.460000	0.860500	0.291590
C31	C3	0.693900	0.874800	0.242920
C41	C4	0.605100	0.767400	0.162480
C51	C5	0.633300	0.741400	0.711430
C61	C6	0.540000	0.639500	0.791590
C71	C7	0.306100	0.625200	0.742920
C81	C8	0.394900	0.732600	0.662480
C91	C9	0.633300	0.241400	0.788570
C101	C10	0.540000	0.139500	0.708410
C111	C11	0.306100	0.125200	0.757080
C121	C12	0.394900	0.232600	0.837520
C131	C13	0.366700	0.258600	0.288570
C141	C14	0.460000	0.360500	0.208410
C151	C15	0.693900	0.374800	0.257080
C161	C16	0.605100	0.267400	0.337520
O11	O1	0.163500	0.694600	0.197920
O21	O2	0.362000	0.909400	0.371970
O31	O3	0.891600	0.947900	0.259120
O41	O4	0.695200	0.706900	0.087090
O51	O5	0.805900	0.915820	0.482900
O61	O6	0.836500	0.805400	0.697920
O71	O7	0.638000	0.590600	0.871970
O81	O8	0.108400	0.552100	0.759120
O91	O9	0.304800	0.793100	0.587090
O101	O10	0.194100	0.584180	0.982900
O111	O11	0.836500	0.305400	0.802080
O121	O12	0.638000	0.090600	0.628030
O131	O13	0.108400	0.052100	0.740880
O141	O14	0.304800	0.293100	0.912910
O151	O15	0.194100	0.084180	0.517100
O161	O16	0.163500	0.194600	0.302080
O171	O17	0.362000	0.409400	0.128030
O181	O18	0.891600	0.447900	0.240880
O191	O19	0.695200	0.206900	0.412910
O201	O20	0.805900	0.415820	0.017100
