data_AGUWUV_freeONLY_PM
_symmetry_space_group_name_H-M	'P1'
_cell_length_a	8.193300
_cell_length_b	8.864600
_cell_length_c	12.202800
_cell_angle_alpha	110.057000
_cell_angle_beta	92.897000
_cell_angle_gamma	105.741000
_symmetry_Int_Tables_number 1

loop_
_symmetry_equiv_pos_as_xyz
'x,y,z'

loop_
_atom_site_label
_atom_site_type_symbol
_atom_site_fract_x
_atom_site_fract_y
_atom_site_fract_z
Ni11	Ni1	0.026060	0.056550	0.179480
Ni21	Ni2	0.973940	0.943450	0.820520
Ni31	Ni3	0.500000	0.500000	0.500000
H11	H1	0.251600	0.352700	0.263700
H21	H2	0.190800	0.328200	0.143300
H31	H3	0.789900	0.782200	0.084100
H41	H4	0.805300	0.817800	0.209900
H51	H5	0.032700	0.781600	0.549500
H61	H6	0.198500	0.624500	0.451900
H71	H7	0.431500	0.669300	0.753500
H81	H8	0.375700	0.869200	0.303700
H91	H9	0.748400	0.647300	0.736300
H101	H10	0.809200	0.671800	0.856700
H111	H11	0.210100	0.217800	0.915900
H121	H12	0.194700	0.182200	0.790100
H131	H13	0.967300	0.218400	0.450500
H141	H14	0.801500	0.375500	0.548100
H151	H15	0.568500	0.330700	0.246500
H161	H16	0.624300	0.130800	0.696300
C11	C1	0.247400	0.836700	0.896800
C21	C2	0.244600	0.778700	0.768600
C31	C3	0.112500	0.758200	0.592900
C41	C4	0.214000	0.664700	0.534000
C51	C5	0.348800	0.689400	0.710100
C61	C6	0.273700	0.133400	0.394200
C71	C7	0.391900	0.067800	0.451700
C81	C8	0.467700	0.147500	0.571200
C91	C9	0.451600	0.312700	0.652800
C101	C10	0.425700	0.921900	0.382800
C111	C11	0.752600	0.163300	0.103200
C121	C12	0.755400	0.221300	0.231400
C131	C13	0.887500	0.241800	0.407100
C141	C14	0.786000	0.335300	0.466000
C151	C15	0.651200	0.310600	0.289900
C161	C16	0.726300	0.866600	0.605800
C171	C17	0.608100	0.932200	0.548300
C181	C18	0.532300	0.852500	0.428800
C191	C19	0.548400	0.687300	0.347200
C201	C20	0.574300	0.078100	0.617200
N11	N1	0.135900	0.914100	0.944040
N21	N2	0.166100	0.943400	0.059260
N31	N3	0.291700	0.885900	0.080200
N41	N4	0.345000	0.817100	0.977700
N51	N5	0.126600	0.815300	0.710270
N61	N6	0.333200	0.631100	0.592030
N71	N7	0.864100	0.085900	0.055960
N81	N8	0.833900	0.056600	0.940740
N91	N9	0.708300	0.114100	0.919800
N101	N10	0.655000	0.182900	0.022300
N111	N11	0.873400	0.184700	0.289730
N121	N12	0.666800	0.368900	0.407970
O11	O1	0.156700	0.023800	0.312500
O21	O2	0.294200	0.289000	0.427890
O31	O3	0.546700	0.444800	0.643320
O41	O4	0.358000	0.313700	0.727000
O51	O5	0.186100	0.289900	0.198470
O61	O6	0.853700	0.824000	0.151000
O71	O7	0.843300	0.976200	0.687500
O81	O8	0.705800	0.711000	0.572110
O91	O9	0.453300	0.555200	0.356680
O101	O10	0.642000	0.686300	0.273000
O111	O11	0.813900	0.710100	0.801530
O121	O12	0.146300	0.176000	0.849000
