data_AHEQAH_freeONLY_PM
_symmetry_space_group_name_H-M	'P1'
_cell_length_a	21.403000
_cell_length_b	34.255000
_cell_length_c	8.023000
_cell_angle_alpha	90.000000
_cell_angle_beta	90.000000
_cell_angle_gamma	90.000000
_symmetry_Int_Tables_number 1

loop_
_symmetry_equiv_pos_as_xyz
'x,y,z'

loop_
_atom_site_label
_atom_site_type_symbol
_atom_site_fract_x
_atom_site_fract_y
_atom_site_fract_z
C11	C1	0.807500	0.916200	0.462000
H11	H1	0.845300	0.930500	0.472900
C21	C2	0.809100	0.875900	0.433000
C31	C3	0.861300	0.854900	0.451000
C41	C4	0.909400	0.836200	0.478000
C51	C5	0.961200	0.815800	0.505000
C61	C6	0.989000	0.795100	0.375000
H21	H2	0.970600	0.795500	0.267400
C71	C7	0.043000	0.773800	0.404000
H31	H3	0.061900	0.759700	0.315200
C81	C8	0.069800	0.773300	0.562000
C91	C9	0.042000	0.794000	0.691000
H41	H4	0.060400	0.793600	0.799100
C101	C10	0.988000	0.815300	0.663000
H51	H5	0.969100	0.829400	0.751400
O11	O1	0.822300	0.183900	0.997000
O21	O2	0.150300	0.752200	0.773000
O31	O3	0.188000	0.765400	0.528000
C111	C11	0.130000	0.761800	0.644000
C121	C12	0.307500	0.416200	0.962000
H61	H6	0.345300	0.430500	0.972900
C131	C13	0.309100	0.375900	0.933000
C141	C14	0.361300	0.354900	0.951000
C151	C15	0.409400	0.336200	0.978000
C161	C16	0.461200	0.315800	0.005000
C171	C17	0.489000	0.295100	0.875000
H71	H7	0.470600	0.295500	0.767400
C181	C18	0.543000	0.273800	0.904000
H81	H8	0.561900	0.259700	0.815200
C191	C19	0.569800	0.273300	0.062000
C201	C20	0.542000	0.294000	0.191000
H91	H9	0.560400	0.293600	0.299100
C211	C21	0.488000	0.315300	0.163000
H101	H10	0.469100	0.329400	0.251400
O41	O4	0.322300	0.683900	0.497000
O51	O5	0.650300	0.252200	0.273000
O61	O6	0.688000	0.265400	0.028000
C221	C22	0.630000	0.261800	0.144000
C231	C23	0.192500	0.083800	0.462000
H111	H11	0.154700	0.069500	0.472900
C241	C24	0.190900	0.124100	0.433000
C251	C25	0.138700	0.145100	0.451000
C261	C26	0.090600	0.163800	0.478000
C271	C27	0.038800	0.184200	0.505000
C281	C28	0.011000	0.204900	0.375000
H121	H12	0.029400	0.204500	0.267400
C291	C29	0.957000	0.226200	0.404000
H131	H13	0.938100	0.240300	0.315200
C301	C30	0.930200	0.226700	0.562000
C311	C31	0.958000	0.206000	0.691000
H141	H14	0.939600	0.206400	0.799100
C321	C32	0.012000	0.184700	0.663000
H151	H15	0.030900	0.170600	0.751400
O71	O7	0.177700	0.816100	0.997000
O81	O8	0.849700	0.247800	0.773000
O91	O9	0.812000	0.234600	0.528000
C331	C33	0.870000	0.238200	0.644000
C341	C34	0.692500	0.583800	0.962000
H161	H16	0.654700	0.569500	0.972900
C351	C35	0.690900	0.624100	0.933000
C361	C36	0.638700	0.645100	0.951000
C371	C37	0.590600	0.663800	0.978000
C381	C38	0.538800	0.684200	0.005000
C391	C39	0.511000	0.704900	0.875000
H171	H17	0.529400	0.704500	0.767400
C401	C40	0.457000	0.726200	0.904000
H181	H18	0.438100	0.740300	0.815200
C411	C41	0.430200	0.726700	0.062000
C421	C42	0.458000	0.706000	0.191000
H191	H19	0.439600	0.706400	0.299100
C431	C43	0.512000	0.684700	0.163000
H201	H20	0.530900	0.670600	0.251400
O101	O10	0.677700	0.316100	0.497000
O111	O11	0.349700	0.747800	0.273000
O121	O12	0.312000	0.734600	0.028000
C441	C44	0.370000	0.738200	0.144000
C451	C45	0.307500	0.083800	0.462000
H211	H21	0.345300	0.069500	0.472900
C461	C46	0.309100	0.124100	0.433000
C471	C47	0.361300	0.145100	0.451000
C481	C48	0.409400	0.163800	0.478000
C491	C49	0.461200	0.184200	0.505000
C501	C50	0.489000	0.204900	0.375000
H221	H22	0.470600	0.204500	0.267400
C511	C51	0.543000	0.226200	0.404000
H231	H23	0.561900	0.240300	0.315200
C521	C52	0.569800	0.226700	0.562000
C531	C53	0.542000	0.206000	0.691000
H241	H24	0.560400	0.206400	0.799100
C541	C54	0.488000	0.184700	0.663000
H251	H25	0.469100	0.170600	0.751400
O131	O13	0.322300	0.816100	0.997000
O141	O14	0.650300	0.247800	0.773000
O151	O15	0.688000	0.234600	0.528000
C551	C55	0.630000	0.238200	0.644000
C561	C56	0.807500	0.583800	0.962000
H261	H26	0.845300	0.569500	0.972900
C571	C57	0.809100	0.624100	0.933000
C581	C58	0.861300	0.645100	0.951000
C591	C59	0.909400	0.663800	0.978000
C601	C60	0.961200	0.684200	0.005000
C611	C61	0.989000	0.704900	0.875000
H271	H27	0.970600	0.704500	0.767400
C621	C62	0.043000	0.726200	0.904000
H281	H28	0.061900	0.740300	0.815200
C631	C63	0.069800	0.726700	0.062000
C641	C64	0.042000	0.706000	0.191000
H291	H29	0.060400	0.706400	0.299100
C651	C65	0.988000	0.684700	0.163000
H301	H30	0.969100	0.670600	0.251400
O161	O16	0.822300	0.316100	0.497000
O171	O17	0.150300	0.747800	0.273000
O181	O18	0.188000	0.734600	0.028000
C661	C66	0.130000	0.738200	0.144000
C671	C67	0.692500	0.916200	0.462000
H311	H31	0.654700	0.930500	0.472900
C681	C68	0.690900	0.875900	0.433000
C691	C69	0.638700	0.854900	0.451000
C701	C70	0.590600	0.836200	0.478000
C711	C71	0.538800	0.815800	0.505000
C721	C72	0.511000	0.795100	0.375000
H321	H32	0.529400	0.795500	0.267400
C731	C73	0.457000	0.773800	0.404000
H331	H33	0.438100	0.759700	0.315200
C741	C74	0.430200	0.773300	0.562000
C751	C75	0.458000	0.794000	0.691000
H341	H34	0.439600	0.793600	0.799100
C761	C76	0.512000	0.815300	0.663000
H351	H35	0.530900	0.829400	0.751400
O191	O19	0.677700	0.183900	0.997000
O201	O20	0.349700	0.752200	0.773000
O211	O21	0.312000	0.765400	0.528000
C771	C77	0.370000	0.761800	0.644000
C781	C78	0.192500	0.416200	0.962000
H361	H36	0.154700	0.430500	0.972900
C791	C79	0.190900	0.375900	0.933000
C801	C80	0.138700	0.354900	0.951000
C811	C81	0.090600	0.336200	0.978000
C821	C82	0.038800	0.315800	0.005000
C831	C83	0.011000	0.295100	0.875000
H371	H37	0.029400	0.295500	0.767400
C841	C84	0.957000	0.273800	0.904000
H381	H38	0.938100	0.259700	0.815200
C851	C85	0.930200	0.273300	0.062000
C861	C86	0.958000	0.294000	0.191000
H391	H39	0.939600	0.293600	0.299100
C871	C87	0.012000	0.315300	0.163000
H401	H40	0.030900	0.329400	0.251400
O221	O22	0.177700	0.683900	0.497000
O231	O23	0.849700	0.252200	0.273000
O241	O24	0.812000	0.265400	0.028000
C881	C88	0.870000	0.261800	0.144000
C891	C89	0.750000	0.178600	0.519000
C901	C90	0.750000	0.136800	0.505000
C911	C91	0.750000	0.115900	0.654000
H411	H41	0.750000	0.129300	0.757400
C921	C92	0.750000	0.075300	0.651000
H421	H42	0.750000	0.061000	0.752300
C931	C93	0.750000	0.055600	0.499000
C941	C94	0.750000	0.076500	0.351000
H431	H43	0.750000	0.063100	0.247200
C951	C95	0.750000	0.117100	0.354000
H441	H44	0.750000	0.131400	0.252300
C961	C96	0.750000	0.013000	0.492430
C971	C97	0.750000	0.976700	0.487000
C981	C98	0.750000	0.935200	0.475000
C991	C99	0.750000	0.858000	0.432000
H451	H45	0.750000	0.830300	0.430400
O251	O25	0.750000	0.196300	0.666000
O261	O26	0.750000	0.197100	0.382000
Ho11	Ho1	0.750000	0.233700	0.883000
C1001	C100	0.250000	0.678600	0.019000
C1011	C101	0.250000	0.636800	0.005000
C1021	C102	0.250000	0.615900	0.154000
H461	H46	0.250000	0.629300	0.257400
C1031	C103	0.250000	0.575300	0.151000
H471	H47	0.250000	0.561000	0.252300
C1041	C104	0.250000	0.555600	0.999000
C1051	C105	0.250000	0.576500	0.851000
H481	H48	0.250000	0.563100	0.747200
C1061	C106	0.250000	0.617100	0.854000
H491	H49	0.250000	0.631400	0.752300
C1071	C107	0.250000	0.513000	0.992430
C1081	C108	0.250000	0.476700	0.987000
C1091	C109	0.250000	0.435200	0.975000
C1101	C110	0.250000	0.358000	0.932000
H501	H50	0.250000	0.330300	0.930400
O271	O27	0.250000	0.696300	0.166000
O281	O28	0.250000	0.697100	0.882000
Ho21	Ho2	0.250000	0.733700	0.383000
C1111	C111	0.250000	0.821400	0.519000
C1121	C112	0.250000	0.863200	0.505000
C1131	C113	0.250000	0.884100	0.654000
H511	H51	0.250000	0.870700	0.757400
C1141	C114	0.250000	0.924700	0.651000
H521	H52	0.250000	0.939000	0.752300
C1151	C115	0.250000	0.944400	0.499000
C1161	C116	0.250000	0.923500	0.351000
H531	H53	0.250000	0.936900	0.247200
C1171	C117	0.250000	0.882900	0.354000
H541	H54	0.250000	0.868600	0.252300
C1181	C118	0.250000	0.987000	0.492430
C1191	C119	0.250000	0.023300	0.487000
C1201	C120	0.250000	0.064800	0.475000
C1211	C121	0.250000	0.142000	0.432000
H551	H55	0.250000	0.169700	0.430400
O291	O29	0.250000	0.803700	0.666000
O301	O30	0.250000	0.802900	0.382000
Ho31	Ho3	0.250000	0.766300	0.883000
C1221	C122	0.750000	0.321400	0.019000
C1231	C123	0.750000	0.363200	0.005000
C1241	C124	0.750000	0.384100	0.154000
H561	H56	0.750000	0.370700	0.257400
C1251	C125	0.750000	0.424700	0.151000
H571	H57	0.750000	0.439000	0.252300
C1261	C126	0.750000	0.444400	0.999000
C1271	C127	0.750000	0.423500	0.851000
H581	H58	0.750000	0.436900	0.747200
C1281	C128	0.750000	0.382900	0.854000
H591	H59	0.750000	0.368600	0.752300
C1291	C129	0.750000	0.487000	0.992430
C1301	C130	0.750000	0.523300	0.987000
C1311	C131	0.750000	0.564800	0.975000
C1321	C132	0.750000	0.642000	0.932000
H601	H60	0.750000	0.669700	0.930400
O311	O31	0.750000	0.303700	0.166000
O321	O32	0.750000	0.302900	0.882000
Ho41	Ho4	0.750000	0.266300	0.383000
