data_AHOKIR01_freeONLY_PM
_symmetry_space_group_name_H-M	'P1'
_cell_length_a	4.399900
_cell_length_b	6.670830
_cell_length_c	10.558700
_cell_angle_alpha	108.415000
_cell_angle_beta	91.186900
_cell_angle_gamma	90.000000
_symmetry_Int_Tables_number 1

loop_
_symmetry_equiv_pos_as_xyz
'x,y,z'

loop_
_atom_site_label
_atom_site_type_symbol
_atom_site_fract_x
_atom_site_fract_y
_atom_site_fract_z
Cu11	Cu1	0.500000	0.000000	0.500000
Cu21	Cu2	0.500000	0.500000	0.500000
P11	P1	0.980600	0.174220	0.348440
P21	P2	0.019400	0.825780	0.651560
H11	H1	0.230000	0.997000	0.184000
H21	H2	0.803000	0.961000	0.064000
H31	H3	0.770000	0.813000	0.816000
H41	H4	0.197000	0.897000	0.936000
H51	H5	0.770000	0.003000	0.816000
H61	H6	0.197000	0.039000	0.936000
H71	H7	0.230000	0.187000	0.184000
H81	H8	0.803000	0.103000	0.064000
C11	C1	0.136000	0.091300	0.182600
C21	C2	0.924000	0.033300	0.066600
C31	C3	0.864000	0.908700	0.817400
C41	C4	0.076000	0.966700	0.933400
O11	O1	0.792100	0.991100	0.363000
O21	O2	0.207900	0.628100	0.637000
O31	O3	0.207900	0.008900	0.637000
O41	O4	0.792100	0.371900	0.363000
O51	O5	0.255000	0.224500	0.449000
O61	O6	0.745000	0.775500	0.551000
