data_AHUTIH_freeONLY_PM
_symmetry_space_group_name_H-M	'P1'
_cell_length_a	6.107100
_cell_length_b	7.696200
_cell_length_c	22.702000
_cell_angle_alpha	90.000000
_cell_angle_beta	91.645000
_cell_angle_gamma	90.000000
_symmetry_Int_Tables_number 1

loop_
_symmetry_equiv_pos_as_xyz
'x,y,z'

loop_
_atom_site_label
_atom_site_type_symbol
_atom_site_fract_x
_atom_site_fract_y
_atom_site_fract_z
La11	La1	0.545140	0.998240	0.146050
La21	La2	0.454860	0.498240	0.353950
La31	La3	0.454860	0.001760	0.853950
La41	La4	0.545140	0.501760	0.646050
H11	H1	0.959600	0.020700	0.282700
H21	H2	0.886200	0.932700	0.374400
H31	H3	0.938100	0.857200	0.092100
H41	H4	0.831600	0.702400	0.090400
H51	H5	0.040400	0.520700	0.217300
H61	H6	0.113800	0.432700	0.125600
H71	H7	0.061900	0.357200	0.407900
H81	H8	0.168400	0.202400	0.409600
H91	H9	0.040400	0.979300	0.717300
H101	H10	0.113800	0.067300	0.625600
H111	H11	0.061900	0.142800	0.907900
H121	H12	0.168400	0.297600	0.909600
H131	H13	0.959600	0.479300	0.782700
H141	H14	0.886200	0.567300	0.874400
H151	H15	0.938100	0.642800	0.592100
H161	H16	0.831600	0.797600	0.590400
C11	C1	0.639900	0.103100	0.288600
C21	C2	0.817500	0.963000	0.286300
C31	C3	0.821900	0.859900	0.343000
C41	C4	0.953300	0.694200	0.339700
C51	C5	0.583800	0.075100	0.999200
C61	C6	0.360100	0.603100	0.211400
C71	C7	0.182500	0.463000	0.213700
C81	C8	0.178100	0.359900	0.157000
C91	C9	0.046700	0.194200	0.160300
C101	C10	0.416200	0.575100	0.500800
C111	C11	0.360100	0.896900	0.711400
C121	C12	0.182500	0.037000	0.713700
C131	C13	0.178100	0.140100	0.657000
C141	C14	0.046700	0.305800	0.660300
C151	C15	0.416200	0.924900	0.000800
C161	C16	0.639900	0.396900	0.788600
C171	C17	0.817500	0.537000	0.786300
C181	C18	0.821900	0.640100	0.843000
C191	C19	0.953300	0.805800	0.839700
C201	C20	0.583800	0.424900	0.499200
O11	O1	0.489400	0.103200	0.249200
O21	O2	0.650000	0.212800	0.329900
O31	O3	0.779800	0.856500	0.234700
O41	O4	0.600200	0.814600	0.358600
O51	O5	0.856400	0.552400	0.345400
O61	O6	0.153400	0.709500	0.333400
O71	O7	0.623600	0.132300	0.948000
O81	O8	0.659400	0.130600	0.046400
O91	O9	0.851200	0.793400	0.111100
O101	O10	0.510600	0.603200	0.250800
O111	O11	0.350000	0.712800	0.170100
O121	O12	0.220200	0.356500	0.265300
O131	O13	0.399800	0.314600	0.141400
O141	O14	0.143600	0.052400	0.154600
O151	O15	0.846600	0.209500	0.166600
O161	O16	0.376400	0.632300	0.552000
O171	O17	0.340600	0.630600	0.453600
O181	O18	0.148800	0.293400	0.388900
O191	O19	0.510600	0.896800	0.750800
O201	O20	0.350000	0.787200	0.670100
O211	O21	0.220200	0.143500	0.765300
O221	O22	0.399800	0.185400	0.641400
O231	O23	0.143600	0.447600	0.654600
O241	O24	0.846600	0.290500	0.666600
O251	O25	0.376400	0.867700	0.052000
O261	O26	0.340600	0.869400	0.953600
O271	O27	0.148800	0.206600	0.888900
O281	O28	0.489400	0.396800	0.749200
O291	O29	0.650000	0.287200	0.829900
O301	O30	0.779800	0.643500	0.734700
O311	O31	0.600200	0.685400	0.858600
O321	O32	0.856400	0.947600	0.845400
O331	O33	0.153400	0.790500	0.833400
O341	O34	0.623600	0.367700	0.448000
O351	O35	0.659400	0.369400	0.546400
O361	O36	0.851200	0.706600	0.611100
