data_ALANAD_freeONLY_PM
_symmetry_space_group_name_H-M	'P1'
_cell_length_a	18.199000
_cell_length_b	20.125000
_cell_length_c	37.453700
_cell_angle_alpha	74.415100
_cell_angle_beta	75.939000
_cell_angle_gamma	90.000000
_symmetry_Int_Tables_number 1

loop_
_symmetry_equiv_pos_as_xyz
'x,y,z'

loop_
_atom_site_label
_atom_site_type_symbol
_atom_site_fract_x
_atom_site_fract_y
_atom_site_fract_z
Zn11	Zn1	0.090170	0.892670	0.763580
Zn21	Zn2	0.102620	0.037710	0.688740
Zn31	Zn3	0.646250	0.343750	0.763580
Zn41	Zn4	0.708640	0.273550	0.688740
Zn51	Zn5	0.853750	0.607330	0.236420
Zn61	Zn6	0.791360	0.462290	0.311260
Zn71	Zn7	0.409830	0.156250	0.236420
Zn81	Zn8	0.397380	0.226450	0.311260
Zn91	Zn9	0.909830	0.107330	0.236420
Zn101	Zn10	0.897380	0.962290	0.311260
Zn111	Zn11	0.353750	0.656250	0.236420
Zn121	Zn12	0.291360	0.726450	0.311260
Zn131	Zn13	0.146250	0.392670	0.763580
Zn141	Zn14	0.208640	0.537710	0.688740
Zn151	Zn15	0.590170	0.843750	0.763580
Zn161	Zn16	0.602620	0.773550	0.688740
H11	H1	0.107000	0.162200	0.759000
H21	H2	0.050600	0.000700	0.852800
H31	H3	0.082000	0.191800	0.862400
H41	H4	0.086100	0.909900	0.998000
H51	H5	0.342600	0.898600	0.742400
H61	H6	0.313600	0.978700	0.636800
H71	H7	0.514400	0.907900	0.650200
H81	H8	0.397700	0.926800	0.500000
H91	H9	0.203100	0.034000	0.618400
H101	H10	0.229000	0.957800	0.578200
H111	H11	0.149400	0.958600	0.569000
H121	H12	0.221100	0.996300	0.537000
H131	H13	0.214900	0.127700	0.696400
H141	H14	0.211000	0.322300	0.651000
H151	H15	0.198300	0.269900	0.628400
H161	H16	0.136000	0.274100	0.664800
H171	H17	0.301000	0.279600	0.688800
H181	H18	0.271600	0.210800	0.721000
H191	H19	0.329400	0.208900	0.682800
H201	H20	0.939100	0.042900	0.733400
H211	H21	0.813000	0.091300	0.659600
H221	H22	0.893000	0.131000	0.648200
H231	H23	0.886500	0.053100	0.648600
H241	H24	0.757500	0.059200	0.725400
H251	H25	0.801900	0.003600	0.748200
H261	H26	0.807300	0.080500	0.749800
H271	H27	0.634000	0.078800	0.759000
H281	H28	0.596600	0.146500	0.852800
H291	H29	0.555600	0.945800	0.862400
H301	H30	0.415900	0.092100	0.998000
H311	H31	0.415000	0.359000	0.742400
H321	H32	0.549600	0.384500	0.636800
H331	H33	0.335400	0.441900	0.650200
H341	H34	0.602300	0.573200	0.500000
H351	H35	0.678500	0.347600	0.618400
H361	H36	0.692800	0.464000	0.578200
H371	H37	0.781600	0.472400	0.569000
H381	H38	0.741900	0.466700	0.537000
H391	H39	0.588700	0.175900	0.696400
H401	H40	0.638000	0.026700	0.651000
H411	H41	0.673300	0.101700	0.628400
H421	H42	0.699200	0.061100	0.664800
H431	H43	0.510200	0.031600	0.688800
H441	H44	0.507400	0.068200	0.721000
H451	H45	0.487800	0.108300	0.682800
H461	H46	0.827500	0.223700	0.733400
H471	H47	0.027400	0.249100	0.659600
H481	H48	0.958800	0.220800	0.648200
H491	H49	0.964900	0.298300	0.648600
H501	H50	0.017100	0.215400	0.725400
H511	H51	0.949900	0.248200	0.748200
H521	H52	0.942900	0.169700	0.749800
H531	H53	0.866000	0.337800	0.241000
H541	H54	0.903400	0.499300	0.147200
H551	H55	0.944400	0.308200	0.137600
H561	H56	0.084100	0.590100	0.002000
H571	H57	0.085000	0.601400	0.257600
H581	H58	0.950400	0.521300	0.363200
H591	H59	0.164600	0.592100	0.349800
H601	H60	0.897700	0.573200	0.500000
H611	H61	0.821500	0.466000	0.381600
H621	H62	0.807200	0.542200	0.421800
H631	H63	0.718400	0.541400	0.431000
H641	H64	0.758100	0.503700	0.463000
H651	H65	0.911300	0.372300	0.303600
H661	H66	0.862000	0.177700	0.349000
H671	H67	0.826700	0.230100	0.371600
H681	H68	0.800800	0.225900	0.335200
H691	H69	0.989800	0.220400	0.311200
H701	H70	0.992600	0.289200	0.279000
H711	H71	0.012200	0.291100	0.317200
H721	H72	0.672500	0.457100	0.266600
H731	H73	0.472600	0.408700	0.340400
H741	H74	0.541200	0.369000	0.351800
H751	H75	0.535100	0.446900	0.351400
H761	H76	0.482900	0.440800	0.274600
H771	H77	0.550100	0.496400	0.251800
H781	H78	0.557100	0.419500	0.250200
H791	H79	0.393000	0.421200	0.241000
H801	H80	0.449400	0.353500	0.147200
H811	H81	0.418000	0.554200	0.137600
H821	H82	0.413900	0.407900	0.002000
H831	H83	0.157400	0.141000	0.257600
H841	H84	0.186400	0.115500	0.363200
H851	H85	0.985600	0.058100	0.349800
H861	H86	0.102300	0.926800	0.500000
H871	H87	0.296900	0.152400	0.381600
H881	H88	0.271000	0.036000	0.421800
H891	H89	0.350600	0.027600	0.431000
H901	H90	0.278900	0.033300	0.463000
H911	H91	0.285100	0.324100	0.303600
H921	H92	0.289000	0.473300	0.349000
H931	H93	0.301700	0.398300	0.371600
H941	H94	0.364000	0.438900	0.335200
H951	H95	0.199000	0.468400	0.311200
H961	H96	0.228400	0.431800	0.279000
H971	H97	0.170600	0.391700	0.317200
H981	H98	0.560900	0.276300	0.266600
H991	H99	0.687000	0.250900	0.340400
H1001	H100	0.607000	0.279200	0.351800
H1011	H101	0.613500	0.201700	0.351400
H1021	H102	0.742500	0.284600	0.274600
H1031	H103	0.698100	0.251800	0.251800
H1041	H104	0.692700	0.330300	0.250200
H1051	H105	0.893000	0.837800	0.241000
H1061	H106	0.949400	0.999300	0.147200
H1071	H107	0.918000	0.808200	0.137600
H1081	H108	0.913900	0.090100	0.002000
H1091	H109	0.657400	0.101400	0.257600
H1101	H110	0.686400	0.021300	0.363200
H1111	H111	0.485600	0.092100	0.349800
H1121	H112	0.602300	0.073200	0.500000
H1131	H113	0.796900	0.966000	0.381600
H1141	H114	0.771000	0.042200	0.421800
H1151	H115	0.850600	0.041400	0.431000
H1161	H116	0.778900	0.003700	0.463000
H1171	H117	0.785100	0.872300	0.303600
H1181	H118	0.789000	0.677700	0.349000
H1191	H119	0.801700	0.730100	0.371600
H1201	H120	0.864000	0.725900	0.335200
H1211	H121	0.699000	0.720400	0.311200
H1221	H122	0.728400	0.789200	0.279000
H1231	H123	0.670600	0.791100	0.317200
H1241	H124	0.060900	0.957100	0.266600
H1251	H125	0.187000	0.908700	0.340400
H1261	H126	0.107000	0.869000	0.351800
H1271	H127	0.113500	0.946900	0.351400
H1281	H128	0.242500	0.940800	0.274600
H1291	H129	0.198100	0.996400	0.251800
H1301	H130	0.192700	0.919500	0.250200
H1311	H131	0.366000	0.921200	0.241000
H1321	H132	0.403400	0.853500	0.147200
H1331	H133	0.444400	0.054200	0.137600
H1341	H134	0.584100	0.907900	0.002000
H1351	H135	0.585000	0.641000	0.257600
H1361	H136	0.450400	0.615500	0.363200
H1371	H137	0.664600	0.558100	0.349800
H1381	H138	0.397700	0.426800	0.500000
H1391	H139	0.321500	0.652400	0.381600
H1401	H140	0.307200	0.536000	0.421800
H1411	H141	0.218400	0.527600	0.431000
H1421	H142	0.258100	0.533300	0.463000
H1431	H143	0.411300	0.824100	0.303600
H1441	H144	0.362000	0.973300	0.349000
H1451	H145	0.326700	0.898300	0.371600
H1461	H146	0.300800	0.938900	0.335200
H1471	H147	0.489800	0.968400	0.311200
H1481	H148	0.492600	0.931800	0.279000
H1491	H149	0.512200	0.891700	0.317200
H1501	H150	0.172500	0.776300	0.266600
H1511	H151	0.972600	0.750900	0.340400
H1521	H152	0.041200	0.779200	0.351800
H1531	H153	0.035100	0.701700	0.351400
H1541	H154	0.982900	0.784600	0.274600
H1551	H155	0.050100	0.751800	0.251800
H1561	H156	0.057100	0.830300	0.250200
H1571	H157	0.134000	0.662200	0.759000
H1581	H158	0.096600	0.500700	0.852800
H1591	H159	0.055600	0.691800	0.862400
H1601	H160	0.915900	0.409900	0.998000
H1611	H161	0.915000	0.398600	0.742400
H1621	H162	0.049600	0.478700	0.636800
H1631	H163	0.835400	0.407900	0.650200
H1641	H164	0.102300	0.426800	0.500000
H1651	H165	0.178500	0.534000	0.618400
H1661	H166	0.192800	0.457800	0.578200
H1671	H167	0.281600	0.458600	0.569000
H1681	H168	0.241900	0.496300	0.537000
H1691	H169	0.088700	0.627700	0.696400
H1701	H170	0.138000	0.822300	0.651000
H1711	H171	0.173300	0.769900	0.628400
H1721	H172	0.199200	0.774100	0.664800
H1731	H173	0.010200	0.779600	0.688800
H1741	H174	0.007400	0.710800	0.721000
H1751	H175	0.987800	0.708900	0.682800
H1761	H176	0.327500	0.542900	0.733400
H1771	H177	0.527400	0.591300	0.659600
H1781	H178	0.458800	0.631000	0.648200
H1791	H179	0.464900	0.553100	0.648600
H1801	H180	0.517100	0.559200	0.725400
H1811	H181	0.449900	0.503600	0.748200
H1821	H182	0.442900	0.580500	0.749800
H1831	H183	0.607000	0.578800	0.759000
H1841	H184	0.550600	0.646500	0.852800
H1851	H185	0.582000	0.445800	0.862400
H1861	H186	0.586100	0.592100	0.998000
H1871	H187	0.842600	0.859000	0.742400
H1881	H188	0.813600	0.884500	0.636800
H1891	H189	0.014400	0.941900	0.650200
H1901	H190	0.897700	0.073200	0.500000
H1911	H191	0.703100	0.847600	0.618400
H1921	H192	0.729000	0.964000	0.578200
H1931	H193	0.649400	0.972400	0.569000
H1941	H194	0.721100	0.966700	0.537000
H1951	H195	0.714900	0.675900	0.696400
H1961	H196	0.711000	0.526700	0.651000
H1971	H197	0.698300	0.601700	0.628400
H1981	H198	0.636000	0.561100	0.664800
H1991	H199	0.801000	0.531600	0.688800
H2001	H200	0.771600	0.568200	0.721000
H2011	H201	0.829400	0.608300	0.682800
H2021	H202	0.439100	0.723700	0.733400
H2031	H203	0.313000	0.749100	0.659600
H2041	H204	0.393000	0.720800	0.648200
H2051	H205	0.386500	0.798300	0.648600
H2061	H206	0.257500	0.715400	0.725400
H2071	H207	0.301900	0.748200	0.748200
H2081	H208	0.307300	0.669700	0.749800
C11	C1	0.096580	0.144380	0.785440
C21	C2	0.079770	0.073270	0.801660
C31	C3	0.078860	0.025060	0.776880
C41	C4	0.063190	0.047690	0.841220
C51	C5	0.065450	0.092050	0.863500
C61	C6	0.081840	0.162240	0.847120
C71	C7	0.098020	0.188120	0.807360
C81	C8	0.117900	0.263700	0.788000
C91	C9	0.070800	0.005600	0.925800
C101	C10	0.039700	0.000500	0.963200
C111	C11	0.050400	0.942900	0.998400
C121	C12	0.007700	0.049400	0.966600
C131	C13	0.996900	0.092800	0.928800
C141	C14	0.361840	0.911040	0.715920
C151	C15	0.316440	0.940140	0.692320
C161	C16	0.234950	0.954550	0.708300
C171	C17	0.344280	0.958080	0.652640
C181	C18	0.417390	0.944790	0.637220
C191	C19	0.464700	0.916100	0.660800
C201	C20	0.437100	0.900100	0.700000
C211	C21	0.486710	0.870910	0.725980
C221	C22	0.407050	0.933650	0.573900
C231	C23	0.451940	0.965040	0.533920
C241	C24	0.438030	0.955330	0.499940
C251	C25	0.510140	0.007840	0.533520
C261	C26	0.506470	0.006670	0.574260
C271	C27	0.158390	0.033590	0.610620
C281	C28	0.196600	0.984800	0.564000
C291	C29	0.196200	0.163200	0.680200
C301	C30	0.189610	0.277210	0.653380
C311	C31	0.286850	0.231350	0.693900
C321	C32	0.937030	0.058530	0.707940
C331	C33	0.864860	0.087260	0.660880
C341	C34	0.803200	0.051200	0.733800
C351	C35	0.617980	0.070180	0.785440
C361	C36	0.618570	0.125070	0.801660
C371	C37	0.644260	0.198060	0.776880
C381	C38	0.595590	0.111090	0.841220
C391	C39	0.571050	0.044450	0.863500
C401	C40	0.571040	0.990640	0.847120
C411	C41	0.594620	0.004520	0.807360
C421	C42	0.594100	0.948300	0.788000
C431	C43	0.503400	0.068600	0.925800
C441	C44	0.497100	0.036300	0.963200
C451	C45	0.451200	0.058700	0.998400
C461	C46	0.525700	0.984000	0.966600
C471	C47	0.574300	0.978400	0.928800
C481	C48	0.422240	0.373040	0.715920
C491	C49	0.491240	0.367540	0.692320
C501	C50	0.556750	0.337150	0.708300
C511	C51	0.503080	0.389280	0.652640
C521	C52	0.445390	0.417990	0.637220
C531	C53	0.374500	0.423100	0.660800
C541	C54	0.362900	0.399900	0.700000
C551	C55	0.287310	0.403110	0.725980
C561	C56	0.519050	0.492450	0.573900
C571	C57	0.514140	0.501040	0.533920
C581	C58	0.562030	0.544730	0.499940
C591	C59	0.456340	0.458640	0.533520
C601	C60	0.419270	0.419070	0.574260
C611	C61	0.730990	0.355790	0.610620
C621	C62	0.739400	0.451200	0.564000
C631	C63	0.623600	0.156600	0.680200
C641	C64	0.657010	0.069410	0.653380
C651	C65	0.519250	0.074750	0.693900
C661	C66	0.855030	0.233530	0.707940
C671	C67	0.974260	0.251860	0.660880
C681	C68	0.963000	0.215000	0.733800
C691	C69	0.882020	0.355620	0.214560
C701	C70	0.881430	0.426730	0.198340
C711	C71	0.855740	0.474940	0.223120
C721	C72	0.904410	0.452310	0.158780
C731	C73	0.928950	0.407950	0.136500
C741	C74	0.928960	0.337760	0.152880
C751	C75	0.905380	0.311880	0.192640
C761	C76	0.905900	0.236300	0.212000
C771	C77	0.996600	0.494400	0.074200
C781	C78	0.002900	0.499500	0.036800
C791	C79	0.048800	0.557100	0.001600
C801	C80	0.974300	0.450600	0.033400
C811	C81	0.925700	0.407200	0.071200
C821	C82	0.077760	0.588960	0.284080
C831	C83	0.008760	0.559860	0.307680
C841	C84	0.943250	0.545450	0.291700
C851	C85	0.996920	0.541920	0.347360
C861	C86	0.054610	0.555210	0.362780
C871	C87	0.125500	0.583900	0.339200
C881	C88	0.137100	0.599900	0.300000
C891	C89	0.212690	0.629090	0.274020
C901	C90	0.980950	0.566350	0.426100
C911	C91	0.985860	0.534960	0.466080
C921	C92	0.937970	0.544670	0.500060
C931	C93	0.043660	0.492160	0.466480
C941	C94	0.080730	0.493330	0.425740
C951	C95	0.769010	0.466410	0.389380
C961	C96	0.760600	0.515200	0.436000
C971	C97	0.876400	0.336800	0.319800
C981	C98	0.842990	0.222790	0.346620
C991	C99	0.980750	0.268650	0.306100
C1001	C100	0.644970	0.441470	0.292060
C1011	C101	0.525740	0.412740	0.339120
C1021	C102	0.537000	0.448800	0.266200
C1031	C103	0.403420	0.429820	0.214560
C1041	C104	0.420230	0.374930	0.198340
C1051	C105	0.421140	0.301940	0.223120
C1061	C106	0.436810	0.388910	0.158780
C1071	C107	0.434550	0.455550	0.136500
C1081	C108	0.418160	0.509360	0.152880
C1091	C109	0.401980	0.495480	0.192640
C1101	C110	0.382100	0.551700	0.212000
C1111	C111	0.429200	0.431400	0.074200
C1121	C112	0.460300	0.463700	0.036800
C1131	C113	0.449600	0.441300	0.001600
C1141	C114	0.492300	0.516000	0.033400
C1151	C115	0.503100	0.521600	0.071200
C1161	C116	0.138160	0.126960	0.284080
C1171	C117	0.183560	0.132460	0.307680
C1181	C118	0.265050	0.162850	0.291700
C1191	C119	0.155720	0.110720	0.347360
C1201	C120	0.082610	0.082010	0.362780
C1211	C121	0.035300	0.076900	0.339200
C1221	C122	0.062900	0.100100	0.300000
C1231	C123	0.013290	0.096890	0.274020
C1241	C124	0.092950	0.007550	0.426100
C1251	C125	0.048060	0.998960	0.466080
C1261	C126	0.061970	0.955270	0.500060
C1271	C127	0.989860	0.041360	0.466480
C1281	C128	0.993530	0.080930	0.425740
C1291	C129	0.341610	0.144210	0.389380
C1301	C130	0.303400	0.048800	0.436000
C1311	C131	0.303800	0.343400	0.319800
C1321	C132	0.310390	0.430590	0.346620
C1331	C133	0.213150	0.425250	0.306100
C1341	C134	0.562970	0.266470	0.292060
C1351	C135	0.635140	0.248140	0.339120
C1361	C136	0.696800	0.285000	0.266200
C1371	C137	0.903420	0.855620	0.214560
C1381	C138	0.920230	0.926730	0.198340
C1391	C139	0.921140	0.974940	0.223120
C1401	C140	0.936810	0.952310	0.158780
C1411	C141	0.934550	0.907950	0.136500
C1421	C142	0.918160	0.837760	0.152880
C1431	C143	0.901980	0.811880	0.192640
C1441	C144	0.882100	0.736300	0.212000
C1451	C145	0.929200	0.994400	0.074200
C1461	C146	0.960300	0.999500	0.036800
C1471	C147	0.949600	0.057100	0.001600
C1481	C148	0.992300	0.950600	0.033400
C1491	C149	0.003100	0.907200	0.071200
C1501	C150	0.638160	0.088960	0.284080
C1511	C151	0.683560	0.059860	0.307680
C1521	C152	0.765050	0.045450	0.291700
C1531	C153	0.655720	0.041920	0.347360
C1541	C154	0.582610	0.055210	0.362780
C1551	C155	0.535300	0.083900	0.339200
C1561	C156	0.562900	0.099900	0.300000
C1571	C157	0.513290	0.129090	0.274020
C1581	C158	0.592950	0.066350	0.426100
C1591	C159	0.548060	0.034960	0.466080
C1601	C160	0.561970	0.044670	0.500060
C1611	C161	0.489860	0.992160	0.466480
C1621	C162	0.493530	0.993330	0.425740
C1631	C163	0.841610	0.966410	0.389380
C1641	C164	0.803400	0.015200	0.436000
C1651	C165	0.803800	0.836800	0.319800
C1661	C166	0.810390	0.722790	0.346620
C1671	C167	0.713150	0.768650	0.306100
C1681	C168	0.062970	0.941470	0.292060
C1691	C169	0.135140	0.912740	0.339120
C1701	C170	0.196800	0.948800	0.266200
C1711	C171	0.382020	0.929820	0.214560
C1721	C172	0.381430	0.874930	0.198340
C1731	C173	0.355740	0.801940	0.223120
C1741	C174	0.404410	0.888910	0.158780
C1751	C175	0.428950	0.955550	0.136500
C1761	C176	0.428960	0.009360	0.152880
C1771	C177	0.405380	0.995480	0.192640
C1781	C178	0.405900	0.051700	0.212000
C1791	C179	0.496600	0.931400	0.074200
C1801	C180	0.502900	0.963700	0.036800
C1811	C181	0.548800	0.941300	0.001600
C1821	C182	0.474300	0.016000	0.033400
C1831	C183	0.425700	0.021600	0.071200
C1841	C184	0.577760	0.626960	0.284080
C1851	C185	0.508760	0.632460	0.307680
C1861	C186	0.443250	0.662850	0.291700
C1871	C187	0.496920	0.610720	0.347360
C1881	C188	0.554610	0.582010	0.362780
C1891	C189	0.625500	0.576900	0.339200
C1901	C190	0.637100	0.600100	0.300000
C1911	C191	0.712690	0.596890	0.274020
C1921	C192	0.480950	0.507550	0.426100
C1931	C193	0.485860	0.498960	0.466080
C1941	C194	0.437970	0.455270	0.500060
C1951	C195	0.543660	0.541360	0.466480
C1961	C196	0.580730	0.580930	0.425740
C1971	C197	0.269010	0.644210	0.389380
C1981	C198	0.260600	0.548800	0.436000
C1991	C199	0.376400	0.843400	0.319800
C2001	C200	0.342990	0.930590	0.346620
C2011	C201	0.480750	0.925250	0.306100
C2021	C202	0.144970	0.766470	0.292060
C2031	C203	0.025740	0.748140	0.339120
C2041	C204	0.037000	0.785000	0.266200
C2051	C205	0.117980	0.644380	0.785440
C2061	C206	0.118570	0.573270	0.801660
C2071	C207	0.144260	0.525060	0.776880
C2081	C208	0.095590	0.547690	0.841220
C2091	C209	0.071050	0.592050	0.863500
C2101	C210	0.071040	0.662240	0.847120
C2111	C211	0.094620	0.688120	0.807360
C2121	C212	0.094100	0.763700	0.788000
C2131	C213	0.003400	0.505600	0.925800
C2141	C214	0.997100	0.500500	0.963200
C2151	C215	0.951200	0.442900	0.998400
C2161	C216	0.025700	0.549400	0.966600
C2171	C217	0.074300	0.592800	0.928800
C2181	C218	0.922240	0.411040	0.715920
C2191	C219	0.991240	0.440140	0.692320
C2201	C220	0.056750	0.454550	0.708300
C2211	C221	0.003080	0.458080	0.652640
C2221	C222	0.945390	0.444790	0.637220
C2231	C223	0.874500	0.416100	0.660800
C2241	C224	0.862900	0.400100	0.700000
C2251	C225	0.787310	0.370910	0.725980
C2261	C226	0.019050	0.433650	0.573900
C2271	C227	0.014140	0.465040	0.533920
C2281	C228	0.062030	0.455330	0.499940
C2291	C229	0.956340	0.507840	0.533520
C2301	C230	0.919270	0.506670	0.574260
C2311	C231	0.230990	0.533590	0.610620
C2321	C232	0.239400	0.484800	0.564000
C2331	C233	0.123600	0.663200	0.680200
C2341	C234	0.157010	0.777210	0.653380
C2351	C235	0.019250	0.731350	0.693900
C2361	C236	0.355030	0.558530	0.707940
C2371	C237	0.474260	0.587260	0.660880
C2381	C238	0.463000	0.551200	0.733800
C2391	C239	0.596580	0.570180	0.785440
C2401	C240	0.579770	0.625070	0.801660
C2411	C241	0.578860	0.698060	0.776880
C2421	C242	0.563190	0.611090	0.841220
C2431	C243	0.565450	0.544450	0.863500
C2441	C244	0.581840	0.490640	0.847120
C2451	C245	0.598020	0.504520	0.807360
C2461	C246	0.617900	0.448300	0.788000
C2471	C247	0.570800	0.568600	0.925800
C2481	C248	0.539700	0.536300	0.963200
C2491	C249	0.550400	0.558700	0.998400
C2501	C250	0.507700	0.484000	0.966600
C2511	C251	0.496900	0.478400	0.928800
C2521	C252	0.861840	0.873040	0.715920
C2531	C253	0.816440	0.867540	0.692320
C2541	C254	0.734950	0.837150	0.708300
C2551	C255	0.844280	0.889280	0.652640
C2561	C256	0.917390	0.917990	0.637220
C2571	C257	0.964700	0.923100	0.660800
C2581	C258	0.937100	0.899900	0.700000
C2591	C259	0.986710	0.903110	0.725980
C2601	C260	0.907050	0.992450	0.573900
C2611	C261	0.951940	0.001040	0.533920
C2621	C262	0.938030	0.044730	0.499940
C2631	C263	0.010140	0.958640	0.533520
C2641	C264	0.006470	0.919070	0.574260
C2651	C265	0.658390	0.855790	0.610620
C2661	C266	0.696600	0.951200	0.564000
C2671	C267	0.696200	0.656600	0.680200
C2681	C268	0.689610	0.569410	0.653380
C2691	C269	0.786850	0.574750	0.693900
C2701	C270	0.437030	0.733530	0.707940
C2711	C271	0.364860	0.751860	0.660880
C2721	C272	0.303200	0.715000	0.733800
N11	N1	0.046980	0.065680	0.904240
N21	N2	0.444780	0.960380	0.596440
N31	N3	0.185200	0.036100	0.573200
N41	N4	0.226190	0.223890	0.677820
N51	N5	0.868140	0.066340	0.700920
N61	N6	0.548780	0.030080	0.904240
N71	N7	0.458780	0.443180	0.596440
N81	N8	0.741600	0.390700	0.573200
N91	N9	0.595990	0.098290	0.677820
N101	N10	0.930940	0.232740	0.700920
N111	N11	0.951220	0.434320	0.095760
N121	N12	0.041220	0.539620	0.403560
N131	N13	0.758400	0.463900	0.426800
N141	N14	0.904010	0.276110	0.322180
N151	N15	0.569060	0.433660	0.299080
N161	N16	0.453020	0.469920	0.095760
N171	N17	0.055220	0.056820	0.403560
N181	N18	0.314800	0.109300	0.426800
N191	N19	0.273810	0.401710	0.322180
N201	N20	0.631860	0.267260	0.299080
N211	N21	0.953020	0.934320	0.095760
N221	N22	0.555220	0.039620	0.403560
N231	N23	0.814800	0.963900	0.426800
N241	N24	0.773810	0.776110	0.322180
N251	N25	0.131860	0.933660	0.299080
N261	N26	0.451220	0.969920	0.095760
N271	N27	0.541220	0.556820	0.403560
N281	N28	0.258400	0.609300	0.426800
N291	N29	0.404010	0.901710	0.322180
N301	N30	0.069060	0.767260	0.299080
N311	N31	0.048780	0.565680	0.904240
N321	N32	0.958780	0.460380	0.596440
N331	N33	0.241600	0.536100	0.573200
N341	N34	0.095990	0.723890	0.677820
N351	N35	0.430940	0.566340	0.700920
N361	N36	0.546980	0.530080	0.904240
N371	N37	0.944780	0.943180	0.596440
N381	N38	0.685200	0.890700	0.573200
N391	N39	0.726190	0.598290	0.677820
N401	N40	0.368140	0.732740	0.700920
O11	O1	0.083170	0.053870	0.742260
O21	O2	0.072530	0.962070	0.793140
O31	O3	0.141830	0.283830	0.752940
O41	O4	0.109860	0.306090	0.808080
O51	O5	0.124600	0.973600	0.910800
O61	O6	0.962600	0.143300	0.919800
O71	O7	0.202740	0.915140	0.741320
O81	O8	0.207490	0.000790	0.687220
O91	O9	0.462830	0.862330	0.761140
O101	O10	0.555470	0.858620	0.711460
O111	O11	0.351830	0.894530	0.585540
O121	O12	0.548710	0.035510	0.585780
O131	O13	0.123980	0.031780	0.631840
O141	O14	0.149790	0.141190	0.666420
O151	O15	0.998220	0.070620	0.682960
O161	O16	0.674570	0.203870	0.742260
O171	O17	0.634330	0.244790	0.793140
O181	O18	0.605230	0.963230	0.752940
O191	O19	0.582060	0.885830	0.808080
O201	O20	0.464600	0.115600	0.910800
O211	O21	0.617600	0.936900	0.919800
O221	O22	0.555940	0.343540	0.741320
O231	O23	0.605290	0.311990	0.687220
O241	O24	0.276030	0.376530	0.761140
O251	O25	0.233070	0.429920	0.711460
O261	O26	0.562630	0.519930	0.585540
O271	O27	0.365510	0.378710	0.585780
O281	O28	0.744180	0.336380	0.631840
O291	O29	0.683790	0.192390	0.666420
O301	O30	0.818820	0.246420	0.682960
O311	O31	0.825430	0.446130	0.257740
O321	O32	0.865670	0.537930	0.206860
O331	O33	0.894770	0.216170	0.247060
O341	O34	0.917940	0.193910	0.191920
O351	O35	0.035400	0.526400	0.089200
O361	O36	0.882400	0.356700	0.080200
O371	O37	0.944060	0.584860	0.258680
O381	O38	0.894710	0.499210	0.312780
O391	O39	0.223970	0.637670	0.238860
O401	O40	0.266930	0.641380	0.288540
O411	O41	0.937370	0.605470	0.414460
O421	O42	0.134490	0.464490	0.414220
O431	O43	0.755820	0.468220	0.368160
O441	O44	0.816210	0.358810	0.333580
O451	O45	0.681180	0.429380	0.317040
O461	O46	0.416830	0.296130	0.257740
O471	O47	0.427470	0.255210	0.206860
O481	O48	0.358170	0.536770	0.247060
O491	O49	0.390140	0.614170	0.191920
O501	O50	0.375400	0.384400	0.089200
O511	O51	0.537400	0.563100	0.080200
O521	O52	0.297260	0.156460	0.258680
O531	O53	0.292510	0.188010	0.312780
O541	O54	0.037170	0.123470	0.238860
O551	O55	0.944530	0.070080	0.288540
O561	O56	0.148170	0.980070	0.414460
O571	O57	0.951290	0.121290	0.414220
O581	O58	0.376020	0.163620	0.368160
O591	O59	0.350210	0.307610	0.333580
O601	O60	0.501780	0.253580	0.317040
O611	O61	0.916830	0.946130	0.257740
O621	O62	0.927470	0.037930	0.206860
O631	O63	0.858170	0.716170	0.247060
O641	O64	0.890140	0.693910	0.191920
O651	O65	0.875400	0.026400	0.089200
O661	O66	0.037400	0.856700	0.080200
O671	O67	0.797260	0.084860	0.258680
O681	O68	0.792510	0.999210	0.312780
O691	O69	0.537170	0.137670	0.238860
O701	O70	0.444530	0.141380	0.288540
O711	O71	0.648170	0.105470	0.414460
O721	O72	0.451290	0.964490	0.414220
O731	O73	0.876020	0.968220	0.368160
O741	O74	0.850210	0.858810	0.333580
O751	O75	0.001780	0.929380	0.317040
O761	O76	0.325430	0.796130	0.257740
O771	O77	0.365670	0.755210	0.206860
O781	O78	0.394770	0.036770	0.247060
O791	O79	0.417940	0.114170	0.191920
O801	O80	0.535400	0.884400	0.089200
O811	O81	0.382400	0.063100	0.080200
O821	O82	0.444060	0.656460	0.258680
O831	O83	0.394710	0.688010	0.312780
O841	O84	0.723970	0.623470	0.238860
O851	O85	0.766930	0.570080	0.288540
O861	O86	0.437370	0.480070	0.414460
O871	O87	0.634490	0.621290	0.414220
O881	O88	0.255820	0.663620	0.368160
O891	O89	0.316210	0.807610	0.333580
O901	O90	0.181180	0.753580	0.317040
O911	O91	0.174570	0.553870	0.742260
O921	O92	0.134330	0.462070	0.793140
O931	O93	0.105230	0.783830	0.752940
O941	O94	0.082060	0.806090	0.808080
O951	O95	0.964600	0.473600	0.910800
O961	O96	0.117600	0.643300	0.919800
O971	O97	0.055940	0.415140	0.741320
O981	O98	0.105290	0.500790	0.687220
O991	O99	0.776030	0.362330	0.761140
O1001	O100	0.733070	0.358620	0.711460
O1011	O101	0.062630	0.394530	0.585540
O1021	O102	0.865510	0.535510	0.585780
O1031	O103	0.244180	0.531780	0.631840
O1041	O104	0.183790	0.641190	0.666420
O1051	O105	0.318820	0.570620	0.682960
O1061	O106	0.583170	0.703870	0.742260
O1071	O107	0.572530	0.744790	0.793140
O1081	O108	0.641830	0.463230	0.752940
O1091	O109	0.609860	0.385830	0.808080
O1101	O110	0.624600	0.615600	0.910800
O1111	O111	0.462600	0.436900	0.919800
O1121	O112	0.702740	0.843540	0.741320
O1131	O113	0.707490	0.811990	0.687220
O1141	O114	0.962830	0.876530	0.761140
O1151	O115	0.055470	0.929920	0.711460
O1161	O116	0.851830	0.019930	0.585540
O1171	O117	0.048710	0.878710	0.585780
O1181	O118	0.623980	0.836380	0.631840
O1191	O119	0.649790	0.692390	0.666420
O1201	O120	0.498220	0.746420	0.682960
