data_ALIBUT_freeONLY_PM
_symmetry_space_group_name_H-M	'P1'
_cell_length_a	23.434500
_cell_length_b	23.434500
_cell_length_c	23.434500
_cell_angle_alpha	90.000000
_cell_angle_beta	90.000000
_cell_angle_gamma	90.000000
_symmetry_Int_Tables_number 1

loop_
_symmetry_equiv_pos_as_xyz
'x,y,z'

loop_
_atom_site_label
_atom_site_type_symbol
_atom_site_fract_x
_atom_site_fract_y
_atom_site_fract_z
N11	N1	0.363900	0.431800	0.147200
C11	C1	0.210600	0.555300	0.166600
C21	C2	0.349200	0.401900	0.196700
N21	N2	0.863900	0.931800	0.647200
C31	C3	0.710600	0.055300	0.666600
C41	C4	0.849200	0.901900	0.696700
N31	N3	0.636100	0.568200	0.147200
C51	C5	0.789400	0.444700	0.166600
C61	C6	0.650800	0.598100	0.196700
N41	N4	0.136100	0.068200	0.647200
C71	C7	0.289400	0.944700	0.666600
C81	C8	0.150800	0.098100	0.696700
N51	N5	0.636100	0.431800	0.852800
C91	C9	0.789400	0.555300	0.833400
C101	C10	0.650800	0.401900	0.803300
N61	N6	0.136100	0.931800	0.352800
C111	C11	0.289400	0.055300	0.333400
C121	C12	0.150800	0.901900	0.303300
N71	N7	0.363900	0.568200	0.852800
C131	C13	0.210600	0.444700	0.833400
C141	C14	0.349200	0.598100	0.803300
N81	N8	0.863900	0.068200	0.352800
C151	C15	0.710600	0.944700	0.333400
C161	C16	0.849200	0.098100	0.303300
N91	N9	0.147200	0.363900	0.431800
C171	C17	0.166600	0.210600	0.555300
C181	C18	0.196700	0.349200	0.401900
N101	N10	0.647200	0.863900	0.931800
C191	C19	0.666600	0.710600	0.055300
C201	C20	0.696700	0.849200	0.901900
N111	N11	0.147200	0.636100	0.568200
C211	C21	0.166600	0.789400	0.444700
C221	C22	0.196700	0.650800	0.598100
N121	N12	0.647200	0.136100	0.068200
C231	C23	0.666600	0.289400	0.944700
C241	C24	0.696700	0.150800	0.098100
N131	N13	0.852800	0.636100	0.431800
C251	C25	0.833400	0.789400	0.555300
C261	C26	0.803300	0.650800	0.401900
N141	N14	0.352800	0.136100	0.931800
C271	C27	0.333400	0.289400	0.055300
C281	C28	0.303300	0.150800	0.901900
N151	N15	0.852800	0.363900	0.568200
C291	C29	0.833400	0.210600	0.444700
C301	C30	0.803300	0.349200	0.598100
N161	N16	0.352800	0.863900	0.068200
C311	C31	0.333400	0.710600	0.944700
C321	C32	0.303300	0.849200	0.098100
N171	N17	0.431800	0.147200	0.363900
C331	C33	0.555300	0.166600	0.210600
C341	C34	0.401900	0.196700	0.349200
N181	N18	0.931800	0.647200	0.863900
C351	C35	0.055300	0.666600	0.710600
C361	C36	0.901900	0.696700	0.849200
N191	N19	0.568200	0.147200	0.636100
C371	C37	0.444700	0.166600	0.789400
C381	C38	0.598100	0.196700	0.650800
N201	N20	0.068200	0.647200	0.136100
C391	C39	0.944700	0.666600	0.289400
C401	C40	0.098100	0.696700	0.150800
N211	N21	0.431800	0.852800	0.636100
C411	C41	0.555300	0.833400	0.789400
C421	C42	0.401900	0.803300	0.650800
N221	N22	0.931800	0.352800	0.136100
C431	C43	0.055300	0.333400	0.289400
C441	C44	0.901900	0.303300	0.150800
N231	N23	0.568200	0.852800	0.363900
C451	C45	0.444700	0.833400	0.210600
C461	C46	0.598100	0.803300	0.349200
N241	N24	0.068200	0.352800	0.863900
C471	C47	0.944700	0.333400	0.710600
C481	C48	0.098100	0.303300	0.849200
N251	N25	0.431800	0.363900	0.852800
C491	C49	0.555300	0.210600	0.833400
C501	C50	0.401900	0.349200	0.803300
N261	N26	0.931800	0.863900	0.352800
C511	C51	0.055300	0.710600	0.333400
C521	C52	0.901900	0.849200	0.303300
N271	N27	0.568200	0.636100	0.852800
C531	C53	0.444700	0.789400	0.833400
C541	C54	0.598100	0.650800	0.803300
N281	N28	0.068200	0.136100	0.352800
C551	C55	0.944700	0.289400	0.333400
C561	C56	0.098100	0.150800	0.303300
N291	N29	0.431800	0.636100	0.147200
C571	C57	0.555300	0.789400	0.166600
C581	C58	0.401900	0.650800	0.196700
N301	N30	0.931800	0.136100	0.647200
C591	C59	0.055300	0.289400	0.666600
C601	C60	0.901900	0.150800	0.696700
N311	N31	0.568200	0.363900	0.147200
C611	C61	0.444700	0.210600	0.166600
C621	C62	0.598100	0.349200	0.196700
N321	N32	0.068200	0.863900	0.647200
C631	C63	0.944700	0.710600	0.666600
C641	C64	0.098100	0.849200	0.696700
N331	N33	0.363900	0.147200	0.568200
C651	C65	0.210600	0.166600	0.444700
C661	C66	0.349200	0.196700	0.598100
N341	N34	0.863900	0.647200	0.068200
C671	C67	0.710600	0.666600	0.944700
C681	C68	0.849200	0.696700	0.098100
N351	N35	0.636100	0.147200	0.431800
C691	C69	0.789400	0.166600	0.555300
C701	C70	0.650800	0.196700	0.401900
N361	N36	0.136100	0.647200	0.931800
C711	C71	0.289400	0.666600	0.055300
C721	C72	0.150800	0.696700	0.901900
N371	N37	0.636100	0.852800	0.568200
C731	C73	0.789400	0.833400	0.444700
C741	C74	0.650800	0.803300	0.598100
N381	N38	0.136100	0.352800	0.068200
C751	C75	0.289400	0.333400	0.944700
C761	C76	0.150800	0.303300	0.098100
N391	N39	0.363900	0.852800	0.431800
C771	C77	0.210600	0.833400	0.555300
C781	C78	0.349200	0.803300	0.401900
N401	N40	0.863900	0.352800	0.931800
C791	C79	0.710600	0.333400	0.055300
C801	C80	0.849200	0.303300	0.901900
N411	N41	0.147200	0.431800	0.636100
C811	C81	0.166600	0.555300	0.789400
C821	C82	0.196700	0.401900	0.650800
N421	N42	0.647200	0.931800	0.136100
C831	C83	0.666600	0.055300	0.289400
C841	C84	0.696700	0.901900	0.150800
N431	N43	0.147200	0.568200	0.363900
C851	C85	0.166600	0.444700	0.210600
C861	C86	0.196700	0.598100	0.349200
N441	N44	0.647200	0.068200	0.863900
C871	C87	0.666600	0.944700	0.710600
C881	C88	0.696700	0.098100	0.849200
N451	N45	0.852800	0.431800	0.363900
C891	C89	0.833400	0.555300	0.210600
C901	C90	0.803300	0.401900	0.349200
N461	N46	0.352800	0.931800	0.863900
C911	C91	0.333400	0.055300	0.710600
C921	C92	0.303300	0.901900	0.849200
N471	N47	0.852800	0.568200	0.636100
C931	C93	0.833400	0.444700	0.789400
C941	C94	0.803300	0.598100	0.650800
N481	N48	0.352800	0.068200	0.136100
C951	C95	0.333400	0.944700	0.289400
C961	C96	0.303300	0.098100	0.150800
N491	N49	0.636100	0.568200	0.852800
C971	C97	0.789400	0.444700	0.833400
C981	C98	0.650800	0.598100	0.803300
N501	N50	0.136100	0.068200	0.352800
C991	C99	0.289400	0.944700	0.333400
C1001	C100	0.150800	0.098100	0.303300
N511	N51	0.363900	0.431800	0.852800
C1011	C101	0.210600	0.555300	0.833400
C1021	C102	0.349200	0.401900	0.803300
N521	N52	0.863900	0.931800	0.352800
C1031	C103	0.710600	0.055300	0.333400
C1041	C104	0.849200	0.901900	0.303300
N531	N53	0.363900	0.568200	0.147200
C1051	C105	0.210600	0.444700	0.166600
C1061	C106	0.349200	0.598100	0.196700
N541	N54	0.863900	0.068200	0.647200
C1071	C107	0.710600	0.944700	0.666600
C1081	C108	0.849200	0.098100	0.696700
N551	N55	0.636100	0.431800	0.147200
C1091	C109	0.789400	0.555300	0.166600
C1101	C110	0.650800	0.401900	0.196700
N561	N56	0.136100	0.931800	0.647200
C1111	C111	0.289400	0.055300	0.666600
C1121	C112	0.150800	0.901900	0.696700
N571	N57	0.852800	0.636100	0.568200
C1131	C113	0.833400	0.789400	0.444700
C1141	C114	0.803300	0.650800	0.598100
N581	N58	0.352800	0.136100	0.068200
C1151	C115	0.333400	0.289400	0.944700
C1161	C116	0.303300	0.150800	0.098100
N591	N59	0.852800	0.363900	0.431800
C1171	C117	0.833400	0.210600	0.555300
C1181	C118	0.803300	0.349200	0.401900
N601	N60	0.352800	0.863900	0.931800
C1191	C119	0.333400	0.710600	0.055300
C1201	C120	0.303300	0.849200	0.901900
N611	N61	0.147200	0.363900	0.568200
C1211	C121	0.166600	0.210600	0.444700
C1221	C122	0.196700	0.349200	0.598100
N621	N62	0.647200	0.863900	0.068200
C1231	C123	0.666600	0.710600	0.944700
C1241	C124	0.696700	0.849200	0.098100
N631	N63	0.147200	0.636100	0.431800
C1251	C125	0.166600	0.789400	0.555300
C1261	C126	0.196700	0.650800	0.401900
N641	N64	0.647200	0.136100	0.931800
C1271	C127	0.666600	0.289400	0.055300
C1281	C128	0.696700	0.150800	0.901900
N651	N65	0.568200	0.852800	0.636100
C1291	C129	0.444700	0.833400	0.789400
C1301	C130	0.598100	0.803300	0.650800
N661	N66	0.068200	0.352800	0.136100
C1311	C131	0.944700	0.333400	0.289400
C1321	C132	0.098100	0.303300	0.150800
N671	N67	0.431800	0.852800	0.363900
C1331	C133	0.555300	0.833400	0.210600
C1341	C134	0.401900	0.803300	0.349200
N681	N68	0.931800	0.352800	0.863900
C1351	C135	0.055300	0.333400	0.710600
C1361	C136	0.901900	0.303300	0.849200
N691	N69	0.568200	0.147200	0.363900
C1371	C137	0.444700	0.166600	0.210600
C1381	C138	0.598100	0.196700	0.349200
N701	N70	0.068200	0.647200	0.863900
C1391	C139	0.944700	0.666600	0.710600
C1401	C140	0.098100	0.696700	0.849200
N711	N71	0.431800	0.147200	0.636100
C1411	C141	0.555300	0.166600	0.789400
C1421	C142	0.401900	0.196700	0.650800
N721	N72	0.931800	0.647200	0.136100
C1431	C143	0.055300	0.666600	0.289400
C1441	C144	0.901900	0.696700	0.150800
N731	N73	0.568200	0.636100	0.147200
C1451	C145	0.444700	0.789400	0.166600
C1461	C146	0.598100	0.650800	0.196700
N741	N74	0.068200	0.136100	0.647200
C1471	C147	0.944700	0.289400	0.666600
C1481	C148	0.098100	0.150800	0.696700
N751	N75	0.431800	0.363900	0.147200
C1491	C149	0.555300	0.210600	0.166600
C1501	C150	0.401900	0.349200	0.196700
N761	N76	0.931800	0.863900	0.647200
C1511	C151	0.055300	0.710600	0.666600
C1521	C152	0.901900	0.849200	0.696700
N771	N77	0.568200	0.363900	0.852800
C1531	C153	0.444700	0.210600	0.833400
C1541	C154	0.598100	0.349200	0.803300
N781	N78	0.068200	0.863900	0.352800
C1551	C155	0.944700	0.710600	0.333400
C1561	C156	0.098100	0.849200	0.303300
N791	N79	0.431800	0.636100	0.852800
C1571	C157	0.555300	0.789400	0.833400
C1581	C158	0.401900	0.650800	0.803300
N801	N80	0.931800	0.136100	0.352800
C1591	C159	0.055300	0.289400	0.333400
C1601	C160	0.901900	0.150800	0.303300
N811	N81	0.636100	0.852800	0.431800
C1611	C161	0.789400	0.833400	0.555300
C1621	C162	0.650800	0.803300	0.401900
N821	N82	0.136100	0.352800	0.931800
C1631	C163	0.289400	0.333400	0.055300
C1641	C164	0.150800	0.303300	0.901900
N831	N83	0.363900	0.852800	0.568200
C1651	C165	0.210600	0.833400	0.444700
C1661	C166	0.349200	0.803300	0.598100
N841	N84	0.863900	0.352800	0.068200
C1671	C167	0.710600	0.333400	0.944700
C1681	C168	0.849200	0.303300	0.098100
N851	N85	0.363900	0.147200	0.431800
C1691	C169	0.210600	0.166600	0.555300
C1701	C170	0.349200	0.196700	0.401900
N861	N86	0.863900	0.647200	0.931800
C1711	C171	0.710600	0.666600	0.055300
C1721	C172	0.849200	0.696700	0.901900
N871	N87	0.636100	0.147200	0.568200
C1731	C173	0.789400	0.166600	0.444700
C1741	C174	0.650800	0.196700	0.598100
N881	N88	0.136100	0.647200	0.068200
C1751	C175	0.289400	0.666600	0.944700
C1761	C176	0.150800	0.696700	0.098100
N891	N89	0.852800	0.568200	0.363900
C1771	C177	0.833400	0.444700	0.210600
C1781	C178	0.803300	0.598100	0.349200
N901	N90	0.352800	0.068200	0.863900
C1791	C179	0.333400	0.944700	0.710600
C1801	C180	0.303300	0.098100	0.849200
N911	N91	0.852800	0.431800	0.636100
C1811	C181	0.833400	0.555300	0.789400
C1821	C182	0.803300	0.401900	0.650800
N921	N92	0.352800	0.931800	0.136100
C1831	C183	0.333400	0.055300	0.289400
C1841	C184	0.303300	0.901900	0.150800
N931	N93	0.147200	0.568200	0.636100
C1851	C185	0.166600	0.444700	0.789400
C1861	C186	0.196700	0.598100	0.650800
N941	N94	0.647200	0.068200	0.136100
C1871	C187	0.666600	0.944700	0.289400
C1881	C188	0.696700	0.098100	0.150800
N951	N95	0.147200	0.431800	0.363900
C1891	C189	0.166600	0.555300	0.210600
C1901	C190	0.196700	0.401900	0.349200
N961	N96	0.647200	0.931800	0.863900
C1911	C191	0.666600	0.055300	0.710600
C1921	C192	0.696700	0.901900	0.849200
Mo11	Mo1	0.250000	0.500000	0.000000
Mo21	Mo2	0.750000	0.500000	0.000000
Mo31	Mo3	0.000000	0.250000	0.500000
Mo41	Mo4	0.000000	0.750000	0.500000
Mo51	Mo5	0.500000	0.250000	0.000000
Mo61	Mo6	0.500000	0.000000	0.250000
Mo71	Mo7	0.500000	0.000000	0.750000
Mo81	Mo8	0.500000	0.750000	0.000000
Mo91	Mo9	0.250000	0.000000	0.500000
Mo101	Mo10	0.750000	0.000000	0.500000
Mo111	Mo11	0.000000	0.500000	0.750000
Mo121	Mo12	0.000000	0.500000	0.250000
Zn11	Zn1	0.319450	0.500000	0.137710
N971	N97	0.249900	0.500000	0.184700
O11	O1	0.292300	0.500000	0.059100
Zn21	Zn2	0.819450	0.000000	0.637710
N981	N98	0.749900	0.000000	0.684700
O21	O2	0.792300	0.000000	0.559100
Zn31	Zn3	0.680550	0.500000	0.137710
N991	N99	0.750100	0.500000	0.184700
O31	O3	0.707700	0.500000	0.059100
Zn41	Zn4	0.180550	0.000000	0.637710
N1001	N100	0.250100	0.000000	0.684700
O41	O4	0.207700	0.000000	0.559100
Zn51	Zn5	0.680550	0.500000	0.862290
N1011	N101	0.750100	0.500000	0.815300
O51	O5	0.707700	0.500000	0.940900
Zn61	Zn6	0.180550	0.000000	0.362290
N1021	N102	0.250100	0.000000	0.315300
O61	O6	0.207700	0.000000	0.440900
Zn71	Zn7	0.319450	0.500000	0.862290
N1031	N103	0.249900	0.500000	0.815300
O71	O7	0.292300	0.500000	0.940900
Zn81	Zn8	0.819450	0.000000	0.362290
N1041	N104	0.749900	0.000000	0.315300
O81	O8	0.792300	0.000000	0.440900
Zn91	Zn9	0.137710	0.319450	0.500000
N1051	N105	0.184700	0.249900	0.500000
O91	O9	0.059100	0.292300	0.500000
Zn101	Zn10	0.637710	0.819450	0.000000
N1061	N106	0.684700	0.749900	0.000000
O101	O10	0.559100	0.792300	0.000000
Zn111	Zn11	0.137710	0.680550	0.500000
N1071	N107	0.184700	0.750100	0.500000
O111	O11	0.059100	0.707700	0.500000
Zn121	Zn12	0.637710	0.180550	0.000000
N1081	N108	0.684700	0.250100	0.000000
O121	O12	0.559100	0.207700	0.000000
Zn131	Zn13	0.862290	0.680550	0.500000
N1091	N109	0.815300	0.750100	0.500000
O131	O13	0.940900	0.707700	0.500000
Zn141	Zn14	0.362290	0.180550	0.000000
N1101	N110	0.315300	0.250100	0.000000
O141	O14	0.440900	0.207700	0.000000
Zn151	Zn15	0.862290	0.319450	0.500000
N1111	N111	0.815300	0.249900	0.500000
O151	O15	0.940900	0.292300	0.500000
Zn161	Zn16	0.362290	0.819450	0.000000
N1121	N112	0.315300	0.749900	0.000000
O161	O16	0.440900	0.792300	0.000000
Zn171	Zn17	0.500000	0.137710	0.319450
N1131	N113	0.500000	0.184700	0.249900
O171	O17	0.500000	0.059100	0.292300
Zn181	Zn18	0.000000	0.637710	0.819450
N1141	N114	0.000000	0.684700	0.749900
O181	O18	0.000000	0.559100	0.792300
Zn191	Zn19	0.500000	0.137710	0.680550
N1151	N115	0.500000	0.184700	0.750100
O191	O19	0.500000	0.059100	0.707700
Zn201	Zn20	0.000000	0.637710	0.180550
N1161	N116	0.000000	0.684700	0.250100
O201	O20	0.000000	0.559100	0.207700
Zn211	Zn21	0.500000	0.862290	0.680550
N1171	N117	0.500000	0.815300	0.750100
O211	O21	0.500000	0.940900	0.707700
Zn221	Zn22	0.000000	0.362290	0.180550
N1181	N118	0.000000	0.315300	0.250100
O221	O22	0.000000	0.440900	0.207700
Zn231	Zn23	0.500000	0.862290	0.319450
N1191	N119	0.500000	0.815300	0.249900
O231	O23	0.500000	0.940900	0.292300
Zn241	Zn24	0.000000	0.362290	0.819450
N1201	N120	0.000000	0.315300	0.749900
O241	O24	0.000000	0.440900	0.792300
Zn251	Zn25	0.500000	0.319450	0.862290
N1211	N121	0.500000	0.249900	0.815300
O251	O25	0.500000	0.292300	0.940900
Zn261	Zn26	0.000000	0.819450	0.362290
N1221	N122	0.000000	0.749900	0.315300
O261	O26	0.000000	0.792300	0.440900
Zn271	Zn27	0.500000	0.680550	0.862290
N1231	N123	0.500000	0.750100	0.815300
O271	O27	0.500000	0.707700	0.940900
Zn281	Zn28	0.000000	0.180550	0.362290
N1241	N124	0.000000	0.250100	0.315300
O281	O28	0.000000	0.207700	0.440900
Zn291	Zn29	0.500000	0.680550	0.137710
N1251	N125	0.500000	0.750100	0.184700
O291	O29	0.500000	0.707700	0.059100
Zn301	Zn30	0.000000	0.180550	0.637710
N1261	N126	0.000000	0.250100	0.684700
O301	O30	0.000000	0.207700	0.559100
Zn311	Zn31	0.500000	0.319450	0.137710
N1271	N127	0.500000	0.249900	0.184700
O311	O31	0.500000	0.292300	0.059100
Zn321	Zn32	0.000000	0.819450	0.637710
N1281	N128	0.000000	0.749900	0.684700
O321	O32	0.000000	0.792300	0.559100
Zn331	Zn33	0.319450	0.137710	0.500000
N1291	N129	0.249900	0.184700	0.500000
O331	O33	0.292300	0.059100	0.500000
Zn341	Zn34	0.819450	0.637710	0.000000
N1301	N130	0.749900	0.684700	0.000000
O341	O34	0.792300	0.559100	0.000000
Zn351	Zn35	0.680550	0.137710	0.500000
N1311	N131	0.750100	0.184700	0.500000
O351	O35	0.707700	0.059100	0.500000
Zn361	Zn36	0.180550	0.637710	0.000000
N1321	N132	0.250100	0.684700	0.000000
O361	O36	0.207700	0.559100	0.000000
Zn371	Zn37	0.680550	0.862290	0.500000
N1331	N133	0.750100	0.815300	0.500000
O371	O37	0.707700	0.940900	0.500000
Zn381	Zn38	0.180550	0.362290	0.000000
N1341	N134	0.250100	0.315300	0.000000
O381	O38	0.207700	0.440900	0.000000
Zn391	Zn39	0.319450	0.862290	0.500000
N1351	N135	0.249900	0.815300	0.500000
O391	O39	0.292300	0.940900	0.500000
Zn401	Zn40	0.819450	0.362290	0.000000
N1361	N136	0.749900	0.315300	0.000000
O401	O40	0.792300	0.440900	0.000000
Zn411	Zn41	0.137710	0.500000	0.680550
N1371	N137	0.184700	0.500000	0.750100
O411	O41	0.059100	0.500000	0.707700
Zn421	Zn42	0.637710	0.000000	0.180550
N1381	N138	0.684700	0.000000	0.250100
O421	O42	0.559100	0.000000	0.207700
Zn431	Zn43	0.137710	0.500000	0.319450
N1391	N139	0.184700	0.500000	0.249900
O431	O43	0.059100	0.500000	0.292300
Zn441	Zn44	0.637710	0.000000	0.819450
N1401	N140	0.684700	0.000000	0.749900
O441	O44	0.559100	0.000000	0.792300
Zn451	Zn45	0.862290	0.500000	0.319450
N1411	N141	0.815300	0.500000	0.249900
O451	O45	0.940900	0.500000	0.292300
Zn461	Zn46	0.362290	0.000000	0.819450
N1421	N142	0.315300	0.000000	0.749900
O461	O46	0.440900	0.000000	0.792300
Zn471	Zn47	0.862290	0.500000	0.680550
N1431	N143	0.815300	0.500000	0.750100
O471	O47	0.940900	0.500000	0.707700
Zn481	Zn48	0.362290	0.000000	0.180550
N1441	N144	0.315300	0.000000	0.250100
O481	O48	0.440900	0.000000	0.207700
C1931	C193	0.225600	0.500000	0.225600
C1941	C194	0.725600	0.000000	0.725600
C1951	C195	0.774400	0.500000	0.225600
C1961	C196	0.274400	0.000000	0.725600
C1971	C197	0.774400	0.500000	0.774400
C1981	C198	0.274400	0.000000	0.274400
C1991	C199	0.225600	0.500000	0.774400
C2001	C200	0.725600	0.000000	0.274400
C2011	C201	0.225600	0.225600	0.500000
C2021	C202	0.725600	0.725600	0.000000
C2031	C203	0.225600	0.774400	0.500000
C2041	C204	0.725600	0.274400	0.000000
C2051	C205	0.774400	0.774400	0.500000
C2061	C206	0.274400	0.274400	0.000000
C2071	C207	0.774400	0.225600	0.500000
C2081	C208	0.274400	0.725600	0.000000
C2091	C209	0.500000	0.225600	0.225600
C2101	C210	0.000000	0.725600	0.725600
C2111	C211	0.500000	0.225600	0.774400
C2121	C212	0.000000	0.725600	0.274400
C2131	C213	0.500000	0.774400	0.774400
C2141	C214	0.000000	0.274400	0.274400
C2151	C215	0.500000	0.774400	0.225600
C2161	C216	0.000000	0.274400	0.725600
C2171	C217	0.405700	0.405700	0.134400
C2181	C218	0.905700	0.905700	0.634400
C2191	C219	0.594300	0.594300	0.134400
C2201	C220	0.094300	0.094300	0.634400
C2211	C221	0.594300	0.405700	0.865600
C2221	C222	0.094300	0.905700	0.365600
C2231	C223	0.405700	0.594300	0.865600
C2241	C224	0.905700	0.094300	0.365600
C2251	C225	0.134400	0.405700	0.405700
C2261	C226	0.634400	0.905700	0.905700
C2271	C227	0.134400	0.594300	0.594300
C2281	C228	0.634400	0.094300	0.094300
C2291	C229	0.865600	0.594300	0.405700
C2301	C230	0.365600	0.094300	0.905700
C2311	C231	0.865600	0.405700	0.594300
C2321	C232	0.365600	0.905700	0.094300
C2331	C233	0.405700	0.134400	0.405700
C2341	C234	0.905700	0.634400	0.905700
C2351	C235	0.594300	0.134400	0.594300
C2361	C236	0.094300	0.634400	0.094300
C2371	C237	0.405700	0.865600	0.594300
C2381	C238	0.905700	0.365600	0.094300
C2391	C239	0.594300	0.865600	0.405700
C2401	C240	0.094300	0.365600	0.905700
C2411	C241	0.405700	0.405700	0.865600
C2421	C242	0.905700	0.905700	0.365600
C2431	C243	0.594300	0.594300	0.865600
C2441	C244	0.094300	0.094300	0.365600
C2451	C245	0.405700	0.594300	0.134400
C2461	C246	0.905700	0.094300	0.634400
C2471	C247	0.594300	0.405700	0.134400
C2481	C248	0.094300	0.905700	0.634400
C2491	C249	0.405700	0.134400	0.594300
C2501	C250	0.905700	0.634400	0.094300
C2511	C251	0.594300	0.134400	0.405700
C2521	C252	0.094300	0.634400	0.905700
C2531	C253	0.594300	0.865600	0.594300
C2541	C254	0.094300	0.365600	0.094300
C2551	C255	0.405700	0.865600	0.405700
C2561	C256	0.905700	0.365600	0.905700
C2571	C257	0.134400	0.405700	0.594300
C2581	C258	0.634400	0.905700	0.094300
C2591	C259	0.134400	0.594300	0.405700
C2601	C260	0.634400	0.094300	0.905700
C2611	C261	0.865600	0.405700	0.405700
C2621	C262	0.365600	0.905700	0.905700
C2631	C263	0.865600	0.594300	0.594300
C2641	C264	0.365600	0.094300	0.094300
