data_ALIXUP_freeONLY_PM
_symmetry_space_group_name_H-M	'P1'
_cell_length_a	8.138700
_cell_length_b	18.460900
_cell_length_c	18.655300
_cell_angle_alpha	90.000000
_cell_angle_beta	90.000000
_cell_angle_gamma	90.000000
_symmetry_Int_Tables_number 1

loop_
_symmetry_equiv_pos_as_xyz
'x,y,z'

loop_
_atom_site_label
_atom_site_type_symbol
_atom_site_fract_x
_atom_site_fract_y
_atom_site_fract_z
Cu11	Cu1	0.790670	0.930760	0.414360
Cu21	Cu2	0.790670	0.569240	0.085640
Cu31	Cu3	0.709330	0.069240	0.914360
Cu41	Cu4	0.709330	0.430760	0.585640
Cu51	Cu5	0.209330	0.069240	0.585640
Cu61	Cu6	0.209330	0.430760	0.914360
Cu71	Cu7	0.290670	0.930760	0.085640
Cu81	Cu8	0.290670	0.569240	0.414360
Cu91	Cu9	0.000000	0.500000	0.500000
Cu101	Cu10	0.000000	0.000000	0.000000
Cu111	Cu11	0.500000	0.500000	0.000000
Cu121	Cu12	0.500000	0.000000	0.500000
H11	H1	0.805800	0.710400	0.516700
H21	H2	0.577000	0.630400	0.690300
H31	H3	0.583200	0.844600	0.655500
H41	H4	0.389500	0.708100	0.756500
H51	H5	0.995000	0.446000	0.629000
H61	H6	0.100000	0.955000	0.381000
H71	H7	0.065000	0.942000	0.459200
H81	H8	0.805800	0.789600	0.983300
H91	H9	0.577000	0.869600	0.809700
H101	H10	0.583200	0.655400	0.844500
H111	H11	0.389500	0.791900	0.743500
H121	H12	0.995000	0.054000	0.871000
H131	H13	0.100000	0.545000	0.119000
H141	H14	0.065000	0.558000	0.040800
H151	H15	0.694200	0.289600	0.016700
H161	H16	0.923000	0.369600	0.190300
H171	H17	0.916800	0.155400	0.155500
H181	H18	0.110500	0.291900	0.256500
H191	H19	0.505000	0.554000	0.129000
H201	H20	0.400000	0.045000	0.881000
H211	H21	0.435000	0.058000	0.959200
H221	H22	0.694200	0.210400	0.483300
H231	H23	0.923000	0.130400	0.309700
H241	H24	0.916800	0.344600	0.344500
H251	H25	0.110500	0.208100	0.243500
H261	H26	0.505000	0.946000	0.371000
H271	H27	0.400000	0.455000	0.619000
H281	H28	0.435000	0.442000	0.540800
H291	H29	0.194200	0.289600	0.483300
H301	H30	0.423000	0.369600	0.309700
H311	H31	0.416800	0.155400	0.344500
H321	H32	0.610500	0.291900	0.243500
H331	H33	0.005000	0.554000	0.371000
H341	H34	0.900000	0.045000	0.619000
H351	H35	0.935000	0.058000	0.540800
H361	H36	0.194200	0.210400	0.016700
H371	H37	0.423000	0.130400	0.190300
H381	H38	0.416800	0.344600	0.155500
H391	H39	0.610500	0.208100	0.256500
H401	H40	0.005000	0.946000	0.129000
H411	H41	0.900000	0.455000	0.881000
H421	H42	0.935000	0.442000	0.959200
H431	H43	0.305800	0.710400	0.983300
H441	H44	0.077000	0.630400	0.809700
H451	H45	0.083200	0.844600	0.844500
H461	H46	0.889500	0.708100	0.743500
H471	H47	0.495000	0.446000	0.871000
H481	H48	0.600000	0.955000	0.119000
H491	H49	0.565000	0.942000	0.040800
H501	H50	0.305800	0.789600	0.516700
H511	H51	0.077000	0.869600	0.690300
H521	H52	0.083200	0.655400	0.655500
H531	H53	0.889500	0.791900	0.756500
H541	H54	0.495000	0.054000	0.629000
H551	H55	0.600000	0.545000	0.381000
H561	H56	0.565000	0.558000	0.459200
C11	C1	0.701100	0.787200	0.578470
C21	C2	0.745800	0.717800	0.558500
C31	C3	0.701000	0.659000	0.600700
C41	C4	0.608300	0.669900	0.662590
C51	C5	0.562400	0.739400	0.683060
C61	C6	0.610900	0.797900	0.641400
C71	C7	0.745600	0.850400	0.532000
C81	C8	0.749800	0.583600	0.579800
C91	C9	0.701100	0.712800	0.921530
C101	C10	0.745800	0.782200	0.941500
C111	C11	0.701000	0.841000	0.899300
C121	C12	0.608300	0.830100	0.837410
C131	C13	0.562400	0.760600	0.816940
C141	C14	0.610900	0.702100	0.858600
C151	C15	0.745600	0.649600	0.968000
C161	C16	0.749800	0.916400	0.920200
C171	C17	0.798900	0.212800	0.078470
C181	C18	0.754200	0.282200	0.058500
C191	C19	0.799000	0.341000	0.100700
C201	C20	0.891700	0.330100	0.162590
C211	C21	0.937600	0.260600	0.183060
C221	C22	0.889100	0.202100	0.141400
C231	C23	0.754400	0.149600	0.032000
C241	C24	0.750200	0.416400	0.079800
C251	C25	0.798900	0.287200	0.421530
C261	C26	0.754200	0.217800	0.441500
C271	C27	0.799000	0.159000	0.399300
C281	C28	0.891700	0.169900	0.337410
C291	C29	0.937600	0.239400	0.316940
C301	C30	0.889100	0.297900	0.358600
C311	C31	0.754400	0.350400	0.468000
C321	C32	0.750200	0.083600	0.420200
C331	C33	0.298900	0.212800	0.421530
C341	C34	0.254200	0.282200	0.441500
C351	C35	0.299000	0.341000	0.399300
C361	C36	0.391700	0.330100	0.337410
C371	C37	0.437600	0.260600	0.316940
C381	C38	0.389100	0.202100	0.358600
C391	C39	0.254400	0.149600	0.468000
C401	C40	0.250200	0.416400	0.420200
C411	C41	0.298900	0.287200	0.078470
C421	C42	0.254200	0.217800	0.058500
C431	C43	0.299000	0.159000	0.100700
C441	C44	0.391700	0.169900	0.162590
C451	C45	0.437600	0.239400	0.183060
C461	C46	0.389100	0.297900	0.141400
C471	C47	0.254400	0.350400	0.032000
C481	C48	0.250200	0.083600	0.079800
C491	C49	0.201100	0.787200	0.921530
C501	C50	0.245800	0.717800	0.941500
C511	C51	0.201000	0.659000	0.899300
C521	C52	0.108300	0.669900	0.837410
C531	C53	0.062400	0.739400	0.816940
C541	C54	0.110900	0.797900	0.858600
C551	C55	0.245600	0.850400	0.968000
C561	C56	0.249800	0.583600	0.920200
C571	C57	0.201100	0.712800	0.578470
C581	C58	0.245800	0.782200	0.558500
C591	C59	0.201000	0.841000	0.600700
C601	C60	0.108300	0.830100	0.662590
C611	C61	0.062400	0.760600	0.683060
C621	C62	0.110900	0.702100	0.641400
C631	C63	0.245600	0.649600	0.532000
C641	C64	0.249800	0.916400	0.579800
C651	C65	0.459800	0.750000	0.750000
C661	C66	0.040200	0.250000	0.250000
C671	C67	0.540200	0.250000	0.250000
C681	C68	0.959800	0.750000	0.750000
O11	O1	0.752500	0.912570	0.557070
O21	O2	0.772700	0.836780	0.465430
O31	O3	0.848700	0.577760	0.527710
O41	O4	0.692200	0.532710	0.615230
O51	O5	0.946700	0.442810	0.583150
O61	O6	0.036200	0.925800	0.412300
O71	O7	0.752500	0.587430	0.942930
O81	O8	0.772700	0.663220	0.034570
O91	O9	0.848700	0.922240	0.972290
O101	O10	0.692200	0.967290	0.884770
O111	O11	0.946700	0.057190	0.916850
O121	O12	0.036200	0.574200	0.087700
O131	O13	0.747500	0.087430	0.057070
O141	O14	0.727300	0.163220	0.965430
O151	O15	0.651300	0.422240	0.027710
O161	O16	0.807800	0.467290	0.115230
O171	O17	0.553300	0.557190	0.083150
O181	O18	0.463800	0.074200	0.912300
O191	O19	0.747500	0.412570	0.442930
O201	O20	0.727300	0.336780	0.534570
O211	O21	0.651300	0.077760	0.472290
O221	O22	0.807800	0.032710	0.384770
O231	O23	0.553300	0.942810	0.416850
O241	O24	0.463800	0.425800	0.587700
O251	O25	0.247500	0.087430	0.442930
O261	O26	0.227300	0.163220	0.534570
O271	O27	0.151300	0.422240	0.472290
O281	O28	0.307800	0.467290	0.384770
O291	O29	0.053300	0.557190	0.416850
O301	O30	0.963800	0.074200	0.587700
O311	O31	0.247500	0.412570	0.057070
O321	O32	0.227300	0.336780	0.965430
O331	O33	0.151300	0.077760	0.027710
O341	O34	0.307800	0.032710	0.115230
O351	O35	0.053300	0.942810	0.083150
O361	O36	0.963800	0.425800	0.912300
O371	O37	0.252500	0.912570	0.942930
O381	O38	0.272700	0.836780	0.034570
O391	O39	0.348700	0.577760	0.972290
O401	O40	0.192200	0.532710	0.884770
O411	O41	0.446700	0.442810	0.916850
O421	O42	0.536200	0.925800	0.087700
O431	O43	0.252500	0.587430	0.557070
O441	O44	0.272700	0.663220	0.465430
O451	O45	0.348700	0.922240	0.527710
O461	O46	0.192200	0.967290	0.615230
O471	O47	0.446700	0.057190	0.583150
O481	O48	0.536200	0.574200	0.412300
