data_ALOLES_ion_b_PM
_symmetry_space_group_name_H-M	'P1'
_cell_length_a	15.256100
_cell_length_b	15.256100
_cell_length_c	28.086000
_cell_angle_alpha	91.110500
_cell_angle_beta	91.110500
_cell_angle_gamma	36.696500
_symmetry_Int_Tables_number 1

loop_
_symmetry_equiv_pos_as_xyz
'x,y,z'

loop_
_atom_site_label
_atom_site_type_symbol
_atom_site_fract_x
_atom_site_fract_y
_atom_site_fract_z
Bi11	Bi1	0.562740	0.629440	0.038690
Bi21	Bi2	0.757920	0.674950	0.015760
Bi31	Bi3	0.449290	0.616630	0.144460
O41	O4	0.645270	0.954300	0.030300
O51	O5	0.556310	0.888830	0.043500
O61	O6	0.184700	0.249360	0.103340
O71	O7	0.127260	0.352360	0.032610
O81	O8	0.037240	0.557010	0.113020
O91	O9	0.158870	0.582670	0.107430
O101	O10	0.368990	0.263780	0.037670
O111	O11	0.627930	0.541830	0.110450
O121	O12	0.700680	0.625320	0.122470
O131	O13	0.386400	0.760460	0.200620
O141	O14	0.493800	0.785330	0.242730
O151	O15	0.546080	0.574550	0.347240
O161	O16	0.543210	0.486570	0.287700
O171	O17	0.596810	0.497860	0.204260
O181	O18	0.747800	0.543740	0.006140
O191	O19	0.981160	0.346340	0.979460
O201	O20	0.557900	0.563710	0.968310
O211	O21	0.737530	0.358030	0.923320
O221	O22	0.640070	0.267400	0.955140
O231	O23	0.663650	0.195280	0.025810
O241	O24	0.666210	0.420120	0.044090
O251	O25	0.652280	0.385560	0.143960
C261	C26	0.565330	0.971480	0.053570
C271	C27	0.481750	0.077400	0.094640
H281	H28	0.557740	0.061650	0.114100
H291	H29	0.455950	0.045550	0.120160
C301	C30	0.340450	0.240170	0.079550
C311	C31	0.215850	0.276360	0.072430
C321	C32	0.300910	0.338410	0.119980
H331	H33	0.294090	0.309730	0.154540
H341	H34	0.390770	0.315470	0.123580
C351	C35	0.158730	0.500340	0.112300
C361	C36	0.691630	0.558830	0.138330
C371	C37	0.753380	0.492880	0.187690
H381	H38	0.797100	0.520110	0.203410
H391	H39	0.846940	0.371550	0.184040
C401	C40	0.639170	0.545830	0.221600
C411	C41	0.504270	0.705520	0.222610
C421	C42	0.699240	0.485140	0.272870
H431	H43	0.718960	0.533670	0.290990
H441	H44	0.805890	0.364490	0.271060
C451	C45	0.595080	0.514230	0.302060
C461	C46	0.880500	0.392190	0.000360
C471	C47	0.900760	0.283470	0.017350
H481	H48	0.922960	0.268560	0.056320
H491	H49	0.001450	0.175420	0.000420
C501	C50	0.767830	0.328470	0.007300
C511	C51	0.688810	0.414480	0.962710
C521	C52	0.822210	0.188630	0.005600
H531	H53	0.904160	0.117290	0.976930
H541	H54	0.874270	0.131980	0.040370
C551	C55	0.707650	0.212440	0.994530
O561	O56	0.231920	0.957000	0.877840
K571	K57	0.378490	0.715870	0.895000
N581	N58	0.938040	0.996510	0.863530
Bi591	Bi59	0.365640	0.472100	0.452750
Bi601	Bi60	0.204090	0.443760	0.521140
Bi611	Bi61	0.409570	0.568650	0.347270
O621	O62	0.207620	0.342590	0.423440
O631	O63	0.040130	0.503690	0.481960
O641	O64	0.776270	0.799920	0.402840
O651	O65	0.715050	0.817510	0.478000
O661	O66	0.491130	0.930400	0.390110
O671	O67	0.460250	0.813150	0.393380
O681	O68	0.801870	0.576870	0.462970
O691	O69	0.409320	0.437420	0.376120
O701	O70	0.211130	0.505070	0.369780
O711	O71	0.225640	0.722940	0.299420
O721	O72	0.096230	0.726500	0.256380
O731	O73	0.530440	0.426290	0.167550
O741	O74	0.306950	0.637740	0.178080
O751	O75	0.468450	0.445120	0.284830
O761	O76	0.387610	0.322040	0.475900
O771	O77	0.546400	0.109640	0.517720
O781	O78	0.429770	0.467020	0.524790
O791	O79	0.609480	0.268940	0.572120
O801	O80	0.742130	0.331880	0.540550
O811	O81	0.854180	0.266260	0.473330
O821	O82	0.588350	0.332370	0.451470
O831	O83	0.619070	0.346260	0.360850
C841	C84	0.080410	0.440600	0.436600
C851	C85	0.967370	0.492970	0.403160
H861	H86	0.997590	0.399300	0.395470
H871	H87	0.974350	0.523170	0.369090
C881	C88	0.808360	0.624510	0.422260
C891	C89	0.766650	0.752010	0.433400
C901	C90	0.706570	0.666800	0.382610
H911	H91	0.733570	0.674060	0.347680
H921	H92	0.728380	0.577740	0.379130
C931	C93	0.545200	0.810310	0.390150
C941	C94	0.315420	0.455510	0.350240
C951	C95	0.340540	0.414810	0.298140
H961	H96	0.251580	0.442690	0.284070
H971	H97	0.445500	0.293990	0.294940
C981	C98	0.348710	0.491590	0.268340
C991	C99	0.213620	0.654530	0.274040
C1001	C100	0.372390	0.449090	0.214900
H1011	H101	0.276660	0.489050	0.200260
H1021	H102	0.470210	0.327580	0.211340
C1031	C103	0.397790	0.509130	0.185660
C1041	C104	0.529810	0.185070	0.491540
C1051	C105	0.665450	0.127030	0.476800
H1061	H106	0.680830	0.104810	0.437860
H1071	H107	0.763000	0.019700	0.494560
C1081	C108	0.658040	0.233000	0.488860
C1091	C109	0.567870	0.322200	0.532400
C1101	C110	0.813620	0.147820	0.494910
H1111	H111	0.871120	0.070080	0.525020
H1121	H112	0.876180	0.083800	0.461790
C1131	C113	0.809380	0.248890	0.504160
O1141	O114	0.043540	0.757970	0.611300
K1151	K115	0.275020	0.638210	0.598610
N1161	N116	0.022840	0.102240	0.621700
Bi1171	Bi117	0.424960	0.390250	0.953360
Bi1181	Bi118	0.224040	0.350310	0.978590
Bi1191	Bi119	0.541480	0.401440	0.846200
O1201	O120	0.320230	0.080790	0.967110
O1211	O121	0.422250	0.132020	0.952760
O1221	O122	0.766230	0.804930	0.891450
O1231	O123	0.838900	0.690940	0.961110
O1241	O124	0.938270	0.482800	0.881950
O1251	O125	0.832270	0.439440	0.886900
O1261	O126	0.608530	0.761830	0.958490
O1271	O127	0.367990	0.467710	0.880370
O1281	O128	0.309440	0.370220	0.869680
O1291	O129	0.632020	0.240800	0.791990
O1301	O130	0.548230	0.180670	0.758740
O1311	O131	0.381270	0.574610	0.673410
O1321	O132	0.552930	0.343630	0.675340
O1331	O133	0.413360	0.494390	0.781400
O1341	O134	0.237740	0.478830	0.985800
O1351	O135	0.005070	0.676050	0.013180
O1361	O136	0.429640	0.457170	0.022730
O1371	O137	0.251650	0.661850	0.068170
O1381	O138	0.345290	0.757080	0.036980
O1391	O139	0.334100	0.811450	0.964510
O1401	O140	0.318480	0.601150	0.946890
O1411	O141	0.332050	0.629930	0.843740
C1421	C142	0.403320	0.057740	0.943090
C1431	C143	0.481120	0.952630	0.901930
H1441	H144	0.406480	0.961550	0.886540
H1451	H145	0.496430	0.989140	0.873480
C1461	C146	0.629180	0.791790	0.916220
C1471	C147	0.745510	0.767660	0.922330
C1481	C148	0.674100	0.690410	0.875940
H1491	H149	0.674430	0.723950	0.841190
H1501	H150	0.590050	0.705020	0.873320
C1511	C151	0.822120	0.529990	0.882800
C1521	C152	0.316640	0.437180	0.852440
C1531	C153	0.265110	0.489230	0.801350
H1541	H154	0.227810	0.454510	0.786720
H1551	H155	0.168270	0.611150	0.801570
C1561	C156	0.383070	0.432060	0.768100
C1571	C157	0.524100	0.274810	0.772890
C1581	C158	0.333840	0.469920	0.715100
H1591	H159	0.338090	0.399280	0.699260
H1601	H160	0.218200	0.585420	0.712800
C1611	C161	0.426480	0.457030	0.686370
C1621	C162	0.105370	0.630360	0.992000
C1631	C163	0.084790	0.739230	0.975080
H1641	H164	0.060210	0.755980	0.936260
H1651	H165	0.985480	0.846610	0.992660
C1661	C166	0.218840	0.692610	0.984230
C1671	C167	0.299040	0.606080	0.028640
C1681	C168	0.166160	0.831390	0.985960
H1691	H169	0.084680	0.903150	0.014730
H1701	H170	0.113870	0.888620	0.951290
C1711	C171	0.282380	0.805320	0.996760
O1721	O172	0.717010	0.077660	0.115430
K1731	K173	0.598830	0.304580	0.095220
N1741	N174	0.039910	0.003660	0.128880
Bi1751	Bi175	0.639090	0.537780	0.543880
Bi1761	Bi176	0.717990	0.708800	0.525910
Bi1771	Bi177	0.596310	0.439190	0.649470
O1781	O178	0.894030	0.642200	0.609510
O1791	O179	0.930530	0.503320	0.554440
O1801	O180	0.296130	0.121200	0.564610
O1811	O181	0.284830	0.247580	0.517280
O1821	O182	0.615250	0.955680	0.619680
O1831	O183	0.545180	0.149340	0.624900
O1841	O184	0.246930	0.384090	0.594800
O1851	O185	0.577800	0.583980	0.618750
O1861	O186	0.737760	0.569410	0.629380
O1871	O187	0.764800	0.314230	0.704510
O1881	O188	0.883670	0.336370	0.737050
O1891	O189	0.447090	0.597520	0.821790
O1901	O190	0.678560	0.398230	0.823200
O1911	O191	0.528030	0.560290	0.714890
O1921	O192	0.574940	0.714120	0.514300
O1931	O193	0.393990	0.947490	0.487340
O1941	O194	0.554550	0.550920	0.477200
O1951	O195	0.358790	0.747330	0.432060
O1961	O196	0.223430	0.695730	0.456670
O1971	O197	0.175160	0.696580	0.528740
O1981	O198	0.415260	0.672650	0.552490
O1991	O199	0.378960	0.663430	0.651020
C2001	C200	0.967370	0.520550	0.596340
C2011	C201	0.095900	0.389880	0.626310
H2021	H202	0.084400	0.430590	0.662200
H2031	H203	0.089680	0.322900	0.631590
C2041	C204	0.246380	0.294830	0.605340
C2051	C205	0.277870	0.214770	0.561510
C2061	C206	0.366520	0.182520	0.643580
H2071	H207	0.370000	0.108920	0.652390
H2081	H208	0.339300	0.240560	0.677090
C2091	C209	0.516160	0.091560	0.628350
C2101	C210	0.644480	0.597280	0.646640
C2111	C211	0.601730	0.648110	0.697860
H2121	H212	0.666500	0.652240	0.712820
H2131	H213	0.484280	0.761710	0.698650
C2141	C214	0.624670	0.549270	0.729280
C2151	C215	0.769330	0.393810	0.723450
C2161	C216	0.598890	0.592240	0.782600
H2171	H217	0.690850	0.558260	0.797450
H2181	H218	0.497100	0.713390	0.786400
C2191	C219	0.580390	0.525000	0.810900
C2201	C220	0.426610	0.854700	0.508360
C2211	C221	0.305080	0.894410	0.525970
H2221	H222	0.295110	0.913810	0.564990
H2231	H223	0.200190	0.000870	0.509740
C2241	C224	0.328690	0.776220	0.515810
C2251	C225	0.411830	0.693160	0.471380
C2261	C226	0.177650	0.849840	0.513460
H2271	H227	0.107020	0.940310	0.487360
H2281	H228	0.124570	0.898210	0.548880
C2291	C229	0.184280	0.749150	0.498410
O2301	O230	0.935920	0.267430	0.379480
K2311	K231	0.708380	0.397120	0.407200
N2321	N232	0.956830	0.911410	0.378940
N2331	N233	0.171180	0.970670	0.301780
N2341	N234	0.840260	0.137470	0.245960
N2351	N235	0.890810	0.979840	0.710630
N2361	N236	0.174470	0.893530	0.751120
H2371	H237	0.853430	0.181160	0.224290
H2381	H238	0.742060	0.184420	0.237140
H2391	H239	0.837740	0.160180	0.281600
H2401	H240	0.152460	0.956600	0.268330
H2411	H241	0.144280	0.058710	0.300700
H2421	H242	0.281690	0.875350	0.311020
H2431	H243	0.985240	0.842760	0.352530
H2441	H244	0.035900	0.897510	0.380810
H2451	H245	0.951230	0.884790	0.411670
H2461	H246	0.021780	0.126130	0.586940
H2471	H247	0.995670	0.175250	0.645190
H2481	H248	0.127290	0.995030	0.630080
H2491	H249	0.921410	0.914240	0.738310
H2501	H250	0.807900	0.016430	0.690260
H2511	H251	0.981490	0.918810	0.689130
H2521	H252	0.202230	0.805800	0.744390
H2531	H253	0.081960	0.984140	0.731080
H2541	H254	0.261710	0.863850	0.741670
H2551	H255	0.921290	0.077430	0.861060
H2561	H256	0.878330	0.020510	0.892120
H2571	H257	0.049450	0.894750	0.868870
H2581	H258	0.949740	0.118160	0.129110
H2591	H259	0.086400	0.964960	0.162930
H2601	H260	0.117460	0.963830	0.104760
H2611	H261	0.152130	0.920490	0.787300
H2621	H262	0.852490	0.069990	0.724790
H2631	H263	0.903390	0.993040	0.832030
H2641	H264	0.946620	0.112640	0.624540
H2651	H265	0.854940	0.020480	0.370780
H2661	H266	0.927890	0.024060	0.240780
H2671	H267	0.106350	0.991960	0.327060
H2681	H268	0.006050	0.967750	0.118690
