data_ALULEZ_freeONLY_PM
_symmetry_space_group_name_H-M	'P1'
_cell_length_a	34.514600
_cell_length_b	34.514600
_cell_length_c	34.514600
_cell_angle_alpha	109.471000
_cell_angle_beta	109.471000
_cell_angle_gamma	109.471000
_symmetry_Int_Tables_number 1

loop_
_symmetry_equiv_pos_as_xyz
'x,y,z'

loop_
_atom_site_label
_atom_site_type_symbol
_atom_site_fract_x
_atom_site_fract_y
_atom_site_fract_z
Ce11	Ce1	0.500000	0.500000	0.000000
Ce21	Ce2	0.000000	0.500000	0.500000
Ce31	Ce3	0.500000	0.000000	0.500000
Ce41	Ce4	0.000000	0.000000	0.000000
Ce51	Ce5	0.617130	0.617130	0.117130
Ce61	Ce6	0.000000	0.500000	0.382870
Ce71	Ce7	0.500000	0.882870	0.500000
Ce81	Ce8	0.882870	0.000000	0.000000
Ce91	Ce9	0.382870	0.382870	0.882870
Ce101	Ce10	0.000000	0.500000	0.617130
Ce111	Ce11	0.500000	0.117130	0.500000
Ce121	Ce12	0.117130	0.000000	0.000000
H11	H1	0.764300	0.904200	0.032300
H21	H2	0.715000	0.839600	0.027000
H31	H3	0.731600	0.757100	0.926300
H41	H4	0.783400	0.825200	0.932400
H51	H5	0.595200	0.589200	0.938800
H61	H6	0.639900	0.652100	0.933000
H71	H7	0.635300	0.741000	0.040500
H81	H8	0.594200	0.675900	0.047700
H91	H9	0.371900	0.732000	0.467700
H101	H10	0.312600	0.688000	0.473000
H111	H11	0.330800	0.805300	0.573700
H121	H12	0.392800	0.851000	0.567600
H131	H13	0.150400	0.656400	0.561200
H141	H14	0.219100	0.706900	0.567000
H151	H15	0.200500	0.594800	0.459500
H161	H16	0.128200	0.546500	0.452300
H171	H17	0.128100	0.595800	0.360100
H181	H18	0.187400	0.660400	0.375400
H191	H19	0.169200	0.742900	0.474500
H201	H20	0.107200	0.674800	0.458200
H211	H21	0.349600	0.910800	0.506000
H221	H22	0.280900	0.847900	0.487800
H231	H23	0.299500	0.759000	0.394300
H241	H24	0.371800	0.824100	0.418300
H251	H25	0.735700	0.768000	0.139900
H261	H26	0.785000	0.812000	0.124600
H271	H27	0.768400	0.694700	0.025500
H281	H28	0.716600	0.649000	0.041800
H291	H29	0.904800	0.843600	0.994000
H301	H30	0.860100	0.793100	0.012200
H311	H31	0.864700	0.905200	0.105700
H321	H32	0.905800	0.953500	0.081700
H331	H33	0.860100	0.128100	0.095800
H341	H34	0.875400	0.187400	0.160400
H351	H35	0.974500	0.169200	0.242900
H361	H36	0.958200	0.107200	0.174800
H371	H37	0.006000	0.349600	0.410800
H381	H38	0.987800	0.280900	0.347900
H391	H39	0.894300	0.299500	0.259000
H401	H40	0.918300	0.371800	0.324100
H411	H41	0.639900	0.735700	0.268000
H421	H42	0.624600	0.785000	0.312000
H431	H43	0.525500	0.768400	0.194700
H441	H44	0.541800	0.716600	0.149000
H451	H45	0.494000	0.904800	0.343600
H461	H46	0.512200	0.860100	0.293100
H471	H47	0.605700	0.864700	0.405200
H481	H48	0.581700	0.905800	0.453500
H491	H49	0.532300	0.764300	0.404200
H501	H50	0.527000	0.715000	0.339600
H511	H51	0.426300	0.731600	0.257100
H521	H52	0.432400	0.783400	0.325200
H531	H53	0.438800	0.595200	0.089200
H541	H54	0.433000	0.639900	0.152100
H551	H55	0.540500	0.635300	0.241000
H561	H56	0.547700	0.594200	0.175900
H571	H57	0.967700	0.371900	0.232000
H581	H58	0.973000	0.312600	0.188000
H591	H59	0.073700	0.330800	0.305300
H601	H60	0.067600	0.392800	0.351000
H611	H61	0.061200	0.150400	0.156400
H621	H62	0.067000	0.219100	0.206900
H631	H63	0.959500	0.200500	0.094800
H641	H64	0.952300	0.128200	0.046500
H651	H65	0.732000	0.967700	0.871900
H661	H66	0.688000	0.973000	0.812600
H671	H67	0.805300	0.073700	0.830800
H681	H68	0.851000	0.067600	0.892800
H691	H69	0.656400	0.061200	0.650400
H701	H70	0.706900	0.067000	0.719100
H711	H71	0.594800	0.959500	0.700500
H721	H72	0.546500	0.952300	0.628200
H731	H73	0.904200	0.532300	0.264300
H741	H74	0.839600	0.527000	0.215000
H751	H75	0.757100	0.426300	0.231600
H761	H76	0.825200	0.432400	0.283400
H771	H77	0.589200	0.438800	0.095200
H781	H78	0.652100	0.433000	0.139900
H791	H79	0.741000	0.540500	0.135300
H801	H80	0.675900	0.547700	0.094200
H811	H81	0.768000	0.639900	0.235700
H821	H82	0.812000	0.624600	0.285000
H831	H83	0.694700	0.525500	0.268400
H841	H84	0.649000	0.541800	0.216600
H851	H85	0.843600	0.494000	0.404800
H861	H86	0.793100	0.512200	0.360100
H871	H87	0.905200	0.605700	0.364700
H881	H88	0.953500	0.581700	0.405800
H891	H89	0.595800	0.860100	0.628100
H901	H90	0.660400	0.875400	0.687400
H911	H91	0.742900	0.974500	0.669200
H921	H92	0.674800	0.958200	0.607200
H931	H93	0.910800	0.006000	0.849600
H941	H94	0.847900	0.987800	0.780900
H951	H95	0.759000	0.894300	0.799500
H961	H96	0.824100	0.918300	0.871800
H971	H97	0.235700	0.095800	0.967700
H981	H98	0.285000	0.160400	0.973000
H991	H99	0.268400	0.242900	0.073700
H1001	H100	0.216600	0.174800	0.067600
H1011	H101	0.404800	0.410800	0.061200
H1021	H102	0.360100	0.347900	0.067000
H1031	H103	0.364700	0.259000	0.959500
H1041	H104	0.405800	0.324100	0.952300
H1051	H105	0.628100	0.268000	0.532300
H1061	H106	0.687400	0.312000	0.527000
H1071	H107	0.669200	0.194700	0.426300
H1081	H108	0.607200	0.149000	0.432400
H1091	H109	0.849600	0.343600	0.438800
H1101	H110	0.780900	0.293100	0.433000
H1111	H111	0.799500	0.405200	0.540500
H1121	H112	0.871800	0.453500	0.547700
H1131	H113	0.871900	0.404200	0.639900
H1141	H114	0.812600	0.339600	0.624600
H1151	H115	0.830800	0.257100	0.525500
H1161	H116	0.892800	0.325200	0.541800
H1171	H117	0.650400	0.089200	0.494000
H1181	H118	0.719100	0.152100	0.512200
H1191	H119	0.700500	0.241000	0.605700
H1201	H120	0.628200	0.175900	0.581700
H1211	H121	0.264300	0.232000	0.860100
H1221	H122	0.215000	0.188000	0.875400
H1231	H123	0.231600	0.305300	0.974500
H1241	H124	0.283400	0.351000	0.958200
H1251	H125	0.095200	0.156400	0.006000
H1261	H126	0.139900	0.206900	0.987800
H1271	H127	0.135300	0.094800	0.894300
H1281	H128	0.094200	0.046500	0.918300
H1291	H129	0.139900	0.871900	0.904200
H1301	H130	0.124600	0.812600	0.839600
H1311	H131	0.025500	0.830800	0.757100
H1321	H132	0.041800	0.892800	0.825200
H1331	H133	0.994000	0.650400	0.589200
H1341	H134	0.012200	0.719100	0.652100
H1351	H135	0.105700	0.700500	0.741000
H1361	H136	0.081700	0.628200	0.675900
H1371	H137	0.360100	0.264300	0.732000
H1381	H138	0.375400	0.215000	0.688000
H1391	H139	0.474500	0.231600	0.805300
H1401	H140	0.458200	0.283400	0.851000
H1411	H141	0.506000	0.095200	0.656400
H1421	H142	0.487800	0.139900	0.706900
H1431	H143	0.394300	0.135300	0.594800
H1441	H144	0.418300	0.094200	0.546500
H1451	H145	0.467700	0.235700	0.595800
H1461	H146	0.473000	0.285000	0.660400
H1471	H147	0.573700	0.268400	0.742900
H1481	H148	0.567600	0.216600	0.674800
H1491	H149	0.561200	0.404800	0.910800
H1501	H150	0.567000	0.360100	0.847900
H1511	H151	0.459500	0.364700	0.759000
H1521	H152	0.452300	0.405800	0.824100
H1531	H153	0.032300	0.628100	0.768000
H1541	H154	0.027000	0.687400	0.812000
H1551	H155	0.926300	0.669200	0.694700
H1561	H156	0.932400	0.607200	0.649000
H1571	H157	0.938800	0.849600	0.843600
H1581	H158	0.933000	0.780900	0.793100
H1591	H159	0.040500	0.799500	0.905200
H1601	H160	0.047700	0.871800	0.953500
H1611	H161	0.268000	0.032300	0.128100
H1621	H162	0.312000	0.027000	0.187400
H1631	H163	0.194700	0.926300	0.169200
H1641	H164	0.149000	0.932400	0.107200
H1651	H165	0.343600	0.938800	0.349600
H1661	H166	0.293100	0.933000	0.280900
H1671	H167	0.405200	0.040500	0.299500
H1681	H168	0.453500	0.047700	0.371800
H1691	H169	0.095800	0.467700	0.735700
H1701	H170	0.160400	0.473000	0.785000
H1711	H171	0.242900	0.573700	0.768400
H1721	H172	0.174800	0.567600	0.716600
H1731	H173	0.410800	0.561200	0.904800
H1741	H174	0.347900	0.567000	0.860100
H1751	H175	0.259000	0.459500	0.864700
H1761	H176	0.324100	0.452300	0.905800
H1771	H177	0.232000	0.360100	0.764300
H1781	H178	0.188000	0.375400	0.715000
H1791	H179	0.305300	0.474500	0.731600
H1801	H180	0.351000	0.458200	0.783400
H1811	H181	0.156400	0.506000	0.595200
H1821	H182	0.206900	0.487800	0.639900
H1831	H183	0.094800	0.394300	0.635300
H1841	H184	0.046500	0.418300	0.594200
H1851	H185	0.404200	0.139900	0.371900
H1861	H186	0.339600	0.124600	0.312600
H1871	H187	0.257100	0.025500	0.330800
H1881	H188	0.325200	0.041800	0.392800
H1891	H189	0.089200	0.994000	0.150400
H1901	H190	0.152100	0.012200	0.219100
H1911	H191	0.241000	0.105700	0.200500
H1921	H192	0.175900	0.081700	0.128200
C11	C1	0.811270	0.914610	0.986260
C21	C2	0.778850	0.871450	0.982720
C31	C3	0.757710	0.874660	0.011050
C41	C4	0.728800	0.836430	0.007950
C51	C5	0.717430	0.789850	0.976380
C61	C6	0.738410	0.786710	0.947740
C71	C7	0.769220	0.827380	0.951120
C81	C8	0.564890	0.586360	0.998290
C91	C9	0.589180	0.626580	0.992840
C101	C10	0.603590	0.619820	0.959330
C111	C11	0.629930	0.656710	0.955340
C121	C12	0.640460	0.700850	0.986550
C131	C13	0.627650	0.710440	0.020650
C141	C14	0.602150	0.671140	0.023930
C151	C15	0.428350	0.825010	0.513740
C161	C16	0.388730	0.796130	0.517280
C171	C17	0.363610	0.746660	0.488950
C181	C18	0.328480	0.720850	0.492050
C191	C19	0.313470	0.741050	0.523620
C201	C20	0.338970	0.790670	0.552260
C211	C21	0.376260	0.818100	0.548880
C221	C22	0.088070	0.566600	0.501710
C231	C23	0.133740	0.596340	0.507160
C241	C24	0.160490	0.644260	0.540670
C251	C25	0.201370	0.674590	0.544660
C261	C26	0.214300	0.653910	0.513450
C271	C27	0.189790	0.607000	0.479350
C281	C28	0.147210	0.578220	0.476070
C291	C29	0.071650	0.585390	0.396660
C301	C30	0.111270	0.628550	0.407400
C311	C31	0.136390	0.625340	0.383050
C321	C32	0.171520	0.663570	0.392370
C331	C33	0.186530	0.710150	0.427580
C341	C34	0.161030	0.713290	0.451700
C351	C35	0.123740	0.672620	0.441840
C361	C36	0.411930	0.913640	0.478530
C371	C37	0.366260	0.873420	0.462600
C381	C38	0.339510	0.880180	0.483770
C391	C39	0.298630	0.843290	0.473220
C401	C40	0.285700	0.799150	0.439610
C411	C41	0.310210	0.789560	0.417210
C421	C42	0.352790	0.828860	0.431010
C431	C43	0.688730	0.674990	0.103340
C441	C44	0.721150	0.703870	0.092600
C451	C45	0.742290	0.753340	0.116950
C461	C46	0.771200	0.779150	0.107630
C471	C47	0.782570	0.758950	0.072420
C481	C48	0.761590	0.709330	0.048300
C491	C49	0.730780	0.681900	0.058160
C501	C50	0.935110	0.933400	0.021470
C511	C51	0.910820	0.903660	0.037400
C521	C52	0.896410	0.855740	0.016230
C531	C53	0.870070	0.825410	0.026780
C541	C54	0.859540	0.846090	0.060390
C551	C55	0.872350	0.893000	0.082790
C561	C56	0.897850	0.921780	0.068990
C571	C57	0.896660	0.071650	0.085390
C581	C58	0.907400	0.111270	0.128550
C591	C59	0.883050	0.136390	0.125340
C601	C60	0.892370	0.171520	0.163570
C611	C61	0.927580	0.186530	0.210150
C621	C62	0.951700	0.161030	0.213290
C631	C63	0.941840	0.123740	0.172620
C641	C64	0.978530	0.411930	0.413640
C651	C65	0.962600	0.366260	0.373420
C661	C66	0.983770	0.339510	0.380180
C671	C67	0.973220	0.298630	0.343290
C681	C68	0.939610	0.285700	0.299150
C691	C69	0.917210	0.310210	0.289560
C701	C70	0.931010	0.352790	0.328860
C711	C71	0.603340	0.688730	0.174990
C721	C72	0.592600	0.721150	0.203870
C731	C73	0.616950	0.742290	0.253340
C741	C74	0.607630	0.771200	0.279150
C751	C75	0.572420	0.782570	0.258950
C761	C76	0.548300	0.761590	0.209330
C771	C77	0.558160	0.730780	0.181900
C781	C78	0.521470	0.935110	0.433400
C791	C79	0.537400	0.910820	0.403660
C801	C80	0.516230	0.896410	0.355740
C811	C81	0.526780	0.870070	0.325410
C821	C82	0.560390	0.859540	0.346090
C831	C83	0.582790	0.872350	0.393000
C841	C84	0.568990	0.897850	0.421780
C851	C85	0.486260	0.811270	0.414610
C861	C86	0.482720	0.778850	0.371450
C871	C87	0.511050	0.757710	0.374660
C881	C88	0.507950	0.728800	0.336430
C891	C89	0.476380	0.717430	0.289850
C901	C90	0.447740	0.738410	0.286710
C911	C91	0.451120	0.769220	0.327380
C921	C92	0.498290	0.564890	0.086360
C931	C93	0.492840	0.589180	0.126580
C941	C94	0.459330	0.603590	0.119820
C951	C95	0.455340	0.629930	0.156710
C961	C96	0.486550	0.640460	0.200850
C971	C97	0.520650	0.627650	0.210440
C981	C98	0.523930	0.602150	0.171140
C991	C99	0.013740	0.428350	0.325010
C1001	C100	0.017280	0.388730	0.296130
C1011	C101	0.988950	0.363610	0.246660
C1021	C102	0.992050	0.328480	0.220850
C1031	C103	0.023620	0.313470	0.241050
C1041	C104	0.052260	0.338970	0.290670
C1051	C105	0.048880	0.376260	0.318100
C1061	C106	0.001710	0.088070	0.066600
C1071	C107	0.007160	0.133740	0.096340
C1081	C108	0.040670	0.160490	0.144260
C1091	C109	0.044660	0.201370	0.174590
C1101	C110	0.013450	0.214300	0.153910
C1111	C111	0.979350	0.189790	0.107000
C1121	C112	0.976070	0.147210	0.078220
C1131	C113	0.825010	0.013740	0.928350
C1141	C114	0.796130	0.017280	0.888730
C1151	C115	0.746660	0.988950	0.863610
C1161	C116	0.720850	0.992050	0.828480
C1171	C117	0.741050	0.023620	0.813470
C1181	C118	0.790670	0.052260	0.838970
C1191	C119	0.818100	0.048880	0.876260
C1201	C120	0.566600	0.001710	0.588070
C1211	C121	0.596340	0.007160	0.633740
C1221	C122	0.644260	0.040670	0.660490
C1231	C123	0.674590	0.044660	0.701370
C1241	C124	0.653910	0.013450	0.714300
C1251	C125	0.607000	0.979350	0.689790
C1261	C126	0.578220	0.976070	0.647210
C1271	C127	0.914610	0.486260	0.311270
C1281	C128	0.871450	0.482720	0.278850
C1291	C129	0.874660	0.511050	0.257710
C1301	C130	0.836430	0.507950	0.228800
C1311	C131	0.789850	0.476380	0.217430
C1321	C132	0.786710	0.447740	0.238410
C1331	C133	0.827380	0.451120	0.269220
C1341	C134	0.586360	0.498290	0.064890
C1351	C135	0.626580	0.492840	0.089180
C1361	C136	0.619820	0.459330	0.103590
C1371	C137	0.656710	0.455340	0.129930
C1381	C138	0.700850	0.486550	0.140460
C1391	C139	0.710440	0.520650	0.127650
C1401	C140	0.671140	0.523930	0.102150
C1411	C141	0.674990	0.603340	0.188730
C1421	C142	0.703870	0.592600	0.221150
C1431	C143	0.753340	0.616950	0.242290
C1441	C144	0.779150	0.607630	0.271200
C1451	C145	0.758950	0.572420	0.282570
C1461	C146	0.709330	0.548300	0.261590
C1471	C147	0.681900	0.558160	0.230780
C1481	C148	0.933400	0.521470	0.435110
C1491	C149	0.903660	0.537400	0.410820
C1501	C150	0.855740	0.516230	0.396410
C1511	C151	0.825410	0.526780	0.370070
C1521	C152	0.846090	0.560390	0.359540
C1531	C153	0.893000	0.582790	0.372350
C1541	C154	0.921780	0.568990	0.397850
C1551	C155	0.585390	0.896660	0.571650
C1561	C156	0.628550	0.907400	0.611270
C1571	C157	0.625340	0.883050	0.636390
C1581	C158	0.663570	0.892370	0.671520
C1591	C159	0.710150	0.927580	0.686530
C1601	C160	0.713290	0.951700	0.661030
C1611	C161	0.672620	0.941840	0.623740
C1621	C162	0.913640	0.978530	0.911930
C1631	C163	0.873420	0.962600	0.866260
C1641	C164	0.880180	0.983770	0.839510
C1651	C165	0.843290	0.973220	0.798630
C1661	C166	0.799150	0.939610	0.785700
C1671	C167	0.789560	0.917210	0.810210
C1681	C168	0.828860	0.931010	0.852790
C1691	C169	0.188730	0.085390	0.013740
C1701	C170	0.221150	0.128550	0.017280
C1711	C171	0.242290	0.125340	0.988950
C1721	C172	0.271200	0.163570	0.992050
C1731	C173	0.282570	0.210150	0.023620
C1741	C174	0.261590	0.213290	0.052260
C1751	C175	0.230780	0.172620	0.048880
C1761	C176	0.435110	0.413640	0.001710
C1771	C177	0.410820	0.373420	0.007160
C1781	C178	0.396410	0.380180	0.040670
C1791	C179	0.370070	0.343290	0.044660
C1801	C180	0.359540	0.299150	0.013450
C1811	C181	0.372350	0.289560	0.979350
C1821	C182	0.397850	0.328860	0.976070
C1831	C183	0.571650	0.174990	0.486260
C1841	C184	0.611270	0.203870	0.482720
C1851	C185	0.636390	0.253340	0.511050
C1861	C186	0.671520	0.279150	0.507950
C1871	C187	0.686530	0.258950	0.476380
C1881	C188	0.661030	0.209330	0.447740
C1891	C189	0.623740	0.181900	0.451120
C1901	C190	0.911930	0.433400	0.498290
C1911	C191	0.866260	0.403660	0.492840
C1921	C192	0.839510	0.355740	0.459330
C1931	C193	0.798630	0.325410	0.455340
C1941	C194	0.785700	0.346090	0.486550
C1951	C195	0.810210	0.393000	0.520650
C1961	C196	0.852790	0.421780	0.523930
C1971	C197	0.928350	0.414610	0.603340
C1981	C198	0.888730	0.371450	0.592600
C1991	C199	0.863610	0.374660	0.616950
C2001	C200	0.828480	0.336430	0.607630
C2011	C201	0.813470	0.289850	0.572420
C2021	C202	0.838970	0.286710	0.548300
C2031	C203	0.876260	0.327380	0.558160
C2041	C204	0.588070	0.086360	0.521470
C2051	C205	0.633740	0.126580	0.537400
C2061	C206	0.660490	0.119820	0.516230
C2071	C207	0.701370	0.156710	0.526780
C2081	C208	0.714300	0.200850	0.560390
C2091	C209	0.689790	0.210440	0.582790
C2101	C210	0.647210	0.171140	0.568990
C2111	C211	0.311270	0.325010	0.896660
C2121	C212	0.278850	0.296130	0.907400
C2131	C213	0.257710	0.246660	0.883050
C2141	C214	0.228800	0.220850	0.892370
C2151	C215	0.217430	0.241050	0.927580
C2161	C216	0.238410	0.290670	0.951700
C2171	C217	0.269220	0.318100	0.941840
C2181	C218	0.064890	0.066600	0.978530
C2191	C219	0.089180	0.096340	0.962600
C2201	C220	0.103590	0.144260	0.983770
C2211	C221	0.129930	0.174590	0.973220
C2221	C222	0.140460	0.153910	0.939610
C2231	C223	0.127650	0.107000	0.917210
C2241	C224	0.102150	0.078220	0.931010
C2251	C225	0.103340	0.928350	0.914610
C2261	C226	0.092600	0.888730	0.871450
C2271	C227	0.116950	0.863610	0.874660
C2281	C228	0.107630	0.828480	0.836430
C2291	C229	0.072420	0.813470	0.789850
C2301	C230	0.048300	0.838970	0.786710
C2311	C231	0.058160	0.876260	0.827380
C2321	C232	0.021470	0.588070	0.586360
C2331	C233	0.037400	0.633740	0.626580
C2341	C234	0.016230	0.660490	0.619820
C2351	C235	0.026780	0.701370	0.656710
C2361	C236	0.060390	0.714300	0.700850
C2371	C237	0.082790	0.689790	0.710440
C2381	C238	0.068990	0.647210	0.671140
C2391	C239	0.396660	0.311270	0.825010
C2401	C240	0.407400	0.278850	0.796130
C2411	C241	0.383050	0.257710	0.746660
C2421	C242	0.392370	0.228800	0.720850
C2431	C243	0.427580	0.217430	0.741050
C2441	C244	0.451700	0.238410	0.790670
C2451	C245	0.441840	0.269220	0.818100
C2461	C246	0.478530	0.064890	0.566600
C2471	C247	0.462600	0.089180	0.596340
C2481	C248	0.483770	0.103590	0.644260
C2491	C249	0.473220	0.129930	0.674590
C2501	C250	0.439610	0.140460	0.653910
C2511	C251	0.417210	0.127650	0.607000
C2521	C252	0.431010	0.102150	0.578220
C2531	C253	0.513740	0.188730	0.585390
C2541	C254	0.517280	0.221150	0.628550
C2551	C255	0.488950	0.242290	0.625340
C2561	C256	0.492050	0.271200	0.663570
C2571	C257	0.523620	0.282570	0.710150
C2581	C258	0.552260	0.261590	0.713290
C2591	C259	0.548880	0.230780	0.672620
C2601	C260	0.501710	0.435110	0.913640
C2611	C261	0.507160	0.410820	0.873420
C2621	C262	0.540670	0.396410	0.880180
C2631	C263	0.544660	0.370070	0.843290
C2641	C264	0.513450	0.359540	0.799150
C2651	C265	0.479350	0.372350	0.789560
C2661	C266	0.476070	0.397850	0.828860
C2671	C267	0.986260	0.571650	0.674990
C2681	C268	0.982720	0.611270	0.703870
C2691	C269	0.011050	0.636390	0.753340
C2701	C270	0.007950	0.671520	0.779150
C2711	C271	0.976380	0.686530	0.758950
C2721	C272	0.947740	0.661030	0.709330
C2731	C273	0.951120	0.623740	0.681900
C2741	C274	0.998290	0.911930	0.933400
C2751	C275	0.992840	0.866260	0.903660
C2761	C276	0.959330	0.839510	0.855740
C2771	C277	0.955340	0.798630	0.825410
C2781	C278	0.986550	0.785700	0.846090
C2791	C279	0.020650	0.810210	0.893000
C2801	C280	0.023930	0.852790	0.921780
C2811	C281	0.174990	0.986260	0.071650
C2821	C282	0.203870	0.982720	0.111270
C2831	C283	0.253340	0.011050	0.136390
C2841	C284	0.279150	0.007950	0.171520
C2851	C285	0.258950	0.976380	0.186530
C2861	C286	0.209330	0.947740	0.161030
C2871	C287	0.181900	0.951120	0.123740
C2881	C288	0.433400	0.998290	0.411930
C2891	C289	0.403660	0.992840	0.366260
C2901	C290	0.355740	0.959330	0.339510
C2911	C291	0.325410	0.955340	0.298630
C2921	C292	0.346090	0.986550	0.285700
C2931	C293	0.393000	0.020650	0.310210
C2941	C294	0.421780	0.023930	0.352790
C2951	C295	0.085390	0.513740	0.688730
C2961	C296	0.128550	0.517280	0.721150
C2971	C297	0.125340	0.488950	0.742290
C2981	C298	0.163570	0.492050	0.771200
C2991	C299	0.210150	0.523620	0.782570
C3001	C300	0.213290	0.552260	0.761590
C3011	C301	0.172620	0.548880	0.730780
C3021	C302	0.413640	0.501710	0.935110
C3031	C303	0.373420	0.507160	0.910820
C3041	C304	0.380180	0.540670	0.896410
C3051	C305	0.343290	0.544660	0.870070
C3061	C306	0.299150	0.513450	0.859540
C3071	C307	0.289560	0.479350	0.872350
C3081	C308	0.328860	0.476070	0.897850
C3091	C309	0.325010	0.396660	0.811270
C3101	C310	0.296130	0.407400	0.778850
C3111	C311	0.246660	0.383050	0.757710
C3121	C312	0.220850	0.392370	0.728800
C3131	C313	0.241050	0.427580	0.717430
C3141	C314	0.290670	0.451700	0.738410
C3151	C315	0.318100	0.441840	0.769220
C3161	C316	0.066600	0.478530	0.564890
C3171	C317	0.096340	0.462600	0.589180
C3181	C318	0.144260	0.483770	0.603590
C3191	C319	0.174590	0.473220	0.629930
C3201	C320	0.153910	0.439610	0.640460
C3211	C321	0.107000	0.417210	0.627650
C3221	C322	0.078220	0.431010	0.602150
C3231	C323	0.414610	0.103340	0.428350
C3241	C324	0.371450	0.092600	0.388730
C3251	C325	0.374660	0.116950	0.363610
C3261	C326	0.336430	0.107630	0.328480
C3271	C327	0.289850	0.072420	0.313470
C3281	C328	0.286710	0.048300	0.338970
C3291	C329	0.327380	0.058160	0.376260
C3301	C330	0.086360	0.021470	0.088070
C3311	C331	0.126580	0.037400	0.133740
C3321	C332	0.119820	0.016230	0.160490
C3331	C333	0.156710	0.026780	0.201370
C3341	C334	0.200850	0.060390	0.214300
C3351	C335	0.210440	0.082790	0.189790
C3361	C336	0.171140	0.068990	0.147210
N11	N1	0.689660	0.745260	0.966480
N21	N2	0.667820	0.742590	0.989750
N31	N3	0.278780	0.723180	0.533520
N41	N4	0.252840	0.678070	0.510250
N51	N5	0.221220	0.754740	0.444400
N61	N6	0.247160	0.757410	0.425230
N71	N7	0.810340	0.776820	0.055600
N81	N8	0.832180	0.821930	0.074770
N91	N9	0.944400	0.221220	0.254740
N101	N10	0.925230	0.247160	0.257410
N111	N11	0.555600	0.810340	0.276820
N121	N12	0.574770	0.832180	0.321930
N131	N13	0.466480	0.689660	0.245260
N141	N14	0.489750	0.667820	0.242590
N151	N15	0.033520	0.278780	0.223180
N161	N16	0.010250	0.252840	0.178070
N171	N17	0.723180	0.033520	0.778780
N181	N18	0.678070	0.010250	0.752840
N191	N19	0.745260	0.466480	0.189660
N201	N20	0.742590	0.489750	0.167820
N211	N21	0.776820	0.555600	0.310340
N221	N22	0.821930	0.574770	0.332180
N231	N23	0.754740	0.944400	0.721220
N241	N24	0.757410	0.925230	0.747160
N251	N25	0.310340	0.254740	0.033520
N261	N26	0.332180	0.257410	0.010250
N271	N27	0.721220	0.276820	0.466480
N281	N28	0.747160	0.321930	0.489750
N291	N29	0.778780	0.245260	0.555600
N301	N30	0.752840	0.242590	0.574770
N311	N31	0.189660	0.223180	0.944400
N321	N32	0.167820	0.178070	0.925230
N331	N33	0.055600	0.778780	0.745260
N341	N34	0.074770	0.752840	0.742590
N351	N35	0.444400	0.189660	0.723180
N361	N36	0.425230	0.167820	0.678070
N371	N37	0.533520	0.310340	0.754740
N381	N38	0.510250	0.332180	0.757410
N391	N39	0.966480	0.721220	0.776820
N401	N40	0.989750	0.747160	0.821930
N411	N41	0.276820	0.966480	0.221220
N421	N42	0.321930	0.989750	0.247160
N431	N43	0.254740	0.533520	0.810340
N441	N44	0.257410	0.510250	0.832180
N451	N45	0.223180	0.444400	0.689660
N461	N46	0.178070	0.425230	0.667820
N471	N47	0.245260	0.055600	0.278780
N481	N48	0.242590	0.074770	0.252840
O11	O1	0.547930	0.544150	0.966340
O21	O2	0.560790	0.594620	0.034830
O31	O3	0.830420	0.910380	0.959540
O41	O4	0.822810	0.953600	0.017270
O51	O5	0.077810	0.581590	0.533660
O61	O6	0.059790	0.525960	0.465170
O71	O7	0.450840	0.870880	0.540460
O81	O8	0.436330	0.805540	0.482730
O91	O9	0.422190	0.955850	0.503780
O101	O10	0.440210	0.905380	0.466170
O111	O11	0.049160	0.589620	0.420040
O121	O12	0.063670	0.546400	0.369210
O131	O13	0.952070	0.918410	0.996220
O141	O14	0.939210	0.974040	0.033830
O151	O15	0.669580	0.629120	0.079960
O161	O16	0.677190	0.694460	0.130790
O171	O17	0.003780	0.422190	0.455850
O181	O18	0.966170	0.440210	0.405380
O191	O19	0.920040	0.049160	0.089620
O201	O20	0.869210	0.063670	0.046400
O211	O21	0.496220	0.952070	0.418410
O221	O22	0.533830	0.939210	0.474040
O231	O23	0.579960	0.669580	0.129120
O241	O24	0.630790	0.677190	0.194460
O251	O25	0.466340	0.547930	0.044150
O261	O26	0.534830	0.560790	0.094620
O271	O27	0.459540	0.830420	0.410380
O281	O28	0.517270	0.822810	0.453600
O291	O29	0.033660	0.077810	0.081590
O301	O30	0.965170	0.059790	0.025960
O311	O31	0.040460	0.450840	0.370880
O321	O32	0.982730	0.436330	0.305540
O331	O33	0.581590	0.033660	0.577810
O341	O34	0.525960	0.965170	0.559790
O351	O35	0.870880	0.040460	0.950840
O361	O36	0.805540	0.982730	0.936330
O371	O37	0.544150	0.466340	0.047930
O381	O38	0.594620	0.534830	0.060790
O391	O39	0.910380	0.459540	0.330420
O401	O40	0.953600	0.517270	0.322810
O411	O41	0.918410	0.496220	0.452070
O421	O42	0.974040	0.533830	0.439210
O431	O43	0.629120	0.579960	0.169580
O441	O44	0.694460	0.630790	0.177190
O451	O45	0.955850	0.003780	0.922190
O461	O46	0.905380	0.966170	0.940210
O471	O47	0.589620	0.920040	0.549160
O481	O48	0.546400	0.869210	0.563670
O491	O49	0.452070	0.455850	0.033660
O501	O50	0.439210	0.405380	0.965170
O511	O51	0.169580	0.089620	0.040460
O521	O52	0.177190	0.046400	0.982730
O531	O53	0.922190	0.418410	0.466340
O541	O54	0.940210	0.474040	0.534830
O551	O55	0.549160	0.129120	0.459540
O561	O56	0.563670	0.194460	0.517270
O571	O57	0.577810	0.044150	0.496220
O581	O58	0.559790	0.094620	0.533830
O591	O59	0.950840	0.410380	0.579960
O601	O60	0.936330	0.453600	0.630790
O611	O61	0.047930	0.081590	0.003780
O621	O62	0.060790	0.025960	0.966170
O631	O63	0.330420	0.370880	0.920040
O641	O64	0.322810	0.305540	0.869210
O651	O65	0.996220	0.577810	0.544150
O661	O66	0.033830	0.559790	0.594620
O671	O67	0.079960	0.950840	0.910380
O681	O68	0.130790	0.936330	0.953600
O691	O69	0.503780	0.047930	0.581590
O701	O70	0.466170	0.060790	0.525960
O711	O71	0.420040	0.330420	0.870880
O721	O72	0.369210	0.322810	0.805540
O731	O73	0.533660	0.452070	0.955850
O741	O74	0.465170	0.439210	0.905380
O751	O75	0.540460	0.169580	0.589620
O761	O76	0.482730	0.177190	0.546400
O771	O77	0.966340	0.922190	0.918410
O781	O78	0.034830	0.940210	0.974040
O791	O79	0.959540	0.549160	0.629120
O801	O80	0.017270	0.563670	0.694460
O811	O81	0.418410	0.966340	0.422190
O821	O82	0.474040	0.034830	0.440210
O831	O83	0.129120	0.959540	0.049160
O841	O84	0.194460	0.017270	0.063670
O851	O85	0.455850	0.533660	0.952070
O861	O86	0.405380	0.465170	0.939210
O871	O87	0.089620	0.540460	0.669580
O881	O88	0.046400	0.482730	0.677190
O891	O89	0.081590	0.503780	0.547930
O901	O90	0.025960	0.466170	0.560790
O911	O91	0.370880	0.420040	0.830420
O921	O92	0.305540	0.369210	0.822810
O931	O93	0.044150	0.996220	0.077810
O941	O94	0.094620	0.033830	0.059790
O951	O95	0.410380	0.079960	0.450840
O961	O96	0.453600	0.130790	0.436330
