data_ALURIJ_freeONLY_PM
_symmetry_space_group_name_H-M	'P1'
_cell_length_a	11.297000
_cell_length_b	18.495000
_cell_length_c	24.215000
_cell_angle_alpha	90.000000
_cell_angle_beta	90.000000
_cell_angle_gamma	90.000000
_symmetry_Int_Tables_number 1

loop_
_symmetry_equiv_pos_as_xyz
'x,y,z'

loop_
_atom_site_label
_atom_site_type_symbol
_atom_site_fract_x
_atom_site_fract_y
_atom_site_fract_z
Ni11	Ni1	0.532930	0.301030	0.522090
Ni21	Ni2	0.532930	0.698970	0.477910
Ni31	Ni3	0.467070	0.198970	0.022090
Ni41	Ni4	0.467070	0.801030	0.977910
Ni51	Ni5	0.534930	0.500000	0.500000
Ni61	Ni6	0.465070	0.000000	0.000000
H11	H1	0.574800	0.479000	0.645000
H21	H2	0.364900	0.408600	0.682000
H31	H3	0.403200	0.488700	0.696700
H41	H4	0.363300	0.469300	0.635800
H51	H5	0.913000	0.394200	0.754300
H61	H6	0.875100	0.223000	0.855400
H71	H7	0.611300	0.277100	0.750700
H81	H8	0.244400	0.473100	0.776600
H91	H9	0.194400	0.483100	0.837200
H101	H10	0.331300	0.469300	0.827900
H111	H11	0.240400	0.361200	0.858100
H121	H12	0.308000	0.195700	0.847500
H131	H13	0.330200	0.153100	0.791700
H141	H14	0.283300	0.111500	0.844500
H151	H15	0.487300	0.089100	0.832500
H161	H16	0.123800	0.243300	0.450700
H171	H17	0.327200	0.249400	0.452400
H181	H18	0.322800	0.341200	0.598000
H191	H19	0.121800	0.341200	0.599400
H201	H20	0.940400	0.275100	0.605700
H211	H21	0.736300	0.278100	0.602100
H221	H22	0.743900	0.324400	0.444600
H231	H23	0.946700	0.318000	0.442400
H241	H24	0.494100	0.167300	0.589900
H251	H25	0.506100	0.042900	0.583700
H261	H26	0.605500	0.065000	0.425700
H271	H27	0.593200	0.189300	0.436100
H281	H28	0.740200	0.484800	0.579800
H291	H29	0.942900	0.486000	0.582600
H301	H30	0.124400	0.560400	0.569100
H311	H31	0.327800	0.559800	0.566700
H321	H32	0.546100	0.381900	0.726600
H331	H33	0.086400	0.375300	0.769600
H341	H34	0.509200	0.233000	0.817500
H351	H35	0.574800	0.521000	0.355000
H361	H36	0.364900	0.591400	0.318000
H371	H37	0.403200	0.511300	0.303300
H381	H38	0.363300	0.530700	0.364200
H391	H39	0.913000	0.605800	0.245700
H401	H40	0.875100	0.777000	0.144600
H411	H41	0.611300	0.722900	0.249300
H421	H42	0.244400	0.526900	0.223400
H431	H43	0.194400	0.516900	0.162800
H441	H44	0.331300	0.530700	0.172100
H451	H45	0.240400	0.638800	0.141900
H461	H46	0.308000	0.804300	0.152500
H471	H47	0.330200	0.846900	0.208300
H481	H48	0.283300	0.888500	0.155500
H491	H49	0.487300	0.910900	0.167500
H501	H50	0.123800	0.756700	0.549300
H511	H51	0.327200	0.750600	0.547600
H521	H52	0.322800	0.658800	0.402000
H531	H53	0.121800	0.658800	0.400600
H541	H54	0.940400	0.724900	0.394300
H551	H55	0.736300	0.721900	0.397900
H561	H56	0.743900	0.675600	0.555400
H571	H57	0.946700	0.682000	0.557600
H581	H58	0.494100	0.832700	0.410100
H591	H59	0.506100	0.957100	0.416300
H601	H60	0.605500	0.935000	0.574300
H611	H61	0.593200	0.810700	0.563900
H621	H62	0.740200	0.515200	0.420200
H631	H63	0.942900	0.514000	0.417400
H641	H64	0.124400	0.439600	0.430900
H651	H65	0.327800	0.440200	0.433300
H661	H66	0.546100	0.618100	0.273400
H671	H67	0.086400	0.624700	0.230400
H681	H68	0.509200	0.767000	0.182500
H691	H69	0.425200	0.021000	0.145000
H701	H70	0.635100	0.091400	0.182000
H711	H71	0.596800	0.011300	0.196700
H721	H72	0.636700	0.030700	0.135800
H731	H73	0.087000	0.105800	0.254300
H741	H74	0.124900	0.277000	0.355400
H751	H75	0.388700	0.222900	0.250700
H761	H76	0.755600	0.026900	0.276600
H771	H77	0.805600	0.016900	0.337200
H781	H78	0.668700	0.030700	0.327900
H791	H79	0.759600	0.138800	0.358100
H801	H80	0.692000	0.304300	0.347500
H811	H81	0.669800	0.346900	0.291700
H821	H82	0.716700	0.388500	0.344500
H831	H83	0.512700	0.410900	0.332500
H841	H84	0.876200	0.256700	0.950700
H851	H85	0.672800	0.250600	0.952400
H861	H86	0.677200	0.158800	0.098000
H871	H87	0.878200	0.158800	0.099400
H881	H88	0.059600	0.224900	0.105700
H891	H89	0.263700	0.221900	0.102100
H901	H90	0.256100	0.175600	0.944600
H911	H91	0.053300	0.182000	0.942400
H921	H92	0.505900	0.332700	0.089900
H931	H93	0.493900	0.457100	0.083700
H941	H94	0.394500	0.435000	0.925700
H951	H95	0.406800	0.310700	0.936100
H961	H96	0.259800	0.015200	0.079800
H971	H97	0.057100	0.014000	0.082600
H981	H98	0.875600	0.939600	0.069100
H991	H99	0.672200	0.940200	0.066700
H1001	H100	0.453900	0.118100	0.226600
H1011	H101	0.913600	0.124700	0.269600
H1021	H102	0.490800	0.267000	0.317500
H1031	H103	0.425200	0.979000	0.855000
H1041	H104	0.635100	0.908600	0.818000
H1051	H105	0.596800	0.988700	0.803300
H1061	H106	0.636700	0.969300	0.864200
H1071	H107	0.087000	0.894200	0.745700
H1081	H108	0.124900	0.723000	0.644600
H1091	H109	0.388700	0.777100	0.749300
H1101	H110	0.755600	0.973100	0.723400
H1111	H111	0.805600	0.983100	0.662800
H1121	H112	0.668700	0.969300	0.672100
H1131	H113	0.759600	0.861200	0.641900
H1141	H114	0.692000	0.695700	0.652500
H1151	H115	0.669800	0.653100	0.708300
H1161	H116	0.716700	0.611500	0.655500
H1171	H117	0.512700	0.589100	0.667500
H1181	H118	0.876200	0.743300	0.049300
H1191	H119	0.672800	0.749400	0.047600
H1201	H120	0.677200	0.841200	0.902000
H1211	H121	0.878200	0.841200	0.900600
H1221	H122	0.059600	0.775100	0.894300
H1231	H123	0.263700	0.778100	0.897900
H1241	H124	0.256100	0.824400	0.055400
H1251	H125	0.053300	0.818000	0.057600
H1261	H126	0.505900	0.667300	0.910100
H1271	H127	0.493900	0.542900	0.916300
H1281	H128	0.394500	0.565000	0.074300
H1291	H129	0.406800	0.689300	0.063900
H1301	H130	0.259800	0.984800	0.920200
H1311	H131	0.057100	0.986000	0.917400
H1321	H132	0.875600	0.060400	0.930900
H1331	H133	0.672200	0.059800	0.933300
H1341	H134	0.453900	0.881900	0.773400
H1351	H135	0.913600	0.875300	0.730400
H1361	H136	0.490800	0.733000	0.682500
C11	C1	0.535610	0.384410	0.602710
C21	C2	0.532110	0.433580	0.653500
C31	C3	0.404270	0.451700	0.668350
C41	C4	0.708550	0.391460	0.701760
C51	C5	0.753560	0.343310	0.746700
C61	C6	0.867490	0.355440	0.767670
C71	C7	0.913110	0.310280	0.808170
C81	C8	0.844200	0.253810	0.828150
C91	C9	0.729770	0.242200	0.808350
C101	C10	0.686280	0.286300	0.766010
C111	C11	0.035500	0.321290	0.832050
C121	C12	0.252300	0.457910	0.814760
C131	C13	0.231420	0.375720	0.818940
C141	C14	0.322600	0.334050	0.784460
C151	C15	0.656860	0.183210	0.831770
C161	C16	0.334120	0.150240	0.831640
C171	C17	0.461380	0.135200	0.849310
C181	C18	0.466310	0.127800	0.912300
C191	C19	0.162750	0.264780	0.480840
C201	C20	0.284830	0.268160	0.482580
C211	C21	0.282200	0.322160	0.567390
C221	C22	0.161990	0.322100	0.568710
C231	C23	0.098620	0.293660	0.524490
C241	C24	0.967620	0.295430	0.524100
C251	C25	0.901910	0.284360	0.572010
C261	C26	0.779530	0.287050	0.569650
C271	C27	0.784380	0.313440	0.477480
C281	C28	0.905990	0.310260	0.475750
C291	C29	0.516700	0.146460	0.556120
C301	C30	0.523000	0.071680	0.552680
C311	C31	0.554030	0.040340	0.503510
C321	C32	0.581800	0.084910	0.459720
C331	C33	0.574400	0.159430	0.466220
C341	C34	0.781980	0.491330	0.546650
C351	C35	0.903480	0.491520	0.548700
C361	C36	0.163740	0.535700	0.540630
C371	C37	0.286140	0.534780	0.539060
C381	C38	0.535610	0.615590	0.397290
C391	C39	0.532110	0.566420	0.346500
C401	C40	0.404270	0.548300	0.331650
C411	C41	0.708550	0.608540	0.298240
C421	C42	0.753560	0.656690	0.253300
C431	C43	0.867490	0.644560	0.232330
C441	C44	0.913110	0.689720	0.191830
C451	C45	0.844200	0.746190	0.171850
C461	C46	0.729770	0.757800	0.191650
C471	C47	0.686280	0.713700	0.233990
C481	C48	0.035500	0.678710	0.167950
C491	C49	0.252300	0.542090	0.185240
C501	C50	0.231420	0.624280	0.181060
C511	C51	0.322600	0.665950	0.215540
C521	C52	0.656860	0.816790	0.168230
C531	C53	0.334120	0.849760	0.168360
C541	C54	0.461380	0.864800	0.150690
C551	C55	0.466310	0.872200	0.087700
C561	C56	0.162750	0.735220	0.519160
C571	C57	0.284830	0.731840	0.517420
C581	C58	0.282200	0.677840	0.432610
C591	C59	0.161990	0.677900	0.431290
C601	C60	0.098620	0.706340	0.475510
C611	C61	0.967620	0.704570	0.475900
C621	C62	0.901910	0.715640	0.427990
C631	C63	0.779530	0.712950	0.430350
C641	C64	0.784380	0.686560	0.522520
C651	C65	0.905990	0.689740	0.524250
C661	C66	0.516700	0.853540	0.443880
C671	C67	0.523000	0.928320	0.447320
C681	C68	0.554030	0.959660	0.496490
C691	C69	0.581800	0.915090	0.540280
C701	C70	0.574400	0.840570	0.533780
C711	C71	0.781980	0.508670	0.453350
C721	C72	0.903480	0.508480	0.451300
C731	C73	0.163740	0.464300	0.459370
C741	C74	0.286140	0.465220	0.460940
C751	C75	0.464390	0.115590	0.102710
C761	C76	0.467890	0.066420	0.153500
C771	C77	0.595730	0.048300	0.168350
C781	C78	0.291450	0.108540	0.201760
C791	C79	0.246440	0.156690	0.246700
C801	C80	0.132510	0.144560	0.267670
C811	C81	0.086890	0.189720	0.308170
C821	C82	0.155800	0.246190	0.328150
C831	C83	0.270230	0.257800	0.308350
C841	C84	0.313720	0.213700	0.266010
C851	C85	0.964500	0.178710	0.332050
C861	C86	0.747700	0.042090	0.314760
C871	C87	0.768580	0.124280	0.318940
C881	C88	0.677400	0.165950	0.284460
C891	C89	0.343140	0.316790	0.331770
C901	C90	0.665880	0.349760	0.331640
C911	C91	0.538620	0.364800	0.349310
C921	C92	0.533690	0.372200	0.412300
C931	C93	0.837250	0.235220	0.980840
C941	C94	0.715170	0.231840	0.982580
C951	C95	0.717800	0.177840	0.067390
C961	C96	0.838010	0.177900	0.068710
C971	C97	0.901380	0.206340	0.024490
C981	C98	0.032380	0.204570	0.024100
C991	C99	0.098090	0.215640	0.072010
C1001	C100	0.220470	0.212950	0.069650
C1011	C101	0.215620	0.186560	0.977480
C1021	C102	0.094010	0.189740	0.975750
C1031	C103	0.483300	0.353540	0.056120
C1041	C104	0.477000	0.428320	0.052680
C1051	C105	0.445970	0.459660	0.003510
C1061	C106	0.418200	0.415090	0.959720
C1071	C107	0.425600	0.340570	0.966220
C1081	C108	0.218020	0.008670	0.046650
C1091	C109	0.096520	0.008480	0.048700
C1101	C110	0.836260	0.964300	0.040630
C1111	C111	0.713860	0.965220	0.039060
C1121	C112	0.464390	0.884410	0.897290
C1131	C113	0.467890	0.933580	0.846500
C1141	C114	0.595730	0.951700	0.831650
C1151	C115	0.291450	0.891460	0.798240
C1161	C116	0.246440	0.843310	0.753300
C1171	C117	0.132510	0.855440	0.732330
C1181	C118	0.086890	0.810280	0.691830
C1191	C119	0.155800	0.753810	0.671850
C1201	C120	0.270230	0.742200	0.691650
C1211	C121	0.313720	0.786300	0.733990
C1221	C122	0.964500	0.821290	0.667950
C1231	C123	0.747700	0.957910	0.685240
C1241	C124	0.768580	0.875720	0.681060
C1251	C125	0.677400	0.834050	0.715540
C1261	C126	0.343140	0.683210	0.668230
C1271	C127	0.665880	0.650240	0.668360
C1281	C128	0.538620	0.635200	0.650690
C1291	C129	0.533690	0.627800	0.587700
C1301	C130	0.837250	0.764780	0.019160
C1311	C131	0.715170	0.768160	0.017420
C1321	C132	0.717800	0.822160	0.932610
C1331	C133	0.838010	0.822100	0.931290
C1341	C134	0.901380	0.793660	0.975510
C1351	C135	0.032380	0.795430	0.975900
C1361	C136	0.098090	0.784360	0.927990
C1371	C137	0.220470	0.787050	0.930350
C1381	C138	0.215620	0.813440	0.022520
C1391	C139	0.094010	0.810260	0.024250
C1401	C140	0.483300	0.646460	0.943880
C1411	C141	0.477000	0.571680	0.947320
C1421	C142	0.445970	0.540340	0.996490
C1431	C143	0.418200	0.584910	0.040280
C1441	C144	0.425600	0.659430	0.033780
C1451	C145	0.218020	0.991330	0.953350
C1461	C146	0.096520	0.991520	0.951300
C1471	C147	0.836260	0.035700	0.959370
C1481	C148	0.713860	0.034780	0.960940
C1491	C149	0.968000	0.500000	0.500000
C1501	C150	0.098400	0.500000	0.500000
C1511	C151	0.032000	0.000000	0.000000
C1521	C152	0.901600	0.000000	0.000000
N11	N1	0.589040	0.398650	0.699660
N21	N2	0.110390	0.359320	0.801520
N31	N3	0.538850	0.192790	0.830050
N41	N4	0.347120	0.296540	0.524720
N51	N5	0.719910	0.301840	0.523150
N61	N6	0.541310	0.190190	0.513930
N71	N7	0.589040	0.601350	0.300340
N81	N8	0.110390	0.640680	0.198480
N91	N9	0.538850	0.807210	0.169950
N101	N10	0.347120	0.703460	0.475280
N111	N11	0.719910	0.698160	0.476850
N121	N12	0.541310	0.809810	0.486070
N131	N13	0.410960	0.101350	0.199660
N141	N14	0.889610	0.140680	0.301520
N151	N15	0.461150	0.307210	0.330050
N161	N16	0.652880	0.203460	0.024720
N171	N17	0.280090	0.198160	0.023150
N181	N18	0.458690	0.309810	0.013930
N191	N19	0.410960	0.898650	0.800340
N201	N20	0.889610	0.859320	0.698480
N211	N21	0.461150	0.692790	0.669950
N221	N22	0.652880	0.796540	0.975280
N231	N23	0.280090	0.801840	0.976850
N241	N24	0.458690	0.690190	0.986070
N251	N25	0.719650	0.500000	0.500000
N261	N26	0.348500	0.500000	0.500000
N271	N27	0.280350	0.000000	0.000000
N281	N28	0.651500	0.000000	0.000000
O11	O1	0.530840	0.409710	0.554020
O21	O2	0.537620	0.316940	0.609000
O31	O3	0.774520	0.420330	0.667410
O41	O4	0.287850	0.298030	0.744200
O51	O5	0.429360	0.340090	0.798770
O61	O6	0.060730	0.294750	0.876950
O71	O7	0.474520	0.184820	0.940240
O81	O8	0.458000	0.064210	0.931160
O91	O9	0.702740	0.128350	0.852040
O101	O10	0.530840	0.590290	0.445980
O111	O11	0.537620	0.683060	0.391000
O121	O12	0.774520	0.579670	0.332590
O131	O13	0.287850	0.701970	0.255800
O141	O14	0.429360	0.659910	0.201230
O151	O15	0.060730	0.705250	0.123050
O161	O16	0.474520	0.815180	0.059760
O171	O17	0.458000	0.935790	0.068840
O181	O18	0.702740	0.871650	0.147960
O191	O19	0.469160	0.090290	0.054020
O201	O20	0.462380	0.183060	0.109000
O211	O21	0.225480	0.079670	0.167410
O221	O22	0.712150	0.201970	0.244200
O231	O23	0.570640	0.159910	0.298770
O241	O24	0.939270	0.205250	0.376950
O251	O25	0.525480	0.315180	0.440240
O261	O26	0.542000	0.435790	0.431160
O271	O27	0.297260	0.371650	0.352040
O281	O28	0.469160	0.909710	0.945980
O291	O29	0.462380	0.816940	0.891000
O301	O30	0.225480	0.920330	0.832590
O311	O31	0.712150	0.798030	0.755800
O321	O32	0.570640	0.840090	0.701230
O331	O33	0.939270	0.794750	0.623050
O341	O34	0.525480	0.684820	0.559760
O351	O35	0.542000	0.564210	0.568840
O361	O36	0.297260	0.628350	0.647960
