data_ALURAB_freeONLY_PM
_symmetry_space_group_name_H-M	'P1'
_cell_length_a	11.400000
_cell_length_b	18.657000
_cell_length_c	24.380000
_cell_angle_alpha	90.000000
_cell_angle_beta	90.000000
_cell_angle_gamma	90.000000
_symmetry_Int_Tables_number 1

loop_
_symmetry_equiv_pos_as_xyz
'x,y,z'

loop_
_atom_site_label
_atom_site_type_symbol
_atom_site_fract_x
_atom_site_fract_y
_atom_site_fract_z
Co11	Co1	0.535190	0.300280	0.518690
Co21	Co2	0.535190	0.699720	0.481310
Co31	Co3	0.464810	0.199720	0.018690
Co41	Co4	0.464810	0.800280	0.981310
Co51	Co5	0.540140	0.500000	0.500000
Co61	Co6	0.459860	0.000000	0.000000
H11	H1	0.575600	0.474600	0.645000
H21	H2	0.367100	0.404600	0.680900
H31	H3	0.406100	0.483400	0.696800
H41	H4	0.366000	0.466100	0.636100
H51	H5	0.907600	0.388800	0.756400
H61	H6	0.872400	0.215800	0.853200
H71	H7	0.608100	0.275000	0.750900
H81	H8	0.225500	0.464500	0.776000
H91	H9	0.190800	0.470900	0.838700
H101	H10	0.323600	0.459100	0.821800
H111	H11	0.236400	0.352400	0.853900
H121	H12	0.308800	0.193600	0.843000
H131	H13	0.329900	0.148000	0.789100
H141	H14	0.281100	0.110400	0.842700
H151	H15	0.485000	0.085600	0.831300
H161	H16	0.127500	0.240700	0.448600
H171	H17	0.328200	0.245000	0.451300
H181	H18	0.321400	0.346100	0.591300
H191	H19	0.121500	0.342100	0.594000
H201	H20	0.943900	0.265800	0.599800
H211	H21	0.741100	0.269000	0.597400
H221	H22	0.748100	0.327500	0.443700
H231	H23	0.947300	0.321300	0.440500
H241	H24	0.498800	0.167100	0.586400
H251	H25	0.506200	0.045200	0.582400
H261	H26	0.590300	0.063800	0.423700
H271	H27	0.582500	0.185400	0.433800
H281	H28	0.749100	0.482000	0.579200
H291	H29	0.947800	0.483200	0.581100
H301	H30	0.128300	0.558500	0.569400
H311	H31	0.329100	0.556700	0.567000
H321	H32	0.547600	0.376800	0.724700
H331	H33	0.082400	0.361000	0.766300
H341	H34	0.505100	0.227900	0.814800
H351	H35	0.575600	0.525400	0.355000
H361	H36	0.367100	0.595400	0.319100
H371	H37	0.406100	0.516600	0.303200
H381	H38	0.366000	0.533900	0.363900
H391	H39	0.907600	0.611200	0.243600
H401	H40	0.872400	0.784200	0.146800
H411	H41	0.608100	0.725000	0.249100
H421	H42	0.225500	0.535500	0.224000
H431	H43	0.190800	0.529100	0.161300
H441	H44	0.323600	0.540900	0.178200
H451	H45	0.236400	0.647600	0.146100
H461	H46	0.308800	0.806400	0.157000
H471	H47	0.329900	0.852000	0.210900
H481	H48	0.281100	0.889600	0.157300
H491	H49	0.485000	0.914400	0.168700
H501	H50	0.127500	0.759300	0.551400
H511	H51	0.328200	0.755000	0.548700
H521	H52	0.321400	0.653900	0.408700
H531	H53	0.121500	0.657900	0.406000
H541	H54	0.943900	0.734200	0.400200
H551	H55	0.741100	0.731000	0.402600
H561	H56	0.748100	0.672500	0.556300
H571	H57	0.947300	0.678700	0.559500
H581	H58	0.498800	0.832900	0.413600
H591	H59	0.506200	0.954800	0.417600
H601	H60	0.590300	0.936200	0.576300
H611	H61	0.582500	0.814600	0.566200
H621	H62	0.749100	0.518000	0.420800
H631	H63	0.947800	0.516800	0.418900
H641	H64	0.128300	0.441500	0.430600
H651	H65	0.329100	0.443300	0.433000
H661	H66	0.547600	0.623200	0.275300
H671	H67	0.082400	0.639000	0.233700
H681	H68	0.505100	0.772100	0.185200
H691	H69	0.424400	0.025400	0.145000
H701	H70	0.632900	0.095400	0.180900
H711	H71	0.593900	0.016600	0.196800
H721	H72	0.634000	0.033900	0.136100
H731	H73	0.092400	0.111200	0.256400
H741	H74	0.127600	0.284200	0.353200
H751	H75	0.391900	0.225000	0.250900
H761	H76	0.774500	0.035500	0.276000
H771	H77	0.809200	0.029100	0.338700
H781	H78	0.676400	0.040900	0.321800
H791	H79	0.763600	0.147600	0.353900
H801	H80	0.691200	0.306400	0.343000
H811	H81	0.670100	0.352000	0.289100
H821	H82	0.718900	0.389600	0.342700
H831	H83	0.515000	0.414400	0.331300
H841	H84	0.872500	0.259300	0.948600
H851	H85	0.671800	0.255000	0.951300
H861	H86	0.678600	0.153900	0.091300
H871	H87	0.878500	0.157900	0.094000
H881	H88	0.056100	0.234200	0.099800
H891	H89	0.258900	0.231000	0.097400
H901	H90	0.251900	0.172500	0.943700
H911	H91	0.052700	0.178700	0.940500
H921	H92	0.501200	0.332900	0.086400
H931	H93	0.493800	0.454800	0.082400
H941	H94	0.409700	0.436200	0.923700
H951	H95	0.417500	0.314600	0.933800
H961	H96	0.250900	0.018000	0.079200
H971	H97	0.052200	0.016800	0.081100
H981	H98	0.871700	0.941500	0.069400
H991	H99	0.670900	0.943300	0.067000
H1001	H100	0.452400	0.123200	0.224700
H1011	H101	0.917600	0.139000	0.266300
H1021	H102	0.494900	0.272100	0.314800
H1031	H103	0.424400	0.974600	0.855000
H1041	H104	0.632900	0.904600	0.819100
H1051	H105	0.593900	0.983400	0.803200
H1061	H106	0.634000	0.966100	0.863900
H1071	H107	0.092400	0.888800	0.743600
H1081	H108	0.127600	0.715800	0.646800
H1091	H109	0.391900	0.775000	0.749100
H1101	H110	0.774500	0.964500	0.724000
H1111	H111	0.809200	0.970900	0.661300
H1121	H112	0.676400	0.959100	0.678200
H1131	H113	0.763600	0.852400	0.646100
H1141	H114	0.691200	0.693600	0.657000
H1151	H115	0.670100	0.648000	0.710900
H1161	H116	0.718900	0.610400	0.657300
H1171	H117	0.515000	0.585600	0.668700
H1181	H118	0.872500	0.740700	0.051400
H1191	H119	0.671800	0.745000	0.048700
H1201	H120	0.678600	0.846100	0.908700
H1211	H121	0.878500	0.842100	0.906000
H1221	H122	0.056100	0.765800	0.900200
H1231	H123	0.258900	0.769000	0.902600
H1241	H124	0.251900	0.827500	0.056300
H1251	H125	0.052700	0.821300	0.059500
H1261	H126	0.501200	0.667100	0.913600
H1271	H127	0.493800	0.545200	0.917600
H1281	H128	0.409700	0.563800	0.076300
H1291	H129	0.417500	0.685400	0.066200
H1301	H130	0.250900	0.982000	0.920800
H1311	H131	0.052200	0.983200	0.918900
H1321	H132	0.871700	0.058500	0.930600
H1331	H133	0.670900	0.056700	0.933000
H1341	H134	0.452400	0.876800	0.775300
H1351	H135	0.917600	0.861000	0.733700
H1361	H136	0.494900	0.727900	0.685200
C11	C1	0.537800	0.382500	0.601500
C21	C2	0.533400	0.429400	0.652700
C31	C3	0.406500	0.447500	0.668000
C41	C4	0.705800	0.385400	0.701700
C51	C5	0.752100	0.338800	0.747000
C61	C6	0.862400	0.349800	0.768600
C71	C7	0.907000	0.304800	0.807600
C81	C8	0.840500	0.247600	0.827200
C91	C9	0.725600	0.237800	0.807900
C101	C10	0.682900	0.282900	0.765900
C111	C11	0.026400	0.316500	0.830900
C121	C12	0.242900	0.447700	0.812700
C131	C13	0.225400	0.367500	0.815300
C141	C14	0.314900	0.327900	0.780700
C151	C15	0.652200	0.179200	0.831100
C161	C16	0.333100	0.147300	0.828900
C171	C17	0.459000	0.131600	0.847500
C181	C18	0.463300	0.125900	0.910200
C191	C19	0.165400	0.263200	0.478200
C201	C20	0.285900	0.266000	0.480200
C211	C21	0.281900	0.324500	0.561800
C221	C22	0.161600	0.323200	0.563600
C231	C23	0.100000	0.293900	0.520300
C241	C24	0.970000	0.293700	0.520700
C251	C25	0.905400	0.278200	0.567100
C261	C26	0.783600	0.281000	0.565600
C271	C27	0.788400	0.314400	0.475800
C281	C28	0.907600	0.311500	0.473500
C291	C29	0.518800	0.145600	0.552800
C301	C30	0.522700	0.072500	0.550900
C311	C31	0.550900	0.039600	0.502400
C321	C32	0.572200	0.083600	0.458100
C331	C33	0.566700	0.156500	0.464600
C341	C34	0.790000	0.489700	0.546300
C351	C35	0.909000	0.490000	0.547500
C361	C36	0.167200	0.534400	0.540800
C371	C37	0.288000	0.532900	0.538900
C381	C38	0.537800	0.617500	0.398500
C391	C39	0.533400	0.570600	0.347300
C401	C40	0.406500	0.552500	0.332000
C411	C41	0.705800	0.614600	0.298300
C421	C42	0.752100	0.661200	0.253000
C431	C43	0.862400	0.650200	0.231400
C441	C44	0.907000	0.695200	0.192400
C451	C45	0.840500	0.752400	0.172800
C461	C46	0.725600	0.762200	0.192100
C471	C47	0.682900	0.717100	0.234100
C481	C48	0.026400	0.683500	0.169100
C491	C49	0.242900	0.552300	0.187300
C501	C50	0.225400	0.632500	0.184700
C511	C51	0.314900	0.672100	0.219300
C521	C52	0.652200	0.820800	0.168900
C531	C53	0.333100	0.852700	0.171100
C541	C54	0.459000	0.868400	0.152500
C551	C55	0.463300	0.874100	0.089800
C561	C56	0.165400	0.736800	0.521800
C571	C57	0.285900	0.734000	0.519800
C581	C58	0.281900	0.675500	0.438200
C591	C59	0.161600	0.676800	0.436400
C601	C60	0.100000	0.706100	0.479700
C611	C61	0.970000	0.706300	0.479300
C621	C62	0.905400	0.721800	0.432900
C631	C63	0.783600	0.719000	0.434400
C641	C64	0.788400	0.685600	0.524200
C651	C65	0.907600	0.688500	0.526500
C661	C66	0.518800	0.854400	0.447200
C671	C67	0.522700	0.927500	0.449100
C681	C68	0.550900	0.960400	0.497600
C691	C69	0.572200	0.916400	0.541900
C701	C70	0.566700	0.843500	0.535400
C711	C71	0.790000	0.510300	0.453700
C721	C72	0.909000	0.510000	0.452500
C731	C73	0.167200	0.465600	0.459200
C741	C74	0.288000	0.467100	0.461100
C751	C75	0.462200	0.117500	0.101500
C761	C76	0.466600	0.070600	0.152700
C771	C77	0.593500	0.052500	0.168000
C781	C78	0.294200	0.114600	0.201700
C791	C79	0.247900	0.161200	0.247000
C801	C80	0.137600	0.150200	0.268600
C811	C81	0.093000	0.195200	0.307600
C821	C82	0.159500	0.252400	0.327200
C831	C83	0.274400	0.262200	0.307900
C841	C84	0.317100	0.217100	0.265900
C851	C85	0.973600	0.183500	0.330900
C861	C86	0.757100	0.052300	0.312700
C871	C87	0.774600	0.132500	0.315300
C881	C88	0.685100	0.172100	0.280700
C891	C89	0.347800	0.320800	0.331100
C901	C90	0.666900	0.352700	0.328900
C911	C91	0.541000	0.368400	0.347500
C921	C92	0.536700	0.374100	0.410200
C931	C93	0.834600	0.236800	0.978200
C941	C94	0.714100	0.234000	0.980200
C951	C95	0.718100	0.175500	0.061800
C961	C96	0.838400	0.176800	0.063600
C971	C97	0.900000	0.206100	0.020300
C981	C98	0.030000	0.206300	0.020700
C991	C99	0.094600	0.221800	0.067100
C1001	C100	0.216400	0.219000	0.065600
C1011	C101	0.211600	0.185600	0.975800
C1021	C102	0.092400	0.188500	0.973500
C1031	C103	0.481200	0.354400	0.052800
C1041	C104	0.477300	0.427500	0.050900
C1051	C105	0.449100	0.460400	0.002400
C1061	C106	0.427800	0.416400	0.958100
C1071	C107	0.433300	0.343500	0.964600
C1081	C108	0.210000	0.010300	0.046300
C1091	C109	0.091000	0.010000	0.047500
C1101	C110	0.832800	0.965600	0.040800
C1111	C111	0.712000	0.967100	0.038900
C1121	C112	0.462200	0.882500	0.898500
C1131	C113	0.466600	0.929400	0.847300
C1141	C114	0.593500	0.947500	0.832000
C1151	C115	0.294200	0.885400	0.798300
C1161	C116	0.247900	0.838800	0.753000
C1171	C117	0.137600	0.849800	0.731400
C1181	C118	0.093000	0.804800	0.692400
C1191	C119	0.159500	0.747600	0.672800
C1201	C120	0.274400	0.737800	0.692100
C1211	C121	0.317100	0.782900	0.734100
C1221	C122	0.973600	0.816500	0.669100
C1231	C123	0.757100	0.947700	0.687300
C1241	C124	0.774600	0.867500	0.684700
C1251	C125	0.685100	0.827900	0.719300
C1261	C126	0.347800	0.679200	0.668900
C1271	C127	0.666900	0.647300	0.671100
C1281	C128	0.541000	0.631600	0.652500
C1291	C129	0.536700	0.625900	0.589800
C1301	C130	0.834600	0.763200	0.021800
C1311	C131	0.714100	0.766000	0.019800
C1321	C132	0.718100	0.824500	0.938200
C1331	C133	0.838400	0.823200	0.936400
C1341	C134	0.900000	0.793900	0.979700
C1351	C135	0.030000	0.793700	0.979300
C1361	C136	0.094600	0.778200	0.932900
C1371	C137	0.216400	0.781000	0.934400
C1381	C138	0.211600	0.814400	0.024200
C1391	C139	0.092400	0.811500	0.026500
C1401	C140	0.481200	0.645600	0.947200
C1411	C141	0.477300	0.572500	0.949100
C1421	C142	0.449100	0.539600	0.997600
C1431	C143	0.427800	0.583600	0.041900
C1441	C144	0.433300	0.656500	0.035400
C1451	C145	0.210000	0.989700	0.953700
C1461	C146	0.091000	0.990000	0.952500
C1471	C147	0.832800	0.034400	0.959200
C1481	C148	0.712000	0.032900	0.961100
C1491	C149	0.974800	0.500000	0.500000
C1501	C150	0.103600	0.500000	0.500000
C1511	C151	0.025200	0.000000	0.000000
C1521	C152	0.896400	0.000000	0.000000
N11	N1	0.591000	0.393600	0.698300
N21	N2	0.104500	0.349300	0.799300
N31	N3	0.534600	0.188500	0.828090
N41	N4	0.347300	0.297200	0.521100
N51	N5	0.725000	0.300000	0.520300
N61	N6	0.540900	0.188600	0.510960
N71	N7	0.591000	0.606400	0.301700
N81	N8	0.104500	0.650700	0.200700
N91	N9	0.534600	0.811500	0.171910
N101	N10	0.347300	0.702800	0.478900
N111	N11	0.725000	0.700000	0.479700
N121	N12	0.540900	0.811400	0.489040
N131	N13	0.409000	0.106400	0.198300
N141	N14	0.895500	0.150700	0.299300
N151	N15	0.465400	0.311500	0.328090
N161	N16	0.652700	0.202800	0.021100
N171	N17	0.275000	0.200000	0.020300
N181	N18	0.459100	0.311400	0.010960
N191	N19	0.409000	0.893600	0.801700
N201	N20	0.895500	0.849300	0.700700
N211	N21	0.465400	0.688500	0.671910
N221	N22	0.652700	0.797200	0.978900
N231	N23	0.275000	0.800000	0.979700
N241	N24	0.459100	0.688600	0.989040
N251	N25	0.728100	0.500000	0.500000
N261	N26	0.351100	0.500000	0.500000
N271	N27	0.271900	0.000000	0.000000
N281	N28	0.648900	0.000000	0.000000
O11	O1	0.535600	0.409280	0.553720
O21	O2	0.538300	0.314300	0.606400
O31	O3	0.773600	0.413100	0.667600
O41	O4	0.280100	0.293700	0.739800
O51	O5	0.421300	0.334500	0.794600
O61	O6	0.050900	0.298900	0.878900
O71	O7	0.471300	0.183200	0.937240
O81	O8	0.452900	0.063700	0.930180
O91	O9	0.695800	0.126100	0.851700
O101	O10	0.535600	0.590720	0.446280
O111	O11	0.538300	0.685700	0.393600
O121	O12	0.773600	0.586900	0.332400
O131	O13	0.280100	0.706300	0.260200
O141	O14	0.421300	0.665500	0.205400
O151	O15	0.050900	0.701100	0.121100
O161	O16	0.471300	0.816800	0.062760
O171	O17	0.452900	0.936300	0.069820
O181	O18	0.695800	0.873900	0.148300
O191	O19	0.464400	0.090720	0.053720
O201	O20	0.461700	0.185700	0.106400
O211	O21	0.226400	0.086900	0.167600
O221	O22	0.719900	0.206300	0.239800
O231	O23	0.578700	0.165500	0.294600
O241	O24	0.949100	0.201100	0.378900
O251	O25	0.528700	0.316800	0.437240
O261	O26	0.547100	0.436300	0.430180
O271	O27	0.304200	0.373900	0.351700
O281	O28	0.464400	0.909280	0.946280
O291	O29	0.461700	0.814300	0.893600
O301	O30	0.226400	0.913100	0.832400
O311	O31	0.719900	0.793700	0.760200
O321	O32	0.578700	0.834500	0.705400
O331	O33	0.949100	0.798900	0.621100
O341	O34	0.528700	0.683200	0.562760
O351	O35	0.547100	0.563700	0.569820
O361	O36	0.304200	0.626100	0.648300
