data_AMAFOK_freeONLY_PM
_symmetry_space_group_name_H-M	'P1'
_cell_length_a	7.771890
_cell_length_b	12.661300
_cell_length_c	12.661300
_cell_angle_alpha	64.074500
_cell_angle_beta	78.193300
_cell_angle_gamma	101.807000
_symmetry_Int_Tables_number 1

loop_
_symmetry_equiv_pos_as_xyz
'x,y,z'

loop_
_atom_site_label
_atom_site_type_symbol
_atom_site_fract_x
_atom_site_fract_y
_atom_site_fract_z
Cu11	Cu1	0.500000	0.500000	0.000000
Cu21	Cu2	0.500000	0.000000	0.500000
Cu31	Cu3	0.000000	0.500000	0.500000
H11	H1	0.083000	0.615000	0.992000
H21	H2	0.561000	0.843000	0.740000
H31	H3	0.120000	0.842000	0.640000
H41	H4	0.075000	0.992000	0.393000
H51	H5	0.301000	0.740000	0.417000
H61	H6	0.760000	0.640000	0.518000
H71	H7	0.468000	0.393000	0.615000
H81	H8	0.718000	0.417000	0.843000
H91	H9	0.278000	0.518000	0.842000
H101	H10	0.917000	0.385000	0.008000
H111	H11	0.439000	0.157000	0.260000
H121	H12	0.880000	0.158000	0.360000
H131	H13	0.925000	0.008000	0.607000
H141	H14	0.699000	0.260000	0.583000
H151	H15	0.240000	0.360000	0.482000
H161	H16	0.532000	0.607000	0.385000
H171	H17	0.282000	0.583000	0.157000
H181	H18	0.722000	0.482000	0.158000
C11	C1	0.853700	0.669440	0.848140
C21	C2	0.060340	0.717760	0.822540
C31	C3	0.148540	0.676260	0.910340
C41	C4	0.430170	0.811070	0.764260
C51	C5	0.171440	0.811740	0.704720
C61	C6	0.701840	0.848140	0.482420
C71	C7	0.882880	0.822540	0.459700
C81	C8	0.058880	0.910340	0.413400
C91	C9	0.194430	0.764260	0.424670
C101	C10	0.876160	0.704720	0.483540
C111	C11	0.184260	0.482420	0.669440
C121	C12	0.342580	0.459700	0.717760
C131	C13	0.472280	0.413400	0.676260
C141	C14	0.619100	0.424670	0.811070
C151	C15	0.359700	0.483540	0.811740
C161	C16	0.146300	0.330560	0.151860
C171	C17	0.939660	0.282240	0.177460
C181	C18	0.851460	0.323740	0.089660
C191	C19	0.569830	0.188930	0.235740
C201	C20	0.828560	0.188260	0.295280
C211	C21	0.298160	0.151860	0.517580
C221	C22	0.117120	0.177460	0.540300
C231	C23	0.941120	0.089660	0.586600
C241	C24	0.805570	0.235740	0.575330
C251	C25	0.123840	0.295280	0.516460
C261	C26	0.815740	0.517580	0.330560
C271	C27	0.657420	0.540300	0.282240
C281	C28	0.527720	0.586600	0.323740
C291	C29	0.380900	0.575330	0.188930
C301	C30	0.640300	0.516460	0.188260
N11	N1	0.356640	0.859660	0.674040
N21	N2	0.334530	0.722670	0.881180
N31	N3	0.030680	0.674040	0.466300
N41	N4	0.215710	0.881180	0.396150
N51	N5	0.496980	0.466300	0.859660
N61	N6	0.611860	0.396150	0.722670
N71	N7	0.643360	0.140340	0.325960
N81	N8	0.665470	0.277330	0.118820
N91	N9	0.969320	0.325960	0.533700
N101	N10	0.784290	0.118820	0.603850
N111	N11	0.503020	0.533700	0.140340
N121	N12	0.388140	0.603850	0.277330
O11	O1	0.768820	0.561000	0.944540
O21	O2	0.782810	0.733420	0.778590
O31	O3	0.713360	0.944540	0.494460
O41	O4	0.561400	0.778590	0.487990
O51	O5	0.207820	0.494460	0.561000
O61	O6	0.049390	0.487990	0.733420
O71	O7	0.231180	0.439000	0.055460
O81	O8	0.217190	0.266580	0.221410
O91	O9	0.286640	0.055460	0.505540
O101	O10	0.438600	0.221410	0.512010
O111	O11	0.792180	0.505540	0.439000
O121	O12	0.950610	0.512010	0.266580
