data_AMEJOS_charged_PM
_symmetry_space_group_name_H-M	'P1'
_cell_length_a	14.363400
_cell_length_b	15.916500
_cell_length_c	17.459800
_cell_angle_alpha	68.162000
_cell_angle_beta	66.272000
_cell_angle_gamma	64.600000
_symmetry_Int_Tables_number 1

loop_
_symmetry_equiv_pos_as_xyz
'x,y,z'

loop_
_atom_site_label
_atom_site_type_symbol
_atom_site_fract_x
_atom_site_fract_y
_atom_site_fract_z
Fe11	Fe1	0.500000	0.000000	0.500000
Fe21	Fe2	0.000000	0.500000	0.000000
Cu11	Cu1	0.736430	0.201260	0.377590
Cu21	Cu2	0.834630	0.794950	0.107090
Cu31	Cu3	0.192910	0.246190	0.388410
Cu41	Cu4	0.649390	0.848570	0.250710
Cu51	Cu5	0.734880	0.362930	0.241260
Cu61	Cu6	0.188830	0.299280	0.217650
Cu71	Cu7	0.263570	0.798740	0.622410
Cu81	Cu8	0.165370	0.205050	0.892910
Cu91	Cu9	0.807090	0.753810	0.611590
Cu101	Cu10	0.350610	0.151430	0.749290
Cu111	Cu11	0.265120	0.637070	0.758740
Cu121	Cu12	0.811170	0.700720	0.782350
H11	H1	0.995900	0.204500	0.282000
H21	H2	0.955800	0.234800	0.199700
H31	H3	0.922300	0.960500	0.319500
H41	H4	0.795100	0.993500	0.364700
H51	H5	0.843700	0.049700	0.269100
H61	H6	0.871900	0.807500	0.264600
H71	H7	0.842000	0.922200	0.241500
H81	H8	0.127500	0.683300	0.116400
H91	H9	0.069500	0.651800	0.075500
H101	H10	0.027800	0.646100	0.176600
H111	H11	0.021700	0.435200	0.448500
H121	H12	0.104300	0.493500	0.412600
H131	H13	0.039500	0.496500	0.303500
H141	H14	0.168700	0.458900	0.279900
H151	H15	0.129700	0.364500	0.562200
H161	H16	0.206900	0.258500	0.553100
H171	H17	0.042800	0.243000	0.631100
H181	H18	0.982900	0.337100	0.569800
H191	H19	0.302500	0.388200	0.350000
H201	H20	0.336100	0.304300	0.429800
H211	H21	0.273100	0.412200	0.439800
H221	H22	0.469300	0.860000	0.187600
H231	H23	0.478200	0.749100	0.221400
H241	H24	0.663600	0.701000	0.160000
H251	H25	0.613000	0.783700	0.086500
H261	H26	0.505800	0.667500	0.380600
H271	H27	0.609400	0.645700	0.299500
H281	H28	0.598300	0.717500	0.431100
H291	H29	0.661000	0.608600	0.423300
H301	H30	0.437600	0.838200	0.398400
H311	H31	0.374900	0.809500	0.359400
H321	H32	0.402200	0.907300	0.313900
H331	H33	0.512300	0.511700	0.303400
H341	H34	0.440100	0.477600	0.278600
H351	H35	0.521100	0.316300	0.342400
H361	H36	0.482300	0.376100	0.412400
H371	H37	0.530100	0.353500	0.204600
H381	H38	0.539400	0.436600	0.117700
H391	H39	0.729200	0.358600	0.072100
H401	H40	0.666200	0.288600	0.087900
H411	H41	0.661600	0.526800	0.090300
H421	H42	0.535300	0.575200	0.131200
H431	H43	0.620100	0.572000	0.170800
H441	H44	0.404600	0.146900	0.218400
H451	H45	0.400900	0.074000	0.177200
H461	H46	0.239200	0.064800	0.275100
H471	H47	0.308000	0.057900	0.331700
H481	H48	0.439800	0.216800	0.041300
H491	H49	0.341300	0.315100	0.034200
H501	H50	0.479900	0.249300	0.137900
H511	H51	0.456600	0.348800	0.067300
H521	H52	0.206500	0.147200	0.145500
H531	H53	0.314200	0.136200	0.066300
H541	H54	0.217600	0.236100	0.064100
H551	H55	0.756900	0.192500	0.542400
H561	H56	0.837200	0.928700	0.936200
H571	H57	0.019400	0.182400	0.536100
H581	H58	0.805800	0.667300	0.328400
H591	H59	0.761500	0.186000	0.192400
H601	H60	0.343900	0.390100	0.203100
H611	H61	0.018400	0.849500	0.165700
H621	H62	0.946700	0.923600	0.102800
H631	H63	0.104600	0.822800	0.000200
H641	H64	0.062000	0.757700	0.980900
H651	H65	0.791000	0.007200	0.517200
H661	H66	0.879400	0.011300	0.548700
H671	H67	0.931800	0.121200	0.224600
H681	H68	0.019900	0.084200	0.273500
H691	H69	0.953900	0.967200	0.421400
H701	H70	0.968900	0.064800	0.412500
H711	H71	0.022500	0.891300	0.895500
H721	H72	0.980400	0.948700	0.967800
H731	H73	0.004100	0.795500	0.718000
H741	H74	0.044200	0.765200	0.800300
H751	H75	0.077700	0.039500	0.680500
H761	H76	0.204900	0.006500	0.635300
H771	H77	0.156300	0.950300	0.730900
H781	H78	0.128100	0.192500	0.735400
H791	H79	0.158000	0.077800	0.758500
H801	H80	0.872500	0.316700	0.883600
H811	H81	0.930500	0.348200	0.924500
H821	H82	0.972200	0.353900	0.823400
H831	H83	0.978300	0.564800	0.551500
H841	H84	0.895700	0.506500	0.587400
H851	H85	0.960500	0.503500	0.696500
H861	H86	0.831300	0.541100	0.720100
H871	H87	0.870300	0.635500	0.437800
H881	H88	0.793100	0.741500	0.446900
H891	H89	0.957200	0.757000	0.368900
H901	H90	0.017100	0.662900	0.430200
H911	H91	0.697500	0.611800	0.650000
H921	H92	0.663900	0.695700	0.570200
H931	H93	0.726900	0.587800	0.560200
H941	H94	0.530700	0.140000	0.812400
H951	H95	0.521800	0.250900	0.778600
H961	H96	0.336400	0.299000	0.840000
H971	H97	0.387000	0.216300	0.913500
H981	H98	0.494200	0.332500	0.619400
H991	H99	0.390600	0.354300	0.700500
H1001	H100	0.401700	0.282500	0.568900
H1011	H101	0.339000	0.391400	0.576700
H1021	H102	0.562400	0.161800	0.601600
H1031	H103	0.625100	0.190500	0.640600
H1041	H104	0.597800	0.092700	0.686100
H1051	H105	0.487700	0.488300	0.696600
H1061	H106	0.559900	0.522400	0.721400
H1071	H107	0.478900	0.683700	0.657600
H1081	H108	0.517700	0.623900	0.587600
H1091	H109	0.469900	0.646500	0.795400
H1101	H110	0.460600	0.563400	0.882300
H1111	H111	0.270800	0.641400	0.927900
H1121	H112	0.333800	0.711400	0.912100
H1131	H113	0.338400	0.473200	0.909700
H1141	H114	0.464700	0.424800	0.868800
H1151	H115	0.379900	0.428000	0.829200
H1161	H116	0.595400	0.853100	0.781600
H1171	H117	0.599100	0.926000	0.822800
H1181	H118	0.760800	0.935200	0.724900
H1191	H119	0.692000	0.942100	0.668300
H1201	H120	0.560200	0.783200	0.958700
H1211	H121	0.658700	0.684900	0.965800
H1221	H122	0.520100	0.750700	0.862100
H1231	H123	0.543400	0.651200	0.932700
H1241	H124	0.793500	0.852800	0.854500
H1251	H125	0.685800	0.863800	0.933700
H1261	H126	0.782400	0.763900	0.935900
H1271	H127	0.243100	0.807500	0.457600
H1281	H128	0.162800	0.071300	0.063800
H1291	H129	0.980600	0.817600	0.463900
H1301	H130	0.194200	0.332700	0.671600
H1311	H131	0.238500	0.814000	0.807600
H1321	H132	0.656100	0.609900	0.796900
H1331	H133	0.981600	0.150500	0.834300
H1341	H134	0.053300	0.076400	0.897200
H1351	H135	0.895400	0.177200	0.999800
H1361	H136	0.938000	0.242300	0.019100
H1371	H137	0.209000	0.992800	0.482800
H1381	H138	0.120600	0.988700	0.451300
H1391	H139	0.068200	0.878800	0.775400
H1401	H140	0.980100	0.915800	0.726500
H1411	H141	0.046100	0.032800	0.578600
H1421	H142	0.031100	0.935200	0.587500
H1431	H143	0.977500	0.108700	0.104500
H1441	H144	0.019600	0.051300	0.032200
C11	C1	0.578000	0.087900	0.450800
C21	C2	0.925200	0.613800	0.040600
C31	C3	0.383400	0.091700	0.455800
C41	C4	0.564700	0.948500	0.399900
C51	C5	0.895800	0.444700	0.085100
C61	C6	0.080500	0.444000	0.080500
C71	C7	0.938900	0.206200	0.262600
C81	C8	0.856000	0.015700	0.325600
C91	C9	0.861700	0.867000	0.218100
C101	C10	0.058400	0.682300	0.119400
C111	C11	0.094200	0.436800	0.410400
C121	C12	0.102500	0.444500	0.320300
C131	C13	0.145600	0.312800	0.535800
C141	C14	0.049100	0.280600	0.570700
C151	C15	0.281000	0.364500	0.412800
C161	C16	0.515000	0.794700	0.209800
C171	C17	0.622700	0.769900	0.143400
C181	C18	0.568700	0.687500	0.340400
C191	C19	0.638800	0.675900	0.390000
C201	C20	0.427900	0.840400	0.345200
C211	C21	0.511500	0.459500	0.286200
C221	C22	0.532600	0.365900	0.355400
C231	C23	0.577300	0.390400	0.160800
C241	C24	0.681900	0.322100	0.116600
C251	C25	0.604400	0.537300	0.143900
C261	C26	0.356500	0.129000	0.204200
C271	C27	0.273300	0.100300	0.285600
C281	C28	0.379500	0.262200	0.074500
C291	C29	0.423300	0.301800	0.113000
C301	C30	0.256400	0.180100	0.101200
C311	C31	0.957000	0.861400	0.146100
C321	C32	0.038600	0.812400	0.006200
C331	C33	0.841400	0.041300	0.504000
C341	C34	0.944900	0.125400	0.274300
C351	C35	0.915200	0.035400	0.423000
C361	C36	0.983600	0.890500	0.957100
C371	C37	0.422000	0.912100	0.549200
C381	C38	0.074800	0.386200	0.959400
C391	C39	0.616600	0.908300	0.544200
C401	C40	0.435300	0.051500	0.600100
C411	C41	0.104200	0.555300	0.914900
C421	C42	0.919500	0.556000	0.919500
C431	C43	0.061100	0.793800	0.737400
C441	C44	0.144000	0.984300	0.674400
C451	C45	0.138300	0.133000	0.781900
C461	C46	0.941600	0.317700	0.880600
C471	C47	0.905800	0.563200	0.589600
C481	C48	0.897500	0.555500	0.679700
C491	C49	0.854400	0.687200	0.464200
C501	C50	0.950900	0.719400	0.429300
C511	C51	0.719000	0.635500	0.587200
C521	C52	0.485000	0.205300	0.790200
C531	C53	0.377300	0.230100	0.856600
C541	C54	0.431300	0.312500	0.659600
C551	C55	0.361200	0.324100	0.610000
C561	C56	0.572100	0.159600	0.654800
C571	C57	0.488500	0.540500	0.713800
C581	C58	0.467400	0.634100	0.644600
C591	C59	0.422700	0.609600	0.839200
C601	C60	0.318100	0.677900	0.883400
C611	C61	0.395600	0.462700	0.856100
C621	C62	0.643500	0.871000	0.795800
C631	C63	0.726700	0.899700	0.714400
C641	C64	0.620500	0.737800	0.925500
C651	C65	0.576700	0.698200	0.887000
C661	C66	0.743600	0.819900	0.898800
C671	C67	0.043000	0.138600	0.853900
C681	C68	0.961400	0.187600	0.993800
C691	C69	0.158600	0.958700	0.496000
C701	C70	0.055100	0.874600	0.725700
C711	C71	0.084800	0.964600	0.577000
C721	C72	0.016400	0.109500	0.042900
N11	N1	0.628700	0.139400	0.422800
N21	N2	0.880700	0.682400	0.065300
N31	N3	0.310400	0.146300	0.431200
N41	N4	0.599400	0.914200	0.341800
N51	N5	0.835100	0.409900	0.141200
N61	N6	0.128600	0.402900	0.130400
N71	N7	0.866300	0.080100	0.360800
N81	N8	0.984000	0.780800	0.103700
N91	N9	0.177600	0.348000	0.441100
N101	N10	0.530200	0.790100	0.291500
N111	N11	0.598500	0.443900	0.203500
N121	N12	0.303100	0.211300	0.142800
N131	N13	0.371300	0.860600	0.577200
N141	N14	0.119300	0.317600	0.934700
N151	N15	0.689600	0.853700	0.568800
N161	N16	0.400600	0.085800	0.658200
N171	N17	0.164900	0.590100	0.858800
N181	N18	0.871400	0.597100	0.869600
N191	N19	0.133700	0.919900	0.639200
N201	N20	0.016000	0.219200	0.896300
N211	N21	0.822400	0.652000	0.558900
N221	N22	0.469800	0.209900	0.708500
N231	N23	0.401500	0.556100	0.796500
N241	N24	0.696900	0.788700	0.857200
O11	O1	0.839500	0.269000	0.303200
O21	O2	0.774000	0.156700	0.502700
O31	O3	0.782700	0.878800	0.183300
O41	O4	0.881400	0.892700	0.973700
O51	O5	0.105900	0.353700	0.318000
O61	O6	0.060000	0.223600	0.519600
O71	O7	0.678700	0.826300	0.139500
O81	O8	0.731800	0.701000	0.332300
O91	O9	0.640500	0.335400	0.356800
O101	O10	0.734700	0.254000	0.179400
O111	O11	0.193900	0.184500	0.311800
O121	O12	0.339500	0.347700	0.179100
O131	O13	0.160500	0.731000	0.696800
O141	O14	0.226000	0.843300	0.497300
O151	O15	0.217300	0.121200	0.816700
O161	O16	0.118600	0.107300	0.026300
O171	O17	0.894100	0.646300	0.682000
O181	O18	0.940000	0.776400	0.480400
O191	O19	0.321300	0.173700	0.860500
O201	O20	0.268200	0.299000	0.667700
O211	O21	0.359500	0.664600	0.643200
O221	O22	0.265300	0.746000	0.820600
O231	O23	0.806100	0.815500	0.688200
O241	O24	0.660500	0.652300	0.820900
N251	N25	0.340200	0.579600	0.110600
O251	O25	0.306600	0.540700	0.187900
O261	O26	0.355600	0.655300	0.090200
O271	O27	0.360900	0.537900	0.057600
N261	N26	0.659800	0.420400	0.889400
O281	O28	0.693400	0.459300	0.812100
O291	O29	0.644400	0.344700	0.909800
O301	O30	0.639100	0.462100	0.942400
