data_AMIMEP_freeONLY_PM
_symmetry_space_group_name_H-M	'P1'
_cell_length_a	12.275100
_cell_length_b	19.928800
_cell_length_c	19.928800
_cell_angle_alpha	103.536000
_cell_angle_beta	93.897600
_cell_angle_gamma	93.897600
_symmetry_Int_Tables_number 1

loop_
_symmetry_equiv_pos_as_xyz
'x,y,z'

loop_
_atom_site_label
_atom_site_type_symbol
_atom_site_fract_x
_atom_site_fract_y
_atom_site_fract_z
Zn11	Zn1	0.813240	0.606090	0.116380
Zn21	Zn2	0.613800	0.667220	0.155660
Zn31	Zn3	0.929310	0.198620	0.936060
Zn41	Zn4	0.018090	0.340340	0.085450
Zn51	Zn5	0.313240	0.116380	0.606090
Zn61	Zn6	0.113800	0.155660	0.667220
Zn71	Zn7	0.429310	0.936060	0.198620
Zn81	Zn8	0.518090	0.085450	0.340340
H11	H1	0.505300	0.731300	0.282900
H21	H2	0.428600	0.661900	0.248100
H31	H3	0.301700	0.845000	0.280400
H41	H4	0.428500	0.841700	0.303100
H51	H5	0.322700	0.801000	0.099800
H61	H6	0.237900	0.821600	0.157200
H71	H7	0.188300	0.741700	0.226900
H81	H8	0.238300	0.668100	0.213900
H91	H9	0.361100	0.637800	0.125800
H101	H10	0.394300	0.691000	0.080200
H111	H11	0.512500	0.796600	0.132600
H121	H12	0.557500	0.812600	0.212600
H131	H13	0.057000	0.594400	0.173600
H141	H14	0.066300	0.640100	0.117700
H151	H15	0.871000	0.460800	0.071400
H161	H16	0.938900	0.486400	0.145600
H171	H17	0.963100	0.600800	0.003600
H181	H18	0.886500	0.529600	0.985200
H191	H19	0.200000	0.458500	0.087500
H201	H20	0.137900	0.485300	0.155500
H211	H21	0.158600	0.599000	0.015400
H221	H22	0.211300	0.526200	0.003400
H231	H23	0.964400	0.421900	0.967500
H241	H24	0.094800	0.419700	0.973300
H251	H25	0.658300	0.836000	0.055600
H261	H26	0.633800	0.954800	0.038600
H271	H27	0.700600	0.050300	0.003300
H281	H28	0.955600	0.950400	0.924400
H291	H29	0.979900	0.830200	0.941000
H301	H30	0.923500	0.739700	0.987700
H311	H31	0.792400	0.451400	0.227400
H321	H32	0.453300	0.420500	0.314900
H331	H33	0.493200	0.515200	0.271400
H341	H34	0.847300	0.342900	0.253100
H351	H35	0.807600	0.246500	0.295300
H361	H36	0.508600	0.307600	0.340800
H371	H37	0.764600	0.833200	0.331800
H381	H38	0.781900	0.939400	0.429600
H391	H39	0.163000	0.927700	0.452500
H401	H40	0.143700	0.816700	0.360300
H411	H41	0.034400	0.735700	0.275900
H421	H42	0.890400	0.018300	0.514700
H431	H43	0.678200	0.386300	0.106500
H441	H44	0.490700	0.388000	0.107600
H451	H45	0.303300	0.339500	0.055900
H461	H46	0.642000	0.225400	0.937200
H471	H47	0.453300	0.172800	0.888400
H481	H48	0.266500	0.174200	0.890200
H491	H49	0.005300	0.282900	0.731300
H501	H50	0.928600	0.248100	0.661900
H511	H51	0.801700	0.280400	0.845000
H521	H52	0.928500	0.303100	0.841700
H531	H53	0.822700	0.099800	0.801000
H541	H54	0.737900	0.157200	0.821600
H551	H55	0.688300	0.226900	0.741700
H561	H56	0.738300	0.213900	0.668100
H571	H57	0.861100	0.125800	0.637800
H581	H58	0.894300	0.080200	0.691000
H591	H59	0.012500	0.132600	0.796600
H601	H60	0.057500	0.212600	0.812600
H611	H61	0.557000	0.173600	0.594400
H621	H62	0.566300	0.117700	0.640100
H631	H63	0.371000	0.071400	0.460800
H641	H64	0.438900	0.145600	0.486400
H651	H65	0.463100	0.003600	0.600800
H661	H66	0.386500	0.985200	0.529600
H671	H67	0.700000	0.087500	0.458500
H681	H68	0.637900	0.155500	0.485300
H691	H69	0.658600	0.015400	0.599000
H701	H70	0.711300	0.003400	0.526200
H711	H71	0.464400	0.967500	0.421900
H721	H72	0.594800	0.973300	0.419700
H731	H73	0.158300	0.055600	0.836000
H741	H74	0.133800	0.038600	0.954800
H751	H75	0.200600	0.003300	0.050300
H761	H76	0.455600	0.924400	0.950400
H771	H77	0.479900	0.941000	0.830200
H781	H78	0.423500	0.987700	0.739700
H791	H79	0.292400	0.227400	0.451400
H801	H80	0.953300	0.314900	0.420500
H811	H81	0.993200	0.271400	0.515200
H821	H82	0.347300	0.253100	0.342900
H831	H83	0.307600	0.295300	0.246500
H841	H84	0.008600	0.340800	0.307600
H851	H85	0.264600	0.331800	0.833200
H861	H86	0.281900	0.429600	0.939400
H871	H87	0.663000	0.452500	0.927700
H881	H88	0.643700	0.360300	0.816700
H891	H89	0.534400	0.275900	0.735700
H901	H90	0.390400	0.514700	0.018300
H911	H91	0.178200	0.106500	0.386300
H921	H92	0.990700	0.107600	0.388000
H931	H93	0.803300	0.055900	0.339500
H941	H94	0.142000	0.937200	0.225400
H951	H95	0.953300	0.888400	0.172800
H961	H96	0.766500	0.890200	0.174200
C11	C1	0.443100	0.711350	0.248070
C21	C2	0.367600	0.820550	0.267670
C31	C3	0.304000	0.796730	0.146210
C41	C4	0.254600	0.717550	0.214410
C51	C5	0.376500	0.687430	0.126990
C61	C6	0.494100	0.791870	0.178970
C71	C7	0.057500	0.592110	0.123450
C81	C8	0.940900	0.484930	0.095690
C91	C9	0.955900	0.553260	0.010740
C101	C10	0.137300	0.483710	0.105470
C111	C11	0.148800	0.551250	0.022070
C121	C12	0.033700	0.445690	0.992870
C131	C13	0.753800	0.722530	0.060230
C141	C14	0.785600	0.779880	0.026540
C151	C15	0.724300	0.835860	0.033300
C161	C16	0.758800	0.893700	0.007160
C171	C17	0.700300	0.953740	0.016720
C181	C18	0.739000	0.009760	0.994840
C191	C19	0.891500	0.951070	0.948590
C201	C20	0.915600	0.832570	0.965050
C211	C21	0.881600	0.778610	0.992210
C221	C22	0.835200	0.008650	0.959850
C231	C23	0.878500	0.071630	0.937490
C241	C24	0.856100	0.891900	0.972320
C251	C25	0.670200	0.551960	0.211800
C261	C26	0.647600	0.492820	0.244840
C271	C27	0.723800	0.444760	0.245420
C281	C28	0.701700	0.386310	0.272070
C291	C29	0.599700	0.376380	0.298980
C301	C30	0.522500	0.426370	0.297430
C311	C31	0.546000	0.482470	0.271590
C321	C32	0.778600	0.336500	0.271020
C331	C33	0.754900	0.279260	0.295580
C341	C34	0.577100	0.315570	0.323190
C351	C35	0.653400	0.268530	0.321270
C361	C36	0.625400	0.201780	0.343040
C371	C37	0.820600	0.726090	0.237450
C381	C38	0.888600	0.777650	0.295330
C391	C39	0.841500	0.830390	0.337590
C401	C40	0.906100	0.880520	0.389640
C411	C41	0.858600	0.935790	0.434470
C421	C42	0.085700	0.929050	0.447990
C431	C43	0.020700	0.876900	0.397100
C441	C44	0.067200	0.821020	0.354460
C451	C45	0.002200	0.772790	0.304530
C461	C46	0.038300	0.981000	0.490560
C471	C47	0.106500	0.034790	0.543950
C481	C48	0.923200	0.983070	0.483950
C491	C49	0.677100	0.305810	0.020070
C501	C50	0.798400	0.306050	0.020150
C511	C51	0.631400	0.354150	0.072090
C521	C52	0.520800	0.354680	0.073060
C531	C53	0.334800	0.306060	0.022300
C541	C54	0.146500	0.260490	0.973090
C551	C55	0.450700	0.306350	0.023510
C561	C56	0.495700	0.256350	0.971710
C571	C57	0.610400	0.257960	0.971540
C581	C58	0.423800	0.206820	0.922340
C591	C59	0.267100	0.258270	0.973290
C601	C60	0.313300	0.207800	0.923340
C611	C61	0.943100	0.248070	0.711350
C621	C62	0.867600	0.267670	0.820550
C631	C63	0.804000	0.146210	0.796730
C641	C64	0.754600	0.214410	0.717550
C651	C65	0.876500	0.126990	0.687430
C661	C66	0.994100	0.178970	0.791870
C671	C67	0.557500	0.123450	0.592110
C681	C68	0.440900	0.095690	0.484930
C691	C69	0.455900	0.010740	0.553260
C701	C70	0.637300	0.105470	0.483710
C711	C71	0.648800	0.022070	0.551250
C721	C72	0.533700	0.992870	0.445690
C731	C73	0.253800	0.060230	0.722530
C741	C74	0.285600	0.026540	0.779880
C751	C75	0.224300	0.033300	0.835860
C761	C76	0.258800	0.007160	0.893700
C771	C77	0.200300	0.016720	0.953740
C781	C78	0.239000	0.994840	0.009760
C791	C79	0.391500	0.948590	0.951070
C801	C80	0.415600	0.965050	0.832570
C811	C81	0.381600	0.992210	0.778610
C821	C82	0.335200	0.959850	0.008650
C831	C83	0.378500	0.937490	0.071630
C841	C84	0.356100	0.972320	0.891900
C851	C85	0.170200	0.211800	0.551960
C861	C86	0.147600	0.244840	0.492820
C871	C87	0.223800	0.245420	0.444760
C881	C88	0.201700	0.272070	0.386310
C891	C89	0.099700	0.298980	0.376380
C901	C90	0.022500	0.297430	0.426370
C911	C91	0.046000	0.271590	0.482470
C921	C92	0.278600	0.271020	0.336500
C931	C93	0.254900	0.295580	0.279260
C941	C94	0.077100	0.323190	0.315570
C951	C95	0.153400	0.321270	0.268530
C961	C96	0.125400	0.343040	0.201780
C971	C97	0.320600	0.237450	0.726090
C981	C98	0.388600	0.295330	0.777650
C991	C99	0.341500	0.337590	0.830390
C1001	C100	0.406100	0.389640	0.880520
C1011	C101	0.358600	0.434470	0.935790
C1021	C102	0.585700	0.447990	0.929050
C1031	C103	0.520700	0.397100	0.876900
C1041	C104	0.567200	0.354460	0.821020
C1051	C105	0.502200	0.304530	0.772790
C1061	C106	0.538300	0.490560	0.981000
C1071	C107	0.606500	0.543950	0.034790
C1081	C108	0.423200	0.483950	0.983070
C1091	C109	0.177100	0.020070	0.305810
C1101	C110	0.298400	0.020150	0.306050
C1111	C111	0.131400	0.072090	0.354150
C1121	C112	0.020800	0.073060	0.354680
C1131	C113	0.834800	0.022300	0.306060
C1141	C114	0.646500	0.973090	0.260490
C1151	C115	0.950700	0.023510	0.306350
C1161	C116	0.995700	0.971710	0.256350
C1171	C117	0.110400	0.971540	0.257960
C1181	C118	0.923800	0.922340	0.206820
C1191	C119	0.767100	0.973290	0.258270
C1201	C120	0.813300	0.923340	0.207800
N11	N1	0.473400	0.716880	0.177960
N21	N2	0.346100	0.747550	0.267470
N31	N3	0.279500	0.723310	0.144710
N41	N4	0.396800	0.829720	0.198420
N51	N5	0.951100	0.556940	0.086500
N61	N6	0.032400	0.445430	0.068610
N71	N7	0.150100	0.554550	0.096150
N81	N8	0.046900	0.516480	0.983120
N91	N9	0.973400	0.177960	0.716880
N101	N10	0.846100	0.267470	0.747550
N111	N11	0.779500	0.144710	0.723310
N121	N12	0.896800	0.198420	0.829720
N131	N13	0.451100	0.086500	0.556940
N141	N14	0.532400	0.068610	0.445430
N151	N15	0.650100	0.096150	0.554550
N161	N16	0.546900	0.983120	0.516480
O11	O1	0.816200	0.674780	0.056040
O21	O2	0.669300	0.726960	0.092820
O31	O3	0.835400	0.127400	0.962340
O41	O4	0.952900	0.068600	0.898320
O51	O5	0.760100	0.554360	0.185360
O61	O6	0.599200	0.594220	0.212260
O71	O7	0.694900	0.159600	0.342200
O81	O8	0.528500	0.190160	0.358000
O91	O9	0.873600	0.685090	0.197610
O101	O10	0.718800	0.728170	0.233990
O111	O11	0.056500	0.071980	0.591420
O121	O12	0.207500	0.042580	0.539380
O131	O13	0.109700	0.315230	0.006270
O141	O14	0.088500	0.207400	0.939180
O151	O15	0.854900	0.338010	0.074930
O161	O16	0.838200	0.276980	0.964800
O171	O17	0.316200	0.056040	0.674780
O181	O18	0.169300	0.092820	0.726960
O191	O19	0.335400	0.962340	0.127400
O201	O20	0.452900	0.898320	0.068600
O211	O21	0.260100	0.185360	0.554360
O221	O22	0.099200	0.212260	0.594220
O231	O23	0.194900	0.342200	0.159600
O241	O24	0.028500	0.358000	0.190160
O251	O25	0.373600	0.197610	0.685090
O261	O26	0.218800	0.233990	0.728170
O271	O27	0.556500	0.591420	0.071980
O281	O28	0.707500	0.539380	0.042580
O291	O29	0.609700	0.006270	0.315230
O301	O30	0.588500	0.939180	0.207400
O311	O31	0.354900	0.074930	0.338010
O321	O32	0.338200	0.964800	0.276980
