data_AMUWUB_freeONLY_PM
_symmetry_space_group_name_H-M	'P1'
_cell_length_a	10.035800
_cell_length_b	15.972800
_cell_length_c	21.559000
_cell_angle_alpha	98.333000
_cell_angle_beta	93.782000
_cell_angle_gamma	107.759000
_symmetry_Int_Tables_number 1

loop_
_symmetry_equiv_pos_as_xyz
'x,y,z'

loop_
_atom_site_label
_atom_site_type_symbol
_atom_site_fract_x
_atom_site_fract_y
_atom_site_fract_z
Cu11	Cu1	0.373530	0.299950	0.541860
Cu21	Cu2	0.049940	0.407720	0.633070
Cu31	Cu3	0.933440	0.586570	0.798640
Cu41	Cu4	0.626470	0.700050	0.458140
Cu51	Cu5	0.950060	0.592280	0.366930
Cu61	Cu6	0.066560	0.413430	0.201360
H11	H1	0.879600	0.572300	0.568500
H21	H2	0.150200	0.205700	0.443000
H31	H3	0.926900	0.106000	0.429000
H41	H4	0.972100	0.083900	0.609000
H51	H5	0.192300	0.185400	0.618100
H61	H6	0.750400	0.991400	0.546300
H71	H7	0.727700	0.014600	0.426100
H81	H8	0.516400	0.939700	0.361000
H91	H9	0.295900	0.833000	0.336400
H101	H10	0.330200	0.766700	0.507000
H111	H11	0.552300	0.875300	0.530900
H121	H12	0.061500	0.360500	0.754900
H131	H13	0.218800	0.375300	0.841400
H141	H14	0.513600	0.531100	0.760100
H151	H15	0.353000	0.508700	0.674600
H161	H16	0.577700	0.513600	0.867100
H171	H17	0.395300	0.379700	0.909800
H181	H18	0.483600	0.331000	0.001200
H191	H19	0.703900	0.351300	0.079800
H201	H20	0.906200	0.583100	0.023600
H211	H21	0.731400	0.539000	0.936800
H221	H22	0.120400	0.427700	0.431500
H231	H23	0.849800	0.794300	0.557000
H241	H24	0.073100	0.894000	0.571000
H251	H25	0.027900	0.916100	0.391000
H261	H26	0.807700	0.814600	0.381900
H271	H27	0.249600	0.008600	0.453700
H281	H28	0.272300	0.985400	0.573900
H291	H29	0.483600	0.060300	0.639000
H301	H30	0.704100	0.167000	0.663600
H311	H31	0.669800	0.233300	0.493000
H321	H32	0.447700	0.124700	0.469100
H331	H33	0.938500	0.639500	0.245100
H341	H34	0.781200	0.624700	0.158600
H351	H35	0.486400	0.468900	0.239900
H361	H36	0.647000	0.491300	0.325400
H371	H37	0.422300	0.486400	0.132900
H381	H38	0.604700	0.620300	0.090200
H391	H39	0.516400	0.669000	0.998800
H401	H40	0.296100	0.648700	0.920200
H411	H41	0.093800	0.416900	0.976400
H421	H42	0.268600	0.461000	0.063200
C11	C1	0.555100	0.361700	0.654800
C21	C2	0.624500	0.416900	0.607700
C31	C3	0.751800	0.487400	0.615300
C41	C4	0.843700	0.520400	0.678700
C51	C5	0.796200	0.524800	0.563600
C61	C6	0.720100	0.493500	0.504460
C71	C7	0.776400	0.536600	0.449400
C81	C8	0.593100	0.423800	0.499100
C91	C9	0.492000	0.377200	0.440800
C101	C10	0.114300	0.180900	0.477300
C111	C11	0.979300	0.120500	0.468500
C121	C12	0.922500	0.081900	0.517300
C131	C13	0.005300	0.107500	0.573900
C141	C14	0.138400	0.168700	0.578900
C151	C15	0.780100	0.015100	0.510800
C161	C16	0.696000	0.988200	0.460300
C171	C17	0.553900	0.920500	0.448100
C181	C18	0.478800	0.905700	0.391000
C191	C19	0.346600	0.841000	0.375700
C201	C20	0.292100	0.789100	0.419400
C211	C21	0.367200	0.801600	0.477400
C221	C22	0.500300	0.867400	0.491900
C231	C23	0.153500	0.716000	0.401500
C241	C24	0.155000	0.394700	0.755100
C251	C25	0.248800	0.404200	0.808000
C261	C26	0.385700	0.456600	0.810300
C271	C27	0.421500	0.494800	0.760200
C281	C28	0.323900	0.481300	0.708800
C291	C29	0.492900	0.468000	0.865200
C301	C30	0.481400	0.422800	0.908900
C311	C31	0.597900	0.434600	0.959400
C321	C32	0.569800	0.374900	0.001900
C331	C33	0.705100	0.391400	0.052500
C341	C34	0.823500	0.465600	0.055100
C351	C35	0.833400	0.529100	0.017400
C361	C36	0.719900	0.503300	0.967800
C371	C37	0.954600	0.495300	0.108100
C381	C38	0.444900	0.638300	0.345200
C391	C39	0.375500	0.583100	0.392300
C401	C40	0.248200	0.512600	0.384700
C411	C41	0.156300	0.479600	0.321300
C421	C42	0.203800	0.475200	0.436400
C431	C43	0.279900	0.506500	0.495540
C441	C44	0.223600	0.463400	0.550600
C451	C45	0.406900	0.576200	0.500900
C461	C46	0.508000	0.622800	0.559200
C471	C47	0.885700	0.819100	0.522700
C481	C48	0.020700	0.879500	0.531500
C491	C49	0.077500	0.918100	0.482700
C501	C50	0.994700	0.892500	0.426100
C511	C51	0.861600	0.831300	0.421100
C521	C52	0.219900	0.984900	0.489200
C531	C53	0.304000	0.011800	0.539700
C541	C54	0.446100	0.079500	0.551900
C551	C55	0.521200	0.094300	0.609000
C561	C56	0.653400	0.159000	0.624300
C571	C57	0.707900	0.210900	0.580600
C581	C58	0.632800	0.198400	0.522600
C591	C59	0.499700	0.132600	0.508100
C601	C60	0.846500	0.284000	0.598500
C611	C61	0.845000	0.605300	0.244900
C621	C62	0.751200	0.595800	0.192000
C631	C63	0.614300	0.543400	0.189700
C641	C64	0.578500	0.505200	0.239800
C651	C65	0.676100	0.518700	0.291200
C661	C66	0.507100	0.532000	0.134800
C671	C67	0.518600	0.577200	0.091100
C681	C68	0.402100	0.565400	0.040600
C691	C69	0.430200	0.625100	0.998100
C701	C70	0.294900	0.608600	0.947500
C711	C71	0.176500	0.534400	0.944900
C721	C72	0.166600	0.470900	0.982600
C731	C73	0.280100	0.496700	0.032200
C741	C74	0.045400	0.504700	0.891900
N11	N1	0.552600	0.390200	0.550130
N21	N2	0.193700	0.204700	0.531500
N31	N3	0.190900	0.431200	0.705580
N41	N4	0.447400	0.609800	0.449870
N51	N5	0.806300	0.795300	0.468500
N61	N6	0.809100	0.568800	0.294420
O11	O1	0.616200	0.371500	0.708050
O21	O2	0.434600	0.304000	0.633150
O31	O3	0.945400	0.492900	0.686270
O41	O4	0.811600	0.572200	0.719060
O51	O5	0.754800	0.606400	0.441470
O61	O6	0.851700	0.502130	0.416960
O71	O7	0.513200	0.402600	0.390820
O81	O8	0.388500	0.311520	0.450250
O91	O9	0.083300	0.707900	0.348600
O101	O10	0.107600	0.660220	0.436700
O111	O11	0.047500	0.575500	0.121000
O121	O12	0.937100	0.415300	0.131850
O131	O13	0.080800	0.690300	0.777700
O141	O14	0.798200	0.473500	0.810570
O151	O15	0.383800	0.628500	0.291950
O161	O16	0.565400	0.696000	0.366850
O171	O17	0.054600	0.507100	0.313730
O181	O18	0.188400	0.427800	0.280940
O191	O19	0.245200	0.393600	0.558530
O201	O20	0.148300	0.497870	0.583040
O211	O21	0.486800	0.597400	0.609180
O221	O22	0.611500	0.688480	0.549750
O231	O23	0.916700	0.292100	0.651400
O241	O24	0.892400	0.339780	0.563300
O251	O25	0.952500	0.424500	0.879000
O261	O26	0.062900	0.584700	0.868150
O271	O27	0.919200	0.309700	0.222300
O281	O28	0.201800	0.526500	0.189430
