data_ANIDIL_freeONLY_PM
_symmetry_space_group_name_H-M	'P1'
_cell_length_a	24.038000
_cell_length_b	23.217000
_cell_length_c	15.263000
_cell_angle_alpha	90.000000
_cell_angle_beta	115.730000
_cell_angle_gamma	90.000000
_symmetry_Int_Tables_number 1

loop_
_symmetry_equiv_pos_as_xyz
'x,y,z'

loop_
_atom_site_label
_atom_site_type_symbol
_atom_site_fract_x
_atom_site_fract_y
_atom_site_fract_z
C11	C1	0.738700	0.380200	0.282700
C21	C2	0.732700	0.419500	0.360200
C31	C3	0.769000	0.467600	0.393000
H11	H1	0.797000	0.477800	0.366700
C41	C4	0.764600	0.501700	0.465300
C51	C5	0.721100	0.487200	0.501600
H21	H2	0.717100	0.511100	0.549200
C61	C6	0.685200	0.439600	0.469300
H31	H3	0.656900	0.430100	0.495400
C71	C7	0.689300	0.404600	0.398100
H41	H4	0.663800	0.371500	0.375000
C81	C8	0.801200	0.556400	0.498200
C91	C9	0.853300	0.739200	0.830200
C101	C10	0.906200	0.766200	0.917000
C111	C11	0.964500	0.741400	0.952500
H51	H5	0.970000	0.706100	0.925700
C121	C12	0.014600	0.767700	0.026600
C131	C13	0.004800	0.818500	0.067100
H61	H6	0.038900	0.837400	0.116800
C141	C14	0.946300	0.841700	0.036400
H71	H7	0.940100	0.875000	0.067300
C151	C15	0.896900	0.816000	0.960200
H81	H8	0.856700	0.832200	0.937400
C161	C16	0.078700	0.743200	0.055700
C171	C17	0.613100	0.762000	0.365400
C181	C18	0.554900	0.734200	0.303300
C191	C19	0.556200	0.674500	0.253900
H91	H9	0.596700	0.661700	0.256900
C201	C20	0.503000	0.650500	0.181500
H101	H10	0.505400	0.613300	0.157400
C211	C21	0.550200	0.677500	0.354500
H111	H11	0.584800	0.664800	0.417000
C221	C22	0.952200	0.586800	0.810600
H121	H12	0.965500	0.625300	0.811200
C231	C23	0.995500	0.545000	0.864100
H131	H13	0.037800	0.555000	0.899000
C241	C24	0.976100	0.488300	0.866000
C251	C25	0.915700	0.475900	0.814900
H141	H14	0.900800	0.438100	0.815800
C261	C26	0.876000	0.518700	0.761400
H151	H15	0.833900	0.508600	0.723700
C271	C27	0.020900	0.445700	0.931900
H161	H16	0.052400	0.465700	0.989200
H171	H17	0.999100	0.417800	0.955100
C281	C28	0.052500	0.413600	0.877600
H181	H18	0.021200	0.391200	0.823200
H191	H19	0.071300	0.441800	0.849900
C291	C29	0.102800	0.372500	0.946600
H201	H20	0.084300	0.344400	0.975200
H211	H21	0.134700	0.394700	0.000300
C301	C30	0.131200	0.341700	0.890400
C311	C31	0.177600	0.367900	0.868000
H221	H22	0.192400	0.405300	0.892100
C321	C32	0.201300	0.339200	0.811600
H231	H23	0.233300	0.357000	0.800500
C331	C33	0.135700	0.261700	0.792700
H241	H24	0.120200	0.224800	0.766500
C341	C34	0.111700	0.288500	0.851500
H251	H25	0.081200	0.269200	0.864400
Co11	Co1	0.823690	0.638490	0.685480
Co21	Co2	0.718960	0.739130	0.686690
Co31	Co3	0.851740	0.655370	0.487610
N11	N1	0.892300	0.573900	0.758400
N21	N2	0.180200	0.286100	0.771300
O11	O1	0.749700	0.689600	0.599500
O21	O2	0.774500	0.694400	0.406900
O31	O3	0.769100	0.404000	0.239900
O41	O4	0.714000	0.333300	0.267500
O51	O5	0.791000	0.586700	0.560300
O61	O6	0.837600	0.571800	0.461900
O71	O7	0.865000	0.690800	0.803700
O81	O8	0.804500	0.766700	0.790500
O91	O9	0.123800	0.776900	0.089700
O101	O10	0.080900	0.689600	0.039500
O111	O11	0.658000	0.730200	0.409300
O121	O12	0.613910	0.817960	0.372200
C351	C35	0.238700	0.880200	0.282700
C361	C36	0.232700	0.919500	0.360200
C371	C37	0.269000	0.967600	0.393000
H261	H26	0.297000	0.977800	0.366700
C381	C38	0.264600	0.001700	0.465300
C391	C39	0.221100	0.987200	0.501600
H271	H27	0.217100	0.011100	0.549200
C401	C40	0.185200	0.939600	0.469300
H281	H28	0.156900	0.930100	0.495400
C411	C41	0.189300	0.904600	0.398100
H291	H29	0.163800	0.871500	0.375000
C421	C42	0.301200	0.056400	0.498200
C431	C43	0.353300	0.239200	0.830200
C441	C44	0.406200	0.266200	0.917000
C451	C45	0.464500	0.241400	0.952500
H301	H30	0.470000	0.206100	0.925700
C461	C46	0.514600	0.267700	0.026600
C471	C47	0.504800	0.318500	0.067100
H311	H31	0.538900	0.337400	0.116800
C481	C48	0.446300	0.341700	0.036400
H321	H32	0.440100	0.375000	0.067300
C491	C49	0.396900	0.316000	0.960200
H331	H33	0.356700	0.332200	0.937400
C501	C50	0.578700	0.243200	0.055700
C511	C51	0.113100	0.262000	0.365400
C521	C52	0.054900	0.234200	0.303300
C531	C53	0.056200	0.174500	0.253900
H341	H34	0.096700	0.161700	0.256900
C541	C54	0.003000	0.150500	0.181500
H351	H35	0.005400	0.113300	0.157400
C551	C55	0.050200	0.177500	0.354500
H361	H36	0.084800	0.164800	0.417000
C561	C56	0.452200	0.086800	0.810600
H371	H37	0.465500	0.125300	0.811200
C571	C57	0.495500	0.045000	0.864100
H381	H38	0.537800	0.055000	0.899000
C581	C58	0.476100	0.988300	0.866000
C591	C59	0.415700	0.975900	0.814900
H391	H39	0.400800	0.938100	0.815800
C601	C60	0.376000	0.018700	0.761400
H401	H40	0.333900	0.008600	0.723700
C611	C61	0.520900	0.945700	0.931900
H411	H41	0.552400	0.965700	0.989200
H421	H42	0.499100	0.917800	0.955100
C621	C62	0.552500	0.913600	0.877600
H431	H43	0.521200	0.891200	0.823200
H441	H44	0.571300	0.941800	0.849900
C631	C63	0.602800	0.872500	0.946600
H451	H45	0.584300	0.844400	0.975200
H461	H46	0.634700	0.894700	0.000300
C641	C64	0.631200	0.841700	0.890400
C651	C65	0.677600	0.867900	0.868000
H471	H47	0.692400	0.905300	0.892100
C661	C66	0.701300	0.839200	0.811600
H481	H48	0.733300	0.857000	0.800500
C671	C67	0.635700	0.761700	0.792700
H491	H49	0.620200	0.724800	0.766500
C681	C68	0.611700	0.788500	0.851500
H501	H50	0.581200	0.769200	0.864400
Co41	Co4	0.323690	0.138490	0.685480
Co51	Co5	0.218960	0.239130	0.686690
Co61	Co6	0.351740	0.155370	0.487610
N31	N3	0.392300	0.073900	0.758400
N41	N4	0.680200	0.786100	0.771300
O131	O13	0.249700	0.189600	0.599500
O141	O14	0.274500	0.194400	0.406900
O151	O15	0.269100	0.904000	0.239900
O161	O16	0.214000	0.833300	0.267500
O171	O17	0.291000	0.086700	0.560300
O181	O18	0.337600	0.071800	0.461900
O191	O19	0.365000	0.190800	0.803700
O201	O20	0.304500	0.266700	0.790500
O211	O21	0.623800	0.276900	0.089700
O221	O22	0.580900	0.189600	0.039500
O231	O23	0.158000	0.230200	0.409300
O241	O24	0.113910	0.317960	0.372200
C691	C69	0.261300	0.380200	0.217300
C701	C70	0.267300	0.419500	0.139800
C711	C71	0.231000	0.467600	0.107000
H511	H51	0.203000	0.477800	0.133300
C721	C72	0.235400	0.501700	0.034700
C731	C73	0.278900	0.487200	0.998400
H521	H52	0.282900	0.511100	0.950800
C741	C74	0.314800	0.439600	0.030700
H531	H53	0.343100	0.430100	0.004600
C751	C75	0.310700	0.404600	0.101900
H541	H54	0.336200	0.371500	0.125000
C761	C76	0.198800	0.556400	0.001800
C771	C77	0.146700	0.739200	0.669800
C781	C78	0.093800	0.766200	0.583000
C791	C79	0.035500	0.741400	0.547500
H551	H55	0.030000	0.706100	0.574300
C801	C80	0.985400	0.767700	0.473400
C811	C81	0.995200	0.818500	0.432900
H561	H56	0.961100	0.837400	0.383200
C821	C82	0.053700	0.841700	0.463600
H571	H57	0.059900	0.875000	0.432700
C831	C83	0.103100	0.816000	0.539800
H581	H58	0.143300	0.832200	0.562600
C841	C84	0.921300	0.743200	0.444300
C851	C85	0.386900	0.762000	0.134600
C861	C86	0.445100	0.734200	0.196700
C871	C87	0.443800	0.674500	0.246100
H591	H59	0.403300	0.661700	0.243100
C881	C88	0.497000	0.650500	0.318500
H601	H60	0.494600	0.613300	0.342600
C891	C89	0.449800	0.677500	0.145500
H611	H61	0.415200	0.664800	0.083000
C901	C90	0.047800	0.586800	0.689400
H621	H62	0.034500	0.625300	0.688800
C911	C91	0.004500	0.545000	0.635900
H631	H63	0.962200	0.555000	0.601000
C921	C92	0.023900	0.488300	0.634000
C931	C93	0.084300	0.475900	0.685100
H641	H64	0.099200	0.438100	0.684200
C941	C94	0.124000	0.518700	0.738600
H651	H65	0.166100	0.508600	0.776300
C951	C95	0.979100	0.445700	0.568100
H661	H66	0.947600	0.465700	0.510800
H671	H67	0.000900	0.417800	0.544900
C961	C96	0.947500	0.413600	0.622400
H681	H68	0.978800	0.391200	0.676800
H691	H69	0.928700	0.441800	0.650100
C971	C97	0.897200	0.372500	0.553400
H701	H70	0.915700	0.344400	0.524800
H711	H71	0.865300	0.394700	0.499700
C981	C98	0.868800	0.341700	0.609600
C991	C99	0.822400	0.367900	0.632000
H721	H72	0.807600	0.405300	0.607900
C1001	C100	0.798700	0.339200	0.688400
H731	H73	0.766700	0.357000	0.699500
C1011	C101	0.864300	0.261700	0.707300
H741	H74	0.879800	0.224800	0.733500
C1021	C102	0.888300	0.288500	0.648500
H751	H75	0.918800	0.269200	0.635600
Co71	Co7	0.176310	0.638490	0.814520
Co81	Co8	0.281040	0.739130	0.813310
Co91	Co9	0.148260	0.655370	0.012390
N51	N5	0.107700	0.573900	0.741600
N61	N6	0.819800	0.286100	0.728700
O251	O25	0.250300	0.689600	0.900500
O261	O26	0.225500	0.694400	0.093100
O271	O27	0.230900	0.404000	0.260100
O281	O28	0.286000	0.333300	0.232500
O291	O29	0.209000	0.586700	0.939700
O301	O30	0.162400	0.571800	0.038100
O311	O31	0.135000	0.690800	0.696300
O321	O32	0.195500	0.766700	0.709500
O331	O33	0.876200	0.776900	0.410300
O341	O34	0.919100	0.689600	0.460500
O351	O35	0.342000	0.730200	0.090700
O361	O36	0.386090	0.817960	0.127800
C1031	C103	0.761300	0.880200	0.217300
C1041	C104	0.767300	0.919500	0.139800
C1051	C105	0.731000	0.967600	0.107000
H761	H76	0.703000	0.977800	0.133300
C1061	C106	0.735400	0.001700	0.034700
C1071	C107	0.778900	0.987200	0.998400
H771	H77	0.782900	0.011100	0.950800
C1081	C108	0.814800	0.939600	0.030700
H781	H78	0.843100	0.930100	0.004600
C1091	C109	0.810700	0.904600	0.101900
H791	H79	0.836200	0.871500	0.125000
C1101	C110	0.698800	0.056400	0.001800
C1111	C111	0.646700	0.239200	0.669800
C1121	C112	0.593800	0.266200	0.583000
C1131	C113	0.535500	0.241400	0.547500
H801	H80	0.530000	0.206100	0.574300
C1141	C114	0.485400	0.267700	0.473400
C1151	C115	0.495200	0.318500	0.432900
H811	H81	0.461100	0.337400	0.383200
C1161	C116	0.553700	0.341700	0.463600
H821	H82	0.559900	0.375000	0.432700
C1171	C117	0.603100	0.316000	0.539800
H831	H83	0.643300	0.332200	0.562600
C1181	C118	0.421300	0.243200	0.444300
C1191	C119	0.886900	0.262000	0.134600
C1201	C120	0.945100	0.234200	0.196700
C1211	C121	0.943800	0.174500	0.246100
H841	H84	0.903300	0.161700	0.243100
C1221	C122	0.997000	0.150500	0.318500
H851	H85	0.994600	0.113300	0.342600
C1231	C123	0.949800	0.177500	0.145500
H861	H86	0.915200	0.164800	0.083000
C1241	C124	0.547800	0.086800	0.689400
H871	H87	0.534500	0.125300	0.688800
C1251	C125	0.504500	0.045000	0.635900
H881	H88	0.462200	0.055000	0.601000
C1261	C126	0.523900	0.988300	0.634000
C1271	C127	0.584300	0.975900	0.685100
H891	H89	0.599200	0.938100	0.684200
C1281	C128	0.624000	0.018700	0.738600
H901	H90	0.666100	0.008600	0.776300
C1291	C129	0.479100	0.945700	0.568100
H911	H91	0.447600	0.965700	0.510800
H921	H92	0.500900	0.917800	0.544900
C1301	C130	0.447500	0.913600	0.622400
H931	H93	0.478800	0.891200	0.676800
H941	H94	0.428700	0.941800	0.650100
C1311	C131	0.397200	0.872500	0.553400
H951	H95	0.415700	0.844400	0.524800
H961	H96	0.365300	0.894700	0.499700
C1321	C132	0.368800	0.841700	0.609600
C1331	C133	0.322400	0.867900	0.632000
H971	H97	0.307600	0.905300	0.607900
C1341	C134	0.298700	0.839200	0.688400
H981	H98	0.266700	0.857000	0.699500
C1351	C135	0.364300	0.761700	0.707300
H991	H99	0.379800	0.724800	0.733500
C1361	C136	0.388300	0.788500	0.648500
H1001	H100	0.418800	0.769200	0.635600
Co101	Co10	0.676310	0.138490	0.814520
Co111	Co11	0.781040	0.239130	0.813310
Co121	Co12	0.648260	0.155370	0.012390
N71	N7	0.607700	0.073900	0.741600
N81	N8	0.319800	0.786100	0.728700
O371	O37	0.750300	0.189600	0.900500
O381	O38	0.725500	0.194400	0.093100
O391	O39	0.730900	0.904000	0.260100
O401	O40	0.786000	0.833300	0.232500
O411	O41	0.709000	0.086700	0.939700
O421	O42	0.662400	0.071800	0.038100
O431	O43	0.635000	0.190800	0.696300
O441	O44	0.695500	0.266700	0.709500
O451	O45	0.376200	0.276900	0.410300
O461	O46	0.419100	0.189600	0.460500
O471	O47	0.842000	0.230200	0.090700
O481	O48	0.886090	0.317960	0.127800
C1371	C137	0.261300	0.619800	0.717300
C1381	C138	0.267300	0.580500	0.639800
C1391	C139	0.231000	0.532400	0.607000
H1011	H101	0.203000	0.522200	0.633300
C1401	C140	0.235400	0.498300	0.534700
C1411	C141	0.278900	0.512800	0.498400
H1021	H102	0.282900	0.488900	0.450800
C1421	C142	0.314800	0.560400	0.530700
H1031	H103	0.343100	0.569900	0.504600
C1431	C143	0.310700	0.595400	0.601900
H1041	H104	0.336200	0.628500	0.625000
C1441	C144	0.198800	0.443600	0.501800
C1451	C145	0.146700	0.260800	0.169800
C1461	C146	0.093800	0.233800	0.083000
C1471	C147	0.035500	0.258600	0.047500
H1051	H105	0.030000	0.293900	0.074300
C1481	C148	0.985400	0.232300	0.973400
C1491	C149	0.995200	0.181500	0.932900
H1061	H106	0.961100	0.162600	0.883200
C1501	C150	0.053700	0.158300	0.963600
H1071	H107	0.059900	0.125000	0.932700
C1511	C151	0.103100	0.184000	0.039800
H1081	H108	0.143300	0.167800	0.062600
C1521	C152	0.921300	0.256800	0.944300
C1531	C153	0.386900	0.238000	0.634600
C1541	C154	0.445100	0.265800	0.696700
C1551	C155	0.443800	0.325500	0.746100
H1091	H109	0.403300	0.338300	0.743100
C1561	C156	0.497000	0.349500	0.818500
H1101	H110	0.494600	0.386700	0.842600
C1571	C157	0.449800	0.322500	0.645500
H1111	H111	0.415200	0.335200	0.583000
C1581	C158	0.047800	0.413200	0.189400
H1121	H112	0.034500	0.374700	0.188800
C1591	C159	0.004500	0.455000	0.135900
H1131	H113	0.962200	0.445000	0.101000
C1601	C160	0.023900	0.511700	0.134000
C1611	C161	0.084300	0.524100	0.185100
H1141	H114	0.099200	0.561900	0.184200
C1621	C162	0.124000	0.481300	0.238600
H1151	H115	0.166100	0.491400	0.276300
C1631	C163	0.979100	0.554300	0.068100
H1161	H116	0.947600	0.534300	0.010800
H1171	H117	0.000900	0.582200	0.044900
C1641	C164	0.947500	0.586400	0.122400
H1181	H118	0.978800	0.608800	0.176800
H1191	H119	0.928700	0.558200	0.150100
C1651	C165	0.897200	0.627500	0.053400
H1201	H120	0.915700	0.655600	0.024800
H1211	H121	0.865300	0.605300	0.999700
C1661	C166	0.868800	0.658300	0.109600
C1671	C167	0.822400	0.632100	0.132000
H1221	H122	0.807600	0.594700	0.107900
C1681	C168	0.798700	0.660800	0.188400
H1231	H123	0.766700	0.643000	0.199500
C1691	C169	0.864300	0.738300	0.207300
H1241	H124	0.879800	0.775200	0.233500
C1701	C170	0.888300	0.711500	0.148500
H1251	H125	0.918800	0.730800	0.135600
Co131	Co13	0.176310	0.361510	0.314520
Co141	Co14	0.281040	0.260870	0.313310
Co151	Co15	0.148260	0.344630	0.512390
N91	N9	0.107700	0.426100	0.241600
N101	N10	0.819800	0.713900	0.228700
O491	O49	0.250300	0.310400	0.400500
O501	O50	0.225500	0.305600	0.593100
O511	O51	0.230900	0.596000	0.760100
O521	O52	0.286000	0.666700	0.732500
O531	O53	0.209000	0.413300	0.439700
O541	O54	0.162400	0.428200	0.538100
O551	O55	0.135000	0.309200	0.196300
O561	O56	0.195500	0.233300	0.209500
O571	O57	0.876200	0.223100	0.910300
O581	O58	0.919100	0.310400	0.960500
O591	O59	0.342000	0.269800	0.590700
O601	O60	0.386090	0.182040	0.627800
C1711	C171	0.761300	0.119800	0.717300
C1721	C172	0.767300	0.080500	0.639800
C1731	C173	0.731000	0.032400	0.607000
H1261	H126	0.703000	0.022200	0.633300
C1741	C174	0.735400	0.998300	0.534700
C1751	C175	0.778900	0.012800	0.498400
H1271	H127	0.782900	0.988900	0.450800
C1761	C176	0.814800	0.060400	0.530700
H1281	H128	0.843100	0.069900	0.504600
C1771	C177	0.810700	0.095400	0.601900
H1291	H129	0.836200	0.128500	0.625000
C1781	C178	0.698800	0.943600	0.501800
C1791	C179	0.646700	0.760800	0.169800
C1801	C180	0.593800	0.733800	0.083000
C1811	C181	0.535500	0.758600	0.047500
H1301	H130	0.530000	0.793900	0.074300
C1821	C182	0.485400	0.732300	0.973400
C1831	C183	0.495200	0.681500	0.932900
H1311	H131	0.461100	0.662600	0.883200
C1841	C184	0.553700	0.658300	0.963600
H1321	H132	0.559900	0.625000	0.932700
C1851	C185	0.603100	0.684000	0.039800
H1331	H133	0.643300	0.667800	0.062600
C1861	C186	0.421300	0.756800	0.944300
C1871	C187	0.886900	0.738000	0.634600
C1881	C188	0.945100	0.765800	0.696700
C1891	C189	0.943800	0.825500	0.746100
H1341	H134	0.903300	0.838300	0.743100
C1901	C190	0.997000	0.849500	0.818500
H1351	H135	0.994600	0.886700	0.842600
C1911	C191	0.949800	0.822500	0.645500
H1361	H136	0.915200	0.835200	0.583000
C1921	C192	0.547800	0.913200	0.189400
H1371	H137	0.534500	0.874700	0.188800
C1931	C193	0.504500	0.955000	0.135900
H1381	H138	0.462200	0.945000	0.101000
C1941	C194	0.523900	0.011700	0.134000
C1951	C195	0.584300	0.024100	0.185100
H1391	H139	0.599200	0.061900	0.184200
C1961	C196	0.624000	0.981300	0.238600
H1401	H140	0.666100	0.991400	0.276300
C1971	C197	0.479100	0.054300	0.068100
H1411	H141	0.447600	0.034300	0.010800
H1421	H142	0.500900	0.082200	0.044900
C1981	C198	0.447500	0.086400	0.122400
H1431	H143	0.478800	0.108800	0.176800
H1441	H144	0.428700	0.058200	0.150100
C1991	C199	0.397200	0.127500	0.053400
H1451	H145	0.415700	0.155600	0.024800
H1461	H146	0.365300	0.105300	0.999700
C2001	C200	0.368800	0.158300	0.109600
C2011	C201	0.322400	0.132100	0.132000
H1471	H147	0.307600	0.094700	0.107900
C2021	C202	0.298700	0.160800	0.188400
H1481	H148	0.266700	0.143000	0.199500
C2031	C203	0.364300	0.238300	0.207300
H1491	H149	0.379800	0.275200	0.233500
C2041	C204	0.388300	0.211500	0.148500
H1501	H150	0.418800	0.230800	0.135600
Co161	Co16	0.676310	0.861510	0.314520
Co171	Co17	0.781040	0.760870	0.313310
Co181	Co18	0.648260	0.844630	0.512390
N111	N11	0.607700	0.926100	0.241600
N121	N12	0.319800	0.213900	0.228700
O611	O61	0.750300	0.810400	0.400500
O621	O62	0.725500	0.805600	0.593100
O631	O63	0.730900	0.096000	0.760100
O641	O64	0.786000	0.166700	0.732500
O651	O65	0.709000	0.913300	0.439700
O661	O66	0.662400	0.928200	0.538100
O671	O67	0.635000	0.809200	0.196300
O681	O68	0.695500	0.733300	0.209500
O691	O69	0.376200	0.723100	0.910300
O701	O70	0.419100	0.810400	0.960500
O711	O71	0.842000	0.769800	0.590700
O721	O72	0.886090	0.682040	0.627800
C2051	C205	0.738700	0.619800	0.782700
C2061	C206	0.732700	0.580500	0.860200
C2071	C207	0.769000	0.532400	0.893000
H1511	H151	0.797000	0.522200	0.866700
C2081	C208	0.764600	0.498300	0.965300
C2091	C209	0.721100	0.512800	0.001600
H1521	H152	0.717100	0.488900	0.049200
C2101	C210	0.685200	0.560400	0.969300
H1531	H153	0.656900	0.569900	0.995400
C2111	C211	0.689300	0.595400	0.898100
H1541	H154	0.663800	0.628500	0.875000
C2121	C212	0.801200	0.443600	0.998200
C2131	C213	0.853300	0.260800	0.330200
C2141	C214	0.906200	0.233800	0.417000
C2151	C215	0.964500	0.258600	0.452500
H1551	H155	0.970000	0.293900	0.425700
C2161	C216	0.014600	0.232300	0.526600
C2171	C217	0.004800	0.181500	0.567100
H1561	H156	0.038900	0.162600	0.616800
C2181	C218	0.946300	0.158300	0.536400
H1571	H157	0.940100	0.125000	0.567300
C2191	C219	0.896900	0.184000	0.460200
H1581	H158	0.856700	0.167800	0.437400
C2201	C220	0.078700	0.256800	0.555700
C2211	C221	0.613100	0.238000	0.865400
C2221	C222	0.554900	0.265800	0.803300
C2231	C223	0.556200	0.325500	0.753900
H1591	H159	0.596700	0.338300	0.756900
C2241	C224	0.503000	0.349500	0.681500
H1601	H160	0.505400	0.386700	0.657400
C2251	C225	0.550200	0.322500	0.854500
H1611	H161	0.584800	0.335200	0.917000
C2261	C226	0.952200	0.413200	0.310600
H1621	H162	0.965500	0.374700	0.311200
C2271	C227	0.995500	0.455000	0.364100
H1631	H163	0.037800	0.445000	0.399000
C2281	C228	0.976100	0.511700	0.366000
C2291	C229	0.915700	0.524100	0.314900
H1641	H164	0.900800	0.561900	0.315800
C2301	C230	0.876000	0.481300	0.261400
H1651	H165	0.833900	0.491400	0.223700
C2311	C231	0.020900	0.554300	0.431900
H1661	H166	0.052400	0.534300	0.489200
H1671	H167	0.999100	0.582200	0.455100
C2321	C232	0.052500	0.586400	0.377600
H1681	H168	0.021200	0.608800	0.323200
H1691	H169	0.071300	0.558200	0.349900
C2331	C233	0.102800	0.627500	0.446600
H1701	H170	0.084300	0.655600	0.475200
H1711	H171	0.134700	0.605300	0.500300
C2341	C234	0.131200	0.658300	0.390400
C2351	C235	0.177600	0.632100	0.368000
H1721	H172	0.192400	0.594700	0.392100
C2361	C236	0.201300	0.660800	0.311600
H1731	H173	0.233300	0.643000	0.300500
C2371	C237	0.135700	0.738300	0.292700
H1741	H174	0.120200	0.775200	0.266500
C2381	C238	0.111700	0.711500	0.351500
H1751	H175	0.081200	0.730800	0.364400
Co191	Co19	0.823690	0.361510	0.185480
Co201	Co20	0.718960	0.260870	0.186690
Co211	Co21	0.851740	0.344630	0.987610
N131	N13	0.892300	0.426100	0.258400
N141	N14	0.180200	0.713900	0.271300
O731	O73	0.749700	0.310400	0.099500
O741	O74	0.774500	0.305600	0.906900
O751	O75	0.769100	0.596000	0.739900
O761	O76	0.714000	0.666700	0.767500
O771	O77	0.791000	0.413300	0.060300
O781	O78	0.837600	0.428200	0.961900
O791	O79	0.865000	0.309200	0.303700
O801	O80	0.804500	0.233300	0.290500
O811	O81	0.123800	0.223100	0.589700
O821	O82	0.080900	0.310400	0.539500
O831	O83	0.658000	0.269800	0.909300
O841	O84	0.613910	0.182040	0.872200
C2391	C239	0.238700	0.119800	0.782700
C2401	C240	0.232700	0.080500	0.860200
C2411	C241	0.269000	0.032400	0.893000
H1761	H176	0.297000	0.022200	0.866700
C2421	C242	0.264600	0.998300	0.965300
C2431	C243	0.221100	0.012800	0.001600
H1771	H177	0.217100	0.988900	0.049200
C2441	C244	0.185200	0.060400	0.969300
H1781	H178	0.156900	0.069900	0.995400
C2451	C245	0.189300	0.095400	0.898100
H1791	H179	0.163800	0.128500	0.875000
C2461	C246	0.301200	0.943600	0.998200
C2471	C247	0.353300	0.760800	0.330200
C2481	C248	0.406200	0.733800	0.417000
C2491	C249	0.464500	0.758600	0.452500
H1801	H180	0.470000	0.793900	0.425700
C2501	C250	0.514600	0.732300	0.526600
C2511	C251	0.504800	0.681500	0.567100
H1811	H181	0.538900	0.662600	0.616800
C2521	C252	0.446300	0.658300	0.536400
H1821	H182	0.440100	0.625000	0.567300
C2531	C253	0.396900	0.684000	0.460200
H1831	H183	0.356700	0.667800	0.437400
C2541	C254	0.578700	0.756800	0.555700
C2551	C255	0.113100	0.738000	0.865400
C2561	C256	0.054900	0.765800	0.803300
C2571	C257	0.056200	0.825500	0.753900
H1841	H184	0.096700	0.838300	0.756900
C2581	C258	0.003000	0.849500	0.681500
H1851	H185	0.005400	0.886700	0.657400
C2591	C259	0.050200	0.822500	0.854500
H1861	H186	0.084800	0.835200	0.917000
C2601	C260	0.452200	0.913200	0.310600
H1871	H187	0.465500	0.874700	0.311200
C2611	C261	0.495500	0.955000	0.364100
H1881	H188	0.537800	0.945000	0.399000
C2621	C262	0.476100	0.011700	0.366000
C2631	C263	0.415700	0.024100	0.314900
H1891	H189	0.400800	0.061900	0.315800
C2641	C264	0.376000	0.981300	0.261400
H1901	H190	0.333900	0.991400	0.223700
C2651	C265	0.520900	0.054300	0.431900
H1911	H191	0.552400	0.034300	0.489200
H1921	H192	0.499100	0.082200	0.455100
C2661	C266	0.552500	0.086400	0.377600
H1931	H193	0.521200	0.108800	0.323200
H1941	H194	0.571300	0.058200	0.349900
C2671	C267	0.602800	0.127500	0.446600
H1951	H195	0.584300	0.155600	0.475200
H1961	H196	0.634700	0.105300	0.500300
C2681	C268	0.631200	0.158300	0.390400
C2691	C269	0.677600	0.132100	0.368000
H1971	H197	0.692400	0.094700	0.392100
C2701	C270	0.701300	0.160800	0.311600
H1981	H198	0.733300	0.143000	0.300500
C2711	C271	0.635700	0.238300	0.292700
H1991	H199	0.620200	0.275200	0.266500
C2721	C272	0.611700	0.211500	0.351500
H2001	H200	0.581200	0.230800	0.364400
Co221	Co22	0.323690	0.861510	0.185480
Co231	Co23	0.218960	0.760870	0.186690
Co241	Co24	0.351740	0.844630	0.987610
N151	N15	0.392300	0.926100	0.258400
N161	N16	0.680200	0.213900	0.271300
O851	O85	0.249700	0.810400	0.099500
O861	O86	0.274500	0.805600	0.906900
O871	O87	0.269100	0.096000	0.739900
O881	O88	0.214000	0.166700	0.767500
O891	O89	0.291000	0.913300	0.060300
O901	O90	0.337600	0.928200	0.961900
O911	O91	0.365000	0.809200	0.303700
O921	O92	0.304500	0.733300	0.290500
O931	O93	0.623800	0.723100	0.589700
O941	O94	0.580900	0.810400	0.539500
O951	O95	0.158000	0.769800	0.909300
O961	O96	0.113910	0.682040	0.872200
C2731	C273	0.500000	0.763100	0.250000
H2011	H201	0.500000	0.804000	0.250000
C2741	C274	0.000000	0.263100	0.250000
H2021	H202	0.000000	0.304000	0.250000
C2751	C275	0.500000	0.236900	0.750000
H2031	H203	0.500000	0.196000	0.750000
C2761	C276	0.000000	0.736900	0.750000
H2041	H204	0.000000	0.696000	0.750000
Co251	Co25	0.750000	0.750000	0.500000
Co261	Co26	0.250000	0.750000	0.000000
Co271	Co27	0.250000	0.250000	0.500000
Co281	Co28	0.750000	0.250000	0.000000
