data_ANONAT_manual_PM
_symmetry_space_group_name_H-M	'P1'
_cell_length_a	10.922000
_cell_length_b	14.981000
_cell_length_c	20.411800
_cell_angle_alpha	111.529000
_cell_angle_beta	105.518000
_cell_angle_gamma	90.000000
_symmetry_Int_Tables_number 1

loop_
_symmetry_equiv_pos_as_xyz
'x,y,z'

loop_
_atom_site_label
_atom_site_type_symbol
_atom_site_fract_x
_atom_site_fract_y
_atom_site_fract_z
Cu11	Cu1	0.559630	0.473730	0.947460
Cu21	Cu2	0.112170	0.026270	0.052540
Cu31	Cu3	0.887830	0.973730	0.947460
Cu41	Cu4	0.440370	0.526270	0.052540
H11	H1	0.737700	0.460600	0.216600
H21	H2	0.766500	0.312000	0.435400
H111	H11	0.021100	0.039400	0.783400
H121	H12	0.831100	0.188000	0.564600
H211	H21	0.978900	0.256000	0.216600
H221	H22	0.168900	0.623400	0.435400
H311	H31	0.262300	0.244000	0.783400
H321	H32	0.233500	0.876600	0.564600
H411	H41	0.262300	0.539400	0.783400
H421	H42	0.233500	0.688000	0.564600
H511	H51	0.978900	0.960600	0.216600
H521	H52	0.168900	0.812000	0.435400
H611	H61	0.021100	0.744000	0.783400
H621	H62	0.831100	0.376600	0.564600
H711	H71	0.737700	0.756000	0.216600
H721	H72	0.766500	0.123400	0.435400
H851	H85	0.761700	0.261700	0.023400
H861	H86	0.238300	0.238300	0.976600
H871	H87	0.238300	0.738300	0.976600
H881	H88	0.761700	0.761700	0.023400
C11	C1	0.647100	0.418140	0.072600
C21	C2	0.738130	0.369510	0.113460
C31	C3	0.774260	0.406440	0.190120
C41	C4	0.846720	0.358820	0.341440
C51	C5	0.887540	0.401140	0.423480
C61	C6	0.832160	0.364360	0.461320
C131	C13	0.074500	0.081860	0.927400
C141	C14	0.124670	0.130490	0.886540
C151	C15	0.084140	0.093560	0.809880
C161	C16	0.005280	0.141180	0.658560
C171	C17	0.964060	0.098860	0.576520
C181	C18	0.870840	0.135640	0.538680
C251	C25	0.925500	0.154460	0.072600
C261	C26	0.875330	0.243950	0.113460
C271	C27	0.915860	0.283680	0.190120
C281	C28	0.994720	0.482620	0.341440
C291	C29	0.035940	0.522340	0.423480
C301	C30	0.129160	0.596960	0.461320
C371	C37	0.352900	0.345540	0.927400
C381	C38	0.261870	0.256050	0.886540
C391	C39	0.225740	0.216320	0.809880
C401	C40	0.153280	0.017380	0.658560
C411	C41	0.112460	0.977660	0.576520
C421	C42	0.167840	0.903040	0.538680
C491	C49	0.352900	0.581860	0.927400
C501	C50	0.261870	0.630490	0.886540
C511	C51	0.225740	0.593560	0.809880
C521	C52	0.153280	0.641180	0.658560
C531	C53	0.112460	0.598860	0.576520
C541	C54	0.167840	0.635640	0.538680
C611	C61	0.925500	0.918140	0.072600
C621	C62	0.875330	0.869510	0.113460
C631	C63	0.915860	0.906440	0.190120
C641	C64	0.994720	0.858820	0.341440
C651	C65	0.035940	0.901140	0.423480
C661	C66	0.129160	0.864360	0.461320
C731	C73	0.074500	0.845540	0.927400
C741	C74	0.124670	0.756050	0.886540
C751	C75	0.084140	0.716320	0.809880
C761	C76	0.005280	0.517380	0.658560
C771	C77	0.964060	0.477660	0.576520
C781	C78	0.870840	0.403040	0.538680
C851	C85	0.647100	0.654460	0.072600
C861	C86	0.738130	0.743950	0.113460
C871	C87	0.774260	0.783680	0.190120
C881	C88	0.846720	0.982620	0.341440
C891	C89	0.887540	0.022340	0.423480
C901	C90	0.832160	0.096960	0.461320
C1011	C101	0.863570	0.363570	0.227140
C1021	C102	0.787860	0.287860	0.075720
C1031	C103	0.980430	0.480430	0.460860
C1041	C104	0.136430	0.136430	0.772860
C1051	C105	0.212140	0.212140	0.924280
C1061	C106	0.019570	0.019570	0.539140
C1071	C107	0.136430	0.636430	0.772860
C1081	C108	0.212140	0.712140	0.924280
C1091	C109	0.019570	0.519570	0.539140
C1101	C110	0.863570	0.863570	0.227140
C1111	C111	0.787860	0.787860	0.075720
C1121	C112	0.980430	0.980430	0.460860
N51	N5	0.903500	0.403500	0.307000
N61	N6	0.096500	0.096500	0.693000
N71	N7	0.096500	0.596500	0.693000
N81	N8	0.903500	0.903500	0.307000
O11	O1	0.660070	0.412120	0.011960
O21	O2	0.565600	0.461340	0.102260
O31	O3	0.769360	0.289460	0.306520
O41	O4	0.148110	0.087880	0.988040
O51	O5	0.963340	0.038660	0.897740
O61	O6	0.962840	0.210540	0.693480
O71	O7	0.851890	0.099840	0.011960
O81	O8	0.036660	0.140920	0.102260
O91	O9	0.037160	0.517060	0.306520
O101	O10	0.339930	0.400160	0.988040
O111	O11	0.434400	0.359080	0.897740
O121	O12	0.230640	0.982940	0.693480
O131	O13	0.339930	0.587880	0.988040
O141	O14	0.434400	0.538660	0.897740
O151	O15	0.230640	0.710540	0.693480
O161	O16	0.851890	0.912120	0.011960
O171	O17	0.036660	0.961340	0.102260
O181	O18	0.037160	0.789460	0.306520
O191	O19	0.148110	0.900160	0.988040
O201	O20	0.963340	0.859080	0.897740
O211	O21	0.962840	0.482940	0.693480
O221	O22	0.660070	0.599840	0.011960
O231	O23	0.565600	0.640920	0.102260
O241	O24	0.769360	0.017060	0.306520
