data_AQEQES_freeONLY_PM
_symmetry_space_group_name_H-M	'P1'
_cell_length_a	10.659200
_cell_length_b	15.689700
_cell_length_c	11.408800
_cell_angle_alpha	90.000000
_cell_angle_beta	90.101000
_cell_angle_gamma	90.000000
_symmetry_Int_Tables_number 1

loop_
_symmetry_equiv_pos_as_xyz
'x,y,z'

loop_
_atom_site_label
_atom_site_type_symbol
_atom_site_fract_x
_atom_site_fract_y
_atom_site_fract_z
O11	O1	0.906030	0.938840	0.374200
O21	O2	0.833910	0.859780	0.228250
O31	O3	0.873750	0.936110	0.654260
O41	O4	0.036450	0.859520	0.592060
C11	C1	0.800500	0.810240	0.422180
C21	C2	0.831500	0.813330	0.541770
C31	C3	0.719700	0.746780	0.382990
C41	C4	0.850400	0.873310	0.334540
C51	C5	0.922700	0.875200	0.596590
H11	H1	0.699500	0.744900	0.300100
O51	O5	0.406030	0.438840	0.374200
O61	O6	0.333910	0.359780	0.228250
O71	O7	0.373750	0.436110	0.654260
O81	O8	0.536450	0.359520	0.592060
C61	C6	0.300500	0.310240	0.422180
C71	C7	0.331500	0.313330	0.541770
C81	C8	0.219700	0.246780	0.382990
C91	C9	0.350400	0.373310	0.334540
C101	C10	0.422700	0.375200	0.596590
H21	H2	0.199500	0.244900	0.300100
O91	O9	0.093970	0.938840	0.125800
O101	O10	0.166090	0.859780	0.271750
O111	O11	0.126250	0.936110	0.845740
O121	O12	0.963550	0.859520	0.907940
C111	C11	0.199500	0.810240	0.077820
C121	C12	0.168500	0.813330	0.958230
C131	C13	0.280300	0.746780	0.117010
C141	C14	0.149600	0.873310	0.165460
C151	C15	0.077300	0.875200	0.903410
H31	H3	0.300500	0.744900	0.199900
O131	O13	0.593970	0.438840	0.125800
O141	O14	0.666090	0.359780	0.271750
O151	O15	0.626250	0.436110	0.845740
O161	O16	0.463550	0.359520	0.907940
C161	C16	0.699500	0.310240	0.077820
C171	C17	0.668500	0.313330	0.958230
C181	C18	0.780300	0.246780	0.117010
C191	C19	0.649600	0.373310	0.165460
C201	C20	0.577300	0.375200	0.903410
H41	H4	0.800500	0.244900	0.199900
O171	O17	0.093970	0.061160	0.625800
O181	O18	0.166090	0.140220	0.771750
O191	O19	0.126250	0.063890	0.345740
O201	O20	0.963550	0.140480	0.407940
C211	C21	0.199500	0.189760	0.577820
C221	C22	0.168500	0.186670	0.458230
C231	C23	0.280300	0.253220	0.617010
C241	C24	0.149600	0.126690	0.665460
C251	C25	0.077300	0.124800	0.403410
H51	H5	0.300500	0.255100	0.699900
O211	O21	0.593970	0.561160	0.625800
O221	O22	0.666090	0.640220	0.771750
O231	O23	0.626250	0.563890	0.345740
O241	O24	0.463550	0.640480	0.407940
C261	C26	0.699500	0.689760	0.577820
C271	C27	0.668500	0.686670	0.458230
C281	C28	0.780300	0.753220	0.617010
C291	C29	0.649600	0.626690	0.665460
C301	C30	0.577300	0.624800	0.403410
H61	H6	0.800500	0.755100	0.699900
O251	O25	0.906030	0.061160	0.874200
O261	O26	0.833910	0.140220	0.728250
O271	O27	0.873750	0.063890	0.154260
O281	O28	0.036450	0.140480	0.092060
C311	C31	0.800500	0.189760	0.922180
C321	C32	0.831500	0.186670	0.041770
C331	C33	0.719700	0.253220	0.882990
C341	C34	0.850400	0.126690	0.834540
C351	C35	0.922700	0.124800	0.096590
H71	H7	0.699500	0.255100	0.800100
O291	O29	0.406030	0.561160	0.874200
O301	O30	0.333910	0.640220	0.728250
O311	O31	0.373750	0.563890	0.154260
O321	O32	0.536450	0.640480	0.092060
C361	C36	0.300500	0.689760	0.922180
C371	C37	0.331500	0.686670	0.041770
C381	C38	0.219700	0.753220	0.882990
C391	C39	0.350400	0.626690	0.834540
C401	C40	0.422700	0.624800	0.096590
H81	H8	0.199500	0.755100	0.800100
Co11	Co1	0.000000	0.002880	0.250000
Co21	Co2	0.500000	0.502880	0.250000
Co31	Co3	0.000000	0.997120	0.750000
Co41	Co4	0.500000	0.497120	0.750000
