data_AQETUM_freeONLY_PM
_symmetry_space_group_name_H-M	'P1'
_cell_length_a	9.635500
_cell_length_b	13.996700
_cell_length_c	14.174000
_cell_angle_alpha	90.000000
_cell_angle_beta	96.174000
_cell_angle_gamma	90.000000
_symmetry_Int_Tables_number 1

loop_
_symmetry_equiv_pos_as_xyz
'x,y,z'

loop_
_atom_site_label
_atom_site_type_symbol
_atom_site_fract_x
_atom_site_fract_y
_atom_site_fract_z
Mn11	Mn1	0.646800	0.785400	0.006700
Mn21	Mn2	0.163000	0.883600	0.339400
Mn31	Mn3	0.353200	0.285400	0.493300
Mn41	Mn4	0.837000	0.383600	0.160600
Mn51	Mn5	0.353200	0.214600	0.993300
Mn61	Mn6	0.837000	0.116400	0.660600
Mn71	Mn7	0.646800	0.714600	0.506700
Mn81	Mn8	0.163000	0.616400	0.839400
Nb11	Nb1	0.338700	0.950500	0.706100
Nb21	Nb2	0.661300	0.450500	0.793900
Nb31	Nb3	0.661300	0.049500	0.293900
Nb41	Nb4	0.338700	0.549500	0.206100
C11	C1	0.474100	0.875400	0.821900
C21	C2	0.255200	0.905000	0.559400
C31	C3	0.117000	0.999100	0.712600
C41	C4	0.485500	0.649200	0.141000
C51	C5	0.557100	0.008200	0.709600
C61	C6	0.667600	0.947200	0.172400
C71	C7	0.681100	0.586500	0.877300
C81	C8	0.234700	0.820600	0.759400
C91	C9	0.525900	0.375400	0.678100
C101	C10	0.744800	0.405000	0.940600
C111	C11	0.883000	0.499100	0.787400
C121	C12	0.514500	0.149200	0.359000
C131	C13	0.442900	0.508200	0.790400
C141	C14	0.332400	0.447200	0.327600
C151	C15	0.318900	0.086500	0.622700
C161	C16	0.765300	0.320600	0.740600
C171	C17	0.525900	0.124600	0.178100
C181	C18	0.744800	0.095000	0.440600
C191	C19	0.883000	0.000900	0.287400
C201	C20	0.514500	0.350800	0.859000
C211	C21	0.442900	0.991800	0.290400
C221	C22	0.332400	0.052800	0.827600
C231	C23	0.318900	0.413500	0.122700
C241	C24	0.765300	0.179400	0.240600
C251	C25	0.474100	0.624600	0.321900
C261	C26	0.255200	0.595000	0.059400
C271	C27	0.117000	0.500900	0.212600
C281	C28	0.485500	0.850800	0.641000
C291	C29	0.557100	0.491800	0.209600
C301	C30	0.667600	0.552800	0.672400
C311	C31	0.681100	0.913500	0.377300
C321	C32	0.234700	0.679400	0.259400
N11	N1	0.214000	0.885300	0.483200
N21	N2	0.541900	0.839000	0.882400
N31	N3	0.005000	0.026200	0.714700
N41	N4	0.561900	0.697100	0.106300
N51	N5	0.665700	0.040200	0.704700
N61	N6	0.670200	0.896500	0.109600
N71	N7	0.690600	0.654700	0.921900
N81	N8	0.188800	0.753000	0.789100
N91	N9	0.786000	0.385300	0.016800
N101	N10	0.458100	0.339000	0.617600
N111	N11	0.995000	0.526200	0.785300
N121	N12	0.438100	0.197100	0.393700
N131	N13	0.334300	0.540200	0.795300
N141	N14	0.329800	0.396500	0.390400
N151	N15	0.309400	0.154700	0.578100
N161	N16	0.811200	0.253000	0.710900
N171	N17	0.786000	0.114700	0.516800
N181	N18	0.458100	0.161000	0.117600
N191	N19	0.995000	0.973800	0.285300
N201	N20	0.438100	0.302900	0.893700
N211	N21	0.334300	0.959800	0.295300
N221	N22	0.329800	0.103500	0.890400
N231	N23	0.309400	0.345300	0.078100
N241	N24	0.811200	0.247000	0.210900
N251	N25	0.214000	0.614700	0.983200
N261	N26	0.541900	0.661000	0.382400
N271	N27	0.005000	0.473800	0.214700
N281	N28	0.561900	0.802900	0.606300
N291	N29	0.665700	0.459800	0.204700
N301	N30	0.670200	0.603500	0.609600
N311	N31	0.690600	0.845300	0.421900
N321	N32	0.188800	0.747000	0.289100
