data_AQUDOH_freeONLY_PM
_symmetry_space_group_name_H-M	'P1'
_cell_length_a	28.744400
_cell_length_b	9.267200
_cell_length_c	9.329500
_cell_angle_alpha	90.000000
_cell_angle_beta	116.097000
_cell_angle_gamma	90.000000
_symmetry_Int_Tables_number 1

loop_
_symmetry_equiv_pos_as_xyz
'x,y,z'

loop_
_atom_site_label
_atom_site_type_symbol
_atom_site_fract_x
_atom_site_fract_y
_atom_site_fract_z
Cu11	Cu1	0.187820	0.830700	0.313700
O11	O1	0.128200	0.073000	0.344900
O21	O2	0.139000	0.179900	0.574200
N11	N1	0.219600	0.008800	0.739800
N21	N2	0.255900	0.905300	0.792800
N31	N3	0.250500	0.825800	0.668500
N41	N4	0.211400	0.876600	0.537700
N51	N5	0.143000	0.660800	0.330800
C11	C1	0.149300	0.088600	0.490600
C21	C2	0.193000	0.988700	0.584000
C31	C3	0.110800	0.719600	0.384700
C41	C4	0.073000	0.643900	0.408000
C51	C5	0.068430	0.497300	0.372500
C61	C6	0.101000	0.433000	0.316800
C71	C7	0.137600	0.518600	0.297600
C81	C8	0.028170	0.407800	0.395060
H11	H1	0.114280	0.820930	0.408720
H21	H2	0.050950	0.690640	0.446850
H31	H3	0.098310	0.331910	0.292050
H41	H4	0.160120	0.474280	0.258940
H51	H5	0.044840	0.348100	0.487940
H61	H6	0.003820	0.470560	0.408660
H71	H7	0.024540	0.253900	0.233800
Cu21	Cu2	0.687820	0.330700	0.313700
O31	O3	0.628200	0.573000	0.344900
O41	O4	0.639000	0.679900	0.574200
N61	N6	0.719600	0.508800	0.739800
N71	N7	0.755900	0.405300	0.792800
N81	N8	0.750500	0.325800	0.668500
N91	N9	0.711400	0.376600	0.537700
N101	N10	0.643000	0.160800	0.330800
C91	C9	0.649300	0.588600	0.490600
C101	C10	0.693000	0.488700	0.584000
C111	C11	0.610800	0.219600	0.384700
C121	C12	0.573000	0.143900	0.408000
C131	C13	0.568430	0.997300	0.372500
C141	C14	0.601000	0.933000	0.316800
C151	C15	0.637600	0.018600	0.297600
C161	C16	0.528170	0.907800	0.395060
H81	H8	0.614280	0.320930	0.408720
H91	H9	0.550950	0.190640	0.446850
H101	H10	0.598310	0.831910	0.292050
H111	H11	0.660120	0.974280	0.258940
H121	H12	0.544840	0.848100	0.487940
H131	H13	0.503820	0.970560	0.408660
H141	H14	0.524540	0.753900	0.233800
Cu31	Cu3	0.812180	0.830700	0.186300
O51	O5	0.871800	0.073000	0.155100
O61	O6	0.861000	0.179900	0.925800
N111	N11	0.780400	0.008800	0.760200
N121	N12	0.744100	0.905300	0.707200
N131	N13	0.749500	0.825800	0.831500
N141	N14	0.788600	0.876600	0.962300
N151	N15	0.857000	0.660800	0.169200
C171	C17	0.850700	0.088600	0.009400
C181	C18	0.807000	0.988700	0.916000
C191	C19	0.889200	0.719600	0.115300
C201	C20	0.927000	0.643900	0.092000
C211	C21	0.931570	0.497300	0.127500
C221	C22	0.899000	0.433000	0.183200
C231	C23	0.862400	0.518600	0.202400
C241	C24	0.971830	0.407800	0.104940
H151	H15	0.885720	0.820930	0.091280
H161	H16	0.949050	0.690640	0.053150
H171	H17	0.901690	0.331910	0.207950
H181	H18	0.839880	0.474280	0.241060
H191	H19	0.955160	0.348100	0.012060
H201	H20	0.996180	0.470560	0.091340
H211	H21	0.975460	0.253900	0.266200
Cu41	Cu4	0.312180	0.330700	0.186300
O71	O7	0.371800	0.573000	0.155100
O81	O8	0.361000	0.679900	0.925800
N161	N16	0.280400	0.508800	0.760200
N171	N17	0.244100	0.405300	0.707200
N181	N18	0.249500	0.325800	0.831500
N191	N19	0.288600	0.376600	0.962300
N201	N20	0.357000	0.160800	0.169200
C251	C25	0.350700	0.588600	0.009400
C261	C26	0.307000	0.488700	0.916000
C271	C27	0.389200	0.219600	0.115300
C281	C28	0.427000	0.143900	0.092000
C291	C29	0.431570	0.997300	0.127500
C301	C30	0.399000	0.933000	0.183200
C311	C31	0.362400	0.018600	0.202400
C321	C32	0.471830	0.907800	0.104940
H221	H22	0.385720	0.320930	0.091280
H231	H23	0.449050	0.190640	0.053150
H241	H24	0.401690	0.831910	0.207950
H251	H25	0.339880	0.974280	0.241060
H261	H26	0.455160	0.848100	0.012060
H271	H27	0.496180	0.970560	0.091340
H281	H28	0.475460	0.753900	0.266200
Cu51	Cu5	0.812180	0.169300	0.686300
O91	O9	0.871800	0.927000	0.655100
O101	O10	0.861000	0.820100	0.425800
N211	N21	0.780400	0.991200	0.260200
N221	N22	0.744100	0.094700	0.207200
N231	N23	0.749500	0.174200	0.331500
N241	N24	0.788600	0.123400	0.462300
N251	N25	0.857000	0.339200	0.669200
C331	C33	0.850700	0.911400	0.509400
C341	C34	0.807000	0.011300	0.416000
C351	C35	0.889200	0.280400	0.615300
C361	C36	0.927000	0.356100	0.592000
C371	C37	0.931570	0.502700	0.627500
C381	C38	0.899000	0.567000	0.683200
C391	C39	0.862400	0.481400	0.702400
C401	C40	0.971830	0.592200	0.604940
H291	H29	0.885720	0.179070	0.591280
H301	H30	0.949050	0.309360	0.553150
H311	H31	0.901690	0.668090	0.707950
H321	H32	0.839880	0.525720	0.741060
H331	H33	0.955160	0.651900	0.512060
H341	H34	0.996180	0.529440	0.591340
H351	H35	0.975460	0.746100	0.766200
Cu61	Cu6	0.312180	0.669300	0.686300
O111	O11	0.371800	0.427000	0.655100
O121	O12	0.361000	0.320100	0.425800
N261	N26	0.280400	0.491200	0.260200
N271	N27	0.244100	0.594700	0.207200
N281	N28	0.249500	0.674200	0.331500
N291	N29	0.288600	0.623400	0.462300
N301	N30	0.357000	0.839200	0.669200
C411	C41	0.350700	0.411400	0.509400
C421	C42	0.307000	0.511300	0.416000
C431	C43	0.389200	0.780400	0.615300
C441	C44	0.427000	0.856100	0.592000
C451	C45	0.431570	0.002700	0.627500
C461	C46	0.399000	0.067000	0.683200
C471	C47	0.362400	0.981400	0.702400
C481	C48	0.471830	0.092200	0.604940
H361	H36	0.385720	0.679070	0.591280
H371	H37	0.449050	0.809360	0.553150
H381	H38	0.401690	0.168090	0.707950
H391	H39	0.339880	0.025720	0.741060
H401	H40	0.455160	0.151900	0.512060
H411	H41	0.496180	0.029440	0.591340
H421	H42	0.475460	0.246100	0.766200
Cu71	Cu7	0.187820	0.169300	0.813700
O131	O13	0.128200	0.927000	0.844900
O141	O14	0.139000	0.820100	0.074200
N311	N31	0.219600	0.991200	0.239800
N321	N32	0.255900	0.094700	0.292800
N331	N33	0.250500	0.174200	0.168500
N341	N34	0.211400	0.123400	0.037700
N351	N35	0.143000	0.339200	0.830800
C491	C49	0.149300	0.911400	0.990600
C501	C50	0.193000	0.011300	0.084000
C511	C51	0.110800	0.280400	0.884700
C521	C52	0.073000	0.356100	0.908000
C531	C53	0.068430	0.502700	0.872500
C541	C54	0.101000	0.567000	0.816800
C551	C55	0.137600	0.481400	0.797600
C561	C56	0.028170	0.592200	0.895060
H431	H43	0.114280	0.179070	0.908720
H441	H44	0.050950	0.309360	0.946850
H451	H45	0.098310	0.668090	0.792050
H461	H46	0.160120	0.525720	0.758940
H471	H47	0.044840	0.651900	0.987940
H481	H48	0.003820	0.529440	0.908660
H491	H49	0.024540	0.746100	0.733800
Cu81	Cu8	0.687820	0.669300	0.813700
O151	O15	0.628200	0.427000	0.844900
O161	O16	0.639000	0.320100	0.074200
N361	N36	0.719600	0.491200	0.239800
N371	N37	0.755900	0.594700	0.292800
N381	N38	0.750500	0.674200	0.168500
N391	N39	0.711400	0.623400	0.037700
N401	N40	0.643000	0.839200	0.830800
C571	C57	0.649300	0.411400	0.990600
C581	C58	0.693000	0.511300	0.084000
C591	C59	0.610800	0.780400	0.884700
C601	C60	0.573000	0.856100	0.908000
C611	C61	0.568430	0.002700	0.872500
C621	C62	0.601000	0.067000	0.816800
C631	C63	0.637600	0.981400	0.797600
C641	C64	0.528170	0.092200	0.895060
H501	H50	0.614280	0.679070	0.908720
H511	H51	0.550950	0.809360	0.946850
H521	H52	0.598310	0.168090	0.792050
H531	H53	0.660120	0.025720	0.758940
H541	H54	0.544840	0.151900	0.987940
H551	H55	0.503820	0.029440	0.908660
H561	H56	0.524540	0.246100	0.733800
C651	C65	0.000000	0.313700	0.250000
C661	C66	0.500000	0.813700	0.250000
C671	C67	0.000000	0.686300	0.750000
C681	C68	0.500000	0.186300	0.750000
