data_ARAFIJ_freeONLY_PM
_symmetry_space_group_name_H-M	'P1'
_cell_length_a	23.739000
_cell_length_b	7.072400
_cell_length_c	11.540500
_cell_angle_alpha	90.000000
_cell_angle_beta	90.000000
_cell_angle_gamma	90.000000
_symmetry_Int_Tables_number 1

loop_
_symmetry_equiv_pos_as_xyz
'x,y,z'

loop_
_atom_site_label
_atom_site_type_symbol
_atom_site_fract_x
_atom_site_fract_y
_atom_site_fract_z
N11	N1	0.440390	0.156500	0.424400
C11	C1	0.391540	0.096800	0.377600
H11	H1	0.380500	0.968900	0.366600
C21	C2	0.277600	0.089400	0.271400
H21	H2	0.296500	0.972400	0.282400
N21	N2	0.391540	0.403200	0.377600
N31	N3	0.940390	0.656500	0.924400
C31	C3	0.891540	0.596800	0.877600
H31	H3	0.880500	0.468900	0.866600
C41	C4	0.777600	0.589400	0.771400
H41	H4	0.796500	0.472400	0.782400
N41	N4	0.891540	0.903200	0.877600
N51	N5	0.559610	0.343500	0.424400
C51	C5	0.608460	0.403200	0.377600
H51	H5	0.619500	0.531100	0.366600
C61	C6	0.722400	0.410600	0.271400
H61	H6	0.703500	0.527600	0.282400
N61	N6	0.608460	0.096800	0.377600
N71	N7	0.059610	0.843500	0.924400
C71	C7	0.108460	0.903200	0.877600
H71	H7	0.119500	0.031100	0.866600
C81	C8	0.222400	0.910600	0.771400
H81	H8	0.203500	0.027600	0.782400
N81	N8	0.108460	0.596800	0.877600
N91	N9	0.559610	0.656500	0.575600
C91	C9	0.608460	0.596800	0.622400
H91	H9	0.619500	0.468900	0.633400
C101	C10	0.722400	0.589400	0.728600
H101	H10	0.703500	0.472400	0.717600
N101	N10	0.608460	0.903200	0.622400
N111	N11	0.059610	0.156500	0.075600
C111	C11	0.108460	0.096800	0.122400
H111	H11	0.119500	0.968900	0.133400
C121	C12	0.222400	0.089400	0.228600
H121	H12	0.203500	0.972400	0.217600
N121	N12	0.108460	0.403200	0.122400
N131	N13	0.440390	0.843500	0.575600
C131	C13	0.391540	0.903200	0.622400
H131	H13	0.380500	0.031100	0.633400
C141	C14	0.277600	0.910600	0.728600
H141	H14	0.296500	0.027600	0.717600
N141	N14	0.391540	0.596800	0.622400
N151	N15	0.940390	0.343500	0.075600
C151	C15	0.891540	0.403200	0.122400
H151	H15	0.880500	0.531100	0.133400
C161	C16	0.777600	0.410600	0.228600
H161	H16	0.796500	0.527600	0.217600
N161	N16	0.891540	0.096800	0.122400
N171	N17	0.559610	0.843500	0.575600
H171	H17	0.619500	0.031100	0.633400
C171	C17	0.722400	0.910600	0.728600
H181	H18	0.703500	0.027600	0.717600
N181	N18	0.059610	0.343500	0.075600
H191	H19	0.119500	0.531100	0.133400
C181	C18	0.222400	0.410600	0.228600
H201	H20	0.203500	0.527600	0.217600
N191	N19	0.440390	0.656500	0.575600
H211	H21	0.380500	0.468900	0.633400
C191	C19	0.277600	0.589400	0.728600
H221	H22	0.296500	0.472400	0.717600
N201	N20	0.940390	0.156500	0.075600
H231	H23	0.880500	0.968900	0.133400
C201	C20	0.777600	0.089400	0.228600
H241	H24	0.796500	0.972400	0.217600
N211	N21	0.440390	0.343500	0.424400
H251	H25	0.380500	0.531100	0.366600
C211	C21	0.277600	0.410600	0.271400
H261	H26	0.296500	0.527600	0.282400
N221	N22	0.940390	0.843500	0.924400
H271	H27	0.880500	0.031100	0.866600
C221	C22	0.777600	0.910600	0.771400
H281	H28	0.796500	0.027600	0.782400
N231	N23	0.559610	0.156500	0.424400
H291	H29	0.619500	0.968900	0.366600
C231	C23	0.722400	0.089400	0.271400
H301	H30	0.703500	0.972400	0.282400
N241	N24	0.059610	0.656500	0.924400
H311	H31	0.119500	0.468900	0.866600
C241	C24	0.222400	0.589400	0.771400
H321	H32	0.203500	0.472400	0.782400
Cu11	Cu1	0.500000	0.000000	0.500000
Cu21	Cu2	0.000000	0.500000	0.000000
Cu31	Cu3	0.500000	0.500000	0.500000
Cu41	Cu4	0.000000	0.000000	0.000000
C251	C25	0.304300	0.250000	0.297000
C261	C26	0.361400	0.250000	0.349300
C271	C27	0.804300	0.750000	0.797000
C281	C28	0.861400	0.750000	0.849300
C291	C29	0.695700	0.250000	0.297000
C301	C30	0.638600	0.250000	0.349300
C311	C31	0.195700	0.750000	0.797000
C321	C32	0.138600	0.750000	0.849300
C331	C33	0.695700	0.750000	0.703000
C341	C34	0.638600	0.750000	0.650700
C351	C35	0.195700	0.250000	0.203000
C361	C36	0.138600	0.250000	0.150700
C371	C37	0.304300	0.750000	0.703000
C381	C38	0.361400	0.750000	0.650700
C391	C39	0.804300	0.250000	0.203000
C401	C40	0.861400	0.250000	0.150700
