data_ARAHIM01_freeONLY_PM
_symmetry_space_group_name_H-M	'P1'
_cell_length_a	9.888400
_cell_length_b	9.888400
_cell_length_c	15.782900
_cell_angle_alpha	90.000000
_cell_angle_beta	90.000000
_cell_angle_gamma	90.000000
_symmetry_Int_Tables_number 1

loop_
_symmetry_equiv_pos_as_xyz
'x,y,z'

loop_
_atom_site_label
_atom_site_type_symbol
_atom_site_fract_x
_atom_site_fract_y
_atom_site_fract_z
C11	C1	0.243400	0.157100	0.188700
H11	H1	0.241000	0.093700	0.145200
C21	C2	0.743400	0.657100	0.688700
H21	H2	0.741000	0.593700	0.645200
C31	C3	0.756600	0.842900	0.188700
H31	H3	0.759000	0.906300	0.145200
C41	C4	0.256600	0.342900	0.688700
H41	H4	0.259000	0.406300	0.645200
C51	C5	0.842900	0.243400	0.188700
H51	H5	0.906300	0.241000	0.145200
C61	C6	0.342900	0.743400	0.688700
H61	H6	0.406300	0.741000	0.645200
C71	C7	0.157100	0.756600	0.188700
H71	H7	0.093700	0.759000	0.145200
C81	C8	0.657100	0.256600	0.688700
H81	H8	0.593700	0.259000	0.645200
C91	C9	0.756600	0.157100	0.311300
H91	H9	0.759000	0.093700	0.354800
C101	C10	0.256600	0.657100	0.811300
H101	H10	0.259000	0.593700	0.854800
C111	C11	0.243400	0.842900	0.311300
H111	H11	0.241000	0.906300	0.354800
C121	C12	0.743400	0.342900	0.811300
H121	H12	0.741000	0.406300	0.854800
C131	C13	0.157100	0.243400	0.311300
H131	H13	0.093700	0.241000	0.354800
C141	C14	0.657100	0.743400	0.811300
H141	H14	0.593700	0.741000	0.854800
C151	C15	0.842900	0.756600	0.311300
H151	H15	0.906300	0.759000	0.354800
C161	C16	0.342900	0.256600	0.811300
H161	H16	0.406300	0.259000	0.854800
C171	C17	0.756600	0.842900	0.811300
H171	H17	0.759000	0.906300	0.854800
C181	C18	0.256600	0.342900	0.311300
H181	H18	0.259000	0.406300	0.354800
C191	C19	0.243400	0.157100	0.811300
H191	H19	0.241000	0.093700	0.854800
C201	C20	0.743400	0.657100	0.311300
H201	H20	0.741000	0.593700	0.354800
C211	C21	0.157100	0.756600	0.811300
H211	H21	0.093700	0.759000	0.854800
C221	C22	0.657100	0.256600	0.311300
H221	H22	0.593700	0.259000	0.354800
C231	C23	0.842900	0.243400	0.811300
H231	H23	0.906300	0.241000	0.854800
C241	C24	0.342900	0.743400	0.311300
H241	H24	0.406300	0.741000	0.354800
C251	C25	0.243400	0.842900	0.688700
H251	H25	0.241000	0.906300	0.645200
C261	C26	0.743400	0.342900	0.188700
H261	H26	0.741000	0.406300	0.145200
C271	C27	0.756600	0.157100	0.688700
H271	H27	0.759000	0.093700	0.645200
C281	C28	0.256600	0.657100	0.188700
H281	H28	0.259000	0.593700	0.145200
C291	C29	0.842900	0.756600	0.688700
H291	H29	0.906300	0.759000	0.645200
C301	C30	0.342900	0.256600	0.188700
H301	H30	0.406300	0.259000	0.145200
C311	C31	0.157100	0.243400	0.688700
H311	H31	0.093700	0.241000	0.645200
C321	C32	0.657100	0.743400	0.188700
H321	H32	0.593700	0.741000	0.145200
Nb11	Nb1	0.000000	0.000000	0.000000
Nb21	Nb2	0.500000	0.500000	0.500000
Nb31	Nb3	0.000000	0.000000	0.500000
Nb41	Nb4	0.500000	0.500000	0.000000
Ni11	Ni1	0.000000	0.000000	0.250000
Ni21	Ni2	0.500000	0.500000	0.750000
Ni31	Ni3	0.000000	0.000000	0.750000
Ni41	Ni4	0.500000	0.500000	0.250000
O11	O1	0.000000	0.000000	0.122300
F11	F1	0.000000	0.000000	0.377700
O21	O2	0.500000	0.500000	0.622300
F21	F2	0.500000	0.500000	0.877700
O31	O3	0.000000	0.000000	0.877700
F31	F3	0.000000	0.000000	0.622300
O41	O4	0.500000	0.500000	0.377700
F41	F4	0.500000	0.500000	0.122300
F51	F5	0.192000	0.019300	0.000000
F61	F6	0.692000	0.519300	0.500000
F71	F7	0.808000	0.980700	0.000000
F81	F8	0.308000	0.480700	0.500000
F91	F9	0.980700	0.192000	0.000000
F101	F10	0.480700	0.692000	0.500000
F111	F11	0.019300	0.808000	0.000000
F121	F12	0.519300	0.308000	0.500000
F131	F13	0.808000	0.019300	0.500000
F141	F14	0.308000	0.519300	0.000000
F151	F15	0.192000	0.980700	0.500000
F161	F16	0.692000	0.480700	0.000000
F171	F17	0.019300	0.192000	0.500000
F181	F18	0.519300	0.692000	0.000000
F191	F19	0.980700	0.808000	0.500000
F201	F20	0.480700	0.308000	0.000000
N11	N1	0.151800	0.151800	0.250000
N21	N2	0.651800	0.651800	0.750000
N31	N3	0.848200	0.848200	0.250000
N41	N4	0.348200	0.348200	0.750000
N51	N5	0.848200	0.151800	0.250000
N61	N6	0.348200	0.651800	0.750000
N71	N7	0.151800	0.848200	0.250000
N81	N8	0.651800	0.348200	0.750000
N91	N9	0.848200	0.848200	0.750000
N101	N10	0.348200	0.348200	0.250000
N111	N11	0.151800	0.151800	0.750000
N121	N12	0.651800	0.651800	0.250000
N131	N13	0.151800	0.848200	0.750000
N141	N14	0.651800	0.348200	0.250000
N151	N15	0.848200	0.151800	0.750000
N161	N16	0.348200	0.651800	0.250000
