data_ARUCOH01_freeONLY_PM
_symmetry_space_group_name_H-M	'P1'
_cell_length_a	10.061000
_cell_length_b	25.034000
_cell_length_c	14.690000
_cell_angle_alpha	90.000000
_cell_angle_beta	103.081000
_cell_angle_gamma	90.000000
_symmetry_Int_Tables_number 1

loop_
_symmetry_equiv_pos_as_xyz
'x,y,z'

loop_
_atom_site_label
_atom_site_type_symbol
_atom_site_fract_x
_atom_site_fract_y
_atom_site_fract_z
Co11	Co1	0.472900	0.021230	0.358930
C11	C1	0.600300	0.911060	0.362100
H11	H1	0.678000	0.932000	0.367400
C21	C2	0.614700	0.856730	0.359400
H21	H2	0.700000	0.841700	0.362000
C31	C3	0.501200	0.824320	0.352700
C41	C4	0.376000	0.849450	0.345300
H31	H3	0.296200	0.829600	0.338300
C51	C5	0.372800	0.904280	0.348500
H41	H4	0.288400	0.920600	0.344100
C61	C6	0.426600	0.730260	0.355300
C71	C7	0.471300	0.673980	0.345300
C81	C8	0.606100	0.659230	0.355500
H51	H5	0.674400	0.684800	0.371900
C91	C9	0.640800	0.606810	0.341800
H61	H6	0.731600	0.597000	0.348600
C101	C10	0.538600	0.569410	0.317900
C111	C11	0.404600	0.582880	0.308100
H71	H7	0.336500	0.557200	0.291700
C121	C12	0.372200	0.635240	0.322900
H81	H8	0.281300	0.644600	0.317600
C131	C13	0.528000	0.471910	0.310300
C141	C14	0.565500	0.430730	0.259700
H91	H9	0.615200	0.437800	0.214800
C151	C15	0.530200	0.379310	0.275000
H101	H10	0.555400	0.351700	0.240100
C161	C16	0.457300	0.368100	0.341700
C171	C17	0.417300	0.410390	0.390600
H111	H11	0.364300	0.403800	0.433700
C181	C18	0.455500	0.462120	0.375800
H121	H12	0.431600	0.490100	0.410600
C191	C19	0.417600	0.312540	0.363300
C201	C20	0.485300	0.218700	0.345500
C211	C21	0.567300	0.186600	0.305600
H131	H13	0.628400	0.202000	0.274300
C221	C22	0.559600	0.132440	0.311700
H141	H14	0.618900	0.112100	0.285700
C231	C23	0.395200	0.138200	0.389700
H151	H15	0.332800	0.122000	0.418900
C241	C24	0.399100	0.193100	0.388900
H161	H16	0.342300	0.212600	0.418300
C251	C25	0.722100	0.001430	0.522900
C261	C26	0.866000	0.000360	0.511000
C271	C27	0.966900	0.973760	0.574400
H171	H17	0.944900	0.955900	0.624500
C281	C28	0.099600	0.973450	0.564300
H181	H18	0.166600	0.955700	0.607800
C291	C29	0.384100	0.004890	0.928800
H191	H19	0.306200	0.008300	0.881000
C301	C30	0.375500	0.011020	0.020700
H201	H20	0.291800	0.018300	0.034800
C311	C31	0.492000	0.006280	0.092300
C321	C32	0.484500	0.013570	0.192000
N11	N1	0.481600	0.935870	0.357600
N21	N2	0.520200	0.769200	0.351300
H211	H21	0.599900	0.758500	0.347400
N31	N3	0.500500	0.273890	0.340000
H221	H22	0.569500	0.284900	0.319800
N41	N4	0.473500	0.106940	0.351900
O11	O1	0.312000	0.740330	0.362200
O21	O2	0.583200	0.520560	0.294000
O31	O3	0.323900	0.303310	0.398300
O41	O4	0.698700	0.976240	0.592170
O51	O5	0.636500	0.027440	0.465400
O61	O6	0.369800	0.017280	0.211990
O71	O7	0.592900	0.016190	0.253650
Co21	Co2	0.527100	0.978770	0.641070
C331	C33	0.399700	0.088940	0.637900
H231	H23	0.322000	0.068000	0.632600
C341	C34	0.385300	0.143270	0.640600
H241	H24	0.300000	0.158300	0.638000
C351	C35	0.498800	0.175680	0.647300
C361	C36	0.624000	0.150550	0.654700
H251	H25	0.703800	0.170400	0.661700
C371	C37	0.627200	0.095720	0.651500
H261	H26	0.711600	0.079400	0.655900
C381	C38	0.573400	0.269740	0.644700
C391	C39	0.528700	0.326020	0.654700
C401	C40	0.393900	0.340770	0.644500
H271	H27	0.325600	0.315200	0.628100
C411	C41	0.359200	0.393190	0.658200
H281	H28	0.268400	0.403000	0.651400
C421	C42	0.461400	0.430590	0.682100
C431	C43	0.595400	0.417120	0.691900
H291	H29	0.663500	0.442800	0.708300
C441	C44	0.627800	0.364760	0.677100
H301	H30	0.718700	0.355400	0.682400
C451	C45	0.472000	0.528090	0.689700
C461	C46	0.434500	0.569270	0.740300
H311	H31	0.384800	0.562200	0.785200
C471	C47	0.469800	0.620690	0.725000
H321	H32	0.444600	0.648300	0.759900
C481	C48	0.542700	0.631900	0.658300
C491	C49	0.582700	0.589610	0.609400
H331	H33	0.635700	0.596200	0.566300
C501	C50	0.544500	0.537880	0.624200
H341	H34	0.568400	0.509900	0.589400
C511	C51	0.582400	0.687460	0.636700
C521	C52	0.514700	0.781300	0.654500
C531	C53	0.432700	0.813400	0.694400
H351	H35	0.371600	0.798000	0.725700
C541	C54	0.440400	0.867560	0.688300
H361	H36	0.381100	0.887900	0.714300
C551	C55	0.604800	0.861800	0.610300
H371	H37	0.667200	0.878000	0.581100
C561	C56	0.600900	0.806900	0.611100
H381	H38	0.657700	0.787400	0.581700
C571	C57	0.277900	0.998570	0.477100
C581	C58	0.134000	0.999640	0.489000
C591	C59	0.033100	0.026240	0.425600
H391	H39	0.055100	0.044100	0.375500
C601	C60	0.900400	0.026550	0.435700
H401	H40	0.833400	0.044300	0.392200
C611	C61	0.615900	0.995110	0.071200
H411	H41	0.693800	0.991700	0.119000
C621	C62	0.624500	0.988980	0.979300
H421	H42	0.708200	0.981700	0.965200
C631	C63	0.508000	0.993720	0.907700
C641	C64	0.515500	0.986430	0.808000
N51	N5	0.518400	0.064130	0.642400
N61	N6	0.479800	0.230800	0.648700
H431	H43	0.400100	0.241500	0.652600
N71	N7	0.499500	0.726110	0.660000
H441	H44	0.430500	0.715100	0.680200
N81	N8	0.526500	0.893060	0.648100
O81	O8	0.688000	0.259670	0.637800
O91	O9	0.416800	0.479440	0.706000
O101	O10	0.676100	0.696690	0.601700
O111	O11	0.301300	0.023760	0.407830
O121	O12	0.363500	0.972560	0.534600
O131	O13	0.630200	0.982720	0.788010
O141	O14	0.407100	0.983810	0.746350
Co31	Co3	0.027100	0.521230	0.141070
C651	C65	0.899700	0.411060	0.137900
H451	H45	0.822000	0.432000	0.132600
C661	C66	0.885300	0.356730	0.140600
H461	H46	0.800000	0.341700	0.138000
C671	C67	0.998800	0.324320	0.147300
C681	C68	0.124000	0.349450	0.154700
H471	H47	0.203800	0.329600	0.161700
C691	C69	0.127200	0.404280	0.151500
H481	H48	0.211600	0.420600	0.155900
C701	C70	0.073400	0.230260	0.144700
C711	C71	0.028700	0.173980	0.154700
C721	C72	0.893900	0.159230	0.144500
H491	H49	0.825600	0.184800	0.128100
C731	C73	0.859200	0.106810	0.158200
H501	H50	0.768400	0.097000	0.151400
C741	C74	0.961400	0.069410	0.182100
C751	C75	0.095400	0.082880	0.191900
H511	H51	0.163500	0.057200	0.208300
C761	C76	0.127800	0.135240	0.177100
H521	H52	0.218700	0.144600	0.182400
C771	C77	0.972000	0.971910	0.189700
C781	C78	0.934500	0.930730	0.240300
H531	H53	0.884800	0.937800	0.285200
C791	C79	0.969800	0.879310	0.225000
H541	H54	0.944600	0.851700	0.259900
C801	C80	0.042700	0.868100	0.158300
C811	C81	0.082700	0.910390	0.109400
H551	H55	0.135700	0.903800	0.066300
C821	C82	0.044500	0.962120	0.124200
H561	H56	0.068400	0.990100	0.089400
C831	C83	0.082400	0.812540	0.136700
C841	C84	0.014700	0.718700	0.154500
C851	C85	0.932700	0.686600	0.194400
H571	H57	0.871600	0.702000	0.225700
C861	C86	0.940400	0.632440	0.188300
H581	H58	0.881100	0.612100	0.214300
C871	C87	0.104800	0.638200	0.110300
H591	H59	0.167200	0.622000	0.081100
C881	C88	0.100900	0.693100	0.111100
H601	H60	0.157700	0.712600	0.081700
C891	C89	0.777900	0.501430	0.977100
C901	C90	0.634000	0.500360	0.989000
C911	C91	0.533100	0.473760	0.925600
H611	H61	0.555100	0.455900	0.875500
C921	C92	0.400400	0.473450	0.935700
H621	H62	0.333400	0.455700	0.892200
C931	C93	0.115900	0.504890	0.571200
H631	H63	0.193800	0.508300	0.619000
C941	C94	0.124500	0.511020	0.479300
H641	H64	0.208200	0.518300	0.465200
C951	C95	0.008000	0.506280	0.407700
C961	C96	0.015500	0.513570	0.308000
N91	N9	0.018400	0.435870	0.142400
N101	N10	0.979800	0.269200	0.148700
H651	H65	0.900100	0.258500	0.152600
N111	N11	0.999500	0.773890	0.160000
H661	H66	0.930500	0.784900	0.180200
N121	N12	0.026500	0.606940	0.148100
O151	O15	0.188000	0.240330	0.137800
O161	O16	0.916800	0.020560	0.206000
O171	O17	0.176100	0.803310	0.101700
O181	O18	0.801300	0.476240	0.907830
O191	O19	0.863500	0.527440	0.034600
O201	O20	0.130200	0.517280	0.288010
O211	O21	0.907100	0.516190	0.246350
Co41	Co4	0.972900	0.478770	0.858930
C971	C97	0.100300	0.588940	0.862100
H671	H67	0.178000	0.568000	0.867400
C981	C98	0.114700	0.643270	0.859400
H681	H68	0.200000	0.658300	0.862000
C991	C99	0.001200	0.675680	0.852700
C1001	C100	0.876000	0.650550	0.845300
H691	H69	0.796200	0.670400	0.838300
C1011	C101	0.872800	0.595720	0.848500
H701	H70	0.788400	0.579400	0.844100
C1021	C102	0.926600	0.769740	0.855300
C1031	C103	0.971300	0.826020	0.845300
C1041	C104	0.106100	0.840770	0.855500
H711	H71	0.174400	0.815200	0.871900
C1051	C105	0.140800	0.893190	0.841800
H721	H72	0.231600	0.903000	0.848600
C1061	C106	0.038600	0.930590	0.817900
C1071	C107	0.904600	0.917120	0.808100
H731	H73	0.836500	0.942800	0.791700
C1081	C108	0.872200	0.864760	0.822900
H741	H74	0.781300	0.855400	0.817600
C1091	C109	0.028000	0.028090	0.810300
C1101	C110	0.065500	0.069270	0.759700
H751	H75	0.115200	0.062200	0.714800
C1111	C111	0.030200	0.120690	0.775000
H761	H76	0.055400	0.148300	0.740100
C1121	C112	0.957300	0.131900	0.841700
C1131	C113	0.917300	0.089610	0.890600
H771	H77	0.864300	0.096200	0.933700
C1141	C114	0.955500	0.037880	0.875800
H781	H78	0.931600	0.009900	0.910600
C1151	C115	0.917600	0.187460	0.863300
C1161	C116	0.985300	0.281300	0.845500
C1171	C117	0.067300	0.313400	0.805600
H791	H79	0.128400	0.298000	0.774300
C1181	C118	0.059600	0.367560	0.811700
H801	H80	0.118900	0.387900	0.785700
C1191	C119	0.895200	0.361800	0.889700
H811	H81	0.832800	0.378000	0.918900
C1201	C120	0.899100	0.306900	0.888900
H821	H82	0.842300	0.287400	0.918300
C1211	C121	0.222100	0.498570	0.022900
C1221	C122	0.366000	0.499640	0.011000
C1231	C123	0.466900	0.526240	0.074400
H831	H83	0.444900	0.544100	0.124500
C1241	C124	0.599600	0.526550	0.064300
H841	H84	0.666600	0.544300	0.107800
C1251	C125	0.884100	0.495110	0.428800
H851	H85	0.806200	0.491700	0.381000
C1261	C126	0.875500	0.488980	0.520700
H861	H86	0.791800	0.481700	0.534800
C1271	C127	0.992000	0.493720	0.592300
C1281	C128	0.984500	0.486430	0.692000
N131	N13	0.981600	0.564130	0.857600
N141	N14	0.020200	0.730800	0.851300
H871	H87	0.099900	0.741500	0.847400
N151	N15	0.000500	0.226110	0.840000
H881	H88	0.069500	0.215100	0.819800
N161	N16	0.973500	0.393060	0.851900
O221	O22	0.812000	0.759670	0.862200
O231	O23	0.083200	0.979440	0.794000
O241	O24	0.823900	0.196690	0.898300
O251	O25	0.198700	0.523760	0.092170
O261	O26	0.136500	0.472560	0.965400
O271	O27	0.869800	0.482720	0.711990
O281	O28	0.092900	0.483810	0.753650
