data_ARUDAU_freeONLY_PM
_symmetry_space_group_name_H-M	'P1'
_cell_length_a	10.119000
_cell_length_b	13.671000
_cell_length_c	15.009000
_cell_angle_alpha	111.271000
_cell_angle_beta	101.926000
_cell_angle_gamma	99.461000
_symmetry_Int_Tables_number 1

loop_
_symmetry_equiv_pos_as_xyz
'x,y,z'

loop_
_atom_site_label
_atom_site_type_symbol
_atom_site_fract_x
_atom_site_fract_y
_atom_site_fract_z
Co11	Co1	0.530410	0.511560	0.150170
C11	C1	0.749300	0.734800	0.265000
H11	H1	0.812100	0.692700	0.251400
C21	C2	0.803900	0.845600	0.322000
H21	H2	0.900000	0.876600	0.345800
C31	C3	0.710600	0.908800	0.342400
C41	C4	0.567700	0.857700	0.303600
H31	H3	0.502200	0.897700	0.314800
C51	C5	0.525600	0.746700	0.248400
H41	H4	0.430000	0.713400	0.223800
C61	C6	0.877300	0.091200	0.426400
C71	C7	0.891400	0.202900	0.501500
C81	C8	0.974100	0.292400	0.498300
H51	H5	0.021800	0.282100	0.450300
C91	C9	0.986400	0.396000	0.565000
H61	H6	0.040900	0.455700	0.561800
C101	C10	0.917300	0.410600	0.636600
C111	C11	0.838000	0.322700	0.641800
H71	H7	0.792800	0.333300	0.691300
C121	C12	0.824400	0.219400	0.574900
H81	H8	0.769800	0.160300	0.578900
C131	C13	0.002600	0.608400	0.731000
C141	C14	0.145300	0.622700	0.746500
H91	H9	0.183200	0.563200	0.731600
C151	C15	0.230000	0.726700	0.784300
H101	H10	0.325500	0.737200	0.792100
C161	C16	0.175000	0.816600	0.811200
C171	C17	0.032200	0.799900	0.795400
H111	H11	0.994500	0.859500	0.812600
C181	C18	0.944700	0.696600	0.754700
H121	H12	0.848500	0.685900	0.743200
C191	C19	0.274000	0.926800	0.854500
C201	C20	0.309300	0.115200	0.975000
C211	C21	0.415500	0.165900	0.950700
H131	H13	0.447200	0.125600	0.898800
C221	C22	0.474900	0.273900	0.001600
H141	H14	0.548500	0.304600	0.983700
C231	C23	0.332000	0.289900	0.097300
H151	H15	0.300000	0.332700	0.147900
C241	C24	0.268500	0.181300	0.051900
H161	H16	0.197700	0.151900	0.072900
C251	C25	0.516700	0.507900	0.313100
C261	C26	0.509400	0.504100	0.410400
C271	C27	0.615000	0.482400	0.467700
H171	H17	0.692800	0.470100	0.446000
C281	C28	0.607100	0.478700	0.556500
H181	H18	0.680000	0.464600	0.594900
C291	C29	0.891800	0.488100	0.919600
H191	H19	0.819800	0.479400	0.865400
C301	C30	0.026100	0.491300	0.911300
H201	H20	0.043200	0.486100	0.851500
C311	C31	0.135400	0.502200	0.989900
C321	C32	0.279900	0.510200	0.981500
N11	N1	0.612300	0.684200	0.228100
N21	N2	0.750100	0.020600	0.401400
N31	N3	0.238000	0.005600	0.926500
N41	N4	0.435800	0.339000	0.074900
O11	O1	0.970900	0.067100	0.390400
O21	O2	0.908800	0.508600	0.701600
O31	O3	0.380000	0.943400	0.829900
O41	O4	0.623600	0.495500	0.285500
O51	O5	0.415200	0.524400	0.261200
O61	O6	0.377400	0.536500	0.058800
O71	O7	0.295500	0.493700	0.896400
Co21	Co2	0.469590	0.488440	0.849830
C331	C33	0.250700	0.265200	0.735000
H211	H21	0.187900	0.307300	0.748600
C341	C34	0.196100	0.154400	0.678000
H221	H22	0.100000	0.123400	0.654200
C351	C35	0.289400	0.091200	0.657600
C361	C36	0.432300	0.142300	0.696400
H231	H23	0.497800	0.102300	0.685200
C371	C37	0.474400	0.253300	0.751600
H241	H24	0.570000	0.286600	0.776200
C381	C38	0.122700	0.908800	0.573600
C391	C39	0.108600	0.797100	0.498500
C401	C40	0.025900	0.707600	0.501700
H251	H25	0.978200	0.717900	0.549700
C411	C41	0.013600	0.604000	0.435000
H261	H26	0.959100	0.544300	0.438200
C421	C42	0.082700	0.589400	0.363400
C431	C43	0.162000	0.677300	0.358200
H271	H27	0.207200	0.666700	0.308700
C441	C44	0.175600	0.780600	0.425100
H281	H28	0.230200	0.839700	0.421100
C451	C45	0.997400	0.391600	0.269000
C461	C46	0.854700	0.377300	0.253500
H291	H29	0.816800	0.436800	0.268400
C471	C47	0.770000	0.273300	0.215700
H301	H30	0.674500	0.262800	0.207900
C481	C48	0.825000	0.183400	0.188800
C491	C49	0.967800	0.200100	0.204600
H311	H31	0.005500	0.140500	0.187400
C501	C50	0.055300	0.303400	0.245300
H321	H32	0.151500	0.314100	0.256800
C511	C51	0.726000	0.073200	0.145500
C521	C52	0.690700	0.884800	0.025000
C531	C53	0.584500	0.834100	0.049300
H331	H33	0.552800	0.874400	0.101200
C541	C54	0.525100	0.726100	0.998400
H341	H34	0.451500	0.695400	0.016300
C551	C55	0.668000	0.710100	0.902700
H351	H35	0.700000	0.667300	0.852100
C561	C56	0.731500	0.818700	0.948100
H361	H36	0.802300	0.848100	0.927100
C571	C57	0.483300	0.492100	0.686900
C581	C58	0.490600	0.495900	0.589600
C591	C59	0.385000	0.517600	0.532300
H371	H37	0.307200	0.529900	0.554000
C601	C60	0.392900	0.521300	0.443500
H381	H38	0.320000	0.535400	0.405100
C611	C61	0.108200	0.511900	0.080400
H391	H39	0.180200	0.520600	0.134600
C621	C62	0.973900	0.508700	0.088700
H401	H40	0.956800	0.513900	0.148500
C631	C63	0.864600	0.497800	0.010100
C641	C64	0.720100	0.489800	0.018500
N51	N5	0.387700	0.315800	0.771900
N61	N6	0.249900	0.979400	0.598600
N71	N7	0.762000	0.994400	0.073500
N81	N8	0.564200	0.661000	0.925100
O81	O8	0.029100	0.932900	0.609600
O91	O9	0.091200	0.491400	0.298400
O101	O10	0.620000	0.056600	0.170100
O111	O11	0.376400	0.504500	0.714500
O121	O12	0.584800	0.475600	0.738800
O131	O13	0.622600	0.463500	0.941200
O141	O14	0.704500	0.506300	0.103600
