data_ARUYOB_freeONLY_PM
_symmetry_space_group_name_H-M	'P1'
_cell_length_a	9.546700
_cell_length_b	26.405000
_cell_length_c	7.994600
_cell_angle_alpha	90.000000
_cell_angle_beta	99.472000
_cell_angle_gamma	90.000000
_symmetry_Int_Tables_number 1

loop_
_symmetry_equiv_pos_as_xyz
'x,y,z'

loop_
_atom_site_label
_atom_site_type_symbol
_atom_site_fract_x
_atom_site_fract_y
_atom_site_fract_z
Zn11	Zn1	0.604960	0.568470	0.492350
Zn21	Zn2	0.367620	0.763800	0.251710
Zn31	Zn3	0.175040	0.555870	0.987870
P11	P1	0.421500	0.520270	0.756790
H11	H1	0.543000	0.527700	0.873000
P21	P2	0.545980	0.687810	0.485450
H21	H2	0.654000	0.696000	0.573000
P31	P3	0.204890	0.676830	0.022400
H31	H3	0.074000	0.685000	0.942000
P41	P4	0.877250	0.529310	0.743440
H41	H4	0.967000	0.509000	0.656000
O11	O1	0.439600	0.548410	0.595000
O21	O2	0.385400	0.465610	0.722000
O31	O3	0.552100	0.636430	0.403600
O41	O4	0.540700	0.730460	0.359400
O51	O5	0.422400	0.690050	0.584000
O61	O6	0.225100	0.714890	0.165500
O71	O7	0.302300	0.685190	0.894300
O81	O8	0.219300	0.623100	0.089200
O91	O9	0.323300	0.547210	0.852000
O101	O10	0.985800	0.555940	0.870600
O111	O11	0.776600	0.567690	0.650100
O121	O12	0.801200	0.486840	0.814700
Zn41	Zn4	0.395040	0.068470	0.007650
Zn51	Zn5	0.632380	0.263800	0.248290
Zn61	Zn6	0.824960	0.055870	0.512130
P51	P5	0.578500	0.020270	0.743210
H51	H5	0.457000	0.027700	0.627000
P61	P6	0.454020	0.187810	0.014550
H61	H6	0.346000	0.196000	0.927000
P71	P7	0.795110	0.176830	0.477600
H71	H7	0.926000	0.185000	0.558000
P81	P8	0.122750	0.029310	0.756560
H81	H8	0.033000	0.009000	0.844000
O131	O13	0.560400	0.048410	0.905000
O141	O14	0.614600	0.965610	0.778000
O151	O15	0.447900	0.136430	0.096400
O161	O16	0.459300	0.230460	0.140600
O171	O17	0.577600	0.190050	0.916000
O181	O18	0.774900	0.214890	0.334500
O191	O19	0.697700	0.185190	0.605700
O201	O20	0.780700	0.123100	0.410800
O211	O21	0.676700	0.047210	0.648000
O221	O22	0.014200	0.055940	0.629400
O231	O23	0.223400	0.067690	0.849900
O241	O24	0.198800	0.986840	0.685300
Zn71	Zn7	0.395040	0.431530	0.507650
Zn81	Zn8	0.632380	0.236200	0.748290
Zn91	Zn9	0.824960	0.444130	0.012130
P91	P9	0.578500	0.479730	0.243210
H91	H9	0.457000	0.472300	0.127000
P101	P10	0.454020	0.312190	0.514550
H101	H10	0.346000	0.304000	0.427000
P111	P11	0.795110	0.323170	0.977600
H111	H11	0.926000	0.315000	0.058000
P121	P12	0.122750	0.470690	0.256560
H121	H12	0.033000	0.491000	0.344000
O251	O25	0.560400	0.451590	0.405000
O261	O26	0.614600	0.534390	0.278000
O271	O27	0.447900	0.363570	0.596400
O281	O28	0.459300	0.269540	0.640600
O291	O29	0.577600	0.309950	0.416000
O301	O30	0.774900	0.285110	0.834500
O311	O31	0.697700	0.314810	0.105700
O321	O32	0.780700	0.376900	0.910800
O331	O33	0.676700	0.452790	0.148000
O341	O34	0.014200	0.444060	0.129400
O351	O35	0.223400	0.432310	0.349900
O361	O36	0.198800	0.513160	0.185300
Zn101	Zn10	0.604960	0.931530	0.992350
Zn111	Zn11	0.367620	0.736200	0.751710
Zn121	Zn12	0.175040	0.944130	0.487870
P131	P13	0.421500	0.979730	0.256790
H131	H13	0.543000	0.972300	0.373000
P141	P14	0.545980	0.812190	0.985450
H141	H14	0.654000	0.804000	0.073000
P151	P15	0.204890	0.823170	0.522400
H151	H15	0.074000	0.815000	0.442000
P161	P16	0.877250	0.970690	0.243440
H161	H16	0.967000	0.991000	0.156000
O371	O37	0.439600	0.951590	0.095000
O381	O38	0.385400	0.034390	0.222000
O391	O39	0.552100	0.863570	0.903600
O401	O40	0.540700	0.769540	0.859400
O411	O41	0.422400	0.809950	0.084000
O421	O42	0.225100	0.785110	0.665500
O431	O43	0.302300	0.814810	0.394300
O441	O44	0.219300	0.876900	0.589200
O451	O45	0.323300	0.952790	0.352000
O461	O46	0.985800	0.944060	0.370600
O471	O47	0.776600	0.932310	0.150100
O481	O48	0.801200	0.013160	0.314700
