data_ARUYUH01_freeONLY_PM
_symmetry_space_group_name_H-M	'P1'
_cell_length_a	9.819000
_cell_length_b	23.326500
_cell_length_c	8.934200
_cell_angle_alpha	90.000000
_cell_angle_beta	90.000000
_cell_angle_gamma	90.000000
_symmetry_Int_Tables_number 1

loop_
_symmetry_equiv_pos_as_xyz
'x,y,z'

loop_
_atom_site_label
_atom_site_type_symbol
_atom_site_fract_x
_atom_site_fract_y
_atom_site_fract_z
Zn11	Zn1	0.559490	0.046960	0.718890
P11	P1	0.575100	0.184280	0.763500
H11	H1	0.494800	0.202600	0.719300
P21	P2	0.287450	0.002850	0.562700
H21	H2	0.291500	0.038600	0.505200
O11	O1	0.534500	0.122900	0.796500
O21	O2	0.387200	0.008700	0.691000
O31	O3	0.325900	0.954900	0.457300
O41	O4	0.142300	0.996400	0.617900
O51	O5	0.603800	0.215800	0.906900
O61	O6	0.686500	0.187700	0.646600
Zn21	Zn2	0.940510	0.453040	0.718890
P31	P3	0.924900	0.315720	0.763500
H31	H3	0.005200	0.297400	0.719300
P41	P4	0.212550	0.497150	0.562700
H41	H4	0.208500	0.461400	0.505200
O71	O7	0.965500	0.377100	0.796500
O81	O8	0.112800	0.491300	0.691000
O91	O9	0.174100	0.545100	0.457300
O101	O10	0.357700	0.503600	0.617900
O111	O11	0.896200	0.284200	0.906900
O121	O12	0.813500	0.312300	0.646600
Zn31	Zn3	0.440510	0.546960	0.781110
P51	P5	0.424900	0.684280	0.736500
H51	H5	0.505200	0.702600	0.780700
P61	P6	0.712550	0.502850	0.937300
H61	H6	0.708500	0.538600	0.994800
O131	O13	0.465500	0.622900	0.703500
O141	O14	0.612800	0.508700	0.809000
O151	O15	0.674100	0.454900	0.042700
O161	O16	0.857700	0.496400	0.882100
O171	O17	0.396200	0.715800	0.593100
O181	O18	0.313500	0.687700	0.853400
Zn41	Zn4	0.059490	0.953040	0.781110
P71	P7	0.075100	0.815720	0.736500
H71	H7	0.994800	0.797400	0.780700
P81	P8	0.787450	0.997150	0.937300
H81	H8	0.791500	0.961400	0.994800
O191	O19	0.034500	0.877100	0.703500
O201	O20	0.887200	0.991300	0.809000
O211	O21	0.825900	0.045100	0.042700
O221	O22	0.642300	0.003600	0.882100
O231	O23	0.103800	0.784200	0.593100
O241	O24	0.186500	0.812300	0.853400
Zn51	Zn5	0.440510	0.953040	0.281110
P91	P9	0.424900	0.815720	0.236500
H91	H9	0.505200	0.797400	0.280700
P101	P10	0.712550	0.997150	0.437300
H101	H10	0.708500	0.961400	0.494800
O251	O25	0.465500	0.877100	0.203500
O261	O26	0.612800	0.991300	0.309000
O271	O27	0.674100	0.045100	0.542700
O281	O28	0.857700	0.003600	0.382100
O291	O29	0.396200	0.784200	0.093100
O301	O30	0.313500	0.812300	0.353400
Zn61	Zn6	0.059490	0.546960	0.281110
P111	P11	0.075100	0.684280	0.236500
H111	H11	0.994800	0.702600	0.280700
P121	P12	0.787450	0.502850	0.437300
H121	H12	0.791500	0.538600	0.494800
O311	O31	0.034500	0.622900	0.203500
O321	O32	0.887200	0.508700	0.309000
O331	O33	0.825900	0.454900	0.542700
O341	O34	0.642300	0.496400	0.382100
O351	O35	0.103800	0.715800	0.093100
O361	O36	0.186500	0.687700	0.353400
Zn71	Zn7	0.559490	0.453040	0.218890
P131	P13	0.575100	0.315720	0.263500
H131	H13	0.494800	0.297400	0.219300
P141	P14	0.287450	0.497150	0.062700
H141	H14	0.291500	0.461400	0.005200
O371	O37	0.534500	0.377100	0.296500
O381	O38	0.387200	0.491300	0.191000
O391	O39	0.325900	0.545100	0.957300
O401	O40	0.142300	0.503600	0.117900
O411	O41	0.603800	0.284200	0.406900
O421	O42	0.686500	0.312300	0.146600
Zn81	Zn8	0.940510	0.046960	0.218890
P151	P15	0.924900	0.184280	0.263500
H151	H15	0.005200	0.202600	0.219300
P161	P16	0.212550	0.002850	0.062700
H161	H16	0.208500	0.038600	0.005200
O431	O43	0.965500	0.122900	0.296500
O441	O44	0.112800	0.008700	0.191000
O451	O45	0.174100	0.954900	0.957300
O461	O46	0.357700	0.996400	0.117900
O471	O47	0.896200	0.215800	0.406900
O481	O48	0.813500	0.187700	0.146600
Zn91	Zn9	0.750000	0.250000	0.018250
Zn101	Zn10	0.250000	0.750000	0.481750
Zn111	Zn11	0.250000	0.750000	0.981750
Zn121	Zn12	0.750000	0.250000	0.518250
