data_ASEJOZ01_freeONLY_PM
_symmetry_space_group_name_H-M	'P1'
_cell_length_a	12.868800
_cell_length_b	18.092500
_cell_length_c	14.519000
_cell_angle_alpha	90.000000
_cell_angle_beta	116.053000
_cell_angle_gamma	90.000000
_symmetry_Int_Tables_number 1

loop_
_symmetry_equiv_pos_as_xyz
'x,y,z'

loop_
_atom_site_label
_atom_site_type_symbol
_atom_site_fract_x
_atom_site_fract_y
_atom_site_fract_z
Cd11	Cd1	0.109400	0.271230	0.557180
O11	O1	0.126000	0.319810	0.420200
O21	O2	0.370230	0.635440	0.462040
N11	N1	0.716600	0.605640	0.332300
N21	N2	0.693200	0.535770	0.309800
O31	O3	0.922200	0.261960	0.458000
H11	H1	0.880900	0.226300	0.458900
H21	H2	0.879900	0.289200	0.408800
N31	N3	0.830100	0.616230	0.359800
O41	O4	0.301400	0.361710	0.451800
O51	O5	0.514600	0.583500	0.380000
H31	H3	0.579900	0.597600	0.421400
H41	H4	0.465600	0.590000	0.402600
N41	N4	0.789200	0.498710	0.322000
C11	C1	0.993800	0.535700	0.375100
C21	C2	0.871700	0.549600	0.352200
C31	C3	0.151900	0.449400	0.412000
C41	C4	0.183700	0.580900	0.407300
C51	C5	0.036500	0.463300	0.388900
H51	H5	0.987300	0.423900	0.382600
C61	C6	0.067100	0.593900	0.382400
H61	H6	0.038600	0.642000	0.370600
C71	C7	0.261300	0.645100	0.418000
C81	C8	0.196200	0.371000	0.429100
C91	C9	0.225200	0.508500	0.422200
H71	H7	0.302700	0.499700	0.439000
O61	O6	0.076300	0.237030	0.693920
H81	H8	0.115800	0.254600	0.751900
H91	H9	0.054900	0.194500	0.696200
O71	O7	0.517000	0.408200	0.156700
H101	H10	0.549600	0.422100	0.116700
H111	H11	0.447700	0.390300	0.115800
O81	O8	0.218400	0.707500	0.385530
Cd21	Cd2	0.609400	0.771230	0.057180
O91	O9	0.626000	0.819810	0.920200
O101	O10	0.870230	0.135440	0.962040
N51	N5	0.216600	0.105640	0.832300
N61	N6	0.193200	0.035770	0.809800
O111	O11	0.422200	0.761960	0.958000
H121	H12	0.380900	0.726300	0.958900
H131	H13	0.379900	0.789200	0.908800
N71	N7	0.330100	0.116230	0.859800
O121	O12	0.801400	0.861710	0.951800
O131	O13	0.014600	0.083500	0.880000
H141	H14	0.079900	0.097600	0.921400
H151	H15	0.965600	0.090000	0.902600
N81	N8	0.289200	0.998710	0.822000
C101	C10	0.493800	0.035700	0.875100
C111	C11	0.371700	0.049600	0.852200
C121	C12	0.651900	0.949400	0.912000
C131	C13	0.683700	0.080900	0.907300
C141	C14	0.536500	0.963300	0.888900
H161	H16	0.487300	0.923900	0.882600
C151	C15	0.567100	0.093900	0.882400
H171	H17	0.538600	0.142000	0.870600
C161	C16	0.761300	0.145100	0.918000
C171	C17	0.696200	0.871000	0.929100
C181	C18	0.725200	0.008500	0.922200
H181	H18	0.802700	0.999700	0.939000
O141	O14	0.576300	0.737030	0.193920
H191	H19	0.615800	0.754600	0.251900
H201	H20	0.554900	0.694500	0.196200
O151	O15	0.017000	0.908200	0.656700
H211	H21	0.049600	0.922100	0.616700
H221	H22	0.947700	0.890300	0.615800
O161	O16	0.718400	0.207500	0.885530
Cd31	Cd3	0.890600	0.271230	0.942820
O171	O17	0.874000	0.319810	0.079800
O181	O18	0.629770	0.635440	0.037960
N91	N9	0.283400	0.605640	0.167700
N101	N10	0.306800	0.535770	0.190200
O191	O19	0.077800	0.261960	0.042000
H231	H23	0.119100	0.226300	0.041100
H241	H24	0.120100	0.289200	0.091200
N111	N11	0.169900	0.616230	0.140200
O201	O20	0.698600	0.361710	0.048200
O211	O21	0.485400	0.583500	0.120000
H251	H25	0.420100	0.597600	0.078600
H261	H26	0.534400	0.590000	0.097400
N121	N12	0.210800	0.498710	0.178000
C191	C19	0.006200	0.535700	0.124900
C201	C20	0.128300	0.549600	0.147800
C211	C21	0.848100	0.449400	0.088000
C221	C22	0.816300	0.580900	0.092700
C231	C23	0.963500	0.463300	0.111100
H271	H27	0.012700	0.423900	0.117400
C241	C24	0.932900	0.593900	0.117600
H281	H28	0.961400	0.642000	0.129400
C251	C25	0.738700	0.645100	0.082000
C261	C26	0.803800	0.371000	0.070900
C271	C27	0.774800	0.508500	0.077800
H291	H29	0.697300	0.499700	0.061000
O221	O22	0.923700	0.237030	0.806080
H301	H30	0.884200	0.254600	0.748100
H311	H31	0.945100	0.194500	0.803800
O231	O23	0.483000	0.408200	0.343300
H321	H32	0.450400	0.422100	0.383300
H331	H33	0.552300	0.390300	0.384200
O241	O24	0.781600	0.707500	0.114470
Cd41	Cd4	0.390600	0.771230	0.442820
O251	O25	0.374000	0.819810	0.579800
O261	O26	0.129770	0.135440	0.537960
N131	N13	0.783400	0.105640	0.667700
N141	N14	0.806800	0.035770	0.690200
O271	O27	0.577800	0.761960	0.542000
H341	H34	0.619100	0.726300	0.541100
H351	H35	0.620100	0.789200	0.591200
N151	N15	0.669900	0.116230	0.640200
O281	O28	0.198600	0.861710	0.548200
O291	O29	0.985400	0.083500	0.620000
H361	H36	0.920100	0.097600	0.578600
H371	H37	0.034400	0.090000	0.597400
N161	N16	0.710800	0.998710	0.678000
C281	C28	0.506200	0.035700	0.624900
C291	C29	0.628300	0.049600	0.647800
C301	C30	0.348100	0.949400	0.588000
C311	C31	0.316300	0.080900	0.592700
C321	C32	0.463500	0.963300	0.611100
H381	H38	0.512700	0.923900	0.617400
C331	C33	0.432900	0.093900	0.617600
H391	H39	0.461400	0.142000	0.629400
C341	C34	0.238700	0.145100	0.582000
C351	C35	0.303800	0.871000	0.570900
C361	C36	0.274800	0.008500	0.577800
H401	H40	0.197300	0.999700	0.561000
O301	O30	0.423700	0.737030	0.306080
H411	H41	0.384200	0.754600	0.248100
H421	H42	0.445100	0.694500	0.303800
O311	O31	0.983000	0.908200	0.843300
H431	H43	0.950400	0.922100	0.883300
H441	H44	0.052300	0.890300	0.884200
O321	O32	0.281600	0.207500	0.614470
Cd51	Cd5	0.890600	0.728770	0.442820
O331	O33	0.874000	0.680190	0.579800
O341	O34	0.629770	0.364560	0.537960
N171	N17	0.283400	0.394360	0.667700
N181	N18	0.306800	0.464230	0.690200
O351	O35	0.077800	0.738040	0.542000
H451	H45	0.119100	0.773700	0.541100
H461	H46	0.120100	0.710800	0.591200
N191	N19	0.169900	0.383770	0.640200
O361	O36	0.698600	0.638290	0.548200
O371	O37	0.485400	0.416500	0.620000
H471	H47	0.420100	0.402400	0.578600
H481	H48	0.534400	0.410000	0.597400
N201	N20	0.210800	0.501290	0.678000
C371	C37	0.006200	0.464300	0.624900
C381	C38	0.128300	0.450400	0.647800
C391	C39	0.848100	0.550600	0.588000
C401	C40	0.816300	0.419100	0.592700
C411	C41	0.963500	0.536700	0.611100
H491	H49	0.012700	0.576100	0.617400
C421	C42	0.932900	0.406100	0.617600
H501	H50	0.961400	0.358000	0.629400
C431	C43	0.738700	0.354900	0.582000
C441	C44	0.803800	0.629000	0.570900
C451	C45	0.774800	0.491500	0.577800
H511	H51	0.697300	0.500300	0.561000
O381	O38	0.923700	0.762970	0.306080
H521	H52	0.884200	0.745400	0.248100
H531	H53	0.945100	0.805500	0.303800
O391	O39	0.483000	0.591800	0.843300
H541	H54	0.450400	0.577900	0.883300
H551	H55	0.552300	0.609700	0.884200
O401	O40	0.781600	0.292500	0.614470
Cd61	Cd6	0.390600	0.228770	0.942820
O411	O41	0.374000	0.180190	0.079800
O421	O42	0.129770	0.864560	0.037960
N211	N21	0.783400	0.894360	0.167700
N221	N22	0.806800	0.964230	0.190200
O431	O43	0.577800	0.238040	0.042000
H561	H56	0.619100	0.273700	0.041100
H571	H57	0.620100	0.210800	0.091200
N231	N23	0.669900	0.883770	0.140200
O441	O44	0.198600	0.138290	0.048200
O451	O45	0.985400	0.916500	0.120000
H581	H58	0.920100	0.902400	0.078600
H591	H59	0.034400	0.910000	0.097400
N241	N24	0.710800	0.001290	0.178000
C461	C46	0.506200	0.964300	0.124900
C471	C47	0.628300	0.950400	0.147800
C481	C48	0.348100	0.050600	0.088000
C491	C49	0.316300	0.919100	0.092700
C501	C50	0.463500	0.036700	0.111100
H601	H60	0.512700	0.076100	0.117400
C511	C51	0.432900	0.906100	0.117600
H611	H61	0.461400	0.858000	0.129400
C521	C52	0.238700	0.854900	0.082000
C531	C53	0.303800	0.129000	0.070900
C541	C54	0.274800	0.991500	0.077800
H621	H62	0.197300	0.000300	0.061000
O461	O46	0.423700	0.262970	0.806080
H631	H63	0.384200	0.245400	0.748100
H641	H64	0.445100	0.305500	0.803800
O471	O47	0.983000	0.091800	0.343300
H651	H65	0.950400	0.077900	0.383300
H661	H66	0.052300	0.109700	0.384200
O481	O48	0.281600	0.792500	0.114470
Cd71	Cd7	0.109400	0.728770	0.057180
O491	O49	0.126000	0.680190	0.920200
O501	O50	0.370230	0.364560	0.962040
N251	N25	0.716600	0.394360	0.832300
N261	N26	0.693200	0.464230	0.809800
O511	O51	0.922200	0.738040	0.958000
H671	H67	0.880900	0.773700	0.958900
H681	H68	0.879900	0.710800	0.908800
N271	N27	0.830100	0.383770	0.859800
O521	O52	0.301400	0.638290	0.951800
O531	O53	0.514600	0.416500	0.880000
H691	H69	0.579900	0.402400	0.921400
H701	H70	0.465600	0.410000	0.902600
N281	N28	0.789200	0.501290	0.822000
C551	C55	0.993800	0.464300	0.875100
C561	C56	0.871700	0.450400	0.852200
C571	C57	0.151900	0.550600	0.912000
C581	C58	0.183700	0.419100	0.907300
C591	C59	0.036500	0.536700	0.888900
H711	H71	0.987300	0.576100	0.882600
C601	C60	0.067100	0.406100	0.882400
H721	H72	0.038600	0.358000	0.870600
C611	C61	0.261300	0.354900	0.918000
C621	C62	0.196200	0.629000	0.929100
C631	C63	0.225200	0.491500	0.922200
H731	H73	0.302700	0.500300	0.939000
O541	O54	0.076300	0.762970	0.193920
H741	H74	0.115800	0.745400	0.251900
H751	H75	0.054900	0.805500	0.196200
O551	O55	0.517000	0.591800	0.656700
H761	H76	0.549600	0.577900	0.616700
H771	H77	0.447700	0.609700	0.615800
O561	O56	0.218400	0.292500	0.885530
Cd81	Cd8	0.609400	0.228770	0.557180
O571	O57	0.626000	0.180190	0.420200
O581	O58	0.870230	0.864560	0.462040
N291	N29	0.216600	0.894360	0.332300
N301	N30	0.193200	0.964230	0.309800
O591	O59	0.422200	0.238040	0.458000
H781	H78	0.380900	0.273700	0.458900
H791	H79	0.379900	0.210800	0.408800
N311	N31	0.330100	0.883770	0.359800
O601	O60	0.801400	0.138290	0.451800
O611	O61	0.014600	0.916500	0.380000
H801	H80	0.079900	0.902400	0.421400
H811	H81	0.965600	0.910000	0.402600
N321	N32	0.289200	0.001290	0.322000
C641	C64	0.493800	0.964300	0.375100
C651	C65	0.371700	0.950400	0.352200
C661	C66	0.651900	0.050600	0.412000
C671	C67	0.683700	0.919100	0.407300
C681	C68	0.536500	0.036700	0.388900
H821	H82	0.487300	0.076100	0.382600
C691	C69	0.567100	0.906100	0.382400
H831	H83	0.538600	0.858000	0.370600
C701	C70	0.761300	0.854900	0.418000
C711	C71	0.696200	0.129000	0.429100
C721	C72	0.725200	0.991500	0.422200
H841	H84	0.802700	0.000300	0.439000
O621	O62	0.576300	0.262970	0.693920
H851	H85	0.615800	0.245400	0.751900
H861	H86	0.554900	0.305500	0.696200
O631	O63	0.017000	0.091800	0.156700
H871	H87	0.049600	0.077900	0.116700
H881	H88	0.947700	0.109700	0.115800
O641	O64	0.718400	0.792500	0.385530
Cd91	Cd9	0.500000	0.503280	0.250000
Cd101	Cd10	0.000000	0.003280	0.750000
Cd111	Cd11	0.500000	0.496720	0.750000
Cd121	Cd12	0.000000	0.996720	0.250000
