data_ASIQIE_freeONLY_PM
_symmetry_space_group_name_H-M	'P1'
_cell_length_a	18.120000
_cell_length_b	18.120000
_cell_length_c	12.905000
_cell_angle_alpha	90.000000
_cell_angle_beta	90.000000
_cell_angle_gamma	90.000000
_symmetry_Int_Tables_number 1

loop_
_symmetry_equiv_pos_as_xyz
'x,y,z'

loop_
_atom_site_label
_atom_site_type_symbol
_atom_site_fract_x
_atom_site_fract_y
_atom_site_fract_z
N11	N1	0.514400	0.010000	0.345700
C11	C1	0.491000	0.006500	0.174800
H11	H1	0.468300	0.998000	0.111300
N21	N2	0.557700	0.042400	0.190500
C21	C2	0.465100	0.986100	0.269200
H21	H2	0.421600	0.960400	0.281200
N31	N3	0.798000	0.107000	0.040000
C31	C3	0.602300	0.076800	0.112300
C41	C4	0.608200	0.150200	0.956200
N41	N4	0.913200	0.066800	0.024800
C51	C5	0.842100	0.047300	0.029700
H31	H3	0.825100	0.998900	0.026600
C61	C6	0.684600	0.145600	0.959000
H41	H4	0.712600	0.167700	0.907200
C71	C7	0.843900	0.166700	0.047000
H51	H5	0.829400	0.215500	0.056300
C81	C8	0.678500	0.071700	0.114600
H61	H6	0.702300	0.044600	0.165800
C91	C9	0.718800	0.108400	0.038100
C101	C10	0.568600	0.043400	0.295300
H71	H7	0.609200	0.065000	0.327300
C111	C11	0.566800	0.115900	0.035800
H81	H8	0.515600	0.119900	0.036400
O11	O1	0.602100	0.217100	0.800500
C121	C12	0.569600	0.192300	0.872700
O21	O2	0.498900	0.202500	0.886500
C131	C13	0.913700	0.142300	0.038200
H91	H9	0.955800	0.171700	0.040700
N51	N5	0.985600	0.490000	0.345700
C141	C14	0.009000	0.493500	0.174800
H101	H10	0.031700	0.502000	0.111300
N61	N6	0.942300	0.457600	0.190500
C151	C15	0.034900	0.513900	0.269200
H111	H11	0.078400	0.539600	0.281200
N71	N7	0.702000	0.393000	0.040000
C161	C16	0.897700	0.423200	0.112300
C171	C17	0.891800	0.349800	0.956200
N81	N8	0.586800	0.433200	0.024800
C181	C18	0.657900	0.452700	0.029700
H121	H12	0.674900	0.501100	0.026600
C191	C19	0.815400	0.354400	0.959000
H131	H13	0.787400	0.332300	0.907200
C201	C20	0.656100	0.333300	0.047000
H141	H14	0.670600	0.284500	0.056300
C211	C21	0.821500	0.428300	0.114600
H151	H15	0.797700	0.455400	0.165800
C221	C22	0.781200	0.391600	0.038100
C231	C23	0.931400	0.456600	0.295300
H161	H16	0.890800	0.435000	0.327300
C241	C24	0.933200	0.384100	0.035800
H171	H17	0.984400	0.380100	0.036400
O31	O3	0.897900	0.282900	0.800500
C251	C25	0.930400	0.307700	0.872700
O41	O4	0.001100	0.297500	0.886500
C261	C26	0.586300	0.357700	0.038200
H181	H18	0.544200	0.328300	0.040700
N91	N9	0.990000	0.014400	0.845700
C271	C27	0.993500	0.991000	0.674800
H191	H19	0.002000	0.968300	0.611300
N101	N10	0.957600	0.057700	0.690500
C281	C28	0.013900	0.965100	0.769200
H201	H20	0.039600	0.921600	0.781200
N111	N11	0.893000	0.298000	0.540000
C291	C29	0.923200	0.102300	0.612300
C301	C30	0.849800	0.108200	0.456200
N121	N12	0.933200	0.413200	0.524800
C311	C31	0.952700	0.342100	0.529700
H211	H21	0.001100	0.325100	0.526600
C321	C32	0.854400	0.184600	0.459000
H221	H22	0.832300	0.212600	0.407200
C331	C33	0.833300	0.343900	0.547000
H231	H23	0.784500	0.329400	0.556300
C341	C34	0.928300	0.178500	0.614600
H241	H24	0.955400	0.202300	0.665800
C351	C35	0.891600	0.218800	0.538100
C361	C36	0.956600	0.068600	0.795300
H251	H25	0.935000	0.109200	0.827300
C371	C37	0.884100	0.066800	0.535800
H261	H26	0.880100	0.015600	0.536400
O51	O5	0.782900	0.102100	0.300500
C381	C38	0.807700	0.069600	0.372700
O61	O6	0.797500	0.998900	0.386500
C391	C39	0.857700	0.413700	0.538200
H271	H27	0.828300	0.455800	0.540700
N131	N13	0.510000	0.485600	0.845700
C401	C40	0.506500	0.509000	0.674800
H281	H28	0.498000	0.531700	0.611300
N141	N14	0.542400	0.442300	0.690500
C411	C41	0.486100	0.534900	0.769200
H291	H29	0.460400	0.578400	0.781200
N151	N15	0.607000	0.202000	0.540000
C421	C42	0.576800	0.397700	0.612300
C431	C43	0.650200	0.391800	0.456200
N161	N16	0.566800	0.086800	0.524800
C441	C44	0.547300	0.157900	0.529700
H301	H30	0.498900	0.174900	0.526600
C451	C45	0.645600	0.315400	0.459000
H311	H31	0.667700	0.287400	0.407200
C461	C46	0.666700	0.156100	0.547000
H321	H32	0.715500	0.170600	0.556300
C471	C47	0.571700	0.321500	0.614600
H331	H33	0.544600	0.297700	0.665800
C481	C48	0.608400	0.281200	0.538100
C491	C49	0.543400	0.431400	0.795300
H341	H34	0.565000	0.390800	0.827300
C501	C50	0.615900	0.433200	0.535800
H351	H35	0.619900	0.484400	0.536400
O71	O7	0.717100	0.397900	0.300500
C511	C51	0.692300	0.430400	0.372700
O81	O8	0.702500	0.501100	0.386500
C521	C52	0.642300	0.086300	0.538200
H361	H36	0.671700	0.044200	0.540700
N171	N17	0.485600	0.990000	0.654300
C531	C53	0.509000	0.993500	0.825200
H371	H37	0.531700	0.002000	0.888700
N181	N18	0.442300	0.957600	0.809500
C541	C54	0.534900	0.013900	0.730800
H381	H38	0.578400	0.039600	0.718800
N191	N19	0.202000	0.893000	0.960000
C551	C55	0.397700	0.923200	0.887700
C561	C56	0.391800	0.849800	0.043800
N201	N20	0.086800	0.933200	0.975200
C571	C57	0.157900	0.952700	0.970300
H391	H39	0.174900	0.001100	0.973400
C581	C58	0.315400	0.854400	0.041000
H401	H40	0.287400	0.832300	0.092800
C591	C59	0.156100	0.833300	0.953000
H411	H41	0.170600	0.784500	0.943700
C601	C60	0.321500	0.928300	0.885400
H421	H42	0.297700	0.955400	0.834200
C611	C61	0.281200	0.891600	0.961900
C621	C62	0.431400	0.956600	0.704700
H431	H43	0.390800	0.935000	0.672700
C631	C63	0.433200	0.884100	0.964200
H441	H44	0.484400	0.880100	0.963600
O91	O9	0.397900	0.782900	0.199500
C641	C64	0.430400	0.807700	0.127300
O101	O10	0.501100	0.797500	0.113500
C651	C65	0.086300	0.857700	0.961800
H451	H45	0.044200	0.828300	0.959300
N211	N21	0.014400	0.510000	0.654300
C661	C66	0.991000	0.506500	0.825200
H461	H46	0.968300	0.498000	0.888700
N221	N22	0.057700	0.542400	0.809500
C671	C67	0.965100	0.486100	0.730800
H471	H47	0.921600	0.460400	0.718800
N231	N23	0.298000	0.607000	0.960000
C681	C68	0.102300	0.576800	0.887700
C691	C69	0.108200	0.650200	0.043800
N241	N24	0.413200	0.566800	0.975200
C701	C70	0.342100	0.547300	0.970300
H481	H48	0.325100	0.498900	0.973400
C711	C71	0.184600	0.645600	0.041000
H491	H49	0.212600	0.667700	0.092800
C721	C72	0.343900	0.666700	0.953000
H501	H50	0.329400	0.715500	0.943700
C731	C73	0.178500	0.571700	0.885400
H511	H51	0.202300	0.544600	0.834200
C741	C74	0.218800	0.608400	0.961900
C751	C75	0.068600	0.543400	0.704700
H521	H52	0.109200	0.565000	0.672700
C761	C76	0.066800	0.615900	0.964200
H531	H53	0.015600	0.619900	0.963600
O111	O11	0.102100	0.717100	0.199500
C771	C77	0.069600	0.692300	0.127300
O121	O12	0.998900	0.702500	0.113500
C781	C78	0.413700	0.642300	0.961800
H541	H54	0.455800	0.671700	0.959300
N251	N25	0.010000	0.985600	0.154300
C791	C79	0.006500	0.009000	0.325200
H551	H55	0.998000	0.031700	0.388700
N261	N26	0.042400	0.942300	0.309500
C801	C80	0.986100	0.034900	0.230800
H561	H56	0.960400	0.078400	0.218800
N271	N27	0.107000	0.702000	0.460000
C811	C81	0.076800	0.897700	0.387700
C821	C82	0.150200	0.891800	0.543800
N281	N28	0.066800	0.586800	0.475200
C831	C83	0.047300	0.657900	0.470300
H571	H57	0.998900	0.674900	0.473400
C841	C84	0.145600	0.815400	0.541000
H581	H58	0.167700	0.787400	0.592800
C851	C85	0.166700	0.656100	0.453000
H591	H59	0.215500	0.670600	0.443700
C861	C86	0.071700	0.821500	0.385400
H601	H60	0.044600	0.797700	0.334200
C871	C87	0.108400	0.781200	0.461900
C881	C88	0.043400	0.931400	0.204700
H611	H61	0.065000	0.890800	0.172700
C891	C89	0.115900	0.933200	0.464200
H621	H62	0.119900	0.984400	0.463600
O131	O13	0.217100	0.897900	0.699500
C901	C90	0.192300	0.930400	0.627300
O141	O14	0.202500	0.001100	0.613500
C911	C91	0.142300	0.586300	0.461800
H631	H63	0.171700	0.544200	0.459300
N291	N29	0.490000	0.514400	0.154300
C921	C92	0.493500	0.491000	0.325200
H641	H64	0.502000	0.468300	0.388700
N301	N30	0.457600	0.557700	0.309500
C931	C93	0.513900	0.465100	0.230800
H651	H65	0.539600	0.421600	0.218800
N311	N31	0.393000	0.798000	0.460000
C941	C94	0.423200	0.602300	0.387700
C951	C95	0.349800	0.608200	0.543800
N321	N32	0.433200	0.913200	0.475200
C961	C96	0.452700	0.842100	0.470300
H661	H66	0.501100	0.825100	0.473400
C971	C97	0.354400	0.684600	0.541000
H671	H67	0.332300	0.712600	0.592800
C981	C98	0.333300	0.843900	0.453000
H681	H68	0.284500	0.829400	0.443700
C991	C99	0.428300	0.678500	0.385400
H691	H69	0.455400	0.702300	0.334200
C1001	C100	0.391600	0.718800	0.461900
C1011	C101	0.456600	0.568600	0.204700
H701	H70	0.435000	0.609200	0.172700
C1021	C102	0.384100	0.566800	0.464200
H711	H71	0.380100	0.515600	0.463600
O151	O15	0.282900	0.602100	0.699500
C1031	C103	0.307700	0.569600	0.627300
O161	O16	0.297500	0.498900	0.613500
C1041	C104	0.357700	0.913700	0.461800
H721	H72	0.328300	0.955800	0.459300
Cu11	Cu1	0.500000	0.000000	0.500000
Cu21	Cu2	0.000000	0.500000	0.500000
Cu31	Cu3	0.000000	0.000000	0.000000
Cu41	Cu4	0.500000	0.500000	0.000000
