data_ATAYEB_freeONLY_PM
_symmetry_space_group_name_H-M	'P1'
_cell_length_a	18.434700
_cell_length_b	18.434700
_cell_length_c	23.832000
_cell_angle_alpha	90.000000
_cell_angle_beta	90.000000
_cell_angle_gamma	120.000000
_symmetry_Int_Tables_number 1

loop_
_symmetry_equiv_pos_as_xyz
'x,y,z'

loop_
_atom_site_label
_atom_site_type_symbol
_atom_site_fract_x
_atom_site_fract_y
_atom_site_fract_z
C11	C1	0.449200	0.090500	0.542600
C21	C2	0.422000	0.146100	0.569900
C31	C3	0.378600	0.125900	0.619740
H11	H1	0.363800	0.075000	0.636900
O11	O1	0.480900	0.110540	0.494550
O21	O2	0.437900	0.028200	0.571590
C41	C4	0.909500	0.358700	0.542600
C51	C5	0.853900	0.275900	0.569900
C61	C6	0.874100	0.252700	0.619740
H21	H2	0.925000	0.288800	0.636900
O31	O3	0.889460	0.370360	0.494550
O41	O4	0.971800	0.409700	0.571590
C71	C7	0.641300	0.550800	0.542600
C81	C8	0.724100	0.578000	0.569900
C91	C9	0.747300	0.621400	0.619740
H31	H3	0.711200	0.636200	0.636900
O51	O5	0.629640	0.519100	0.494550
O61	O6	0.590300	0.562100	0.571590
C101	C10	0.550800	0.909500	0.042600
C111	C11	0.578000	0.853900	0.069900
C121	C12	0.621400	0.874100	0.119740
H41	H4	0.636200	0.925000	0.136900
O71	O7	0.519100	0.889460	0.994550
O81	O8	0.562100	0.971800	0.071590
C131	C13	0.090500	0.641300	0.042600
C141	C14	0.146100	0.724100	0.069900
C151	C15	0.125900	0.747300	0.119740
H51	H5	0.075000	0.711200	0.136900
O91	O9	0.110540	0.629640	0.994550
O101	O10	0.028200	0.590300	0.071590
C161	C16	0.358700	0.449200	0.042600
C171	C17	0.275900	0.422000	0.069900
C181	C18	0.252700	0.378600	0.119740
H61	H6	0.288800	0.363800	0.136900
O111	O11	0.370360	0.480900	0.994550
O121	O12	0.409700	0.437900	0.071590
C191	C19	0.090500	0.449200	0.457400
C201	C20	0.146100	0.422000	0.430100
C211	C21	0.125900	0.378600	0.380260
H71	H7	0.075000	0.363800	0.363100
O131	O13	0.110540	0.480900	0.505450
O141	O14	0.028200	0.437900	0.428410
C221	C22	0.358700	0.909500	0.457400
C231	C23	0.275900	0.853900	0.430100
C241	C24	0.252700	0.874100	0.380260
H81	H8	0.288800	0.925000	0.363100
O151	O15	0.370360	0.889460	0.505450
O161	O16	0.409700	0.971800	0.428410
C251	C25	0.550800	0.641300	0.457400
C261	C26	0.578000	0.724100	0.430100
C271	C27	0.621400	0.747300	0.380260
H91	H9	0.636200	0.711200	0.363100
O171	O17	0.519100	0.629640	0.505450
O181	O18	0.562100	0.590300	0.428410
C281	C28	0.909500	0.550800	0.957400
C291	C29	0.853900	0.578000	0.930100
C301	C30	0.874100	0.621400	0.880260
H101	H10	0.925000	0.636200	0.863100
O191	O19	0.889460	0.519100	0.005450
O201	O20	0.971800	0.562100	0.928410
C311	C31	0.641300	0.090500	0.957400
C321	C32	0.724100	0.146100	0.930100
C331	C33	0.747300	0.125900	0.880260
H111	H11	0.711200	0.075000	0.863100
O211	O21	0.629640	0.110540	0.005450
O221	O22	0.590300	0.028200	0.928410
C341	C34	0.449200	0.358700	0.957400
C351	C35	0.422000	0.275900	0.930100
C361	C36	0.378600	0.252700	0.880260
H121	H12	0.363800	0.288800	0.863100
O231	O23	0.480900	0.370360	0.005450
O241	O24	0.437900	0.409700	0.928410
C371	C37	0.550800	0.909500	0.457400
C381	C38	0.578000	0.853900	0.430100
C391	C39	0.621400	0.874100	0.380260
H131	H13	0.636200	0.925000	0.363100
O251	O25	0.519100	0.889460	0.505450
O261	O26	0.562100	0.971800	0.428410
C401	C40	0.090500	0.641300	0.457400
C411	C41	0.146100	0.724100	0.430100
C421	C42	0.125900	0.747300	0.380260
H141	H14	0.075000	0.711200	0.363100
O271	O27	0.110540	0.629640	0.505450
O281	O28	0.028200	0.590300	0.428410
C431	C43	0.358700	0.449200	0.457400
C441	C44	0.275900	0.422000	0.430100
C451	C45	0.252700	0.378600	0.380260
H151	H15	0.288800	0.363800	0.363100
O291	O29	0.370360	0.480900	0.505450
O301	O30	0.409700	0.437900	0.428410
C461	C46	0.449200	0.090500	0.957400
C471	C47	0.422000	0.146100	0.930100
C481	C48	0.378600	0.125900	0.880260
H161	H16	0.363800	0.075000	0.863100
O311	O31	0.480900	0.110540	0.005450
O321	O32	0.437900	0.028200	0.928410
C491	C49	0.909500	0.358700	0.957400
C501	C50	0.853900	0.275900	0.930100
C511	C51	0.874100	0.252700	0.880260
H171	H17	0.925000	0.288800	0.863100
O331	O33	0.889460	0.370360	0.005450
O341	O34	0.971800	0.409700	0.928410
C521	C52	0.641300	0.550800	0.957400
C531	C53	0.724100	0.578000	0.930100
C541	C54	0.747300	0.621400	0.880260
H181	H18	0.711200	0.636200	0.863100
O351	O35	0.629640	0.519100	0.005450
O361	O36	0.590300	0.562100	0.928410
C551	C55	0.909500	0.550800	0.542600
C561	C56	0.853900	0.578000	0.569900
C571	C57	0.874100	0.621400	0.619740
H191	H19	0.925000	0.636200	0.636900
O371	O37	0.889460	0.519100	0.494550
O381	O38	0.971800	0.562100	0.571590
C581	C58	0.641300	0.090500	0.542600
C591	C59	0.724100	0.146100	0.569900
C601	C60	0.747300	0.125900	0.619740
H201	H20	0.711200	0.075000	0.636900
O391	O39	0.629640	0.110540	0.494550
O401	O40	0.590300	0.028200	0.571590
C611	C61	0.449200	0.358700	0.542600
C621	C62	0.422000	0.275900	0.569900
C631	C63	0.378600	0.252700	0.619740
H211	H21	0.363800	0.288800	0.636900
O411	O41	0.480900	0.370360	0.494550
O421	O42	0.437900	0.409700	0.571590
C641	C64	0.090500	0.449200	0.042600
C651	C65	0.146100	0.422000	0.069900
C661	C66	0.125900	0.378600	0.119740
H221	H22	0.075000	0.363800	0.136900
O431	O43	0.110540	0.480900	0.994550
O441	O44	0.028200	0.437900	0.071590
C671	C67	0.358700	0.909500	0.042600
C681	C68	0.275900	0.853900	0.069900
C691	C69	0.252700	0.874100	0.119740
H231	H23	0.288800	0.925000	0.136900
O451	O45	0.370360	0.889460	0.994550
O461	O46	0.409700	0.971800	0.071590
C701	C70	0.550800	0.641300	0.042600
C711	C71	0.578000	0.724100	0.069900
C721	C72	0.621400	0.747300	0.119740
H241	H24	0.636200	0.711200	0.136900
O471	O47	0.519100	0.629640	0.994550
O481	O48	0.562100	0.590300	0.071590
C731	C73	0.442600	0.221300	0.545600
H251	H25	0.471300	0.235650	0.511600
C741	C74	0.356900	0.178450	0.644200
C751	C75	0.309500	0.154750	0.699700
C761	C76	0.225600	0.112800	0.700800
H261	H26	0.197500	0.098750	0.666700
H271	H27	0.467600	0.233800	0.781300
C771	C77	0.778700	0.221300	0.545600
H281	H28	0.764350	0.235650	0.511600
C781	C78	0.821550	0.178450	0.644200
C791	C79	0.845250	0.154750	0.699700
C801	C80	0.887200	0.112800	0.700800
H291	H29	0.901250	0.098750	0.666700
H301	H30	0.766200	0.233800	0.781300
C811	C81	0.778700	0.557400	0.545600
H311	H31	0.764350	0.528700	0.511600
C821	C82	0.821550	0.643100	0.644200
C831	C83	0.845250	0.690500	0.699700
C841	C84	0.887200	0.774400	0.700800
H321	H32	0.901250	0.802500	0.666700
H331	H33	0.766200	0.532400	0.781300
C851	C85	0.557400	0.778700	0.045600
H341	H34	0.528700	0.764350	0.011600
C861	C86	0.643100	0.821550	0.144200
C871	C87	0.690500	0.845250	0.199700
C881	C88	0.774400	0.887200	0.200800
H351	H35	0.802500	0.901250	0.166700
H361	H36	0.532400	0.766200	0.281300
C891	C89	0.221300	0.778700	0.045600
H371	H37	0.235650	0.764350	0.011600
C901	C90	0.178450	0.821550	0.144200
C911	C91	0.154750	0.845250	0.199700
C921	C92	0.112800	0.887200	0.200800
H381	H38	0.098750	0.901250	0.166700
H391	H39	0.233800	0.766200	0.281300
C931	C93	0.221300	0.442600	0.045600
H401	H40	0.235650	0.471300	0.011600
C941	C94	0.178450	0.356900	0.144200
C951	C95	0.154750	0.309500	0.199700
C961	C96	0.112800	0.225600	0.200800
H411	H41	0.098750	0.197500	0.166700
H421	H42	0.233800	0.467600	0.281300
C971	C97	0.221300	0.442600	0.454400
H431	H43	0.235650	0.471300	0.488400
C981	C98	0.178450	0.356900	0.355800
C991	C99	0.154750	0.309500	0.300300
C1001	C100	0.112800	0.225600	0.299200
H441	H44	0.098750	0.197500	0.333300
H451	H45	0.233800	0.467600	0.218700
C1011	C101	0.221300	0.778700	0.454400
H461	H46	0.235650	0.764350	0.488400
C1021	C102	0.178450	0.821550	0.355800
C1031	C103	0.154750	0.845250	0.300300
C1041	C104	0.112800	0.887200	0.299200
H471	H47	0.098750	0.901250	0.333300
H481	H48	0.233800	0.766200	0.218700
C1051	C105	0.557400	0.778700	0.454400
H491	H49	0.528700	0.764350	0.488400
C1061	C106	0.643100	0.821550	0.355800
C1071	C107	0.690500	0.845250	0.300300
C1081	C108	0.774400	0.887200	0.299200
H501	H50	0.802500	0.901250	0.333300
H511	H51	0.532400	0.766200	0.218700
C1091	C109	0.778700	0.557400	0.954400
H521	H52	0.764350	0.528700	0.988400
C1101	C110	0.821550	0.643100	0.855800
C1111	C111	0.845250	0.690500	0.800300
C1121	C112	0.887200	0.774400	0.799200
H531	H53	0.901250	0.802500	0.833300
H541	H54	0.766200	0.532400	0.718700
C1131	C113	0.778700	0.221300	0.954400
H551	H55	0.764350	0.235650	0.988400
C1141	C114	0.821550	0.178450	0.855800
C1151	C115	0.845250	0.154750	0.800300
C1161	C116	0.887200	0.112800	0.799200
H561	H56	0.901250	0.098750	0.833300
H571	H57	0.766200	0.233800	0.718700
C1171	C117	0.442600	0.221300	0.954400
H581	H58	0.471300	0.235650	0.988400
C1181	C118	0.356900	0.178450	0.855800
C1191	C119	0.309500	0.154750	0.800300
C1201	C120	0.225600	0.112800	0.799200
H591	H59	0.197500	0.098750	0.833300
H601	H60	0.467600	0.233800	0.718700
C1211	C121	0.353900	0.176950	0.750000
C1221	C122	0.177300	0.088650	0.750000
N11	N1	0.440700	0.220350	0.750000
C1231	C123	0.823050	0.176950	0.750000
C1241	C124	0.911350	0.088650	0.750000
N21	N2	0.779650	0.220350	0.750000
C1251	C125	0.823050	0.646100	0.750000
C1261	C126	0.911350	0.822700	0.750000
N31	N3	0.779650	0.559300	0.750000
C1271	C127	0.646100	0.823050	0.250000
C1281	C128	0.822700	0.911350	0.250000
N41	N4	0.559300	0.779650	0.250000
C1291	C129	0.176950	0.823050	0.250000
C1301	C130	0.088650	0.911350	0.250000
N51	N5	0.220350	0.779650	0.250000
C1311	C131	0.176950	0.353900	0.250000
C1321	C132	0.088650	0.177300	0.250000
N61	N6	0.220350	0.440700	0.250000
Cu11	Cu1	0.524060	0.048130	0.454480
O491	O49	0.560450	0.120900	0.378500
Cu21	Cu2	0.951870	0.475930	0.454480
O501	O50	0.879100	0.439550	0.378500
Cu31	Cu3	0.524060	0.475940	0.454480
O511	O51	0.560450	0.439550	0.378500
Cu41	Cu4	0.475940	0.951870	0.954480
O521	O52	0.439550	0.879100	0.878500
Cu51	Cu5	0.048130	0.524070	0.954480
O531	O53	0.120900	0.560450	0.878500
Cu61	Cu6	0.475930	0.524060	0.954480
O541	O54	0.439550	0.560450	0.878500
Cu71	Cu7	0.048130	0.524060	0.545520
O551	O55	0.120900	0.560450	0.621500
Cu81	Cu8	0.475930	0.951870	0.545520
O561	O56	0.439550	0.879100	0.621500
Cu91	Cu9	0.475940	0.524070	0.545520
O571	O57	0.439550	0.560450	0.621500
Cu101	Cu10	0.951870	0.475940	0.045520
O581	O58	0.879100	0.439550	0.121500
Cu111	Cu11	0.524060	0.048130	0.045520
O591	O59	0.560450	0.120900	0.121500
Cu121	Cu12	0.524060	0.475930	0.045520
O601	O60	0.560450	0.439550	0.121500
F11	F1	0.101900	0.006000	0.750000
F21	F2	0.994000	0.095900	0.750000
F31	F3	0.904100	0.898100	0.750000
F41	F4	0.898100	0.994000	0.250000
F51	F5	0.006000	0.904100	0.250000
F61	F6	0.095900	0.101900	0.250000
F71	F7	0.006000	0.101900	0.250000
F81	F8	0.095900	0.994000	0.250000
F91	F9	0.898100	0.904100	0.250000
F101	F10	0.994000	0.898100	0.750000
F111	F11	0.904100	0.006000	0.750000
F121	F12	0.101900	0.095900	0.750000
