data_ATEYED_freeONLY_PM
_symmetry_space_group_name_H-M	'P1'
_cell_length_a	28.132000
_cell_length_b	12.615000
_cell_length_c	24.746000
_cell_angle_alpha	90.000000
_cell_angle_beta	120.026000
_cell_angle_gamma	90.000000
_symmetry_Int_Tables_number 1

loop_
_symmetry_equiv_pos_as_xyz
'x,y,z'

loop_
_atom_site_label
_atom_site_type_symbol
_atom_site_fract_x
_atom_site_fract_y
_atom_site_fract_z
C11	C1	0.326650	0.398300	0.478500
H11	H1	0.322300	0.450300	0.502300
C21	C2	0.321220	0.253600	0.432200
H21	H2	0.312000	0.184500	0.417600
C31	C3	0.352500	0.319200	0.420000
H31	H3	0.368600	0.304100	0.396000
C41	C4	0.381620	0.509800	0.445500
H41	H4	0.373400	0.566200	0.466300
H51	H5	0.365600	0.529300	0.401900
C51	C5	0.442950	0.501800	0.473900
C61	C6	0.476680	0.468100	0.534800
H61	H6	0.461100	0.445900	0.558300
C71	C7	0.466950	0.533200	0.439000
H71	H7	0.444900	0.555100	0.397800
C81	C8	0.173250	0.452100	0.464400
H81	H8	0.178200	0.459400	0.504300
C91	C9	0.179100	0.394000	0.387600
H91	H9	0.188500	0.353000	0.363200
C101	C10	0.141300	0.515500	0.415300
H101	H10	0.120600	0.573100	0.415000
C111	C11	0.118000	0.521700	0.303000
H111	H11	0.127400	0.479600	0.276800
H121	H12	0.130700	0.593500	0.304000
C121	C12	0.028000	0.427000	0.262600
H131	H13	0.046800	0.363000	0.271100
C131	C13	0.056800	0.522000	0.275500
C141	C14	0.028200	0.615700	0.263000
H141	H14	0.047000	0.679700	0.272000
N11	N1	0.305060	0.303600	0.469180
N21	N2	0.355780	0.411900	0.449720
N31	N3	0.196910	0.376500	0.446890
N41	N4	0.145820	0.477800	0.366730
O11	O1	0.286810	0.356900	0.579830
C151	C15	0.826650	0.898300	0.478500
H151	H15	0.822300	0.950300	0.502300
C161	C16	0.821220	0.753600	0.432200
H161	H16	0.812000	0.684500	0.417600
C171	C17	0.852500	0.819200	0.420000
H171	H17	0.868600	0.804100	0.396000
C181	C18	0.881620	0.009800	0.445500
H181	H18	0.873400	0.066200	0.466300
H191	H19	0.865600	0.029300	0.401900
C191	C19	0.942950	0.001800	0.473900
C201	C20	0.976680	0.968100	0.534800
H201	H20	0.961100	0.945900	0.558300
C211	C21	0.966950	0.033200	0.439000
H211	H21	0.944900	0.055100	0.397800
C221	C22	0.673250	0.952100	0.464400
H221	H22	0.678200	0.959400	0.504300
C231	C23	0.679100	0.894000	0.387600
H231	H23	0.688500	0.853000	0.363200
C241	C24	0.641300	0.015500	0.415300
H241	H24	0.620600	0.073100	0.415000
C251	C25	0.618000	0.021700	0.303000
H251	H25	0.627400	0.979600	0.276800
H261	H26	0.630700	0.093500	0.304000
C261	C26	0.528000	0.927000	0.262600
H271	H27	0.546800	0.863000	0.271100
C271	C27	0.556800	0.022000	0.275500
C281	C28	0.528200	0.115700	0.263000
H281	H28	0.547000	0.179700	0.272000
N51	N5	0.805060	0.803600	0.469180
N61	N6	0.855780	0.911900	0.449720
N71	N7	0.696910	0.876500	0.446890
N81	N8	0.645820	0.977800	0.366730
O21	O2	0.786810	0.856900	0.579830
C291	C29	0.673350	0.398300	0.021500
H291	H29	0.677700	0.450300	0.997700
C301	C30	0.678780	0.253600	0.067800
H301	H30	0.688000	0.184500	0.082400
C311	C31	0.647500	0.319200	0.080000
H311	H31	0.631400	0.304100	0.104000
C321	C32	0.618380	0.509800	0.054500
H321	H32	0.626600	0.566200	0.033700
H331	H33	0.634400	0.529300	0.098100
C331	C33	0.557050	0.501800	0.026100
C341	C34	0.523320	0.468100	0.965200
H341	H34	0.538900	0.445900	0.941700
C351	C35	0.533050	0.533200	0.061000
H351	H35	0.555100	0.555100	0.102200
C361	C36	0.826750	0.452100	0.035600
H361	H36	0.821800	0.459400	0.995700
C371	C37	0.820900	0.394000	0.112400
H371	H37	0.811500	0.353000	0.136800
C381	C38	0.858700	0.515500	0.084700
H381	H38	0.879400	0.573100	0.085000
C391	C39	0.882000	0.521700	0.197000
H391	H39	0.872600	0.479600	0.223200
H401	H40	0.869300	0.593500	0.196000
C401	C40	0.972000	0.427000	0.237400
H411	H41	0.953200	0.363000	0.228900
C411	C41	0.943200	0.522000	0.224500
C421	C42	0.971800	0.615700	0.237000
H421	H42	0.953000	0.679700	0.228000
N91	N9	0.694940	0.303600	0.030820
N101	N10	0.644220	0.411900	0.050280
N111	N11	0.803090	0.376500	0.053110
N121	N12	0.854180	0.477800	0.133270
O31	O3	0.713190	0.356900	0.920170
C431	C43	0.173350	0.898300	0.021500
H431	H43	0.177700	0.950300	0.997700
C441	C44	0.178780	0.753600	0.067800
H441	H44	0.188000	0.684500	0.082400
C451	C45	0.147500	0.819200	0.080000
H451	H45	0.131400	0.804100	0.104000
C461	C46	0.118380	0.009800	0.054500
H461	H46	0.126600	0.066200	0.033700
H471	H47	0.134400	0.029300	0.098100
C471	C47	0.057050	0.001800	0.026100
C481	C48	0.023320	0.968100	0.965200
H481	H48	0.038900	0.945900	0.941700
C491	C49	0.033050	0.033200	0.061000
H491	H49	0.055100	0.055100	0.102200
C501	C50	0.326750	0.952100	0.035600
H501	H50	0.321800	0.959400	0.995700
C511	C51	0.320900	0.894000	0.112400
H511	H51	0.311500	0.853000	0.136800
C521	C52	0.358700	0.015500	0.084700
H521	H52	0.379400	0.073100	0.085000
C531	C53	0.382000	0.021700	0.197000
H531	H53	0.372600	0.979600	0.223200
H541	H54	0.369300	0.093500	0.196000
C541	C54	0.472000	0.927000	0.237400
H551	H55	0.453200	0.863000	0.228900
C551	C55	0.443200	0.022000	0.224500
C561	C56	0.471800	0.115700	0.237000
H561	H56	0.453000	0.179700	0.228000
N131	N13	0.194940	0.803600	0.030820
N141	N14	0.144220	0.911900	0.050280
N151	N15	0.303090	0.876500	0.053110
N161	N16	0.354180	0.977800	0.133270
O41	O4	0.213190	0.856900	0.920170
C571	C57	0.673350	0.601700	0.521500
H571	H57	0.677700	0.549700	0.497700
C581	C58	0.678780	0.746400	0.567800
H581	H58	0.688000	0.815500	0.582400
C591	C59	0.647500	0.680800	0.580000
H591	H59	0.631400	0.695900	0.604000
C601	C60	0.618380	0.490200	0.554500
H601	H60	0.626600	0.433800	0.533700
H611	H61	0.634400	0.470700	0.598100
C611	C61	0.557050	0.498200	0.526100
C621	C62	0.523320	0.531900	0.465200
H621	H62	0.538900	0.554100	0.441700
C631	C63	0.533050	0.466800	0.561000
H631	H63	0.555100	0.444900	0.602200
C641	C64	0.826750	0.547900	0.535600
H641	H64	0.821800	0.540600	0.495700
C651	C65	0.820900	0.606000	0.612400
H651	H65	0.811500	0.647000	0.636800
C661	C66	0.858700	0.484500	0.584700
H661	H66	0.879400	0.426900	0.585000
C671	C67	0.882000	0.478300	0.697000
H671	H67	0.872600	0.520400	0.723200
H681	H68	0.869300	0.406500	0.696000
C681	C68	0.972000	0.573000	0.737400
H691	H69	0.953200	0.637000	0.728900
C691	C69	0.943200	0.478000	0.724500
C701	C70	0.971800	0.384300	0.737000
H701	H70	0.953000	0.320300	0.728000
N171	N17	0.694940	0.696400	0.530820
N181	N18	0.644220	0.588100	0.550280
N191	N19	0.803090	0.623500	0.553110
N201	N20	0.854180	0.522200	0.633270
O51	O5	0.713190	0.643100	0.420170
C711	C71	0.173350	0.101700	0.521500
H711	H71	0.177700	0.049700	0.497700
C721	C72	0.178780	0.246400	0.567800
H721	H72	0.188000	0.315500	0.582400
C731	C73	0.147500	0.180800	0.580000
H731	H73	0.131400	0.195900	0.604000
C741	C74	0.118380	0.990200	0.554500
H741	H74	0.126600	0.933800	0.533700
H751	H75	0.134400	0.970700	0.598100
C751	C75	0.057050	0.998200	0.526100
C761	C76	0.023320	0.031900	0.465200
H761	H76	0.038900	0.054100	0.441700
C771	C77	0.033050	0.966800	0.561000
H771	H77	0.055100	0.944900	0.602200
C781	C78	0.326750	0.047900	0.535600
H781	H78	0.321800	0.040600	0.495700
C791	C79	0.320900	0.106000	0.612400
H791	H79	0.311500	0.147000	0.636800
C801	C80	0.358700	0.984500	0.584700
H801	H80	0.379400	0.926900	0.585000
C811	C81	0.382000	0.978300	0.697000
H811	H81	0.372600	0.020400	0.723200
H821	H82	0.369300	0.906500	0.696000
C821	C82	0.472000	0.073000	0.737400
H831	H83	0.453200	0.137000	0.728900
C831	C83	0.443200	0.978000	0.724500
C841	C84	0.471800	0.884300	0.737000
H841	H84	0.453000	0.820300	0.728000
N211	N21	0.194940	0.196400	0.530820
N221	N22	0.144220	0.088100	0.550280
N231	N23	0.303090	0.123500	0.553110
N241	N24	0.354180	0.022200	0.633270
O61	O6	0.213190	0.143100	0.420170
C851	C85	0.326650	0.601700	0.978500
H851	H85	0.322300	0.549700	0.002300
C861	C86	0.321220	0.746400	0.932200
H861	H86	0.312000	0.815500	0.917600
C871	C87	0.352500	0.680800	0.920000
H871	H87	0.368600	0.695900	0.896000
C881	C88	0.381620	0.490200	0.945500
H881	H88	0.373400	0.433800	0.966300
H891	H89	0.365600	0.470700	0.901900
C891	C89	0.442950	0.498200	0.973900
C901	C90	0.476680	0.531900	0.034800
H901	H90	0.461100	0.554100	0.058300
C911	C91	0.466950	0.466800	0.939000
H911	H91	0.444900	0.444900	0.897800
C921	C92	0.173250	0.547900	0.964400
H921	H92	0.178200	0.540600	0.004300
C931	C93	0.179100	0.606000	0.887600
H931	H93	0.188500	0.647000	0.863200
C941	C94	0.141300	0.484500	0.915300
H941	H94	0.120600	0.426900	0.915000
C951	C95	0.118000	0.478300	0.803000
H951	H95	0.127400	0.520400	0.776800
H961	H96	0.130700	0.406500	0.804000
C961	C96	0.028000	0.573000	0.762600
H971	H97	0.046800	0.637000	0.771100
C971	C97	0.056800	0.478000	0.775500
C981	C98	0.028200	0.384300	0.763000
H981	H98	0.047000	0.320300	0.772000
N251	N25	0.305060	0.696400	0.969180
N261	N26	0.355780	0.588100	0.949720
N271	N27	0.196910	0.623500	0.946890
N281	N28	0.145820	0.522200	0.866730
O71	O7	0.286810	0.643100	0.079830
C991	C99	0.826650	0.101700	0.978500
H991	H99	0.822300	0.049700	0.002300
C1001	C100	0.821220	0.246400	0.932200
H1001	H100	0.812000	0.315500	0.917600
C1011	C101	0.852500	0.180800	0.920000
H1011	H101	0.868600	0.195900	0.896000
C1021	C102	0.881620	0.990200	0.945500
H1021	H102	0.873400	0.933800	0.966300
H1031	H103	0.865600	0.970700	0.901900
C1031	C103	0.942950	0.998200	0.973900
C1041	C104	0.976680	0.031900	0.034800
H1041	H104	0.961100	0.054100	0.058300
C1051	C105	0.966950	0.966800	0.939000
H1051	H105	0.944900	0.944900	0.897800
C1061	C106	0.673250	0.047900	0.964400
H1061	H106	0.678200	0.040600	0.004300
C1071	C107	0.679100	0.106000	0.887600
H1071	H107	0.688500	0.147000	0.863200
C1081	C108	0.641300	0.984500	0.915300
H1081	H108	0.620600	0.926900	0.915000
C1091	C109	0.618000	0.978300	0.803000
H1091	H109	0.627400	0.020400	0.776800
H1101	H110	0.630700	0.906500	0.804000
C1101	C110	0.528000	0.073000	0.762600
H1111	H111	0.546800	0.137000	0.771100
C1111	C111	0.556800	0.978000	0.775500
C1121	C112	0.528200	0.884300	0.763000
H1121	H112	0.547000	0.820300	0.772000
N291	N29	0.805060	0.196400	0.969180
N301	N30	0.855780	0.088100	0.949720
N311	N31	0.696910	0.123500	0.946890
N321	N32	0.645820	0.022200	0.866730
O81	O8	0.786810	0.143100	0.079830
Co11	Co1	0.250000	0.250000	0.500000
Co21	Co2	0.750000	0.250000	0.000000
Co31	Co3	0.750000	0.750000	0.500000
Co41	Co4	0.250000	0.750000	0.000000
