data_ATIBOU01_freeONLY_PM
_symmetry_space_group_name_H-M	'P1'
_cell_length_a	10.250000
_cell_length_b	11.683000
_cell_length_c	15.154000
_cell_angle_alpha	91.860000
_cell_angle_beta	90.000000
_cell_angle_gamma	90.000000
_symmetry_Int_Tables_number 1

loop_
_symmetry_equiv_pos_as_xyz
'x,y,z'

loop_
_atom_site_label
_atom_site_type_symbol
_atom_site_fract_x
_atom_site_fract_y
_atom_site_fract_z
Mn11	Mn1	0.923430	0.243910	0.868660
Mn21	Mn2	0.612400	0.239470	0.809070
Mn31	Mn3	0.423430	0.256090	0.631340
Mn41	Mn4	0.112400	0.260530	0.690930
Mn51	Mn5	0.076570	0.756090	0.131340
Mn61	Mn6	0.387600	0.760530	0.190930
Mn71	Mn7	0.576570	0.743910	0.368660
Mn81	Mn8	0.887600	0.739470	0.309070
Mn91	Mn9	0.000000	0.000000	0.000000
Mn101	Mn10	0.500000	0.500000	0.500000
Mn111	Mn11	0.000000	0.500000	0.000000
Mn121	Mn12	0.500000	0.000000	0.500000
H11	H1	0.713700	0.992200	0.964200
H21	H2	0.627600	0.444000	0.949200
H31	H3	0.211800	0.037200	0.784600
H41	H4	0.151000	0.301800	0.072100
H51	H5	0.765400	0.149500	0.633500
H61	H6	0.041400	0.520400	0.743100
H71	H7	0.213700	0.507800	0.535800
H81	H8	0.127600	0.056000	0.550800
H91	H9	0.711800	0.462800	0.715400
H101	H10	0.651000	0.198200	0.427900
H111	H11	0.265400	0.350500	0.866500
H121	H12	0.541400	0.979600	0.756900
H131	H13	0.286300	0.007800	0.035800
H141	H14	0.372400	0.556000	0.050800
H151	H15	0.788200	0.962800	0.215400
H161	H16	0.849000	0.698200	0.927900
H171	H17	0.234600	0.850500	0.366500
H181	H18	0.958600	0.479600	0.256900
H191	H19	0.786300	0.492200	0.464200
H201	H20	0.872400	0.944000	0.449200
H211	H21	0.288200	0.537200	0.284600
H221	H22	0.349000	0.801800	0.572100
H231	H23	0.734600	0.649500	0.133500
H241	H24	0.458600	0.020400	0.243100
C11	C1	0.728670	0.057840	0.932640
C21	C2	0.715280	0.424000	0.945090
C31	C3	0.145200	0.059300	0.823160
C41	C4	0.096520	0.259040	0.034710
C51	C5	0.832390	0.177000	0.669710
C61	C6	0.021600	0.480920	0.793710
C71	C7	0.228670	0.442160	0.567360
C81	C8	0.215280	0.076000	0.554910
C91	C9	0.645200	0.440700	0.676840
C101	C10	0.596520	0.240960	0.465290
C111	C11	0.332390	0.323000	0.830290
C121	C12	0.521600	0.019080	0.706290
C131	C13	0.271330	0.942160	0.067360
C141	C14	0.284720	0.576000	0.054910
C151	C15	0.854800	0.940700	0.176840
C161	C16	0.903480	0.740960	0.965290
C171	C17	0.167610	0.823000	0.330290
C181	C18	0.978400	0.519080	0.206290
C191	C19	0.771330	0.557840	0.432640
C201	C20	0.784720	0.924000	0.445090
C211	C21	0.354800	0.559300	0.323160
C221	C22	0.403480	0.759040	0.534710
C231	C23	0.667610	0.677000	0.169710
C241	C24	0.478400	0.980920	0.293710
O11	O1	0.633700	0.099390	0.895330
O21	O2	0.095500	0.155010	0.043090
O31	O3	0.791320	0.477600	0.993010
O41	O4	0.011940	0.373420	0.785090
O51	O5	0.084430	0.150210	0.805810
O61	O6	0.844410	0.095380	0.932360
O71	O7	0.805120	0.195860	0.750060
O81	O8	0.029520	0.313530	0.979310
O91	O9	0.744720	0.343660	0.890280
O101	O10	0.939840	0.191580	0.634380
O111	O11	0.125050	0.997570	0.885530
O121	O12	0.007600	0.537990	0.861550
O131	O13	0.133700	0.400610	0.604670
O141	O14	0.595500	0.344990	0.456910
O151	O15	0.291320	0.022400	0.506990
O161	O16	0.511940	0.126580	0.714910
O171	O17	0.584430	0.349790	0.694190
O181	O18	0.344410	0.404620	0.567640
O191	O19	0.305120	0.304140	0.749940
O201	O20	0.529520	0.186470	0.520690
O211	O21	0.244720	0.156340	0.609720
O221	O22	0.439840	0.308420	0.865620
O231	O23	0.625050	0.502430	0.614470
O241	O24	0.507600	0.962010	0.638450
O251	O25	0.366300	0.900610	0.104670
O261	O26	0.904500	0.844990	0.956910
O271	O27	0.208680	0.522400	0.006990
O281	O28	0.988060	0.626580	0.214910
O291	O29	0.915570	0.849790	0.194190
O301	O30	0.155590	0.904620	0.067640
O311	O31	0.194880	0.804140	0.249940
O321	O32	0.970480	0.686470	0.020690
O331	O33	0.255280	0.656340	0.109720
O341	O34	0.060160	0.808420	0.365620
O351	O35	0.874950	0.002430	0.114470
O361	O36	0.992400	0.462010	0.138450
O371	O37	0.866300	0.599390	0.395330
O381	O38	0.404500	0.655010	0.543090
O391	O39	0.708680	0.977600	0.493010
O401	O40	0.488060	0.873420	0.285090
O411	O41	0.415570	0.650210	0.305810
O421	O42	0.655590	0.595380	0.432360
O431	O43	0.694880	0.695860	0.250060
O441	O44	0.470480	0.813530	0.479310
O451	O45	0.755280	0.843660	0.390280
O461	O46	0.560160	0.691580	0.134380
O471	O47	0.374950	0.497570	0.385530
O481	O48	0.492400	0.037990	0.361550
