data_ATIXUX_freeONLY_PM
_symmetry_space_group_name_H-M	'P1'
_cell_length_a	8.104000
_cell_length_b	27.065600
_cell_length_c	20.423300
_cell_angle_alpha	90.000000
_cell_angle_beta	90.000000
_cell_angle_gamma	90.000000
_symmetry_Int_Tables_number 1

loop_
_symmetry_equiv_pos_as_xyz
'x,y,z'

loop_
_atom_site_label
_atom_site_type_symbol
_atom_site_fract_x
_atom_site_fract_y
_atom_site_fract_z
O11	O1	0.934400	0.680840	0.002300
O21	O2	0.763300	0.722970	0.065770
O31	O3	0.462500	0.698700	0.146100
O41	O4	0.677900	0.689670	0.210800
C11	C1	0.717800	0.546500	0.054400
C21	C2	0.779800	0.591300	0.033500
H11	H1	0.844800	0.592300	0.996000
C31	C3	0.747100	0.635100	0.067400
C41	C4	0.647700	0.633100	0.122300
C51	C5	0.585600	0.587900	0.143400
H21	H2	0.517900	0.586700	0.180100
C61	C6	0.623700	0.544900	0.110200
H31	H3	0.585300	0.514700	0.125700
C71	C7	0.818800	0.683100	0.043600
C81	C8	0.597100	0.677800	0.162000
O51	O5	0.434400	0.180840	0.002300
O61	O6	0.263300	0.222970	0.065770
O71	O7	0.962500	0.198700	0.146100
O81	O8	0.177900	0.189670	0.210800
C91	C9	0.217800	0.046500	0.054400
C101	C10	0.279800	0.091300	0.033500
H41	H4	0.344800	0.092300	0.996000
C111	C11	0.247100	0.135100	0.067400
C121	C12	0.147700	0.133100	0.122300
C131	C13	0.085600	0.087900	0.143400
H51	H5	0.017900	0.086700	0.180100
C141	C14	0.123700	0.044900	0.110200
H61	H6	0.085300	0.014700	0.125700
C151	C15	0.318800	0.183100	0.043600
C161	C16	0.097100	0.177800	0.162000
O91	O9	0.565600	0.319160	0.002300
O101	O10	0.736700	0.277030	0.065770
O111	O11	0.037500	0.301300	0.146100
O121	O12	0.822100	0.310330	0.210800
C171	C17	0.782200	0.453500	0.054400
C181	C18	0.720200	0.408700	0.033500
H71	H7	0.655200	0.407700	0.996000
C191	C19	0.752900	0.364900	0.067400
C201	C20	0.852300	0.366900	0.122300
C211	C21	0.914400	0.412100	0.143400
H81	H8	0.982100	0.413300	0.180100
C221	C22	0.876300	0.455100	0.110200
H91	H9	0.914700	0.485300	0.125700
C231	C23	0.681200	0.316900	0.043600
C241	C24	0.902900	0.322200	0.162000
O131	O13	0.065600	0.819160	0.002300
O141	O14	0.236700	0.777030	0.065770
O151	O15	0.537500	0.801300	0.146100
O161	O16	0.322100	0.810330	0.210800
C251	C25	0.282200	0.953500	0.054400
C261	C26	0.220200	0.908700	0.033500
H101	H10	0.155200	0.907700	0.996000
C271	C27	0.252900	0.864900	0.067400
C281	C28	0.352300	0.866900	0.122300
C291	C29	0.414400	0.912100	0.143400
H111	H11	0.482100	0.913300	0.180100
C301	C30	0.376300	0.955100	0.110200
H121	H12	0.414700	0.985300	0.125700
C311	C31	0.181200	0.816900	0.043600
C321	C32	0.402900	0.822200	0.162000
O171	O17	0.065600	0.680840	0.497700
O181	O18	0.236700	0.722970	0.434230
O191	O19	0.537500	0.698700	0.353900
O201	O20	0.322100	0.689670	0.289200
C331	C33	0.282200	0.546500	0.445600
C341	C34	0.220200	0.591300	0.466500
H131	H13	0.155200	0.592300	0.504000
C351	C35	0.252900	0.635100	0.432600
C361	C36	0.352300	0.633100	0.377700
C371	C37	0.414400	0.587900	0.356600
H141	H14	0.482100	0.586700	0.319900
C381	C38	0.376300	0.544900	0.389800
H151	H15	0.414700	0.514700	0.374300
C391	C39	0.181200	0.683100	0.456400
C401	C40	0.402900	0.677800	0.338000
O211	O21	0.565600	0.180840	0.497700
O221	O22	0.736700	0.222970	0.434230
O231	O23	0.037500	0.198700	0.353900
O241	O24	0.822100	0.189670	0.289200
C411	C41	0.782200	0.046500	0.445600
C421	C42	0.720200	0.091300	0.466500
H161	H16	0.655200	0.092300	0.504000
C431	C43	0.752900	0.135100	0.432600
C441	C44	0.852300	0.133100	0.377700
C451	C45	0.914400	0.087900	0.356600
H171	H17	0.982100	0.086700	0.319900
C461	C46	0.876300	0.044900	0.389800
H181	H18	0.914700	0.014700	0.374300
C471	C47	0.681200	0.183100	0.456400
C481	C48	0.902900	0.177800	0.338000
O251	O25	0.434400	0.319160	0.497700
O261	O26	0.263300	0.277030	0.434230
O271	O27	0.962500	0.301300	0.353900
O281	O28	0.177900	0.310330	0.289200
C491	C49	0.217800	0.453500	0.445600
C501	C50	0.279800	0.408700	0.466500
H191	H19	0.344800	0.407700	0.504000
C511	C51	0.247100	0.364900	0.432600
C521	C52	0.147700	0.366900	0.377700
C531	C53	0.085600	0.412100	0.356600
H201	H20	0.017900	0.413300	0.319900
C541	C54	0.123700	0.455100	0.389800
H211	H21	0.085300	0.485300	0.374300
C551	C55	0.318800	0.316900	0.456400
C561	C56	0.097100	0.322200	0.338000
O291	O29	0.934400	0.819160	0.497700
O301	O30	0.763300	0.777030	0.434230
O311	O31	0.462500	0.801300	0.353900
O321	O32	0.677900	0.810330	0.289200
C571	C57	0.717800	0.953500	0.445600
C581	C58	0.779800	0.908700	0.466500
H221	H22	0.844800	0.907700	0.504000
C591	C59	0.747100	0.864900	0.432600
C601	C60	0.647700	0.866900	0.377700
C611	C61	0.585600	0.912100	0.356600
H231	H23	0.517900	0.913300	0.319900
C621	C62	0.623700	0.955100	0.389800
H241	H24	0.585300	0.985300	0.374300
C631	C63	0.818800	0.816900	0.456400
C641	C64	0.597100	0.822200	0.338000
O331	O33	0.065600	0.319160	0.997700
O341	O34	0.236700	0.277030	0.934230
O351	O35	0.537500	0.301300	0.853900
O361	O36	0.322100	0.310330	0.789200
C651	C65	0.282200	0.453500	0.945600
C661	C66	0.220200	0.408700	0.966500
H251	H25	0.155200	0.407700	0.004000
C671	C67	0.252900	0.364900	0.932600
C681	C68	0.352300	0.366900	0.877700
C691	C69	0.414400	0.412100	0.856600
H261	H26	0.482100	0.413300	0.819900
C701	C70	0.376300	0.455100	0.889800
H271	H27	0.414700	0.485300	0.874300
C711	C71	0.181200	0.316900	0.956400
C721	C72	0.402900	0.322200	0.838000
O371	O37	0.565600	0.819160	0.997700
O381	O38	0.736700	0.777030	0.934230
O391	O39	0.037500	0.801300	0.853900
O401	O40	0.822100	0.810330	0.789200
C731	C73	0.782200	0.953500	0.945600
C741	C74	0.720200	0.908700	0.966500
H281	H28	0.655200	0.907700	0.004000
C751	C75	0.752900	0.864900	0.932600
C761	C76	0.852300	0.866900	0.877700
C771	C77	0.914400	0.912100	0.856600
H291	H29	0.982100	0.913300	0.819900
C781	C78	0.876300	0.955100	0.889800
H301	H30	0.914700	0.985300	0.874300
C791	C79	0.681200	0.816900	0.956400
C801	C80	0.902900	0.822200	0.838000
O411	O41	0.434400	0.680840	0.997700
O421	O42	0.263300	0.722970	0.934230
O431	O43	0.962500	0.698700	0.853900
O441	O44	0.177900	0.689670	0.789200
C811	C81	0.217800	0.546500	0.945600
C821	C82	0.279800	0.591300	0.966500
H311	H31	0.344800	0.592300	0.004000
C831	C83	0.247100	0.635100	0.932600
C841	C84	0.147700	0.633100	0.877700
C851	C85	0.085600	0.587900	0.856600
H321	H32	0.017900	0.586700	0.819900
C861	C86	0.123700	0.544900	0.889800
H331	H33	0.085300	0.514700	0.874300
C871	C87	0.318800	0.683100	0.956400
C881	C88	0.097100	0.677800	0.838000
O451	O45	0.934400	0.180840	0.997700
O461	O46	0.763300	0.222970	0.934230
O471	O47	0.462500	0.198700	0.853900
O481	O48	0.677900	0.189670	0.789200
C891	C89	0.717800	0.046500	0.945600
C901	C90	0.779800	0.091300	0.966500
H341	H34	0.844800	0.092300	0.004000
C911	C91	0.747100	0.135100	0.932600
C921	C92	0.647700	0.133100	0.877700
C931	C93	0.585600	0.087900	0.856600
H351	H35	0.517900	0.086700	0.819900
C941	C94	0.623700	0.044900	0.889800
H361	H36	0.585300	0.014700	0.874300
C951	C95	0.818800	0.183100	0.956400
C961	C96	0.597100	0.177800	0.838000
O491	O49	0.934400	0.319160	0.502300
O501	O50	0.763300	0.277030	0.565770
O511	O51	0.462500	0.301300	0.646100
O521	O52	0.677900	0.310330	0.710800
C971	C97	0.717800	0.453500	0.554400
C981	C98	0.779800	0.408700	0.533500
H371	H37	0.844800	0.407700	0.496000
C991	C99	0.747100	0.364900	0.567400
C1001	C100	0.647700	0.366900	0.622300
C1011	C101	0.585600	0.412100	0.643400
H381	H38	0.517900	0.413300	0.680100
C1021	C102	0.623700	0.455100	0.610200
H391	H39	0.585300	0.485300	0.625700
C1031	C103	0.818800	0.316900	0.543600
C1041	C104	0.597100	0.322200	0.662000
O531	O53	0.434400	0.819160	0.502300
O541	O54	0.263300	0.777030	0.565770
O551	O55	0.962500	0.801300	0.646100
O561	O56	0.177900	0.810330	0.710800
C1051	C105	0.217800	0.953500	0.554400
C1061	C106	0.279800	0.908700	0.533500
H401	H40	0.344800	0.907700	0.496000
C1071	C107	0.247100	0.864900	0.567400
C1081	C108	0.147700	0.866900	0.622300
C1091	C109	0.085600	0.912100	0.643400
H411	H41	0.017900	0.913300	0.680100
C1101	C110	0.123700	0.955100	0.610200
H421	H42	0.085300	0.985300	0.625700
C1111	C111	0.318800	0.816900	0.543600
C1121	C112	0.097100	0.822200	0.662000
O571	O57	0.565600	0.680840	0.502300
O581	O58	0.736700	0.722970	0.565770
O591	O59	0.037500	0.698700	0.646100
O601	O60	0.822100	0.689670	0.710800
C1131	C113	0.782200	0.546500	0.554400
C1141	C114	0.720200	0.591300	0.533500
H431	H43	0.655200	0.592300	0.496000
C1151	C115	0.752900	0.635100	0.567400
C1161	C116	0.852300	0.633100	0.622300
C1171	C117	0.914400	0.587900	0.643400
H441	H44	0.982100	0.586700	0.680100
C1181	C118	0.876300	0.544900	0.610200
H451	H45	0.914700	0.514700	0.625700
C1191	C119	0.681200	0.683100	0.543600
C1201	C120	0.902900	0.677800	0.662000
O611	O61	0.065600	0.180840	0.502300
O621	O62	0.236700	0.222970	0.565770
O631	O63	0.537500	0.198700	0.646100
O641	O64	0.322100	0.189670	0.710800
C1211	C121	0.282200	0.046500	0.554400
C1221	C122	0.220200	0.091300	0.533500
H461	H46	0.155200	0.092300	0.496000
C1231	C123	0.252900	0.135100	0.567400
C1241	C124	0.352300	0.133100	0.622300
C1251	C125	0.414400	0.087900	0.643400
H471	H47	0.482100	0.086700	0.680100
C1261	C126	0.376300	0.044900	0.610200
H481	H48	0.414700	0.014700	0.625700
C1271	C127	0.181200	0.183100	0.543600
C1281	C128	0.402900	0.177800	0.662000
Cd11	Cd1	0.500000	0.750000	0.250000
Cd21	Cd2	0.000000	0.250000	0.250000
Cd31	Cd3	0.500000	0.250000	0.750000
Cd41	Cd4	0.000000	0.750000	0.750000
Cd51	Cd5	0.000000	0.750000	0.950700
Cd61	Cd6	0.500000	0.250000	0.950700
Cd71	Cd7	0.000000	0.750000	0.549300
Cd81	Cd8	0.500000	0.250000	0.549300
Cd91	Cd9	0.000000	0.250000	0.049300
Cd101	Cd10	0.500000	0.750000	0.049300
Cd111	Cd11	0.000000	0.250000	0.450700
Cd121	Cd12	0.500000	0.750000	0.450700
O651	O65	0.750000	0.500000	0.957300
C1291	C129	0.750000	0.500000	0.017000
O661	O66	0.250000	0.000000	0.957300
C1301	C130	0.250000	0.000000	0.017000
O671	O67	0.250000	0.500000	0.542700
C1311	C131	0.250000	0.500000	0.483000
O681	O68	0.750000	0.000000	0.542700
C1321	C132	0.750000	0.000000	0.483000
O691	O69	0.250000	0.500000	0.042700
C1331	C133	0.250000	0.500000	0.983000
O701	O70	0.750000	0.000000	0.042700
C1341	C134	0.750000	0.000000	0.983000
O711	O71	0.750000	0.500000	0.457300
C1351	C135	0.750000	0.500000	0.517000
O721	O72	0.250000	0.000000	0.457300
C1361	C136	0.250000	0.000000	0.517000
