data_ATOWIQ_freeONLY_PM
_symmetry_space_group_name_H-M	'P1'
_cell_length_a	13.822400
_cell_length_b	13.822400
_cell_length_c	14.376000
_cell_angle_alpha	61.918200
_cell_angle_beta	61.918200
_cell_angle_gamma	79.709900
_symmetry_Int_Tables_number 1

loop_
_symmetry_equiv_pos_as_xyz
'x,y,z'

loop_
_atom_site_label
_atom_site_type_symbol
_atom_site_fract_x
_atom_site_fract_y
_atom_site_fract_z
Zn11	Zn1	0.104390	0.895610	0.500000
Zn21	Zn2	0.895610	0.104390	0.500000
Zn31	Zn3	0.019340	0.019340	0.084970
Zn41	Zn4	0.980660	0.980660	0.915030
H11	H1	0.925900	0.742500	0.541000
H21	H2	0.069300	0.377700	0.884700
H31	H3	0.074100	0.563900	0.771500
H41	H4	0.958400	0.511000	0.596300
H51	H5	0.959500	0.325900	0.702200
H61	H6	0.184400	0.850800	0.693600
H71	H7	0.111600	0.829200	0.825000
H81	H8	0.086400	0.762200	0.775500
H91	H9	0.257500	0.074100	0.459000
H101	H10	0.622300	0.930700	0.115300
H111	H11	0.436100	0.925900	0.228500
H121	H12	0.489000	0.041600	0.403700
H131	H13	0.674100	0.040500	0.297800
H141	H14	0.149200	0.815600	0.306400
H151	H15	0.170800	0.888400	0.175000
H161	H16	0.237800	0.913600	0.224500
H171	H17	0.074100	0.257500	0.459000
H181	H18	0.930700	0.622300	0.115300
H191	H19	0.925900	0.436100	0.228500
H201	H20	0.041600	0.489000	0.403700
H211	H21	0.040500	0.674100	0.297800
H221	H22	0.815600	0.149200	0.306400
H231	H23	0.888400	0.170800	0.175000
H241	H24	0.913600	0.237800	0.224500
H251	H25	0.742500	0.925900	0.541000
H261	H26	0.377700	0.069300	0.884700
H271	H27	0.563900	0.074100	0.771500
H281	H28	0.511000	0.958400	0.596300
H291	H29	0.325900	0.959500	0.702200
H301	H30	0.850800	0.184400	0.693600
H311	H31	0.829200	0.111600	0.825000
H321	H32	0.762200	0.086400	0.775500
C11	C1	0.007500	0.209100	0.882500
C21	C2	0.014400	0.331800	0.806700
C31	C3	0.048500	0.403500	0.824500
C41	C4	0.053600	0.516000	0.754400
C51	C5	0.029800	0.557000	0.663800
C61	C6	0.986100	0.484100	0.651100
C71	C7	0.983000	0.373600	0.717300
C81	C8	0.038500	0.678300	0.585100
C91	C9	0.036900	0.917300	0.721000
C101	C10	0.111400	0.832400	0.756900
C111	C11	0.790900	0.992500	0.117500
C121	C12	0.668200	0.985600	0.193300
C131	C13	0.596500	0.951500	0.175500
C141	C14	0.484000	0.946400	0.245600
C151	C15	0.443000	0.970200	0.336200
C161	C16	0.515900	0.013900	0.348900
C171	C17	0.626400	0.017000	0.282700
C181	C18	0.321700	0.961500	0.414900
C191	C19	0.082700	0.963100	0.279000
C201	C20	0.167600	0.888600	0.243100
C211	C21	0.992500	0.790900	0.117500
C221	C22	0.985600	0.668200	0.193300
C231	C23	0.951500	0.596500	0.175500
C241	C24	0.946400	0.484000	0.245600
C251	C25	0.970200	0.443000	0.336200
C261	C26	0.013900	0.515900	0.348900
C271	C27	0.017000	0.626400	0.282700
C281	C28	0.961500	0.321700	0.414900
C291	C29	0.963100	0.082700	0.279000
C301	C30	0.888600	0.167600	0.243100
C311	C31	0.209100	0.007500	0.882500
C321	C32	0.331800	0.014400	0.806700
C331	C33	0.403500	0.048500	0.824500
C341	C34	0.516000	0.053600	0.754400
C351	C35	0.557000	0.029800	0.663800
C361	C36	0.484100	0.986100	0.651100
C371	C37	0.373600	0.983000	0.717300
C381	C38	0.678300	0.038500	0.585100
C391	C39	0.917300	0.036900	0.721000
C401	C40	0.832400	0.111400	0.756900
N11	N1	0.025000	0.949000	0.624100
N21	N2	0.051000	0.975000	0.375900
N31	N3	0.975000	0.051000	0.375900
N41	N4	0.949000	0.025000	0.624100
N51	N5	0.972200	0.972200	0.782300
N61	N6	0.027800	0.027800	0.217700
O11	O1	0.022100	0.177500	0.971800
O21	O2	0.987900	0.147700	0.850900
O31	O3	0.082700	0.736700	0.592400
O41	O4	0.989100	0.714300	0.523200
O51	O5	0.822500	0.977900	0.028200
O61	O6	0.852300	0.012100	0.149100
O71	O7	0.263300	0.917300	0.407600
O81	O8	0.285700	0.010900	0.476800
O91	O9	0.977900	0.822500	0.028200
O101	O10	0.012100	0.852300	0.149100
O111	O11	0.917300	0.263300	0.407600
O121	O12	0.010900	0.285700	0.476800
O131	O13	0.177500	0.022100	0.971800
O141	O14	0.147700	0.987900	0.850900
O151	O15	0.736700	0.082700	0.592400
O161	O16	0.714300	0.989100	0.523200
