data_ATULIM_freeONLY_PM
_symmetry_space_group_name_H-M	'P1'
_cell_length_a	15.982700
_cell_length_b	16.399400
_cell_length_c	6.241800
_cell_angle_alpha	90.000000
_cell_angle_beta	90.000000
_cell_angle_gamma	90.000000
_symmetry_Int_Tables_number 1

loop_
_symmetry_equiv_pos_as_xyz
'x,y,z'

loop_
_atom_site_label
_atom_site_type_symbol
_atom_site_fract_x
_atom_site_fract_y
_atom_site_fract_z
Zn11	Zn1	0.895220	0.649110	0.954460
Zn21	Zn2	0.845130	0.597210	0.455400
O11	O1	0.929600	0.604480	0.233500
O21	O2	0.236700	0.847400	0.390500
O31	O3	0.261300	0.891560	0.060900
O41	O4	0.893760	0.566080	0.734600
O51	O5	0.667300	0.250500	0.885900
O61	O6	0.618900	0.228060	0.557800
N11	N1	0.014680	0.705830	0.978700
N21	N2	0.795970	0.477560	0.478800
C11	C1	0.011000	0.623700	0.301200
H11	H1	0.046000	0.575600	0.288900
H21	H2	0.009600	0.639600	0.450900
C21	C2	0.048700	0.692200	0.170200
C31	C3	0.116100	0.738900	0.244600
H31	H3	0.138000	0.730000	0.380600
C41	C4	0.149300	0.798000	0.114100
C51	C5	0.116900	0.808600	0.908600
H41	H4	0.141000	0.845500	0.813700
C61	C6	0.048200	0.763000	0.850200
H51	H5	0.024100	0.772100	0.716700
C71	C7	0.221400	0.850300	0.191600
C81	C8	0.880100	0.485000	0.801300
H61	H6	0.863800	0.484700	0.951000
H71	H7	0.931900	0.454500	0.788400
C91	C9	0.813200	0.443900	0.670300
C101	C10	0.771500	0.374200	0.740200
H81	H8	0.783400	0.351900	0.873600
C111	C11	0.712400	0.338900	0.609300
C121	C12	0.697300	0.371800	0.407100
H91	H9	0.659500	0.347300	0.313500
C131	C13	0.739900	0.441600	0.350000
H101	H10	0.729300	0.464700	0.216700
C141	C14	0.662600	0.266100	0.687400
Zn31	Zn3	0.104780	0.350890	0.954460
Zn41	Zn4	0.154870	0.402790	0.455400
O71	O7	0.070400	0.395520	0.233500
O81	O8	0.763300	0.152600	0.390500
O91	O9	0.738700	0.108440	0.060900
O101	O10	0.106240	0.433920	0.734600
O111	O11	0.332700	0.749500	0.885900
O121	O12	0.381100	0.771940	0.557800
N31	N3	0.985320	0.294170	0.978700
N41	N4	0.204030	0.522440	0.478800
C151	C15	0.989000	0.376300	0.301200
H111	H11	0.954000	0.424400	0.288900
H121	H12	0.990400	0.360400	0.450900
C161	C16	0.951300	0.307800	0.170200
C171	C17	0.883900	0.261100	0.244600
H131	H13	0.862000	0.270000	0.380600
C181	C18	0.850700	0.202000	0.114100
C191	C19	0.883100	0.191400	0.908600
H141	H14	0.859000	0.154500	0.813700
C201	C20	0.951800	0.237000	0.850200
H151	H15	0.975900	0.227900	0.716700
C211	C21	0.778600	0.149700	0.191600
C221	C22	0.119900	0.515000	0.801300
H161	H16	0.136200	0.515300	0.951000
H171	H17	0.068100	0.545500	0.788400
C231	C23	0.186800	0.556100	0.670300
C241	C24	0.228500	0.625800	0.740200
H181	H18	0.216600	0.648100	0.873600
C251	C25	0.287600	0.661100	0.609300
C261	C26	0.302700	0.628200	0.407100
H191	H19	0.340500	0.652700	0.313500
C271	C27	0.260100	0.558400	0.350000
H201	H20	0.270700	0.535300	0.216700
C281	C28	0.337400	0.733900	0.687400
Zn51	Zn5	0.395220	0.850890	0.954460
Zn61	Zn6	0.345130	0.902790	0.455400
O131	O13	0.429600	0.895520	0.233500
O141	O14	0.736700	0.652600	0.390500
O151	O15	0.761300	0.608440	0.060900
O161	O16	0.393760	0.933920	0.734600
O171	O17	0.167300	0.249500	0.885900
O181	O18	0.118900	0.271940	0.557800
N51	N5	0.514680	0.794170	0.978700
N61	N6	0.295970	0.022440	0.478800
C291	C29	0.511000	0.876300	0.301200
H211	H21	0.546000	0.924400	0.288900
H221	H22	0.509600	0.860400	0.450900
C301	C30	0.548700	0.807800	0.170200
C311	C31	0.616100	0.761100	0.244600
H231	H23	0.638000	0.770000	0.380600
C321	C32	0.649300	0.702000	0.114100
C331	C33	0.616900	0.691400	0.908600
H241	H24	0.641000	0.654500	0.813700
C341	C34	0.548200	0.737000	0.850200
H251	H25	0.524100	0.727900	0.716700
C351	C35	0.721400	0.649700	0.191600
C361	C36	0.380100	0.015000	0.801300
H261	H26	0.363800	0.015300	0.951000
H271	H27	0.431900	0.045500	0.788400
C371	C37	0.313200	0.056100	0.670300
C381	C38	0.271500	0.125800	0.740200
H281	H28	0.283400	0.148100	0.873600
C391	C39	0.212400	0.161100	0.609300
C401	C40	0.197300	0.128200	0.407100
H291	H29	0.159500	0.152700	0.313500
C411	C41	0.239900	0.058400	0.350000
H301	H30	0.229300	0.035300	0.216700
C421	C42	0.162600	0.233900	0.687400
Zn71	Zn7	0.604780	0.149110	0.954460
Zn81	Zn8	0.654870	0.097210	0.455400
O191	O19	0.570400	0.104480	0.233500
O201	O20	0.263300	0.347400	0.390500
O211	O21	0.238700	0.391560	0.060900
O221	O22	0.606240	0.066080	0.734600
O231	O23	0.832700	0.750500	0.885900
O241	O24	0.881100	0.728060	0.557800
N71	N7	0.485320	0.205830	0.978700
N81	N8	0.704030	0.977560	0.478800
C431	C43	0.489000	0.123700	0.301200
H311	H31	0.454000	0.075600	0.288900
H321	H32	0.490400	0.139600	0.450900
C441	C44	0.451300	0.192200	0.170200
C451	C45	0.383900	0.238900	0.244600
H331	H33	0.362000	0.230000	0.380600
C461	C46	0.350700	0.298000	0.114100
C471	C47	0.383100	0.308600	0.908600
H341	H34	0.359000	0.345500	0.813700
C481	C48	0.451800	0.263000	0.850200
H351	H35	0.475900	0.272100	0.716700
C491	C49	0.278600	0.350300	0.191600
C501	C50	0.619900	0.985000	0.801300
H361	H36	0.636200	0.984700	0.951000
H371	H37	0.568100	0.954500	0.788400
C511	C51	0.686800	0.943900	0.670300
C521	C52	0.728500	0.874200	0.740200
H381	H38	0.716600	0.851900	0.873600
C531	C53	0.787600	0.838900	0.609300
C541	C54	0.802700	0.871800	0.407100
H391	H39	0.840500	0.847300	0.313500
C551	C55	0.760100	0.941600	0.350000
H401	H40	0.770700	0.964700	0.216700
C561	C56	0.837400	0.766100	0.687400
