data_AVELOD_freeONLY_PM
_symmetry_space_group_name_H-M	'P1'
_cell_length_a	13.756100
_cell_length_b	13.756100
_cell_length_c	25.530600
_cell_angle_alpha	90.000000
_cell_angle_beta	90.000000
_cell_angle_gamma	90.000000
_symmetry_Int_Tables_number 1

loop_
_symmetry_equiv_pos_as_xyz
'x,y,z'

loop_
_atom_site_label
_atom_site_type_symbol
_atom_site_fract_x
_atom_site_fract_y
_atom_site_fract_z
Cu11	Cu1	0.906610	0.750740	0.523730
Cu21	Cu2	0.093390	0.249260	0.523730
Cu31	Cu3	0.250740	0.406610	0.976270
Cu41	Cu4	0.749260	0.593390	0.976270
H11	H1	0.802900	0.797300	0.442900
H21	H2	0.953900	0.743400	0.400300
H31	H3	0.919100	0.943700	0.394600
H41	H4	0.982300	0.883800	0.355000
H51	H5	0.869800	0.866600	0.358000
H61	H6	0.878600	0.755700	0.637900
H71	H7	0.942600	0.693200	0.713400
H81	H8	0.148500	0.567300	0.627300
H91	H9	0.074700	0.632700	0.552700
H101	H10	0.154000	0.538500	0.720000
H111	H11	0.697400	0.800200	0.541400
H121	H12	0.555000	0.733400	0.554200
H131	H13	0.691900	0.473200	0.561800
H141	H14	0.835100	0.557200	0.547100
H151	H15	0.453300	0.586100	0.571100
H161	H16	0.197100	0.202700	0.442900
H171	H17	0.046100	0.256600	0.400300
H181	H18	0.080900	0.056300	0.394600
H191	H19	0.017700	0.116200	0.355000
H201	H20	0.130200	0.133400	0.358000
H211	H21	0.121400	0.244300	0.637900
H221	H22	0.057400	0.306800	0.713400
H231	H23	0.851500	0.432700	0.627300
H241	H24	0.925300	0.367300	0.552700
H251	H25	0.846000	0.461500	0.720000
H261	H26	0.302600	0.199800	0.541400
H271	H27	0.445000	0.266600	0.554200
H281	H28	0.308100	0.526800	0.561800
H291	H29	0.164900	0.442800	0.547100
H301	H30	0.546700	0.413900	0.571100
H311	H31	0.297300	0.302900	0.057100
H321	H32	0.243400	0.453900	0.099700
H331	H33	0.443700	0.419100	0.105400
H341	H34	0.383800	0.482300	0.145000
H351	H35	0.366600	0.369800	0.142000
H361	H36	0.255700	0.378600	0.862100
H371	H37	0.193200	0.442600	0.786600
H381	H38	0.067300	0.648500	0.872700
H391	H39	0.132700	0.574700	0.947300
H401	H40	0.038500	0.654000	0.780000
H411	H41	0.300200	0.197400	0.958600
H421	H42	0.233400	0.055000	0.945800
H431	H43	0.973200	0.191900	0.938200
H441	H44	0.057200	0.335100	0.952900
H451	H45	0.086100	0.953300	0.928900
H461	H46	0.702700	0.697100	0.057100
H471	H47	0.756600	0.546100	0.099700
H481	H48	0.556300	0.580900	0.105400
H491	H49	0.616200	0.517700	0.145000
H501	H50	0.633400	0.630200	0.142000
H511	H51	0.744300	0.621400	0.862100
H521	H52	0.806800	0.557400	0.786600
H531	H53	0.932700	0.351500	0.872700
H541	H54	0.867300	0.425300	0.947300
H551	H55	0.961500	0.346000	0.780000
H561	H56	0.699800	0.802600	0.958600
H571	H57	0.766600	0.945000	0.945800
H581	H58	0.026800	0.808100	0.938200
H591	H59	0.942800	0.664900	0.952900
H601	H60	0.913900	0.046700	0.928900
C11	C1	0.039500	0.828900	0.451300
C21	C2	0.942500	0.804800	0.418800
C31	C3	0.927000	0.881600	0.377900
C41	C4	0.933400	0.716300	0.635700
C51	C5	0.972000	0.680100	0.681400
C61	C6	0.056800	0.622700	0.679000
C71	C7	0.093100	0.605500	0.630900
C81	C8	0.048000	0.645000	0.585600
C91	C9	0.104200	0.583000	0.725500
C101	C10	0.695800	0.733000	0.544900
C111	C11	0.610300	0.694500	0.553400
C121	C12	0.603100	0.594300	0.561500
C131	C13	0.691400	0.540400	0.557900
C141	C14	0.777100	0.591900	0.548200
C151	C15	0.507400	0.546200	0.567200
C161	C16	0.960500	0.171100	0.451300
C171	C17	0.057500	0.195200	0.418800
C181	C18	0.073000	0.118400	0.377900
C191	C19	0.066600	0.283700	0.635700
C201	C20	0.028000	0.319900	0.681400
C211	C21	0.943200	0.377300	0.679000
C221	C22	0.906900	0.394500	0.630900
C231	C23	0.952000	0.355000	0.585600
C241	C24	0.895800	0.417000	0.725500
C251	C25	0.304200	0.267000	0.544900
C261	C26	0.389700	0.305500	0.553400
C271	C27	0.396900	0.405700	0.561500
C281	C28	0.308600	0.459600	0.557900
C291	C29	0.222900	0.408100	0.548200
C301	C30	0.492600	0.453800	0.567200
C311	C31	0.328900	0.539500	0.048700
C321	C32	0.304800	0.442500	0.081200
C331	C33	0.381600	0.427000	0.122100
C341	C34	0.216300	0.433400	0.864300
C351	C35	0.180100	0.472000	0.818600
C361	C36	0.122700	0.556800	0.821000
C371	C37	0.105500	0.593100	0.869100
C381	C38	0.145000	0.548000	0.914400
C391	C39	0.083000	0.604200	0.774500
C401	C40	0.233000	0.195800	0.955100
C411	C41	0.194500	0.110300	0.946600
C421	C42	0.094300	0.103100	0.938500
C431	C43	0.040400	0.191400	0.942100
C441	C44	0.091900	0.277100	0.951800
C451	C45	0.046200	0.007400	0.932800
C461	C46	0.671100	0.460500	0.048700
C471	C47	0.695200	0.557500	0.081200
C481	C48	0.618400	0.573000	0.122100
C491	C49	0.783700	0.566600	0.864300
C501	C50	0.819900	0.528000	0.818600
C511	C51	0.877300	0.443200	0.821000
C521	C52	0.894500	0.406900	0.869100
C531	C53	0.855000	0.452000	0.914400
C541	C54	0.917000	0.395800	0.774500
C551	C55	0.767000	0.804200	0.955100
C561	C56	0.805500	0.889700	0.946600
C571	C57	0.905700	0.896900	0.938500
C581	C58	0.959600	0.808600	0.942100
C591	C59	0.908100	0.722900	0.951800
C601	C60	0.953800	0.992600	0.932800
N11	N1	0.969600	0.698400	0.589200
N21	N2	0.780900	0.687300	0.540500
N31	N3	0.862600	0.790200	0.452000
N41	N4	0.030400	0.301600	0.589200
N51	N5	0.219100	0.312700	0.540500
N61	N6	0.137400	0.209800	0.452000
N71	N7	0.198400	0.469600	0.910800
N81	N8	0.187300	0.280900	0.959500
N91	N9	0.290200	0.362600	0.048000
N101	N10	0.801600	0.530400	0.910800
N111	N11	0.812700	0.719100	0.959500
N121	N12	0.709800	0.637400	0.048000
O11	O1	0.030300	0.798300	0.499300
O21	O2	0.109400	0.863900	0.431800
O31	O3	0.969700	0.201700	0.499300
O41	O4	0.890600	0.136100	0.431800
O51	O5	0.298300	0.530300	0.000700
O61	O6	0.363900	0.609400	0.068200
O71	O7	0.701700	0.469700	0.000700
O81	O8	0.636100	0.390600	0.068200
Cu51	Cu5	0.750740	0.093390	0.476270
Cu61	Cu6	0.249260	0.906610	0.476270
Cu71	Cu7	0.406610	0.749260	0.023730
Cu81	Cu8	0.593390	0.250740	0.023730
H611	H61	0.797300	0.197100	0.557100
H621	H62	0.743400	0.046100	0.599700
H631	H63	0.943700	0.080900	0.605400
H641	H64	0.883800	0.017700	0.645000
H651	H65	0.866600	0.130200	0.642000
H661	H66	0.755700	0.121400	0.362100
H671	H67	0.693200	0.057400	0.286600
H681	H68	0.567300	0.851500	0.372700
H691	H69	0.632700	0.925300	0.447300
H701	H70	0.538500	0.846000	0.280000
H711	H71	0.800200	0.302600	0.458600
H721	H72	0.733400	0.445000	0.445800
H731	H73	0.473200	0.308100	0.438200
H741	H74	0.557200	0.164900	0.452900
H751	H75	0.586100	0.546700	0.428900
H761	H76	0.202700	0.802900	0.557100
H771	H77	0.256600	0.953900	0.599700
H781	H78	0.056300	0.919100	0.605400
H791	H79	0.116200	0.982300	0.645000
H801	H80	0.133400	0.869800	0.642000
H811	H81	0.244300	0.878600	0.362100
H821	H82	0.306800	0.942600	0.286600
H831	H83	0.432700	0.148500	0.372700
H841	H84	0.367300	0.074700	0.447300
H851	H85	0.461500	0.154000	0.280000
H861	H86	0.199800	0.697400	0.458600
H871	H87	0.266600	0.555000	0.445800
H881	H88	0.526800	0.691900	0.438200
H891	H89	0.442800	0.835100	0.452900
H901	H90	0.413900	0.453300	0.428900
H911	H91	0.302900	0.702700	0.942900
H921	H92	0.453900	0.756600	0.900300
H931	H93	0.419100	0.556300	0.894600
H941	H94	0.482300	0.616200	0.855000
H951	H95	0.369800	0.633400	0.858000
H961	H96	0.378600	0.744300	0.137900
H971	H97	0.442600	0.806800	0.213400
H981	H98	0.648500	0.932700	0.127300
H991	H99	0.574700	0.867300	0.052700
H1001	H100	0.654000	0.961500	0.220000
H1011	H101	0.197400	0.699800	0.041400
H1021	H102	0.055000	0.766600	0.054200
H1031	H103	0.191900	0.026800	0.061800
H1041	H104	0.335100	0.942800	0.047100
H1051	H105	0.953300	0.913900	0.071100
H1061	H106	0.697100	0.297300	0.942900
H1071	H107	0.546100	0.243400	0.900300
H1081	H108	0.580900	0.443700	0.894600
H1091	H109	0.517700	0.383800	0.855000
H1101	H110	0.630200	0.366600	0.858000
H1111	H111	0.621400	0.255700	0.137900
H1121	H112	0.557400	0.193200	0.213400
H1131	H113	0.351500	0.067300	0.127300
H1141	H114	0.425300	0.132700	0.052700
H1151	H115	0.346000	0.038500	0.220000
H1161	H116	0.802600	0.300200	0.041400
H1171	H117	0.945000	0.233400	0.054200
H1181	H118	0.808100	0.973200	0.061800
H1191	H119	0.664900	0.057200	0.047100
H1201	H120	0.046700	0.086100	0.071100
C611	C61	0.828900	0.960500	0.548700
C621	C62	0.804800	0.057500	0.581200
C631	C63	0.881600	0.073000	0.622100
C641	C64	0.716300	0.066600	0.364300
C651	C65	0.680100	0.028000	0.318600
C661	C66	0.622700	0.943200	0.321000
C671	C67	0.605500	0.906900	0.369100
C681	C68	0.645000	0.952000	0.414400
C691	C69	0.583000	0.895800	0.274500
C701	C70	0.733000	0.304200	0.455100
C711	C71	0.694500	0.389700	0.446600
C721	C72	0.594300	0.396900	0.438500
C731	C73	0.540400	0.308600	0.442100
C741	C74	0.591900	0.222900	0.451800
C751	C75	0.546200	0.492600	0.432800
C761	C76	0.171100	0.039500	0.548700
C771	C77	0.195200	0.942500	0.581200
C781	C78	0.118400	0.927000	0.622100
C791	C79	0.283700	0.933400	0.364300
C801	C80	0.319900	0.972000	0.318600
C811	C81	0.377300	0.056800	0.321000
C821	C82	0.394500	0.093100	0.369100
C831	C83	0.355000	0.048000	0.414400
C841	C84	0.417000	0.104200	0.274500
C851	C85	0.267000	0.695800	0.455100
C861	C86	0.305500	0.610300	0.446600
C871	C87	0.405700	0.603100	0.438500
C881	C88	0.459600	0.691400	0.442100
C891	C89	0.408100	0.777100	0.451800
C901	C90	0.453800	0.507400	0.432800
C911	C91	0.539500	0.671100	0.951300
C921	C92	0.442500	0.695200	0.918800
C931	C93	0.427000	0.618400	0.877900
C941	C94	0.433400	0.783700	0.135700
C951	C95	0.472000	0.819900	0.181400
C961	C96	0.556800	0.877300	0.179000
C971	C97	0.593100	0.894500	0.130900
C981	C98	0.548000	0.855000	0.085600
C991	C99	0.604200	0.917000	0.225500
C1001	C100	0.195800	0.767000	0.044900
C1011	C101	0.110300	0.805500	0.053400
C1021	C102	0.103100	0.905700	0.061500
C1031	C103	0.191400	0.959600	0.057900
C1041	C104	0.277100	0.908100	0.048200
C1051	C105	0.007400	0.953800	0.067200
C1061	C106	0.460500	0.328900	0.951300
C1071	C107	0.557500	0.304800	0.918800
C1081	C108	0.573000	0.381600	0.877900
C1091	C109	0.566600	0.216300	0.135700
C1101	C110	0.528000	0.180100	0.181400
C1111	C111	0.443200	0.122700	0.179000
C1121	C112	0.406900	0.105500	0.130900
C1131	C113	0.452000	0.145000	0.085600
C1141	C114	0.395800	0.083000	0.225500
C1151	C115	0.804200	0.233000	0.044900
C1161	C116	0.889700	0.194500	0.053400
C1171	C117	0.896900	0.094300	0.061500
C1181	C118	0.808600	0.040400	0.057900
C1191	C119	0.722900	0.091900	0.048200
C1201	C120	0.992600	0.046200	0.067200
N131	N13	0.698400	0.030400	0.410800
N141	N14	0.687300	0.219100	0.459500
N151	N15	0.790200	0.137400	0.548000
N161	N16	0.301600	0.969600	0.410800
N171	N17	0.312700	0.780900	0.459500
N181	N18	0.209800	0.862600	0.548000
N191	N19	0.469600	0.801600	0.089200
N201	N20	0.280900	0.812700	0.040500
N211	N21	0.362600	0.709800	0.952000
N221	N22	0.530400	0.198400	0.089200
N231	N23	0.719100	0.187300	0.040500
N241	N24	0.637400	0.290200	0.952000
O91	O9	0.798300	0.969700	0.500700
O101	O10	0.863900	0.890600	0.568200
O111	O11	0.201700	0.030300	0.500700
O121	O12	0.136100	0.109400	0.568200
O131	O13	0.530300	0.701700	0.999300
O141	O14	0.609400	0.636100	0.931800
O151	O15	0.469700	0.298300	0.999300
O161	O16	0.390600	0.363900	0.931800
