data_AVIMIC_freeONLY_PM
_symmetry_space_group_name_H-M	'P1'
_cell_length_a	23.482000
_cell_length_b	16.723100
_cell_length_c	7.706600
_cell_angle_alpha	90.000000
_cell_angle_beta	104.716000
_cell_angle_gamma	90.000000
_symmetry_Int_Tables_number 1

loop_
_symmetry_equiv_pos_as_xyz
'x,y,z'

loop_
_atom_site_label
_atom_site_type_symbol
_atom_site_fract_x
_atom_site_fract_y
_atom_site_fract_z
C11	C1	0.706670	0.096000	0.248300
C21	C2	0.685950	0.166400	0.331700
C31	C3	0.693620	0.241400	0.268900
H11	H1	0.709500	0.247800	0.170900
C41	C4	0.677470	0.307300	0.352600
C51	C5	0.652690	0.298600	0.496600
H21	H2	0.641600	0.343400	0.551400
C61	C6	0.644600	0.222700	0.558500
C71	C7	0.661300	0.156400	0.477100
H31	H3	0.656300	0.105400	0.518900
C81	C8	0.689100	0.389000	0.290000
C91	C9	0.605900	0.142900	0.754500
H41	H4	0.641600	0.111400	0.793800
H51	H5	0.580000	0.115800	0.653600
C101	C10	0.575900	0.150700	0.906500
C111	C11	0.570260	0.082100	0.999600
H61	H6	0.586400	0.034500	0.971900
C121	C12	0.541090	0.083400	0.132600
H71	H7	0.537600	0.036300	0.193400
C131	C13	0.516830	0.152600	0.178200
C141	C14	0.523300	0.222500	0.087500
H81	H8	0.508000	0.270400	0.117200
C151	C15	0.552890	0.220600	0.951500
H91	H9	0.557000	0.267400	0.890800
O11	O1	0.727020	0.107440	0.115500
O21	O2	0.703290	0.026590	0.314000
O31	O3	0.701460	0.394300	0.141700
O41	O4	0.685560	0.447290	0.391100
O51	O5	0.620010	0.219700	0.701200
Zn11	Zn1	0.764250	0.031950	0.991180
C161	C16	0.206670	0.596000	0.248300
C171	C17	0.185950	0.666400	0.331700
C181	C18	0.193620	0.741400	0.268900
H101	H10	0.209500	0.747800	0.170900
C191	C19	0.177470	0.807300	0.352600
C201	C20	0.152690	0.798600	0.496600
H111	H11	0.141600	0.843400	0.551400
C211	C21	0.144600	0.722700	0.558500
C221	C22	0.161300	0.656400	0.477100
H121	H12	0.156300	0.605400	0.518900
C231	C23	0.189100	0.889000	0.290000
C241	C24	0.105900	0.642900	0.754500
H131	H13	0.141600	0.611400	0.793800
H141	H14	0.080000	0.615800	0.653600
C251	C25	0.075900	0.650700	0.906500
C261	C26	0.070260	0.582100	0.999600
H151	H15	0.086400	0.534500	0.971900
C271	C27	0.041090	0.583400	0.132600
H161	H16	0.037600	0.536300	0.193400
C281	C28	0.016830	0.652600	0.178200
C291	C29	0.023300	0.722500	0.087500
H171	H17	0.008000	0.770400	0.117200
C301	C30	0.052890	0.720600	0.951500
H181	H18	0.057000	0.767400	0.890800
O61	O6	0.227020	0.607440	0.115500
O71	O7	0.203290	0.526590	0.314000
O81	O8	0.201460	0.894300	0.141700
O91	O9	0.185560	0.947290	0.391100
O101	O10	0.120010	0.719700	0.701200
Zn21	Zn2	0.264250	0.531950	0.991180
C311	C31	0.293330	0.096000	0.251700
C321	C32	0.314050	0.166400	0.168300
C331	C33	0.306380	0.241400	0.231100
H191	H19	0.290500	0.247800	0.329100
C341	C34	0.322530	0.307300	0.147400
C351	C35	0.347310	0.298600	0.003400
H201	H20	0.358400	0.343400	0.948600
C361	C36	0.355400	0.222700	0.941500
C371	C37	0.338700	0.156400	0.022900
H211	H21	0.343700	0.105400	0.981100
C381	C38	0.310900	0.389000	0.210000
C391	C39	0.394100	0.142900	0.745500
H221	H22	0.358400	0.111400	0.706200
H231	H23	0.420000	0.115800	0.846400
C401	C40	0.424100	0.150700	0.593500
C411	C41	0.429740	0.082100	0.500400
H241	H24	0.413600	0.034500	0.528100
C421	C42	0.458910	0.083400	0.367400
H251	H25	0.462400	0.036300	0.306600
C431	C43	0.483170	0.152600	0.321800
C441	C44	0.476700	0.222500	0.412500
H261	H26	0.492000	0.270400	0.382800
C451	C45	0.447110	0.220600	0.548500
H271	H27	0.443000	0.267400	0.609200
O111	O11	0.272980	0.107440	0.384500
O121	O12	0.296710	0.026590	0.186000
O131	O13	0.298540	0.394300	0.358300
O141	O14	0.314440	0.447290	0.108900
O151	O15	0.379990	0.219700	0.798800
Zn31	Zn3	0.235750	0.031950	0.508820
C461	C46	0.793330	0.596000	0.251700
C471	C47	0.814050	0.666400	0.168300
C481	C48	0.806380	0.741400	0.231100
H281	H28	0.790500	0.747800	0.329100
C491	C49	0.822530	0.807300	0.147400
C501	C50	0.847310	0.798600	0.003400
H291	H29	0.858400	0.843400	0.948600
C511	C51	0.855400	0.722700	0.941500
C521	C52	0.838700	0.656400	0.022900
H301	H30	0.843700	0.605400	0.981100
C531	C53	0.810900	0.889000	0.210000
C541	C54	0.894100	0.642900	0.745500
H311	H31	0.858400	0.611400	0.706200
H321	H32	0.920000	0.615800	0.846400
C551	C55	0.924100	0.650700	0.593500
C561	C56	0.929740	0.582100	0.500400
H331	H33	0.913600	0.534500	0.528100
C571	C57	0.958910	0.583400	0.367400
H341	H34	0.962400	0.536300	0.306600
C581	C58	0.983170	0.652600	0.321800
C591	C59	0.976700	0.722500	0.412500
H351	H35	0.992000	0.770400	0.382800
C601	C60	0.947110	0.720600	0.548500
H361	H36	0.943000	0.767400	0.609200
O161	O16	0.772980	0.607440	0.384500
O171	O17	0.796710	0.526590	0.186000
O181	O18	0.798540	0.894300	0.358300
O191	O19	0.814440	0.947290	0.108900
O201	O20	0.879990	0.719700	0.798800
Zn41	Zn4	0.735750	0.531950	0.508820
C611	C61	0.293330	0.904000	0.751700
C621	C62	0.314050	0.833600	0.668300
C631	C63	0.306380	0.758600	0.731100
H371	H37	0.290500	0.752200	0.829100
C641	C64	0.322530	0.692700	0.647400
C651	C65	0.347310	0.701400	0.503400
H381	H38	0.358400	0.656600	0.448600
C661	C66	0.355400	0.777300	0.441500
C671	C67	0.338700	0.843600	0.522900
H391	H39	0.343700	0.894600	0.481100
C681	C68	0.310900	0.611000	0.710000
C691	C69	0.394100	0.857100	0.245500
H401	H40	0.358400	0.888600	0.206200
H411	H41	0.420000	0.884200	0.346400
C701	C70	0.424100	0.849300	0.093500
C711	C71	0.429740	0.917900	0.000400
H421	H42	0.413600	0.965500	0.028100
C721	C72	0.458910	0.916600	0.867400
H431	H43	0.462400	0.963700	0.806600
C731	C73	0.483170	0.847400	0.821800
C741	C74	0.476700	0.777500	0.912500
H441	H44	0.492000	0.729600	0.882800
C751	C75	0.447110	0.779400	0.048500
H451	H45	0.443000	0.732600	0.109200
O211	O21	0.272980	0.892560	0.884500
O221	O22	0.296710	0.973410	0.686000
O231	O23	0.298540	0.605700	0.858300
O241	O24	0.314440	0.552710	0.608900
O251	O25	0.379990	0.780300	0.298800
Zn51	Zn5	0.235750	0.968050	0.008820
C761	C76	0.793330	0.404000	0.751700
C771	C77	0.814050	0.333600	0.668300
C781	C78	0.806380	0.258600	0.731100
H461	H46	0.790500	0.252200	0.829100
C791	C79	0.822530	0.192700	0.647400
C801	C80	0.847310	0.201400	0.503400
H471	H47	0.858400	0.156600	0.448600
C811	C81	0.855400	0.277300	0.441500
C821	C82	0.838700	0.343600	0.522900
H481	H48	0.843700	0.394600	0.481100
C831	C83	0.810900	0.111000	0.710000
C841	C84	0.894100	0.357100	0.245500
H491	H49	0.858400	0.388600	0.206200
H501	H50	0.920000	0.384200	0.346400
C851	C85	0.924100	0.349300	0.093500
C861	C86	0.929740	0.417900	0.000400
H511	H51	0.913600	0.465500	0.028100
C871	C87	0.958910	0.416600	0.867400
H521	H52	0.962400	0.463700	0.806600
C881	C88	0.983170	0.347400	0.821800
C891	C89	0.976700	0.277500	0.912500
H531	H53	0.992000	0.229600	0.882800
C901	C90	0.947110	0.279400	0.048500
H541	H54	0.943000	0.232600	0.109200
O261	O26	0.772980	0.392560	0.884500
O271	O27	0.796710	0.473410	0.686000
O281	O28	0.798540	0.105700	0.858300
O291	O29	0.814440	0.052710	0.608900
O301	O30	0.879990	0.280300	0.298800
Zn61	Zn6	0.735750	0.468050	0.008820
C911	C91	0.706670	0.904000	0.748300
C921	C92	0.685950	0.833600	0.831700
C931	C93	0.693620	0.758600	0.768900
H551	H55	0.709500	0.752200	0.670900
C941	C94	0.677470	0.692700	0.852600
C951	C95	0.652690	0.701400	0.996600
H561	H56	0.641600	0.656600	0.051400
C961	C96	0.644600	0.777300	0.058500
C971	C97	0.661300	0.843600	0.977100
H571	H57	0.656300	0.894600	0.018900
C981	C98	0.689100	0.611000	0.790000
C991	C99	0.605900	0.857100	0.254500
H581	H58	0.641600	0.888600	0.293800
H591	H59	0.580000	0.884200	0.153600
C1001	C100	0.575900	0.849300	0.406500
C1011	C101	0.570260	0.917900	0.499600
H601	H60	0.586400	0.965500	0.471900
C1021	C102	0.541090	0.916600	0.632600
H611	H61	0.537600	0.963700	0.693400
C1031	C103	0.516830	0.847400	0.678200
C1041	C104	0.523300	0.777500	0.587500
H621	H62	0.508000	0.729600	0.617200
C1051	C105	0.552890	0.779400	0.451500
H631	H63	0.557000	0.732600	0.390800
O311	O31	0.727020	0.892560	0.615500
O321	O32	0.703290	0.973410	0.814000
O331	O33	0.701460	0.605700	0.641700
O341	O34	0.685560	0.552710	0.891100
O351	O35	0.620010	0.780300	0.201200
Zn71	Zn7	0.764250	0.968050	0.491180
C1061	C106	0.206670	0.404000	0.748300
C1071	C107	0.185950	0.333600	0.831700
C1081	C108	0.193620	0.258600	0.768900
H641	H64	0.209500	0.252200	0.670900
C1091	C109	0.177470	0.192700	0.852600
C1101	C110	0.152690	0.201400	0.996600
H651	H65	0.141600	0.156600	0.051400
C1111	C111	0.144600	0.277300	0.058500
C1121	C112	0.161300	0.343600	0.977100
H661	H66	0.156300	0.394600	0.018900
C1131	C113	0.189100	0.111000	0.790000
C1141	C114	0.105900	0.357100	0.254500
H671	H67	0.141600	0.388600	0.293800
H681	H68	0.080000	0.384200	0.153600
C1151	C115	0.075900	0.349300	0.406500
C1161	C116	0.070260	0.417900	0.499600
H691	H69	0.086400	0.465500	0.471900
C1171	C117	0.041090	0.416600	0.632600
H701	H70	0.037600	0.463700	0.693400
C1181	C118	0.016830	0.347400	0.678200
C1191	C119	0.023300	0.277500	0.587500
H711	H71	0.008000	0.229600	0.617200
C1201	C120	0.052890	0.279400	0.451500
H721	H72	0.057000	0.232600	0.390800
O361	O36	0.227020	0.392560	0.615500
O371	O37	0.203290	0.473410	0.814000
O381	O38	0.201460	0.105700	0.641700
O391	O39	0.185560	0.052710	0.891100
O401	O40	0.120010	0.280300	0.201200
Zn81	Zn8	0.264250	0.468050	0.491180
