data_AVIMOI_freeONLY_PM
_symmetry_space_group_name_H-M	'P1'
_cell_length_a	9.324300
_cell_length_b	14.453500
_cell_length_c	26.939000
_cell_angle_alpha	90.000000
_cell_angle_beta	90.000000
_cell_angle_gamma	93.068000
_symmetry_Int_Tables_number 1

loop_
_symmetry_equiv_pos_as_xyz
'x,y,z'

loop_
_atom_site_label
_atom_site_type_symbol
_atom_site_fract_x
_atom_site_fract_y
_atom_site_fract_z
Zn11	Zn1	0.647650	0.121810	0.320960
Zn21	Zn2	0.967670	0.111930	0.379600
Zn31	Zn3	0.352350	0.378190	0.820960
Zn41	Zn4	0.032330	0.388070	0.879600
Zn51	Zn5	0.352350	0.878190	0.679040
Zn61	Zn6	0.032330	0.888070	0.620400
Zn71	Zn7	0.647650	0.621810	0.179040
Zn81	Zn8	0.967670	0.611930	0.120400
H11	H1	0.104100	0.347200	0.364900
H21	H2	0.160800	0.560700	0.269200
H31	H3	0.807800	0.388000	0.260300
H41	H4	0.336700	0.372100	0.371800
H51	H5	0.259800	0.436300	0.409600
H61	H6	0.603100	0.394400	0.361200
H71	H7	0.813900	0.465000	0.389400
H81	H8	0.607100	0.652400	0.467600
H91	H9	0.411800	0.550200	0.456300
H101	H10	0.004700	0.521600	0.415900
H111	H11	0.204000	0.617200	0.433100
H121	H12	0.001100	0.764400	0.531300
H131	H13	0.789400	0.693500	0.503000
H141	H14	0.256200	0.760000	0.542700
H151	H15	0.341300	0.683500	0.515500
H161	H16	0.443400	0.915000	0.418700
H171	H17	0.809100	0.968000	0.493800
H181	H18	0.510700	0.781500	0.545400
H191	H19	0.510900	0.229300	0.375400
H201	H20	0.423900	0.212200	0.333500
H211	H21	0.474000	0.131300	0.256800
H221	H22	0.455400	0.038800	0.265600
H231	H23	0.895900	0.152800	0.864900
H241	H24	0.839200	0.939300	0.769200
H251	H25	0.192200	0.112000	0.760300
H261	H26	0.663300	0.127900	0.871800
H271	H27	0.740200	0.063700	0.909600
H281	H28	0.396900	0.105600	0.861200
H291	H29	0.186100	0.035000	0.889400
H301	H30	0.392900	0.847600	0.967600
H311	H31	0.588200	0.949800	0.956300
H321	H32	0.995300	0.978400	0.915900
H331	H33	0.796000	0.882800	0.933100
H341	H34	0.998900	0.735600	0.031300
H351	H35	0.210600	0.806500	0.003000
H361	H36	0.743800	0.740000	0.042700
H371	H37	0.658700	0.816500	0.015500
H381	H38	0.556600	0.585000	0.918700
H391	H39	0.190900	0.532000	0.993800
H401	H40	0.489300	0.718500	0.045400
H411	H41	0.489100	0.270700	0.875400
H421	H42	0.576100	0.287800	0.833500
H431	H43	0.526000	0.368700	0.756800
H441	H44	0.544600	0.461200	0.765600
H451	H45	0.895900	0.652800	0.635100
H461	H46	0.839200	0.439300	0.730800
H471	H47	0.192200	0.612000	0.739700
H481	H48	0.663300	0.627900	0.628200
H491	H49	0.740200	0.563700	0.590400
H501	H50	0.396900	0.605600	0.638800
H511	H51	0.186100	0.535000	0.610600
H521	H52	0.392900	0.347600	0.532400
H531	H53	0.588200	0.449800	0.543700
H541	H54	0.995300	0.478400	0.584100
H551	H55	0.796000	0.382800	0.566900
H561	H56	0.998900	0.235600	0.468700
H571	H57	0.210600	0.306500	0.497000
H581	H58	0.743800	0.240000	0.457300
H591	H59	0.658700	0.316500	0.484500
H601	H60	0.556600	0.085000	0.581300
H611	H61	0.190900	0.032000	0.506200
H621	H62	0.489300	0.218500	0.454600
H631	H63	0.489100	0.770700	0.624600
H641	H64	0.576100	0.787800	0.666500
H651	H65	0.526000	0.868700	0.743200
H661	H66	0.544600	0.961200	0.734400
H671	H67	0.104100	0.847200	0.135100
H681	H68	0.160800	0.060700	0.230800
H691	H69	0.807800	0.888000	0.239700
H701	H70	0.336700	0.872100	0.128200
H711	H71	0.259800	0.936300	0.090400
H721	H72	0.603100	0.894400	0.138800
H731	H73	0.813900	0.965000	0.110600
H741	H74	0.607100	0.152400	0.032400
H751	H75	0.411800	0.050200	0.043700
H761	H76	0.004700	0.021600	0.084100
H771	H77	0.204000	0.117200	0.066900
H781	H78	0.001100	0.264400	0.968700
H791	H79	0.789400	0.193500	0.997000
H801	H80	0.256200	0.260000	0.957300
H811	H81	0.341300	0.183500	0.984500
H821	H82	0.443400	0.415000	0.081300
H831	H83	0.809100	0.468000	0.006200
H841	H84	0.510700	0.281500	0.954600
H851	H85	0.510900	0.729300	0.124600
H861	H86	0.423900	0.712200	0.166500
H871	H87	0.474000	0.631300	0.243200
H881	H88	0.455400	0.538800	0.234400
C11	C1	0.944400	0.354900	0.315500
C21	C2	0.071700	0.381100	0.338190
C31	C3	0.152000	0.458300	0.321390
C41	C4	0.106300	0.509400	0.280720
C51	C5	0.977000	0.481200	0.258020
C61	C6	0.895000	0.405300	0.275290
C71	C7	0.866900	0.268100	0.331510
C81	C8	0.923600	0.532600	0.213640
C91	C9	0.328100	0.435700	0.382470
C101	C10	0.473500	0.477600	0.399070
C111	C11	0.601600	0.444100	0.383070
C121	C12	0.728200	0.487300	0.400710
C131	C13	0.737700	0.561100	0.433890
C141	C14	0.611100	0.597300	0.449950
C151	C15	0.492600	0.542600	0.436810
C161	C16	0.874600	0.605900	0.454570
C171	C17	0.001200	0.573300	0.436290
C181	C18	0.121000	0.625100	0.451430
C191	C19	0.134600	0.688700	0.491010
C201	C20	0.003700	0.717100	0.508030
C211	C21	0.876200	0.674900	0.490380
C221	C22	0.271900	0.730500	0.511020
C231	C23	0.452800	0.842800	0.483290
C241	C24	0.500300	0.905300	0.446340
C251	C25	0.632800	0.952600	0.451310
C261	C26	0.719300	0.937000	0.491450
C271	C27	0.673400	0.875000	0.528770
C281	C28	0.540000	0.826400	0.522260
C291	C29	0.686600	0.017800	0.411900
C301	C30	0.766600	0.858400	0.571090
C311	C31	0.055600	0.145100	0.815500
C321	C32	0.928300	0.118900	0.838190
C331	C33	0.848000	0.041700	0.821390
C341	C34	0.893700	0.990600	0.780720
C351	C35	0.023000	0.018800	0.758020
C361	C36	0.105000	0.094700	0.775290
C371	C37	0.133100	0.231900	0.831510
C381	C38	0.076400	0.967400	0.713640
C391	C39	0.671900	0.064300	0.882470
C401	C40	0.526500	0.022400	0.899070
C411	C41	0.398400	0.055900	0.883070
C421	C42	0.271800	0.012700	0.900710
C431	C43	0.262300	0.938900	0.933890
C441	C44	0.388900	0.902700	0.949950
C451	C45	0.507400	0.957400	0.936810
C461	C46	0.125400	0.894100	0.954570
C471	C47	0.998800	0.926700	0.936290
C481	C48	0.879000	0.874900	0.951430
C491	C49	0.865400	0.811300	0.991010
C501	C50	0.996300	0.782900	0.008030
C511	C51	0.123800	0.825100	0.990380
C521	C52	0.728100	0.769500	0.011020
C531	C53	0.547200	0.657200	0.983290
C541	C54	0.499700	0.594700	0.946340
C551	C55	0.367200	0.547400	0.951310
C561	C56	0.280700	0.563000	0.991450
C571	C57	0.326600	0.625000	0.028770
C581	C58	0.460000	0.673600	0.022260
C591	C59	0.313400	0.482200	0.911900
C601	C60	0.233400	0.641600	0.071090
C611	C61	0.055600	0.645100	0.684500
C621	C62	0.928300	0.618900	0.661810
C631	C63	0.848000	0.541700	0.678610
C641	C64	0.893700	0.490600	0.719280
C651	C65	0.023000	0.518800	0.741980
C661	C66	0.105000	0.594700	0.724710
C671	C67	0.133100	0.731900	0.668490
C681	C68	0.076400	0.467400	0.786360
C691	C69	0.671900	0.564300	0.617530
C701	C70	0.526500	0.522400	0.600930
C711	C71	0.398400	0.555900	0.616930
C721	C72	0.271800	0.512700	0.599290
C731	C73	0.262300	0.438900	0.566110
C741	C74	0.388900	0.402700	0.550050
C751	C75	0.507400	0.457400	0.563190
C761	C76	0.125400	0.394100	0.545430
C771	C77	0.998800	0.426700	0.563710
C781	C78	0.879000	0.374900	0.548570
C791	C79	0.865400	0.311300	0.508990
C801	C80	0.996300	0.282900	0.491970
C811	C81	0.123800	0.325100	0.509620
C821	C82	0.728100	0.269500	0.488980
C831	C83	0.547200	0.157200	0.516710
C841	C84	0.499700	0.094700	0.553660
C851	C85	0.367200	0.047400	0.548690
C861	C86	0.280700	0.063000	0.508550
C871	C87	0.326600	0.125000	0.471230
C881	C88	0.460000	0.173600	0.477740
C891	C89	0.313400	0.982200	0.588100
C901	C90	0.233400	0.141600	0.428910
C911	C91	0.944400	0.854900	0.184500
C921	C92	0.071700	0.881100	0.161810
C931	C93	0.152000	0.958300	0.178610
C941	C94	0.106300	0.009400	0.219280
C951	C95	0.977000	0.981200	0.241980
C961	C96	0.895000	0.905300	0.224710
C971	C97	0.866900	0.768100	0.168490
C981	C98	0.923600	0.032600	0.286360
C991	C99	0.328100	0.935700	0.117530
C1001	C100	0.473500	0.977600	0.100930
C1011	C101	0.601600	0.944100	0.116930
C1021	C102	0.728200	0.987300	0.099290
C1031	C103	0.737700	0.061100	0.066110
C1041	C104	0.611100	0.097300	0.050050
C1051	C105	0.492600	0.042600	0.063190
C1061	C106	0.874600	0.105900	0.045430
C1071	C107	0.001200	0.073300	0.063710
C1081	C108	0.121000	0.125100	0.048570
C1091	C109	0.134600	0.188700	0.008990
C1101	C110	0.003700	0.217100	0.991970
C1111	C111	0.876200	0.174900	0.009620
C1121	C112	0.271900	0.230500	0.988980
C1131	C113	0.452800	0.342800	0.016710
C1141	C114	0.500300	0.405300	0.053660
C1151	C115	0.632800	0.452600	0.048690
C1161	C116	0.719300	0.437000	0.008550
C1171	C117	0.673400	0.375000	0.971230
C1181	C118	0.540000	0.326400	0.977740
C1191	C119	0.686600	0.517800	0.088100
C1201	C120	0.766600	0.358400	0.928910
O11	O1	0.771400	0.232870	0.303290
O21	O2	0.900100	0.236810	0.371840
O31	O3	0.281900	0.489990	0.342760
O41	O4	0.323000	0.799060	0.474030
O51	O5	0.733100	0.801300	0.605220
O61	O6	0.888500	0.903410	0.571310
O71	O7	0.815800	0.040500	0.414160
O81	O8	0.793200	0.529450	0.205320
O91	O9	0.021700	0.572040	0.186050
O101	O10	0.600200	0.045580	0.379950
O111	O11	0.509400	0.220440	0.344200
O121	O12	0.518400	0.083520	0.264600
O131	O13	0.228600	0.267130	0.803290
O141	O14	0.099900	0.263190	0.871840
O151	O15	0.718100	0.010010	0.842760
O161	O16	0.677000	0.700940	0.974030
O171	O17	0.266900	0.698700	0.105220
O181	O18	0.111500	0.596590	0.071310
O191	O19	0.184200	0.459500	0.914160
O201	O20	0.206800	0.970550	0.705320
O211	O21	0.978300	0.927960	0.686050
O221	O22	0.399800	0.454420	0.879950
O231	O23	0.490600	0.279560	0.844200
O241	O24	0.481600	0.416480	0.764600
O251	O25	0.228600	0.767130	0.696710
O261	O26	0.099900	0.763190	0.628160
O271	O27	0.718100	0.510010	0.657240
O281	O28	0.677000	0.200940	0.525970
O291	O29	0.266900	0.198700	0.394780
O301	O30	0.111500	0.096590	0.428690
O311	O31	0.184200	0.959500	0.585840
O321	O32	0.206800	0.470550	0.794680
O331	O33	0.978300	0.427960	0.813950
O341	O34	0.399800	0.954420	0.620050
O351	O35	0.490600	0.779560	0.655800
O361	O36	0.481600	0.916480	0.735400
O371	O37	0.771400	0.732870	0.196710
O381	O38	0.900100	0.736810	0.128160
O391	O39	0.281900	0.989990	0.157240
O401	O40	0.323000	0.299060	0.025970
O411	O41	0.733100	0.301300	0.894780
O421	O42	0.888500	0.403410	0.928690
O431	O43	0.815800	0.540500	0.085840
O441	O44	0.793200	0.029450	0.294680
O451	O45	0.021700	0.072040	0.313950
O461	O46	0.600200	0.545580	0.120050
O471	O47	0.509400	0.720440	0.155800
O481	O48	0.518400	0.583520	0.235400
