data_AVIMUO_freeONLY_PM
_symmetry_space_group_name_H-M	'P1'
_cell_length_a	8.680100
_cell_length_b	13.927900
_cell_length_c	28.708000
_cell_angle_alpha	90.000000
_cell_angle_beta	90.000000
_cell_angle_gamma	90.910000
_symmetry_Int_Tables_number 1

loop_
_symmetry_equiv_pos_as_xyz
'x,y,z'

loop_
_atom_site_label
_atom_site_type_symbol
_atom_site_fract_x
_atom_site_fract_y
_atom_site_fract_z
Mn11	Mn1	0.029070	0.948510	0.126710
Mn21	Mn2	0.421180	0.937740	0.164900
Mn31	Mn3	0.970930	0.551490	0.626710
Mn41	Mn4	0.578820	0.562260	0.664900
Mn51	Mn5	0.970930	0.051490	0.873290
Mn61	Mn6	0.578820	0.062260	0.835100
Mn71	Mn7	0.029070	0.448510	0.373290
Mn81	Mn8	0.421180	0.437740	0.335100
H11	H1	0.965200	0.703800	0.132400
H21	H2	0.886800	0.487800	0.222900
H31	H3	0.264700	0.654600	0.236600
H41	H4	0.881900	0.480500	0.106800
H51	H5	0.824400	0.575600	0.084000
H61	H6	0.759500	0.377200	0.045500
H71	H7	0.547900	0.286400	0.025700
H81	H8	0.288400	0.478300	0.093100
H91	H9	0.508700	0.557100	0.118700
H101	H10	0.137500	0.190000	0.957100
H111	H11	0.357100	0.267600	0.984500
H121	H12	0.120000	0.363400	0.095200
H131	H13	0.910600	0.269200	0.071700
H141	H14	0.568900	0.193000	0.935400
H151	H15	0.195400	0.049000	0.981500
H161	H16	0.535200	0.120100	0.071000
H171	H17	0.873300	0.110100	0.999600
H181	H18	0.858500	0.185900	0.959800
H191	H19	0.016800	0.134700	0.108800
H201	H20	0.878900	0.112500	0.129700
H211	H21	0.560800	0.059300	0.222800
H221	H22	0.628200	0.076000	0.180200
H231	H23	0.034800	0.796200	0.632400
H241	H24	0.113200	0.012200	0.722900
H251	H25	0.735300	0.845400	0.736600
H261	H26	0.118100	0.019500	0.606800
H271	H27	0.175600	0.924400	0.584000
H281	H28	0.240500	0.122800	0.545500
H291	H29	0.452100	0.213600	0.525700
H301	H30	0.711600	0.021700	0.593100
H311	H31	0.491300	0.942900	0.618700
H321	H32	0.862500	0.310000	0.457100
H331	H33	0.642900	0.232400	0.484500
H341	H34	0.880000	0.136600	0.595200
H351	H35	0.089400	0.230800	0.571700
H361	H36	0.431100	0.307000	0.435400
H371	H37	0.804600	0.451000	0.481500
H381	H38	0.464800	0.379900	0.571000
H391	H39	0.126700	0.389900	0.499600
H401	H40	0.141500	0.314100	0.459800
H411	H41	0.983200	0.365300	0.608800
H421	H42	0.121100	0.387500	0.629700
H431	H43	0.439200	0.440700	0.722800
H441	H44	0.371800	0.424000	0.680200
H451	H45	0.034800	0.296200	0.867600
H461	H46	0.113200	0.512200	0.777100
H471	H47	0.735300	0.345400	0.763400
H481	H48	0.118100	0.519500	0.893200
H491	H49	0.175600	0.424400	0.916000
H501	H50	0.240500	0.622800	0.954500
H511	H51	0.452100	0.713600	0.974300
H521	H52	0.711600	0.521700	0.906900
H531	H53	0.491300	0.442900	0.881300
H541	H54	0.862500	0.810000	0.042900
H551	H55	0.642900	0.732400	0.015500
H561	H56	0.880000	0.636600	0.904800
H571	H57	0.089400	0.730800	0.928300
H581	H58	0.431100	0.807000	0.064600
H591	H59	0.804600	0.951000	0.018500
H601	H60	0.464800	0.879900	0.929000
H611	H61	0.126700	0.889900	0.000400
H621	H62	0.141500	0.814100	0.040200
H631	H63	0.983200	0.865300	0.891200
H641	H64	0.121100	0.887500	0.870300
H651	H65	0.439200	0.940700	0.777200
H661	H66	0.371800	0.924000	0.819800
H671	H67	0.965200	0.203800	0.367600
H681	H68	0.886800	0.987800	0.277100
H691	H69	0.264700	0.154600	0.263400
H701	H70	0.881900	0.980500	0.393200
H711	H71	0.824400	0.075600	0.416000
H721	H72	0.759500	0.877200	0.454500
H731	H73	0.547900	0.786400	0.474300
H741	H74	0.288400	0.978300	0.406900
H751	H75	0.508700	0.057100	0.381300
H761	H76	0.137500	0.690000	0.542900
H771	H77	0.357100	0.767600	0.515500
H781	H78	0.120000	0.863400	0.404800
H791	H79	0.910600	0.769200	0.428300
H801	H80	0.568900	0.693000	0.564600
H811	H81	0.195400	0.549000	0.518500
H821	H82	0.535200	0.620100	0.429000
H831	H83	0.873300	0.610100	0.500400
H841	H84	0.858500	0.685900	0.540200
H851	H85	0.016800	0.634700	0.391200
H861	H86	0.878900	0.612500	0.370300
H871	H87	0.560800	0.559300	0.277200
H881	H88	0.628200	0.576000	0.319800
C11	C1	0.128000	0.692500	0.182940
C21	C2	0.993900	0.669000	0.158540
C31	C3	0.903500	0.591400	0.174600
C41	C4	0.947900	0.539100	0.212810
C51	C5	0.083900	0.562200	0.236550
C61	C6	0.173500	0.638900	0.221190
C71	C7	0.219400	0.778060	0.167300
C81	C8	0.117100	0.508400	0.280100
C91	C9	0.796300	0.524400	0.105410
C101	C10	0.660500	0.472400	0.086830
C111	C11	0.664100	0.394900	0.057070
C121	C12	0.538200	0.342100	0.043290
C131	C13	0.395900	0.375300	0.056740
C141	C14	0.384800	0.456000	0.084560
C151	C15	0.517000	0.503500	0.099650
C161	C16	0.134100	0.223800	0.985020
C171	C17	0.265600	0.270700	0.001280
C181	C18	0.260600	0.322700	0.042910
C191	C19	0.125500	0.326400	0.068340
C201	C20	0.997600	0.273400	0.052850
C211	C21	0.996500	0.227000	0.010230
C221	C22	0.577100	0.162500	0.004330
C231	C23	0.514900	0.163500	0.959620
C241	C24	0.371200	0.120300	0.951090
C251	C25	0.291500	0.077000	0.987120
C261	C26	0.353500	0.074900	0.031810
C271	C27	0.495400	0.119300	0.040970
C281	C28	0.309300	0.121400	0.904160
C291	C29	0.274100	0.026800	0.072180
C301	C30	0.862300	0.178100	0.993370
C311	C31	0.872000	0.807500	0.682940
C321	C32	0.006100	0.831000	0.658540
C331	C33	0.096500	0.908600	0.674600
C341	C34	0.052100	0.960900	0.712810
C351	C35	0.916100	0.937800	0.736550
C361	C36	0.826500	0.861100	0.721190
C371	C37	0.780600	0.721940	0.667300
C381	C38	0.882900	0.991600	0.780100
C391	C39	0.203700	0.975600	0.605410
C401	C40	0.339500	0.027600	0.586830
C411	C41	0.335900	0.105100	0.557070
C421	C42	0.461800	0.157900	0.543290
C431	C43	0.604100	0.124700	0.556740
C441	C44	0.615200	0.044000	0.584560
C451	C45	0.483000	0.996500	0.599650
C461	C46	0.865900	0.276200	0.485020
C471	C47	0.734400	0.229300	0.501280
C481	C48	0.739400	0.177300	0.542910
C491	C49	0.874500	0.173600	0.568340
C501	C50	0.002400	0.226600	0.552850
C511	C51	0.003500	0.273000	0.510230
C521	C52	0.422900	0.337500	0.504330
C531	C53	0.485100	0.336500	0.459620
C541	C54	0.628800	0.379700	0.451090
C551	C55	0.708500	0.423000	0.487120
C561	C56	0.646500	0.425100	0.531810
C571	C57	0.504600	0.380700	0.540970
C581	C58	0.690700	0.378600	0.404160
C591	C59	0.725900	0.473200	0.572180
C601	C60	0.137700	0.321900	0.493370
C611	C61	0.872000	0.307500	0.817060
C621	C62	0.006100	0.331000	0.841460
C631	C63	0.096500	0.408600	0.825400
C641	C64	0.052100	0.460900	0.787190
C651	C65	0.916100	0.437800	0.763450
C661	C66	0.826500	0.361100	0.778810
C671	C67	0.780600	0.221940	0.832700
C681	C68	0.882900	0.491600	0.719900
C691	C69	0.203700	0.475600	0.894590
C701	C70	0.339500	0.527600	0.913170
C711	C71	0.335900	0.605100	0.942930
C721	C72	0.461800	0.657900	0.956710
C731	C73	0.604100	0.624700	0.943260
C741	C74	0.615200	0.544000	0.915440
C751	C75	0.483000	0.496500	0.900350
C761	C76	0.865900	0.776200	0.014980
C771	C77	0.734400	0.729300	0.998720
C781	C78	0.739400	0.677300	0.957090
C791	C79	0.874500	0.673600	0.931660
C801	C80	0.002400	0.726600	0.947150
C811	C81	0.003500	0.773000	0.989770
C821	C82	0.422900	0.837500	0.995670
C831	C83	0.485100	0.836500	0.040380
C841	C84	0.628800	0.879700	0.048910
C851	C85	0.708500	0.923000	0.012880
C861	C86	0.646500	0.925100	0.968190
C871	C87	0.504600	0.880700	0.959030
C881	C88	0.690700	0.878600	0.095840
C891	C89	0.725900	0.973200	0.927820
C901	C90	0.137700	0.821900	0.006630
C911	C91	0.128000	0.192500	0.317060
C921	C92	0.993900	0.169000	0.341460
C931	C93	0.903500	0.091400	0.325400
C941	C94	0.947900	0.039100	0.287190
C951	C95	0.083900	0.062200	0.263450
C961	C96	0.173500	0.138900	0.278810
C971	C97	0.219400	0.278060	0.332700
C981	C98	0.117100	0.008400	0.219900
C991	C99	0.796300	0.024400	0.394590
C1001	C100	0.660500	0.972400	0.413170
C1011	C101	0.664100	0.894900	0.442930
C1021	C102	0.538200	0.842100	0.456710
C1031	C103	0.395900	0.875300	0.443260
C1041	C104	0.384800	0.956000	0.415440
C1051	C105	0.517000	0.003500	0.400350
C1061	C106	0.134100	0.723800	0.514980
C1071	C107	0.265600	0.770700	0.498720
C1081	C108	0.260600	0.822700	0.457090
C1091	C109	0.125500	0.826400	0.431660
C1101	C110	0.997600	0.773400	0.447150
C1111	C111	0.996500	0.727000	0.489770
C1121	C112	0.577100	0.662500	0.495670
C1131	C113	0.514900	0.663500	0.540380
C1141	C114	0.371200	0.620300	0.548910
C1151	C115	0.291500	0.577000	0.512880
C1161	C116	0.353500	0.574900	0.468190
C1171	C117	0.495400	0.619300	0.459030
C1181	C118	0.309300	0.621400	0.595840
C1191	C119	0.274100	0.526800	0.427820
C1201	C120	0.862300	0.678100	0.506630
O11	O1	0.170500	0.828100	0.133310
O21	O2	0.342400	0.798970	0.188340
O31	O3	0.262000	0.511540	0.288190
O41	O4	0.024100	0.455520	0.300160
O51	O5	0.773600	0.565250	0.151090
O61	O6	0.714600	0.208560	0.012770
O71	O7	0.395200	0.128840	0.868500
O81	O8	0.162400	0.118600	0.901200
O91	O9	0.142000	0.994360	0.063790
O101	O10	0.348800	0.022580	0.110170
O111	O11	0.940800	0.095440	0.108400
O121	O12	0.600900	0.032180	0.199280
O131	O13	0.829500	0.671900	0.633310
O141	O14	0.657600	0.701030	0.688340
O151	O15	0.738000	0.988460	0.788190
O161	O16	0.975900	0.044480	0.800160
O171	O17	0.226400	0.934750	0.651090
O181	O18	0.285400	0.291440	0.512770
O191	O19	0.604800	0.371160	0.368500
O201	O20	0.837600	0.381400	0.401200
O211	O21	0.858000	0.505640	0.563790
O221	O22	0.651200	0.477420	0.610170
O231	O23	0.059200	0.404560	0.608400
O241	O24	0.399100	0.467820	0.699280
O251	O25	0.829500	0.171900	0.866690
O261	O26	0.657600	0.201030	0.811660
O271	O27	0.738000	0.488460	0.711810
O281	O28	0.975900	0.544480	0.699840
O291	O29	0.226400	0.434750	0.848910
O301	O30	0.285400	0.791440	0.987230
O311	O31	0.604800	0.871160	0.131500
O321	O32	0.837600	0.881400	0.098800
O331	O33	0.858000	0.005640	0.936210
O341	O34	0.651200	0.977420	0.889830
O351	O35	0.059200	0.904560	0.891600
O361	O36	0.399100	0.967820	0.800720
O371	O37	0.170500	0.328100	0.366690
O381	O38	0.342400	0.298970	0.311660
O391	O39	0.262000	0.011540	0.211810
O401	O40	0.024100	0.955520	0.199840
O411	O41	0.773600	0.065250	0.348910
O421	O42	0.714600	0.708560	0.487230
O431	O43	0.395200	0.628840	0.631500
O441	O44	0.162400	0.618600	0.598800
O451	O45	0.142000	0.494360	0.436210
O461	O46	0.348800	0.522580	0.389830
O471	O47	0.940800	0.595440	0.391600
O481	O48	0.600900	0.532180	0.300720
