data_AVUDAX_freeONLY_PM
_symmetry_space_group_name_H-M	'P1'
_cell_length_a	13.201200
_cell_length_b	16.764000
_cell_length_c	23.035500
_cell_angle_alpha	105.558000
_cell_angle_beta	90.000000
_cell_angle_gamma	90.000000
_symmetry_Int_Tables_number 1

loop_
_symmetry_equiv_pos_as_xyz
'x,y,z'

loop_
_atom_site_label
_atom_site_type_symbol
_atom_site_fract_x
_atom_site_fract_y
_atom_site_fract_z
Cu11	Cu1	0.289240	0.161590	0.751560
Cu21	Cu2	0.789240	0.338410	0.748440
Cu31	Cu3	0.710760	0.838410	0.248440
Cu41	Cu4	0.210760	0.661590	0.251560
Cu51	Cu5	0.000000	0.000000	0.000000
Cu61	Cu6	0.500000	0.500000	0.500000
H11	H1	0.347000	0.969000	0.690100
H21	H2	0.087400	0.074300	0.702300
H31	H3	0.975800	0.940100	0.664600
H41	H4	0.034100	0.856200	0.654400
H51	H5	0.236900	0.779800	0.383200
H61	H6	0.085900	0.828200	0.251800
H71	H7	0.135000	0.984900	0.442800
H81	H8	0.214800	0.926000	0.460100
H91	H9	0.714200	0.872900	0.390500
H101	H10	0.844200	0.687700	0.278600
H111	H11	0.800300	0.748500	0.480000
H121	H12	0.754700	0.836900	0.487100
H131	H13	0.880600	0.839600	0.576900
H141	H14	0.148300	0.940700	0.557300
H151	H15	0.969900	0.854300	0.415600
H161	H16	0.221500	0.038700	0.828600
H171	H17	0.478300	0.155500	0.837800
H181	H18	0.523700	0.005100	0.916000
H191	H19	0.576500	0.083300	0.905000
H201	H20	0.358000	0.133800	0.988900
H211	H21	0.492500	0.209400	0.150800
H221	H22	0.655300	0.100300	0.004800
H231	H23	0.282900	0.247200	0.089000
H241	H24	0.316900	0.224400	0.147900
H251	H25	0.132700	0.161800	0.037600
H261	H26	0.163400	0.969000	0.094700
H271	H27	0.679500	0.132900	0.149700
H281	H28	0.682200	0.225600	0.147900
H291	H29	0.942800	0.199000	0.016000
H301	H30	0.810000	0.035400	0.083500
H311	H31	0.847000	0.531000	0.809900
H321	H32	0.587400	0.425700	0.797700
H331	H33	0.475800	0.559900	0.835400
H341	H34	0.534100	0.643800	0.845600
H351	H35	0.736900	0.720200	0.116800
H361	H36	0.585900	0.671800	0.248200
H371	H37	0.635000	0.515100	0.057200
H381	H38	0.714800	0.574000	0.039900
H391	H39	0.214200	0.627100	0.109500
H401	H40	0.344200	0.812300	0.221400
H411	H41	0.300300	0.751500	0.020000
H421	H42	0.254700	0.663100	0.012900
H431	H43	0.380600	0.660400	0.923100
H441	H44	0.648300	0.559300	0.942700
H451	H45	0.469900	0.645700	0.084400
H461	H46	0.721500	0.461300	0.671400
H471	H47	0.978300	0.344500	0.662200
H481	H48	0.023700	0.494900	0.584000
H491	H49	0.076500	0.416700	0.595000
H501	H50	0.858000	0.366200	0.511100
H511	H51	0.992500	0.290600	0.349200
H521	H52	0.155300	0.399700	0.495200
H531	H53	0.782900	0.252800	0.411000
H541	H54	0.816900	0.275600	0.352100
H551	H55	0.632700	0.338200	0.462400
H561	H56	0.663400	0.531000	0.405300
H571	H57	0.179500	0.367100	0.350300
H581	H58	0.182200	0.274400	0.352100
H591	H59	0.442800	0.301000	0.484000
H601	H60	0.310000	0.464600	0.416500
H611	H61	0.653000	0.031000	0.309900
H621	H62	0.912600	0.925700	0.297700
H631	H63	0.024200	0.059900	0.335400
H641	H64	0.965900	0.143800	0.345600
H651	H65	0.763100	0.220200	0.616800
H661	H66	0.914100	0.171800	0.748200
H671	H67	0.865000	0.015100	0.557200
H681	H68	0.785200	0.074000	0.539900
H691	H69	0.285800	0.127100	0.609500
H701	H70	0.155800	0.312300	0.721400
H711	H71	0.199700	0.251500	0.520000
H721	H72	0.245300	0.163100	0.512900
H731	H73	0.119400	0.160400	0.423100
H741	H74	0.851700	0.059300	0.442700
H751	H75	0.030100	0.145700	0.584400
H761	H76	0.778500	0.961300	0.171400
H771	H77	0.521700	0.844500	0.162200
H781	H78	0.476300	0.994900	0.084000
H791	H79	0.423500	0.916700	0.095000
H801	H80	0.642000	0.866200	0.011100
H811	H81	0.507500	0.790600	0.849200
H821	H82	0.344700	0.899700	0.995200
H831	H83	0.717100	0.752800	0.911000
H841	H84	0.683100	0.775600	0.852100
H851	H85	0.867300	0.838200	0.962400
H861	H86	0.836600	0.031000	0.905300
H871	H87	0.320500	0.867100	0.850300
H881	H88	0.317800	0.774400	0.852100
H891	H89	0.057200	0.801000	0.984000
H901	H90	0.190000	0.964600	0.916500
H911	H91	0.153000	0.469000	0.190100
H921	H92	0.412600	0.574300	0.202300
H931	H93	0.524200	0.440100	0.164600
H941	H94	0.465900	0.356200	0.154400
H951	H95	0.263100	0.279800	0.883200
H961	H96	0.414100	0.328200	0.751800
H971	H97	0.365000	0.484900	0.942800
H981	H98	0.285200	0.426000	0.960100
H991	H99	0.785800	0.372900	0.890500
H1001	H100	0.655800	0.187700	0.778600
H1011	H101	0.699700	0.248500	0.980000
H1021	H102	0.745300	0.336900	0.987100
H1031	H103	0.619400	0.339600	0.076900
H1041	H104	0.351700	0.440700	0.057300
H1051	H105	0.530100	0.354300	0.915600
H1061	H106	0.278500	0.538700	0.328600
H1071	H107	0.021700	0.655500	0.337800
H1081	H108	0.976300	0.505100	0.416000
H1091	H109	0.923500	0.583300	0.405000
H1101	H110	0.142000	0.633800	0.488900
H1111	H111	0.007500	0.709400	0.650800
H1121	H112	0.844700	0.600300	0.504800
H1131	H113	0.217100	0.747200	0.589000
H1141	H114	0.183100	0.724400	0.647900
H1151	H115	0.367300	0.661800	0.537600
H1161	H116	0.336600	0.469000	0.594700
H1171	H117	0.820500	0.632900	0.649700
H1181	H118	0.817800	0.725600	0.647900
H1191	H119	0.557200	0.699000	0.516000
H1201	H120	0.690000	0.535400	0.583500
C11	C1	0.277600	0.976400	0.686600
C21	C2	0.138900	0.035100	0.694500
C31	C3	0.033400	0.908800	0.644300
C41	C4	0.196400	0.805500	0.360500
C51	C5	0.113100	0.833200	0.289800
C61	C6	0.148400	0.927900	0.442500
C71	C7	0.751700	0.825300	0.373700
C81	C8	0.822700	0.725100	0.314100
C91	C9	0.808800	0.799600	0.468400
C101	C10	0.909300	0.838100	0.492300
C111	C11	0.928800	0.854400	0.552300
C121	C12	0.018500	0.892400	0.578700
C131	C13	0.088400	0.915200	0.541000
C141	C14	0.071600	0.901000	0.480200
C151	C15	0.982200	0.863300	0.456600
C161	C16	0.286500	0.057600	0.840600
C171	C17	0.426500	0.121500	0.844700
C181	C18	0.515400	0.063900	0.920100
C191	C19	0.505200	0.107600	0.985800
C201	C20	0.416000	0.137300	0.012400
C211	C21	0.410300	0.173500	0.075800
C221	C22	0.496000	0.183400	0.109800
C231	C23	0.588900	0.154700	0.083600
C241	C24	0.593100	0.118300	0.022500
C251	C25	0.308500	0.202900	0.104700
C261	C26	0.156800	0.124200	0.057600
C271	C27	0.175200	0.020800	0.088500
C281	C28	0.682700	0.168800	0.123000
C291	C29	0.897600	0.174200	0.036800
C301	C30	0.826800	0.084200	0.073800
C311	C31	0.777600	0.523600	0.813400
C321	C32	0.638900	0.464900	0.805500
C331	C33	0.533400	0.591200	0.855700
C341	C34	0.696400	0.694500	0.139500
C351	C35	0.613100	0.666800	0.210200
C361	C36	0.648400	0.572100	0.057500
C371	C37	0.251700	0.674700	0.126300
C381	C38	0.322700	0.774900	0.185900
C391	C39	0.308800	0.700400	0.031600
C401	C40	0.409300	0.661900	0.007700
C411	C41	0.428800	0.645600	0.947700
C421	C42	0.518500	0.607600	0.921300
C431	C43	0.588400	0.584800	0.959000
C441	C44	0.571600	0.599000	0.019800
C451	C45	0.482200	0.636700	0.043400
C461	C46	0.786500	0.442400	0.659400
C471	C47	0.926500	0.378500	0.655300
C481	C48	0.015400	0.436100	0.579900
C491	C49	0.005200	0.392400	0.514200
C501	C50	0.916000	0.362700	0.487600
C511	C51	0.910300	0.326500	0.424200
C521	C52	0.996000	0.316600	0.390200
C531	C53	0.088900	0.345300	0.416400
C541	C54	0.093100	0.381700	0.477500
C551	C55	0.808500	0.297100	0.395300
C561	C56	0.656800	0.375800	0.442400
C571	C57	0.675200	0.479200	0.411500
C581	C58	0.182700	0.331200	0.377000
C591	C59	0.397600	0.325800	0.463200
C601	C60	0.326800	0.415800	0.426200
C611	C61	0.722400	0.023600	0.313400
C621	C62	0.861100	0.964900	0.305500
C631	C63	0.966600	0.091200	0.355700
C641	C64	0.803600	0.194500	0.639500
C651	C65	0.886900	0.166800	0.710200
C661	C66	0.851600	0.072100	0.557500
C671	C67	0.248300	0.174700	0.626300
C681	C68	0.177300	0.274900	0.685900
C691	C69	0.191200	0.200400	0.531600
C701	C70	0.090700	0.161900	0.507700
C711	C71	0.071200	0.145600	0.447700
C721	C72	0.981500	0.107600	0.421300
C731	C73	0.911600	0.084800	0.459000
C741	C74	0.928400	0.099000	0.519800
C751	C75	0.017800	0.136700	0.543400
C761	C76	0.713500	0.942400	0.159400
C771	C77	0.573500	0.878500	0.155300
C781	C78	0.484600	0.936100	0.079900
C791	C79	0.494800	0.892400	0.014200
C801	C80	0.584000	0.862700	0.987600
C811	C81	0.589700	0.826500	0.924200
C821	C82	0.504000	0.816600	0.890200
C831	C83	0.411100	0.845300	0.916400
C841	C84	0.406900	0.881700	0.977500
C851	C85	0.691500	0.797100	0.895300
C861	C86	0.843200	0.875800	0.942400
C871	C87	0.824800	0.979200	0.911500
C881	C88	0.317300	0.831200	0.877000
C891	C89	0.102400	0.825800	0.963200
C901	C90	0.173200	0.915800	0.926200
C911	C91	0.222400	0.476400	0.186600
C921	C92	0.361100	0.535100	0.194500
C931	C93	0.466600	0.408800	0.144300
C941	C94	0.303600	0.305500	0.860500
C951	C95	0.386900	0.333200	0.789800
C961	C96	0.351600	0.427900	0.942500
C971	C97	0.748300	0.325300	0.873700
C981	C98	0.677300	0.225100	0.814100
C991	C99	0.691200	0.299600	0.968400
C1001	C100	0.590700	0.338100	0.992300
C1011	C101	0.571200	0.354400	0.052300
C1021	C102	0.481500	0.392400	0.078700
C1031	C103	0.411600	0.415200	0.041000
C1041	C104	0.428400	0.401000	0.980200
C1051	C105	0.517800	0.363300	0.956600
C1061	C106	0.213500	0.557600	0.340600
C1071	C107	0.073500	0.621500	0.344700
C1081	C108	0.984600	0.563900	0.420100
C1091	C109	0.994800	0.607600	0.485800
C1101	C110	0.084000	0.637300	0.512400
C1111	C111	0.089700	0.673500	0.575800
C1121	C112	0.004000	0.683400	0.609800
C1131	C113	0.911100	0.654700	0.583600
C1141	C114	0.906900	0.618300	0.522500
C1151	C115	0.191500	0.702900	0.604700
C1161	C116	0.343200	0.624200	0.557600
C1171	C117	0.324800	0.520800	0.588500
C1181	C118	0.817300	0.668800	0.623000
C1191	C119	0.602400	0.674200	0.536800
C1201	C120	0.673200	0.584200	0.573800
N11	N1	0.233900	0.050000	0.707800
N21	N2	0.219000	0.916300	0.661100
N31	N3	0.126900	0.954400	0.667800
N41	N4	0.175600	0.775800	0.302300
N51	N5	0.150000	0.877900	0.381200
N61	N6	0.094500	0.896400	0.336000
N71	N7	0.763800	0.792100	0.314800
N81	N8	0.799400	0.782300	0.404600
N91	N9	0.845900	0.717900	0.366800
N101	N10	0.338100	0.112700	0.818000
N111	N11	0.340600	0.033600	0.882100
N121	N12	0.431500	0.074800	0.882900
N131	N13	0.906200	0.094600	0.040400
N141	N14	0.818200	0.211900	0.066000
N151	N15	0.776600	0.153900	0.090300
N161	N16	0.115800	0.053900	0.054800
N171	N17	0.251100	0.067200	0.112000
N181	N18	0.237300	0.135800	0.092200
N191	N19	0.733900	0.450000	0.792200
N201	N20	0.719000	0.583700	0.838900
N211	N21	0.626900	0.545600	0.832200
N221	N22	0.675600	0.724200	0.197700
N231	N23	0.650000	0.622100	0.118800
N241	N24	0.594500	0.603600	0.164000
N251	N25	0.263800	0.707900	0.185200
N261	N26	0.299400	0.717700	0.095400
N271	N27	0.345900	0.782100	0.133200
N281	N28	0.838100	0.387300	0.682000
N291	N29	0.840600	0.466400	0.617900
N301	N30	0.931500	0.425200	0.617100
N311	N31	0.406200	0.405400	0.459600
N321	N32	0.318200	0.288100	0.434000
N331	N33	0.276600	0.346100	0.409700
N341	N34	0.615800	0.446100	0.445200
N351	N35	0.751100	0.432800	0.388000
N361	N36	0.737300	0.364200	0.407800
N371	N37	0.766100	0.950000	0.292200
N381	N38	0.781000	0.083700	0.338900
N391	N39	0.873100	0.045600	0.332200
N401	N40	0.824400	0.224200	0.697700
N411	N41	0.850000	0.122100	0.618800
N421	N42	0.905500	0.103600	0.664000
N431	N43	0.236200	0.207900	0.685200
N441	N44	0.200600	0.217700	0.595400
N451	N45	0.154100	0.282100	0.633200
N461	N46	0.661900	0.887300	0.182000
N471	N47	0.659400	0.966400	0.117900
N481	N48	0.568500	0.925200	0.117100
N491	N49	0.093800	0.905400	0.959600
N501	N50	0.181800	0.788100	0.934000
N511	N51	0.223400	0.846100	0.909700
N521	N52	0.884200	0.946100	0.945200
N531	N53	0.748900	0.932800	0.888000
N541	N54	0.762700	0.864200	0.907800
N551	N55	0.266100	0.550000	0.207800
N561	N56	0.281000	0.416300	0.161100
N571	N57	0.373100	0.454400	0.167800
N581	N58	0.324400	0.275800	0.802300
N591	N59	0.350000	0.377900	0.881200
N601	N60	0.405500	0.396400	0.836000
N611	N61	0.736200	0.292100	0.814800
N621	N62	0.700600	0.282300	0.904600
N631	N63	0.654100	0.217900	0.866800
N641	N64	0.161900	0.612700	0.318000
N651	N65	0.159400	0.533600	0.382100
N661	N66	0.068500	0.574800	0.382900
N671	N67	0.593800	0.594600	0.540400
N681	N68	0.681800	0.711900	0.566000
N691	N69	0.723400	0.653900	0.590300
N701	N70	0.384200	0.553900	0.554800
N711	N71	0.248900	0.567200	0.612000
N721	N72	0.262700	0.635800	0.592200
