data_AWEDUC_charged_PM
_symmetry_space_group_name_H-M	'P1'
_cell_length_a	7.911400
_cell_length_b	14.257200
_cell_length_c	29.557000
_cell_angle_alpha	90.000000
_cell_angle_beta	90.000000
_cell_angle_gamma	90.000000
_symmetry_Int_Tables_number 1

loop_
_symmetry_equiv_pos_as_xyz
'x,y,z'

loop_
_atom_site_label
_atom_site_type_symbol
_atom_site_fract_x
_atom_site_fract_y
_atom_site_fract_z
Zn11	Zn1	0.492210	0.631260	0.150560
Zn21	Zn2	0.507790	0.368740	0.650560
Zn31	Zn3	0.507790	0.631260	0.349440
Zn41	Zn4	0.492210	0.368740	0.849440
H11	H1	0.598200	0.426800	0.107400
H21	H2	0.693000	0.297200	0.153600
H31	H3	0.642700	0.518000	0.231800
H41	H4	0.661400	0.212100	0.224300
H51	H5	0.749300	0.130800	0.287200
H61	H6	0.917700	0.370900	0.344000
H71	H7	0.832200	0.451100	0.279100
H81	H8	0.554700	0.300700	0.551700
H91	H9	0.820600	0.490400	0.614200
H101	H10	0.957700	0.461900	0.541300
H111	H11	0.049100	0.305600	0.496100
H121	H12	0.097100	0.233900	0.426800
H131	H13	0.605100	0.261600	0.395700
H141	H14	0.557200	0.333300	0.465000
H151	H15	0.367300	0.840600	0.345100
H161	H16	0.141800	0.615700	0.391800
H171	H17	0.936000	0.740600	0.395000
H181	H18	0.929500	0.913000	0.425000
H191	H19	0.830300	0.066100	0.422400
H201	H20	0.066800	0.104700	0.303500
H211	H21	0.166000	0.951700	0.306100
H221	H22	0.198800	0.780800	0.256800
H231	H23	0.093500	0.799900	0.213000
H241	H24	0.956200	0.651300	0.226200
H251	H25	0.401800	0.573200	0.607400
H261	H26	0.307000	0.702800	0.653600
H271	H27	0.357300	0.482000	0.731800
H281	H28	0.338600	0.787900	0.724300
H291	H29	0.250700	0.869200	0.787200
H301	H30	0.082300	0.629100	0.844000
H311	H31	0.167800	0.548900	0.779100
H321	H32	0.445300	0.699300	0.051700
H331	H33	0.179400	0.509600	0.114200
H341	H34	0.042300	0.538100	0.041300
H351	H35	0.950900	0.694400	0.996100
H361	H36	0.902900	0.766100	0.926800
H371	H37	0.394900	0.738400	0.895700
H381	H38	0.442800	0.666700	0.965000
H391	H39	0.632700	0.159400	0.845100
H401	H40	0.858200	0.384300	0.891800
H411	H41	0.064000	0.259400	0.895000
H421	H42	0.070500	0.087000	0.925000
H431	H43	0.169700	0.933900	0.922400
H441	H44	0.933200	0.895300	0.803500
H451	H45	0.834000	0.048300	0.806100
H461	H46	0.801200	0.219200	0.756800
H471	H47	0.906500	0.200100	0.713000
H481	H48	0.043800	0.348700	0.726200
H491	H49	0.401800	0.426800	0.392600
H501	H50	0.307000	0.297200	0.346400
H511	H51	0.357300	0.518000	0.268200
H521	H52	0.338600	0.212100	0.275700
H531	H53	0.250700	0.130800	0.212800
H541	H54	0.082300	0.370900	0.156000
H551	H55	0.167800	0.451100	0.220900
H561	H56	0.445300	0.300700	0.948300
H571	H57	0.179400	0.490400	0.885800
H581	H58	0.042300	0.461900	0.958700
H591	H59	0.950900	0.305600	0.003900
H601	H60	0.902900	0.233900	0.073200
H611	H61	0.394900	0.261600	0.104300
H621	H62	0.442800	0.333300	0.035000
H631	H63	0.632700	0.840600	0.154900
H641	H64	0.858200	0.615700	0.108200
H651	H65	0.064000	0.740600	0.105000
H661	H66	0.070500	0.913000	0.075000
H671	H67	0.169700	0.066100	0.077600
H681	H68	0.933200	0.104700	0.196500
H691	H69	0.834000	0.951700	0.193900
H701	H70	0.801200	0.780800	0.243200
H711	H71	0.906500	0.799900	0.287000
H721	H72	0.043800	0.651300	0.273800
H731	H73	0.598200	0.573200	0.892600
H741	H74	0.693000	0.702800	0.846400
H751	H75	0.642700	0.482000	0.768200
H761	H76	0.661400	0.787900	0.775700
H771	H77	0.749300	0.869200	0.712800
H781	H78	0.917700	0.629100	0.656000
H791	H79	0.832200	0.548900	0.720900
H801	H80	0.554700	0.699300	0.448300
H811	H81	0.820600	0.509600	0.385800
H821	H82	0.957700	0.538100	0.458700
H831	H83	0.049100	0.694400	0.503900
H841	H84	0.097100	0.766100	0.573200
H851	H85	0.605100	0.738400	0.604300
H861	H86	0.557200	0.666700	0.535000
H871	H87	0.367300	0.159400	0.654900
H881	H88	0.141800	0.384300	0.608200
H891	H89	0.936000	0.259400	0.605000
H901	H90	0.929500	0.087000	0.575000
H911	H91	0.830300	0.933900	0.577600
H921	H92	0.066800	0.895300	0.696500
H931	H93	0.166000	0.048300	0.693900
H941	H94	0.198800	0.219200	0.743200
H951	H95	0.093500	0.200100	0.787000
H961	H96	0.956200	0.348700	0.773800
C11	C1	0.617700	0.429000	0.138460
C21	C2	0.671500	0.357900	0.163690
C31	C3	0.642300	0.479500	0.206440
C41	C4	0.741800	0.338700	0.246160
C51	C5	0.713700	0.243300	0.248100
C61	C6	0.764500	0.195400	0.285970
C71	C7	0.838800	0.241500	0.322910
C81	C8	0.866600	0.338900	0.320260
C91	C9	0.815800	0.386600	0.281260
C101	C10	0.638400	0.344300	0.558460
C111	C11	0.784800	0.447900	0.592320
C121	C12	0.860200	0.432900	0.551950
C131	C13	0.798400	0.326600	0.487420
C141	C14	0.960100	0.296800	0.475970
C151	C15	0.988900	0.253900	0.434460
C161	C16	0.855900	0.240700	0.404400
C171	C17	0.694100	0.270400	0.415850
C181	C18	0.665400	0.313400	0.457360
C191	C19	0.285800	0.800500	0.356900
C201	C20	0.159800	0.677200	0.382520
C211	C21	0.046900	0.745400	0.384830
C221	C22	0.057600	0.917200	0.365800
C231	C23	0.957000	0.951400	0.400630
C241	C24	0.897600	0.043100	0.399100
C251	C25	0.938700	0.100500	0.362720
C261	C26	0.039300	0.066300	0.327880
C271	C27	0.098700	0.974600	0.329420
C281	C28	0.266800	0.702200	0.205200
C291	C29	0.142200	0.750700	0.231500
C301	C30	0.382300	0.571000	0.638460
C311	C31	0.328500	0.642100	0.663690
C321	C32	0.357700	0.520500	0.706440
C331	C33	0.258200	0.661300	0.746160
C341	C34	0.286300	0.756700	0.748100
C351	C35	0.235500	0.804600	0.785970
C361	C36	0.161200	0.758500	0.822910
C371	C37	0.133400	0.661100	0.820260
C381	C38	0.184200	0.613400	0.781260
C391	C39	0.361600	0.655700	0.058460
C401	C40	0.215200	0.552100	0.092320
C411	C41	0.139800	0.567100	0.051950
C421	C42	0.201600	0.673400	0.987420
C431	C43	0.039900	0.703200	0.975970
C441	C44	0.011100	0.746100	0.934460
C451	C45	0.144100	0.759300	0.904400
C461	C46	0.305900	0.729600	0.915850
C471	C47	0.334600	0.686600	0.957360
C481	C48	0.714200	0.199500	0.856900
C491	C49	0.840200	0.322800	0.882520
C501	C50	0.953100	0.254600	0.884830
C511	C51	0.942400	0.082800	0.865800
C521	C52	0.043000	0.048600	0.900630
C531	C53	0.102400	0.956900	0.899100
C541	C54	0.061300	0.899500	0.862720
C551	C55	0.960700	0.933700	0.827880
C561	C56	0.901300	0.025400	0.829420
C571	C57	0.733200	0.297800	0.705200
C581	C58	0.857800	0.249300	0.731500
C591	C59	0.382300	0.429000	0.361540
C601	C60	0.328500	0.357900	0.336310
C611	C61	0.357700	0.479500	0.293560
C621	C62	0.258200	0.338700	0.253840
C631	C63	0.286300	0.243300	0.251900
C641	C64	0.235500	0.195400	0.214030
C651	C65	0.161200	0.241500	0.177090
C661	C66	0.133400	0.338900	0.179740
C671	C67	0.184200	0.386600	0.218740
C681	C68	0.361600	0.344300	0.941540
C691	C69	0.215200	0.447900	0.907680
C701	C70	0.139800	0.432900	0.948050
C711	C71	0.201600	0.326600	0.012580
C721	C72	0.039900	0.296800	0.024030
C731	C73	0.011100	0.253900	0.065540
C741	C74	0.144100	0.240700	0.095600
C751	C75	0.305900	0.270400	0.084150
C761	C76	0.334600	0.313400	0.042640
C771	C77	0.714200	0.800500	0.143100
C781	C78	0.840200	0.677200	0.117480
C791	C79	0.953100	0.745400	0.115170
C801	C80	0.942400	0.917200	0.134200
C811	C81	0.043000	0.951400	0.099370
C821	C82	0.102400	0.043100	0.100900
C831	C83	0.061300	0.100500	0.137280
C841	C84	0.960700	0.066300	0.172120
C851	C85	0.901300	0.974600	0.170580
C861	C86	0.733200	0.702200	0.294800
C871	C87	0.857800	0.750700	0.268500
C881	C88	0.617700	0.571000	0.861540
C891	C89	0.671500	0.642100	0.836310
C901	C90	0.642300	0.520500	0.793560
C911	C91	0.741800	0.661300	0.753840
C921	C92	0.713700	0.756700	0.751900
C931	C93	0.764500	0.804600	0.714030
C941	C94	0.838800	0.758500	0.677090
C951	C95	0.866600	0.661100	0.679740
C961	C96	0.815800	0.613400	0.718740
C971	C97	0.638400	0.655700	0.441540
C981	C98	0.784800	0.552100	0.407680
C991	C99	0.860200	0.567100	0.448050
C1001	C100	0.798400	0.673400	0.512580
C1011	C101	0.960100	0.703200	0.524030
C1021	C102	0.988900	0.746100	0.565540
C1031	C103	0.855900	0.759300	0.595600
C1041	C104	0.694100	0.729600	0.584150
C1051	C105	0.665400	0.686600	0.542640
C1061	C106	0.285800	0.199500	0.643100
C1071	C107	0.159800	0.322800	0.617480
C1081	C108	0.046900	0.254600	0.615170
C1091	C109	0.057600	0.082800	0.634200
C1101	C110	0.957000	0.048600	0.599370
C1111	C111	0.897600	0.956900	0.600900
C1121	C112	0.938700	0.899500	0.637280
C1131	C113	0.039300	0.933700	0.672120
C1141	C114	0.098700	0.025400	0.670580
C1151	C115	0.266800	0.297800	0.794800
C1161	C116	0.142200	0.249300	0.768500
C1171	C117	0.000000	0.691300	0.250000
C1181	C118	0.000000	0.308700	0.750000
N11	N1	0.595300	0.507400	0.165970
N21	N2	0.689400	0.389600	0.207000
N31	N3	0.885400	0.195100	0.362910
N41	N4	0.648600	0.390700	0.595690
N51	N5	0.768100	0.368300	0.530240
N61	N6	0.307200	0.710800	0.364430
N71	N7	0.127500	0.826300	0.368850
N81	N8	0.404700	0.492600	0.665970
N91	N9	0.310600	0.610400	0.707000
N101	N10	0.114600	0.804900	0.862910
N111	N11	0.351400	0.609300	0.095690
N121	N12	0.231900	0.631700	0.030240
N131	N13	0.692800	0.289200	0.864430
N141	N14	0.872500	0.173700	0.868850
N151	N15	0.404700	0.507400	0.334030
N161	N16	0.310600	0.389600	0.293000
N171	N17	0.114600	0.195100	0.137090
N181	N18	0.351400	0.390700	0.904310
N191	N19	0.231900	0.368300	0.969760
N201	N20	0.692800	0.710800	0.135570
N211	N21	0.872500	0.826300	0.131150
N221	N22	0.595300	0.492600	0.834030
N231	N23	0.689400	0.610400	0.793000
N241	N24	0.885400	0.804900	0.637090
N251	N25	0.648600	0.609300	0.404310
N261	N26	0.768100	0.631700	0.469760
N271	N27	0.307200	0.289200	0.635570
N281	N28	0.127500	0.173700	0.631150
O11	O1	0.358700	0.747600	0.182140
O21	O2	0.299300	0.620700	0.204610
O31	O3	0.641300	0.252400	0.682140
O41	O4	0.700700	0.379300	0.704610
O51	O5	0.641300	0.747600	0.317860
O61	O6	0.700700	0.620700	0.295390
O71	O7	0.358700	0.252400	0.817860
O81	O8	0.299300	0.379300	0.795390
N291	N29	0.421500	0.911100	0.622900
O91	O9	0.358700	0.862200	0.596400
O101	O10	0.459400	0.989300	0.611100
O111	O11	0.447200	0.885100	0.658400
N301	N30	0.578500	0.088900	0.122900
O121	O12	0.641300	0.137800	0.096400
O131	O13	0.540600	0.010700	0.111100
O141	O14	0.552800	0.114900	0.158400
N311	N31	0.578500	0.911100	0.877100
O151	O15	0.641300	0.862200	0.903600
O161	O16	0.540600	0.989300	0.888900
O171	O17	0.552800	0.885100	0.841600
N321	N32	0.421500	0.088900	0.377100
O181	O18	0.358700	0.137800	0.403600
O191	O19	0.459400	0.010700	0.388900
O201	O20	0.447200	0.114900	0.341600
N331	N33	0.307700	0.500000	0.500000
O211	O21	0.231800	0.478500	0.465760
O221	O22	0.231800	0.521500	0.534240
O231	O23	0.463700	0.500000	0.500000
N341	N34	0.692300	0.500000	0.000000
O241	O24	0.768200	0.521500	0.965760
O251	O25	0.768200	0.478500	0.034240
O261	O26	0.536300	0.500000	0.000000
