data_AWEDOW_charged_PM
_symmetry_space_group_name_H-M	'P1'
_cell_length_a	9.905500
_cell_length_b	27.766000
_cell_length_c	28.330000
_cell_angle_alpha	90.000000
_cell_angle_beta	90.000000
_cell_angle_gamma	90.000000
_symmetry_Int_Tables_number 1

loop_
_symmetry_equiv_pos_as_xyz
'x,y,z'

loop_
_atom_site_label
_atom_site_type_symbol
_atom_site_fract_x
_atom_site_fract_y
_atom_site_fract_z
Zn11	Zn1	0.615980	0.512560	0.631500
Zn21	Zn2	0.615980	0.487440	0.868500
Zn31	Zn3	0.884020	0.012560	0.868500
Zn41	Zn4	0.884020	0.987440	0.631500
Zn51	Zn5	0.384020	0.487440	0.368500
Zn61	Zn6	0.384020	0.512560	0.131500
Zn71	Zn7	0.115980	0.987440	0.131500
Zn81	Zn8	0.115980	0.012560	0.368500
H11	H1	0.383700	0.443800	0.586100
H21	H2	0.410500	0.397600	0.516800
H31	H3	0.736500	0.475700	0.536400
H41	H4	0.281900	0.078500	0.441900
H51	H5	0.251900	0.165000	0.450700
H61	H6	0.017700	0.115700	0.346100
H71	H7	0.278200	0.454400	0.219500
H81	H8	0.065600	0.499300	0.111600
H91	H9	0.909300	0.456000	0.163900
H101	H10	0.607200	0.340300	0.485500
H111	H11	0.726900	0.304000	0.424800
H121	H12	0.866400	0.433300	0.384100
H131	H13	0.746700	0.469700	0.444800
H141	H14	0.097300	0.229900	0.451200
H151	H15	0.993600	0.304600	0.440600
H161	H16	0.927000	0.272400	0.304800
H171	H17	0.007900	0.194900	0.317800
H181	H18	0.214100	0.404300	0.274000
H191	H19	0.127600	0.363900	0.338700
H201	H20	0.763600	0.386400	0.299600
H211	H21	0.831600	0.418400	0.230100
H221	H22	0.321300	0.472900	0.741700
H231	H23	0.383700	0.556200	0.913900
H241	H24	0.410500	0.602400	0.983200
H251	H25	0.736500	0.524300	0.963600
H261	H26	0.281900	0.921500	0.058100
H271	H27	0.251900	0.835000	0.049300
H281	H28	0.017700	0.884300	0.153900
H291	H29	0.278200	0.545600	0.280500
H301	H30	0.065600	0.500700	0.388400
H311	H31	0.909300	0.544000	0.336100
H321	H32	0.607200	0.659700	0.014500
H331	H33	0.726900	0.696000	0.075200
H341	H34	0.866400	0.566700	0.115900
H351	H35	0.746700	0.530300	0.055200
H361	H36	0.097300	0.770100	0.048800
H371	H37	0.993600	0.695400	0.059400
H381	H38	0.927000	0.727600	0.195200
H391	H39	0.007900	0.805100	0.182200
H401	H40	0.214100	0.595700	0.226000
H411	H41	0.127600	0.636100	0.161300
H421	H42	0.763600	0.613600	0.200400
H431	H43	0.831600	0.581600	0.269900
H441	H44	0.321300	0.527100	0.758300
H451	H45	0.116300	0.943800	0.913900
H461	H46	0.089500	0.897600	0.983200
H471	H47	0.763500	0.975700	0.963600
H481	H48	0.218100	0.578500	0.058100
H491	H49	0.248100	0.665000	0.049300
H501	H50	0.482300	0.615700	0.153900
H511	H51	0.221800	0.954400	0.280500
H521	H52	0.434400	0.999300	0.388400
H531	H53	0.590700	0.956000	0.336100
H541	H54	0.892800	0.840300	0.014500
H551	H55	0.773100	0.804000	0.075200
H561	H56	0.633600	0.933300	0.115900
H571	H57	0.753300	0.969700	0.055200
H581	H58	0.402700	0.729900	0.048800
H591	H59	0.506400	0.804600	0.059400
H601	H60	0.573000	0.772400	0.195200
H611	H61	0.492100	0.694900	0.182200
H621	H62	0.285900	0.904300	0.226000
H631	H63	0.372400	0.863900	0.161300
H641	H64	0.736400	0.886400	0.200400
H651	H65	0.668400	0.918400	0.269900
H661	H66	0.178700	0.972900	0.758300
H671	H67	0.116300	0.056200	0.586100
H681	H68	0.089500	0.102400	0.516800
H691	H69	0.763500	0.024300	0.536400
H701	H70	0.218100	0.421500	0.441900
H711	H71	0.248100	0.335000	0.450700
H721	H72	0.482300	0.384300	0.346100
H731	H73	0.221800	0.045600	0.219500
H741	H74	0.434400	0.000700	0.111600
H751	H75	0.590700	0.044000	0.163900
H761	H76	0.892800	0.159700	0.485500
H771	H77	0.773100	0.196000	0.424800
H781	H78	0.633600	0.066700	0.384100
H791	H79	0.753300	0.030300	0.444800
H801	H80	0.402700	0.270100	0.451200
H811	H81	0.506400	0.195400	0.440600
H821	H82	0.573000	0.227600	0.304800
H831	H83	0.492100	0.305100	0.317800
H841	H84	0.285900	0.095700	0.274000
H851	H85	0.372400	0.136100	0.338700
H861	H86	0.736400	0.113600	0.299600
H871	H87	0.668400	0.081600	0.230100
H881	H88	0.178700	0.027100	0.741700
H891	H89	0.616300	0.556200	0.413900
H901	H90	0.589500	0.602400	0.483200
H911	H91	0.263500	0.524300	0.463600
H921	H92	0.718100	0.921500	0.558100
H931	H93	0.748100	0.835000	0.549300
H941	H94	0.982300	0.884300	0.653900
H951	H95	0.721800	0.545600	0.780500
H961	H96	0.934400	0.500700	0.888400
H971	H97	0.090700	0.544000	0.836100
H981	H98	0.392800	0.659700	0.514500
H991	H99	0.273100	0.696000	0.575200
H1001	H100	0.133600	0.566700	0.615900
H1011	H101	0.253300	0.530300	0.555200
H1021	H102	0.902700	0.770100	0.548800
H1031	H103	0.006400	0.695400	0.559400
H1041	H104	0.073000	0.727600	0.695200
H1051	H105	0.992100	0.805100	0.682200
H1061	H106	0.785900	0.595700	0.726000
H1071	H107	0.872400	0.636100	0.661300
H1081	H108	0.236400	0.613600	0.700400
H1091	H109	0.168400	0.581600	0.769900
H1101	H110	0.678700	0.527100	0.258300
H1111	H111	0.616300	0.443800	0.086100
H1121	H112	0.589500	0.397600	0.016800
H1131	H113	0.263500	0.475700	0.036400
H1141	H114	0.718100	0.078500	0.941900
H1151	H115	0.748100	0.165000	0.950700
H1161	H116	0.982300	0.115700	0.846100
H1171	H117	0.721800	0.454400	0.719500
H1181	H118	0.934400	0.499300	0.611600
H1191	H119	0.090700	0.456000	0.663900
H1201	H120	0.392800	0.340300	0.985500
H1211	H121	0.273100	0.304000	0.924800
H1221	H122	0.133600	0.433300	0.884100
H1231	H123	0.253300	0.469700	0.944800
H1241	H124	0.902700	0.229900	0.951200
H1251	H125	0.006400	0.304600	0.940600
H1261	H126	0.073000	0.272400	0.804800
H1271	H127	0.992100	0.194900	0.817800
H1281	H128	0.785900	0.404300	0.774000
H1291	H129	0.872400	0.363900	0.838700
H1301	H130	0.236400	0.386400	0.799600
H1311	H131	0.168400	0.418400	0.730100
H1321	H132	0.678700	0.472900	0.241700
H1331	H133	0.883700	0.056200	0.086100
H1341	H134	0.910500	0.102400	0.016800
H1351	H135	0.236500	0.024300	0.036400
H1361	H136	0.781900	0.421500	0.941900
H1371	H137	0.751900	0.335000	0.950700
H1381	H138	0.517700	0.384300	0.846100
H1391	H139	0.778200	0.045600	0.719500
H1401	H140	0.565600	0.000700	0.611600
H1411	H141	0.409300	0.044000	0.663900
H1421	H142	0.107200	0.159700	0.985500
H1431	H143	0.226900	0.196000	0.924800
H1441	H144	0.366400	0.066700	0.884100
H1451	H145	0.246700	0.030300	0.944800
H1461	H146	0.597300	0.270100	0.951200
H1471	H147	0.493600	0.195400	0.940600
H1481	H148	0.427000	0.227600	0.804800
H1491	H149	0.507900	0.305100	0.817800
H1501	H150	0.714100	0.095700	0.774000
H1511	H151	0.627600	0.136100	0.838700
H1521	H152	0.263600	0.113600	0.799600
H1531	H153	0.331600	0.081600	0.730100
H1541	H154	0.821300	0.027100	0.241700
H1551	H155	0.883700	0.943800	0.413900
H1561	H156	0.910500	0.897600	0.483200
H1571	H157	0.236500	0.975700	0.463600
H1581	H158	0.781900	0.578500	0.558100
H1591	H159	0.751900	0.665000	0.549300
H1601	H160	0.517700	0.615700	0.653900
H1611	H161	0.778200	0.954400	0.780500
H1621	H162	0.565600	0.999300	0.888400
H1631	H163	0.409300	0.956000	0.836100
H1641	H164	0.107200	0.840300	0.514500
H1651	H165	0.226900	0.804000	0.575200
H1661	H166	0.366400	0.933300	0.615900
H1671	H167	0.246700	0.969700	0.555200
H1681	H168	0.597300	0.729900	0.548800
H1691	H169	0.493600	0.804600	0.559400
H1701	H170	0.427000	0.772400	0.695200
H1711	H171	0.507900	0.694900	0.682200
H1721	H172	0.714100	0.904300	0.726000
H1731	H173	0.627600	0.863900	0.661300
H1741	H174	0.263600	0.886400	0.700400
H1751	H175	0.331600	0.918400	0.769900
H1761	H176	0.821300	0.972900	0.258300
C11	C1	0.458800	0.444950	0.566460
C21	C2	0.472900	0.419300	0.529140
C31	C3	0.650700	0.462560	0.539720
C41	C4	0.225100	0.097510	0.423590
C51	C5	0.209800	0.145290	0.428590
C61	C6	0.080200	0.117520	0.370530
C71	C7	0.206100	0.460480	0.199290
C81	C8	0.089500	0.485010	0.140110
C91	C9	0.001100	0.461080	0.168760
C101	C10	0.665080	0.408580	0.471160
C111	C11	0.659140	0.358940	0.465170
C121	C12	0.730850	0.337170	0.428790
C131	C13	0.808520	0.365050	0.398400
C141	C14	0.814460	0.414690	0.404390
C151	C15	0.742740	0.436460	0.440770
C161	C16	0.064800	0.206850	0.386300
C171	C17	0.060300	0.237970	0.422050
C181	C18	0.999100	0.283150	0.415470
C191	C19	0.947200	0.296000	0.372040
C201	C20	0.956500	0.263410	0.334650
C211	C21	0.009200	0.217730	0.341820
C221	C22	0.032900	0.419430	0.247140
C231	C23	0.121400	0.400820	0.278050
C241	C24	0.067400	0.375990	0.316510
C251	C25	0.937700	0.368350	0.323780
C261	C26	0.855600	0.387820	0.293190
C271	C27	0.894200	0.409830	0.253070
C281	C28	0.470600	0.512940	0.709530
C291	C29	0.458800	0.555050	0.933540
C301	C30	0.472900	0.580700	0.970860
C311	C31	0.650700	0.537440	0.960280
C321	C32	0.225100	0.902490	0.076410
C331	C33	0.209800	0.854710	0.071410
C341	C34	0.080200	0.882480	0.129470
C351	C35	0.206100	0.539520	0.300710
C361	C36	0.089500	0.514990	0.359890
C371	C37	0.001100	0.538920	0.331240
C381	C38	0.665080	0.591420	0.028840
C391	C39	0.659140	0.641060	0.034830
C401	C40	0.730850	0.662830	0.071210
C411	C41	0.808520	0.634950	0.101600
C421	C42	0.814460	0.585310	0.095610
C431	C43	0.742740	0.563540	0.059230
C441	C44	0.064800	0.793150	0.113700
C451	C45	0.060300	0.762030	0.077950
C461	C46	0.999100	0.716850	0.084530
C471	C47	0.947200	0.704000	0.127960
C481	C48	0.956500	0.736590	0.165350
C491	C49	0.009200	0.782270	0.158180
C501	C50	0.032900	0.580570	0.252860
C511	C51	0.121400	0.599180	0.221950
C521	C52	0.067400	0.624010	0.183490
C531	C53	0.937700	0.631650	0.176220
C541	C54	0.855600	0.612180	0.206810
C551	C55	0.894200	0.590170	0.246930
C561	C56	0.470600	0.487060	0.790470
C571	C57	0.041200	0.944950	0.933540
C581	C58	0.027100	0.919300	0.970860
C591	C59	0.849300	0.962560	0.960280
C601	C60	0.274900	0.597510	0.076410
C611	C61	0.290200	0.645290	0.071410
C621	C62	0.419800	0.617520	0.129470
C631	C63	0.293900	0.960480	0.300710
C641	C64	0.410500	0.985010	0.359890
C651	C65	0.498900	0.961080	0.331240
C661	C66	0.834920	0.908580	0.028840
C671	C67	0.840860	0.858940	0.034830
C681	C68	0.769150	0.837170	0.071210
C691	C69	0.691480	0.865050	0.101600
C701	C70	0.685540	0.914690	0.095610
C711	C71	0.757260	0.936460	0.059230
C721	C72	0.435200	0.706850	0.113700
C731	C73	0.439700	0.737970	0.077950
C741	C74	0.500900	0.783150	0.084530
C751	C75	0.552800	0.796000	0.127960
C761	C76	0.543500	0.763410	0.165350
C771	C77	0.490800	0.717730	0.158180
C781	C78	0.467100	0.919430	0.252860
C791	C79	0.378600	0.900820	0.221950
C801	C80	0.432600	0.875990	0.183490
C811	C81	0.562300	0.868350	0.176220
C821	C82	0.644400	0.887820	0.206810
C831	C83	0.605800	0.909830	0.246930
C841	C84	0.029400	0.012940	0.790470
C851	C85	0.041200	0.055050	0.566460
C861	C86	0.027100	0.080700	0.529140
C871	C87	0.849300	0.037440	0.539720
C881	C88	0.274900	0.402490	0.423590
C891	C89	0.290200	0.354710	0.428590
C901	C90	0.419800	0.382480	0.370530
C911	C91	0.293900	0.039520	0.199290
C921	C92	0.410500	0.014990	0.140110
C931	C93	0.498900	0.038920	0.168760
C941	C94	0.834920	0.091420	0.471160
C951	C95	0.840860	0.141060	0.465170
C961	C96	0.769150	0.162830	0.428790
C971	C97	0.691480	0.134950	0.398400
C981	C98	0.685540	0.085310	0.404390
C991	C99	0.757260	0.063540	0.440770
C1001	C100	0.435200	0.293150	0.386300
C1011	C101	0.439700	0.262030	0.422050
C1021	C102	0.500900	0.216850	0.415470
C1031	C103	0.552800	0.204000	0.372040
C1041	C104	0.543500	0.236590	0.334650
C1051	C105	0.490800	0.282270	0.341820
C1061	C106	0.467100	0.080570	0.247140
C1071	C107	0.378600	0.099180	0.278050
C1081	C108	0.432600	0.124010	0.316510
C1091	C109	0.562300	0.131650	0.323780
C1101	C110	0.644400	0.112180	0.293190
C1111	C111	0.605800	0.090170	0.253070
C1121	C112	0.029400	0.987060	0.709530
C1131	C113	0.541200	0.555050	0.433540
C1141	C114	0.527100	0.580700	0.470860
C1151	C115	0.349300	0.537440	0.460280
C1161	C116	0.774900	0.902490	0.576410
C1171	C117	0.790200	0.854710	0.571410
C1181	C118	0.919800	0.882480	0.629470
C1191	C119	0.793900	0.539520	0.800710
C1201	C120	0.910500	0.514990	0.859890
C1211	C121	0.998900	0.538920	0.831240
C1221	C122	0.334920	0.591420	0.528840
C1231	C123	0.340860	0.641060	0.534830
C1241	C124	0.269150	0.662830	0.571210
C1251	C125	0.191480	0.634950	0.601600
C1261	C126	0.185540	0.585310	0.595610
C1271	C127	0.257260	0.563540	0.559230
C1281	C128	0.935200	0.793150	0.613700
C1291	C129	0.939700	0.762030	0.577950
C1301	C130	0.000900	0.716850	0.584530
C1311	C131	0.052800	0.704000	0.627960
C1321	C132	0.043500	0.736590	0.665350
C1331	C133	0.990800	0.782270	0.658180
C1341	C134	0.967100	0.580570	0.752860
C1351	C135	0.878600	0.599180	0.721950
C1361	C136	0.932600	0.624010	0.683490
C1371	C137	0.062300	0.631650	0.676220
C1381	C138	0.144400	0.612180	0.706810
C1391	C139	0.105800	0.590170	0.746930
C1401	C140	0.529400	0.487060	0.290470
C1411	C141	0.541200	0.444950	0.066460
C1421	C142	0.527100	0.419300	0.029140
C1431	C143	0.349300	0.462560	0.039720
C1441	C144	0.774900	0.097510	0.923590
C1451	C145	0.790200	0.145290	0.928590
C1461	C146	0.919800	0.117520	0.870530
C1471	C147	0.793900	0.460480	0.699290
C1481	C148	0.910500	0.485010	0.640110
C1491	C149	0.998900	0.461080	0.668760
C1501	C150	0.334920	0.408580	0.971160
C1511	C151	0.340860	0.358940	0.965170
C1521	C152	0.269150	0.337170	0.928790
C1531	C153	0.191480	0.365050	0.898400
C1541	C154	0.185540	0.414690	0.904390
C1551	C155	0.257260	0.436460	0.940770
C1561	C156	0.935200	0.206850	0.886300
C1571	C157	0.939700	0.237970	0.922050
C1581	C158	0.000900	0.283150	0.915470
C1591	C159	0.052800	0.296000	0.872040
C1601	C160	0.043500	0.263410	0.834650
C1611	C161	0.990800	0.217730	0.841820
C1621	C162	0.967100	0.419430	0.747140
C1631	C163	0.878600	0.400820	0.778050
C1641	C164	0.932600	0.375990	0.816510
C1651	C165	0.062300	0.368350	0.823780
C1661	C166	0.144400	0.387820	0.793190
C1671	C167	0.105800	0.409830	0.753070
C1681	C168	0.529400	0.512940	0.209530
C1691	C169	0.958800	0.055050	0.066460
C1701	C170	0.972900	0.080700	0.029140
C1711	C171	0.150700	0.037440	0.039720
C1721	C172	0.725100	0.402490	0.923590
C1731	C173	0.709800	0.354710	0.928590
C1741	C174	0.580200	0.382480	0.870530
C1751	C175	0.706100	0.039520	0.699290
C1761	C176	0.589500	0.014990	0.640110
C1771	C177	0.501100	0.038920	0.668760
C1781	C178	0.165080	0.091420	0.971160
C1791	C179	0.159140	0.141060	0.965170
C1801	C180	0.230850	0.162830	0.928790
C1811	C181	0.308520	0.134950	0.898400
C1821	C182	0.314460	0.085310	0.904390
C1831	C183	0.242740	0.063540	0.940770
C1841	C184	0.564800	0.293150	0.886300
C1851	C185	0.560300	0.262030	0.922050
C1861	C186	0.499100	0.216850	0.915470
C1871	C187	0.447200	0.204000	0.872040
C1881	C188	0.456500	0.236590	0.834650
C1891	C189	0.509200	0.282270	0.841820
C1901	C190	0.532900	0.080570	0.747140
C1911	C191	0.621400	0.099180	0.778050
C1921	C192	0.567400	0.124010	0.816510
C1931	C193	0.437700	0.131650	0.823780
C1941	C194	0.355600	0.112180	0.793190
C1951	C195	0.394200	0.090170	0.753070
C1961	C196	0.970600	0.987060	0.209530
C1971	C197	0.958800	0.944950	0.433540
C1981	C198	0.972900	0.919300	0.470860
C1991	C199	0.150700	0.962560	0.460280
C2001	C200	0.725100	0.597510	0.576410
C2011	C201	0.709800	0.645290	0.571410
C2021	C202	0.580200	0.617520	0.629470
C2031	C203	0.706100	0.960480	0.800710
C2041	C204	0.589500	0.985010	0.859890
C2051	C205	0.501100	0.961080	0.831240
C2061	C206	0.165080	0.908580	0.528840
C2071	C207	0.159140	0.858940	0.534830
C2081	C208	0.230850	0.837170	0.571210
C2091	C209	0.308520	0.865050	0.601600
C2101	C210	0.314460	0.914690	0.595610
C2111	C211	0.242740	0.936460	0.559230
C2121	C212	0.564800	0.706850	0.613700
C2131	C213	0.560300	0.737970	0.577950
C2141	C214	0.499100	0.783150	0.584530
C2151	C215	0.447200	0.796000	0.627960
C2161	C216	0.456500	0.763410	0.665350
C2171	C217	0.509200	0.717730	0.658180
C2181	C218	0.532900	0.919430	0.752860
C2191	C219	0.621400	0.900820	0.721950
C2201	C220	0.567400	0.875990	0.683490
C2211	C221	0.437700	0.868350	0.676220
C2221	C222	0.355600	0.887820	0.706810
C2231	C223	0.394200	0.909830	0.746930
C2241	C224	0.970600	0.012940	0.290470
C2251	C225	0.378300	0.500000	0.750000
C2261	C226	0.121700	0.000000	0.750000
C2271	C227	0.621700	0.500000	0.250000
C2281	C228	0.878300	0.000000	0.250000
N11	N1	0.568900	0.474350	0.573740
N21	N2	0.600800	0.430200	0.510380
N31	N3	0.887990	0.341370	0.363050
N41	N4	0.145600	0.080730	0.387910
N51	N5	0.116640	0.159470	0.393440
N61	N6	0.213600	0.485370	0.157750
N71	N7	0.078400	0.446190	0.206340
N81	N8	0.568900	0.525650	0.926260
N91	N9	0.600800	0.569800	0.989620
N101	N10	0.887990	0.658630	0.136950
N111	N11	0.145600	0.919270	0.112090
N121	N12	0.116640	0.840530	0.106560
N131	N13	0.213600	0.514630	0.342250
N141	N14	0.078400	0.553810	0.293660
N151	N15	0.931100	0.974350	0.926260
N161	N16	0.899200	0.930200	0.989620
N171	N17	0.612010	0.841370	0.136950
N181	N18	0.354400	0.580730	0.112090
N191	N19	0.383360	0.659470	0.106560
N201	N20	0.286400	0.985370	0.342250
N211	N21	0.421600	0.946190	0.293660
N221	N22	0.931100	0.025650	0.573740
N231	N23	0.899200	0.069800	0.510380
N241	N24	0.612010	0.158630	0.363050
N251	N25	0.354400	0.419270	0.387910
N261	N26	0.383360	0.340530	0.393440
N271	N27	0.286400	0.014630	0.157750
N281	N28	0.421600	0.053810	0.206340
N291	N29	0.431100	0.525650	0.426260
N301	N30	0.399200	0.569800	0.489620
N311	N31	0.112010	0.658630	0.636950
N321	N32	0.854400	0.919270	0.612090
N331	N33	0.883360	0.840530	0.606560
N341	N34	0.786400	0.514630	0.842250
N351	N35	0.921600	0.553810	0.793660
N361	N36	0.431100	0.474350	0.073740
N371	N37	0.399200	0.430200	0.010380
N381	N38	0.112010	0.341370	0.863050
N391	N39	0.854400	0.080730	0.887910
N401	N40	0.883360	0.159470	0.893440
N411	N41	0.786400	0.485370	0.657750
N421	N42	0.921600	0.446190	0.706340
N431	N43	0.068900	0.025650	0.073740
N441	N44	0.100800	0.069800	0.010380
N451	N45	0.387990	0.158630	0.863050
N461	N46	0.645600	0.419270	0.887910
N471	N47	0.616640	0.340530	0.893440
N481	N48	0.713600	0.014630	0.657750
N491	N49	0.578400	0.053810	0.706340
N501	N50	0.068900	0.974350	0.426260
N511	N51	0.100800	0.930200	0.489620
N521	N52	0.387990	0.841370	0.636950
N531	N53	0.645600	0.580730	0.612090
N541	N54	0.616640	0.659470	0.606560
N551	N55	0.713600	0.985370	0.842250
N561	N56	0.578400	0.946190	0.793660
O11	O1	0.557350	0.545030	0.714090
O21	O2	0.449310	0.496660	0.674690
O31	O3	0.557350	0.454970	0.785910
O41	O4	0.449310	0.503340	0.825310
O51	O5	0.942650	0.045030	0.785910
O61	O6	0.050690	0.996660	0.825310
O71	O7	0.942650	0.954970	0.714090
O81	O8	0.050690	0.003340	0.674690
O91	O9	0.442650	0.454970	0.285910
O101	O10	0.550690	0.503340	0.325310
O111	O11	0.442650	0.545030	0.214090
O121	O12	0.550690	0.496660	0.174690
O131	O13	0.057350	0.954970	0.214090
O141	O14	0.949310	0.003340	0.174690
O151	O15	0.057350	0.045030	0.285910
O161	O16	0.949310	0.996660	0.325310
N571	N57	0.846000	0.668950	0.444800
O171	O17	0.906400	0.634980	0.463680
O181	O18	0.855970	0.674670	0.402230
O191	O19	0.788570	0.698750	0.468820
N581	N58	0.846000	0.331050	0.055200
O201	O20	0.906400	0.365020	0.036320
O211	O21	0.855970	0.325330	0.097770
O221	O22	0.788570	0.301250	0.031180
N591	N59	0.654000	0.168950	0.055200
O231	O23	0.593600	0.134980	0.036320
O241	O24	0.644030	0.174670	0.097770
O251	O25	0.711430	0.198750	0.031180
N601	N60	0.654000	0.831050	0.444800
O261	O26	0.593600	0.865020	0.463680
O271	O27	0.644030	0.825330	0.402230
O281	O28	0.711430	0.801250	0.468820
N611	N61	0.154000	0.331050	0.555200
O291	O29	0.093600	0.365020	0.536320
O301	O30	0.144030	0.325330	0.597770
O311	O31	0.211430	0.301250	0.531180
N621	N62	0.154000	0.668950	0.944800
O321	O32	0.093600	0.634980	0.963680
O331	O33	0.144030	0.674670	0.902230
O341	O34	0.211430	0.698750	0.968820
N631	N63	0.346000	0.831050	0.944800
O351	O35	0.406400	0.865020	0.963680
O361	O36	0.355970	0.825330	0.902230
O371	O37	0.288570	0.801250	0.968820
N641	N64	0.346000	0.168950	0.555200
O381	O38	0.406400	0.134980	0.536320
O391	O39	0.355970	0.174670	0.597770
O401	O40	0.288570	0.198750	0.531180
