data_AXUHIL_freeONLY_PM
_symmetry_space_group_name_H-M	'P1'
_cell_length_a	14.997100
_cell_length_b	20.345400
_cell_length_c	22.462200
_cell_angle_alpha	103.852000
_cell_angle_beta	90.000000
_cell_angle_gamma	90.000000
_symmetry_Int_Tables_number 1

loop_
_symmetry_equiv_pos_as_xyz
'x,y,z'

loop_
_atom_site_label
_atom_site_type_symbol
_atom_site_fract_x
_atom_site_fract_y
_atom_site_fract_z
Cd11	Cd1	0.771040	0.098590	0.206170
Cd21	Cd2	0.715630	0.989830	0.313620
Cd31	Cd3	0.271040	0.401410	0.293830
Cd41	Cd4	0.215630	0.510170	0.186380
Cd51	Cd5	0.228960	0.901410	0.793830
Cd61	Cd6	0.284370	0.010170	0.686380
Cd71	Cd7	0.728960	0.598590	0.706170
Cd81	Cd8	0.784370	0.489830	0.813620
H11	H1	0.419600	0.201800	0.375700
H21	H2	0.452500	0.067300	0.477300
H31	H3	0.801000	0.133800	0.532100
H41	H4	0.745900	0.276300	0.685700
H51	H5	0.383700	0.258900	0.688400
H61	H6	0.334400	0.401500	0.596600
H71	H7	0.667400	0.477700	0.536500
H81	H8	0.727700	0.335100	0.384100
H91	H9	0.816000	0.187000	0.410600
H101	H10	0.737700	0.237300	0.402300
H111	H11	0.549900	0.111400	0.681800
H121	H12	0.556800	0.051100	0.621300
H131	H13	0.621600	0.451600	0.639800
H141	H14	0.710900	0.413900	0.611900
H151	H15	0.394700	0.411500	0.478800
H161	H16	0.332000	0.347400	0.475400
H171	H17	0.203100	0.156100	0.392800
H181	H18	0.285700	0.147700	0.346400
H191	H19	0.281000	0.211500	0.404100
H201	H20	0.227900	0.044500	0.405300
H211	H21	0.321900	0.021700	0.427500
H221	H22	0.312200	0.034800	0.360300
H231	H23	0.225700	0.142500	0.498300
H241	H24	0.306800	0.195100	0.509700
H251	H25	0.320900	0.120300	0.519200
H261	H26	0.917300	0.173800	0.681500
H271	H27	0.004500	0.188600	0.645800
H281	H28	0.936400	0.130600	0.613200
H291	H29	0.880300	0.289800	0.701700
H301	H30	0.873900	0.330800	0.649300
H311	H31	0.968200	0.302800	0.665700
H321	H32	0.914500	0.184900	0.527900
H331	H33	0.990300	0.236100	0.561000
H341	H34	0.898700	0.264800	0.540800
H351	H35	0.209800	0.291300	0.560500
H361	H36	0.201200	0.371200	0.588300
H371	H37	0.126000	0.321200	0.602400
H381	H38	0.241800	0.215600	0.624700
H391	H39	0.157100	0.244300	0.666100
H401	H40	0.252700	0.242500	0.697300
H411	H41	0.223200	0.417200	0.700400
H421	H42	0.241200	0.366400	0.743600
H431	H43	0.145800	0.367500	0.711900
H441	H44	0.856200	0.397500	0.524500
H451	H45	0.815500	0.471200	0.551900
H461	H46	0.909900	0.463200	0.517700
H471	H47	0.772000	0.512400	0.415500
H481	H48	0.862900	0.528600	0.453500
H491	H49	0.769100	0.538900	0.488500
H501	H50	0.840500	0.400000	0.370500
H511	H51	0.873300	0.355100	0.415900
H521	H52	0.924800	0.423500	0.414000
H531	H53	0.859800	0.037300	0.379600
H541	H54	0.787200	0.035900	0.424500
H551	H55	0.894400	0.929900	0.367600
H561	H56	0.802100	0.915500	0.397700
H571	H57	0.854100	0.975900	0.494300
H581	H58	0.913200	0.910500	0.466100
H591	H59	0.960100	0.044300	0.466100
H601	H60	0.018700	0.979400	0.435200
H611	H61	0.988100	0.103700	0.195900
H621	H62	0.111800	0.979300	0.278800
H631	H63	0.017900	0.953400	0.248100
H641	H64	0.021000	0.011500	0.310300
H651	H65	0.187400	0.038900	0.235900
H661	H66	0.148500	0.112600	0.237700
H671	H67	0.145600	0.054800	0.175300
H681	H68	0.538900	0.138800	0.245400
H691	H69	0.479100	0.950800	0.172700
H701	H70	0.583300	0.967200	0.181500
H711	H71	0.529600	0.988400	0.127500
H721	H72	0.398000	0.006300	0.239700
H731	H73	0.386900	0.085700	0.244900
H741	H74	0.447900	0.059900	0.293200
H751	H75	0.919600	0.298200	0.124300
H761	H76	0.952500	0.432700	0.022700
H771	H77	0.301000	0.366200	0.967900
H781	H78	0.245900	0.223700	0.814300
H791	H79	0.883700	0.241100	0.811600
H801	H80	0.834400	0.098500	0.903400
H811	H81	0.167400	0.022300	0.963500
H821	H82	0.227700	0.164900	0.115900
H831	H83	0.316000	0.313000	0.089400
H841	H84	0.237700	0.262700	0.097700
H851	H85	0.049900	0.388600	0.818200
H861	H86	0.056800	0.448900	0.878700
H871	H87	0.121600	0.048400	0.860200
H881	H88	0.210900	0.086100	0.888100
H891	H89	0.894700	0.088500	0.021200
H901	H90	0.832000	0.152600	0.024600
H911	H91	0.703100	0.343900	0.107200
H921	H92	0.785700	0.352300	0.153600
H931	H93	0.781000	0.288500	0.095900
H941	H94	0.727900	0.455500	0.094700
H951	H95	0.821900	0.478300	0.072500
H961	H96	0.812200	0.465200	0.139700
H971	H97	0.725700	0.357500	0.001700
H981	H98	0.806800	0.304900	0.990300
H991	H99	0.820900	0.379700	0.980800
H1001	H100	0.417300	0.326200	0.818500
H1011	H101	0.504500	0.311400	0.854200
H1021	H102	0.436400	0.369400	0.886800
H1031	H103	0.380300	0.210200	0.798300
H1041	H104	0.373900	0.169200	0.850700
H1051	H105	0.468200	0.197200	0.834300
H1061	H106	0.414500	0.315100	0.972100
H1071	H107	0.490300	0.263900	0.939000
H1081	H108	0.398700	0.235200	0.959200
H1091	H109	0.709800	0.208700	0.939500
H1101	H110	0.701200	0.128800	0.911700
H1111	H111	0.626000	0.178800	0.897600
H1121	H112	0.741800	0.284400	0.875300
H1131	H113	0.657100	0.255700	0.833900
H1141	H114	0.752700	0.257500	0.802700
H1151	H115	0.723200	0.082800	0.799600
H1161	H116	0.741200	0.133600	0.756400
H1171	H117	0.645800	0.132500	0.788100
H1181	H118	0.356200	0.102500	0.975500
H1191	H119	0.315500	0.028800	0.948100
H1201	H120	0.409900	0.036800	0.982300
H1211	H121	0.272000	0.987600	0.084500
H1221	H122	0.362900	0.971400	0.046500
H1231	H123	0.269100	0.961100	0.011500
H1241	H124	0.340500	0.100000	0.129500
H1251	H125	0.373300	0.144900	0.084100
H1261	H126	0.424800	0.076500	0.086000
H1271	H127	0.359800	0.462700	0.120400
H1281	H128	0.287200	0.464100	0.075500
H1291	H129	0.394400	0.570100	0.132400
H1301	H130	0.302100	0.584500	0.102300
H1311	H131	0.354100	0.524100	0.005700
H1321	H132	0.413200	0.589500	0.033900
H1331	H133	0.460100	0.455700	0.033900
H1341	H134	0.518700	0.520600	0.064800
H1351	H135	0.488100	0.396300	0.304100
H1361	H136	0.611800	0.520700	0.221200
H1371	H137	0.517900	0.546600	0.251900
H1381	H138	0.521000	0.488500	0.189700
H1391	H139	0.687400	0.461100	0.264100
H1401	H140	0.648500	0.387400	0.262300
H1411	H141	0.645600	0.445200	0.324700
H1421	H142	0.038900	0.361200	0.254600
H1431	H143	0.979100	0.549200	0.327300
H1441	H144	0.083300	0.532800	0.318500
H1451	H145	0.029600	0.511600	0.372500
H1461	H146	0.898000	0.493700	0.260300
H1471	H147	0.886900	0.414300	0.255100
H1481	H148	0.947900	0.440100	0.206800
H1491	H149	0.580400	0.798200	0.624300
H1501	H150	0.547500	0.932700	0.522700
H1511	H151	0.199000	0.866200	0.467900
H1521	H152	0.254100	0.723700	0.314300
H1531	H153	0.616300	0.741100	0.311600
H1541	H154	0.665600	0.598500	0.403400
H1551	H155	0.332600	0.522300	0.463500
H1561	H156	0.272300	0.664900	0.615900
H1571	H157	0.184000	0.813000	0.589400
H1581	H158	0.262300	0.762700	0.597700
H1591	H159	0.450100	0.888600	0.318200
H1601	H160	0.443200	0.948900	0.378700
H1611	H161	0.378400	0.548400	0.360200
H1621	H162	0.289100	0.586100	0.388100
H1631	H163	0.605300	0.588500	0.521200
H1641	H164	0.668000	0.652600	0.524600
H1651	H165	0.796900	0.843900	0.607200
H1661	H166	0.714300	0.852300	0.653600
H1671	H167	0.719000	0.788500	0.595900
H1681	H168	0.772100	0.955500	0.594700
H1691	H169	0.678100	0.978300	0.572500
H1701	H170	0.687800	0.965200	0.639700
H1711	H171	0.774300	0.857500	0.501700
H1721	H172	0.693200	0.804900	0.490300
H1731	H173	0.679100	0.879700	0.480800
H1741	H174	0.082700	0.826200	0.318500
H1751	H175	0.995500	0.811400	0.354200
H1761	H176	0.063600	0.869400	0.386800
H1771	H177	0.119700	0.710200	0.298300
H1781	H178	0.126100	0.669200	0.350700
H1791	H179	0.031800	0.697200	0.334300
H1801	H180	0.085500	0.815100	0.472100
H1811	H181	0.009700	0.763900	0.439000
H1821	H182	0.101300	0.735200	0.459200
H1831	H183	0.790200	0.708700	0.439500
H1841	H184	0.798800	0.628800	0.411700
H1851	H185	0.874000	0.678800	0.397600
H1861	H186	0.758200	0.784400	0.375300
H1871	H187	0.842900	0.755700	0.333900
H1881	H188	0.747300	0.757500	0.302700
H1891	H189	0.776800	0.582800	0.299600
H1901	H190	0.758800	0.633600	0.256400
H1911	H191	0.854200	0.632500	0.288100
H1921	H192	0.143800	0.602500	0.475500
H1931	H193	0.184500	0.528800	0.448100
H1941	H194	0.090100	0.536800	0.482300
H1951	H195	0.228000	0.487600	0.584500
H1961	H196	0.137100	0.471400	0.546500
H1971	H197	0.230900	0.461100	0.511500
H1981	H198	0.159500	0.600000	0.629500
H1991	H199	0.126700	0.644900	0.584100
H2001	H200	0.075200	0.576500	0.586000
H2011	H201	0.140200	0.962700	0.620400
H2021	H202	0.212800	0.964100	0.575500
H2031	H203	0.105600	0.070100	0.632400
H2041	H204	0.197900	0.084500	0.602300
H2051	H205	0.145900	0.024100	0.505700
H2061	H206	0.086800	0.089500	0.533900
H2071	H207	0.039900	0.955700	0.533900
H2081	H208	0.981300	0.020600	0.564800
H2091	H209	0.011900	0.896300	0.804100
H2101	H210	0.888200	0.020700	0.721200
H2111	H211	0.982100	0.046600	0.751900
H2121	H212	0.979000	0.988500	0.689700
H2131	H213	0.812600	0.961100	0.764100
H2141	H214	0.851500	0.887400	0.762300
H2151	H215	0.854400	0.945200	0.824700
H2161	H216	0.461100	0.861200	0.754600
H2171	H217	0.520900	0.049200	0.827300
H2181	H218	0.416700	0.032800	0.818500
H2191	H219	0.470400	0.011600	0.872500
H2201	H220	0.602000	0.993700	0.760300
H2211	H221	0.613100	0.914300	0.755100
H2221	H222	0.552100	0.940100	0.706800
H2231	H223	0.080400	0.701800	0.875700
H2241	H224	0.047500	0.567300	0.977300
H2251	H225	0.699000	0.633800	0.032100
H2261	H226	0.754100	0.776300	0.185700
H2271	H227	0.116300	0.758900	0.188400
H2281	H228	0.165600	0.901500	0.096600
H2291	H229	0.832600	0.977700	0.036500
H2301	H230	0.772300	0.835100	0.884100
H2311	H231	0.684000	0.687000	0.910600
H2321	H232	0.762300	0.737300	0.902300
H2331	H233	0.950100	0.611400	0.181800
H2341	H234	0.943200	0.551100	0.121300
H2351	H235	0.878400	0.951600	0.139800
H2361	H236	0.789100	0.913900	0.111900
H2371	H237	0.105300	0.911500	0.978800
H2381	H238	0.168000	0.847400	0.975400
H2391	H239	0.296900	0.656100	0.892800
H2401	H240	0.214300	0.647700	0.846400
H2411	H241	0.219000	0.711500	0.904100
H2421	H242	0.272100	0.544500	0.905300
H2431	H243	0.178100	0.521700	0.927500
H2441	H244	0.187800	0.534800	0.860300
H2451	H245	0.274300	0.642500	0.998300
H2461	H246	0.193200	0.695100	0.009700
H2471	H247	0.179100	0.620300	0.019200
H2481	H248	0.582700	0.673800	0.181500
H2491	H249	0.495500	0.688600	0.145800
H2501	H250	0.563600	0.630600	0.113200
H2511	H251	0.619700	0.789800	0.201700
H2521	H252	0.626100	0.830800	0.149300
H2531	H253	0.531800	0.802800	0.165700
H2541	H254	0.585500	0.684900	0.027900
H2551	H255	0.509700	0.736100	0.061000
H2561	H256	0.601300	0.764800	0.040800
H2571	H257	0.290200	0.791300	0.060500
H2581	H258	0.298800	0.871200	0.088300
H2591	H259	0.374000	0.821200	0.102400
H2601	H260	0.258200	0.715600	0.124700
H2611	H261	0.342900	0.744300	0.166100
H2621	H262	0.247300	0.742500	0.197300
H2631	H263	0.276800	0.917200	0.200400
H2641	H264	0.258800	0.866400	0.243600
H2651	H265	0.354200	0.867500	0.211900
H2661	H266	0.643800	0.897500	0.024500
H2671	H267	0.684500	0.971200	0.051900
H2681	H268	0.590100	0.963200	0.017700
H2691	H269	0.728000	0.012400	0.915500
H2701	H270	0.637100	0.028600	0.953500
H2711	H271	0.730900	0.038900	0.988500
H2721	H272	0.659500	0.900000	0.870500
H2731	H273	0.626700	0.855100	0.915900
H2741	H274	0.575200	0.923500	0.914000
H2751	H275	0.640200	0.537300	0.879600
H2761	H276	0.712800	0.535900	0.924500
H2771	H277	0.605600	0.429900	0.867600
H2781	H278	0.697900	0.415500	0.897700
H2791	H279	0.645900	0.475900	0.994300
H2801	H280	0.586800	0.410500	0.966100
H2811	H281	0.539900	0.544300	0.966100
H2821	H282	0.481300	0.479400	0.935200
H2831	H283	0.511900	0.603700	0.695900
H2841	H284	0.388200	0.479300	0.778800
H2851	H285	0.482100	0.453400	0.748100
H2861	H286	0.479000	0.511500	0.810300
H2871	H287	0.312600	0.538900	0.735900
H2881	H288	0.351500	0.612600	0.737700
H2891	H289	0.354400	0.554800	0.675300
H2901	H290	0.961100	0.638800	0.745400
H2911	H291	0.020900	0.450800	0.672700
H2921	H292	0.916700	0.467200	0.681500
H2931	H293	0.970400	0.488400	0.627500
H2941	H294	0.102000	0.506300	0.739700
H2951	H295	0.113100	0.585700	0.744900
H2961	H296	0.052100	0.559900	0.793200
C11	C1	0.605200	0.155600	0.427200
C21	C2	0.549100	0.191000	0.396700
C31	C3	0.457500	0.177800	0.397000
C41	C4	0.418500	0.132900	0.425700
C51	C5	0.476300	0.098900	0.456600
C61	C6	0.567800	0.110000	0.457900
C71	C7	0.613200	0.163300	0.604400
C81	C8	0.672600	0.132100	0.559100
C91	C9	0.760000	0.154900	0.563100
C101	C10	0.789900	0.207300	0.610400
C111	C11	0.727800	0.239300	0.653600
C121	C12	0.639800	0.217900	0.650300
C131	C13	0.528200	0.351500	0.635900
C141	C14	0.495100	0.303900	0.665900
C151	C15	0.404200	0.292700	0.669000
C161	C16	0.342600	0.329400	0.644400
C171	C17	0.375500	0.375800	0.613900
C181	C18	0.467000	0.386300	0.607500
C191	C19	0.540300	0.353900	0.460400
C201	C20	0.567200	0.410200	0.508100
C211	C21	0.651200	0.438700	0.505800
C221	C22	0.712300	0.411500	0.459800
C231	C23	0.686600	0.354600	0.415600
C241	C24	0.603500	0.325200	0.415600
C251	C25	0.753900	0.189000	0.396100
C261	C26	0.750200	0.156100	0.329100
C271	C27	0.521900	0.091600	0.641500
C281	C28	0.428600	0.070400	0.651800
C291	C29	0.664500	0.415900	0.643700
C301	C30	0.707900	0.437000	0.704500
C311	C31	0.382400	0.364800	0.455100
C321	C32	0.352800	0.367900	0.392300
C331	C33	0.317800	0.123100	0.428100
C341	C34	0.267400	0.163200	0.389400
C351	C35	0.292700	0.049500	0.403100
C361	C36	0.290400	0.147400	0.494700
C371	C37	0.888000	0.228500	0.615000
C381	C38	0.941600	0.175400	0.641300
C391	C39	0.904000	0.293700	0.662000
C401	C40	0.925900	0.228600	0.556600
C411	C41	0.241200	0.319800	0.652800
C421	C42	0.189900	0.326500	0.595900
C431	C43	0.221400	0.249300	0.660900
C441	C44	0.210200	0.372200	0.706700
C451	C45	0.805600	0.440600	0.460100
C461	C46	0.850500	0.443400	0.518300
C471	C47	0.802100	0.511000	0.453900
C481	C48	0.866400	0.401400	0.410800
C491	C49	0.851100	0.948700	0.400600
C501	C50	0.896800	0.956100	0.461300
C511	C51	0.976500	0.998100	0.468900
C521	C52	0.981100	0.071100	0.219600
C531	C53	0.051000	0.992900	0.271100
C541	C54	0.140900	0.064000	0.220000
C551	C55	0.555200	0.099800	0.214700
C561	C56	0.526000	0.983400	0.169800
C571	C57	0.428200	0.050300	0.250300
C581	C58	0.105200	0.344400	0.072800
C591	C59	0.049100	0.309000	0.103300
C601	C60	0.957500	0.322200	0.103000
C611	C61	0.918500	0.367100	0.074300
C621	C62	0.976300	0.401100	0.043400
C631	C63	0.067800	0.390000	0.042100
C641	C64	0.113200	0.336700	0.895600
C651	C65	0.172600	0.367900	0.940900
C661	C66	0.260000	0.345100	0.936900
C671	C67	0.289900	0.292700	0.889600
C681	C68	0.227800	0.260700	0.846400
C691	C69	0.139800	0.282100	0.849700
C701	C70	0.028200	0.148500	0.864100
C711	C71	0.995100	0.196100	0.834100
C721	C72	0.904200	0.207300	0.831000
C731	C73	0.842600	0.170600	0.855600
C741	C74	0.875500	0.124200	0.886100
C751	C75	0.967000	0.113700	0.892500
C761	C76	0.040300	0.146100	0.039600
C771	C77	0.067200	0.089800	0.991900
C781	C78	0.151200	0.061300	0.994200
C791	C79	0.212300	0.088500	0.040200
C801	C80	0.186600	0.145400	0.084400
C811	C81	0.103500	0.174800	0.084400
C821	C82	0.253900	0.311000	0.103900
C831	C83	0.250200	0.343900	0.170900
C841	C84	0.021900	0.408400	0.858500
C851	C85	0.928600	0.429600	0.848200
C861	C86	0.164500	0.084100	0.856300
C871	C87	0.207900	0.063000	0.795500
C881	C88	0.882400	0.135200	0.044900
C891	C89	0.852800	0.132100	0.107700
C901	C90	0.817800	0.376900	0.071900
C911	C91	0.767400	0.336800	0.110600
C921	C92	0.792700	0.450500	0.096900
C931	C93	0.790400	0.352600	0.005300
C941	C94	0.388000	0.271500	0.885000
C951	C95	0.441600	0.324600	0.858700
C961	C96	0.404000	0.206300	0.838000
C971	C97	0.425900	0.271400	0.943400
C981	C98	0.741200	0.180200	0.847200
C991	C99	0.689900	0.173500	0.904100
C1001	C100	0.721400	0.250700	0.839100
C1011	C101	0.710200	0.127800	0.793300
C1021	C102	0.305600	0.059400	0.039900
C1031	C103	0.350500	0.056600	0.981700
C1041	C104	0.302100	0.989000	0.046100
C1051	C105	0.366400	0.098600	0.089200
C1061	C106	0.351100	0.551300	0.099400
C1071	C107	0.396800	0.543900	0.038700
C1081	C108	0.476500	0.501900	0.031100
C1091	C109	0.481100	0.428900	0.280400
C1101	C110	0.551000	0.507100	0.228900
C1111	C111	0.640900	0.436000	0.280000
C1121	C112	0.055200	0.400200	0.285300
C1131	C113	0.026000	0.516600	0.330200
C1141	C114	0.928200	0.449700	0.249700
C1151	C115	0.394800	0.844400	0.572800
C1161	C116	0.450900	0.809000	0.603300
C1171	C117	0.542500	0.822200	0.603000
C1181	C118	0.581500	0.867100	0.574300
C1191	C119	0.523700	0.901100	0.543400
C1201	C120	0.432200	0.890000	0.542100
C1211	C121	0.386800	0.836700	0.395600
C1221	C122	0.327400	0.867900	0.440900
C1231	C123	0.240000	0.845100	0.436900
C1241	C124	0.210100	0.792700	0.389600
C1251	C125	0.272200	0.760700	0.346400
C1261	C126	0.360200	0.782100	0.349700
C1271	C127	0.471800	0.648500	0.364100
C1281	C128	0.504900	0.696100	0.334100
C1291	C129	0.595800	0.707300	0.331000
C1301	C130	0.657400	0.670600	0.355600
C1311	C131	0.624500	0.624200	0.386100
C1321	C132	0.533000	0.613700	0.392500
C1331	C133	0.459700	0.646100	0.539600
C1341	C134	0.432800	0.589800	0.491900
C1351	C135	0.348800	0.561300	0.494200
C1361	C136	0.287700	0.588500	0.540200
C1371	C137	0.313400	0.645400	0.584400
C1381	C138	0.396500	0.674800	0.584400
C1391	C139	0.246100	0.811000	0.603900
C1401	C140	0.249800	0.843900	0.670900
C1411	C141	0.478100	0.908400	0.358500
C1421	C142	0.571400	0.929600	0.348200
C1431	C143	0.335500	0.584100	0.356300
C1441	C144	0.292100	0.563000	0.295500
C1451	C145	0.617600	0.635200	0.544900
C1461	C146	0.647200	0.632100	0.607700
C1471	C147	0.682200	0.876900	0.571900
C1481	C148	0.732600	0.836800	0.610600
C1491	C149	0.707300	0.950500	0.596900
C1501	C150	0.709600	0.852600	0.505300
C1511	C151	0.112000	0.771500	0.385000
C1521	C152	0.058400	0.824600	0.358700
C1531	C153	0.096000	0.706300	0.338000
C1541	C154	0.074100	0.771400	0.443400
C1551	C155	0.758800	0.680200	0.347200
C1561	C156	0.810100	0.673500	0.404100
C1571	C157	0.778600	0.750700	0.339100
C1581	C158	0.789800	0.627800	0.293300
C1591	C159	0.194400	0.559400	0.539900
C1601	C160	0.149500	0.556600	0.481700
C1611	C161	0.197900	0.489000	0.546100
C1621	C162	0.133600	0.598600	0.589200
C1631	C163	0.148900	0.051300	0.599400
C1641	C164	0.103200	0.043900	0.538700
C1651	C165	0.023500	0.001900	0.531100
C1661	C166	0.018900	0.928900	0.780400
C1671	C167	0.949000	0.007100	0.728900
C1681	C168	0.859100	0.936000	0.780000
C1691	C169	0.444800	0.900200	0.785300
C1701	C170	0.474000	0.016600	0.830200
C1711	C171	0.571800	0.949700	0.749700
C1721	C172	0.894800	0.655600	0.927200
C1731	C173	0.950900	0.691000	0.896700
C1741	C174	0.042500	0.677800	0.897000
C1751	C175	0.081500	0.632900	0.925700
C1761	C176	0.023700	0.598900	0.956600
C1771	C177	0.932200	0.610000	0.957900
C1781	C178	0.886800	0.663300	0.104400
C1791	C179	0.827400	0.632100	0.059100
C1801	C180	0.740000	0.654900	0.063100
C1811	C181	0.710100	0.707300	0.110400
C1821	C182	0.772200	0.739300	0.153600
C1831	C183	0.860200	0.717900	0.150300
C1841	C184	0.971800	0.851500	0.135900
C1851	C185	0.004900	0.803900	0.165900
C1861	C186	0.095800	0.792700	0.169000
C1871	C187	0.157400	0.829400	0.144400
C1881	C188	0.124500	0.875800	0.113900
C1891	C189	0.033000	0.886300	0.107500
C1901	C190	0.959700	0.853900	0.960400
C1911	C191	0.932800	0.910200	0.008100
C1921	C192	0.848800	0.938700	0.005800
C1931	C193	0.787700	0.911500	0.959800
C1941	C194	0.813400	0.854600	0.915600
C1951	C195	0.896500	0.825200	0.915600
C1961	C196	0.746100	0.689000	0.896100
C1971	C197	0.749800	0.656100	0.829100
C1981	C198	0.978100	0.591600	0.141500
C1991	C199	0.071400	0.570400	0.151800
C2001	C200	0.835500	0.915900	0.143700
C2011	C201	0.792100	0.937000	0.204500
C2021	C202	0.117600	0.864800	0.955100
C2031	C203	0.147200	0.867900	0.892300
C2041	C204	0.182200	0.623100	0.928100
C2051	C205	0.232600	0.663200	0.889400
C2061	C206	0.207300	0.549500	0.903100
C2071	C207	0.209600	0.647400	0.994700
C2081	C208	0.612000	0.728500	0.115000
C2091	C209	0.558400	0.675400	0.141300
C2101	C210	0.596000	0.793700	0.162000
C2111	C211	0.574100	0.728600	0.056600
C2121	C212	0.258800	0.819800	0.152800
C2131	C213	0.310100	0.826500	0.095900
C2141	C214	0.278600	0.749300	0.160900
C2151	C215	0.289800	0.872200	0.206700
C2161	C216	0.694400	0.940600	0.960100
C2171	C217	0.649500	0.943400	0.018300
C2181	C218	0.697900	0.011000	0.953900
C2191	C219	0.633600	0.901400	0.910800
C2201	C220	0.648900	0.448700	0.900600
C2211	C221	0.603200	0.456100	0.961300
C2221	C222	0.523500	0.498100	0.968900
C2231	C223	0.518900	0.571100	0.719600
C2241	C224	0.449000	0.492900	0.771100
C2251	C225	0.359100	0.564000	0.720000
C2261	C226	0.944800	0.599800	0.714700
C2271	C227	0.974000	0.483400	0.669800
C2281	C228	0.071800	0.550300	0.750300
S11	S1	0.636890	0.064580	0.498460
S21	S2	0.565480	0.260910	0.707930
S31	S3	0.496260	0.450350	0.569140
S41	S4	0.581390	0.252070	0.356520
S51	S5	0.136890	0.435420	0.001540
S61	S6	0.065480	0.239090	0.792070
S71	S7	0.996260	0.049650	0.930860
S81	S8	0.081390	0.247930	0.143480
S91	S9	0.363110	0.935420	0.501540
S101	S10	0.434520	0.739090	0.292070
S111	S11	0.503740	0.549650	0.430860
S121	S12	0.418610	0.747930	0.643480
S131	S13	0.863110	0.564580	0.998460
S141	S14	0.934520	0.760910	0.207930
S151	S15	0.003740	0.950350	0.069140
S161	S16	0.918610	0.752070	0.856520
N11	N1	0.814200	0.011500	0.389400
N21	N2	0.054200	0.042900	0.236600
N31	N3	0.505100	0.048700	0.210600
N41	N4	0.314200	0.488500	0.110600
N51	N5	0.554200	0.457100	0.263400
N61	N6	0.005100	0.451300	0.289400
N71	N7	0.185800	0.988500	0.610600
N81	N8	0.945800	0.957100	0.763400
N91	N9	0.494900	0.951300	0.789400
N101	N10	0.685800	0.511500	0.889400
N111	N11	0.445800	0.542900	0.736600
N121	N12	0.994900	0.548700	0.710600
O11	O1	0.696900	0.159000	0.432500
O21	O2	0.709800	0.102300	0.310000
O31	O3	0.789400	0.185400	0.293700
O41	O4	0.525800	0.139800	0.604900
O51	O5	0.364000	0.086500	0.627200
O61	O6	0.425500	0.031000	0.687600
O71	O7	0.619300	0.353700	0.630600
O81	O8	0.696100	0.407000	0.745300
O91	O9	0.760600	0.486400	0.710600
O101	O10	0.459000	0.324300	0.459100
O111	O11	0.375000	0.327500	0.346700
O121	O12	0.300200	0.415700	0.392100
O131	O13	0.906400	0.057200	0.232900
O141	O14	0.623600	0.106300	0.183800
O151	O15	0.196900	0.341000	0.067500
O161	O16	0.209800	0.397700	0.190000
O171	O17	0.289400	0.314600	0.206300
O181	O18	0.025800	0.360200	0.895100
O191	O19	0.864000	0.413500	0.872800
O201	O20	0.925500	0.469000	0.812400
O211	O21	0.119300	0.146300	0.869400
O221	O22	0.196100	0.093000	0.754700
O231	O23	0.260600	0.013600	0.789400
O241	O24	0.959000	0.175700	0.040900
O251	O25	0.875000	0.172500	0.153300
O261	O26	0.800200	0.084300	0.107900
O271	O27	0.406400	0.442800	0.267100
O281	O28	0.123600	0.393700	0.316200
O291	O29	0.303100	0.841000	0.567500
O301	O30	0.290200	0.897700	0.690000
O311	O31	0.210600	0.814600	0.706300
O321	O32	0.474200	0.860200	0.395100
O331	O33	0.636000	0.913500	0.372800
O341	O34	0.574500	0.969000	0.312400
O351	O35	0.380700	0.646300	0.369400
O361	O36	0.303900	0.593000	0.254700
O371	O37	0.239400	0.513600	0.289400
O381	O38	0.541000	0.675700	0.540900
O391	O39	0.625000	0.672500	0.653300
O401	O40	0.699800	0.584300	0.607900
O411	O41	0.093600	0.942800	0.767100
O421	O42	0.376400	0.893700	0.816200
O431	O43	0.803100	0.659000	0.932500
O441	O44	0.790200	0.602300	0.810000
O451	O45	0.710600	0.685400	0.793700
O461	O46	0.974200	0.639800	0.104900
O471	O47	0.136000	0.586500	0.127200
O481	O48	0.074500	0.531000	0.187600
O491	O49	0.880700	0.853700	0.130600
O501	O50	0.803900	0.907000	0.245300
O511	O51	0.739400	0.986400	0.210600
O521	O52	0.041000	0.824300	0.959100
O531	O53	0.125000	0.827500	0.846700
O541	O54	0.199800	0.915700	0.892100
O551	O55	0.593600	0.557200	0.732900
O561	O56	0.876400	0.606300	0.683800
