data_AXUHEH_freeONLY_PM
_symmetry_space_group_name_H-M	'P1'
_cell_length_a	12.725900
_cell_length_b	18.748600
_cell_length_c	36.793200
_cell_angle_alpha	90.000000
_cell_angle_beta	90.000000
_cell_angle_gamma	101.452000
_symmetry_Int_Tables_number 1

loop_
_symmetry_equiv_pos_as_xyz
'x,y,z'

loop_
_atom_site_label
_atom_site_type_symbol
_atom_site_fract_x
_atom_site_fract_y
_atom_site_fract_z
Na11	Na1	0.034060	0.019260	0.846110
Na21	Na2	0.465940	0.480740	0.346110
Na31	Na3	0.965940	0.980740	0.153890
Na41	Na4	0.534060	0.519260	0.653890
Co11	Co1	0.580530	0.828910	0.710690
Co21	Co2	0.919470	0.671090	0.210690
Co31	Co3	0.419470	0.171090	0.289310
Co41	Co4	0.080530	0.328910	0.789310
Co51	Co5	0.000000	0.000000	0.000000
Co61	Co6	0.500000	0.500000	0.500000
H11	H1	0.987900	0.062300	0.940000
H21	H2	0.993200	0.131600	0.971100
H31	H3	0.978000	0.702100	0.796600
H41	H4	0.293900	0.783700	0.807600
H51	H5	0.309600	0.020500	0.898900
H61	H6	0.301700	0.176300	0.824000
H71	H7	0.271800	0.019000	0.695400
H81	H8	0.953700	0.945400	0.685600
H91	H9	0.765400	0.044800	0.804200
H101	H10	0.773700	0.885200	0.877000
H111	H11	0.010600	0.841500	0.908100
H121	H12	0.137100	0.872800	0.910600
H131	H13	0.455800	0.990100	0.771400
H141	H14	0.433500	0.922100	0.798600
H151	H15	0.123800	0.179300	0.773000
H161	H16	0.998800	0.155200	0.763500
H171	H17	0.931500	0.785800	0.736800
H181	H18	0.850400	0.766400	0.770200
H191	H19	0.316800	0.676700	0.783200
H201	H20	0.293400	0.653500	0.741700
H211	H21	0.313600	0.737600	0.753000
H221	H22	0.145900	0.591900	0.800800
H231	H23	0.036600	0.598800	0.780900
H241	H24	0.128800	0.570500	0.758900
H251	H25	0.123100	0.664300	0.713000
H261	H26	0.032200	0.692200	0.735900
H271	H27	0.139300	0.748100	0.724600
H281	H28	0.161900	0.147200	0.912600
H291	H29	0.227600	0.094100	0.932600
H301	H30	0.242200	0.177200	0.945100
H311	H31	0.464400	0.122600	0.908900
H321	H32	0.479900	0.207000	0.919300
H331	H33	0.410600	0.146600	0.945000
H341	H34	0.407400	0.262700	0.882200
H351	H35	0.294500	0.241300	0.861800
H361	H36	0.298900	0.267100	0.903300
H371	H37	0.253600	0.013600	0.627200
H381	H38	0.295200	0.955200	0.652300
H391	H39	0.251900	0.933200	0.612200
H401	H40	0.041400	0.839800	0.667900
H411	H41	0.122300	0.828600	0.636000
H421	H42	0.166800	0.848700	0.676200
H431	H43	0.058700	0.000200	0.614800
H441	H44	0.059400	0.921200	0.598500
H451	H45	0.976800	0.930700	0.630000
H461	H46	0.548200	0.936300	0.866800
H471	H47	0.621700	0.913900	0.898500
H481	H48	0.559200	0.979100	0.904700
H491	H49	0.605200	0.055000	0.835100
H501	H50	0.615400	0.095000	0.873700
H511	H51	0.714900	0.108000	0.846200
H521	H52	0.732900	0.061400	0.921200
H531	H53	0.794200	0.995700	0.914800
H541	H54	0.832100	0.071100	0.893700
H551	H55	0.475000	0.201700	0.048700
H561	H56	0.902400	0.404800	0.091800
H571	H57	0.405000	0.029700	0.005600
H581	H58	0.229600	0.975900	0.994300
H591	H59	0.125700	0.146500	0.029400
H601	H60	0.294700	0.205100	0.043100
H611	H61	0.765500	0.151400	0.005300
H621	H62	0.924300	0.228200	0.021100
H631	H63	0.924900	0.319500	0.063500
H641	H64	0.602400	0.261200	0.071700
H651	H65	0.699600	0.476900	0.133800
H661	H66	0.733800	0.578000	0.170500
H671	H67	0.042500	0.581900	0.167900
H681	H68	0.018200	0.485500	0.127900
H691	H69	0.512100	0.437700	0.440000
H701	H70	0.506800	0.368400	0.471100
H711	H71	0.522000	0.797900	0.296600
H721	H72	0.206100	0.716300	0.307600
H731	H73	0.190400	0.479500	0.398900
H741	H74	0.198300	0.323700	0.324000
H751	H75	0.228200	0.481000	0.195400
H761	H76	0.546300	0.554600	0.185600
H771	H77	0.734600	0.455200	0.304200
H781	H78	0.726300	0.614800	0.377000
H791	H79	0.489400	0.658500	0.408100
H801	H80	0.362900	0.627200	0.410600
H811	H81	0.044200	0.509900	0.271400
H821	H82	0.066500	0.577900	0.298600
H831	H83	0.376200	0.320700	0.273000
H841	H84	0.501200	0.344800	0.263500
H851	H85	0.568500	0.714200	0.236800
H861	H86	0.649600	0.733600	0.270200
H871	H87	0.183200	0.823300	0.283200
H881	H88	0.206600	0.846500	0.241700
H891	H89	0.186400	0.762400	0.253000
H901	H90	0.354100	0.908100	0.300800
H911	H91	0.463400	0.901200	0.280900
H921	H92	0.371200	0.929500	0.258900
H931	H93	0.376900	0.835700	0.213000
H941	H94	0.467800	0.807800	0.235900
H951	H95	0.360700	0.751900	0.224600
H961	H96	0.338100	0.352800	0.412600
H971	H97	0.272400	0.405900	0.432600
H981	H98	0.257800	0.322800	0.445100
H991	H99	0.035600	0.377400	0.408900
H1001	H100	0.020100	0.293000	0.419300
H1011	H101	0.089400	0.353400	0.445000
H1021	H102	0.092600	0.237300	0.382200
H1031	H103	0.205500	0.258700	0.361800
H1041	H104	0.201100	0.232900	0.403300
H1051	H105	0.246400	0.486400	0.127200
H1061	H106	0.204800	0.544800	0.152300
H1071	H107	0.248100	0.566800	0.112200
H1081	H108	0.458600	0.660200	0.167900
H1091	H109	0.377700	0.671400	0.136000
H1101	H110	0.333200	0.651300	0.176200
H1111	H111	0.441300	0.499800	0.114800
H1121	H112	0.440600	0.578800	0.098500
H1131	H113	0.523200	0.569300	0.130000
H1141	H114	0.951800	0.563700	0.366800
H1151	H115	0.878300	0.586100	0.398500
H1161	H116	0.940800	0.520900	0.404700
H1171	H117	0.894800	0.445000	0.335100
H1181	H118	0.884600	0.405000	0.373700
H1191	H119	0.785100	0.392000	0.346200
H1201	H120	0.767100	0.438600	0.421200
H1211	H121	0.705800	0.504300	0.414800
H1221	H122	0.667900	0.428900	0.393700
H1231	H123	0.025000	0.298300	0.548700
H1241	H124	0.597600	0.095200	0.591800
H1251	H125	0.095000	0.470300	0.505600
H1261	H126	0.270400	0.524100	0.494300
H1271	H127	0.374300	0.353500	0.529400
H1281	H128	0.205300	0.294900	0.543100
H1291	H129	0.734500	0.348600	0.505300
H1301	H130	0.575700	0.271800	0.521100
H1311	H131	0.575100	0.180500	0.563500
H1321	H132	0.897600	0.238800	0.571700
H1331	H133	0.800400	0.023100	0.633800
H1341	H134	0.766200	0.922000	0.670500
H1351	H135	0.457500	0.918100	0.667900
H1361	H136	0.481800	0.014500	0.627900
H1371	H137	0.012100	0.937700	0.060000
H1381	H138	0.006800	0.868400	0.028900
H1391	H139	0.022000	0.297900	0.203400
H1401	H140	0.706100	0.216300	0.192400
H1411	H141	0.690400	0.979500	0.101100
H1421	H142	0.698300	0.823700	0.176000
H1431	H143	0.728200	0.981000	0.304600
H1441	H144	0.046300	0.054600	0.314400
H1451	H145	0.234600	0.955200	0.195800
H1461	H146	0.226300	0.114800	0.123000
H1471	H147	0.989400	0.158500	0.091900
H1481	H148	0.862900	0.127200	0.089400
H1491	H149	0.544200	0.009900	0.228600
H1501	H150	0.566500	0.077900	0.201400
H1511	H151	0.876200	0.820700	0.227000
H1521	H152	0.001200	0.844800	0.236500
H1531	H153	0.068500	0.214200	0.263200
H1541	H154	0.149600	0.233600	0.229800
H1551	H155	0.683200	0.323300	0.216800
H1561	H156	0.706600	0.346500	0.258300
H1571	H157	0.686400	0.262400	0.247000
H1581	H158	0.854100	0.408100	0.199200
H1591	H159	0.963400	0.401200	0.219100
H1601	H160	0.871200	0.429500	0.241100
H1611	H161	0.876900	0.335700	0.287000
H1621	H162	0.967800	0.307800	0.264100
H1631	H163	0.860700	0.251900	0.275400
H1641	H164	0.838100	0.852800	0.087400
H1651	H165	0.772400	0.905900	0.067400
H1661	H166	0.757800	0.822800	0.054900
H1671	H167	0.535600	0.877400	0.091100
H1681	H168	0.520100	0.793000	0.080700
H1691	H169	0.589400	0.853400	0.055000
H1701	H170	0.592600	0.737300	0.117800
H1711	H171	0.705500	0.758700	0.138200
H1721	H172	0.701100	0.732900	0.096700
H1731	H173	0.746400	0.986400	0.372800
H1741	H174	0.704800	0.044800	0.347700
H1751	H175	0.748100	0.066800	0.387800
H1761	H176	0.958600	0.160200	0.332100
H1771	H177	0.877700	0.171400	0.364000
H1781	H178	0.833200	0.151300	0.323800
H1791	H179	0.941300	0.999800	0.385200
H1801	H180	0.940600	0.078800	0.401500
H1811	H181	0.023200	0.069300	0.370000
H1821	H182	0.451800	0.063700	0.133200
H1831	H183	0.378300	0.086100	0.101500
H1841	H184	0.440800	0.020900	0.095300
H1851	H185	0.394800	0.945000	0.164900
H1861	H186	0.384600	0.905000	0.126300
H1871	H187	0.285100	0.892000	0.153800
H1881	H188	0.267100	0.938600	0.078800
H1891	H189	0.205800	0.004300	0.085200
H1901	H190	0.167900	0.928900	0.106300
H1911	H191	0.525000	0.798300	0.951300
H1921	H192	0.097600	0.595200	0.908200
H1931	H193	0.595000	0.970300	0.994400
H1941	H194	0.770400	0.024100	0.005700
H1951	H195	0.874300	0.853500	0.970600
H1961	H196	0.705300	0.794900	0.956900
H1971	H197	0.234500	0.848600	0.994700
H1981	H198	0.075700	0.771800	0.978900
H1991	H199	0.075100	0.680500	0.936500
H2001	H200	0.397600	0.738800	0.928300
H2011	H201	0.300400	0.523100	0.866200
H2021	H202	0.266200	0.422000	0.829500
H2031	H203	0.957500	0.418100	0.832100
H2041	H204	0.981800	0.514500	0.872100
H2051	H205	0.487900	0.562300	0.560000
H2061	H206	0.493200	0.631600	0.528900
H2071	H207	0.478000	0.202100	0.703400
H2081	H208	0.793900	0.283700	0.692400
H2091	H209	0.809600	0.520500	0.601100
H2101	H210	0.801700	0.676300	0.676000
H2111	H211	0.771800	0.519000	0.804600
H2121	H212	0.453700	0.445400	0.814400
H2131	H213	0.265400	0.544800	0.695800
H2141	H214	0.273700	0.385200	0.623000
H2151	H215	0.510600	0.341500	0.591900
H2161	H216	0.637100	0.372800	0.589400
H2171	H217	0.955800	0.490100	0.728600
H2181	H218	0.933500	0.422100	0.701400
H2191	H219	0.623800	0.679300	0.727000
H2201	H220	0.498800	0.655200	0.736500
H2211	H221	0.431500	0.285800	0.763200
H2221	H222	0.350400	0.266400	0.729800
H2231	H223	0.816800	0.176700	0.716800
H2241	H224	0.793400	0.153500	0.758300
H2251	H225	0.813600	0.237600	0.747000
H2261	H226	0.645900	0.091900	0.699200
H2271	H227	0.536600	0.098800	0.719100
H2281	H228	0.628800	0.070500	0.741100
H2291	H229	0.623100	0.164300	0.787000
H2301	H230	0.532200	0.192200	0.764100
H2311	H231	0.639300	0.248100	0.775400
H2321	H232	0.661900	0.647200	0.587400
H2331	H233	0.727600	0.594100	0.567400
H2341	H234	0.742200	0.677200	0.554900
H2351	H235	0.964400	0.622600	0.591100
H2361	H236	0.979900	0.707000	0.580700
H2371	H237	0.910600	0.646600	0.555000
H2381	H238	0.907400	0.762700	0.617800
H2391	H239	0.794500	0.741300	0.638200
H2401	H240	0.798900	0.767100	0.596700
H2411	H241	0.753600	0.513600	0.872800
H2421	H242	0.795200	0.455200	0.847700
H2431	H243	0.751900	0.433200	0.887800
H2441	H244	0.541400	0.339800	0.832100
H2451	H245	0.622300	0.328600	0.864000
H2461	H246	0.666800	0.348700	0.823800
H2471	H247	0.558700	0.500200	0.885200
H2481	H248	0.559400	0.421200	0.901500
H2491	H249	0.476800	0.430700	0.870000
H2501	H250	0.048200	0.436300	0.633200
H2511	H251	0.121700	0.413900	0.601500
H2521	H252	0.059200	0.479100	0.595300
H2531	H253	0.105200	0.555000	0.664900
H2541	H254	0.115400	0.595000	0.626300
H2551	H255	0.214900	0.608000	0.653800
H2561	H256	0.232900	0.561400	0.578800
H2571	H257	0.294200	0.495700	0.585200
H2581	H258	0.332100	0.571100	0.606300
H2591	H259	0.975000	0.701700	0.451300
H2601	H260	0.402400	0.904800	0.408200
H2611	H261	0.905000	0.529700	0.494400
H2621	H262	0.729600	0.475900	0.505700
H2631	H263	0.625700	0.646500	0.470600
H2641	H264	0.794700	0.705100	0.456900
H2651	H265	0.265500	0.651400	0.494700
H2661	H266	0.424300	0.728200	0.478900
H2671	H267	0.424900	0.819500	0.436500
H2681	H268	0.102400	0.761200	0.428300
H2691	H269	0.199600	0.976900	0.366200
H2701	H270	0.233800	0.078000	0.329500
H2711	H271	0.542500	0.081900	0.332100
H2721	H272	0.518200	0.985500	0.372100
C11	C1	0.094070	0.842870	0.843880
C21	C2	0.010780	0.791080	0.829380
C31	C3	0.035020	0.737720	0.806140
C41	C4	0.140230	0.734930	0.796480
C51	C5	0.221300	0.785400	0.812820
C61	C6	0.199080	0.838280	0.836510
C71	C7	0.300840	0.004140	0.810750
C81	C8	0.302330	0.983430	0.846910
C91	C9	0.308100	0.035400	0.874230
C101	C10	0.311600	0.108300	0.866560
C111	C11	0.303400	0.127300	0.830100
C121	C12	0.297700	0.076300	0.802610
C131	C13	0.080960	0.044460	0.750590
C141	C14	0.184230	0.049630	0.736940
C151	C15	0.200700	0.015800	0.704140
C161	C16	0.115700	0.977700	0.684100
C171	C17	0.013100	0.972600	0.698450
C181	C18	0.995260	0.005660	0.730490
C191	C19	0.867960	0.899860	0.794230
C201	C20	0.840150	0.966150	0.785800
C211	C21	0.783900	0.999800	0.810620
C221	C22	0.753700	0.970000	0.844610
C231	C23	0.788800	0.905600	0.853460
C241	C24	0.844990	0.870790	0.828950
C251	C25	0.067800	0.884400	0.902970
C261	C26	0.047400	0.948100	0.924050
C271	C27	0.407400	0.942900	0.776390
C281	C28	0.411900	0.891800	0.744740
C291	C29	0.054710	0.149810	0.781380
C301	C30	0.026400	0.176400	0.817920
C311	C31	0.876700	0.803500	0.751450
C321	C32	0.784460	0.811660	0.727050
C331	C33	0.162900	0.681300	0.767210
C341	C34	0.282300	0.687900	0.760700
C351	C35	0.114300	0.603800	0.777890
C361	C36	0.109700	0.698000	0.732080
C371	C37	0.322100	0.165400	0.896780
C381	C38	0.230100	0.144000	0.924300
C391	C39	0.430100	0.159900	0.919800
C401	C40	0.331500	0.240200	0.885100
C411	C41	0.130400	0.937100	0.648770
C421	C42	0.242800	0.962000	0.633810
C431	C43	0.113700	0.856300	0.658040
C441	C44	0.049200	0.948300	0.620560
C451	C45	0.693200	0.008700	0.871990
C461	C46	0.597000	0.954700	0.886830
C471	C47	0.653700	0.072300	0.855270
C481	C48	0.770100	0.036800	0.903240
C491	C49	0.349000	0.054900	0.010890
C501	C50	0.243900	0.023600	0.004260
C511	C51	0.183400	0.122400	0.024760
C521	C52	0.283500	0.157800	0.032710
C531	C53	0.371400	0.125100	0.025660
C541	C54	0.568400	0.148400	0.023910
C551	C55	0.668000	0.199200	0.036290
C561	C56	0.764400	0.189800	0.022100
C571	C57	0.858800	0.234800	0.031670
C581	C58	0.859100	0.289100	0.056410
C591	C59	0.761500	0.300000	0.071370
C601	C60	0.668300	0.254700	0.061330
C611	C61	0.755400	0.358900	0.097580
C621	C62	0.855500	0.469600	0.126910
C631	C63	0.771500	0.498300	0.140100
C641	C64	0.792700	0.558000	0.162400
C651	C65	0.971700	0.560800	0.160400
C661	C66	0.957900	0.502700	0.137040
C671	C67	0.405930	0.657130	0.343880
C681	C68	0.489220	0.708920	0.329380
C691	C69	0.464980	0.762280	0.306140
C701	C70	0.359770	0.765070	0.296480
C711	C71	0.278700	0.714600	0.312820
C721	C72	0.300920	0.661720	0.336510
C731	C73	0.199160	0.495860	0.310750
C741	C74	0.197670	0.516570	0.346910
C751	C75	0.191900	0.464600	0.374230
C761	C76	0.188400	0.391700	0.366560
C771	C77	0.196600	0.372700	0.330100
C781	C78	0.202300	0.423700	0.302610
C791	C79	0.419040	0.455540	0.250590
C801	C80	0.315770	0.450370	0.236940
C811	C81	0.299300	0.484200	0.204140
C821	C82	0.384300	0.522300	0.184100
C831	C83	0.486900	0.527400	0.198450
C841	C84	0.504740	0.494340	0.230490
C851	C85	0.632040	0.600140	0.294230
C861	C86	0.659850	0.533850	0.285800
C871	C87	0.716100	0.500200	0.310620
C881	C88	0.746300	0.530000	0.344610
C891	C89	0.711200	0.594400	0.353460
C901	C90	0.655010	0.629210	0.328950
C911	C91	0.432200	0.615600	0.402970
C921	C92	0.452600	0.551900	0.424050
C931	C93	0.092600	0.557100	0.276390
C941	C94	0.088100	0.608200	0.244740
C951	C95	0.445290	0.350190	0.281380
C961	C96	0.473600	0.323600	0.317920
C971	C97	0.623300	0.696500	0.251450
C981	C98	0.715540	0.688340	0.227050
C991	C99	0.337100	0.818700	0.267210
C1001	C100	0.217700	0.812100	0.260700
C1011	C101	0.385700	0.896200	0.277890
C1021	C102	0.390300	0.802000	0.232080
C1031	C103	0.177900	0.334600	0.396780
C1041	C104	0.269900	0.356000	0.424300
C1051	C105	0.069900	0.340100	0.419800
C1061	C106	0.168500	0.259800	0.385100
C1071	C107	0.369600	0.562900	0.148770
C1081	C108	0.257200	0.538000	0.133810
C1091	C109	0.386300	0.643700	0.158040
C1101	C110	0.450800	0.551700	0.120560
C1111	C111	0.806800	0.491300	0.371990
C1121	C112	0.903000	0.545300	0.386830
C1131	C113	0.846300	0.427700	0.355270
C1141	C114	0.729900	0.463200	0.403240
C1151	C115	0.151000	0.445100	0.510890
C1161	C116	0.256100	0.476400	0.504260
C1171	C117	0.316600	0.377600	0.524760
C1181	C118	0.216500	0.342200	0.532710
C1191	C119	0.128600	0.374900	0.525660
C1201	C120	0.931600	0.351600	0.523910
C1211	C121	0.832000	0.300800	0.536290
C1221	C122	0.735600	0.310200	0.522100
C1231	C123	0.641200	0.265200	0.531670
C1241	C124	0.640900	0.210900	0.556410
C1251	C125	0.738500	0.200000	0.571370
C1261	C126	0.831700	0.245300	0.561330
C1271	C127	0.744600	0.141100	0.597580
C1281	C128	0.644500	0.030400	0.626910
C1291	C129	0.728500	0.001700	0.640100
C1301	C130	0.707300	0.942000	0.662400
C1311	C131	0.528300	0.939200	0.660400
C1321	C132	0.542100	0.997300	0.637040
C1331	C133	0.905930	0.157130	0.156120
C1341	C134	0.989220	0.208920	0.170620
C1351	C135	0.964980	0.262280	0.193860
C1361	C136	0.859770	0.265070	0.203520
C1371	C137	0.778700	0.214600	0.187180
C1381	C138	0.800920	0.161720	0.163490
C1391	C139	0.699160	0.995860	0.189250
C1401	C140	0.697670	0.016570	0.153090
C1411	C141	0.691900	0.964600	0.125770
C1421	C142	0.688400	0.891700	0.133440
C1431	C143	0.696600	0.872700	0.169900
C1441	C144	0.702300	0.923700	0.197390
C1451	C145	0.919040	0.955540	0.249410
C1461	C146	0.815770	0.950370	0.263060
C1471	C147	0.799300	0.984200	0.295860
C1481	C148	0.884300	0.022300	0.315900
C1491	C149	0.986900	0.027400	0.301550
C1501	C150	0.004740	0.994340	0.269510
C1511	C151	0.132040	0.100140	0.205770
C1521	C152	0.159850	0.033850	0.214200
C1531	C153	0.216100	0.000200	0.189380
C1541	C154	0.246300	0.030000	0.155390
C1551	C155	0.211200	0.094400	0.146540
C1561	C156	0.155010	0.129210	0.171050
C1571	C157	0.932200	0.115600	0.097030
C1581	C158	0.952600	0.051900	0.075950
C1591	C159	0.592600	0.057100	0.223610
C1601	C160	0.588100	0.108200	0.255260
C1611	C161	0.945290	0.850190	0.218620
C1621	C162	0.973600	0.823600	0.182080
C1631	C163	0.123300	0.196500	0.248550
C1641	C164	0.215540	0.188340	0.272950
C1651	C165	0.837100	0.318700	0.232790
C1661	C166	0.717700	0.312100	0.239300
C1671	C167	0.885700	0.396200	0.222110
C1681	C168	0.890300	0.302000	0.267920
C1691	C169	0.677900	0.834600	0.103220
C1701	C170	0.769900	0.856000	0.075700
C1711	C171	0.569900	0.840100	0.080200
C1721	C172	0.668500	0.759800	0.114900
C1731	C173	0.869600	0.062900	0.351230
C1741	C174	0.757200	0.038000	0.366190
C1751	C175	0.886300	0.143700	0.341960
C1761	C176	0.950800	0.051700	0.379440
C1771	C177	0.306800	0.991300	0.128010
C1781	C178	0.403000	0.045300	0.113170
C1791	C179	0.346300	0.927700	0.144730
C1801	C180	0.229900	0.963200	0.096760
C1811	C181	0.651000	0.945100	0.989110
C1821	C182	0.756100	0.976400	0.995740
C1831	C183	0.816600	0.877600	0.975240
C1841	C184	0.716500	0.842200	0.967290
C1851	C185	0.628600	0.874900	0.974340
C1861	C186	0.431600	0.851600	0.976090
C1871	C187	0.332000	0.800800	0.963710
C1881	C188	0.235600	0.810200	0.977900
C1891	C189	0.141200	0.765200	0.968330
C1901	C190	0.140900	0.710900	0.943590
C1911	C191	0.238500	0.700000	0.928630
C1921	C192	0.331700	0.745300	0.938670
C1931	C193	0.244600	0.641100	0.902420
C1941	C194	0.144500	0.530400	0.873090
C1951	C195	0.228500	0.501700	0.859900
C1961	C196	0.207300	0.442000	0.837600
C1971	C197	0.028300	0.439200	0.839600
C1981	C198	0.042100	0.497300	0.862960
C1991	C199	0.594070	0.342870	0.656120
C2001	C200	0.510780	0.291080	0.670620
C2011	C201	0.535020	0.237720	0.693860
C2021	C202	0.640230	0.234930	0.703520
C2031	C203	0.721300	0.285400	0.687180
C2041	C204	0.699080	0.338280	0.663490
C2051	C205	0.800840	0.504140	0.689250
C2061	C206	0.802330	0.483430	0.653090
C2071	C207	0.808100	0.535400	0.625770
C2081	C208	0.811600	0.608300	0.633440
C2091	C209	0.803400	0.627300	0.669900
C2101	C210	0.797700	0.576300	0.697390
C2111	C211	0.580960	0.544460	0.749410
C2121	C212	0.684230	0.549630	0.763060
C2131	C213	0.700700	0.515800	0.795860
C2141	C214	0.615700	0.477700	0.815900
C2151	C215	0.513100	0.472600	0.801550
C2161	C216	0.495260	0.505660	0.769510
C2171	C217	0.367960	0.399860	0.705770
C2181	C218	0.340150	0.466150	0.714200
C2191	C219	0.283900	0.499800	0.689380
C2201	C220	0.253700	0.470000	0.655390
C2211	C221	0.288800	0.405600	0.646540
C2221	C222	0.344990	0.370790	0.671050
C2231	C223	0.567800	0.384400	0.597030
C2241	C224	0.547400	0.448100	0.575950
C2251	C225	0.907400	0.442900	0.723610
C2261	C226	0.911900	0.391800	0.755260
C2271	C227	0.554710	0.649810	0.718620
C2281	C228	0.526400	0.676400	0.682080
C2291	C229	0.376700	0.303500	0.748550
C2301	C230	0.284460	0.311660	0.772950
C2311	C231	0.662900	0.181300	0.732790
C2321	C232	0.782300	0.187900	0.739300
C2331	C233	0.614300	0.103800	0.722110
C2341	C234	0.609700	0.198000	0.767920
C2351	C235	0.822100	0.665400	0.603220
C2361	C236	0.730100	0.644000	0.575700
C2371	C237	0.930100	0.659900	0.580200
C2381	C238	0.831500	0.740200	0.614900
C2391	C239	0.630400	0.437100	0.851230
C2401	C240	0.742800	0.462000	0.866190
C2411	C241	0.613700	0.356300	0.841960
C2421	C242	0.549200	0.448300	0.879440
C2431	C243	0.193200	0.508700	0.628010
C2441	C244	0.097000	0.454700	0.613170
C2451	C245	0.153700	0.572300	0.644730
C2461	C246	0.270100	0.536800	0.596760
C2471	C247	0.849000	0.554900	0.489110
C2481	C248	0.743900	0.523600	0.495740
C2491	C249	0.683400	0.622400	0.475240
C2501	C250	0.783500	0.657800	0.467290
C2511	C251	0.871400	0.625100	0.474340
C2521	C252	0.068400	0.648400	0.476090
C2531	C253	0.168000	0.699200	0.463710
C2541	C254	0.264400	0.689800	0.477900
C2551	C255	0.358800	0.734800	0.468330
C2561	C256	0.359100	0.789100	0.443590
C2571	C257	0.261500	0.800000	0.428630
C2581	C258	0.168300	0.754700	0.438670
C2591	C259	0.255400	0.858900	0.402420
C2601	C260	0.355500	0.969600	0.373090
C2611	C261	0.271500	0.998300	0.359900
C2621	C262	0.292700	0.058000	0.337600
C2631	C263	0.471700	0.060800	0.339600
C2641	C264	0.457900	0.002700	0.362960
S11	S1	0.308090	0.893180	0.860060
S21	S2	0.298010	0.106170	0.757080
S31	S3	0.859810	0.005090	0.742120
S41	S4	0.875480	0.786400	0.842670
S51	S5	0.191910	0.606820	0.360060
S61	S6	0.201990	0.393830	0.257080
S71	S7	0.640190	0.494910	0.242120
S81	S8	0.624520	0.713600	0.342670
S91	S9	0.691910	0.106820	0.139940
S101	S10	0.701990	0.893830	0.242920
S111	S11	0.140190	0.994910	0.257880
S121	S12	0.124520	0.213600	0.157330
S131	S13	0.808090	0.393180	0.639940
S141	S14	0.798010	0.606170	0.742920
S151	S15	0.359810	0.505090	0.757880
S161	S16	0.375480	0.286400	0.657330
N11	N1	0.160080	0.054680	0.010670
N21	N2	0.472400	0.163500	0.034600
N31	N3	0.844500	0.409900	0.103790
N41	N4	0.889760	0.589660	0.173350
N51	N5	0.339920	0.445320	0.510670
N61	N6	0.027600	0.336500	0.534600
N71	N7	0.655500	0.090100	0.603790
N81	N8	0.610240	0.910340	0.673350
N91	N9	0.839920	0.945320	0.989330
N101	N10	0.527600	0.836500	0.965400
N111	N11	0.155500	0.590100	0.896210
N121	N12	0.110240	0.410340	0.826650
N131	N13	0.660080	0.554680	0.489330
N141	N14	0.972400	0.663500	0.465400
N151	N15	0.344500	0.909900	0.396210
N161	N16	0.389760	0.089660	0.326650
O11	O1	0.070420	0.899620	0.864560
O21	O2	0.051350	0.940250	0.957900
O31	O3	0.027260	0.002260	0.907840
O41	O4	0.301610	0.954910	0.782770
O51	O5	0.493730	0.862530	0.747340
O61	O6	0.345700	0.883500	0.720580
O71	O7	0.063130	0.074030	0.783930
O81	O8	0.023550	0.244050	0.818920
O91	O9	0.005810	0.134610	0.843710
O101	O10	0.926040	0.870140	0.769180
O111	O11	0.700510	0.821610	0.742850
O121	O12	0.793890	0.807390	0.693970
O131	O13	0.979010	0.082110	0.963820
O141	O14	0.572800	0.098000	0.003130
O151	O15	0.669400	0.361800	0.112650
O161	O16	0.429580	0.600380	0.364560
O171	O17	0.448650	0.559750	0.457900
O181	O18	0.472740	0.497740	0.407840
O191	O19	0.198390	0.545090	0.282770
O201	O20	0.006270	0.637470	0.247340
O211	O21	0.154300	0.616500	0.220580
O221	O22	0.436870	0.425970	0.283930
O231	O23	0.476450	0.255950	0.318920
O241	O24	0.494190	0.365390	0.343710
O251	O25	0.573960	0.629860	0.269180
O261	O26	0.799490	0.678390	0.242850
O271	O27	0.706110	0.692610	0.193970
O281	O28	0.520990	0.417890	0.463820
O291	O29	0.927200	0.402000	0.503130
O301	O30	0.830600	0.138200	0.612650
O311	O31	0.929580	0.100380	0.135440
O321	O32	0.948650	0.059750	0.042100
O331	O33	0.972740	0.997740	0.092160
O341	O34	0.698390	0.045090	0.217230
O351	O35	0.506270	0.137470	0.252660
O361	O36	0.654300	0.116500	0.279420
O371	O37	0.936870	0.925970	0.216070
O381	O38	0.976450	0.755950	0.181080
O391	O39	0.994190	0.865390	0.156290
O401	O40	0.073960	0.129860	0.230820
O411	O41	0.299490	0.178390	0.257150
O421	O42	0.206110	0.192610	0.306030
O431	O43	0.020990	0.917890	0.036180
O441	O44	0.427200	0.902000	0.996870
O451	O45	0.330600	0.638200	0.887350
O461	O46	0.570420	0.399620	0.635440
O471	O47	0.551350	0.440250	0.542100
O481	O48	0.527260	0.502260	0.592160
O491	O49	0.801610	0.454910	0.717230
O501	O50	0.993730	0.362530	0.752660
O511	O51	0.845700	0.383500	0.779420
O521	O52	0.563130	0.574030	0.716070
O531	O53	0.523550	0.744050	0.681080
O541	O54	0.505810	0.634610	0.656290
O551	O55	0.426040	0.370140	0.730820
O561	O56	0.200510	0.321610	0.757150
O571	O57	0.293890	0.307390	0.806030
O581	O58	0.479010	0.582110	0.536180
O591	O59	0.072800	0.598000	0.496870
O601	O60	0.169400	0.861800	0.387350
