data_AXUHAD_freeONLY_PM
_symmetry_space_group_name_H-M	'P1'
_cell_length_a	22.612900
_cell_length_b	22.612900
_cell_length_c	27.694700
_cell_angle_alpha	114.095000
_cell_angle_beta	114.095000
_cell_angle_gamma	90.000000
_symmetry_Int_Tables_number 1

loop_
_symmetry_equiv_pos_as_xyz
'x,y,z'

loop_
_atom_site_label
_atom_site_type_symbol
_atom_site_fract_x
_atom_site_fract_y
_atom_site_fract_z
Co11	Co1	0.750000	0.692070	0.500000
Co21	Co2	0.250000	0.807930	0.500000
Co31	Co3	0.692070	0.250000	0.000000
Co41	Co4	0.807930	0.750000	0.000000
Co51	Co5	0.250000	0.307930	0.500000
Co61	Co6	0.750000	0.192070	0.500000
Co71	Co7	0.307930	0.750000	0.000000
Co81	Co8	0.192070	0.250000	0.000000
H11	H1	0.083100	0.819700	0.869400
H21	H2	0.046000	0.994300	0.871800
H31	H3	0.891500	0.839600	0.682200
H41	H4	0.905100	0.775400	0.692800
H51	H5	0.063400	0.028100	0.960600
H61	H6	0.141500	0.034400	0.983000
H71	H7	0.108400	0.024700	0.021200
H81	H8	0.139700	0.865100	0.953800
H91	H9	0.157300	0.924500	0.017400
H101	H10	0.190200	0.931600	0.978200
H111	H11	0.033600	0.862700	0.941200
H121	H12	0.998300	0.924700	0.944800
H131	H13	0.056400	0.926800	0.003400
H141	H14	0.676700	0.255300	0.420000
H151	H15	0.673400	0.356600	0.417800
H161	H16	0.650800	0.463400	0.454200
H171	H17	0.653500	0.566300	0.456000
H181	H18	0.859100	0.691900	0.499600
H191	H19	0.828600	0.682800	0.442600
H201	H20	0.286300	0.049700	0.869400
H211	H21	0.325800	0.877500	0.871800
H221	H22	0.290700	0.842600	0.682200
H231	H23	0.287700	0.917400	0.692800
H241	H24	0.397200	0.932500	0.960600
H251	H25	0.341500	0.948600	0.983000
H261	H26	0.412800	0.996500	0.021200
H271	H27	0.314100	0.088700	0.953800
H281	H28	0.360100	0.092900	0.017400
H291	H29	0.288000	0.046600	0.978200
H301	H30	0.407600	0.078500	0.941200
H311	H31	0.446500	0.020100	0.944800
H321	H32	0.447000	0.076600	0.003400
H331	H33	0.243300	0.164700	0.420000
H341	H34	0.244400	0.061200	0.417800
H351	H35	0.303400	0.990800	0.454200
H361	H36	0.302500	0.889700	0.456000
H371	H37	0.140500	0.807700	0.499600
H381	H38	0.114000	0.759800	0.442600
H391	H39	0.819700	0.286300	0.369400
H401	H40	0.994300	0.325800	0.371800
H411	H41	0.839600	0.290700	0.182200
H421	H42	0.775400	0.287700	0.192800
H431	H43	0.028100	0.397200	0.460600
H441	H44	0.034400	0.341500	0.483000
H451	H45	0.024700	0.412800	0.521200
H461	H46	0.865100	0.314100	0.453800
H471	H47	0.924500	0.360100	0.517400
H481	H48	0.931600	0.288000	0.478200
H491	H49	0.862700	0.407600	0.441200
H501	H50	0.924700	0.446500	0.444800
H511	H51	0.926800	0.447000	0.503400
H521	H52	0.255300	0.243300	0.920000
H531	H53	0.356600	0.244400	0.917800
H541	H54	0.463400	0.303400	0.954200
H551	H55	0.566300	0.302500	0.956000
H561	H56	0.691900	0.140500	0.999600
H571	H57	0.682800	0.114000	0.942600
H581	H58	0.049700	0.083100	0.369400
H591	H59	0.877500	0.046000	0.371800
H601	H60	0.842600	0.891500	0.182200
H611	H61	0.917400	0.905100	0.192800
H621	H62	0.932500	0.063400	0.460600
H631	H63	0.948600	0.141500	0.483000
H641	H64	0.996500	0.108400	0.521200
H651	H65	0.088700	0.139700	0.453800
H661	H66	0.092900	0.157300	0.517400
H671	H67	0.046600	0.190200	0.478200
H681	H68	0.078500	0.033600	0.441200
H691	H69	0.020100	0.998300	0.444800
H701	H70	0.076600	0.056400	0.503400
H711	H71	0.164700	0.676700	0.920000
H721	H72	0.061200	0.673400	0.917800
H731	H73	0.990800	0.650800	0.954200
H741	H74	0.889700	0.653500	0.956000
H751	H75	0.807700	0.859100	0.999600
H761	H76	0.759800	0.828600	0.942600
H771	H77	0.213700	0.680300	0.130600
H781	H78	0.174200	0.505700	0.128200
H791	H79	0.209300	0.660400	0.317800
H801	H80	0.212300	0.724600	0.307200
H811	H81	0.102800	0.471900	0.039400
H821	H82	0.158500	0.465600	0.017000
H831	H83	0.087200	0.475300	0.978800
H841	H84	0.185900	0.634900	0.046200
H851	H85	0.139900	0.575500	0.982600
H861	H86	0.212000	0.568400	0.021800
H871	H87	0.092400	0.637300	0.058800
H881	H88	0.053500	0.575300	0.055200
H891	H89	0.053000	0.573200	0.996600
H901	H90	0.256700	0.244700	0.580000
H911	H91	0.255600	0.143400	0.582200
H921	H92	0.196600	0.036600	0.545800
H931	H93	0.197500	0.933700	0.544000
H941	H94	0.359500	0.808100	0.500400
H951	H95	0.386000	0.817200	0.557400
H961	H96	0.416900	0.450300	0.130600
H971	H97	0.454000	0.622500	0.128200
H981	H98	0.608500	0.657400	0.317800
H991	H99	0.594900	0.582600	0.307200
H1001	H100	0.436600	0.567500	0.039400
H1011	H101	0.358500	0.551400	0.017000
H1021	H102	0.391600	0.503500	0.978800
H1031	H103	0.360300	0.411300	0.046200
H1041	H104	0.342700	0.407100	0.982600
H1051	H105	0.309800	0.453400	0.021800
H1061	H106	0.466400	0.421500	0.058800
H1071	H107	0.501700	0.479900	0.055200
H1081	H108	0.443600	0.423400	0.996600
H1091	H109	0.823300	0.335300	0.580000
H1101	H110	0.826600	0.438800	0.582200
H1111	H111	0.849200	0.509200	0.545800
H1121	H112	0.846500	0.610300	0.544000
H1131	H113	0.640900	0.692300	0.500400
H1141	H114	0.671400	0.740200	0.557400
H1151	H115	0.450300	0.213700	0.630600
H1161	H116	0.622500	0.174200	0.628200
H1171	H117	0.657400	0.209300	0.817800
H1181	H118	0.582600	0.212300	0.807200
H1191	H119	0.567500	0.102800	0.539400
H1201	H120	0.551400	0.158500	0.517000
H1211	H121	0.503500	0.087200	0.478800
H1221	H122	0.411300	0.185900	0.546200
H1231	H123	0.407100	0.139900	0.482600
H1241	H124	0.453400	0.212000	0.521800
H1251	H125	0.421500	0.092400	0.558800
H1261	H126	0.479900	0.053500	0.555200
H1271	H127	0.423400	0.053000	0.496600
H1281	H128	0.335300	0.256700	0.080000
H1291	H129	0.438800	0.255600	0.082200
H1301	H130	0.509200	0.196600	0.045800
H1311	H131	0.610300	0.197500	0.044000
H1321	H132	0.692300	0.359500	0.000400
H1331	H133	0.740200	0.386000	0.057400
H1341	H134	0.680300	0.416900	0.630600
H1351	H135	0.505700	0.454000	0.628200
H1361	H136	0.660400	0.608500	0.817800
H1371	H137	0.724600	0.594900	0.807200
H1381	H138	0.471900	0.436600	0.539400
H1391	H139	0.465600	0.358500	0.517000
H1401	H140	0.475300	0.391600	0.478800
H1411	H141	0.634900	0.360300	0.546200
H1421	H142	0.575500	0.342700	0.482600
H1431	H143	0.568400	0.309800	0.521800
H1441	H144	0.637300	0.466400	0.558800
H1451	H145	0.575300	0.501700	0.555200
H1461	H146	0.573200	0.443600	0.496600
H1471	H147	0.244700	0.823300	0.080000
H1481	H148	0.143400	0.826600	0.082200
H1491	H149	0.036600	0.849200	0.045800
H1501	H150	0.933700	0.846500	0.044000
H1511	H151	0.808100	0.640900	0.000400
H1521	H152	0.817200	0.671400	0.057400
H1531	H153	0.916900	0.180300	0.130600
H1541	H154	0.954000	0.005700	0.128200
H1551	H155	0.108500	0.160400	0.317800
H1561	H156	0.094900	0.224600	0.307200
H1571	H157	0.936600	0.971900	0.039400
H1581	H158	0.858500	0.965600	0.017000
H1591	H159	0.891600	0.975300	0.978800
H1601	H160	0.860300	0.134900	0.046200
H1611	H161	0.842700	0.075500	0.982600
H1621	H162	0.809800	0.068400	0.021800
H1631	H163	0.966400	0.137300	0.058800
H1641	H164	0.001700	0.075300	0.055200
H1651	H165	0.943600	0.073200	0.996600
H1661	H166	0.323300	0.744700	0.580000
H1671	H167	0.326600	0.643400	0.582200
H1681	H168	0.349200	0.536600	0.545800
H1691	H169	0.346500	0.433700	0.544000
H1701	H170	0.140900	0.308100	0.500400
H1711	H171	0.171400	0.317200	0.557400
H1721	H172	0.713700	0.950300	0.130600
H1731	H173	0.674200	0.122500	0.128200
H1741	H174	0.709300	0.157400	0.317800
H1751	H175	0.712300	0.082600	0.307200
H1761	H176	0.602800	0.067500	0.039400
H1771	H177	0.658500	0.051400	0.017000
H1781	H178	0.587200	0.003500	0.978800
H1791	H179	0.685900	0.911300	0.046200
H1801	H180	0.639900	0.907100	0.982600
H1811	H181	0.712000	0.953400	0.021800
H1821	H182	0.592400	0.921500	0.058800
H1831	H183	0.553500	0.979900	0.055200
H1841	H184	0.553000	0.923400	0.996600
H1851	H185	0.756700	0.835300	0.580000
H1861	H186	0.755600	0.938800	0.582200
H1871	H187	0.696600	0.009200	0.545800
H1881	H188	0.697500	0.110300	0.544000
H1891	H189	0.859500	0.192300	0.500400
H1901	H190	0.886000	0.240200	0.557400
H1911	H191	0.180300	0.713700	0.630600
H1921	H192	0.005700	0.674200	0.628200
H1931	H193	0.160400	0.709300	0.817800
H1941	H194	0.224600	0.712300	0.807200
H1951	H195	0.971900	0.602800	0.539400
H1961	H196	0.965600	0.658500	0.517000
H1971	H197	0.975300	0.587200	0.478800
H1981	H198	0.134900	0.685900	0.546200
H1991	H199	0.075500	0.639900	0.482600
H2001	H200	0.068400	0.712000	0.521800
H2011	H201	0.137300	0.592400	0.558800
H2021	H202	0.075300	0.553500	0.555200
H2031	H203	0.073200	0.553000	0.496600
H2041	H204	0.744700	0.756700	0.080000
H2051	H205	0.643400	0.755600	0.082200
H2061	H206	0.536600	0.696600	0.045800
H2071	H207	0.433700	0.697500	0.044000
H2081	H208	0.308100	0.859500	0.000400
H2091	H209	0.317200	0.886000	0.057400
H2101	H210	0.950300	0.916900	0.630600
H2111	H211	0.122500	0.954000	0.628200
H2121	H212	0.157400	0.108500	0.817800
H2131	H213	0.082600	0.094900	0.807200
H2141	H214	0.067500	0.936600	0.539400
H2151	H215	0.051400	0.858500	0.517000
H2161	H216	0.003500	0.891600	0.478800
H2171	H217	0.911300	0.860300	0.546200
H2181	H218	0.907100	0.842700	0.482600
H2191	H219	0.953400	0.809800	0.521800
H2201	H220	0.921500	0.966400	0.558800
H2211	H221	0.979900	0.001700	0.555200
H2221	H222	0.923400	0.943600	0.496600
H2231	H223	0.835300	0.323300	0.080000
H2241	H224	0.938800	0.326600	0.082200
H2251	H225	0.009200	0.349200	0.045800
H2261	H226	0.110300	0.346500	0.044000
H2271	H227	0.192300	0.140900	0.000400
H2281	H228	0.240200	0.171400	0.057400
H2291	H229	0.786300	0.319700	0.869400
H2301	H230	0.825800	0.494300	0.871800
H2311	H231	0.790700	0.339600	0.682200
H2321	H232	0.787700	0.275400	0.692800
H2331	H233	0.897200	0.528100	0.960600
H2341	H234	0.841500	0.534400	0.983000
H2351	H235	0.912800	0.524700	0.021200
H2361	H236	0.814100	0.365100	0.953800
H2371	H237	0.860100	0.424500	0.017400
H2381	H238	0.788000	0.431600	0.978200
H2391	H239	0.907600	0.362700	0.941200
H2401	H240	0.946500	0.424700	0.944800
H2411	H241	0.947000	0.426800	0.003400
H2421	H242	0.743300	0.755300	0.420000
H2431	H243	0.744400	0.856600	0.417800
H2441	H244	0.803400	0.963400	0.454200
H2451	H245	0.802500	0.066300	0.456000
H2461	H246	0.640500	0.191900	0.499600
H2471	H247	0.614000	0.182800	0.442600
H2481	H248	0.583100	0.549700	0.869400
H2491	H249	0.546000	0.377500	0.871800
H2501	H250	0.391500	0.342600	0.682200
H2511	H251	0.405100	0.417400	0.692800
H2521	H252	0.563400	0.432500	0.960600
H2531	H253	0.641500	0.448600	0.983000
H2541	H254	0.608400	0.496500	0.021200
H2551	H255	0.639700	0.588700	0.953800
H2561	H256	0.657300	0.592900	0.017400
H2571	H257	0.690200	0.546600	0.978200
H2581	H258	0.533600	0.578500	0.941200
H2591	H259	0.498300	0.520100	0.944800
H2601	H260	0.556400	0.576600	0.003400
H2611	H261	0.176700	0.664700	0.420000
H2621	H262	0.173400	0.561200	0.417800
H2631	H263	0.150800	0.490800	0.454200
H2641	H264	0.153500	0.389700	0.456000
H2651	H265	0.359100	0.307700	0.499600
H2661	H266	0.328600	0.259800	0.442600
H2671	H267	0.549700	0.786300	0.369400
H2681	H268	0.377500	0.825800	0.371800
H2691	H269	0.342600	0.790700	0.182200
H2701	H270	0.417400	0.787700	0.192800
H2711	H271	0.432500	0.897200	0.460600
H2721	H272	0.448600	0.841500	0.483000
H2731	H273	0.496500	0.912800	0.521200
H2741	H274	0.588700	0.814100	0.453800
H2751	H275	0.592900	0.860100	0.517400
H2761	H276	0.546600	0.788000	0.478200
H2771	H277	0.578500	0.907600	0.441200
H2781	H278	0.520100	0.946500	0.444800
H2791	H279	0.576600	0.947000	0.503400
H2801	H280	0.664700	0.743300	0.920000
H2811	H281	0.561200	0.744400	0.917800
H2821	H282	0.490800	0.803400	0.954200
H2831	H283	0.389700	0.802500	0.956000
H2841	H284	0.307700	0.640500	0.999600
H2851	H285	0.259800	0.614000	0.942600
H2861	H286	0.319700	0.583100	0.369400
H2871	H287	0.494300	0.546000	0.371800
H2881	H288	0.339600	0.391500	0.182200
H2891	H289	0.275400	0.405100	0.192800
H2901	H290	0.528100	0.563400	0.460600
H2911	H291	0.534400	0.641500	0.483000
H2921	H292	0.524700	0.608400	0.521200
H2931	H293	0.365100	0.639700	0.453800
H2941	H294	0.424500	0.657300	0.517400
H2951	H295	0.431600	0.690200	0.478200
H2961	H296	0.362700	0.533600	0.441200
H2971	H297	0.424700	0.498300	0.444800
H2981	H298	0.426800	0.556400	0.503400
H2991	H299	0.755300	0.176700	0.920000
H3001	H300	0.856600	0.173400	0.917800
H3011	H301	0.963400	0.150800	0.954200
H3021	H302	0.066300	0.153500	0.956000
H3031	H303	0.191900	0.359100	0.999600
H3041	H304	0.182800	0.328600	0.942600
C11	C1	0.011200	0.852670	0.757180
C21	C2	0.037550	0.815540	0.787760
C31	C3	0.064620	0.845310	0.849080
C41	C4	0.065490	0.911120	0.881360
C51	C5	0.042820	0.948260	0.850460
C61	C6	0.080150	0.726450	0.710960
C71	C7	0.912560	0.800720	0.673200
C81	C8	0.880740	0.758060	0.607540
C91	C9	0.093070	0.942100	0.948860
C101	C10	0.102300	0.013000	0.981000
C111	C11	0.150140	0.913340	0.977080
C121	C12	0.040240	0.911140	0.960680
C131	C13	0.707260	0.293420	0.453540
C141	C14	0.705160	0.353580	0.451720
C151	C15	0.691950	0.493050	0.473260
C161	C16	0.694020	0.554380	0.474360
C171	C17	0.245980	0.904510	0.757180
C181	C18	0.250210	0.972220	0.787760
C191	C19	0.284460	0.003770	0.849080
C201	C20	0.315870	0.970240	0.881360
C211	C21	0.307640	0.902200	0.850460
C221	C22	0.130810	0.984510	0.710960
C231	C23	0.260640	0.872480	0.673200
C241	C24	0.226800	0.849480	0.607540
C251	C25	0.355790	0.006760	0.948860
C261	C26	0.378700	0.968000	0.981000
C271	C27	0.326940	0.063740	0.977080
C281	C28	0.420440	0.049540	0.960680
C291	C29	0.246280	0.160120	0.453540
C301	C30	0.246560	0.098140	0.451720
C311	C31	0.281310	0.980210	0.473260
C321	C32	0.280340	0.919980	0.474360
C331	C33	0.852670	0.245980	0.257180
C341	C34	0.815540	0.250210	0.287760
C351	C35	0.845310	0.284460	0.349080
C361	C36	0.911120	0.315870	0.381360
C371	C37	0.948260	0.307640	0.350460
C381	C38	0.726450	0.130810	0.210960
C391	C39	0.800720	0.260640	0.173200
C401	C40	0.758060	0.226800	0.107540
C411	C41	0.942100	0.355790	0.448860
C421	C42	0.013000	0.378700	0.481000
C431	C43	0.913340	0.326940	0.477080
C441	C44	0.911140	0.420440	0.460680
C451	C45	0.293420	0.246280	0.953540
C461	C46	0.353580	0.246560	0.951720
C471	C47	0.493050	0.281310	0.973260
C481	C48	0.554380	0.280340	0.974360
C491	C49	0.904510	0.011200	0.257180
C501	C50	0.972220	0.037550	0.287760
C511	C51	0.003770	0.064620	0.349080
C521	C52	0.970240	0.065490	0.381360
C531	C53	0.902200	0.042820	0.350460
C541	C54	0.984510	0.080150	0.210960
C551	C55	0.872480	0.912560	0.173200
C561	C56	0.849480	0.880740	0.107540
C571	C57	0.006760	0.093070	0.448860
C581	C58	0.968000	0.102300	0.481000
C591	C59	0.063740	0.150140	0.477080
C601	C60	0.049540	0.040240	0.460680
C611	C61	0.160120	0.707260	0.953540
C621	C62	0.098140	0.705160	0.951720
C631	C63	0.980210	0.691950	0.973260
C641	C64	0.919980	0.694020	0.974360
C651	C65	0.254020	0.647330	0.242820
C661	C66	0.249790	0.684460	0.212240
C671	C67	0.215540	0.654690	0.150920
C681	C68	0.184130	0.588880	0.118640
C691	C69	0.192360	0.551740	0.149540
C701	C70	0.369190	0.773550	0.289040
C711	C71	0.239360	0.699280	0.326800
C721	C72	0.273200	0.741940	0.392460
C731	C73	0.144210	0.557900	0.051140
C741	C74	0.121300	0.487000	0.019000
C751	C75	0.173060	0.586660	0.022920
C761	C76	0.079560	0.588860	0.039320
C771	C77	0.253720	0.206580	0.546460
C781	C78	0.253440	0.146420	0.548280
C791	C79	0.218690	0.006950	0.526740
C801	C80	0.219660	0.945620	0.525640
C811	C81	0.488800	0.595490	0.242820
C821	C82	0.462450	0.527780	0.212240
C831	C83	0.435380	0.496230	0.150920
C841	C84	0.434510	0.529760	0.118640
C851	C85	0.457180	0.597800	0.149540
C861	C86	0.419850	0.515490	0.289040
C871	C87	0.587440	0.627520	0.326800
C881	C88	0.619260	0.650520	0.392460
C891	C89	0.406930	0.493240	0.051140
C901	C90	0.397700	0.532000	0.019000
C911	C91	0.349860	0.436260	0.022920
C921	C92	0.459760	0.450460	0.039320
C931	C93	0.792740	0.339880	0.546460
C941	C94	0.794840	0.401860	0.548280
C951	C95	0.808050	0.519790	0.526740
C961	C96	0.805980	0.580020	0.525640
C971	C97	0.595490	0.254020	0.742820
C981	C98	0.527780	0.249790	0.712240
C991	C99	0.496230	0.215540	0.650920
C1001	C100	0.529760	0.184130	0.618640
C1011	C101	0.597800	0.192360	0.649540
C1021	C102	0.515490	0.369190	0.789040
C1031	C103	0.627520	0.239360	0.826800
C1041	C104	0.650520	0.273200	0.892460
C1051	C105	0.493240	0.144210	0.551140
C1061	C106	0.532000	0.121300	0.519000
C1071	C107	0.436260	0.173060	0.522920
C1081	C108	0.450460	0.079560	0.539320
C1091	C109	0.339880	0.253720	0.046460
C1101	C110	0.401860	0.253440	0.048280
C1111	C111	0.519790	0.218690	0.026740
C1121	C112	0.580020	0.219660	0.025640
C1131	C113	0.647330	0.488800	0.742820
C1141	C114	0.684460	0.462450	0.712240
C1151	C115	0.654690	0.435380	0.650920
C1161	C116	0.588880	0.434510	0.618640
C1171	C117	0.551740	0.457180	0.649540
C1181	C118	0.773550	0.419850	0.789040
C1191	C119	0.699280	0.587440	0.826800
C1201	C120	0.741940	0.619260	0.892460
C1211	C121	0.557900	0.406930	0.551140
C1221	C122	0.487000	0.397700	0.519000
C1231	C123	0.586660	0.349860	0.522920
C1241	C124	0.588860	0.459760	0.539320
C1251	C125	0.206580	0.792740	0.046460
C1261	C126	0.146420	0.794840	0.048280
C1271	C127	0.006950	0.808050	0.026740
C1281	C128	0.945620	0.805980	0.025640
C1291	C129	0.988800	0.147330	0.242820
C1301	C130	0.962450	0.184460	0.212240
C1311	C131	0.935380	0.154690	0.150920
C1321	C132	0.934510	0.088880	0.118640
C1331	C133	0.957180	0.051740	0.149540
C1341	C134	0.919850	0.273550	0.289040
C1351	C135	0.087440	0.199280	0.326800
C1361	C136	0.119260	0.241940	0.392460
C1371	C137	0.906930	0.057900	0.051140
C1381	C138	0.897700	0.987000	0.019000
C1391	C139	0.849860	0.086660	0.022920
C1401	C140	0.959760	0.088860	0.039320
C1411	C141	0.292740	0.706580	0.546460
C1421	C142	0.294840	0.646420	0.548280
C1431	C143	0.308050	0.506950	0.526740
C1441	C144	0.305980	0.445620	0.525640
C1451	C145	0.754020	0.095490	0.242820
C1461	C146	0.749790	0.027780	0.212240
C1471	C147	0.715540	0.996230	0.150920
C1481	C148	0.684130	0.029760	0.118640
C1491	C149	0.692360	0.097800	0.149540
C1501	C150	0.869190	0.015490	0.289040
C1511	C151	0.739360	0.127520	0.326800
C1521	C152	0.773200	0.150520	0.392460
C1531	C153	0.644210	0.993240	0.051140
C1541	C154	0.621300	0.032000	0.019000
C1551	C155	0.673060	0.936260	0.022920
C1561	C156	0.579560	0.950460	0.039320
C1571	C157	0.753720	0.839880	0.546460
C1581	C158	0.753440	0.901860	0.548280
C1591	C159	0.718690	0.019790	0.526740
C1601	C160	0.719660	0.080020	0.525640
C1611	C161	0.147330	0.754020	0.742820
C1621	C162	0.184460	0.749790	0.712240
C1631	C163	0.154690	0.715540	0.650920
C1641	C164	0.088880	0.684130	0.618640
C1651	C165	0.051740	0.692360	0.649540
C1661	C166	0.273550	0.869190	0.789040
C1671	C167	0.199280	0.739360	0.826800
C1681	C168	0.241940	0.773200	0.892460
C1691	C169	0.057900	0.644210	0.551140
C1701	C170	0.987000	0.621300	0.519000
C1711	C171	0.086660	0.673060	0.522920
C1721	C172	0.088860	0.579560	0.539320
C1731	C173	0.706580	0.753720	0.046460
C1741	C174	0.646420	0.753440	0.048280
C1751	C175	0.506950	0.718690	0.026740
C1761	C176	0.445620	0.719660	0.025640
C1771	C177	0.095490	0.988800	0.742820
C1781	C178	0.027780	0.962450	0.712240
C1791	C179	0.996230	0.935380	0.650920
C1801	C180	0.029760	0.934510	0.618640
C1811	C181	0.097800	0.957180	0.649540
C1821	C182	0.015490	0.919850	0.789040
C1831	C183	0.127520	0.087440	0.826800
C1841	C184	0.150520	0.119260	0.892460
C1851	C185	0.993240	0.906930	0.551140
C1861	C186	0.032000	0.897700	0.519000
C1871	C187	0.936260	0.849860	0.522920
C1881	C188	0.950460	0.959760	0.539320
C1891	C189	0.839880	0.292740	0.046460
C1901	C190	0.901860	0.294840	0.048280
C1911	C191	0.019790	0.308050	0.026740
C1921	C192	0.080020	0.305980	0.025640
C1931	C193	0.745980	0.352670	0.757180
C1941	C194	0.750210	0.315540	0.787760
C1951	C195	0.784460	0.345310	0.849080
C1961	C196	0.815870	0.411120	0.881360
C1971	C197	0.807640	0.448260	0.850460
C1981	C198	0.630810	0.226450	0.710960
C1991	C199	0.760640	0.300720	0.673200
C2001	C200	0.726800	0.258060	0.607540
C2011	C201	0.855790	0.442100	0.948860
C2021	C202	0.878700	0.513000	0.981000
C2031	C203	0.826940	0.413340	0.977080
C2041	C204	0.920440	0.411140	0.960680
C2051	C205	0.746280	0.793420	0.453540
C2061	C206	0.746560	0.853580	0.451720
C2071	C207	0.781310	0.993050	0.473260
C2081	C208	0.780340	0.054380	0.474360
C2091	C209	0.511200	0.404510	0.757180
C2101	C210	0.537550	0.472220	0.787760
C2111	C211	0.564620	0.503770	0.849080
C2121	C212	0.565490	0.470240	0.881360
C2131	C213	0.542820	0.402200	0.850460
C2141	C214	0.580150	0.484510	0.710960
C2151	C215	0.412560	0.372480	0.673200
C2161	C216	0.380740	0.349480	0.607540
C2171	C217	0.593070	0.506760	0.948860
C2181	C218	0.602300	0.468000	0.981000
C2191	C219	0.650140	0.563740	0.977080
C2201	C220	0.540240	0.549540	0.960680
C2211	C221	0.207260	0.660120	0.453540
C2221	C222	0.205160	0.598140	0.451720
C2231	C223	0.191950	0.480210	0.473260
C2241	C224	0.194020	0.419980	0.474360
C2251	C225	0.404510	0.745980	0.257180
C2261	C226	0.472220	0.750210	0.287760
C2271	C227	0.503770	0.784460	0.349080
C2281	C228	0.470240	0.815870	0.381360
C2291	C229	0.402200	0.807640	0.350460
C2301	C230	0.484510	0.630810	0.210960
C2311	C231	0.372480	0.760640	0.173200
C2321	C232	0.349480	0.726800	0.107540
C2331	C233	0.506760	0.855790	0.448860
C2341	C234	0.468000	0.878700	0.481000
C2351	C235	0.563740	0.826940	0.477080
C2361	C236	0.549540	0.920440	0.460680
C2371	C237	0.660120	0.746280	0.953540
C2381	C238	0.598140	0.746560	0.951720
C2391	C239	0.480210	0.781310	0.973260
C2401	C240	0.419980	0.780340	0.974360
C2411	C241	0.352670	0.511200	0.257180
C2421	C242	0.315540	0.537550	0.287760
C2431	C243	0.345310	0.564620	0.349080
C2441	C244	0.411120	0.565490	0.381360
C2451	C245	0.448260	0.542820	0.350460
C2461	C246	0.226450	0.580150	0.210960
C2471	C247	0.300720	0.412560	0.173200
C2481	C248	0.258060	0.380740	0.107540
C2491	C249	0.442100	0.593070	0.448860
C2501	C250	0.513000	0.602300	0.481000
C2511	C251	0.413340	0.650140	0.477080
C2521	C252	0.411140	0.540240	0.460680
C2531	C253	0.793420	0.207260	0.953540
C2541	C254	0.853580	0.205160	0.951720
C2551	C255	0.993050	0.191950	0.973260
C2561	C256	0.054380	0.194020	0.974360
C2571	C257	0.750000	0.409380	0.500000
C2581	C258	0.750000	0.475050	0.500000
C2591	C259	0.250000	0.090620	0.500000
C2601	C260	0.250000	0.024950	0.500000
C2611	C261	0.409380	0.250000	0.000000
C2621	C262	0.475050	0.250000	0.000000
C2631	C263	0.090620	0.750000	0.000000
C2641	C264	0.024950	0.750000	0.000000
C2651	C265	0.250000	0.590620	0.500000
C2661	C266	0.250000	0.524950	0.500000
C2671	C267	0.750000	0.909380	0.500000
C2681	C268	0.750000	0.975050	0.500000
C2691	C269	0.590620	0.750000	0.000000
C2701	C270	0.524950	0.750000	0.000000
C2711	C271	0.909380	0.250000	0.000000
C2721	C272	0.975050	0.250000	0.000000
S11	S1	0.031280	0.729240	0.748200
S21	S2	0.216920	0.018960	0.748200
S31	S3	0.729240	0.216920	0.248200
S41	S4	0.018960	0.031280	0.248200
S51	S5	0.283080	0.770760	0.251800
S61	S6	0.468720	0.481040	0.251800
S71	S7	0.481040	0.283080	0.751800
S81	S8	0.770760	0.468720	0.751800
S91	S9	0.968720	0.270760	0.251800
S101	S10	0.783080	0.981040	0.251800
S111	S11	0.270760	0.783080	0.751800
S121	S12	0.981040	0.968720	0.751800
S131	S13	0.716920	0.229240	0.748200
S141	S14	0.531280	0.518960	0.748200
S151	S15	0.518960	0.716920	0.248200
S161	S16	0.229240	0.531280	0.248200
N11	N1	0.750000	0.286300	0.500000
N21	N2	0.750000	0.598050	0.500000
N31	N3	0.250000	0.213700	0.500000
N41	N4	0.250000	0.901950	0.500000
N51	N5	0.286300	0.250000	0.000000
N61	N6	0.598050	0.250000	0.000000
N71	N7	0.213700	0.750000	0.000000
N81	N8	0.901950	0.750000	0.000000
N91	N9	0.250000	0.713700	0.500000
N101	N10	0.250000	0.401950	0.500000
N111	N11	0.750000	0.786300	0.500000
N121	N12	0.750000	0.098050	0.500000
N131	N13	0.713700	0.750000	0.000000
N141	N14	0.401950	0.750000	0.000000
N151	N15	0.786300	0.250000	0.000000
N161	N16	0.098050	0.250000	0.000000
O11	O1	0.981930	0.822820	0.696460
O21	O2	0.819490	0.735820	0.586720
O31	O3	0.913350	0.747920	0.579980
O41	O4	0.823890	0.677180	0.469320
O51	O5	0.214530	0.873640	0.696460
O61	O6	0.267230	0.850900	0.586720
O71	O7	0.166630	0.832060	0.579980
O81	O8	0.145430	0.792140	0.469320
O91	O9	0.822820	0.214530	0.196460
O101	O10	0.735820	0.267230	0.086720
O111	O11	0.747920	0.166630	0.079980
O121	O12	0.677180	0.145430	0.969320
O131	O13	0.873640	0.981930	0.196460
O141	O14	0.850900	0.819490	0.086720
O151	O15	0.832060	0.913350	0.079980
O161	O16	0.792140	0.823890	0.969320
O171	O17	0.285470	0.677180	0.303540
O181	O18	0.232770	0.764180	0.413280
O191	O19	0.333370	0.752080	0.420020
O201	O20	0.354570	0.822820	0.530680
O211	O21	0.518070	0.626360	0.303540
O221	O22	0.680510	0.649100	0.413280
O231	O23	0.586650	0.667940	0.420020
O241	O24	0.676110	0.707860	0.530680
O251	O25	0.626360	0.285470	0.803540
O261	O26	0.649100	0.232770	0.913280
O271	O27	0.667940	0.333370	0.920020
O281	O28	0.707860	0.354570	0.030680
O291	O29	0.677180	0.518070	0.803540
O301	O30	0.764180	0.680510	0.913280
O311	O31	0.752080	0.586650	0.920020
O321	O32	0.822820	0.676110	0.030680
O331	O33	0.018070	0.177180	0.303540
O341	O34	0.180510	0.264180	0.413280
O351	O35	0.086650	0.252080	0.420020
O361	O36	0.176110	0.322820	0.530680
O371	O37	0.785470	0.126360	0.303540
O381	O38	0.732770	0.149100	0.413280
O391	O39	0.833370	0.167940	0.420020
O401	O40	0.854570	0.207860	0.530680
O411	O41	0.177180	0.785470	0.803540
O421	O42	0.264180	0.732770	0.913280
O431	O43	0.252080	0.833370	0.920020
O441	O44	0.322820	0.854570	0.030680
O451	O45	0.126360	0.018070	0.803540
O461	O46	0.149100	0.180510	0.913280
O471	O47	0.167940	0.086650	0.920020
O481	O48	0.207860	0.176110	0.030680
O491	O49	0.714530	0.322820	0.696460
O501	O50	0.767230	0.235820	0.586720
O511	O51	0.666630	0.247920	0.579980
O521	O52	0.645430	0.177180	0.469320
O531	O53	0.481930	0.373640	0.696460
O541	O54	0.319490	0.350900	0.586720
O551	O55	0.413350	0.332060	0.579980
O561	O56	0.323890	0.292140	0.469320
O571	O57	0.373640	0.714530	0.196460
O581	O58	0.350900	0.767230	0.086720
O591	O59	0.332060	0.666630	0.079980
O601	O60	0.292140	0.645430	0.969320
O611	O61	0.322820	0.481930	0.196460
O621	O62	0.235820	0.319490	0.086720
O631	O63	0.247920	0.413350	0.079980
O641	O64	0.177180	0.323890	0.969320
