data_AZEWEH_freeONLY_PM
_symmetry_space_group_name_H-M	'P1'
_cell_length_a	6.621000
_cell_length_b	11.794100
_cell_length_c	12.206400
_cell_angle_alpha	90.846000
_cell_angle_beta	100.577000
_cell_angle_gamma	102.446000
_symmetry_Int_Tables_number 1

loop_
_symmetry_equiv_pos_as_xyz
'x,y,z'

loop_
_atom_site_label
_atom_site_type_symbol
_atom_site_fract_x
_atom_site_fract_y
_atom_site_fract_z
Nd11	Nd1	0.346610	0.420560	0.129600
Nd21	Nd2	0.732740	0.867060	0.447850
S11	S1	0.159900	0.880280	0.357980
S21	S2	0.533100	0.657080	0.274180
S31	S3	0.762700	0.352650	0.073080
S41	S4	0.264100	0.247310	0.319310
O11	O1	0.976300	0.416100	0.122300
O21	O2	0.644300	0.435300	0.011400
O31	O3	0.352500	0.375100	0.326600
O41	O4	0.179600	0.297400	0.958300
O51	O5	0.639400	0.311900	0.159900
O61	O6	0.309100	0.601200	0.234900
O71	O7	0.651400	0.585500	0.221300
O81	O8	0.197300	0.212500	0.199900
O91	O9	0.373800	0.883800	0.419600
O101	O10	0.586200	0.780500	0.246900
O111	O11	0.084100	0.977700	0.410100
O121	O12	0.589600	0.656500	0.398400
O131	O13	0.423500	0.187100	0.380100
O141	O14	0.009900	0.776000	0.381600
O151	O15	0.697700	0.047300	0.338000
O161	O16	0.087600	0.220300	0.381100
O171	O17	0.155300	0.895100	0.240800
O181	O18	0.770000	0.256300	0.998300
H11	H1	0.632000	0.079700	0.363400
H21	H2	0.780000	0.101000	0.322300
H31	H3	0.193000	0.322900	0.885500
H41	H4	0.062000	0.293000	0.956000
Nd31	Nd3	0.653390	0.579440	0.870400
Nd41	Nd4	0.267260	0.132940	0.552150
S51	S5	0.840100	0.119720	0.642020
S61	S6	0.466900	0.342920	0.725820
S71	S7	0.237300	0.647350	0.926920
S81	S8	0.735900	0.752690	0.680690
O191	O19	0.023700	0.583900	0.877700
O201	O20	0.355700	0.564700	0.988600
O211	O21	0.647500	0.624900	0.673400
O221	O22	0.820400	0.702600	0.041700
O231	O23	0.360600	0.688100	0.840100
O241	O24	0.690900	0.398800	0.765100
O251	O25	0.348600	0.414500	0.778700
O261	O26	0.802700	0.787500	0.800100
O271	O27	0.626200	0.116200	0.580400
O281	O28	0.413800	0.219500	0.753100
O291	O29	0.915900	0.022300	0.589900
O301	O30	0.410400	0.343500	0.601600
O311	O31	0.576500	0.812900	0.619900
O321	O32	0.990100	0.224000	0.618400
O331	O33	0.302300	0.952700	0.662000
O341	O34	0.912400	0.779700	0.618900
O351	O35	0.844700	0.104900	0.759200
O361	O36	0.230000	0.743700	0.001700
H51	H5	0.368000	0.920300	0.636600
H61	H6	0.220000	0.899000	0.677700
H71	H7	0.807000	0.677100	0.114500
H81	H8	0.938000	0.707000	0.044000
