data_AZILEC_freeONLY_PM
_symmetry_space_group_name_H-M	'P1'
_cell_length_a	14.595000
_cell_length_b	13.344000
_cell_length_c	21.324000
_cell_angle_alpha	90.000000
_cell_angle_beta	90.000000
_cell_angle_gamma	90.000000
_symmetry_Int_Tables_number 1

loop_
_symmetry_equiv_pos_as_xyz
'x,y,z'

loop_
_atom_site_label
_atom_site_type_symbol
_atom_site_fract_x
_atom_site_fract_y
_atom_site_fract_z
Co11	Co1	0.099050	0.404270	0.908740
Co21	Co2	0.903800	0.348140	0.040350
O11	O1	0.133900	0.404200	0.999500
O21	O2	0.870900	0.350100	0.143500
O31	O3	0.259000	0.392100	0.378800
O41	O4	0.034600	0.338000	0.065900
O51	O5	0.363700	0.405800	0.308800
O61	O6	0.631100	0.340100	0.449900
O71	O7	0.533600	0.407100	0.381500
N11	N1	0.095800	0.563200	0.910700
C11	C1	0.676300	0.355700	0.345200
H11	H1	0.735000	0.336300	0.357000
C21	C2	0.091700	0.772300	0.918400
O81	O8	0.764900	0.357000	0.070600
N21	N2	0.913000	0.510200	0.037300
C31	C3	0.917800	0.717400	0.041500
N31	N3	0.095300	0.239000	0.909100
C41	C4	0.730400	0.356700	0.236900
H21	H2	0.789700	0.340500	0.249200
C51	C5	0.661000	0.369000	0.285400
H31	H3	0.602300	0.387500	0.273100
C61	C6	0.785200	0.355300	0.127700
N41	N4	0.903600	0.183000	0.038700
C71	C7	0.162200	0.374500	0.163700
H41	H4	0.101900	0.360500	0.174600
C81	C8	0.136200	0.719300	0.960000
H51	H5	0.169100	0.751900	0.991300
C91	C9	0.110600	0.375500	0.052800
C101	C10	0.135400	0.617300	0.958500
H61	H6	0.162900	0.582600	0.991200
C111	C11	0.228400	0.382700	0.213500
H71	H7	0.289400	0.389100	0.201600
C121	C12	0.957200	0.661400	0.086100
H81	H8	0.985400	0.692600	0.120000
C131	C13	0.713300	0.367500	0.175300
H91	H9	0.654200	0.383100	0.162500
C141	C14	0.212000	0.382100	0.272000
H101	H10	0.151400	0.374200	0.284400
C151	C15	0.283300	0.393300	0.323400
C161	C16	0.607600	0.368900	0.395800
C171	C17	0.872400	0.665100	0.993000
H111	H11	0.843200	0.700800	0.961300
C181	C18	0.870800	0.564300	0.991800
H121	H12	0.840500	0.531400	0.959500
C191	C19	0.048500	0.615500	0.867700
H131	H13	0.014100	0.581200	0.837900
C201	C20	0.181400	0.385400	0.103200
H141	H14	0.241400	0.399900	0.091700
C211	C21	0.956600	0.559500	0.082500
H151	H15	0.987900	0.523000	0.112900
C221	C22	0.049900	0.721100	0.866600
H161	H16	0.024500	0.756500	0.833300
C231	C23	0.868300	0.133500	0.995900
H171	H17	0.831300	0.167600	0.967500
C241	C24	0.125000	0.077300	0.954000
H181	H18	0.147000	0.041600	0.988200
C251	C25	0.939600	0.133000	0.083300
H191	H19	0.962500	0.165400	0.118600
C261	C26	0.133900	0.186500	0.953100
H201	H20	0.167600	0.218500	0.984200
C271	C27	0.047600	0.190800	0.863700
H211	H21	0.017800	0.228000	0.833000
C281	C28	0.042000	0.085000	0.862100
H221	H22	0.010000	0.052200	0.830600
C291	C29	0.087600	0.030600	0.909800
N51	N5	0.930900	0.840000	0.059900
C301	C30	0.879000	0.032400	0.987200
H231	H23	0.867600	0.003700	0.948300
C311	C31	0.944000	0.026200	0.078200
H241	H24	0.976900	0.991700	0.108800
C321	C32	0.907100	0.975600	0.035400
N61	N6	0.891300	0.861100	0.017600
N71	N7	0.100900	0.894300	0.929200
N81	N8	0.064000	0.917000	0.887300
Co31	Co3	0.400950	0.404270	0.408740
Co41	Co4	0.596200	0.348140	0.540350
O91	O9	0.366100	0.404200	0.499500
O101	O10	0.629100	0.350100	0.643500
O111	O11	0.241000	0.392100	0.878800
O121	O12	0.465400	0.338000	0.565900
O131	O13	0.136300	0.405800	0.808800
O141	O14	0.868900	0.340100	0.949900
O151	O15	0.966400	0.407100	0.881500
N91	N9	0.404200	0.563200	0.410700
C331	C33	0.823700	0.355700	0.845200
H251	H25	0.765000	0.336300	0.857000
C341	C34	0.408300	0.772300	0.418400
O161	O16	0.735100	0.357000	0.570600
N101	N10	0.587000	0.510200	0.537300
C351	C35	0.582200	0.717400	0.541500
N111	N11	0.404700	0.239000	0.409100
C361	C36	0.769600	0.356700	0.736900
H261	H26	0.710300	0.340500	0.749200
C371	C37	0.839000	0.369000	0.785400
H271	H27	0.897700	0.387500	0.773100
C381	C38	0.714800	0.355300	0.627700
N121	N12	0.596400	0.183000	0.538700
C391	C39	0.337800	0.374500	0.663700
H281	H28	0.398100	0.360500	0.674600
C401	C40	0.363800	0.719300	0.460000
H291	H29	0.330900	0.751900	0.491300
C411	C41	0.389400	0.375500	0.552800
C421	C42	0.364600	0.617300	0.458500
H301	H30	0.337100	0.582600	0.491200
C431	C43	0.271600	0.382700	0.713500
H311	H31	0.210600	0.389100	0.701600
C441	C44	0.542800	0.661400	0.586100
H321	H32	0.514600	0.692600	0.620000
C451	C45	0.786700	0.367500	0.675300
H331	H33	0.845800	0.383100	0.662500
C461	C46	0.288000	0.382100	0.772000
H341	H34	0.348600	0.374200	0.784400
C471	C47	0.216700	0.393300	0.823400
C481	C48	0.892400	0.368900	0.895800
C491	C49	0.627600	0.665100	0.493000
H351	H35	0.656800	0.700800	0.461300
C501	C50	0.629200	0.564300	0.491800
H361	H36	0.659500	0.531400	0.459500
C511	C51	0.451500	0.615500	0.367700
H371	H37	0.485900	0.581200	0.337900
C521	C52	0.318600	0.385400	0.603200
H381	H38	0.258600	0.399900	0.591700
C531	C53	0.543400	0.559500	0.582500
H391	H39	0.512100	0.523000	0.612900
C541	C54	0.450100	0.721100	0.366600
H401	H40	0.475500	0.756500	0.333300
C551	C55	0.631700	0.133500	0.495900
H411	H41	0.668700	0.167600	0.467500
C561	C56	0.375000	0.077300	0.454000
H421	H42	0.353000	0.041600	0.488200
C571	C57	0.560400	0.133000	0.583300
H431	H43	0.537500	0.165400	0.618600
C581	C58	0.366100	0.186500	0.453100
H441	H44	0.332400	0.218500	0.484200
C591	C59	0.452400	0.190800	0.363700
H451	H45	0.482200	0.228000	0.333000
C601	C60	0.458000	0.085000	0.362100
H461	H46	0.490000	0.052200	0.330600
C611	C61	0.412400	0.030600	0.409800
N131	N13	0.569100	0.840000	0.559900
C621	C62	0.621000	0.032400	0.487200
H471	H47	0.632400	0.003700	0.448300
C631	C63	0.556000	0.026200	0.578200
H481	H48	0.523100	0.991700	0.608800
C641	C64	0.592900	0.975600	0.535400
N141	N14	0.608700	0.861100	0.517600
N151	N15	0.399100	0.894300	0.429200
N161	N16	0.436000	0.917000	0.387300
Co51	Co5	0.900950	0.595730	0.408740
Co61	Co6	0.096200	0.651860	0.540350
O171	O17	0.866100	0.595800	0.499500
O181	O18	0.129100	0.649900	0.643500
O191	O19	0.741000	0.607900	0.878800
O201	O20	0.965400	0.662000	0.565900
O211	O21	0.636300	0.594200	0.808800
O221	O22	0.368900	0.659900	0.949900
O231	O23	0.466400	0.592900	0.881500
N171	N17	0.904200	0.436800	0.410700
C651	C65	0.323700	0.644300	0.845200
H491	H49	0.265000	0.663700	0.857000
C661	C66	0.908300	0.227700	0.418400
O241	O24	0.235100	0.643000	0.570600
N181	N18	0.087000	0.489800	0.537300
C671	C67	0.082200	0.282600	0.541500
N191	N19	0.904700	0.761000	0.409100
C681	C68	0.269600	0.643300	0.736900
H501	H50	0.210300	0.659500	0.749200
C691	C69	0.339000	0.631000	0.785400
H511	H51	0.397700	0.612500	0.773100
C701	C70	0.214800	0.644700	0.627700
N201	N20	0.096400	0.817000	0.538700
C711	C71	0.837800	0.625500	0.663700
H521	H52	0.898100	0.639500	0.674600
C721	C72	0.863800	0.280700	0.460000
H531	H53	0.830900	0.248100	0.491300
C731	C73	0.889400	0.624500	0.552800
C741	C74	0.864600	0.382700	0.458500
H541	H54	0.837100	0.417400	0.491200
C751	C75	0.771600	0.617300	0.713500
H551	H55	0.710600	0.610900	0.701600
C761	C76	0.042800	0.338600	0.586100
H561	H56	0.014600	0.307400	0.620000
C771	C77	0.286700	0.632500	0.675300
H571	H57	0.345800	0.616900	0.662500
C781	C78	0.788000	0.617900	0.772000
H581	H58	0.848600	0.625800	0.784400
C791	C79	0.716700	0.606700	0.823400
C801	C80	0.392400	0.631100	0.895800
C811	C81	0.127600	0.334900	0.493000
H591	H59	0.156800	0.299200	0.461300
C821	C82	0.129200	0.435700	0.491800
H601	H60	0.159500	0.468600	0.459500
C831	C83	0.951500	0.384500	0.367700
H611	H61	0.985900	0.418800	0.337900
C841	C84	0.818600	0.614600	0.603200
H621	H62	0.758600	0.600100	0.591700
C851	C85	0.043400	0.440500	0.582500
H631	H63	0.012100	0.477000	0.612900
C861	C86	0.950100	0.278900	0.366600
H641	H64	0.975500	0.243500	0.333300
C871	C87	0.131700	0.866500	0.495900
H651	H65	0.168700	0.832400	0.467500
C881	C88	0.875000	0.922700	0.454000
H661	H66	0.853000	0.958400	0.488200
C891	C89	0.060400	0.867000	0.583300
H671	H67	0.037500	0.834600	0.618600
C901	C90	0.866100	0.813500	0.453100
H681	H68	0.832400	0.781500	0.484200
C911	C91	0.952400	0.809200	0.363700
H691	H69	0.982200	0.772000	0.333000
C921	C92	0.958000	0.915000	0.362100
H701	H70	0.990000	0.947800	0.330600
C931	C93	0.912400	0.969400	0.409800
N211	N21	0.069100	0.160000	0.559900
C941	C94	0.121000	0.967600	0.487200
H711	H71	0.132400	0.996300	0.448300
C951	C95	0.056000	0.973800	0.578200
H721	H72	0.023100	0.008300	0.608800
C961	C96	0.092900	0.024400	0.535400
N221	N22	0.108700	0.138900	0.517600
N231	N23	0.899100	0.105700	0.429200
N241	N24	0.936000	0.083000	0.387300
Co71	Co7	0.599050	0.595730	0.908740
Co81	Co8	0.403800	0.651860	0.040350
O251	O25	0.633900	0.595800	0.999500
O261	O26	0.370900	0.649900	0.143500
O271	O27	0.759000	0.607900	0.378800
O281	O28	0.534600	0.662000	0.065900
O291	O29	0.863700	0.594200	0.308800
O301	O30	0.131100	0.659900	0.449900
O311	O31	0.033600	0.592900	0.381500
N251	N25	0.595800	0.436800	0.910700
C971	C97	0.176300	0.644300	0.345200
H731	H73	0.235000	0.663700	0.357000
C981	C98	0.591700	0.227700	0.918400
O321	O32	0.264900	0.643000	0.070600
N261	N26	0.413000	0.489800	0.037300
C991	C99	0.417800	0.282600	0.041500
N271	N27	0.595300	0.761000	0.909100
C1001	C100	0.230400	0.643300	0.236900
H741	H74	0.289700	0.659500	0.249200
C1011	C101	0.161000	0.631000	0.285400
H751	H75	0.102300	0.612500	0.273100
C1021	C102	0.285200	0.644700	0.127700
N281	N28	0.403600	0.817000	0.038700
C1031	C103	0.662200	0.625500	0.163700
H761	H76	0.601900	0.639500	0.174600
C1041	C104	0.636200	0.280700	0.960000
H771	H77	0.669100	0.248100	0.991300
C1051	C105	0.610600	0.624500	0.052800
C1061	C106	0.635400	0.382700	0.958500
H781	H78	0.662900	0.417400	0.991200
C1071	C107	0.728400	0.617300	0.213500
H791	H79	0.789400	0.610900	0.201600
C1081	C108	0.457200	0.338600	0.086100
H801	H80	0.485400	0.307400	0.120000
C1091	C109	0.213300	0.632500	0.175300
H811	H81	0.154200	0.616900	0.162500
C1101	C110	0.712000	0.617900	0.272000
H821	H82	0.651400	0.625800	0.284400
C1111	C111	0.783300	0.606700	0.323400
C1121	C112	0.107600	0.631100	0.395800
C1131	C113	0.372400	0.334900	0.993000
H831	H83	0.343200	0.299200	0.961300
C1141	C114	0.370800	0.435700	0.991800
H841	H84	0.340500	0.468600	0.959500
C1151	C115	0.548500	0.384500	0.867700
H851	H85	0.514100	0.418800	0.837900
C1161	C116	0.681400	0.614600	0.103200
H861	H86	0.741400	0.600100	0.091700
C1171	C117	0.456600	0.440500	0.082500
H871	H87	0.487900	0.477000	0.112900
C1181	C118	0.549900	0.278900	0.866600
H881	H88	0.524500	0.243500	0.833300
C1191	C119	0.368300	0.866500	0.995900
H891	H89	0.331300	0.832400	0.967500
C1201	C120	0.625000	0.922700	0.954000
H901	H90	0.647000	0.958400	0.988200
C1211	C121	0.439600	0.867000	0.083300
H911	H91	0.462500	0.834600	0.118600
C1221	C122	0.633900	0.813500	0.953100
H921	H92	0.667600	0.781500	0.984200
C1231	C123	0.547600	0.809200	0.863700
H931	H93	0.517800	0.772000	0.833000
C1241	C124	0.542000	0.915000	0.862100
H941	H94	0.510000	0.947800	0.830600
C1251	C125	0.587600	0.969400	0.909800
N291	N29	0.430900	0.160000	0.059900
C1261	C126	0.379000	0.967600	0.987200
H951	H95	0.367600	0.996300	0.948300
C1271	C127	0.444000	0.973800	0.078200
H961	H96	0.476900	0.008300	0.108800
C1281	C128	0.407100	0.024400	0.035400
N301	N30	0.391300	0.138900	0.017600
N311	N31	0.600900	0.105700	0.929200
N321	N32	0.564000	0.083000	0.887300
