data_AZIVAI_freeONLY_PM
_symmetry_space_group_name_H-M	'P1'
_cell_length_a	13.636000
_cell_length_b	13.636000
_cell_length_c	19.467000
_cell_angle_alpha	90.000000
_cell_angle_beta	90.000000
_cell_angle_gamma	90.000000
_symmetry_Int_Tables_number 1

loop_
_symmetry_equiv_pos_as_xyz
'x,y,z'

loop_
_atom_site_label
_atom_site_type_symbol
_atom_site_fract_x
_atom_site_fract_y
_atom_site_fract_z
N11	N1	0.432100	0.423000	0.073100
C11	C1	0.449000	0.425900	0.142500
C21	C2	0.400400	0.344100	0.175500
H11	H1	0.403100	0.327000	0.222800
C31	C3	0.350500	0.296800	0.125300
H21	H2	0.309600	0.241100	0.131300
C41	C4	0.370000	0.345500	0.061900
C51	C5	0.160800	0.259000	0.036800
H31	H3	0.149500	0.317000	0.062600
C61	C6	0.093100	0.186900	0.035200
H41	H4	0.034300	0.195600	0.060700
C71	C7	0.587600	0.501000	0.289200
H51	H5	0.648800	0.500800	0.265900
C81	C8	0.584600	0.502300	0.359700
H61	H6	0.644900	0.504900	0.384200
N21	N2	0.567900	0.577000	0.073100
C91	C9	0.551000	0.574100	0.142500
C101	C10	0.599600	0.655900	0.175500
H71	H7	0.596900	0.673000	0.222800
C111	C11	0.649500	0.703200	0.125300
H81	H8	0.690400	0.758900	0.131300
C121	C12	0.630000	0.654500	0.061900
C131	C13	0.839200	0.741000	0.036800
H91	H9	0.850500	0.683000	0.062600
C141	C14	0.906900	0.813100	0.035200
H101	H10	0.965700	0.804400	0.060700
C151	C15	0.412400	0.499000	0.289200
H111	H11	0.351200	0.499200	0.265900
C161	C16	0.415400	0.497700	0.359700
H121	H12	0.355100	0.495100	0.384200
N31	N3	0.077000	0.932100	0.573100
C171	C17	0.074100	0.949000	0.642500
C181	C18	0.155900	0.900400	0.675500
H131	H13	0.173000	0.903100	0.722800
C191	C19	0.203200	0.850500	0.625300
H141	H14	0.258900	0.809600	0.631300
C201	C20	0.154500	0.870000	0.561900
C211	C21	0.241000	0.660800	0.536800
H151	H15	0.183000	0.649500	0.562600
C221	C22	0.313100	0.593100	0.535200
H161	H16	0.304400	0.534300	0.560700
C231	C23	0.999000	0.087600	0.789200
H171	H17	0.999200	0.148800	0.765900
C241	C24	0.997700	0.084600	0.859700
H181	H18	0.995100	0.144900	0.884200
N41	N4	0.923000	0.067900	0.573100
C251	C25	0.925900	0.051000	0.642500
C261	C26	0.844100	0.099600	0.675500
H191	H19	0.827000	0.096900	0.722800
C271	C27	0.796800	0.149500	0.625300
H201	H20	0.741100	0.190400	0.631300
C281	C28	0.845500	0.130000	0.561900
C291	C29	0.759000	0.339200	0.536800
H211	H21	0.817000	0.350500	0.562600
C301	C30	0.686900	0.406900	0.535200
H221	H22	0.695600	0.465700	0.560700
C311	C31	0.001000	0.912400	0.789200
H231	H23	0.000800	0.851200	0.765900
C321	C32	0.002300	0.915400	0.859700
H241	H24	0.004900	0.855100	0.884200
N51	N5	0.067900	0.923000	0.426900
C331	C33	0.051000	0.925900	0.357500
C341	C34	0.099600	0.844100	0.324500
H251	H25	0.096900	0.827000	0.277200
C351	C35	0.149500	0.796800	0.374700
H261	H26	0.190400	0.741100	0.368700
C361	C36	0.130000	0.845500	0.438100
C371	C37	0.339200	0.759000	0.463200
H271	H27	0.350500	0.817000	0.437400
C381	C38	0.406900	0.686900	0.464800
H281	H28	0.465700	0.695600	0.439300
C391	C39	0.912400	0.001000	0.210800
H291	H29	0.851200	0.000800	0.234100
C401	C40	0.915400	0.002300	0.140300
H301	H30	0.855100	0.004900	0.115800
N61	N6	0.932100	0.077000	0.426900
C411	C41	0.949000	0.074100	0.357500
C421	C42	0.900400	0.155900	0.324500
H311	H31	0.903100	0.173000	0.277200
C431	C43	0.850500	0.203200	0.374700
H321	H32	0.809600	0.258900	0.368700
C441	C44	0.870000	0.154500	0.438100
C451	C45	0.660800	0.241000	0.463200
H331	H33	0.649500	0.183000	0.437400
C461	C46	0.593100	0.313100	0.464800
H341	H34	0.534300	0.304400	0.439300
C471	C47	0.087600	0.999000	0.210800
H351	H35	0.148800	0.999200	0.234100
C481	C48	0.084600	0.997700	0.140300
H361	H36	0.144900	0.995100	0.115800
N71	N7	0.423000	0.432100	0.926900
C491	C49	0.425900	0.449000	0.857500
C501	C50	0.344100	0.400400	0.824500
H371	H37	0.327000	0.403100	0.777200
C511	C51	0.296800	0.350500	0.874700
H381	H38	0.241100	0.309600	0.868700
C521	C52	0.345500	0.370000	0.938100
C531	C53	0.259000	0.160800	0.963200
H391	H39	0.317000	0.149500	0.937400
C541	C54	0.186900	0.093100	0.964800
H401	H40	0.195600	0.034300	0.939300
C551	C55	0.501000	0.587600	0.710800
H411	H41	0.500800	0.648800	0.734100
C561	C56	0.502300	0.584600	0.640300
H421	H42	0.504900	0.644900	0.615800
N81	N8	0.577000	0.567900	0.926900
C571	C57	0.574100	0.551000	0.857500
C581	C58	0.655900	0.599600	0.824500
H431	H43	0.673000	0.596900	0.777200
C591	C59	0.703200	0.649500	0.874700
H441	H44	0.758900	0.690400	0.868700
C601	C60	0.654500	0.630000	0.938100
C611	C61	0.741000	0.839200	0.963200
H451	H45	0.683000	0.850500	0.937400
C621	C62	0.813100	0.906900	0.964800
H461	H46	0.804400	0.965700	0.939300
C631	C63	0.499000	0.412400	0.710800
H471	H47	0.499200	0.351200	0.734100
C641	C64	0.497700	0.415400	0.640300
H481	H48	0.495100	0.355100	0.615800
Cu11	Cu1	0.500000	0.500000	0.000000
Cu21	Cu2	0.000000	0.000000	0.500000
Cu31	Cu3	0.000000	0.000000	0.000000
Cu41	Cu4	0.500000	0.500000	0.500000
N91	N9	0.104500	0.104500	0.000000
C651	C65	0.324600	0.324600	0.000000
C661	C66	0.247200	0.247200	0.000000
N101	N10	0.895500	0.895500	0.000000
C671	C67	0.675400	0.675400	0.000000
C681	C68	0.752800	0.752800	0.000000
N111	N11	0.395500	0.604500	0.500000
C691	C69	0.175400	0.824600	0.500000
C701	C70	0.252800	0.747200	0.500000
N121	N12	0.604500	0.395500	0.500000
C711	C71	0.824600	0.175400	0.500000
C721	C72	0.747200	0.252800	0.500000
N131	N13	0.500000	0.500000	0.396000
C731	C73	0.500000	0.500000	0.175500
C741	C74	0.500000	0.500000	0.252100
N141	N14	0.000000	0.000000	0.896000
C751	C75	0.000000	0.000000	0.675500
C761	C76	0.000000	0.000000	0.752100
N151	N15	0.000000	0.000000	0.104000
C771	C77	0.000000	0.000000	0.324500
C781	C78	0.000000	0.000000	0.247900
N161	N16	0.500000	0.500000	0.604000
C791	C79	0.500000	0.500000	0.824500
C801	C80	0.500000	0.500000	0.747900
