data_BAHGUN02_freeONLY_PM
_symmetry_space_group_name_H-M	'P1'
_cell_length_a	4.941000
_cell_length_b	10.960000
_cell_length_c	12.756000
_cell_angle_alpha	91.512700
_cell_angle_beta	101.167000
_cell_angle_gamma	82.166000
_symmetry_Int_Tables_number 1

loop_
_symmetry_equiv_pos_as_xyz
'x,y,z'

loop_
_atom_site_label
_atom_site_type_symbol
_atom_site_fract_x
_atom_site_fract_y
_atom_site_fract_z
Cu11	Cu1	0.610590	0.442960	0.226420
Cu21	Cu2	0.384170	0.942960	0.773580
H11	H1	0.747600	0.679900	0.335200
H21	H2	0.685400	0.786000	0.489600
H31	H3	0.189700	0.542800	0.544600
H41	H4	0.270500	0.440500	0.391400
H51	H5	0.066700	0.250400	0.195400
H61	H6	0.201500	0.117900	0.067800
H71	H7	0.486200	0.236800	0.870400
H81	H8	0.377200	0.375400	0.998800
H91	H9	0.412400	0.179900	0.664800
H101	H10	0.195800	0.286000	0.510400
H111	H11	0.645100	0.042800	0.455400
H121	H12	0.879100	0.940500	0.608600
H131	H13	0.871300	0.750400	0.804600
H141	H14	0.133700	0.617900	0.932200
H151	H15	0.615800	0.736800	0.129600
H161	H16	0.378400	0.875400	0.001200
C11	C1	0.375800	0.746500	0.633400
C21	C2	0.636300	0.651900	0.378000
C31	C3	0.598900	0.716300	0.470600
C41	C4	0.432200	0.675900	0.534400
C51	C5	0.304800	0.571400	0.503800
C61	C6	0.353400	0.511000	0.411200
C71	C7	0.939200	0.074400	0.867400
C81	C8	0.949700	0.248800	0.129000
C91	C9	0.031000	0.168000	0.052800
C101	C10	0.858900	0.161300	0.953600
C111	C11	0.609000	0.239400	0.935400
C121	C12	0.542000	0.321200	0.013600
C131	C13	0.742400	0.246500	0.366600
C141	C14	0.258300	0.151900	0.622000
C151	C15	0.128300	0.216300	0.529400
C161	C16	0.897800	0.175900	0.465600
C171	C17	0.801000	0.071400	0.496200
C181	C18	0.942200	0.011000	0.588800
C191	C19	0.071800	0.574400	0.132600
C201	C20	0.820700	0.748800	0.871000
C211	C21	0.978200	0.668000	0.947200
C221	C22	0.905300	0.661300	0.046400
C231	C23	0.673600	0.739400	0.064600
C241	C24	0.528400	0.821200	0.986400
N11	N1	0.515500	0.549700	0.348200
N21	N2	0.709000	0.325300	0.111600
N31	N3	0.167300	0.049700	0.651800
N41	N4	0.597400	0.825300	0.888400
O11	O1	0.507900	0.837500	0.658600
O21	O2	0.201270	0.714500	0.682940
O31	O3	0.199400	0.036900	0.879600
O41	O4	0.751730	0.048300	0.793260
O51	O5	0.849300	0.337500	0.341400
O61	O6	0.518330	0.214500	0.317060
O71	O7	0.319800	0.536900	0.120400
O81	O8	0.958470	0.548300	0.206740
