data_BAKFAV_freeONLY_PM
_symmetry_space_group_name_H-M	'P1'
_cell_length_a	7.512100
_cell_length_b	8.992700
_cell_length_c	15.153000
_cell_angle_alpha	90.256000
_cell_angle_beta	93.391000
_cell_angle_gamma	111.091000
_symmetry_Int_Tables_number 1

loop_
_symmetry_equiv_pos_as_xyz
'x,y,z'

loop_
_atom_site_label
_atom_site_type_symbol
_atom_site_fract_x
_atom_site_fract_y
_atom_site_fract_z
Zn11	Zn1	0.710130	0.552750	0.393580
Zn21	Zn2	0.057510	0.200900	0.251630
Zn31	Zn3	0.657450	0.581680	0.124430
P11	P1	0.681420	0.288960	0.242100
H11	H1	0.497400	0.201100	0.238100
P21	P2	0.949590	0.812710	0.266780
H21	H2	0.063600	0.749700	0.231400
P31	P3	0.730990	0.508730	0.606780
H31	H3	0.834600	0.433500	0.645900
P41	P4	0.215450	0.395770	0.076890
H41	H4	0.064500	0.438400	0.074300
O11	O1	0.727600	0.371800	0.331670
O21	O2	0.711900	0.397800	0.164590
O31	O3	0.787600	0.173800	0.233010
O41	O4	0.058300	0.989700	0.274430
O51	O5	0.913300	0.744200	0.358200
O61	O6	0.769300	0.766500	0.205200
O71	O7	0.781600	0.665000	0.656400
O81	O8	0.788200	0.532900	0.514500
O91	O9	0.523100	0.402100	0.613300
O101	O10	0.176300	0.259300	0.139880
O111	O11	0.227400	0.336500	0.984670
O121	O12	0.385900	0.542000	0.107100
Zn41	Zn4	0.289870	0.447250	0.606420
Zn51	Zn5	0.942490	0.799100	0.748370
Zn61	Zn6	0.342550	0.418320	0.875570
P51	P5	0.318580	0.711040	0.757900
H51	H5	0.502600	0.798900	0.761900
P61	P6	0.050410	0.187290	0.733220
H61	H6	0.936400	0.250300	0.768600
P71	P7	0.269010	0.491270	0.393220
H71	H7	0.165400	0.566500	0.354100
P81	P8	0.784550	0.604230	0.923110
H81	H8	0.935500	0.561600	0.925700
O131	O13	0.272400	0.628200	0.668330
O141	O14	0.288100	0.602200	0.835410
O151	O15	0.212400	0.826200	0.766990
O161	O16	0.941700	0.010300	0.725570
O171	O17	0.086700	0.255800	0.641800
O181	O18	0.230700	0.233500	0.794800
O191	O19	0.218400	0.335000	0.343600
O201	O20	0.211800	0.467100	0.485500
O211	O21	0.476900	0.597900	0.386700
O221	O22	0.823700	0.740700	0.860120
O231	O23	0.772600	0.663500	0.015330
O241	O24	0.614100	0.458000	0.892900
