data_BAKJII_freeONLY_PM
_symmetry_space_group_name_H-M	'P1'
_cell_length_a	11.850000
_cell_length_b	13.853000
_cell_length_c	13.944000
_cell_angle_alpha	90.000000
_cell_angle_beta	114.793000
_cell_angle_gamma	90.000000
_symmetry_Int_Tables_number 1

loop_
_symmetry_equiv_pos_as_xyz
'x,y,z'

loop_
_atom_site_label
_atom_site_type_symbol
_atom_site_fract_x
_atom_site_fract_y
_atom_site_fract_z
Co11	Co1	0.893500	0.441870	0.950040
Co21	Co2	0.106500	0.941870	0.549960
Co31	Co3	0.106500	0.558130	0.049960
Co41	Co4	0.893500	0.058130	0.450040
H11	H1	0.645800	0.526100	0.896300
H21	H2	0.441000	0.481800	0.851400
H31	H3	0.541600	0.202500	0.850600
H41	H4	0.743200	0.253600	0.898400
H51	H5	0.999200	0.252200	0.737200
H61	H6	0.329600	0.192400	0.726200
H71	H7	0.303900	0.411100	0.908400
H81	H8	0.354200	0.026100	0.603700
H91	H9	0.559000	0.981800	0.648600
H101	H10	0.458400	0.702500	0.649400
H111	H11	0.256800	0.753600	0.601600
H121	H12	0.000800	0.752200	0.762800
H131	H13	0.670400	0.692400	0.773800
H141	H14	0.696100	0.911100	0.591600
H151	H15	0.354200	0.473900	0.103700
H161	H16	0.559000	0.518200	0.148600
H171	H17	0.458400	0.797500	0.149400
H181	H18	0.256800	0.746400	0.101600
H191	H19	0.000800	0.747800	0.262800
H201	H20	0.670400	0.807600	0.273800
H211	H21	0.696100	0.588900	0.091600
H221	H22	0.645800	0.973900	0.396300
H231	H23	0.441000	0.018200	0.351400
H241	H24	0.541600	0.297500	0.350600
H251	H25	0.743200	0.246400	0.398400
H261	H26	0.999200	0.247800	0.237200
H271	H27	0.329600	0.307600	0.226200
H281	H28	0.303900	0.088900	0.408400
C11	C1	0.624200	0.459600	0.888000
C21	C2	0.501700	0.433500	0.860900
C31	C3	0.467500	0.336300	0.847600
C41	C4	0.560800	0.269300	0.860800
C51	C5	0.680800	0.300500	0.888800
C61	C6	0.085400	0.264900	0.759900
C71	C7	0.155100	0.209900	0.720400
C81	C8	0.281400	0.230700	0.751400
C91	C9	0.336100	0.308000	0.819700
C101	C10	0.266200	0.359800	0.860400
C111	C11	0.141000	0.337800	0.832000
C121	C12	0.094700	0.130600	0.642600
C131	C13	0.070800	0.393500	0.881900
C141	C14	0.375800	0.959600	0.612000
C151	C15	0.498300	0.933500	0.639100
C161	C16	0.532500	0.836300	0.652400
C171	C17	0.439200	0.769300	0.639200
C181	C18	0.319200	0.800500	0.611200
C191	C19	0.914600	0.764900	0.740100
C201	C20	0.844900	0.709900	0.779600
C211	C21	0.718600	0.730700	0.748600
C221	C22	0.663900	0.808000	0.680300
C231	C23	0.733800	0.859800	0.639600
C241	C24	0.859000	0.837800	0.668000
C251	C25	0.905300	0.630600	0.857400
C261	C26	0.929200	0.893500	0.618100
C271	C27	0.375800	0.540400	0.112000
C281	C28	0.498300	0.566500	0.139100
C291	C29	0.532500	0.663700	0.152400
C301	C30	0.439200	0.730700	0.139200
C311	C31	0.319200	0.699500	0.111200
C321	C32	0.914600	0.735100	0.240100
C331	C33	0.844900	0.790100	0.279600
C341	C34	0.718600	0.769300	0.248600
C351	C35	0.663900	0.692000	0.180300
C361	C36	0.733800	0.640200	0.139600
C371	C37	0.859000	0.662200	0.168000
C381	C38	0.905300	0.869400	0.357400
C391	C39	0.929200	0.606500	0.118100
C401	C40	0.624200	0.040400	0.388000
C411	C41	0.501700	0.066500	0.360900
C421	C42	0.467500	0.163700	0.347600
C431	C43	0.560800	0.230700	0.360800
C441	C44	0.680800	0.199500	0.388800
C451	C45	0.085400	0.235100	0.259900
C461	C46	0.155100	0.290100	0.220400
C471	C47	0.281400	0.269300	0.251400
C481	C48	0.336100	0.192000	0.319700
C491	C49	0.266200	0.140200	0.360400
C501	C50	0.141000	0.162200	0.332000
C511	C51	0.094700	0.369400	0.142600
C521	C52	0.070800	0.106500	0.381900
N11	N1	0.713800	0.393800	0.903000
N21	N2	0.286200	0.893800	0.597000
N31	N3	0.286200	0.606200	0.097000
N41	N4	0.713800	0.106200	0.403000
O11	O1	0.960700	0.366700	0.861400
O21	O2	0.126400	0.461500	0.942700
O31	O3	0.984100	0.145400	0.575300
O41	O4	0.158300	0.056300	0.649600
O51	O5	0.039300	0.866700	0.638600
O61	O6	0.873600	0.961500	0.557300
O71	O7	0.015900	0.645400	0.924700
O81	O8	0.841700	0.556300	0.850400
O91	O9	0.039300	0.633300	0.138600
O101	O10	0.873600	0.538500	0.057300
O111	O11	0.015900	0.854600	0.424700
O121	O12	0.841700	0.943700	0.350400
O131	O13	0.960700	0.133300	0.361400
O141	O14	0.126400	0.038500	0.442700
O151	O15	0.984100	0.354600	0.075300
O161	O16	0.158300	0.443700	0.149600
