data_BAKYOE_freeONLY_PM
_symmetry_space_group_name_H-M	'P1'
_cell_length_a	12.474000
_cell_length_b	15.248000
_cell_length_c	16.899000
_cell_angle_alpha	90.000000
_cell_angle_beta	90.000000
_cell_angle_gamma	90.000000
_symmetry_Int_Tables_number 1

loop_
_symmetry_equiv_pos_as_xyz
'x,y,z'

loop_
_atom_site_label
_atom_site_type_symbol
_atom_site_fract_x
_atom_site_fract_y
_atom_site_fract_z
O11	O1	0.632100	0.950900	0.177100
C11	C1	0.548600	0.909200	0.158100
O21	O2	0.496100	0.913600	0.095200
O31	O3	0.338300	0.486500	0.503600
O41	O4	0.484200	0.603900	0.425800
C21	C2	0.417000	0.640500	0.384600
O51	O5	0.319400	0.621600	0.384700
C31	C3	0.452100	0.712100	0.328700
C41	C4	0.555500	0.750600	0.332600
N11	N1	0.620300	0.732200	0.397200
H11	H1	0.678500	0.761300	0.404400
H21	H2	0.602200	0.691700	0.430000
C51	C5	0.583000	0.816300	0.278300
H31	H3	0.649000	0.844300	0.282700
C61	C6	0.513000	0.840500	0.217500
C71	C7	0.416100	0.796200	0.208900
C81	C8	0.384600	0.733400	0.265000
H41	H4	0.318500	0.705600	0.259900
N21	N2	0.355100	0.805700	0.141100
H51	H5	0.376900	0.839300	0.103500
H61	H6	0.295300	0.778000	0.136500
O61	O6	0.132100	0.549100	0.322900
C91	C9	0.048600	0.590800	0.341900
O71	O7	0.996100	0.586400	0.404800
O81	O8	0.838300	0.013500	0.996400
O91	O9	0.984200	0.896100	0.074200
C101	C10	0.917000	0.859500	0.115400
O101	O10	0.819400	0.878400	0.115300
C111	C11	0.952100	0.787900	0.171300
C121	C12	0.055500	0.749400	0.167400
N31	N3	0.120300	0.767800	0.102800
H71	H7	0.178500	0.738700	0.095600
H81	H8	0.102200	0.808300	0.070000
C131	C13	0.083000	0.683700	0.221700
H91	H9	0.149000	0.655700	0.217300
C141	C14	0.013000	0.659500	0.282500
C151	C15	0.916100	0.703800	0.291100
C161	C16	0.884600	0.766600	0.235000
H101	H10	0.818500	0.794400	0.240100
N41	N4	0.855100	0.694300	0.358900
H111	H11	0.876900	0.660700	0.396500
H121	H12	0.795300	0.722000	0.363500
O111	O11	0.867900	0.049100	0.177100
C171	C17	0.951400	0.090800	0.158100
O121	O12	0.003900	0.086400	0.095200
O131	O13	0.161700	0.513500	0.503600
O141	O14	0.015800	0.396100	0.425800
C181	C18	0.083000	0.359500	0.384600
O151	O15	0.180600	0.378400	0.384700
C191	C19	0.047900	0.287900	0.328700
C201	C20	0.944500	0.249400	0.332600
N51	N5	0.879700	0.267800	0.397200
H131	H13	0.821500	0.238700	0.404400
H141	H14	0.897800	0.308300	0.430000
C211	C21	0.917000	0.183700	0.278300
H151	H15	0.851000	0.155700	0.282700
C221	C22	0.987000	0.159500	0.217500
C231	C23	0.083900	0.203800	0.208900
C241	C24	0.115400	0.266600	0.265000
H161	H16	0.181500	0.294400	0.259900
N61	N6	0.144900	0.194300	0.141100
H171	H17	0.123100	0.160700	0.103500
H181	H18	0.204700	0.222000	0.136500
O161	O16	0.367900	0.450900	0.322900
C251	C25	0.451400	0.409200	0.341900
O171	O17	0.503900	0.413600	0.404800
O181	O18	0.661700	0.986500	0.996400
O191	O19	0.515800	0.103900	0.074200
C261	C26	0.583000	0.140500	0.115400
O201	O20	0.680600	0.121600	0.115300
C271	C27	0.547900	0.212100	0.171300
C281	C28	0.444500	0.250600	0.167400
N71	N7	0.379700	0.232200	0.102800
H191	H19	0.321500	0.261300	0.095600
H201	H20	0.397800	0.191700	0.070000
C291	C29	0.417000	0.316300	0.221700
H211	H21	0.351000	0.344300	0.217300
C301	C30	0.487000	0.340500	0.282500
C311	C31	0.583900	0.296200	0.291100
C321	C32	0.615400	0.233400	0.235000
H221	H22	0.681500	0.205600	0.240100
N81	N8	0.644900	0.305700	0.358900
H231	H23	0.623100	0.339300	0.396500
H241	H24	0.704700	0.278000	0.363500
O211	O21	0.367900	0.049100	0.822900
C331	C33	0.451400	0.090800	0.841900
O221	O22	0.503900	0.086400	0.904800
O231	O23	0.661700	0.513500	0.496400
O241	O24	0.515800	0.396100	0.574200
C341	C34	0.583000	0.359500	0.615400
O251	O25	0.680600	0.378400	0.615300
C351	C35	0.547900	0.287900	0.671300
C361	C36	0.444500	0.249400	0.667400
N91	N9	0.379700	0.267800	0.602800
H251	H25	0.321500	0.238700	0.595600
H261	H26	0.397800	0.308300	0.570000
C371	C37	0.417000	0.183700	0.721700
H271	H27	0.351000	0.155700	0.717300
C381	C38	0.487000	0.159500	0.782500
C391	C39	0.583900	0.203800	0.791100
C401	C40	0.615400	0.266600	0.735000
H281	H28	0.681500	0.294400	0.740100
N101	N10	0.644900	0.194300	0.858900
H291	H29	0.623100	0.160700	0.896500
H301	H30	0.704700	0.222000	0.863500
O261	O26	0.867900	0.450900	0.677100
C411	C41	0.951400	0.409200	0.658100
O271	O27	0.003900	0.413600	0.595200
O281	O28	0.161700	0.986500	0.003600
O291	O29	0.015800	0.103900	0.925800
C421	C42	0.083000	0.140500	0.884600
O301	O30	0.180600	0.121600	0.884700
C431	C43	0.047900	0.212100	0.828700
C441	C44	0.944500	0.250600	0.832600
N111	N11	0.879700	0.232200	0.897200
H311	H31	0.821500	0.261300	0.904400
H321	H32	0.897800	0.191700	0.930000
C451	C45	0.917000	0.316300	0.778300
H331	H33	0.851000	0.344300	0.782700
C461	C46	0.987000	0.340500	0.717500
C471	C47	0.083900	0.296200	0.708900
C481	C48	0.115400	0.233400	0.765000
H341	H34	0.181500	0.205600	0.759900
N121	N12	0.144900	0.305700	0.641100
H351	H35	0.123100	0.339300	0.603500
H361	H36	0.204700	0.278000	0.636500
O311	O31	0.132100	0.950900	0.822900
C491	C49	0.048600	0.909200	0.841900
O321	O32	0.996100	0.913600	0.904800
O331	O33	0.838300	0.486500	0.496400
O341	O34	0.984200	0.603900	0.574200
C501	C50	0.917000	0.640500	0.615400
O351	O35	0.819400	0.621600	0.615300
C511	C51	0.952100	0.712100	0.671300
C521	C52	0.055500	0.750600	0.667400
N131	N13	0.120300	0.732200	0.602800
H371	H37	0.178500	0.761300	0.595600
H381	H38	0.102200	0.691700	0.570000
C531	C53	0.083000	0.816300	0.721700
H391	H39	0.149000	0.844300	0.717300
C541	C54	0.013000	0.840500	0.782500
C551	C55	0.916100	0.796200	0.791100
C561	C56	0.884600	0.733400	0.735000
H401	H40	0.818500	0.705600	0.740100
N141	N14	0.855100	0.805700	0.858900
H411	H41	0.876900	0.839300	0.896500
H421	H42	0.795300	0.778000	0.863500
O361	O36	0.632100	0.549100	0.677100
C571	C57	0.548600	0.590800	0.658100
O371	O37	0.496100	0.586400	0.595200
O381	O38	0.338300	0.013500	0.003600
O391	O39	0.484200	0.896100	0.925800
C581	C58	0.417000	0.859500	0.884600
O401	O40	0.319400	0.878400	0.884700
C591	C59	0.452100	0.787900	0.828700
C601	C60	0.555500	0.749400	0.832600
N151	N15	0.620300	0.767800	0.897200
H431	H43	0.678500	0.738700	0.904400
H441	H44	0.602200	0.808300	0.930000
C611	C61	0.583000	0.683700	0.778300
H451	H45	0.649000	0.655700	0.782700
C621	C62	0.513000	0.659500	0.717500
C631	C63	0.416100	0.703800	0.708900
C641	C64	0.384600	0.766600	0.765000
H461	H46	0.318500	0.794400	0.759900
N161	N16	0.355100	0.694300	0.641100
H471	H47	0.376900	0.660700	0.603500
H481	H48	0.295300	0.722000	0.636500
Mg11	Mg1	0.250000	0.500000	0.391480
N171	N17	0.250000	0.500000	0.542000
O411	O41	0.250000	0.500000	0.621600
Mg21	Mg2	0.750000	0.000000	0.108520
N181	N18	0.750000	0.000000	0.958000
O421	O42	0.750000	0.000000	0.878400
Mg31	Mg3	0.750000	0.500000	0.608520
N191	N19	0.750000	0.500000	0.458000
O431	O43	0.750000	0.500000	0.378400
Mg41	Mg4	0.250000	0.000000	0.891480
N201	N20	0.250000	0.000000	0.042000
O441	O44	0.250000	0.000000	0.121600
Mg51	Mg5	0.500000	0.500000	0.500000
Mg61	Mg6	0.000000	0.000000	0.000000
Mg71	Mg7	0.000000	0.500000	0.500000
Mg81	Mg8	0.500000	0.000000	0.000000
