data_BAMKOS_freeONLY_PM
_symmetry_space_group_name_H-M	'P1'
_cell_length_a	9.669100
_cell_length_b	17.459800
_cell_length_c	20.448700
_cell_angle_alpha	90.000000
_cell_angle_beta	94.891000
_cell_angle_gamma	90.000000
_symmetry_Int_Tables_number 1

loop_
_symmetry_equiv_pos_as_xyz
'x,y,z'

loop_
_atom_site_label
_atom_site_type_symbol
_atom_site_fract_x
_atom_site_fract_y
_atom_site_fract_z
Cu11	Cu1	0.300000	0.507520	0.524430
Cu21	Cu2	0.999850	0.477580	0.427030
O11	O1	0.313500	0.903000	0.081530
O21	O2	0.108700	0.901600	0.125550
O31	O3	0.048100	0.556200	0.329300
O41	O4	0.877100	0.564400	0.392580
O51	O5	0.121300	0.539400	0.484740
H11	H1	0.124000	0.582000	0.465000
N11	N1	0.277900	0.411000	0.469160
N21	N2	0.150600	0.397100	0.436450
N31	N3	0.284500	0.300300	0.420100
N41	N4	0.458900	0.036400	0.080320
N51	N5	0.580300	0.064300	0.058200
N61	N6	0.583000	0.082700	0.164000
C11	C1	0.356500	0.352300	0.458200
H21	H2	0.448800	0.347100	0.474400
C21	C2	0.157000	0.330800	0.408600
H31	H3	0.083500	0.307400	0.384100
C31	C3	0.333200	0.227100	0.395200
H41	H4	0.257300	0.190600	0.393200
H51	H5	0.406500	0.207400	0.426000
C41	C4	0.386800	0.232900	0.328400
C51	C5	0.355400	0.292600	0.285500
H61	H6	0.298100	0.332100	0.297300
C61	C6	0.409300	0.293800	0.224700
H71	H7	0.386900	0.333800	0.195700
C71	C7	0.496100	0.235800	0.207100
H81	H8	0.534000	0.237600	0.166800
C81	C8	0.526700	0.174900	0.249300
C91	C9	0.472100	0.173800	0.309200
H91	H9	0.492400	0.132800	0.337500
C101	C10	0.622900	0.111200	0.231000
H101	H10	0.717500	0.130100	0.233500
H111	H11	0.619300	0.069400	0.262100
C111	C11	0.462600	0.047700	0.143300
H121	H12	0.393300	0.033800	0.169800
C121	C12	0.651700	0.092400	0.109900
H131	H13	0.738000	0.115800	0.109400
C131	C13	0.227300	0.875300	0.117600
C141	C14	0.275300	0.803100	0.153200
H141	H14	0.354600	0.815700	0.183600
H151	H15	0.306900	0.767400	0.121300
C151	C15	0.168300	0.763000	0.191000
C161	C16	0.140800	0.787700	0.251200
H161	H16	0.188000	0.829800	0.269900
C171	C17	0.041300	0.750000	0.285700
H171	H17	0.023900	0.768000	0.327000
C181	C18	0.970600	0.689200	0.261200
C191	C19	0.999300	0.664400	0.200500
H181	H18	0.952100	0.622100	0.182200
C201	C20	0.097300	0.700700	0.165300
H191	H19	0.114700	0.682500	0.124000
C211	C21	0.868800	0.644800	0.299100
H201	H20	0.819100	0.680400	0.325000
H211	H21	0.801400	0.620000	0.268100
C221	C22	0.937200	0.585400	0.343600
Cu31	Cu3	0.700000	0.007520	0.975570
Cu41	Cu4	0.000150	0.977580	0.072970
O61	O6	0.686500	0.403000	0.418470
O71	O7	0.891300	0.401600	0.374450
O81	O8	0.951900	0.056200	0.170700
O91	O9	0.122900	0.064400	0.107420
O101	O10	0.878700	0.039400	0.015260
H221	H22	0.876000	0.082000	0.035000
N71	N7	0.722100	0.911000	0.030840
N81	N8	0.849400	0.897100	0.063550
N91	N9	0.715500	0.800300	0.079900
N101	N10	0.541100	0.536400	0.419680
N111	N11	0.419700	0.564300	0.441800
N121	N12	0.417000	0.582700	0.336000
C231	C23	0.643500	0.852300	0.041800
H231	H23	0.551200	0.847100	0.025600
C241	C24	0.843000	0.830800	0.091400
H241	H24	0.916500	0.807400	0.115900
C251	C25	0.666800	0.727100	0.104800
H251	H25	0.742700	0.690600	0.106800
H261	H26	0.593500	0.707400	0.074000
C261	C26	0.613200	0.732900	0.171600
C271	C27	0.644600	0.792600	0.214500
H271	H27	0.701900	0.832100	0.202700
C281	C28	0.590700	0.793800	0.275300
H281	H28	0.613100	0.833800	0.304300
C291	C29	0.503900	0.735800	0.292900
H291	H29	0.466000	0.737600	0.333200
C301	C30	0.473300	0.674900	0.250700
C311	C31	0.527900	0.673800	0.190800
H301	H30	0.507600	0.632800	0.162500
C321	C32	0.377100	0.611200	0.269000
H311	H31	0.282500	0.630100	0.266500
H321	H32	0.380700	0.569400	0.237900
C331	C33	0.537400	0.547700	0.356700
H331	H33	0.606700	0.533800	0.330200
C341	C34	0.348300	0.592400	0.390100
H341	H34	0.262000	0.615800	0.390600
C351	C35	0.772700	0.375300	0.382400
C361	C36	0.724700	0.303100	0.346800
H351	H35	0.645400	0.315700	0.316400
H361	H36	0.693100	0.267400	0.378700
C371	C37	0.831700	0.263000	0.309000
C381	C38	0.859200	0.287700	0.248800
H371	H37	0.812000	0.329800	0.230100
C391	C39	0.958700	0.250000	0.214300
H381	H38	0.976100	0.268000	0.173000
C401	C40	0.029400	0.189200	0.238800
C411	C41	0.000700	0.164400	0.299500
H391	H39	0.047900	0.122100	0.317800
C421	C42	0.902700	0.200700	0.334700
H401	H40	0.885300	0.182500	0.376000
C431	C43	0.131200	0.144800	0.200900
H411	H41	0.180900	0.180400	0.175000
H421	H42	0.198600	0.120000	0.231900
C441	C44	0.062800	0.085400	0.156400
Cu51	Cu5	0.700000	0.492480	0.475570
Cu61	Cu6	0.000150	0.522420	0.572970
O111	O11	0.686500	0.097000	0.918470
O121	O12	0.891300	0.098400	0.874450
O131	O13	0.951900	0.443800	0.670700
O141	O14	0.122900	0.435600	0.607420
O151	O15	0.878700	0.460600	0.515260
H431	H43	0.876000	0.418000	0.535000
N131	N13	0.722100	0.589000	0.530840
N141	N14	0.849400	0.602900	0.563550
N151	N15	0.715500	0.699700	0.579900
N161	N16	0.541100	0.963600	0.919680
N171	N17	0.419700	0.935700	0.941800
N181	N18	0.417000	0.917300	0.836000
C451	C45	0.643500	0.647700	0.541800
H441	H44	0.551200	0.652900	0.525600
C461	C46	0.843000	0.669200	0.591400
H451	H45	0.916500	0.692600	0.615900
C471	C47	0.666800	0.772900	0.604800
H461	H46	0.742700	0.809400	0.606800
H471	H47	0.593500	0.792600	0.574000
C481	C48	0.613200	0.767100	0.671600
C491	C49	0.644600	0.707400	0.714500
H481	H48	0.701900	0.667900	0.702700
C501	C50	0.590700	0.706200	0.775300
H491	H49	0.613100	0.666200	0.804300
C511	C51	0.503900	0.764200	0.792900
H501	H50	0.466000	0.762400	0.833200
C521	C52	0.473300	0.825100	0.750700
C531	C53	0.527900	0.826200	0.690800
H511	H51	0.507600	0.867200	0.662500
C541	C54	0.377100	0.888800	0.769000
H521	H52	0.282500	0.869900	0.766500
H531	H53	0.380700	0.930600	0.737900
C551	C55	0.537400	0.952300	0.856700
H541	H54	0.606700	0.966200	0.830200
C561	C56	0.348300	0.907600	0.890100
H551	H55	0.262000	0.884200	0.890600
C571	C57	0.772700	0.124700	0.882400
C581	C58	0.724700	0.196900	0.846800
H561	H56	0.645400	0.184300	0.816400
H571	H57	0.693100	0.232600	0.878700
C591	C59	0.831700	0.237000	0.809000
C601	C60	0.859200	0.212300	0.748800
H581	H58	0.812000	0.170200	0.730100
C611	C61	0.958700	0.250000	0.714300
H591	H59	0.976100	0.232000	0.673000
C621	C62	0.029400	0.310800	0.738800
C631	C63	0.000700	0.335600	0.799500
H601	H60	0.047900	0.377900	0.817800
C641	C64	0.902700	0.299300	0.834700
H611	H61	0.885300	0.317500	0.876000
C651	C65	0.131200	0.355200	0.700900
H621	H62	0.180900	0.319600	0.675000
H631	H63	0.198600	0.380000	0.731900
C661	C66	0.062800	0.414600	0.656400
Cu71	Cu7	0.300000	0.992480	0.024430
Cu81	Cu8	0.999850	0.022420	0.927030
O161	O16	0.313500	0.597000	0.581530
O171	O17	0.108700	0.598400	0.625550
O181	O18	0.048100	0.943800	0.829300
O191	O19	0.877100	0.935600	0.892580
O201	O20	0.121300	0.960600	0.984740
H641	H64	0.124000	0.918000	0.965000
N191	N19	0.277900	0.089000	0.969160
N201	N20	0.150600	0.102900	0.936450
N211	N21	0.284500	0.199700	0.920100
N221	N22	0.458900	0.463600	0.580320
N231	N23	0.580300	0.435700	0.558200
N241	N24	0.583000	0.417300	0.664000
C671	C67	0.356500	0.147700	0.958200
H651	H65	0.448800	0.152900	0.974400
C681	C68	0.157000	0.169200	0.908600
H661	H66	0.083500	0.192600	0.884100
C691	C69	0.333200	0.272900	0.895200
H671	H67	0.257300	0.309400	0.893200
H681	H68	0.406500	0.292600	0.926000
C701	C70	0.386800	0.267100	0.828400
C711	C71	0.355400	0.207400	0.785500
H691	H69	0.298100	0.167900	0.797300
C721	C72	0.409300	0.206200	0.724700
H701	H70	0.386900	0.166200	0.695700
C731	C73	0.496100	0.264200	0.707100
H711	H71	0.534000	0.262400	0.666800
C741	C74	0.526700	0.325100	0.749300
C751	C75	0.472100	0.326200	0.809200
H721	H72	0.492400	0.367200	0.837500
C761	C76	0.622900	0.388800	0.731000
H731	H73	0.717500	0.369900	0.733500
H741	H74	0.619300	0.430600	0.762100
C771	C77	0.462600	0.452300	0.643300
H751	H75	0.393300	0.466200	0.669800
C781	C78	0.651700	0.407600	0.609900
H761	H76	0.738000	0.384200	0.609400
C791	C79	0.227300	0.624700	0.617600
C801	C80	0.275300	0.696900	0.653200
H771	H77	0.354600	0.684300	0.683600
H781	H78	0.306900	0.732600	0.621300
C811	C81	0.168300	0.737000	0.691000
C821	C82	0.140800	0.712300	0.751200
H791	H79	0.188000	0.670200	0.769900
C831	C83	0.041300	0.750000	0.785700
H801	H80	0.023900	0.732000	0.827000
C841	C84	0.970600	0.810800	0.761200
C851	C85	0.999300	0.835600	0.700500
H811	H81	0.952100	0.877900	0.682200
C861	C86	0.097300	0.799300	0.665300
H821	H82	0.114700	0.817500	0.624000
C871	C87	0.868800	0.855200	0.799100
H831	H83	0.819100	0.819600	0.825000
H841	H84	0.801400	0.880000	0.768100
C881	C88	0.937200	0.914600	0.843600
