data_BARZOK_freeONLY_PM
_symmetry_space_group_name_H-M	'P1'
_cell_length_a	18.380000
_cell_length_b	18.555700
_cell_length_c	18.555700
_cell_angle_alpha	70.337800
_cell_angle_beta	70.720400
_cell_angle_gamma	109.280000
_symmetry_Int_Tables_number 1

loop_
_symmetry_equiv_pos_as_xyz
'x,y,z'

loop_
_atom_site_label
_atom_site_type_symbol
_atom_site_fract_x
_atom_site_fract_y
_atom_site_fract_z
Cu11	Cu1	0.512090	0.571610	0.935290
Cu21	Cu2	0.447380	0.935290	0.493100
Cu31	Cu3	0.940480	0.493100	0.571610
Cu41	Cu4	0.052620	0.493100	0.935290
Cu51	Cu5	0.559520	0.571610	0.493100
Cu61	Cu6	0.987910	0.935290	0.571610
Cu71	Cu7	0.487910	0.428390	0.064710
Cu81	Cu8	0.552620	0.064710	0.506900
Cu91	Cu9	0.059520	0.506900	0.428390
Cu101	Cu10	0.947380	0.506900	0.064710
Cu111	Cu11	0.440480	0.428390	0.506900
Cu121	Cu12	0.012090	0.064710	0.428390
H11	H1	0.386700	0.598300	0.879300
H21	H2	0.659900	0.756100	0.830700
H31	H3	0.346000	0.698400	0.818000
H41	H4	0.759200	0.905200	0.761100
H51	H5	0.588700	0.968400	0.707600
H61	H6	0.441500	0.847500	0.754400
H71	H7	0.723500	0.010400	0.698600
H81	H8	0.219300	0.351600	0.270700
H91	H9	0.376200	0.238700	0.986500
H101	H10	0.266000	0.879300	0.522400
H111	H11	0.490600	0.830700	0.413200
H121	H12	0.164000	0.818000	0.483600
H131	H13	0.520300	0.761100	0.333700
H141	H14	0.296300	0.707600	0.324000
H151	H15	0.195900	0.754400	0.398100
H161	H16	0.422100	0.698600	0.291000
H171	H17	0.490000	0.270700	0.377700
H181	H18	0.362700	0.986500	0.774800
H191	H19	0.788400	0.522400	0.598300
H201	H20	0.903800	0.413200	0.756100
H211	H21	0.647600	0.483600	0.698400
H221	H22	0.854000	0.333700	0.905200
H231	H23	0.620300	0.324000	0.968400
H241	H24	0.594000	0.398100	0.847500
H251	H25	0.713100	0.291000	0.010400
H261	H26	0.867700	0.377700	0.351600
H271	H27	0.137500	0.774800	0.238700
H281	H28	0.234000	0.522400	0.879300
H291	H29	0.009400	0.413200	0.830700
H301	H30	0.336000	0.483600	0.818000
H311	H31	0.979700	0.333700	0.761100
H321	H32	0.203700	0.324000	0.707600
H331	H33	0.304100	0.398100	0.754400
H341	H34	0.077900	0.291000	0.698600
H351	H35	0.010000	0.377700	0.270700
H361	H36	0.137300	0.774800	0.986500
H371	H37	0.711600	0.598300	0.522400
H381	H38	0.596200	0.756100	0.413200
H391	H39	0.852400	0.698400	0.483600
H401	H40	0.646000	0.905200	0.333700
H411	H41	0.879700	0.968400	0.324000
H421	H42	0.906000	0.847500	0.398100
H431	H43	0.786900	0.010400	0.291000
H441	H44	0.632300	0.351600	0.377700
H451	H45	0.362500	0.238700	0.774800
H461	H46	0.113300	0.879300	0.598300
H471	H47	0.840100	0.830700	0.756100
H481	H48	0.154000	0.818000	0.698400
H491	H49	0.740800	0.761100	0.905200
H501	H50	0.911300	0.707600	0.968400
H511	H51	0.058500	0.754400	0.847500
H521	H52	0.776500	0.698600	0.010400
H531	H53	0.280700	0.270700	0.351600
H541	H54	0.123800	0.986500	0.238700
H551	H55	0.613300	0.401700	0.120700
H561	H56	0.340100	0.243900	0.169300
H571	H57	0.654000	0.301600	0.182000
H581	H58	0.240800	0.094800	0.238900
H591	H59	0.411300	0.031600	0.292400
H601	H60	0.558500	0.152500	0.245600
H611	H61	0.276500	0.989600	0.301400
H621	H62	0.780700	0.648400	0.729300
H631	H63	0.623800	0.761300	0.013500
H641	H64	0.734000	0.120700	0.477600
H651	H65	0.509400	0.169300	0.586800
H661	H66	0.836000	0.182000	0.516400
H671	H67	0.479700	0.238900	0.666300
H681	H68	0.703700	0.292400	0.676000
H691	H69	0.804100	0.245600	0.601900
H701	H70	0.577900	0.301400	0.709000
H711	H71	0.510000	0.729300	0.622300
H721	H72	0.637300	0.013500	0.225200
H731	H73	0.211600	0.477600	0.401700
H741	H74	0.096200	0.586800	0.243900
H751	H75	0.352400	0.516400	0.301600
H761	H76	0.146000	0.666300	0.094800
H771	H77	0.379700	0.676000	0.031600
H781	H78	0.406000	0.601900	0.152500
H791	H79	0.286900	0.709000	0.989600
H801	H80	0.132300	0.622300	0.648400
H811	H81	0.862500	0.225200	0.761300
H821	H82	0.766000	0.477600	0.120700
H831	H83	0.990600	0.586800	0.169300
H841	H84	0.664000	0.516400	0.182000
H851	H85	0.020300	0.666300	0.238900
H861	H86	0.796300	0.676000	0.292400
H871	H87	0.695900	0.601900	0.245600
H881	H88	0.922100	0.709000	0.301400
H891	H89	0.990000	0.622300	0.729300
H901	H90	0.862700	0.225200	0.013500
H911	H91	0.288400	0.401700	0.477600
H921	H92	0.403800	0.243900	0.586800
H931	H93	0.147600	0.301600	0.516400
H941	H94	0.354000	0.094800	0.666300
H951	H95	0.120300	0.031600	0.676000
H961	H96	0.094000	0.152500	0.601900
H971	H97	0.213100	0.989600	0.709000
H981	H98	0.367700	0.648400	0.622300
H991	H99	0.637500	0.761300	0.225200
H1001	H100	0.886700	0.120700	0.401700
H1011	H101	0.159900	0.169300	0.243900
H1021	H102	0.846000	0.182000	0.301600
H1031	H103	0.259200	0.238900	0.094800
H1041	H104	0.088700	0.292400	0.031600
H1051	H105	0.941500	0.245600	0.152500
H1061	H106	0.223500	0.301400	0.989600
H1071	H107	0.719300	0.729300	0.648400
H1081	H108	0.876200	0.013500	0.761300
H1091	H109	0.228800	0.478800	0.042400
H1101	H110	0.077100	0.327100	0.345800
H1111	H111	0.271200	0.042400	0.478800
H1121	H112	0.422900	0.345800	0.327100
H1131	H113	0.750000	0.478800	0.478800
H1141	H114	0.750000	0.327100	0.327100
H1151	H115	0.771200	0.521200	0.957600
H1161	H116	0.922900	0.672900	0.654200
H1171	H117	0.728800	0.957600	0.521200
H1181	H118	0.577100	0.654200	0.672900
H1191	H119	0.250000	0.521200	0.521200
H1201	H120	0.250000	0.672900	0.672900
H1211	H121	0.484050	0.468100	0.765950
H1221	H122	0.330550	0.161100	0.919450
H1231	H123	0.250000	0.765950	0.765950
H1241	H124	0.250000	0.919450	0.919450
H1251	H125	0.015950	0.765950	0.468100
H1261	H126	0.169450	0.919450	0.161100
H1271	H127	0.515950	0.531900	0.234050
H1281	H128	0.669450	0.838900	0.080550
H1291	H129	0.750000	0.234050	0.234050
H1301	H130	0.750000	0.080550	0.080550
H1311	H131	0.984050	0.234050	0.531900
H1321	H132	0.830550	0.080550	0.838900
C11	C1	0.561600	0.770500	0.811500
C21	C2	0.427200	0.659300	0.852400
C31	C3	0.644100	0.798200	0.805900
C41	C4	0.539100	0.834300	0.773900
C51	C5	0.401700	0.718700	0.816100
C61	C6	0.702800	0.886500	0.764600
C71	C7	0.602700	0.924600	0.732500
C81	C8	0.458200	0.805900	0.778200
C91	C9	0.681600	0.949600	0.727500
C101	C10	0.335100	0.445700	0.097800
C111	C11	0.239200	0.421000	0.148100
C121	C12	0.192900	0.373600	0.239000
C131	C13	0.454900	0.413500	0.927300
C141	C14	0.430300	0.361800	0.884000
C151	C15	0.387700	0.270100	0.927900
C161	C16	0.373100	0.811500	0.418000
C171	C17	0.279600	0.852400	0.488300
C181	C18	0.450000	0.805900	0.395900
C191	C19	0.313000	0.773900	0.391800
C201	C20	0.217800	0.816100	0.465200
C211	C21	0.467400	0.764600	0.348900
C221	C22	0.335200	0.732500	0.342900
C231	C23	0.236400	0.778200	0.415900
C241	C24	0.409100	0.727500	0.322900
C251	C25	0.432900	0.097800	0.456500
C261	C26	0.387300	0.148100	0.430900
C271	C27	0.431900	0.239000	0.387400
C281	C28	0.382200	0.927300	0.659200
C291	C29	0.314300	0.884000	0.754200
C301	C30	0.315600	0.927900	0.802000
C311	C31	0.791100	0.418000	0.770500
C321	C32	0.767900	0.488300	0.659300
C331	C33	0.845900	0.395900	0.798200
C341	C34	0.704800	0.391800	0.834300
C351	C35	0.683000	0.465200	0.718700
C361	C36	0.816300	0.348900	0.886500
C371	C37	0.678100	0.342900	0.924600
C381	C38	0.652300	0.415900	0.805900
C391	C39	0.732000	0.322900	0.949600
C401	C40	0.889400	0.456500	0.445700
C411	C41	0.818200	0.430900	0.421000
C421	C42	0.819300	0.387400	0.373600
C431	C43	0.041400	0.659200	0.413500
C441	C44	0.068500	0.754200	0.361800
C451	C45	0.117600	0.802000	0.270100
C461	C46	0.126900	0.418000	0.811500
C471	C47	0.220400	0.488300	0.852400
C481	C48	0.050000	0.395900	0.805900
C491	C49	0.187000	0.391800	0.773900
C501	C50	0.282200	0.465200	0.816100
C511	C51	0.032600	0.348900	0.764600
C521	C52	0.164800	0.342900	0.732500
C531	C53	0.263600	0.415900	0.778200
C541	C54	0.090900	0.322900	0.727500
C551	C55	0.067100	0.456500	0.097800
C561	C56	0.112700	0.430900	0.148100
C571	C57	0.068100	0.387400	0.239000
C581	C58	0.117800	0.659200	0.927300
C591	C59	0.185700	0.754200	0.884000
C601	C60	0.184400	0.802000	0.927900
C611	C61	0.708900	0.770500	0.418000
C621	C62	0.732100	0.659300	0.488300
C631	C63	0.654100	0.798200	0.395900
C641	C64	0.795200	0.834300	0.391800
C651	C65	0.817000	0.718700	0.465200
C661	C66	0.683700	0.886500	0.348900
C671	C67	0.821900	0.924600	0.342900
C681	C68	0.847700	0.805900	0.415900
C691	C69	0.768000	0.949600	0.322900
C701	C70	0.610600	0.445700	0.456500
C711	C71	0.681800	0.421000	0.430900
C721	C72	0.680700	0.373600	0.387400
C731	C73	0.458600	0.413500	0.659200
C741	C74	0.431500	0.361800	0.754200
C751	C75	0.382400	0.270100	0.802000
C761	C76	0.938400	0.811500	0.770500
C771	C77	0.072800	0.852400	0.659300
C781	C78	0.855900	0.805900	0.798200
C791	C79	0.960900	0.773900	0.834300
C801	C80	0.098300	0.816100	0.718700
C811	C81	0.797200	0.764600	0.886500
C821	C82	0.897300	0.732500	0.924600
C831	C83	0.041800	0.778200	0.805900
C841	C84	0.818400	0.727500	0.949600
C851	C85	0.164900	0.097800	0.445700
C861	C86	0.260800	0.148100	0.421000
C871	C87	0.307100	0.239000	0.373600
C881	C88	0.045100	0.927300	0.413500
C891	C89	0.069700	0.884000	0.361800
C901	C90	0.112300	0.927900	0.270100
C911	C91	0.438400	0.229500	0.188500
C921	C92	0.572800	0.340700	0.147600
C931	C93	0.355900	0.201800	0.194100
C941	C94	0.460900	0.165700	0.226100
C951	C95	0.598300	0.281300	0.183900
C961	C96	0.297200	0.113500	0.235400
C971	C97	0.397300	0.075400	0.267500
C981	C98	0.541800	0.194100	0.221800
C991	C99	0.318400	0.050400	0.272500
C1001	C100	0.664900	0.554300	0.902200
C1011	C101	0.760800	0.579000	0.851900
C1021	C102	0.807100	0.626400	0.761000
C1031	C103	0.545100	0.586500	0.072700
C1041	C104	0.569700	0.638200	0.116000
C1051	C105	0.612300	0.729900	0.072100
C1061	C106	0.626900	0.188500	0.582000
C1071	C107	0.720400	0.147600	0.511700
C1081	C108	0.550000	0.194100	0.604100
C1091	C109	0.687000	0.226100	0.608200
C1101	C110	0.782200	0.183900	0.534800
C1111	C111	0.532600	0.235400	0.651100
C1121	C112	0.664800	0.267500	0.657100
C1131	C113	0.763600	0.221800	0.584100
C1141	C114	0.590900	0.272500	0.677100
C1151	C115	0.567100	0.902200	0.543500
C1161	C116	0.612700	0.851900	0.569100
C1171	C117	0.568100	0.761000	0.612600
C1181	C118	0.617800	0.072700	0.340800
C1191	C119	0.685700	0.116000	0.245800
C1201	C120	0.684400	0.072100	0.198000
C1211	C121	0.208900	0.582000	0.229500
C1221	C122	0.232100	0.511700	0.340700
C1231	C123	0.154100	0.604100	0.201800
C1241	C124	0.295200	0.608200	0.165700
C1251	C125	0.317000	0.534800	0.281300
C1261	C126	0.183700	0.651100	0.113500
C1271	C127	0.321900	0.657100	0.075400
C1281	C128	0.347700	0.584100	0.194100
C1291	C129	0.268000	0.677100	0.050400
C1301	C130	0.110600	0.543500	0.554300
C1311	C131	0.181800	0.569100	0.579000
C1321	C132	0.180700	0.612600	0.626400
C1331	C133	0.958600	0.340800	0.586500
C1341	C134	0.931500	0.245800	0.638200
C1351	C135	0.882400	0.198000	0.729900
C1361	C136	0.873100	0.582000	0.188500
C1371	C137	0.779600	0.511700	0.147600
C1381	C138	0.950000	0.604100	0.194100
C1391	C139	0.813000	0.608200	0.226100
C1401	C140	0.717800	0.534800	0.183900
C1411	C141	0.967400	0.651100	0.235400
C1421	C142	0.835200	0.657100	0.267500
C1431	C143	0.736400	0.584100	0.221800
C1441	C144	0.909100	0.677100	0.272500
C1451	C145	0.932900	0.543500	0.902200
C1461	C146	0.887300	0.569100	0.851900
C1471	C147	0.931900	0.612600	0.761000
C1481	C148	0.882200	0.340800	0.072700
C1491	C149	0.814300	0.245800	0.116000
C1501	C150	0.815600	0.198000	0.072100
C1511	C151	0.291100	0.229500	0.582000
C1521	C152	0.267900	0.340700	0.511700
C1531	C153	0.345900	0.201800	0.604100
C1541	C154	0.204800	0.165700	0.608200
C1551	C155	0.183000	0.281300	0.534800
C1561	C156	0.316300	0.113500	0.651100
C1571	C157	0.178100	0.075400	0.657100
C1581	C158	0.152300	0.194100	0.584100
C1591	C159	0.232000	0.050400	0.677100
C1601	C160	0.389400	0.554300	0.543500
C1611	C161	0.318200	0.579000	0.569100
C1621	C162	0.319300	0.626400	0.612600
C1631	C163	0.541400	0.586500	0.340800
C1641	C164	0.568500	0.638200	0.245800
C1651	C165	0.617600	0.729900	0.198000
C1661	C166	0.061600	0.188500	0.229500
C1671	C167	0.927200	0.147600	0.340700
C1681	C168	0.144100	0.194100	0.201800
C1691	C169	0.039100	0.226100	0.165700
C1701	C170	0.901700	0.183900	0.281300
C1711	C171	0.202800	0.235400	0.113500
C1721	C172	0.102700	0.267500	0.075400
C1731	C173	0.958200	0.221800	0.194100
C1741	C174	0.181600	0.272500	0.050400
C1751	C175	0.835100	0.902200	0.554300
C1761	C176	0.739200	0.851900	0.579000
C1771	C177	0.692900	0.761000	0.626400
C1781	C178	0.954900	0.072700	0.586500
C1791	C179	0.930300	0.116000	0.638200
C1801	C180	0.887700	0.072100	0.729900
C1811	C181	0.197500	0.447500	0.105000
C1821	C182	0.108400	0.358400	0.283200
C1831	C183	0.302500	0.105000	0.447500
C1841	C184	0.391600	0.283200	0.358400
C1851	C185	0.750000	0.447500	0.447500
C1861	C186	0.750000	0.358400	0.358400
C1871	C187	0.802500	0.552500	0.895000
C1881	C188	0.891600	0.641600	0.716800
C1891	C189	0.697500	0.895000	0.552500
C1901	C190	0.608400	0.716800	0.641600
C1911	C191	0.250000	0.552500	0.552500
C1921	C192	0.250000	0.641600	0.641600
C1931	C193	0.452750	0.405500	0.797250
C1941	C194	0.361850	0.223700	0.888150
C1951	C195	0.250000	0.797250	0.797250
C1961	C196	0.250000	0.888150	0.888150
C1971	C197	0.047250	0.797250	0.405500
C1981	C198	0.138150	0.888150	0.223700
C1991	C199	0.547250	0.594500	0.202750
C2001	C200	0.638150	0.776300	0.111850
C2011	C201	0.750000	0.202750	0.202750
C2021	C202	0.750000	0.111850	0.111850
C2031	C203	0.952750	0.202750	0.594500
C2041	C204	0.861850	0.111850	0.776300
N11	N1	0.502800	0.681200	0.852400
N21	N2	0.355200	0.852400	0.466400
N31	N3	0.821600	0.466400	0.681200
N41	N4	0.144800	0.466400	0.852400
N51	N5	0.678400	0.681200	0.466400
N61	N6	0.997200	0.852400	0.681200
N71	N7	0.497200	0.318800	0.147600
N81	N8	0.644800	0.147600	0.533600
N91	N9	0.178400	0.533600	0.318800
N101	N10	0.855200	0.533600	0.147600
N111	N11	0.321600	0.318800	0.533600
N121	N12	0.002800	0.147600	0.318800
O11	O1	0.382700	0.514200	0.023200
O21	O2	0.476200	0.493800	0.888800
O31	O3	0.453000	0.373100	0.999100
O41	O4	0.363900	0.399100	0.132500
O51	O5	0.405900	0.023200	0.462600
O61	O6	0.365000	0.888800	0.617400
O71	O7	0.452100	0.999100	0.627800
O81	O8	0.496400	0.132500	0.468400
O91	O9	0.868500	0.462600	0.514200
O101	O10	0.982400	0.617400	0.493800
O111	O11	0.079900	0.627800	0.373100
O121	O12	0.964800	0.468400	0.399100
O131	O13	0.094100	0.462600	0.023200
O141	O14	0.135000	0.617400	0.888800
O151	O15	0.047900	0.627800	0.999100
O161	O16	0.003600	0.468400	0.132500
O171	O17	0.631500	0.514200	0.462600
O181	O18	0.517600	0.493800	0.617400
O191	O19	0.420100	0.373100	0.627800
O201	O20	0.535200	0.399100	0.468400
O211	O21	0.117300	0.023200	0.514200
O221	O22	0.023800	0.888800	0.493800
O231	O23	0.047000	0.999100	0.373100
O241	O24	0.136100	0.132500	0.399100
O251	O25	0.617300	0.485800	0.976800
O261	O26	0.523800	0.506200	0.111200
O271	O27	0.547000	0.626900	0.000900
O281	O28	0.636100	0.600900	0.867500
O291	O29	0.594100	0.976800	0.537400
O301	O30	0.635000	0.111200	0.382600
O311	O31	0.547900	0.000900	0.372200
O321	O32	0.503600	0.867500	0.531600
O331	O33	0.131500	0.537400	0.485800
O341	O34	0.017600	0.382600	0.506200
O351	O35	0.920100	0.372200	0.626900
O361	O36	0.035200	0.531600	0.600900
O371	O37	0.905900	0.537400	0.976800
O381	O38	0.865000	0.382600	0.111200
O391	O39	0.952100	0.372200	0.000900
O401	O40	0.996400	0.531600	0.867500
O411	O41	0.368500	0.485800	0.537400
O421	O42	0.482400	0.506200	0.382600
O431	O43	0.579900	0.626900	0.372200
O441	O44	0.464800	0.600900	0.531600
O451	O45	0.882700	0.976800	0.485800
O461	O46	0.976200	0.111200	0.506200
O471	O47	0.953000	0.000900	0.626900
O481	O48	0.863900	0.867500	0.600900
