data_BASTUM_freeONLY_PM
_symmetry_space_group_name_H-M	'P1'
_cell_length_a	8.488400
_cell_length_b	25.370000
_cell_length_c	17.806000
_cell_angle_alpha	90.000000
_cell_angle_beta	90.000000
_cell_angle_gamma	90.000000
_symmetry_Int_Tables_number 1

loop_
_symmetry_equiv_pos_as_xyz
'x,y,z'

loop_
_atom_site_label
_atom_site_type_symbol
_atom_site_fract_x
_atom_site_fract_y
_atom_site_fract_z
Ho11	Ho1	0.165740	0.023360	0.782490
Ho21	Ho2	0.665740	0.976640	0.717510
Ho31	Ho3	0.665740	0.523360	0.217510
Ho41	Ho4	0.165740	0.476640	0.282490
Ag11	Ag1	0.461630	0.727310	0.951740
Ag21	Ag2	0.961630	0.272690	0.548260
Ag31	Ag3	0.961630	0.227310	0.048260
Ag41	Ag4	0.461630	0.772690	0.451740
H11	H1	0.059800	0.903700	0.357700
H21	H2	0.720800	0.869300	0.105900
H31	H3	0.964700	0.954900	0.492600
H41	H4	0.246900	0.837900	0.327200
H51	H5	0.401100	0.860700	0.582400
H61	H6	0.882800	0.932900	0.996700
H71	H7	0.556500	0.794900	0.100400
H81	H8	0.687900	0.798100	0.840500
H91	H9	0.559800	0.096300	0.142300
H101	H10	0.220800	0.130700	0.394100
H111	H11	0.464700	0.045100	0.007400
H121	H12	0.746900	0.162100	0.172800
H131	H13	0.901100	0.139300	0.917600
H141	H14	0.382800	0.067100	0.503300
H151	H15	0.056500	0.205100	0.399600
H161	H16	0.187900	0.201900	0.659500
H171	H17	0.559800	0.403700	0.642300
H181	H18	0.220800	0.369300	0.894100
H191	H19	0.464700	0.454900	0.507400
H201	H20	0.746900	0.337900	0.672800
H211	H21	0.901100	0.360700	0.417600
H221	H22	0.382800	0.432900	0.003300
H231	H23	0.056500	0.294900	0.899600
H241	H24	0.187900	0.298100	0.159500
H251	H25	0.059800	0.596300	0.857700
H261	H26	0.720800	0.630700	0.605900
H271	H27	0.964700	0.545100	0.992600
H281	H28	0.246900	0.662100	0.827200
H291	H29	0.401100	0.639300	0.082400
H301	H30	0.882800	0.567100	0.496700
H311	H31	0.556500	0.705100	0.600400
H321	H32	0.687900	0.701900	0.340500
C11	C1	0.010200	0.982720	0.629300
C21	C2	0.105400	0.944350	0.583200
C31	C3	0.053500	0.937410	0.510300
C41	C4	0.138300	0.903340	0.464200
C51	C5	0.232300	0.852810	0.374400
C61	C6	0.260700	0.872500	0.492100
C71	C7	0.315700	0.879990	0.564500
C81	C8	0.241100	0.916900	0.610000
C91	C9	0.310800	0.926630	0.685900
C101	C10	0.952000	0.953350	0.854000
C111	C11	0.866000	0.907700	0.887900
C121	C12	0.841700	0.906840	0.965600
C131	C13	0.753100	0.865140	0.994300
C141	C14	0.608300	0.810110	0.059800
C151	C15	0.691400	0.825860	0.947600
C161	C16	0.723400	0.825450	0.870900
C171	C17	0.809000	0.866700	0.840900
C181	C18	0.842700	0.864730	0.757800
C191	C19	0.510200	0.017280	0.870700
C201	C20	0.605400	0.055650	0.916800
C211	C21	0.553500	0.062590	0.989700
C221	C22	0.638300	0.096660	0.035800
C231	C23	0.732300	0.147190	0.125600
C241	C24	0.760700	0.127500	0.007900
C251	C25	0.815700	0.120010	0.935500
C261	C26	0.741100	0.083100	0.890000
C271	C27	0.810800	0.073370	0.814100
C281	C28	0.452000	0.046650	0.646000
C291	C29	0.366000	0.092300	0.612100
C301	C30	0.341700	0.093160	0.534400
C311	C31	0.253100	0.134860	0.505700
C321	C32	0.108300	0.189890	0.440200
C331	C33	0.191400	0.174140	0.552400
C341	C34	0.223400	0.174550	0.629100
C351	C35	0.309000	0.133300	0.659100
C361	C36	0.342700	0.135270	0.742200
C371	C37	0.510200	0.482720	0.370700
C381	C38	0.605400	0.444350	0.416800
C391	C39	0.553500	0.437410	0.489700
C401	C40	0.638300	0.403340	0.535800
C411	C41	0.732300	0.352810	0.625600
C421	C42	0.760700	0.372500	0.507900
C431	C43	0.815700	0.379990	0.435500
C441	C44	0.741100	0.416900	0.390000
C451	C45	0.810800	0.426630	0.314100
C461	C46	0.452000	0.453350	0.146000
C471	C47	0.366000	0.407700	0.112100
C481	C48	0.341700	0.406840	0.034400
C491	C49	0.253100	0.365140	0.005700
C501	C50	0.108300	0.310110	0.940200
C511	C51	0.191400	0.325860	0.052400
C521	C52	0.223400	0.325450	0.129100
C531	C53	0.309000	0.366700	0.159100
C541	C54	0.342700	0.364730	0.242200
C551	C55	0.010200	0.517280	0.129300
C561	C56	0.105400	0.555650	0.083200
C571	C57	0.053500	0.562590	0.010300
C581	C58	0.138300	0.596660	0.964200
C591	C59	0.232300	0.647190	0.874400
C601	C60	0.260700	0.627500	0.992100
C611	C61	0.315700	0.620010	0.064500
C621	C62	0.241100	0.583100	0.110000
C631	C63	0.310800	0.573370	0.185900
C641	C64	0.952000	0.546650	0.354000
C651	C65	0.866000	0.592300	0.387900
C661	C66	0.841700	0.593160	0.465600
C671	C67	0.753100	0.634860	0.494300
C681	C68	0.608300	0.689890	0.559800
C691	C69	0.691400	0.674140	0.447600
C701	C70	0.723400	0.674550	0.370900
C711	C71	0.809000	0.633300	0.340900
C721	C72	0.842700	0.635270	0.257800
N11	N1	0.125100	0.890280	0.389290
N21	N2	0.314600	0.839550	0.434520
N31	N3	0.599500	0.791780	0.990550
N41	N4	0.699200	0.852550	0.065210
N51	N5	0.625100	0.109720	0.110710
N61	N6	0.814600	0.160450	0.065480
N71	N7	0.099500	0.208220	0.509450
N81	N8	0.199200	0.147450	0.434790
N91	N9	0.625100	0.390280	0.610710
N101	N10	0.814600	0.339550	0.565480
N111	N11	0.099500	0.291780	0.009450
N121	N12	0.199200	0.352550	0.934790
N131	N13	0.125100	0.609720	0.889290
N141	N14	0.314600	0.660450	0.934520
N151	N15	0.599500	0.708220	0.490550
N161	N16	0.699200	0.647450	0.565210
O11	O1	0.077900	0.021060	0.661160
O21	O2	0.863900	0.975990	0.628820
O31	O3	0.224400	0.940150	0.740110
O41	O4	0.457800	0.920250	0.691720
O51	O5	0.064600	0.974780	0.887610
O61	O6	0.911900	0.969010	0.788550
O71	O7	0.747800	0.889790	0.714600
O81	O8	0.949700	0.836630	0.734350
O91	O9	0.577900	0.978940	0.838840
O101	O10	0.363900	0.024010	0.871180
O111	O11	0.724400	0.059850	0.759890
O121	O12	0.957800	0.079750	0.808280
O131	O13	0.564600	0.025220	0.612390
O141	O14	0.411900	0.030990	0.711450
O151	O15	0.247800	0.110210	0.785400
O161	O16	0.449700	0.163370	0.765650
O171	O17	0.577900	0.521060	0.338840
O181	O18	0.363900	0.475990	0.371180
O191	O19	0.724400	0.440150	0.259890
O201	O20	0.957800	0.420250	0.308280
O211	O21	0.564600	0.474780	0.112390
O221	O22	0.411900	0.469010	0.211450
O231	O23	0.247800	0.389790	0.285400
O241	O24	0.449700	0.336630	0.265650
O251	O25	0.077900	0.478940	0.161160
O261	O26	0.863900	0.524010	0.128820
O271	O27	0.224400	0.559850	0.240110
O281	O28	0.457800	0.579750	0.191720
O291	O29	0.064600	0.525220	0.387610
O301	O30	0.911900	0.530990	0.288550
O311	O31	0.747800	0.610210	0.214600
O321	O32	0.949700	0.663370	0.234350
Ho51	Ho5	0.334260	0.476640	0.782490
Ho61	Ho6	0.834260	0.523360	0.717510
Ho71	Ho7	0.834260	0.976640	0.217510
Ho81	Ho8	0.334260	0.023360	0.282490
Ag51	Ag5	0.038370	0.772690	0.951740
Ag61	Ag6	0.538370	0.227310	0.548260
Ag71	Ag7	0.538370	0.272690	0.048260
Ag81	Ag8	0.038370	0.727310	0.451740
H331	H33	0.440200	0.596300	0.357700
H341	H34	0.779200	0.630700	0.105900
H351	H35	0.535300	0.545100	0.492600
H361	H36	0.253100	0.662100	0.327200
H371	H37	0.098900	0.639300	0.582400
H381	H38	0.617200	0.567100	0.996700
H391	H39	0.943500	0.705100	0.100400
H401	H40	0.812100	0.701900	0.840500
H411	H41	0.940200	0.403700	0.142300
H421	H42	0.279200	0.369300	0.394100
H431	H43	0.035300	0.454900	0.007400
H441	H44	0.753100	0.337900	0.172800
H451	H45	0.598900	0.360700	0.917600
H461	H46	0.117200	0.432900	0.503300
H471	H47	0.443500	0.294900	0.399600
H481	H48	0.312100	0.298100	0.659500
H491	H49	0.940200	0.096300	0.642300
H501	H50	0.279200	0.130700	0.894100
H511	H51	0.035300	0.045100	0.507400
H521	H52	0.753100	0.162100	0.672800
H531	H53	0.598900	0.139300	0.417600
H541	H54	0.117200	0.067100	0.003300
H551	H55	0.443500	0.205100	0.899600
H561	H56	0.312100	0.201900	0.159500
H571	H57	0.440200	0.903700	0.857700
H581	H58	0.779200	0.869300	0.605900
H591	H59	0.535300	0.954900	0.992600
H601	H60	0.253100	0.837900	0.827200
H611	H61	0.098900	0.860700	0.082400
H621	H62	0.617200	0.932900	0.496700
H631	H63	0.943500	0.794900	0.600400
H641	H64	0.812100	0.798100	0.340500
C731	C73	0.489800	0.517280	0.629300
C741	C74	0.394600	0.555650	0.583200
C751	C75	0.446500	0.562590	0.510300
C761	C76	0.361700	0.596660	0.464200
C771	C77	0.267700	0.647190	0.374400
C781	C78	0.239300	0.627500	0.492100
C791	C79	0.184300	0.620010	0.564500
C801	C80	0.258900	0.583100	0.610000
C811	C81	0.189200	0.573370	0.685900
C821	C82	0.548000	0.546650	0.854000
C831	C83	0.634000	0.592300	0.887900
C841	C84	0.658300	0.593160	0.965600
C851	C85	0.746900	0.634860	0.994300
C861	C86	0.891700	0.689890	0.059800
C871	C87	0.808600	0.674140	0.947600
C881	C88	0.776600	0.674550	0.870900
C891	C89	0.691000	0.633300	0.840900
C901	C90	0.657300	0.635270	0.757800
C911	C91	0.989800	0.482720	0.870700
C921	C92	0.894600	0.444350	0.916800
C931	C93	0.946500	0.437410	0.989700
C941	C94	0.861700	0.403340	0.035800
C951	C95	0.767700	0.352810	0.125600
C961	C96	0.739300	0.372500	0.007900
C971	C97	0.684300	0.379990	0.935500
C981	C98	0.758900	0.416900	0.890000
C991	C99	0.689200	0.426630	0.814100
C1001	C100	0.048000	0.453350	0.646000
C1011	C101	0.134000	0.407700	0.612100
C1021	C102	0.158300	0.406840	0.534400
C1031	C103	0.246900	0.365140	0.505700
C1041	C104	0.391700	0.310110	0.440200
C1051	C105	0.308600	0.325860	0.552400
C1061	C106	0.276600	0.325450	0.629100
C1071	C107	0.191000	0.366700	0.659100
C1081	C108	0.157300	0.364730	0.742200
C1091	C109	0.989800	0.017280	0.370700
C1101	C110	0.894600	0.055650	0.416800
C1111	C111	0.946500	0.062590	0.489700
C1121	C112	0.861700	0.096660	0.535800
C1131	C113	0.767700	0.147190	0.625600
C1141	C114	0.739300	0.127500	0.507900
C1151	C115	0.684300	0.120010	0.435500
C1161	C116	0.758900	0.083100	0.390000
C1171	C117	0.689200	0.073370	0.314100
C1181	C118	0.048000	0.046650	0.146000
C1191	C119	0.134000	0.092300	0.112100
C1201	C120	0.158300	0.093160	0.034400
C1211	C121	0.246900	0.134860	0.005700
C1221	C122	0.391700	0.189890	0.940200
C1231	C123	0.308600	0.174140	0.052400
C1241	C124	0.276600	0.174550	0.129100
C1251	C125	0.191000	0.133300	0.159100
C1261	C126	0.157300	0.135270	0.242200
C1271	C127	0.489800	0.982720	0.129300
C1281	C128	0.394600	0.944350	0.083200
C1291	C129	0.446500	0.937410	0.010300
C1301	C130	0.361700	0.903340	0.964200
C1311	C131	0.267700	0.852810	0.874400
C1321	C132	0.239300	0.872500	0.992100
C1331	C133	0.184300	0.879990	0.064500
C1341	C134	0.258900	0.916900	0.110000
C1351	C135	0.189200	0.926630	0.185900
C1361	C136	0.548000	0.953350	0.354000
C1371	C137	0.634000	0.907700	0.387900
C1381	C138	0.658300	0.906840	0.465600
C1391	C139	0.746900	0.865140	0.494300
C1401	C140	0.891700	0.810110	0.559800
C1411	C141	0.808600	0.825860	0.447600
C1421	C142	0.776600	0.825450	0.370900
C1431	C143	0.691000	0.866700	0.340900
C1441	C144	0.657300	0.864730	0.257800
N171	N17	0.374900	0.609720	0.389290
N181	N18	0.185400	0.660450	0.434520
N191	N19	0.900500	0.708220	0.990550
N201	N20	0.800800	0.647450	0.065210
N211	N21	0.874900	0.390280	0.110710
N221	N22	0.685400	0.339550	0.065480
N231	N23	0.400500	0.291780	0.509450
N241	N24	0.300800	0.352550	0.434790
N251	N25	0.874900	0.109720	0.610710
N261	N26	0.685400	0.160450	0.565480
N271	N27	0.400500	0.208220	0.009450
N281	N28	0.300800	0.147450	0.934790
N291	N29	0.374900	0.890280	0.889290
N301	N30	0.185400	0.839550	0.934520
N311	N31	0.900500	0.791780	0.490550
N321	N32	0.800800	0.852550	0.565210
O331	O33	0.422100	0.478940	0.661160
O341	O34	0.636100	0.524010	0.628820
O351	O35	0.275600	0.559850	0.740110
O361	O36	0.042200	0.579750	0.691720
O371	O37	0.435400	0.525220	0.887610
O381	O38	0.588100	0.530990	0.788550
O391	O39	0.752200	0.610210	0.714600
O401	O40	0.550300	0.663370	0.734350
O411	O41	0.922100	0.521060	0.838840
O421	O42	0.136100	0.475990	0.871180
O431	O43	0.775600	0.440150	0.759890
O441	O44	0.542200	0.420250	0.808280
O451	O45	0.935400	0.474780	0.612390
O461	O46	0.088100	0.469010	0.711450
O471	O47	0.252200	0.389790	0.785400
O481	O48	0.050300	0.336630	0.765650
O491	O49	0.922100	0.978940	0.338840
O501	O50	0.136100	0.024010	0.371180
O511	O51	0.775600	0.059850	0.259890
O521	O52	0.542200	0.079750	0.308280
O531	O53	0.935400	0.025220	0.112390
O541	O54	0.088100	0.030990	0.211450
O551	O55	0.252200	0.110210	0.285400
O561	O56	0.050300	0.163370	0.265650
O571	O57	0.422100	0.021060	0.161160
O581	O58	0.636100	0.975990	0.128820
O591	O59	0.275600	0.940150	0.240110
O601	O60	0.042200	0.920250	0.191720
O611	O61	0.435400	0.974780	0.387610
O621	O62	0.588100	0.969010	0.288550
O631	O63	0.752200	0.889790	0.214600
O641	O64	0.550300	0.836630	0.234350
