data_BASTAS_freeONLY_PM
_symmetry_space_group_name_H-M	'P1'
_cell_length_a	8.552500
_cell_length_b	25.287000
_cell_length_c	17.827000
_cell_angle_alpha	90.000000
_cell_angle_beta	90.000000
_cell_angle_gamma	90.000000
_symmetry_Int_Tables_number 1

loop_
_symmetry_equiv_pos_as_xyz
'x,y,z'

loop_
_atom_site_label
_atom_site_type_symbol
_atom_site_fract_x
_atom_site_fract_y
_atom_site_fract_z
Gd11	Gd1	0.164350	0.976380	0.216920
Gd21	Gd2	0.664350	0.023620	0.283080
Gd31	Gd3	0.664350	0.476380	0.783080
Gd41	Gd4	0.164350	0.523620	0.716920
Ag11	Ag1	0.461230	0.273100	0.048650
Ag21	Ag2	0.961230	0.726900	0.451350
Ag31	Ag3	0.961230	0.773100	0.951350
Ag41	Ag4	0.461230	0.226900	0.548650
H11	H1	0.399100	0.140400	0.418900
H21	H2	0.683400	0.202900	0.159600
H31	H3	0.062200	0.096600	0.643300
H41	H4	0.246000	0.162900	0.673100
H51	H5	0.882400	0.068600	0.004000
H61	H6	0.966500	0.045500	0.508100
H71	H7	0.557400	0.206300	0.899700
H81	H8	0.720700	0.131400	0.894400
H91	H9	0.899100	0.859600	0.081100
H101	H10	0.183400	0.797100	0.340400
H111	H11	0.562200	0.903400	0.856700
H121	H12	0.746000	0.837100	0.826900
H131	H13	0.382400	0.931400	0.496000
H141	H14	0.466500	0.954500	0.991900
H151	H15	0.057400	0.793700	0.600300
H161	H16	0.220700	0.868600	0.605600
H171	H17	0.899100	0.640400	0.581100
H181	H18	0.183400	0.702900	0.840400
H191	H19	0.562200	0.596600	0.356700
H201	H20	0.746000	0.662900	0.326900
H211	H21	0.382400	0.568600	0.996000
H221	H22	0.466500	0.545500	0.491900
H231	H23	0.057400	0.706300	0.100300
H241	H24	0.220700	0.631400	0.105600
H251	H25	0.399100	0.359600	0.918900
H261	H26	0.683400	0.297100	0.659600
H271	H27	0.062200	0.403400	0.143300
H281	H28	0.246000	0.337100	0.173100
H291	H29	0.882400	0.431400	0.504000
H301	H30	0.966500	0.454500	0.008100
H311	H31	0.557400	0.293700	0.399700
H321	H32	0.720700	0.368600	0.394400
C11	C1	0.950700	0.047900	0.145200
C21	C2	0.865000	0.093600	0.111600
C31	C3	0.105300	0.056600	0.417800
C41	C4	0.009800	0.018100	0.371900
C51	C5	0.308500	0.074600	0.314900
C61	C6	0.240000	0.084000	0.390600
C71	C7	0.314600	0.120900	0.436600
C81	C8	0.720200	0.175700	0.129200
C91	C9	0.689600	0.175300	0.052600
C101	C10	0.339700	0.862600	0.258300
C111	C11	0.231900	0.147700	0.626100
C121	C12	0.840800	0.094600	0.035100
C131	C13	0.054300	0.063300	0.490500
C141	C14	0.806400	0.134800	0.158800
C151	C15	0.260900	0.127900	0.509100
C161	C16	0.138500	0.097500	0.536800
C171	C17	0.751400	0.136200	0.005700
C181	C18	0.608200	0.190900	0.940300
C191	C19	0.450700	0.952100	0.354800
C201	C20	0.365000	0.906400	0.388400
C211	C21	0.605300	0.943400	0.082200
C221	C22	0.509800	0.981900	0.128100
C231	C23	0.808500	0.925400	0.185100
C241	C24	0.740000	0.916000	0.109400
C251	C25	0.814600	0.879100	0.063400
C261	C26	0.220200	0.824300	0.370800
C271	C27	0.189600	0.824700	0.447400
C281	C28	0.839700	0.137400	0.241700
C291	C29	0.731900	0.852300	0.873900
C301	C30	0.340800	0.905400	0.464900
C311	C31	0.554300	0.936700	0.009500
C321	C32	0.306400	0.865200	0.341200
C331	C33	0.760900	0.872100	0.990900
C341	C34	0.638500	0.902500	0.963200
C351	C35	0.251400	0.863800	0.494300
C361	C36	0.108200	0.809100	0.559700
C371	C37	0.450700	0.547900	0.854800
C381	C38	0.365000	0.593600	0.888400
C391	C39	0.605300	0.556600	0.582200
C401	C40	0.509800	0.518100	0.628100
C411	C41	0.808500	0.574600	0.685100
C421	C42	0.740000	0.584000	0.609400
C431	C43	0.814600	0.620900	0.563400
C441	C44	0.220200	0.675700	0.870800
C451	C45	0.189600	0.675300	0.947400
C461	C46	0.839700	0.362600	0.741700
C471	C47	0.731900	0.647700	0.373900
C481	C48	0.340800	0.594600	0.964900
C491	C49	0.554300	0.563300	0.509500
C501	C50	0.306400	0.634800	0.841200
C511	C51	0.760900	0.627900	0.490900
C521	C52	0.638500	0.597500	0.463200
C531	C53	0.251400	0.636200	0.994300
C541	C54	0.108200	0.690900	0.059700
C551	C55	0.950700	0.452100	0.645200
C561	C56	0.865000	0.406400	0.611600
C571	C57	0.105300	0.443400	0.917800
C581	C58	0.009800	0.481900	0.871900
C591	C59	0.308500	0.425400	0.814900
C601	C60	0.240000	0.416000	0.890600
C611	C61	0.314600	0.379100	0.936600
C621	C62	0.720200	0.324300	0.629200
C631	C63	0.689600	0.324700	0.552600
C641	C64	0.339700	0.637400	0.758300
C651	C65	0.231900	0.352300	0.126100
C661	C66	0.840800	0.405400	0.535100
C671	C67	0.054300	0.436700	0.990500
C681	C68	0.806400	0.365200	0.658800
C691	C69	0.260900	0.372100	0.009100
C701	C70	0.138500	0.402500	0.036800
C711	C71	0.751400	0.363800	0.505700
C721	C72	0.608200	0.309100	0.440300
N11	N1	0.126300	0.110280	0.611600
N21	N2	0.313900	0.160800	0.566400
N31	N3	0.598200	0.208900	0.009200
N41	N4	0.698900	0.148300	0.934900
N51	N5	0.626300	0.889720	0.888400
N61	N6	0.813900	0.839200	0.933600
N71	N7	0.098200	0.791100	0.490800
N81	N8	0.198900	0.851700	0.565100
N91	N9	0.626300	0.610280	0.388400
N101	N10	0.813900	0.660800	0.433600
N111	N11	0.098200	0.708900	0.990800
N121	N12	0.198900	0.648300	0.065100
N131	N13	0.126300	0.389720	0.111600
N141	N14	0.313900	0.339200	0.066400
N151	N15	0.598200	0.291100	0.509200
N161	N16	0.698900	0.351700	0.434900
O11	O1	0.077400	0.979370	0.340200
O21	O2	0.911400	0.031510	0.210800
O31	O3	0.061800	0.026600	0.111400
O41	O4	0.865300	0.024760	0.372500
O51	O5	0.222300	0.061180	0.261000
O61	O6	0.246700	0.887890	0.214600
O71	O7	0.446700	0.834800	0.235100
O81	O8	0.454100	0.080980	0.308500
O91	O9	0.577400	0.020630	0.159800
O101	O10	0.411400	0.968490	0.289200
O111	O11	0.561800	0.973400	0.388600
O121	O12	0.365300	0.975240	0.127500
O131	O13	0.722300	0.938820	0.239000
O141	O14	0.746700	0.112110	0.285400
O151	O15	0.946700	0.165200	0.264900
O161	O16	0.954100	0.919020	0.191500
O171	O17	0.577400	0.479370	0.659800
O181	O18	0.411400	0.531510	0.789200
O191	O19	0.561800	0.526600	0.888600
O201	O20	0.365300	0.524760	0.627500
O211	O21	0.722300	0.561180	0.739000
O221	O22	0.746700	0.387890	0.785400
O231	O23	0.946700	0.334800	0.764900
O241	O24	0.954100	0.580980	0.691500
O251	O25	0.077400	0.520630	0.840200
O261	O26	0.911400	0.468490	0.710800
O271	O27	0.061800	0.473400	0.611400
O281	O28	0.865300	0.475240	0.872500
O291	O29	0.222300	0.438820	0.761000
O301	O30	0.246700	0.612110	0.714600
O311	O31	0.446700	0.665200	0.735100
O321	O32	0.454100	0.419020	0.808500
Gd51	Gd5	0.335650	0.523620	0.216920
Gd61	Gd6	0.835650	0.476380	0.283080
Gd71	Gd7	0.835650	0.023620	0.783080
Gd81	Gd8	0.335650	0.976380	0.716920
Ag51	Ag5	0.038770	0.226900	0.048650
Ag61	Ag6	0.538770	0.773100	0.451350
Ag71	Ag7	0.538770	0.726900	0.951350
Ag81	Ag8	0.038770	0.273100	0.548650
H331	H33	0.100900	0.359600	0.418900
H341	H34	0.816600	0.297100	0.159600
H351	H35	0.437800	0.403400	0.643300
H361	H36	0.254000	0.337100	0.673100
H371	H37	0.617600	0.431400	0.004000
H381	H38	0.533500	0.454500	0.508100
H391	H39	0.942600	0.293700	0.899700
H401	H40	0.779300	0.368600	0.894400
H411	H41	0.600900	0.640400	0.081100
H421	H42	0.316600	0.702900	0.340400
H431	H43	0.937800	0.596600	0.856700
H441	H44	0.754000	0.662900	0.826900
H451	H45	0.117600	0.568600	0.496000
H461	H46	0.033500	0.545500	0.991900
H471	H47	0.442600	0.706300	0.600300
H481	H48	0.279300	0.631400	0.605600
H491	H49	0.600900	0.859600	0.581100
H501	H50	0.316600	0.797100	0.840400
H511	H51	0.937800	0.903400	0.356700
H521	H52	0.754000	0.837100	0.326900
H531	H53	0.117600	0.931400	0.996000
H541	H54	0.033500	0.954500	0.491900
H551	H55	0.442600	0.793700	0.100300
H561	H56	0.279300	0.868600	0.105600
H571	H57	0.100900	0.140400	0.918900
H581	H58	0.816600	0.202900	0.659600
H591	H59	0.437800	0.096600	0.143300
H601	H60	0.254000	0.162900	0.173100
H611	H61	0.617600	0.068600	0.504000
H621	H62	0.533500	0.045500	0.008100
H631	H63	0.942600	0.206300	0.399700
H641	H64	0.779300	0.131400	0.394400
C731	C73	0.549300	0.452100	0.145200
C741	C74	0.635000	0.406400	0.111600
C751	C75	0.394700	0.443400	0.417800
C761	C76	0.490200	0.481900	0.371900
C771	C77	0.191500	0.425400	0.314900
C781	C78	0.260000	0.416000	0.390600
C791	C79	0.185400	0.379100	0.436600
C801	C80	0.779800	0.324300	0.129200
C811	C81	0.810400	0.324700	0.052600
C821	C82	0.160300	0.637400	0.258300
C831	C83	0.268100	0.352300	0.626100
C841	C84	0.659200	0.405400	0.035100
C851	C85	0.445700	0.436700	0.490500
C861	C86	0.693600	0.365200	0.158800
C871	C87	0.239100	0.372100	0.509100
C881	C88	0.361500	0.402500	0.536800
C891	C89	0.748600	0.363800	0.005700
C901	C90	0.891800	0.309100	0.940300
C911	C91	0.049300	0.547900	0.354800
C921	C92	0.135000	0.593600	0.388400
C931	C93	0.894700	0.556600	0.082200
C941	C94	0.990200	0.518100	0.128100
C951	C95	0.691500	0.574600	0.185100
C961	C96	0.760000	0.584000	0.109400
C971	C97	0.685400	0.620900	0.063400
C981	C98	0.279800	0.675700	0.370800
C991	C99	0.310400	0.675300	0.447400
C1001	C100	0.660300	0.362600	0.241700
C1011	C101	0.768100	0.647700	0.873900
C1021	C102	0.159200	0.594600	0.464900
C1031	C103	0.945700	0.563300	0.009500
C1041	C104	0.193600	0.634800	0.341200
C1051	C105	0.739100	0.627900	0.990900
C1061	C106	0.861500	0.597500	0.963200
C1071	C107	0.248600	0.636200	0.494300
C1081	C108	0.391800	0.690900	0.559700
C1091	C109	0.049300	0.952100	0.854800
C1101	C110	0.135000	0.906400	0.888400
C1111	C111	0.894700	0.943400	0.582200
C1121	C112	0.990200	0.981900	0.628100
C1131	C113	0.691500	0.925400	0.685100
C1141	C114	0.760000	0.916000	0.609400
C1151	C115	0.685400	0.879100	0.563400
C1161	C116	0.279800	0.824300	0.870800
C1171	C117	0.310400	0.824700	0.947400
C1181	C118	0.660300	0.137400	0.741700
C1191	C119	0.768100	0.852300	0.373900
C1201	C120	0.159200	0.905400	0.964900
C1211	C121	0.945700	0.936700	0.509500
C1221	C122	0.193600	0.865200	0.841200
C1231	C123	0.739100	0.872100	0.490900
C1241	C124	0.861500	0.902500	0.463200
C1251	C125	0.248600	0.863800	0.994300
C1261	C126	0.391800	0.809100	0.059700
C1271	C127	0.549300	0.047900	0.645200
C1281	C128	0.635000	0.093600	0.611600
C1291	C129	0.394700	0.056600	0.917800
C1301	C130	0.490200	0.018100	0.871900
C1311	C131	0.191500	0.074600	0.814900
C1321	C132	0.260000	0.084000	0.890600
C1331	C133	0.185400	0.120900	0.936600
C1341	C134	0.779800	0.175700	0.629200
C1351	C135	0.810400	0.175300	0.552600
C1361	C136	0.160300	0.862600	0.758300
C1371	C137	0.268100	0.147700	0.126100
C1381	C138	0.659200	0.094600	0.535100
C1391	C139	0.445700	0.063300	0.990500
C1401	C140	0.693600	0.134800	0.658800
C1411	C141	0.239100	0.127900	0.009100
C1421	C142	0.361500	0.097500	0.036800
C1431	C143	0.748600	0.136200	0.505700
C1441	C144	0.891800	0.190900	0.440300
N171	N17	0.373700	0.389720	0.611600
N181	N18	0.186100	0.339200	0.566400
N191	N19	0.901800	0.291100	0.009200
N201	N20	0.801100	0.351700	0.934900
N211	N21	0.873700	0.610280	0.888400
N221	N22	0.686100	0.660800	0.933600
N231	N23	0.401800	0.708900	0.490800
N241	N24	0.301100	0.648300	0.565100
N251	N25	0.873700	0.889720	0.388400
N261	N26	0.686100	0.839200	0.433600
N271	N27	0.401800	0.791100	0.990800
N281	N28	0.301100	0.851700	0.065100
N291	N29	0.373700	0.110280	0.111600
N301	N30	0.186100	0.160800	0.066400
N311	N31	0.901800	0.208900	0.509200
N321	N32	0.801100	0.148300	0.434900
O331	O33	0.422600	0.520630	0.340200
O341	O34	0.588600	0.468490	0.210800
O351	O35	0.438200	0.473400	0.111400
O361	O36	0.634700	0.475240	0.372500
O371	O37	0.277700	0.438820	0.261000
O381	O38	0.253300	0.612110	0.214600
O391	O39	0.053300	0.665200	0.235100
O401	O40	0.045900	0.419020	0.308500
O411	O41	0.922600	0.479370	0.159800
O421	O42	0.088600	0.531510	0.289200
O431	O43	0.938200	0.526600	0.388600
O441	O44	0.134700	0.524760	0.127500
O451	O45	0.777700	0.561180	0.239000
O461	O46	0.753300	0.387890	0.285400
O471	O47	0.553300	0.334800	0.264900
O481	O48	0.545900	0.580980	0.191500
O491	O49	0.922600	0.020630	0.659800
O501	O50	0.088600	0.968490	0.789200
O511	O51	0.938200	0.973400	0.888600
O521	O52	0.134700	0.975240	0.627500
O531	O53	0.777700	0.938820	0.739000
O541	O54	0.753300	0.112110	0.785400
O551	O55	0.553300	0.165200	0.764900
O561	O56	0.545900	0.919020	0.691500
O571	O57	0.422600	0.979370	0.840200
O581	O58	0.588600	0.031510	0.710800
O591	O59	0.438200	0.026600	0.611400
O601	O60	0.634700	0.024760	0.872500
O611	O61	0.277700	0.061180	0.761000
O621	O62	0.253300	0.887890	0.714600
O631	O63	0.053300	0.834800	0.735100
O641	O64	0.045900	0.080980	0.808500
