data_BAXFIR01_freeONLY_PM
_symmetry_space_group_name_H-M	'P1'
_cell_length_a	8.026700
_cell_length_b	19.430700
_cell_length_c	8.960900
_cell_angle_alpha	90.000000
_cell_angle_beta	93.286000
_cell_angle_gamma	90.000000
_symmetry_Int_Tables_number 1

loop_
_symmetry_equiv_pos_as_xyz
'x,y,z'

loop_
_atom_site_label
_atom_site_type_symbol
_atom_site_fract_x
_atom_site_fract_y
_atom_site_fract_z
N11	N1	0.867200	0.076400	0.080600
N21	N2	0.693400	0.080800	0.070900
N31	N3	0.798200	0.174800	0.170800
N41	N4	0.822400	0.240200	0.232500
N51	N5	0.688500	0.272300	0.225800
N61	N6	0.712900	0.337000	0.289600
N71	N7	0.636500	0.428900	0.404500
N81	N8	0.810700	0.424000	0.422600
N91	N9	0.147200	0.003300	0.187600
N101	N10	0.071100	0.006800	0.325000
N111	N11	0.342200	0.003700	0.365800
N121	N12	0.502900	0.000800	0.430900
C11	C1	0.926700	0.132500	0.143100
H11	H1	0.041500	0.142100	0.165600
C21	C2	0.655300	0.140100	0.125600
H21	H2	0.545000	0.157000	0.133100
C31	C3	0.581800	0.376400	0.325400
H31	H3	0.468000	0.367300	0.297400
C41	C4	0.851500	0.368100	0.355200
H41	H4	0.962100	0.351100	0.351700
C51	C5	0.309300	0.001600	0.213600
H51	H5	0.389900	0.999200	0.140200
C61	C6	0.190200	0.006800	0.429300
H61	H6	0.174800	0.008700	0.533600
N131	N13	0.632800	0.576400	0.419400
N141	N14	0.806600	0.580800	0.429100
N151	N15	0.701800	0.674800	0.329200
N161	N16	0.677600	0.740200	0.267500
N171	N17	0.811500	0.772300	0.274200
N181	N18	0.787100	0.837000	0.210400
N191	N19	0.863500	0.928900	0.095500
N201	N20	0.689300	0.924000	0.077400
N211	N21	0.352800	0.503300	0.312400
N221	N22	0.428900	0.506800	0.175000
N231	N23	0.157800	0.503700	0.134200
N241	N24	0.997100	0.500800	0.069100
C71	C7	0.573300	0.632500	0.356900
H71	H7	0.458500	0.642100	0.334400
C81	C8	0.844700	0.640100	0.374400
H81	H8	0.955000	0.657000	0.366900
C91	C9	0.918200	0.876400	0.174600
H91	H9	0.032000	0.867300	0.202600
C101	C10	0.648500	0.868100	0.144800
H101	H10	0.537900	0.851100	0.148300
C111	C11	0.190700	0.501600	0.286400
H111	H11	0.110100	0.499200	0.359800
C121	C12	0.309800	0.506800	0.070700
H121	H12	0.325200	0.508700	0.966400
N251	N25	0.132800	0.923600	0.919400
N261	N26	0.306600	0.919200	0.929100
N271	N27	0.201800	0.825200	0.829200
N281	N28	0.177600	0.759800	0.767500
N291	N29	0.311500	0.727700	0.774200
N301	N30	0.287100	0.663000	0.710400
N311	N31	0.363500	0.571100	0.595500
N321	N32	0.189300	0.576000	0.577400
N331	N33	0.852800	0.996700	0.812400
N341	N34	0.928900	0.993200	0.675000
N351	N35	0.657800	0.996300	0.634200
N361	N36	0.497100	0.999200	0.569100
C131	C13	0.073300	0.867500	0.856900
H131	H13	0.958500	0.857900	0.834400
C141	C14	0.344700	0.859900	0.874400
H141	H14	0.455000	0.843000	0.866900
C151	C15	0.418200	0.623600	0.674600
H151	H15	0.532000	0.632700	0.702600
C161	C16	0.148500	0.631900	0.644800
H161	H16	0.037900	0.648900	0.648300
C171	C17	0.690700	0.998400	0.786400
H171	H17	0.610100	0.000800	0.859800
C181	C18	0.809800	0.993200	0.570700
H181	H18	0.825200	0.991300	0.466400
N371	N37	0.367200	0.423600	0.580600
N381	N38	0.193400	0.419200	0.570900
N391	N39	0.298200	0.325200	0.670800
N401	N40	0.322400	0.259800	0.732500
N411	N41	0.188500	0.227700	0.725800
N421	N42	0.212900	0.163000	0.789600
N431	N43	0.136500	0.071100	0.904500
N441	N44	0.310700	0.076000	0.922600
N451	N45	0.647200	0.496700	0.687600
N461	N46	0.571100	0.493200	0.825000
N471	N47	0.842200	0.496300	0.865800
N481	N48	0.002900	0.499200	0.930900
C191	C19	0.426700	0.367500	0.643100
H191	H19	0.541500	0.357900	0.665600
C201	C20	0.155300	0.359900	0.625600
H201	H20	0.045000	0.343000	0.633100
C211	C21	0.081800	0.123600	0.825400
H211	H21	0.968000	0.132700	0.797400
C221	C22	0.351500	0.131900	0.855200
H221	H22	0.462100	0.148900	0.851700
C231	C23	0.809300	0.498400	0.713600
H231	H23	0.889900	0.500800	0.640200
C241	C24	0.690200	0.493200	0.929300
H241	H24	0.674800	0.491300	0.033600
Fe11	Fe1	0.000000	0.000000	0.000000
Fe21	Fe2	0.500000	0.500000	0.500000
