data_BAXGAK_freeONLY_PM
_symmetry_space_group_name_H-M	'P1'
_cell_length_a	8.011200
_cell_length_b	19.439200
_cell_length_c	8.964800
_cell_angle_alpha	90.000000
_cell_angle_beta	93.382000
_cell_angle_gamma	90.000000
_symmetry_Int_Tables_number 1

loop_
_symmetry_equiv_pos_as_xyz
'x,y,z'

loop_
_atom_site_label
_atom_site_type_symbol
_atom_site_fract_x
_atom_site_fract_y
_atom_site_fract_z
C11	C1	0.690800	0.999140	0.785500
C21	C2	0.809300	0.995510	0.571400
C31	C3	0.423700	0.369600	0.648700
C41	C4	0.151400	0.364170	0.638000
C51	C5	0.077600	0.125640	0.830800
C61	C6	0.347500	0.136740	0.865400
N11	N1	0.852700	0.998030	0.812800
N21	N2	0.928400	0.995560	0.675600
N31	N3	0.657600	0.997740	0.634500
N41	N4	0.497600	0.999510	0.569000
N51	N5	0.133400	0.073090	0.908800
N61	N6	0.307000	0.079550	0.929400
N71	N7	0.207800	0.167020	0.800400
N81	N8	0.183400	0.231470	0.735800
N91	N9	0.365400	0.425590	0.585300
N101	N10	0.190600	0.422590	0.579600
N111	N11	0.293900	0.328580	0.681400
N121	N12	0.316800	0.263860	0.744200
H11	H1	0.612000	0.001000	0.856000
H21	H2	0.830000	0.994200	0.472000
H31	H3	0.534000	0.358000	0.668000
H41	H4	0.043000	0.346800	0.650000
H51	H5	0.973000	0.136400	0.802000
H61	H6	0.460000	0.154200	0.860000
C71	C7	0.809200	0.499140	0.714500
C81	C8	0.690700	0.495510	0.928600
C91	C9	0.076300	0.869600	0.851300
C101	C10	0.348600	0.864170	0.862000
C111	C11	0.422400	0.625640	0.669200
C121	C12	0.152500	0.636740	0.634600
N131	N13	0.647300	0.498030	0.687200
N141	N14	0.571600	0.495560	0.824400
N151	N15	0.842400	0.497740	0.865500
N161	N16	0.002400	0.499510	0.931000
N171	N17	0.366600	0.573090	0.591200
N181	N18	0.193000	0.579550	0.570600
N191	N19	0.292200	0.667020	0.699600
N201	N20	0.316600	0.731470	0.764200
N211	N21	0.134600	0.925590	0.914700
N221	N22	0.309400	0.922590	0.920400
N231	N23	0.206100	0.828580	0.818600
N241	N24	0.183200	0.763860	0.755800
H71	H7	0.888000	0.501000	0.644000
H81	H8	0.670000	0.494200	0.028000
H91	H9	0.966000	0.858000	0.832000
H101	H10	0.457000	0.846800	0.850000
H111	H11	0.527000	0.636400	0.698000
H121	H12	0.040000	0.654200	0.640000
C131	C13	0.309200	0.000860	0.214500
C141	C14	0.190700	0.004490	0.428600
C151	C15	0.576300	0.630400	0.351300
C161	C16	0.848600	0.635830	0.362000
C171	C17	0.922400	0.874360	0.169200
C181	C18	0.652500	0.863260	0.134600
N251	N25	0.147300	0.001970	0.187200
N261	N26	0.071600	0.004440	0.324400
N271	N27	0.342400	0.002260	0.365500
N281	N28	0.502400	0.000490	0.431000
N291	N29	0.866600	0.926910	0.091200
N301	N30	0.693000	0.920450	0.070600
N311	N31	0.792200	0.832980	0.199600
N321	N32	0.816600	0.768530	0.264200
N331	N33	0.634600	0.574410	0.414700
N341	N34	0.809400	0.577410	0.420400
N351	N35	0.706100	0.671420	0.318600
N361	N36	0.683200	0.736140	0.255800
H131	H13	0.388000	0.999000	0.144000
H141	H14	0.170000	0.005800	0.528000
H151	H15	0.466000	0.642000	0.332000
H161	H16	0.957000	0.653200	0.350000
H171	H17	0.027000	0.863600	0.198000
H181	H18	0.540000	0.845800	0.140000
C191	C19	0.190800	0.500860	0.285500
C201	C20	0.309300	0.504490	0.071400
C211	C21	0.923700	0.130400	0.148700
C221	C22	0.651400	0.135830	0.138000
C231	C23	0.577600	0.374360	0.330800
C241	C24	0.847500	0.363260	0.365400
N371	N37	0.352700	0.501970	0.312800
N381	N38	0.428400	0.504440	0.175600
N391	N39	0.157600	0.502260	0.134500
N401	N40	0.997600	0.500490	0.069000
N411	N41	0.633400	0.426910	0.408800
N421	N42	0.807000	0.420450	0.429400
N431	N43	0.707800	0.332980	0.300400
N441	N44	0.683400	0.268530	0.235800
N451	N45	0.865400	0.074410	0.085300
N461	N46	0.690600	0.077410	0.079600
N471	N47	0.793900	0.171420	0.181400
N481	N48	0.816800	0.236140	0.244200
H191	H19	0.112000	0.499000	0.356000
H201	H20	0.330000	0.505800	0.972000
H211	H21	0.034000	0.142000	0.168000
H221	H22	0.543000	0.153200	0.150000
H231	H23	0.473000	0.363600	0.302000
H241	H24	0.960000	0.345800	0.360000
Fe11	Fe1	0.000000	0.000000	0.000000
Fe21	Fe2	0.500000	0.500000	0.500000
