data_BAXSIE_freeONLY_PM
_symmetry_space_group_name_H-M	'P1'
_cell_length_a	8.358700
_cell_length_b	15.225300
_cell_length_c	15.225300
_cell_angle_alpha	90.000000
_cell_angle_beta	90.000000
_cell_angle_gamma	90.000000
_symmetry_Int_Tables_number 1

loop_
_symmetry_equiv_pos_as_xyz
'x,y,z'

loop_
_atom_site_label
_atom_site_type_symbol
_atom_site_fract_x
_atom_site_fract_y
_atom_site_fract_z
Mg11	Mg1	0.370030	0.110570	0.999450
Mg21	Mg2	0.870030	0.889430	0.000550
Mg31	Mg3	0.620030	0.500550	0.610570
Mg41	Mg4	0.120030	0.499450	0.389430
Mg51	Mg5	0.879970	0.389430	0.499450
Mg61	Mg6	0.379970	0.610570	0.500550
Mg71	Mg7	0.629970	0.999450	0.110570
Mg81	Mg8	0.129970	0.000550	0.889430
Mg91	Mg9	0.000000	0.098910	0.098910
Mg101	Mg10	0.000000	0.247480	0.247480
Mg111	Mg11	0.500000	0.901090	0.901090
Mg121	Mg12	0.500000	0.752520	0.752520
Mg131	Mg13	0.250000	0.401090	0.598910
Mg141	Mg14	0.250000	0.252520	0.747480
Mg151	Mg15	0.750000	0.598910	0.401090
Mg161	Mg16	0.750000	0.747480	0.252520
H11	H1	0.920200	0.365800	0.141600
H21	H2	0.870500	0.301900	0.099500
H31	H3	0.922700	0.963000	0.132700
H41	H4	0.541600	0.369500	0.187100
H51	H5	0.420200	0.634200	0.858400
H61	H6	0.370500	0.698100	0.900500
H71	H7	0.422700	0.037000	0.867300
H81	H8	0.041600	0.630500	0.812900
H91	H9	0.170200	0.358400	0.865800
H101	H10	0.120500	0.400500	0.801900
H111	H11	0.172700	0.367300	0.463000
H121	H12	0.791600	0.312900	0.869500
H131	H13	0.670200	0.641600	0.134200
H141	H14	0.620500	0.599500	0.198100
H151	H15	0.672700	0.632700	0.537000
H161	H16	0.291600	0.687100	0.130500
H171	H17	0.329800	0.134200	0.641600
H181	H18	0.379500	0.198100	0.599500
H191	H19	0.327300	0.537000	0.632700
H201	H20	0.708400	0.130500	0.687100
H211	H21	0.829800	0.865800	0.358400
H221	H22	0.879500	0.801900	0.400500
H231	H23	0.827300	0.463000	0.367300
H241	H24	0.208400	0.869500	0.312900
H251	H25	0.079800	0.141600	0.365800
H261	H26	0.129500	0.099500	0.301900
H271	H27	0.077300	0.132700	0.963000
H281	H28	0.458400	0.187100	0.369500
H291	H29	0.579800	0.858400	0.634200
H301	H30	0.629500	0.900500	0.698100
H311	H31	0.577300	0.867300	0.037000
H321	H32	0.958400	0.812900	0.630500
C11	C1	0.274540	0.244220	0.135320
C21	C2	0.459470	0.496250	0.333330
C31	C3	0.384670	0.425230	0.281310
C41	C4	0.306420	0.316770	0.197550
C51	C5	0.436580	0.371680	0.212910
C61	C6	0.774540	0.755780	0.864680
C71	C7	0.959470	0.503750	0.666670
C81	C8	0.884670	0.574770	0.718690
C91	C9	0.806420	0.683230	0.802450
C101	C10	0.936580	0.628320	0.787090
C111	C11	0.524540	0.364680	0.744220
C121	C12	0.709470	0.166670	0.996250
C131	C13	0.634670	0.218690	0.925230
C141	C14	0.556420	0.302450	0.816770
C151	C15	0.686580	0.287090	0.871680
C161	C16	0.024540	0.635320	0.255780
C171	C17	0.209470	0.833330	0.003750
C181	C18	0.134670	0.781310	0.074770
C191	C19	0.056420	0.697550	0.183230
C201	C20	0.186580	0.712910	0.128320
C211	C21	0.975460	0.255780	0.635320
C221	C22	0.790530	0.003750	0.833330
C231	C23	0.865330	0.074770	0.781310
C241	C24	0.943580	0.183230	0.697550
C251	C25	0.813420	0.128320	0.712910
C261	C26	0.475460	0.744220	0.364680
C271	C27	0.290530	0.996250	0.166670
C281	C28	0.365330	0.925230	0.218690
C291	C29	0.443580	0.816770	0.302450
C301	C30	0.313420	0.871680	0.287090
C311	C31	0.725460	0.135320	0.244220
C321	C32	0.540530	0.333330	0.496250
C331	C33	0.615330	0.281310	0.425230
C341	C34	0.693580	0.197550	0.316770
C351	C35	0.563420	0.212910	0.371680
C361	C36	0.225460	0.864680	0.755780
C371	C37	0.040530	0.666670	0.503750
C381	C38	0.115330	0.718690	0.574770
C391	C39	0.193580	0.802450	0.683230
C401	C40	0.063420	0.787090	0.628320
N11	N1	0.232540	0.403920	0.304260
N21	N2	0.185270	0.337630	0.253390
N31	N3	0.732540	0.596080	0.695740
N41	N4	0.685270	0.662370	0.746610
N51	N5	0.482540	0.195740	0.903920
N61	N6	0.435270	0.246610	0.837630
N71	N7	0.982540	0.804260	0.096080
N81	N8	0.935270	0.753390	0.162370
N91	N9	0.017460	0.096080	0.804260
N101	N10	0.064730	0.162370	0.753390
N111	N11	0.517460	0.903920	0.195740
N121	N12	0.564730	0.837630	0.246610
N131	N13	0.767460	0.304260	0.403920
N141	N14	0.814730	0.253390	0.337630
N151	N15	0.267460	0.695740	0.596080
N161	N16	0.314730	0.746610	0.662370
O11	O1	0.371820	0.225420	0.076480
O21	O2	0.870340	0.986600	0.096930
O31	O3	0.140830	0.204800	0.146470
O41	O4	0.372430	0.525760	0.396010
O51	O5	0.876610	0.328550	0.153100
O61	O6	0.597760	0.522170	0.317090
O71	O7	0.871820	0.774580	0.923520
O81	O8	0.370340	0.013400	0.903070
O91	O9	0.640830	0.795200	0.853530
O101	O10	0.872430	0.474240	0.603990
O111	O11	0.376610	0.671450	0.846900
O121	O12	0.097760	0.477830	0.682910
O131	O13	0.621820	0.423520	0.725420
O141	O14	0.120340	0.403070	0.486600
O151	O15	0.390830	0.353530	0.704800
O161	O16	0.622430	0.103990	0.025760
O171	O17	0.126610	0.346900	0.828550
O181	O18	0.847760	0.182910	0.022170
O191	O19	0.121820	0.576480	0.274580
O201	O20	0.620340	0.596930	0.513400
O211	O21	0.890830	0.646470	0.295200
O221	O22	0.122430	0.896010	0.974240
O231	O23	0.626610	0.653100	0.171450
O241	O24	0.347760	0.817090	0.977830
O251	O25	0.878180	0.274580	0.576480
O261	O26	0.379660	0.513400	0.596930
O271	O27	0.109170	0.295200	0.646470
O281	O28	0.877570	0.974240	0.896010
O291	O29	0.373390	0.171450	0.653100
O301	O30	0.652240	0.977830	0.817090
O311	O31	0.378180	0.725420	0.423520
O321	O32	0.879660	0.486600	0.403070
O331	O33	0.609170	0.704800	0.353530
O341	O34	0.377570	0.025760	0.103990
O351	O35	0.873390	0.828550	0.346900
O361	O36	0.152240	0.022170	0.182910
O371	O37	0.628180	0.076480	0.225420
O381	O38	0.129660	0.096930	0.986600
O391	O39	0.859170	0.146470	0.204800
O401	O40	0.627570	0.396010	0.525760
O411	O41	0.123390	0.153100	0.328550
O421	O42	0.402240	0.317090	0.522170
O431	O43	0.128180	0.923520	0.774580
O441	O44	0.629660	0.903070	0.013400
O451	O45	0.359170	0.853530	0.795200
O461	O46	0.127570	0.603990	0.474240
O471	O47	0.623390	0.846900	0.671450
O481	O48	0.902240	0.682910	0.477830
