data_BAYCUA_freeONLY_PM
_symmetry_space_group_name_H-M	'P1'
_cell_length_a	32.099000
_cell_length_b	12.916000
_cell_length_c	21.431000
_cell_angle_alpha	90.000000
_cell_angle_beta	126.740000
_cell_angle_gamma	90.000000
_symmetry_Int_Tables_number 1

loop_
_symmetry_equiv_pos_as_xyz
'x,y,z'

loop_
_atom_site_label
_atom_site_type_symbol
_atom_site_fract_x
_atom_site_fract_y
_atom_site_fract_z
Ag11	Ag1	0.173730	0.018810	0.915460
Ag21	Ag2	0.270200	0.014450	0.106420
Ag31	Ag3	0.110350	0.799640	0.101960
O11	O1	0.004900	0.501200	0.799300
H11	H1	0.037500	0.501200	0.851900
H21	H2	0.977400	0.501200	0.806600
O21	O2	0.268560	0.983400	0.997900
H31	H3	0.277400	0.912900	0.994300
H41	H4	0.288500	0.033800	0.991300
O31	O3	0.335000	0.917400	0.212500
O41	O4	0.278100	0.791800	0.168700
O51	O5	0.289080	0.569600	0.375000
O61	O6	0.324800	0.660500	0.483300
O71	O7	0.440100	0.596700	0.553200
O81	O8	0.449650	0.760700	0.592000
O91	O9	0.450500	0.958600	0.358600
O101	O10	0.443600	0.809500	0.300600
N11	N1	0.076380	0.736300	0.868400
N21	N2	0.117600	0.780500	0.004100
N31	N3	0.145290	0.868100	0.932900
N41	N4	0.166890	0.686400	0.968800
C11	C1	0.136100	0.879000	0.992000
H51	H5	0.167600	0.900800	0.040300
H61	H6	0.110300	0.931500	0.975600
C21	C2	0.157900	0.700300	0.028000
H71	H7	0.146100	0.635900	0.034800
H81	H8	0.189800	0.718800	0.077100
C31	C3	0.068900	0.748900	0.928700
H91	H9	0.057000	0.684900	0.935700
H101	H10	0.042800	0.800900	0.912300
C41	C4	0.095700	0.833400	0.859000
H111	H11	0.069900	0.885900	0.842500
H121	H12	0.100400	0.825400	0.819000
C51	C5	0.117100	0.656500	0.893900
H131	H13	0.122100	0.646700	0.854300
H141	H14	0.105400	0.592100	0.900900
C61	C6	0.184200	0.786000	0.957900
H151	H15	0.216200	0.806300	0.006200
H161	H16	0.190700	0.777900	0.919900
N51	N5	0.879320	0.235200	0.786300
N61	N6	0.922710	0.287500	0.728100
N71	N7	0.851730	0.161500	0.662300
N81	N8	0.833560	0.342800	0.669000
C71	C7	0.859400	0.142200	0.736600
H171	H17	0.826500	0.124700	0.725400
H181	H18	0.882600	0.084900	0.763500
C81	C8	0.929300	0.267000	0.801000
H191	H19	0.954200	0.212200	0.828300
H201	H20	0.942800	0.327600	0.833400
C91	C9	0.841800	0.321100	0.743300
H211	H21	0.854000	0.382400	0.774900
H221	H22	0.809200	0.301400	0.732500
C101	C10	0.883300	0.370900	0.686100
H231	H23	0.878200	0.385300	0.638000
H241	H24	0.896000	0.432900	0.716900
C111	C11	0.814000	0.248000	0.621600
H251	H25	0.781800	0.228400	0.612000
H261	H26	0.807500	0.260900	0.572400
C121	C12	0.901800	0.193300	0.679200
H271	H27	0.926300	0.137800	0.705600
H281	H28	0.896900	0.205700	0.631000
C131	C13	0.318400	0.838400	0.222400
C141	C14	0.319700	0.638000	0.422700
C151	C15	0.432500	0.692500	0.541200
C161	C16	0.433500	0.867700	0.335500
C171	C17	0.349000	0.794000	0.303300
C181	C18	0.324300	0.733100	0.325000
H291	H29	0.288800	0.713000	0.286500
C191	C19	0.349700	0.700100	0.401500
C201	C20	0.401800	0.728300	0.457200
C211	C21	0.426500	0.786800	0.435100
H301	H30	0.462200	0.805600	0.473600
C221	C22	0.401500	0.820200	0.358600
Ag41	Ag4	0.673730	0.518810	0.915460
Ag51	Ag5	0.770200	0.514450	0.106420
Ag61	Ag6	0.610350	0.299640	0.101960
O111	O11	0.504900	0.001200	0.799300
H311	H31	0.537500	0.001200	0.851900
H321	H32	0.477400	0.001200	0.806600
O121	O12	0.768560	0.483400	0.997900
H331	H33	0.777400	0.412900	0.994300
H341	H34	0.788500	0.533800	0.991300
O131	O13	0.835000	0.417400	0.212500
O141	O14	0.778100	0.291800	0.168700
O151	O15	0.789080	0.069600	0.375000
O161	O16	0.824800	0.160500	0.483300
O171	O17	0.940100	0.096700	0.553200
O181	O18	0.949650	0.260700	0.592000
O191	O19	0.950500	0.458600	0.358600
O201	O20	0.943600	0.309500	0.300600
N91	N9	0.576380	0.236300	0.868400
N101	N10	0.617600	0.280500	0.004100
N111	N11	0.645290	0.368100	0.932900
N121	N12	0.666890	0.186400	0.968800
C231	C23	0.636100	0.379000	0.992000
H351	H35	0.667600	0.400800	0.040300
H361	H36	0.610300	0.431500	0.975600
C241	C24	0.657900	0.200300	0.028000
H371	H37	0.646100	0.135900	0.034800
H381	H38	0.689800	0.218800	0.077100
C251	C25	0.568900	0.248900	0.928700
H391	H39	0.557000	0.184900	0.935700
H401	H40	0.542800	0.300900	0.912300
C261	C26	0.595700	0.333400	0.859000
H411	H41	0.569900	0.385900	0.842500
H421	H42	0.600400	0.325400	0.819000
C271	C27	0.617100	0.156500	0.893900
H431	H43	0.622100	0.146700	0.854300
H441	H44	0.605400	0.092100	0.900900
C281	C28	0.684200	0.286000	0.957900
H451	H45	0.716200	0.306300	0.006200
H461	H46	0.690700	0.277900	0.919900
N131	N13	0.379320	0.735200	0.786300
N141	N14	0.422710	0.787500	0.728100
N151	N15	0.351730	0.661500	0.662300
N161	N16	0.333560	0.842800	0.669000
C291	C29	0.359400	0.642200	0.736600
H471	H47	0.326500	0.624700	0.725400
H481	H48	0.382600	0.584900	0.763500
C301	C30	0.429300	0.767000	0.801000
H491	H49	0.454200	0.712200	0.828300
H501	H50	0.442800	0.827600	0.833400
C311	C31	0.341800	0.821100	0.743300
H511	H51	0.354000	0.882400	0.774900
H521	H52	0.309200	0.801400	0.732500
C321	C32	0.383300	0.870900	0.686100
H531	H53	0.378200	0.885300	0.638000
H541	H54	0.396000	0.932900	0.716900
C331	C33	0.314000	0.748000	0.621600
H551	H55	0.281800	0.728400	0.612000
H561	H56	0.307500	0.760900	0.572400
C341	C34	0.401800	0.693300	0.679200
H571	H57	0.426300	0.637800	0.705600
H581	H58	0.396900	0.705700	0.631000
C351	C35	0.818400	0.338400	0.222400
C361	C36	0.819700	0.138000	0.422700
C371	C37	0.932500	0.192500	0.541200
C381	C38	0.933500	0.367700	0.335500
C391	C39	0.849000	0.294000	0.303300
C401	C40	0.824300	0.233100	0.325000
H591	H59	0.788800	0.213000	0.286500
C411	C41	0.849700	0.200100	0.401500
C421	C42	0.901800	0.228300	0.457200
C431	C43	0.926500	0.286800	0.435100
H601	H60	0.962200	0.305600	0.473600
C441	C44	0.901500	0.320200	0.358600
Ag71	Ag7	0.826270	0.018810	0.584540
Ag81	Ag8	0.729800	0.014450	0.393580
Ag91	Ag9	0.889650	0.799640	0.398040
O211	O21	0.995100	0.501200	0.700700
H611	H61	0.962500	0.501200	0.648100
H621	H62	0.022600	0.501200	0.693400
O221	O22	0.731440	0.983400	0.502100
H631	H63	0.722600	0.912900	0.505700
H641	H64	0.711500	0.033800	0.508700
O231	O23	0.665000	0.917400	0.287500
O241	O24	0.721900	0.791800	0.331300
O251	O25	0.710920	0.569600	0.125000
O261	O26	0.675200	0.660500	0.016700
O271	O27	0.559900	0.596700	0.946800
O281	O28	0.550350	0.760700	0.908000
O291	O29	0.549500	0.958600	0.141400
O301	O30	0.556400	0.809500	0.199400
N171	N17	0.923620	0.736300	0.631600
N181	N18	0.882400	0.780500	0.495900
N191	N19	0.854710	0.868100	0.567100
N201	N20	0.833110	0.686400	0.531200
C451	C45	0.863900	0.879000	0.508000
H651	H65	0.832400	0.900800	0.459700
H661	H66	0.889700	0.931500	0.524400
C461	C46	0.842100	0.700300	0.472000
H671	H67	0.853900	0.635900	0.465200
H681	H68	0.810200	0.718800	0.422900
C471	C47	0.931100	0.748900	0.571300
H691	H69	0.943000	0.684900	0.564300
H701	H70	0.957200	0.800900	0.587700
C481	C48	0.904300	0.833400	0.641000
H711	H71	0.930100	0.885900	0.657500
H721	H72	0.899600	0.825400	0.681000
C491	C49	0.882900	0.656500	0.606100
H731	H73	0.877900	0.646700	0.645700
H741	H74	0.894600	0.592100	0.599100
C501	C50	0.815800	0.786000	0.542100
H751	H75	0.783800	0.806300	0.493800
H761	H76	0.809300	0.777900	0.580100
N211	N21	0.120680	0.235200	0.713700
N221	N22	0.077290	0.287500	0.771900
N231	N23	0.148270	0.161500	0.837700
N241	N24	0.166440	0.342800	0.831000
C511	C51	0.140600	0.142200	0.763400
H771	H77	0.173500	0.124700	0.774600
H781	H78	0.117400	0.084900	0.736500
C521	C52	0.070700	0.267000	0.699000
H791	H79	0.045800	0.212200	0.671700
H801	H80	0.057200	0.327600	0.666600
C531	C53	0.158200	0.321100	0.756700
H811	H81	0.146000	0.382400	0.725100
H821	H82	0.190800	0.301400	0.767500
C541	C54	0.116700	0.370900	0.813900
H831	H83	0.121800	0.385300	0.862000
H841	H84	0.104000	0.432900	0.783100
C551	C55	0.186000	0.248000	0.878400
H851	H85	0.218200	0.228400	0.888000
H861	H86	0.192500	0.260900	0.927600
C561	C56	0.098200	0.193300	0.820800
H871	H87	0.073700	0.137800	0.794400
H881	H88	0.103100	0.205700	0.869000
C571	C57	0.681600	0.838400	0.277600
C581	C58	0.680300	0.638000	0.077300
C591	C59	0.567500	0.692500	0.958800
C601	C60	0.566500	0.867700	0.164500
C611	C61	0.651000	0.794000	0.196700
C621	C62	0.675700	0.733100	0.175000
H891	H89	0.711200	0.713000	0.213500
C631	C63	0.650300	0.700100	0.098500
C641	C64	0.598200	0.728300	0.042800
C651	C65	0.573500	0.786800	0.064900
H901	H90	0.537800	0.805600	0.026400
C661	C66	0.598500	0.820200	0.141400
Ag101	Ag10	0.326270	0.518810	0.584540
Ag111	Ag11	0.229800	0.514450	0.393580
Ag121	Ag12	0.389650	0.299640	0.398040
O311	O31	0.495100	0.001200	0.700700
H911	H91	0.462500	0.001200	0.648100
H921	H92	0.522600	0.001200	0.693400
O321	O32	0.231440	0.483400	0.502100
H931	H93	0.222600	0.412900	0.505700
H941	H94	0.211500	0.533800	0.508700
O331	O33	0.165000	0.417400	0.287500
O341	O34	0.221900	0.291800	0.331300
O351	O35	0.210920	0.069600	0.125000
O361	O36	0.175200	0.160500	0.016700
O371	O37	0.059900	0.096700	0.946800
O381	O38	0.050350	0.260700	0.908000
O391	O39	0.049500	0.458600	0.141400
O401	O40	0.056400	0.309500	0.199400
N251	N25	0.423620	0.236300	0.631600
N261	N26	0.382400	0.280500	0.495900
N271	N27	0.354710	0.368100	0.567100
N281	N28	0.333110	0.186400	0.531200
C671	C67	0.363900	0.379000	0.508000
H951	H95	0.332400	0.400800	0.459700
H961	H96	0.389700	0.431500	0.524400
C681	C68	0.342100	0.200300	0.472000
H971	H97	0.353900	0.135900	0.465200
H981	H98	0.310200	0.218800	0.422900
C691	C69	0.431100	0.248900	0.571300
H991	H99	0.443000	0.184900	0.564300
H1001	H100	0.457200	0.300900	0.587700
C701	C70	0.404300	0.333400	0.641000
H1011	H101	0.430100	0.385900	0.657500
H1021	H102	0.399600	0.325400	0.681000
C711	C71	0.382900	0.156500	0.606100
H1031	H103	0.377900	0.146700	0.645700
H1041	H104	0.394600	0.092100	0.599100
C721	C72	0.315800	0.286000	0.542100
H1051	H105	0.283800	0.306300	0.493800
H1061	H106	0.309300	0.277900	0.580100
N291	N29	0.620680	0.735200	0.713700
N301	N30	0.577290	0.787500	0.771900
N311	N31	0.648270	0.661500	0.837700
N321	N32	0.666440	0.842800	0.831000
C731	C73	0.640600	0.642200	0.763400
H1071	H107	0.673500	0.624700	0.774600
H1081	H108	0.617400	0.584900	0.736500
C741	C74	0.570700	0.767000	0.699000
H1091	H109	0.545800	0.712200	0.671700
H1101	H110	0.557200	0.827600	0.666600
C751	C75	0.658200	0.821100	0.756700
H1111	H111	0.646000	0.882400	0.725100
H1121	H112	0.690800	0.801400	0.767500
C761	C76	0.616700	0.870900	0.813900
H1131	H113	0.621800	0.885300	0.862000
H1141	H114	0.604000	0.932900	0.783100
C771	C77	0.686000	0.748000	0.878400
H1151	H115	0.718200	0.728400	0.888000
H1161	H116	0.692500	0.760900	0.927600
C781	C78	0.598200	0.693300	0.820800
H1171	H117	0.573700	0.637800	0.794400
H1181	H118	0.603100	0.705700	0.869000
C791	C79	0.181600	0.338400	0.277600
C801	C80	0.180300	0.138000	0.077300
C811	C81	0.067500	0.192500	0.958800
C821	C82	0.066500	0.367700	0.164500
C831	C83	0.151000	0.294000	0.196700
C841	C84	0.175700	0.233100	0.175000
H1191	H119	0.211200	0.213000	0.213500
C851	C85	0.150300	0.200100	0.098500
C861	C86	0.098200	0.228300	0.042800
C871	C87	0.073500	0.286800	0.064900
H1201	H120	0.037800	0.305600	0.026400
C881	C88	0.098500	0.320200	0.141400
Ag131	Ag13	0.826270	0.981190	0.084540
Ag141	Ag14	0.729800	0.985550	0.893580
Ag151	Ag15	0.889650	0.200360	0.898040
O411	O41	0.995100	0.498800	0.200700
H1211	H121	0.962500	0.498800	0.148100
H1221	H122	0.022600	0.498800	0.193400
O421	O42	0.731440	0.016600	0.002100
H1231	H123	0.722600	0.087100	0.005700
H1241	H124	0.711500	0.966200	0.008700
O431	O43	0.665000	0.082600	0.787500
O441	O44	0.721900	0.208200	0.831300
O451	O45	0.710920	0.430400	0.625000
O461	O46	0.675200	0.339500	0.516700
O471	O47	0.559900	0.403300	0.446800
O481	O48	0.550350	0.239300	0.408000
O491	O49	0.549500	0.041400	0.641400
O501	O50	0.556400	0.190500	0.699400
N331	N33	0.923620	0.263700	0.131600
N341	N34	0.882400	0.219500	0.995900
N351	N35	0.854710	0.131900	0.067100
N361	N36	0.833110	0.313600	0.031200
C891	C89	0.863900	0.121000	0.008000
H1251	H125	0.832400	0.099200	0.959700
H1261	H126	0.889700	0.068500	0.024400
C901	C90	0.842100	0.299700	0.972000
H1271	H127	0.853900	0.364100	0.965200
H1281	H128	0.810200	0.281200	0.922900
C911	C91	0.931100	0.251100	0.071300
H1291	H129	0.943000	0.315100	0.064300
H1301	H130	0.957200	0.199100	0.087700
C921	C92	0.904300	0.166600	0.141000
H1311	H131	0.930100	0.114100	0.157500
H1321	H132	0.899600	0.174600	0.181000
C931	C93	0.882900	0.343500	0.106100
H1331	H133	0.877900	0.353300	0.145700
H1341	H134	0.894600	0.407900	0.099100
C941	C94	0.815800	0.214000	0.042100
H1351	H135	0.783800	0.193700	0.993800
H1361	H136	0.809300	0.222100	0.080100
N371	N37	0.120680	0.764800	0.213700
N381	N38	0.077290	0.712500	0.271900
N391	N39	0.148270	0.838500	0.337700
N401	N40	0.166440	0.657200	0.331000
C951	C95	0.140600	0.857800	0.263400
H1371	H137	0.173500	0.875300	0.274600
H1381	H138	0.117400	0.915100	0.236500
C961	C96	0.070700	0.733000	0.199000
H1391	H139	0.045800	0.787800	0.171700
H1401	H140	0.057200	0.672400	0.166600
C971	C97	0.158200	0.678900	0.256700
H1411	H141	0.146000	0.617600	0.225100
H1421	H142	0.190800	0.698600	0.267500
C981	C98	0.116700	0.629100	0.313900
H1431	H143	0.121800	0.614700	0.362000
H1441	H144	0.104000	0.567100	0.283100
C991	C99	0.186000	0.752000	0.378400
H1451	H145	0.218200	0.771600	0.388000
H1461	H146	0.192500	0.739100	0.427600
C1001	C100	0.098200	0.806700	0.320800
H1471	H147	0.073700	0.862200	0.294400
H1481	H148	0.103100	0.794300	0.369000
C1011	C101	0.681600	0.161600	0.777600
C1021	C102	0.680300	0.362000	0.577300
C1031	C103	0.567500	0.307500	0.458800
C1041	C104	0.566500	0.132300	0.664500
C1051	C105	0.651000	0.206000	0.696700
C1061	C106	0.675700	0.266900	0.675000
H1491	H149	0.711200	0.287000	0.713500
C1071	C107	0.650300	0.299900	0.598500
C1081	C108	0.598200	0.271700	0.542800
C1091	C109	0.573500	0.213200	0.564900
H1501	H150	0.537800	0.194400	0.526400
C1101	C110	0.598500	0.179800	0.641400
Ag161	Ag16	0.326270	0.481190	0.084540
Ag171	Ag17	0.229800	0.485550	0.893580
Ag181	Ag18	0.389650	0.700360	0.898040
O511	O51	0.495100	0.998800	0.200700
H1511	H151	0.462500	0.998800	0.148100
H1521	H152	0.522600	0.998800	0.193400
O521	O52	0.231440	0.516600	0.002100
H1531	H153	0.222600	0.587100	0.005700
H1541	H154	0.211500	0.466200	0.008700
O531	O53	0.165000	0.582600	0.787500
O541	O54	0.221900	0.708200	0.831300
O551	O55	0.210920	0.930400	0.625000
O561	O56	0.175200	0.839500	0.516700
O571	O57	0.059900	0.903300	0.446800
O581	O58	0.050350	0.739300	0.408000
O591	O59	0.049500	0.541400	0.641400
O601	O60	0.056400	0.690500	0.699400
N411	N41	0.423620	0.763700	0.131600
N421	N42	0.382400	0.719500	0.995900
N431	N43	0.354710	0.631900	0.067100
N441	N44	0.333110	0.813600	0.031200
C1111	C111	0.363900	0.621000	0.008000
H1551	H155	0.332400	0.599200	0.959700
H1561	H156	0.389700	0.568500	0.024400
C1121	C112	0.342100	0.799700	0.972000
H1571	H157	0.353900	0.864100	0.965200
H1581	H158	0.310200	0.781200	0.922900
C1131	C113	0.431100	0.751100	0.071300
H1591	H159	0.443000	0.815100	0.064300
H1601	H160	0.457200	0.699100	0.087700
C1141	C114	0.404300	0.666600	0.141000
H1611	H161	0.430100	0.614100	0.157500
H1621	H162	0.399600	0.674600	0.181000
C1151	C115	0.382900	0.843500	0.106100
H1631	H163	0.377900	0.853300	0.145700
H1641	H164	0.394600	0.907900	0.099100
C1161	C116	0.315800	0.714000	0.042100
H1651	H165	0.283800	0.693700	0.993800
H1661	H166	0.309300	0.722100	0.080100
N451	N45	0.620680	0.264800	0.213700
N461	N46	0.577290	0.212500	0.271900
N471	N47	0.648270	0.338500	0.337700
N481	N48	0.666440	0.157200	0.331000
C1171	C117	0.640600	0.357800	0.263400
H1671	H167	0.673500	0.375300	0.274600
H1681	H168	0.617400	0.415100	0.236500
C1181	C118	0.570700	0.233000	0.199000
H1691	H169	0.545800	0.287800	0.171700
H1701	H170	0.557200	0.172400	0.166600
C1191	C119	0.658200	0.178900	0.256700
H1711	H171	0.646000	0.117600	0.225100
H1721	H172	0.690800	0.198600	0.267500
C1201	C120	0.616700	0.129100	0.313900
H1731	H173	0.621800	0.114700	0.362000
H1741	H174	0.604000	0.067100	0.283100
C1211	C121	0.686000	0.252000	0.378400
H1751	H175	0.718200	0.271600	0.388000
H1761	H176	0.692500	0.239100	0.427600
C1221	C122	0.598200	0.306700	0.320800
H1771	H177	0.573700	0.362200	0.294400
H1781	H178	0.603100	0.294300	0.369000
C1231	C123	0.181600	0.661600	0.777600
C1241	C124	0.180300	0.862000	0.577300
C1251	C125	0.067500	0.807500	0.458800
C1261	C126	0.066500	0.632300	0.664500
C1271	C127	0.151000	0.706000	0.696700
C1281	C128	0.175700	0.766900	0.675000
H1791	H179	0.211200	0.787000	0.713500
C1291	C129	0.150300	0.799900	0.598500
C1301	C130	0.098200	0.771700	0.542800
C1311	C131	0.073500	0.713200	0.564900
H1801	H180	0.037800	0.694400	0.526400
C1321	C132	0.098500	0.679800	0.641400
Ag191	Ag19	0.173730	0.981190	0.415460
Ag201	Ag20	0.270200	0.985550	0.606420
Ag211	Ag21	0.110350	0.200360	0.601960
O611	O61	0.004900	0.498800	0.299300
H1811	H181	0.037500	0.498800	0.351900
H1821	H182	0.977400	0.498800	0.306600
O621	O62	0.268560	0.016600	0.497900
H1831	H183	0.277400	0.087100	0.494300
H1841	H184	0.288500	0.966200	0.491300
O631	O63	0.335000	0.082600	0.712500
O641	O64	0.278100	0.208200	0.668700
O651	O65	0.289080	0.430400	0.875000
O661	O66	0.324800	0.339500	0.983300
O671	O67	0.440100	0.403300	0.053200
O681	O68	0.449650	0.239300	0.092000
O691	O69	0.450500	0.041400	0.858600
O701	O70	0.443600	0.190500	0.800600
N491	N49	0.076380	0.263700	0.368400
N501	N50	0.117600	0.219500	0.504100
N511	N51	0.145290	0.131900	0.432900
N521	N52	0.166890	0.313600	0.468800
C1331	C133	0.136100	0.121000	0.492000
H1851	H185	0.167600	0.099200	0.540300
H1861	H186	0.110300	0.068500	0.475600
C1341	C134	0.157900	0.299700	0.528000
H1871	H187	0.146100	0.364100	0.534800
H1881	H188	0.189800	0.281200	0.577100
C1351	C135	0.068900	0.251100	0.428700
H1891	H189	0.057000	0.315100	0.435700
H1901	H190	0.042800	0.199100	0.412300
C1361	C136	0.095700	0.166600	0.359000
H1911	H191	0.069900	0.114100	0.342500
H1921	H192	0.100400	0.174600	0.319000
C1371	C137	0.117100	0.343500	0.393900
H1931	H193	0.122100	0.353300	0.354300
H1941	H194	0.105400	0.407900	0.400900
C1381	C138	0.184200	0.214000	0.457900
H1951	H195	0.216200	0.193700	0.506200
H1961	H196	0.190700	0.222100	0.419900
N531	N53	0.879320	0.764800	0.286300
N541	N54	0.922710	0.712500	0.228100
N551	N55	0.851730	0.838500	0.162300
N561	N56	0.833560	0.657200	0.169000
C1391	C139	0.859400	0.857800	0.236600
H1971	H197	0.826500	0.875300	0.225400
H1981	H198	0.882600	0.915100	0.263500
C1401	C140	0.929300	0.733000	0.301000
H1991	H199	0.954200	0.787800	0.328300
H2001	H200	0.942800	0.672400	0.333400
C1411	C141	0.841800	0.678900	0.243300
H2011	H201	0.854000	0.617600	0.274900
H2021	H202	0.809200	0.698600	0.232500
C1421	C142	0.883300	0.629100	0.186100
H2031	H203	0.878200	0.614700	0.138000
H2041	H204	0.896000	0.567100	0.216900
C1431	C143	0.814000	0.752000	0.121600
H2051	H205	0.781800	0.771600	0.112000
H2061	H206	0.807500	0.739100	0.072400
C1441	C144	0.901800	0.806700	0.179200
H2071	H207	0.926300	0.862200	0.205600
H2081	H208	0.896900	0.794300	0.131000
C1451	C145	0.318400	0.161600	0.722400
C1461	C146	0.319700	0.362000	0.922700
C1471	C147	0.432500	0.307500	0.041200
C1481	C148	0.433500	0.132300	0.835500
C1491	C149	0.349000	0.206000	0.803300
C1501	C150	0.324300	0.266900	0.825000
H2091	H209	0.288800	0.287000	0.786500
C1511	C151	0.349700	0.299900	0.901500
C1521	C152	0.401800	0.271700	0.957200
C1531	C153	0.426500	0.213200	0.935100
H2101	H210	0.462200	0.194400	0.973600
C1541	C154	0.401500	0.179800	0.858600
Ag221	Ag22	0.673730	0.481190	0.415460
Ag231	Ag23	0.770200	0.485550	0.606420
Ag241	Ag24	0.610350	0.700360	0.601960
O711	O71	0.504900	0.998800	0.299300
H2111	H211	0.537500	0.998800	0.351900
H2121	H212	0.477400	0.998800	0.306600
O721	O72	0.768560	0.516600	0.497900
H2131	H213	0.777400	0.587100	0.494300
H2141	H214	0.788500	0.466200	0.491300
O731	O73	0.835000	0.582600	0.712500
O741	O74	0.778100	0.708200	0.668700
O751	O75	0.789080	0.930400	0.875000
O761	O76	0.824800	0.839500	0.983300
O771	O77	0.940100	0.903300	0.053200
O781	O78	0.949650	0.739300	0.092000
O791	O79	0.950500	0.541400	0.858600
O801	O80	0.943600	0.690500	0.800600
N571	N57	0.576380	0.763700	0.368400
N581	N58	0.617600	0.719500	0.504100
N591	N59	0.645290	0.631900	0.432900
N601	N60	0.666890	0.813600	0.468800
C1551	C155	0.636100	0.621000	0.492000
H2151	H215	0.667600	0.599200	0.540300
H2161	H216	0.610300	0.568500	0.475600
C1561	C156	0.657900	0.799700	0.528000
H2171	H217	0.646100	0.864100	0.534800
H2181	H218	0.689800	0.781200	0.577100
C1571	C157	0.568900	0.751100	0.428700
H2191	H219	0.557000	0.815100	0.435700
H2201	H220	0.542800	0.699100	0.412300
C1581	C158	0.595700	0.666600	0.359000
H2211	H221	0.569900	0.614100	0.342500
H2221	H222	0.600400	0.674600	0.319000
C1591	C159	0.617100	0.843500	0.393900
H2231	H223	0.622100	0.853300	0.354300
H2241	H224	0.605400	0.907900	0.400900
C1601	C160	0.684200	0.714000	0.457900
H2251	H225	0.716200	0.693700	0.506200
H2261	H226	0.690700	0.722100	0.419900
N611	N61	0.379320	0.264800	0.286300
N621	N62	0.422710	0.212500	0.228100
N631	N63	0.351730	0.338500	0.162300
N641	N64	0.333560	0.157200	0.169000
C1611	C161	0.359400	0.357800	0.236600
H2271	H227	0.326500	0.375300	0.225400
H2281	H228	0.382600	0.415100	0.263500
C1621	C162	0.429300	0.233000	0.301000
H2291	H229	0.454200	0.287800	0.328300
H2301	H230	0.442800	0.172400	0.333400
C1631	C163	0.341800	0.178900	0.243300
H2311	H231	0.354000	0.117600	0.274900
H2321	H232	0.309200	0.198600	0.232500
C1641	C164	0.383300	0.129100	0.186100
H2331	H233	0.378200	0.114700	0.138000
H2341	H234	0.396000	0.067100	0.216900
C1651	C165	0.314000	0.252000	0.121600
H2351	H235	0.281800	0.271600	0.112000
H2361	H236	0.307500	0.239100	0.072400
C1661	C166	0.401800	0.306700	0.179200
H2371	H237	0.426300	0.362200	0.205600
H2381	H238	0.396900	0.294300	0.131000
C1671	C167	0.818400	0.661600	0.722400
C1681	C168	0.819700	0.862000	0.922700
C1691	C169	0.932500	0.807500	0.041200
C1701	C170	0.933500	0.632300	0.835500
C1711	C171	0.849000	0.706000	0.803300
C1721	C172	0.824300	0.766900	0.825000
H2391	H239	0.788800	0.787000	0.786500
C1731	C173	0.849700	0.799900	0.901500
C1741	C174	0.901800	0.771700	0.957200
C1751	C175	0.926500	0.713200	0.935100
H2401	H240	0.962200	0.694400	0.973600
C1761	C176	0.901500	0.679800	0.858600
Ag251	Ag25	0.000000	0.679890	0.750000
Ag261	Ag26	0.000000	0.322200	0.750000
Ag271	Ag27	0.500000	0.179890	0.750000
Ag281	Ag28	0.500000	0.822200	0.750000
Ag291	Ag29	0.000000	0.320110	0.250000
Ag301	Ag30	0.000000	0.677800	0.250000
Ag311	Ag31	0.500000	0.820110	0.250000
Ag321	Ag32	0.500000	0.177800	0.250000
