data_BEFGEA_manual_PM
_symmetry_space_group_name_H-M	'P1'
_cell_length_a	17.483000
_cell_length_b	26.479700
_cell_length_c	26.479700
_cell_angle_alpha	120.000000
_cell_angle_beta	90.000000
_cell_angle_gamma	90.000000
_symmetry_Int_Tables_number 1

loop_
_symmetry_equiv_pos_as_xyz
'x,y,z'

loop_
_atom_site_label
_atom_site_type_symbol
_atom_site_fract_x
_atom_site_fract_y
_atom_site_fract_z
In11	In1	0.749030	0.393030	0.333780
In21	In2	0.752480	0.941580	0.608660
In31	In3	0.747990	0.665230	0.058120
In41	In4	0.252420	0.057880	0.665290
In51	In5	0.251990	0.333550	0.392320
In61	In6	0.247620	0.607980	0.941160
H11	H1	0.811010	0.155360	0.062000
H21	H2	0.811130	0.254020	0.145410
H31	H3	0.838490	0.387770	0.498150
H41	H4	0.837000	0.419560	0.602450
H51	H5	0.664760	0.547580	0.630300
H61	H6	0.666250	0.515300	0.525780
H71	H7	0.627060	0.512590	0.696910
H81	H8	0.539730	0.478200	0.737370
H91	H9	0.414650	0.498380	0.784520
H101	H10	0.513120	0.636140	0.942770
H111	H11	0.638330	0.617830	0.895100
H121	H12	0.815150	0.906730	0.846110
H131	H13	0.815600	0.891860	0.747540
H141	H14	0.842740	0.110650	0.612830
H151	H15	0.840820	0.183220	0.581110
H161	H16	0.663620	0.085760	0.456820
H171	H17	0.665820	0.013200	0.488790
H181	H18	0.629000	0.189420	0.492910
H191	H19	0.544500	0.266640	0.528240
H201	H20	0.419940	0.295720	0.509260
H211	H21	0.517790	0.311710	0.368660
H221	H22	0.642280	0.280930	0.386170
H231	H23	0.802130	0.942010	0.101290
H241	H24	0.801460	0.858390	0.116190
H251	H25	0.627930	0.301590	0.808410
H261	H26	0.545760	0.259410	0.729880
H271	H27	0.421160	0.211440	0.700480
H281	H28	0.517920	0.055360	0.686450
H291	H29	0.642350	0.103580	0.717610
H301	H30	0.673050	0.197260	0.242530
H311	H31	0.668770	0.098700	0.157860
H321	H32	0.872030	0.505930	0.697280
H331	H33	0.954470	0.469950	0.739760
H341	H34	0.079150	0.488950	0.787690
H351	H35	0.982500	0.631860	0.943160
H361	H36	0.858040	0.614410	0.894990
H371	H37	0.675940	0.044950	0.804300
H381	H38	0.671240	0.058380	0.902610
H391	H39	0.874160	0.188580	0.492370
H401	H40	0.959900	0.264680	0.526570
H411	H41	0.085080	0.290750	0.505430
H421	H42	0.987030	0.305830	0.364350
H431	H43	0.861870	0.277180	0.383560
H441	H44	0.689870	0.754830	0.950570
H451	H45	0.683800	0.839430	0.937220
H461	H46	0.668590	0.501430	0.886250
H471	H47	0.670090	0.396980	0.813990
H481	H48	0.827050	0.367180	0.921970
H491	H49	0.824800	0.471950	0.994540
H501	H50	0.872690	0.302000	0.817400
H511	H51	0.960190	0.262250	0.741540
H521	H52	0.085360	0.215100	0.713890
H531	H53	0.987400	0.056550	0.693020
H541	H54	0.862230	0.104220	0.723020
H551	H55	0.185320	0.951860	0.756880
H561	H56	0.183190	0.938490	0.841860
H571	H57	0.371260	0.809110	0.301310
H581	H58	0.454430	0.731500	0.259020
H591	H59	0.578970	0.702800	0.211160
H601	H60	0.481990	0.688680	0.055090
H611	H61	0.357480	0.719490	0.103340
H621	H62	0.312180	0.060610	0.155740
H631	H63	0.311560	0.144170	0.254330
H641	H64	0.179360	0.242400	0.195640
H651	H65	0.175990	0.157700	0.097080
H661	H66	0.374500	0.696660	0.508510
H671	H67	0.460410	0.738460	0.474320
H681	H68	0.585630	0.785610	0.495550
H691	H69	0.487500	0.941900	0.636390
H701	H70	0.362300	0.894110	0.617090
H711	H71	0.184530	0.842630	0.902280
H721	H72	0.187930	0.744110	0.887450
H731	H73	0.158550	0.613370	0.110850
H741	H74	0.159810	0.581640	0.183410
H751	H75	0.332190	0.453650	0.083510
H761	H76	0.330870	0.485830	0.011180
H771	H77	0.369830	0.488970	0.185220
H781	H78	0.456940	0.524040	0.260790
H791	H79	0.582200	0.503730	0.287550
H801	H80	0.484140	0.364890	0.306450
H811	H81	0.358940	0.383220	0.277060
H821	H82	0.315370	0.096380	0.938940
H831	H83	0.313630	0.110840	0.854970
H841	H84	0.338970	0.887830	0.499830
H851	H85	0.336470	0.815700	0.395440
H861	H86	0.163420	0.916340	0.369140
H871	H87	0.166150	0.988420	0.473790
H881	H88	0.126060	0.813840	0.301040
H891	H89	0.041270	0.735540	0.258560
H901	H90	0.917190	0.706170	0.210140
H911	H91	0.014640	0.692850	0.054540
H921	H92	0.138940	0.724450	0.103620
H931	H93	0.342220	0.498230	0.387880
H941	H94	0.340610	0.602500	0.419560
H951	H95	0.164210	0.629770	0.544550
H961	H96	0.166160	0.525240	0.512630
H971	H97	0.129350	0.697130	0.508050
H981	H98	0.044970	0.738910	0.472530
H991	H99	0.920390	0.786940	0.491540
H1001	H100	0.018280	0.943580	0.632050
H1011	H101	0.142790	0.895330	0.614500
H1021	H102	0.312770	0.806080	0.048080
H1031	H103	0.313160	0.904670	0.061920
H1041	H104	0.124830	0.495180	0.192030
H1051	H105	0.042220	0.531210	0.270510
H1061	H106	0.917490	0.511840	0.299030
H1071	H107	0.014460	0.369090	0.311720
H1081	H108	0.139090	0.387010	0.281490
H1091	H109	0.739120	0.086030	0.986930
H1101	H110	0.747270	0.557640	0.856200
H1111	H111	0.744400	0.900450	0.915270
H1121	H112	0.752240	0.299660	0.444050
H1131	H113	0.737390	0.014730	0.101220
H1141	H114	0.753440	0.143100	0.700330
H1151	H115	0.244500	0.100090	0.013530
H1161	H116	0.247620	0.700780	0.142070
H1171	H117	0.238990	0.986150	0.085390
H1181	H118	0.252760	0.856080	0.556540
H1191	H119	0.256670	0.914450	0.900040
H1201	H120	0.249950	0.444690	0.300180
C11	C1	0.779200	0.163670	0.100460
C21	C2	0.779950	0.220380	0.148610
C31	C3	0.800040	0.422450	0.526470
C41	C4	0.799600	0.441110	0.586500
C51	C5	0.702670	0.512370	0.601980
C61	C6	0.703870	0.494130	0.542020
C71	C7	0.679820	0.517770	0.720380
C81	C8	0.677200	0.536120	0.780630
C91	C9	0.600470	0.546730	0.811600
C101	C10	0.535240	0.513450	0.781990
C111	C11	0.463040	0.524620	0.809280
C121	C12	0.453110	0.569040	0.867520
C131	C13	0.518270	0.601490	0.897880
C141	C14	0.590560	0.590690	0.870420
C151	C15	0.375140	0.582420	0.895740
C161	C16	0.783110	0.936790	0.837810
C171	C17	0.784030	0.928450	0.781160
C181	C18	0.803140	0.104850	0.578950
C191	C19	0.802370	0.146290	0.560390
C201	C20	0.702710	0.092010	0.491190
C211	C21	0.704340	0.050110	0.509230
C221	C22	0.682260	0.206020	0.486170
C231	C23	0.680800	0.247800	0.467550
C241	C24	0.604750	0.270190	0.458350
C251	C25	0.539970	0.275760	0.492830
C261	C26	0.468130	0.293160	0.482400
C271	C27	0.458130	0.306090	0.437340
C281	C28	0.522980	0.302300	0.403880
C291	C29	0.594920	0.284750	0.414190
C301	C30	0.380110	0.320000	0.422980
C311	C31	0.775510	0.902190	0.068390
C321	C32	0.776020	0.853910	0.076860
C331	C33	0.681510	0.278410	0.792820
C341	C34	0.680950	0.218070	0.751040
C351	C35	0.605360	0.186240	0.727400
C361	C36	0.540980	0.214980	0.721030
C371	C37	0.469140	0.187200	0.703470
C381	C38	0.458800	0.129440	0.691120
C391	C39	0.523380	0.099830	0.695420
C401	C40	0.595290	0.127630	0.713170
C411	C41	0.380670	0.101440	0.677600
C421	C42	0.703060	0.188430	0.203150
C431	C43	0.701180	0.131750	0.154580
C441	C44	0.818480	0.513260	0.720430
C451	C45	0.819260	0.532410	0.780880
C461	C46	0.894950	0.541040	0.812640
C471	C47	0.959310	0.505830	0.784040
C481	C48	0.031180	0.516280	0.811780
C491	C49	0.041520	0.562050	0.869370
C501	C50	0.977000	0.596100	0.898830
C511	C51	0.905070	0.585810	0.871060
C521	C52	0.119580	0.576680	0.897390
C531	C53	0.706260	0.014500	0.813090
C541	C54	0.704180	0.022350	0.869660
C551	C55	0.821090	0.206090	0.486550
C561	C56	0.823020	0.247150	0.467150
C571	C57	0.899490	0.267730	0.456470
C581	C58	0.964540	0.272730	0.490450
C591	C59	0.036770	0.288270	0.478680
C601	C60	0.046810	0.300230	0.433000
C611	C61	0.981780	0.296970	0.399940
C621	C62	0.909520	0.280780	0.411270
C631	C63	0.124730	0.314400	0.418910
C641	C64	0.714190	0.795710	0.983750
C651	C65	0.711490	0.844420	0.975980
C661	C66	0.703800	0.472670	0.894390
C671	C67	0.704130	0.412620	0.853190
C681	C68	0.792370	0.396030	0.913520
C691	C69	0.790750	0.456040	0.955320
C701	C70	0.820110	0.278530	0.798430
C711	C71	0.823000	0.218510	0.755840
C721	C72	0.899810	0.187760	0.735490
C731	C73	0.964880	0.217540	0.731870
C741	C74	0.037090	0.190270	0.715400
C751	C75	0.047140	0.131930	0.701230
C761	C76	0.982150	0.101500	0.703470
C771	C77	0.909890	0.128940	0.720480
C781	C78	0.125040	0.103610	0.685920
C791	C79	0.213660	0.983680	0.796540
C801	C80	0.213050	0.975880	0.845300
C811	C81	0.317870	0.792890	0.278040
C821	C82	0.319050	0.751730	0.217560
C831	C83	0.394740	0.729080	0.185910
C841	C84	0.459160	0.722930	0.214680
C851	C85	0.530930	0.705790	0.186970
C861	C86	0.541050	0.693500	0.129230
C871	C87	0.476530	0.697630	0.099550
C881	C88	0.404660	0.715140	0.127370
C891	C89	0.619030	0.679680	0.101400
C901	C90	0.281530	0.099390	0.163610
C911	C91	0.281830	0.147610	0.220280
C921	C92	0.208230	0.202760	0.187270
C931	C93	0.206880	0.154140	0.130580
C941	C94	0.321460	0.720030	0.514310
C951	C95	0.323460	0.780470	0.533610
C961	C96	0.399950	0.811680	0.544290
C971	C97	0.465040	0.782650	0.510410
C981	C98	0.537290	0.809920	0.522220
C991	C99	0.547320	0.867590	0.567880
C1001	C100	0.482250	0.897440	0.600830
C1011	C101	0.409960	0.869960	0.589430
C1021	C102	0.625250	0.895810	0.582030
C1031	C103	0.214030	0.835520	0.934120
C1041	C104	0.215410	0.778880	0.925740
C1051	C105	0.196980	0.578710	0.104550
C1061	C106	0.197280	0.560080	0.145950
C1071	C107	0.294270	0.488830	0.090320
C1081	C108	0.293190	0.507020	0.048550
C1091	C109	0.317070	0.483810	0.203530
C1101	C110	0.319760	0.465660	0.245570
C1111	C111	0.396530	0.455000	0.265760
C1121	C112	0.461620	0.488550	0.269790
C1131	C113	0.533880	0.477290	0.285750
C1141	C114	0.543920	0.432550	0.299100
C1151	C115	0.478890	0.399800	0.296590
C1161	C116	0.406610	0.410600	0.279950
C1171	C117	0.621810	0.419060	0.313910
C1181	C118	0.285480	0.064830	0.900060
C1191	C119	0.285090	0.072990	0.851630
C1201	C120	0.300140	0.894430	0.471860
C1211	C121	0.299070	0.853230	0.411760
C1221	C122	0.201720	0.909290	0.397150
C1231	C123	0.203640	0.950920	0.457190
C1241	C124	0.179150	0.796240	0.277760
C1251	C125	0.177220	0.754560	0.217370
C1261	C126	0.101210	0.733390	0.185770
C1271	C127	0.036700	0.727090	0.214250
C1281	C128	0.965220	0.709550	0.186170
C1291	C129	0.955350	0.697020	0.128270
C1301	C130	0.019880	0.701840	0.099020
C1311	C131	0.091510	0.719880	0.127310
C1321	C132	0.877370	0.682030	0.100260
C1331	C133	0.302890	0.526390	0.421900
C1341	C134	0.302290	0.586390	0.440450
C1351	C135	0.203080	0.601550	0.510040
C1361	C136	0.204560	0.541610	0.492030
C1371	C137	0.182630	0.720440	0.514730
C1381	C138	0.181250	0.780780	0.533210
C1391	C139	0.105230	0.812380	0.542370
C1401	C140	0.040450	0.783460	0.507930
C1411	C141	0.968600	0.811270	0.518370
C1421	C142	0.958600	0.869250	0.563420
C1431	C143	0.023470	0.898950	0.596840
C1441	C144	0.095410	0.871120	0.586510
C1451	C145	0.880570	0.897480	0.577840
C1461	C146	0.284910	0.813710	0.015960
C1471	C147	0.284510	0.870390	0.024030
C1481	C148	0.178410	0.488060	0.207980
C1491	C149	0.177690	0.469130	0.249470
C1501	C150	0.101960	0.460290	0.272440
C1511	C151	0.037460	0.495300	0.278870
C1521	C152	0.965540	0.484610	0.295900
C1531	C153	0.955230	0.438760	0.307600
C1541	C154	0.019900	0.404880	0.303180
C1551	C155	0.091910	0.415440	0.286000
C1561	C156	0.877120	0.424020	0.320880
C1571	C157	0.739460	0.048650	0.993130
C1581	C158	0.738720	0.057550	0.050330
C1591	C159	0.739430	0.118320	0.102350
C1601	C160	0.742150	0.233420	0.200550
C1611	C161	0.743930	0.293810	0.251350
C1621	C162	0.751890	0.428080	0.439200
C1631	C163	0.752170	0.448610	0.503310
C1641	C164	0.750620	0.486250	0.625320
C1651	C165	0.749610	0.505940	0.689640
C1661	C166	0.747830	0.543950	0.810330
C1671	C167	0.742310	0.943850	0.952750
C1681	C168	0.741220	0.992170	0.943820
C1691	C169	0.742770	0.983680	0.883110
C1701	C170	0.745850	0.967240	0.768120
C1711	C171	0.747580	0.957890	0.707800
C1721	C172	0.754710	0.012260	0.573860
C1731	C173	0.754280	0.056090	0.553620
C1741	C174	0.751970	0.140720	0.516260
C1751	C175	0.751640	0.185040	0.496160
C1761	C176	0.752050	0.267410	0.457690
C1771	C177	0.738690	0.008240	0.057580
C1781	C178	0.740950	0.950910	0.009320
C1791	C179	0.742580	0.898650	0.017990
C1801	C180	0.745870	0.800080	0.034490
C1811	C181	0.747060	0.748920	0.043430
C1821	C182	0.747570	0.559540	0.988970
C1831	C183	0.747140	0.495310	0.945990
C1841	C184	0.748900	0.373300	0.861800
C1851	C185	0.750220	0.309100	0.817040
C1861	C186	0.752540	0.188790	0.733150
C1871	C187	0.245380	0.056590	0.007480
C1881	C188	0.248210	0.008140	0.950330
C1891	C189	0.249050	0.016320	0.897970
C1901	C190	0.249300	0.032520	0.799290
C1911	C191	0.249520	0.041750	0.748230
C1921	C192	0.253390	0.987520	0.559690
C1931	C193	0.252570	0.943930	0.495510
C1941	C194	0.249660	0.859800	0.373300
C1951	C195	0.248770	0.815610	0.308780
C1961	C196	0.247950	0.733190	0.187920
C1971	C197	0.243930	0.992320	0.048110
C1981	C198	0.244020	0.049520	0.056910
C1991	C199	0.243760	0.101580	0.117690
C2001	C200	0.245480	0.199910	0.232790
C2011	C201	0.247000	0.250850	0.293150
C2021	C202	0.254450	0.439020	0.427180
C2031	C203	0.254180	0.503090	0.447440
C2041	C204	0.252200	0.625050	0.484750
C2051	C205	0.251970	0.689440	0.504770
C2061	C206	0.252520	0.810210	0.543000
C2071	C207	0.250640	0.951740	0.943380
C2081	C208	0.247870	0.942960	0.991740
C2091	C209	0.248870	0.882320	0.983260
C2101	C210	0.250660	0.767280	0.966560
C2111	C211	0.250850	0.706980	0.957250
C2121	C212	0.245250	0.573030	0.011660
C2131	C213	0.244940	0.552530	0.055280
C2141	C214	0.246240	0.514970	0.139740
C2151	C215	0.247250	0.495430	0.184490
C2161	C216	0.249200	0.457970	0.267650
O11	O1	0.362580	0.618860	0.948440
O21	O2	0.313280	0.559730	0.869820
O31	O3	0.366980	0.329500	0.381870
O41	O4	0.318450	0.320790	0.448020
O51	O5	0.367380	0.050990	0.668480
O61	O6	0.319060	0.125880	0.677040
O71	O7	0.132750	0.618240	0.947720
O81	O8	0.181200	0.551560	0.873130
O91	O9	0.137040	0.329680	0.381710
O101	O10	0.186740	0.311580	0.441690
O111	O11	0.137550	0.050910	0.669670
O121	O12	0.186870	0.129380	0.688670
O131	O13	0.632700	0.667610	0.050140
O141	O14	0.680280	0.681030	0.126760
O151	O15	0.637550	0.948290	0.619240
O161	O16	0.687280	0.870210	0.559270
O171	O17	0.634030	0.382930	0.330590
O181	O18	0.683900	0.441270	0.310260
O191	O19	0.863090	0.667660	0.048190
O201	O20	0.816580	0.684370	0.126680
O211	O21	0.867460	0.948120	0.618910
O221	O22	0.818890	0.873130	0.552920
O231	O23	0.863860	0.382250	0.329320
O241	O24	0.815550	0.449400	0.322130
O251	O25	0.765320	0.337410	0.248390
O261	O26	0.724870	0.307990	0.302500
O271	O27	0.777250	0.379880	0.400420
O281	O28	0.725500	0.456290	0.416680
O291	O29	0.768880	0.911450	0.664040
O301	O30	0.728430	0.995000	0.693820
O311	O31	0.780510	0.021480	0.621880
O321	O32	0.728530	0.961480	0.545580
O331	O33	0.748570	0.752380	0.092440
O341	O34	0.746670	0.696740	0.003040
O351	O35	0.738620	0.598280	0.975560
O361	O36	0.757280	0.582240	0.042980
O371	O37	0.269300	0.088440	0.750790
O381	O38	0.230620	0.004280	0.697200
O391	O39	0.279050	0.977840	0.598230
O401	O40	0.227830	0.038520	0.582550
O411	O41	0.267870	0.248020	0.336930
O421	O42	0.228270	0.302010	0.307120
O431	O43	0.280030	0.400210	0.379090
O441	O44	0.228310	0.416540	0.455490
O451	O45	0.231360	0.662830	0.910470
O461	O46	0.269520	0.693450	0.994780
O471	O47	0.220070	0.621280	0.021120
O481	O48	0.271360	0.544730	0.960830
