data_BEFKUU_freeONLY_PM
_symmetry_space_group_name_H-M	'P1'
_cell_length_a	13.866500
_cell_length_b	13.866500
_cell_length_c	15.056000
_cell_angle_alpha	90.000000
_cell_angle_beta	90.000000
_cell_angle_gamma	120.000000
_symmetry_Int_Tables_number 1

loop_
_symmetry_equiv_pos_as_xyz
'x,y,z'

loop_
_atom_site_label
_atom_site_type_symbol
_atom_site_fract_x
_atom_site_fract_y
_atom_site_fract_z
Al11	Al1	0.659200	0.101900	0.428600
P11	P1	0.891300	0.324100	0.445600
O11	O1	0.792300	0.212400	0.468800
O21	O2	0.862000	0.414100	0.456000
O31	O3	0.982200	0.341600	0.509000
O41	O4	0.930300	0.323100	0.352900
Al21	Al2	0.325870	0.435230	0.761930
P21	P2	0.557970	0.657430	0.778930
O51	O5	0.458970	0.545730	0.802130
O61	O6	0.528670	0.747430	0.789330
O71	O7	0.648870	0.674930	0.842330
O81	O8	0.596970	0.656430	0.686230
Al31	Al3	0.992530	0.768570	0.095270
P31	P3	0.224630	0.990770	0.112270
O91	O9	0.125630	0.879070	0.135470
O101	O10	0.195330	0.080770	0.122670
O111	O11	0.315530	0.008270	0.175670
O121	O12	0.263630	0.989770	0.019570
Al41	Al4	0.898100	0.557300	0.428600
P41	P4	0.675900	0.567200	0.445600
O131	O13	0.787600	0.579900	0.468800
O141	O14	0.585900	0.447900	0.456000
O151	O15	0.658400	0.640600	0.509000
O161	O16	0.676900	0.607200	0.352900
Al51	Al5	0.564770	0.890630	0.761930
P51	P5	0.342570	0.900530	0.778930
O171	O17	0.454270	0.913230	0.802130
O181	O18	0.252570	0.781230	0.789330
O191	O19	0.325070	0.973930	0.842330
O201	O20	0.343570	0.940530	0.686230
Al61	Al6	0.231430	0.223970	0.095270
P61	P6	0.009230	0.233870	0.112270
O211	O21	0.120930	0.246570	0.135470
O221	O22	0.919230	0.114570	0.122670
O231	O23	0.991730	0.307270	0.175670
O241	O24	0.010230	0.273870	0.019570
Al71	Al7	0.442700	0.340800	0.428600
P71	P7	0.432800	0.108700	0.445600
O251	O25	0.420100	0.207700	0.468800
O261	O26	0.552100	0.138000	0.456000
O271	O27	0.359400	0.017800	0.509000
O281	O28	0.392800	0.069700	0.352900
Al81	Al8	0.109370	0.674130	0.761930
P81	P8	0.099470	0.442030	0.778930
O291	O29	0.086770	0.541030	0.802130
O301	O30	0.218770	0.471330	0.789330
O311	O31	0.026070	0.351130	0.842330
O321	O32	0.059470	0.403030	0.686230
Al91	Al9	0.776030	0.007470	0.095270
P91	P9	0.766130	0.775370	0.112270
O331	O33	0.753430	0.874370	0.135470
O341	O34	0.885430	0.804670	0.122670
O351	O35	0.692730	0.684470	0.175670
O361	O36	0.726130	0.736370	0.019570
Al101	Al10	0.340800	0.898100	0.571400
P101	P10	0.108700	0.675900	0.554400
O371	O37	0.207700	0.787600	0.531200
O381	O38	0.138000	0.585900	0.544000
O391	O39	0.017800	0.658400	0.491000
O401	O40	0.069700	0.676900	0.647100
Al111	Al11	0.007470	0.231430	0.904730
P111	P11	0.775370	0.009230	0.887730
O411	O41	0.874370	0.120930	0.864530
O421	O42	0.804670	0.919230	0.877330
O431	O43	0.684470	0.991730	0.824330
O441	O44	0.736370	0.010230	0.980430
Al121	Al12	0.674130	0.564770	0.238070
P121	P12	0.442030	0.342570	0.221070
O451	O45	0.541030	0.454270	0.197870
O461	O46	0.471330	0.252570	0.210670
O471	O47	0.351130	0.325070	0.157670
O481	O48	0.403030	0.343570	0.313770
Al131	Al13	0.101900	0.442700	0.571400
P131	P13	0.324100	0.432800	0.554400
O491	O49	0.212400	0.420100	0.531200
O501	O50	0.414100	0.552100	0.544000
O511	O51	0.341600	0.359400	0.491000
O521	O52	0.323100	0.392800	0.647100
Al141	Al14	0.768570	0.776030	0.904730
P141	P14	0.990770	0.766130	0.887730
O531	O53	0.879070	0.753430	0.864530
O541	O54	0.080770	0.885430	0.877330
O551	O55	0.008270	0.692730	0.824330
O561	O56	0.989770	0.726130	0.980430
Al151	Al15	0.435230	0.109370	0.238070
P151	P15	0.657430	0.099470	0.221070
O571	O57	0.545730	0.086770	0.197870
O581	O58	0.747430	0.218770	0.210670
O591	O59	0.674930	0.026070	0.157670
O601	O60	0.656430	0.059470	0.313770
Al161	Al16	0.557300	0.659200	0.571400
P161	P16	0.567200	0.891300	0.554400
O611	O61	0.579900	0.792300	0.531200
O621	O62	0.447900	0.862000	0.544000
O631	O63	0.640600	0.982200	0.491000
O641	O64	0.607200	0.930300	0.647100
Al171	Al17	0.223970	0.992530	0.904730
P171	P17	0.233870	0.224630	0.887730
O651	O65	0.246570	0.125630	0.864530
O661	O66	0.114570	0.195330	0.877330
O671	O67	0.307270	0.315530	0.824330
O681	O68	0.273870	0.263630	0.980430
Al181	Al18	0.890630	0.325870	0.238070
P181	P18	0.900530	0.557970	0.221070
O691	O69	0.913230	0.458970	0.197870
O701	O70	0.781230	0.528670	0.210670
O711	O71	0.973930	0.648870	0.157670
O721	O72	0.940530	0.596970	0.313770
