data_BEFMOQ_freeONLY_PM
_symmetry_space_group_name_H-M	'P1'
_cell_length_a	14.130000
_cell_length_b	13.178000
_cell_length_c	14.018000
_cell_angle_alpha	90.000000
_cell_angle_beta	90.561000
_cell_angle_gamma	90.000000
_symmetry_Int_Tables_number 1

loop_
_symmetry_equiv_pos_as_xyz
'x,y,z'

loop_
_atom_site_label
_atom_site_type_symbol
_atom_site_fract_x
_atom_site_fract_y
_atom_site_fract_z
Al11	Al1	0.123900	0.858100	0.225700
Al21	Al2	0.019200	0.742500	0.622900
Co11	Co1	0.123900	0.141900	0.725700
Co21	Co2	0.019200	0.257500	0.122900
P11	P1	0.025400	0.262500	0.893300
P21	P2	0.144300	0.629100	0.775000
O11	O1	0.059700	0.263400	0.997900
O21	O2	0.993400	0.369100	0.868100
O31	O3	0.118500	0.522000	0.741200
O41	O4	0.083200	0.655000	0.859000
O51	O5	0.089200	0.002700	0.747600
O61	O6	0.126200	0.703600	0.696400
O71	O7	0.990900	0.878500	0.661300
O81	O8	0.106000	0.231100	0.830200
O91	O9	0.245100	0.634400	0.807300
O101	O10	0.943600	0.187900	0.883800
Al31	Al3	0.623900	0.358100	0.225700
Al41	Al4	0.519200	0.242500	0.622900
Co31	Co3	0.623900	0.641900	0.725700
Co41	Co4	0.519200	0.757500	0.122900
P31	P3	0.525400	0.762500	0.893300
P41	P4	0.644300	0.129100	0.775000
O111	O11	0.559700	0.763400	0.997900
O121	O12	0.493400	0.869100	0.868100
O131	O13	0.618500	0.022000	0.741200
O141	O14	0.583200	0.155000	0.859000
O151	O15	0.589200	0.502700	0.747600
O161	O16	0.626200	0.203600	0.696400
O171	O17	0.490900	0.378500	0.661300
O181	O18	0.606000	0.731100	0.830200
O191	O19	0.745100	0.134400	0.807300
O201	O20	0.443600	0.687900	0.883800
Al51	Al5	0.876100	0.858100	0.274300
Al61	Al6	0.980800	0.742500	0.877100
Co51	Co5	0.876100	0.141900	0.774300
Co61	Co6	0.980800	0.257500	0.377100
P51	P5	0.974600	0.262500	0.606700
P61	P6	0.855700	0.629100	0.725000
O211	O21	0.940300	0.263400	0.502100
O221	O22	0.006600	0.369100	0.631900
O231	O23	0.881500	0.522000	0.758800
O241	O24	0.916800	0.655000	0.641000
O251	O25	0.910800	0.002700	0.752400
O261	O26	0.873800	0.703600	0.803600
O271	O27	0.009100	0.878500	0.838700
O281	O28	0.894000	0.231100	0.669800
O291	O29	0.754900	0.634400	0.692700
O301	O30	0.056400	0.187900	0.616200
Al71	Al7	0.376100	0.358100	0.274300
Al81	Al8	0.480800	0.242500	0.877100
Co71	Co7	0.376100	0.641900	0.774300
Co81	Co8	0.480800	0.757500	0.377100
P71	P7	0.474600	0.762500	0.606700
P81	P8	0.355700	0.129100	0.725000
O311	O31	0.440300	0.763400	0.502100
O321	O32	0.506600	0.869100	0.631900
O331	O33	0.381500	0.022000	0.758800
O341	O34	0.416800	0.155000	0.641000
O351	O35	0.410800	0.502700	0.752400
O361	O36	0.373800	0.203600	0.803600
O371	O37	0.509100	0.378500	0.838700
O381	O38	0.394000	0.731100	0.669800
O391	O39	0.254900	0.134400	0.692700
O401	O40	0.556400	0.687900	0.616200
P91	P9	0.974600	0.737500	0.106700
P101	P10	0.855700	0.370900	0.225000
O411	O41	0.940300	0.736600	0.002100
O421	O42	0.006600	0.630900	0.131900
O431	O43	0.881500	0.478000	0.258800
O441	O44	0.916800	0.345000	0.141000
O451	O45	0.910800	0.997300	0.252400
O461	O46	0.873800	0.296400	0.303600
O471	O47	0.009100	0.121500	0.338700
O481	O48	0.894000	0.768900	0.169800
O491	O49	0.754900	0.365600	0.192700
O501	O50	0.056400	0.812100	0.116200
P111	P11	0.474600	0.237500	0.106700
P121	P12	0.355700	0.870900	0.225000
O511	O51	0.440300	0.236600	0.002100
O521	O52	0.506600	0.130900	0.131900
O531	O53	0.381500	0.978000	0.258800
O541	O54	0.416800	0.845000	0.141000
O551	O55	0.410800	0.497300	0.252400
O561	O56	0.373800	0.796400	0.303600
O571	O57	0.509100	0.621500	0.338700
O581	O58	0.394000	0.268900	0.169800
O591	O59	0.254900	0.865600	0.192700
O601	O60	0.556400	0.312100	0.116200
P131	P13	0.025400	0.737500	0.393300
P141	P14	0.144300	0.370900	0.275000
O611	O61	0.059700	0.736600	0.497900
O621	O62	0.993400	0.630900	0.368100
O631	O63	0.118500	0.478000	0.241200
O641	O64	0.083200	0.345000	0.359000
O651	O65	0.089200	0.997300	0.247600
O661	O66	0.126200	0.296400	0.196400
O671	O67	0.990900	0.121500	0.161300
O681	O68	0.106000	0.768900	0.330200
O691	O69	0.245100	0.365600	0.307300
O701	O70	0.943600	0.812100	0.383800
P151	P15	0.525400	0.237500	0.393300
P161	P16	0.644300	0.870900	0.275000
O711	O71	0.559700	0.236600	0.497900
O721	O72	0.493400	0.130900	0.368100
O731	O73	0.618500	0.978000	0.241200
O741	O74	0.583200	0.845000	0.359000
O751	O75	0.589200	0.497300	0.247600
O761	O76	0.626200	0.796400	0.196400
O771	O77	0.490900	0.621500	0.161300
O781	O78	0.606000	0.268900	0.330200
O791	O79	0.745100	0.865600	0.307300
O801	O80	0.443600	0.312100	0.383800
Co91	Co9	0.000000	0.446800	0.750000
P171	P17	0.000000	0.940600	0.750000
Co101	Co10	0.500000	0.946800	0.750000
P181	P18	0.500000	0.440600	0.750000
Co111	Co11	0.000000	0.553200	0.250000
P191	P19	0.000000	0.059400	0.250000
Co121	Co12	0.500000	0.053200	0.250000
P201	P20	0.500000	0.559400	0.250000
