data_BEJZAS_freeONLY_PM
_symmetry_space_group_name_H-M	'P1'
_cell_length_a	10.420000
_cell_length_b	10.452300
_cell_length_c	11.622100
_cell_angle_alpha	90.000000
_cell_angle_beta	90.000000
_cell_angle_gamma	90.000000
_symmetry_Int_Tables_number 1

loop_
_symmetry_equiv_pos_as_xyz
'x,y,z'

loop_
_atom_site_label
_atom_site_type_symbol
_atom_site_fract_x
_atom_site_fract_y
_atom_site_fract_z
Zn11	Zn1	0.553130	0.200640	0.118760
P11	P1	0.312300	0.160100	0.955100
P21	P2	0.486800	0.927600	0.199400
O11	O1	0.560600	0.048900	0.204900
O21	O2	0.521400	0.837100	0.294400
O31	O3	0.244800	0.114600	0.061700
O41	O4	0.454700	0.189700	0.980100
O51	O5	0.237100	0.273400	0.911600
O61	O6	0.345500	0.955200	0.199200
O71	O7	0.517600	0.865300	0.083900
O81	O8	0.312000	0.053600	0.864900
H11	H1	0.263000	0.024000	0.087000
H21	H2	0.236000	0.005000	0.840000
H31	H3	0.447000	0.851000	0.028000
Zn21	Zn2	0.946870	0.799360	0.618760
P31	P3	0.187700	0.839900	0.455100
P41	P4	0.013200	0.072400	0.699400
O91	O9	0.939400	0.951100	0.704900
O101	O10	0.978600	0.162900	0.794400
O111	O11	0.255200	0.885400	0.561700
O121	O12	0.045300	0.810300	0.480100
O131	O13	0.262900	0.726600	0.411600
O141	O14	0.154500	0.044800	0.699200
O151	O15	0.982400	0.134700	0.583900
O161	O16	0.188000	0.946400	0.364900
H41	H4	0.237000	0.976000	0.587000
H51	H5	0.264000	0.995000	0.340000
H61	H6	0.053000	0.149000	0.528000
Zn31	Zn3	0.446870	0.700640	0.381240
P51	P5	0.687700	0.660100	0.544900
P61	P6	0.513200	0.427600	0.300600
O171	O17	0.439400	0.548900	0.295100
O181	O18	0.478600	0.337100	0.205600
O191	O19	0.755200	0.614600	0.438300
O201	O20	0.545300	0.689700	0.519900
O211	O21	0.762900	0.773400	0.588400
O221	O22	0.654500	0.455200	0.300800
O231	O23	0.482400	0.365300	0.416100
O241	O24	0.688000	0.553600	0.635100
H71	H7	0.737000	0.524000	0.413000
H81	H8	0.764000	0.505000	0.660000
H91	H9	0.553000	0.351000	0.472000
Zn41	Zn4	0.053130	0.299360	0.881240
P71	P7	0.812300	0.339900	0.044900
P81	P8	0.986800	0.572400	0.800600
O251	O25	0.060600	0.451100	0.795100
O261	O26	0.021400	0.662900	0.705600
O271	O27	0.744800	0.385400	0.938300
O281	O28	0.954700	0.310300	0.019900
O291	O29	0.737100	0.226600	0.088400
O301	O30	0.845500	0.544800	0.800800
O311	O31	0.017600	0.634700	0.916100
O321	O32	0.812000	0.446400	0.135100
H101	H10	0.763000	0.476000	0.913000
H111	H11	0.736000	0.495000	0.160000
H121	H12	0.947000	0.649000	0.972000
