data_BEPMIU_freeONLY_PM
_symmetry_space_group_name_H-M	'P1'
_cell_length_a	10.265200
_cell_length_b	17.528500
_cell_length_c	17.528500
_cell_angle_alpha	120.000000
_cell_angle_beta	90.000000
_cell_angle_gamma	90.000000
_symmetry_Int_Tables_number 1

loop_
_symmetry_equiv_pos_as_xyz
'x,y,z'

loop_
_atom_site_label
_atom_site_type_symbol
_atom_site_fract_x
_atom_site_fract_y
_atom_site_fract_z
Zn11	Zn1	0.006850	0.464390	0.924590
Zn21	Zn2	0.673520	0.460200	0.535610
Zn31	Zn3	0.340180	0.075410	0.539800
Zn41	Zn4	0.506850	0.535610	0.075410
Zn51	Zn5	0.173520	0.539800	0.464390
Zn61	Zn6	0.840180	0.924590	0.460200
H11	H1	0.974900	0.426900	0.321900
H21	H2	0.930500	0.383600	0.178700
H31	H3	0.226400	0.535000	0.181900
H41	H4	0.272200	0.567000	0.322200
H51	H5	0.110900	0.390900	0.030500
H61	H6	0.961400	0.399100	0.051300
H71	H7	0.925200	0.569700	0.165300
H81	H8	0.042700	0.682300	0.162200
H91	H9	0.894500	0.699400	0.155000
H101	H10	0.982600	0.658200	0.070700
H111	H11	0.114200	0.535700	0.072900
H121	H12	0.641570	0.895000	0.573100
H131	H13	0.597170	0.795100	0.616400
H141	H14	0.893070	0.646900	0.465000
H151	H15	0.938870	0.755200	0.433000
H161	H16	0.777570	0.639600	0.609100
H171	H17	0.628070	0.652200	0.600900
H181	H18	0.591870	0.595600	0.430300
H191	H19	0.709370	0.479900	0.317700
H201	H20	0.561170	0.455600	0.300600
H211	H21	0.649270	0.412500	0.341800
H221	H22	0.780870	0.537200	0.464300
H231	H23	0.308230	0.678100	0.105000
H241	H24	0.263830	0.821300	0.204900
H251	H25	0.559730	0.818100	0.353100
H261	H26	0.605530	0.677800	0.244800
H271	H27	0.444230	0.969500	0.360400
H281	H28	0.294730	0.948700	0.347800
H291	H29	0.258530	0.834700	0.404400
H301	H30	0.376030	0.837800	0.520100
H311	H31	0.227830	0.845000	0.544400
H321	H32	0.315930	0.929300	0.587500
H331	H33	0.447530	0.927100	0.462800
H341	H34	0.474900	0.573100	0.678100
H351	H35	0.430500	0.616400	0.821300
H361	H36	0.726400	0.465000	0.818100
H371	H37	0.772200	0.433000	0.677800
H381	H38	0.610900	0.609100	0.969500
H391	H39	0.461400	0.600900	0.948700
H401	H40	0.425200	0.430300	0.834700
H411	H41	0.542700	0.317700	0.837800
H421	H42	0.394500	0.300600	0.845000
H431	H43	0.482600	0.341800	0.929300
H441	H44	0.614200	0.464300	0.927100
H451	H45	0.141570	0.105000	0.426900
H461	H46	0.097170	0.204900	0.383600
H471	H47	0.393070	0.353100	0.535000
H481	H48	0.438870	0.244800	0.567000
H491	H49	0.277570	0.360400	0.390900
H501	H50	0.128070	0.347800	0.399100
H511	H51	0.091870	0.404400	0.569700
H521	H52	0.209370	0.520100	0.682300
H531	H53	0.061170	0.544400	0.699400
H541	H54	0.149270	0.587500	0.658200
H551	H55	0.280870	0.462800	0.535700
H561	H56	0.808230	0.321900	0.895000
H571	H57	0.763830	0.178700	0.795100
H581	H58	0.059730	0.181900	0.646900
H591	H59	0.105530	0.322200	0.755200
H601	H60	0.944230	0.030500	0.639600
H611	H61	0.794730	0.051300	0.652200
H621	H62	0.758530	0.165300	0.595600
H631	H63	0.876030	0.162200	0.479900
H641	H64	0.727830	0.155000	0.455600
H651	H65	0.815930	0.070700	0.412500
H661	H66	0.947530	0.072900	0.537200
C11	C1	0.027400	0.447400	0.292700
C21	C2	0.999100	0.422200	0.207300
C31	C3	0.073400	0.454300	0.163000
C41	C4	0.175800	0.510900	0.208700
C51	C5	0.201400	0.530900	0.293200
C61	C6	0.043800	0.430400	0.068800
C71	C7	0.934100	0.568500	0.109000
C81	C8	0.805100	0.538500	0.057600
C91	C9	0.966400	0.660700	0.125800
C101	C10	0.694070	0.845300	0.552600
C111	C11	0.665770	0.785100	0.577800
C121	C12	0.740070	0.708700	0.545700
C131	C13	0.842470	0.697800	0.489100
C141	C14	0.868070	0.762300	0.469100
C151	C15	0.710470	0.638400	0.569600
C161	C16	0.600770	0.540500	0.431500
C171	C17	0.471770	0.519100	0.461500
C181	C18	0.633070	0.465100	0.339300
C191	C19	0.360730	0.707300	0.154700
C201	C20	0.332430	0.792700	0.214900
C211	C21	0.406730	0.837000	0.291300
C221	C22	0.509130	0.791300	0.302200
C231	C23	0.534730	0.706800	0.237700
C241	C24	0.377130	0.931200	0.361600
C251	C25	0.267430	0.891000	0.459500
C261	C26	0.138430	0.942400	0.480900
C271	C27	0.299730	0.874200	0.534900
C281	C28	0.527400	0.552600	0.707300
C291	C29	0.499100	0.577800	0.792700
C301	C30	0.573400	0.545700	0.837000
C311	C31	0.675800	0.489100	0.791300
C321	C32	0.701400	0.469100	0.706800
C331	C33	0.543800	0.569600	0.931200
C341	C34	0.434100	0.431500	0.891000
C351	C35	0.305100	0.461500	0.942400
C361	C36	0.466400	0.339300	0.874200
C371	C37	0.194070	0.154700	0.447400
C381	C38	0.165770	0.214900	0.422200
C391	C39	0.240070	0.291300	0.454300
C401	C40	0.342470	0.302200	0.510900
C411	C41	0.368070	0.237700	0.530900
C421	C42	0.210470	0.361600	0.430400
C431	C43	0.100770	0.459500	0.568500
C441	C44	0.971770	0.480900	0.538500
C451	C45	0.133070	0.534900	0.660700
C461	C46	0.860730	0.292700	0.845300
C471	C47	0.832430	0.207300	0.785100
C481	C48	0.906730	0.163000	0.708700
C491	C49	0.009130	0.208700	0.697800
C501	C50	0.034730	0.293200	0.762300
C511	C51	0.877130	0.068800	0.638400
C521	C52	0.767430	0.109000	0.540500
C531	C53	0.638430	0.057600	0.519100
C541	C54	0.799730	0.125800	0.465100
N11	N1	0.036500	0.506900	0.056600
N21	N2	0.127600	0.500300	0.336400
N31	N3	0.703170	0.549700	0.493100
N41	N4	0.794270	0.836100	0.499700
N51	N5	0.369830	0.943400	0.450300
N61	N6	0.460930	0.663600	0.163900
N71	N7	0.536500	0.493100	0.943400
N81	N8	0.627600	0.499700	0.663600
N91	N9	0.203170	0.450300	0.506900
N101	N10	0.294270	0.163900	0.500300
N111	N11	0.869830	0.056600	0.549700
N121	N12	0.960930	0.336400	0.836100
Cl11	Cl1	0.997000	0.555650	0.870540
Cl21	Cl2	0.663670	0.314890	0.444350
Cl31	Cl3	0.330330	0.129460	0.685110
Cl41	Cl4	0.497000	0.444350	0.129460
Cl51	Cl5	0.163670	0.685110	0.555650
Cl61	Cl6	0.830330	0.870540	0.314890
O11	O1	0.704000	0.569900	0.103900
O21	O2	0.809400	0.487400	0.977100
O31	O3	0.370670	0.534000	0.430100
O41	O4	0.476070	0.489700	0.512600
O51	O5	0.037330	0.896100	0.466000
O61	O6	0.142730	0.022900	0.510300
O71	O7	0.204000	0.430100	0.896100
O81	O8	0.309400	0.512600	0.022900
O91	O9	0.870670	0.466000	0.569900
O101	O10	0.976070	0.510300	0.487400
O111	O11	0.537330	0.103900	0.534000
O121	O12	0.642730	0.977100	0.489700
