data_BEPNOB_freeONLY_PM
_symmetry_space_group_name_H-M	'P1'
_cell_length_a	10.171600
_cell_length_b	17.591100
_cell_length_c	17.591100
_cell_angle_alpha	120.000000
_cell_angle_beta	90.000000
_cell_angle_gamma	90.000000
_symmetry_Int_Tables_number 1

loop_
_symmetry_equiv_pos_as_xyz
'x,y,z'

loop_
_atom_site_label
_atom_site_type_symbol
_atom_site_fract_x
_atom_site_fract_y
_atom_site_fract_z
Zn11	Zn1	0.866460	0.456630	0.531940
Zn21	Zn2	0.533130	0.075310	0.543370
Zn31	Zn3	0.199790	0.468060	0.924690
Zn41	Zn4	0.366460	0.543370	0.468060
Zn51	Zn5	0.033130	0.924690	0.456630
Zn61	Zn6	0.699790	0.531940	0.075310
H11	H1	0.583200	0.525300	0.223500
H21	H2	0.926700	0.438200	0.110700
H31	H3	0.788300	0.365700	0.346300
H41	H4	0.936600	0.384400	0.336500
H51	H5	0.962500	0.548500	0.387200
H61	H6	0.976200	0.389700	0.205600
H71	H7	0.628400	0.472300	0.319200
H81	H8	0.800300	0.650400	0.490600
H91	H9	0.940400	0.688100	0.491800
H101	H10	0.901800	0.663900	0.563300
H111	H11	0.794700	0.618800	0.762000
H121	H12	0.249870	0.698200	0.474700
H131	H13	0.593370	0.672500	0.561800
H141	H14	0.454970	0.980600	0.634300
H151	H15	0.603270	0.952100	0.615600
H161	H16	0.629170	0.838700	0.451500
H171	H17	0.642870	0.815900	0.610300
H181	H18	0.295070	0.846900	0.527700
H191	H19	0.466970	0.840200	0.349600
H201	H20	0.607070	0.803700	0.311900
H211	H21	0.568470	0.899400	0.336100
H221	H22	0.461370	0.143200	0.381200
H231	H23	0.916530	0.776500	0.301800
H241	H24	0.260030	0.889300	0.327500
H251	H25	0.121630	0.653700	0.019400
H261	H26	0.269930	0.663500	0.047900
H271	H27	0.295830	0.612800	0.161300
H281	H28	0.309530	0.794400	0.184100
H291	H29	0.961730	0.680800	0.153100
H301	H30	0.133630	0.509400	0.159800
H311	H31	0.273730	0.508200	0.196300
H321	H32	0.235130	0.436700	0.100600
H331	H33	0.128030	0.238000	0.856800
H341	H34	0.083200	0.474700	0.776500
H351	H35	0.426700	0.561800	0.889300
H361	H36	0.288300	0.634300	0.653700
H371	H37	0.436600	0.615600	0.663500
H381	H38	0.462500	0.451500	0.612800
H391	H39	0.476200	0.610300	0.794400
H401	H40	0.128400	0.527700	0.680800
H411	H41	0.300300	0.349600	0.509400
H421	H42	0.440400	0.311900	0.508200
H431	H43	0.401800	0.336100	0.436700
H441	H44	0.294700	0.381200	0.238000
H451	H45	0.749870	0.301800	0.525300
H461	H46	0.093370	0.327500	0.438200
H471	H47	0.954970	0.019400	0.365700
H481	H48	0.103270	0.047900	0.384400
H491	H49	0.129170	0.161300	0.548500
H501	H50	0.142870	0.184100	0.389700
H511	H51	0.795070	0.153100	0.472300
H521	H52	0.966970	0.159800	0.650400
H531	H53	0.107070	0.196300	0.688100
H541	H54	0.068470	0.100600	0.663900
H551	H55	0.961370	0.856800	0.618800
H561	H56	0.416530	0.223500	0.698200
H571	H57	0.760030	0.110700	0.672500
H581	H58	0.621630	0.346300	0.980600
H591	H59	0.769930	0.336500	0.952100
H601	H60	0.795830	0.387200	0.838700
H611	H61	0.809530	0.205600	0.815900
H621	H62	0.461730	0.319200	0.846900
H631	H63	0.633630	0.490600	0.840200
H641	H64	0.773730	0.491800	0.803700
H651	H65	0.735130	0.563300	0.899400
H661	H66	0.628030	0.762000	0.143200
C11	C1	0.662600	0.497000	0.218800
C21	C2	0.865500	0.446000	0.153300
C31	C3	0.848700	0.409000	0.347500
C41	C4	0.942100	0.556700	0.445300
C51	C5	0.896400	0.417900	0.211200
C61	C6	0.067000	0.540100	0.484000
C71	C7	0.691600	0.467000	0.278600
C81	C8	0.811400	0.430600	0.277300
C91	C9	0.891600	0.647900	0.502900
C101	C10	0.798000	0.589400	0.701000
C111	C11	0.329270	0.721800	0.503000
C121	C12	0.532170	0.707300	0.554000
C131	C13	0.515370	0.938500	0.591000
C141	C14	0.608770	0.888600	0.443300
C151	C15	0.563070	0.793300	0.582100
C161	C16	0.733670	0.943900	0.459900
C171	C17	0.358270	0.811600	0.533000
C181	C18	0.478070	0.846700	0.569400
C191	C19	0.558270	0.855000	0.352100
C201	C20	0.464670	0.111600	0.410600
C211	C21	0.995930	0.781200	0.278200
C221	C22	0.198830	0.846700	0.292700
C231	C23	0.182030	0.652500	0.061500
C241	C24	0.275430	0.554700	0.111400
C251	C25	0.229730	0.788800	0.206700
C261	C26	0.400330	0.516000	0.056100
C271	C27	0.024930	0.721400	0.188400
C281	C28	0.144730	0.722700	0.153300
C291	C29	0.224930	0.497100	0.145000
C301	C30	0.131330	0.299000	0.888400
C311	C31	0.162600	0.503000	0.781200
C321	C32	0.365500	0.554000	0.846700
C331	C33	0.348700	0.591000	0.652500
C341	C34	0.442100	0.443300	0.554700
C351	C35	0.396400	0.582100	0.788800
C361	C36	0.567000	0.459900	0.516000
C371	C37	0.191600	0.533000	0.721400
C381	C38	0.311400	0.569400	0.722700
C391	C39	0.391600	0.352100	0.497100
C401	C40	0.298000	0.410600	0.299000
C411	C41	0.829270	0.278200	0.497000
C421	C42	0.032170	0.292700	0.446000
C431	C43	0.015370	0.061500	0.409000
C441	C44	0.108770	0.111400	0.556700
C451	C45	0.063070	0.206700	0.417900
C461	C46	0.233670	0.056100	0.540100
C471	C47	0.858270	0.188400	0.467000
C481	C48	0.978070	0.153300	0.430600
C491	C49	0.058270	0.145000	0.647900
C501	C50	0.964670	0.888400	0.589400
C511	C51	0.495930	0.218800	0.721800
C521	C52	0.698830	0.153300	0.707300
C531	C53	0.682030	0.347500	0.938500
C541	C54	0.775430	0.445300	0.888600
C551	C55	0.729730	0.211200	0.793300
C561	C56	0.900330	0.484000	0.943900
C571	C57	0.524930	0.278600	0.811600
C581	C58	0.644730	0.277300	0.846700
C591	C59	0.724930	0.502900	0.855000
C601	C60	0.631330	0.701000	0.111600
N11	N1	0.844000	0.490200	0.435600
N21	N2	0.748100	0.485000	0.156100
N31	N3	0.510670	0.945400	0.509800
N41	N4	0.414770	0.671100	0.515000
N51	N5	0.177330	0.564400	0.054600
N61	N6	0.081430	0.843900	0.328900
N71	N7	0.344000	0.509800	0.564400
N81	N8	0.248100	0.515000	0.843900
N91	N9	0.010670	0.054600	0.490200
N101	N10	0.914770	0.328900	0.485000
N111	N11	0.677330	0.435600	0.945400
N121	N12	0.581430	0.156100	0.671100
O11	O1	0.060800	0.496900	0.522400
O21	O2	0.170200	0.576500	0.474600
O31	O3	0.870800	0.519300	0.660900
O41	O4	0.731600	0.619500	0.661400
O51	O5	0.727470	0.025500	0.503100
O61	O6	0.836870	0.898100	0.423500
O71	O7	0.537470	0.141600	0.480700
O81	O8	0.398270	0.041900	0.380500
O91	O9	0.394130	0.477600	0.974500
O101	O10	0.503530	0.525400	0.101900
O111	O11	0.204130	0.339100	0.858400
O121	O12	0.064930	0.338600	0.958100
O131	O13	0.560800	0.503100	0.477600
O141	O14	0.670200	0.423500	0.525400
O151	O15	0.370800	0.480700	0.339100
O161	O16	0.231600	0.380500	0.338600
O171	O17	0.227470	0.974500	0.496900
O181	O18	0.336870	0.101900	0.576500
O191	O19	0.037470	0.858400	0.519300
O201	O20	0.898270	0.958100	0.619500
O211	O21	0.894130	0.522400	0.025500
O221	O22	0.003530	0.474600	0.898100
O231	O23	0.704130	0.660900	0.141600
O241	O24	0.564930	0.661400	0.041900
