data_BEPVEZ_freeONLY_PM
_symmetry_space_group_name_H-M	'P1'
_cell_length_a	11.450700
_cell_length_b	11.602600
_cell_length_c	13.202500
_cell_angle_alpha	65.360000
_cell_angle_beta	71.368000
_cell_angle_gamma	71.461000
_symmetry_Int_Tables_number 1

loop_
_symmetry_equiv_pos_as_xyz
'x,y,z'

loop_
_atom_site_label
_atom_site_type_symbol
_atom_site_fract_x
_atom_site_fract_y
_atom_site_fract_z
Cu11	Cu1	0.382030	0.755980	0.911220
Cu21	Cu2	0.536190	0.863680	0.494350
Cu31	Cu3	0.309810	0.951670	0.197600
H11	H1	0.849300	0.952200	0.057100
H21	H2	0.980400	0.872200	0.087000
H31	H3	0.873700	0.800400	0.112000
H41	H4	0.675200	0.857300	0.264700
H51	H5	0.412000	0.568500	0.798400
H61	H6	0.799600	0.854600	0.561400
H71	H7	0.906600	0.930700	0.484600
H81	H8	0.765100	0.005100	0.498700
H91	H9	0.084500	0.892700	0.205100
H101	H10	0.065600	0.901400	0.324500
H111	H11	0.854500	0.159900	0.191000
H121	H12	0.881200	0.370300	0.103900
H131	H13	0.078600	0.412000	0.062600
H141	H14	0.312400	0.227800	0.181400
H151	H15	0.358100	0.174200	0.081300
H161	H16	0.476400	0.342100	0.777700
H171	H17	0.406500	0.237300	0.877100
H181	H18	0.331500	0.356600	0.793000
H191	H19	0.186500	0.500900	0.188000
H201	H20	0.320100	0.427600	0.214900
H211	H21	0.291500	0.578600	0.152900
C11	C1	0.891100	0.877000	0.110300
C21	C2	0.844100	0.886400	0.226300
C31	C3	0.901100	0.909000	0.291300
C41	C4	0.812200	0.904900	0.393900
C51	C5	0.821700	0.925600	0.493300
C61	C6	0.030700	0.937400	0.257000
C71	C7	0.036000	0.077500	0.201200
C81	C8	0.933800	0.177500	0.174100
C91	C9	0.949600	0.302300	0.122400
C101	C10	0.066800	0.327200	0.097900
C111	C11	0.166800	0.224900	0.126400
C121	C12	0.298300	0.241400	0.108300
C131	C13	0.398700	0.328100	0.832400
C141	C14	0.370100	0.403700	0.909200
C151	C15	0.325800	0.371300	0.025400
C161	C16	0.318700	0.480800	0.048700
C171	C17	0.275400	0.498500	0.161100
C181	C18	0.480800	0.820300	0.652200
C191	C19	0.399400	0.903300	0.309800
C201	C20	0.348700	0.842600	0.010900
N11	N1	0.706200	0.883300	0.391100
N21	N2	0.729300	0.872100	0.287800
N31	N3	0.151700	0.102700	0.177400
N41	N4	0.385500	0.526100	0.869300
N51	N5	0.354200	0.575700	0.953900
N61	N6	0.445100	0.792700	0.749000
N71	N7	0.453800	0.877300	0.378600
N81	N8	0.331900	0.890000	0.076900
Cu41	Cu4	0.617970	0.244020	0.088780
Cu51	Cu5	0.463810	0.136320	0.505650
Cu61	Cu6	0.690190	0.048330	0.802400
H221	H22	0.150700	0.047800	0.942900
H231	H23	0.019600	0.127800	0.913000
H241	H24	0.126300	0.199600	0.888000
H251	H25	0.324800	0.142700	0.735300
H261	H26	0.588000	0.431500	0.201600
H271	H27	0.200400	0.145400	0.438600
H281	H28	0.093400	0.069300	0.515400
H291	H29	0.234900	0.994900	0.501300
H301	H30	0.915500	0.107300	0.794900
H311	H31	0.934400	0.098600	0.675500
H321	H32	0.145500	0.840100	0.809000
H331	H33	0.118800	0.629700	0.896100
H341	H34	0.921400	0.588000	0.937400
H351	H35	0.687600	0.772200	0.818600
H361	H36	0.641900	0.825800	0.918700
H371	H37	0.523600	0.657900	0.222300
H381	H38	0.593500	0.762700	0.122900
H391	H39	0.668500	0.643400	0.207000
H401	H40	0.813500	0.499100	0.812000
H411	H41	0.679900	0.572400	0.785100
H421	H42	0.708500	0.421400	0.847100
C211	C21	0.108900	0.123000	0.889700
C221	C22	0.155900	0.113600	0.773700
C231	C23	0.098900	0.091000	0.708700
C241	C24	0.187800	0.095100	0.606100
C251	C25	0.178300	0.074400	0.506700
C261	C26	0.969300	0.062600	0.743000
C271	C27	0.964000	0.922500	0.798800
C281	C28	0.066200	0.822500	0.825900
C291	C29	0.050400	0.697700	0.877600
C301	C30	0.933200	0.672800	0.902100
C311	C31	0.833200	0.775100	0.873600
C321	C32	0.701700	0.758600	0.891700
C331	C33	0.601300	0.671900	0.167600
C341	C34	0.629900	0.596300	0.090800
C351	C35	0.674200	0.628700	0.974600
C361	C36	0.681300	0.519200	0.951300
C371	C37	0.724600	0.501500	0.838900
C381	C38	0.519200	0.179700	0.347800
C391	C39	0.600600	0.096700	0.690200
C401	C40	0.651300	0.157400	0.989100
N91	N9	0.293800	0.116700	0.608900
N101	N10	0.270700	0.127900	0.712200
N111	N11	0.848300	0.897300	0.822600
N121	N12	0.614500	0.473900	0.130700
N131	N13	0.645800	0.424300	0.046100
N141	N14	0.554900	0.207300	0.251000
N151	N15	0.546200	0.122700	0.621400
N161	N16	0.668100	0.110000	0.923100
