data_BEXQOL_freeONLY_PM
_symmetry_space_group_name_H-M	'P1'
_cell_length_a	13.871800
_cell_length_b	16.948900
_cell_length_c	20.772000
_cell_angle_alpha	90.000000
_cell_angle_beta	90.000000
_cell_angle_gamma	90.000000
_symmetry_Int_Tables_number 1

loop_
_symmetry_equiv_pos_as_xyz
'x,y,z'

loop_
_atom_site_label
_atom_site_type_symbol
_atom_site_fract_x
_atom_site_fract_y
_atom_site_fract_z
Co11	Co1	0.878340	0.201710	0.076080
Co21	Co2	0.036340	0.201050	0.415220
N11	N1	0.828260	0.207640	0.171820
C11	C1	0.808670	0.211210	0.225180
N21	N2	0.897720	0.214310	0.372690
C21	C2	0.845010	0.213510	0.330120
N31	N3	0.778440	0.213290	0.285310
N41	N4	0.019840	0.189980	0.117230
C31	C3	0.071550	0.184540	0.160630
N51	N5	0.093760	0.193170	0.320350
C41	C4	0.109680	0.187490	0.266200
N61	N6	0.136590	0.178750	0.205820
N71	N7	0.934380	0.202060	0.979550
C51	C5	0.995440	0.235610	0.953940
N81	N8	0.229280	0.285260	0.947480
C61	C6	0.148090	0.278870	0.937020
N91	N9	0.057200	0.275850	0.920310
N101	N10	0.901140	0.324760	0.072510
C71	C7	0.942380	0.381980	0.062000
N111	N11	0.981220	0.578900	0.079040
C81	C8	0.983290	0.513380	0.065830
N121	N12	0.997350	0.441450	0.045900
N131	N13	0.176330	0.188000	0.455570
C91	C9	0.259490	0.188120	0.457600
N141	N14	0.466750	0.284840	0.491110
C101	C10	0.408780	0.238780	0.476370
N151	N15	0.353420	0.181130	0.457400
N161	N16	0.939380	0.823070	0.087020
C111	C11	0.895980	0.880620	0.090460
N171	N17	0.866620	0.078870	0.071950
C121	C12	0.859310	0.012670	0.081990
N181	N18	0.837070	0.939860	0.096540
Co31	Co3	0.621660	0.798290	0.576080
Co41	Co4	0.463660	0.798950	0.915220
N191	N19	0.671740	0.792360	0.671820
C131	C13	0.691330	0.788790	0.725180
N201	N20	0.602280	0.785690	0.872690
C141	C14	0.654990	0.786490	0.830120
N211	N21	0.721560	0.786710	0.785310
N221	N22	0.480160	0.810020	0.617230
C151	C15	0.428450	0.815460	0.660630
N231	N23	0.406240	0.806830	0.820350
C161	C16	0.390320	0.812510	0.766200
N241	N24	0.363410	0.821250	0.705820
N251	N25	0.565620	0.797940	0.479550
C171	C17	0.504560	0.764390	0.453940
N261	N26	0.270720	0.714740	0.447480
C181	C18	0.351910	0.721130	0.437020
N271	N27	0.442800	0.724150	0.420310
N281	N28	0.598860	0.675240	0.572510
C191	C19	0.557620	0.618020	0.562000
N291	N29	0.518780	0.421100	0.579040
C201	C20	0.516710	0.486620	0.565830
N301	N30	0.502650	0.558550	0.545900
N311	N31	0.323670	0.812000	0.955570
C211	C21	0.240510	0.811880	0.957600
N321	N32	0.033250	0.715160	0.991110
C221	C22	0.091220	0.761220	0.976370
N331	N33	0.146580	0.818870	0.957400
N341	N34	0.560620	0.176930	0.587020
C231	C23	0.604020	0.119380	0.590460
N351	N35	0.633380	0.921130	0.571950
C241	C24	0.640690	0.987330	0.581990
N361	N36	0.662930	0.060140	0.596540
Co51	Co5	0.121660	0.701710	0.423920
Co61	Co6	0.963660	0.701050	0.084780
N371	N37	0.171740	0.707640	0.328180
C251	C25	0.191330	0.711210	0.274820
N381	N38	0.102280	0.714310	0.127310
C261	C26	0.154990	0.713510	0.169880
N391	N39	0.221560	0.713290	0.214690
N401	N40	0.980160	0.689980	0.382770
C271	C27	0.928450	0.684540	0.339370
N411	N41	0.906240	0.693170	0.179650
C281	C28	0.890320	0.687490	0.233800
N421	N42	0.863410	0.678750	0.294180
N431	N43	0.065620	0.702060	0.520450
C291	C29	0.004560	0.735610	0.546060
N441	N44	0.770720	0.785260	0.552520
C301	C30	0.851910	0.778870	0.562980
N451	N45	0.942800	0.775850	0.579690
N461	N46	0.098860	0.824760	0.427490
C311	C31	0.057620	0.881980	0.438000
N471	N47	0.018780	0.078900	0.420960
C321	C32	0.016710	0.013380	0.434170
N481	N48	0.002650	0.941450	0.454100
N491	N49	0.823670	0.688000	0.044430
C331	C33	0.740510	0.688120	0.042400
N501	N50	0.533250	0.784840	0.008890
C341	C34	0.591220	0.738780	0.023630
N511	N51	0.646580	0.681130	0.042600
N521	N52	0.060620	0.323070	0.412980
C351	C35	0.104020	0.380620	0.409540
N531	N53	0.133380	0.578870	0.428050
C361	C36	0.140690	0.512670	0.418010
N541	N54	0.162930	0.439860	0.403460
Co71	Co7	0.378340	0.298290	0.923920
Co81	Co8	0.536340	0.298950	0.584780
N551	N55	0.328260	0.292360	0.828180
C371	C37	0.308670	0.288790	0.774820
N561	N56	0.397720	0.285690	0.627310
C381	C38	0.345010	0.286490	0.669880
N571	N57	0.278440	0.286710	0.714690
N581	N58	0.519840	0.310020	0.882770
C391	C39	0.571550	0.315460	0.839370
N591	N59	0.593760	0.306830	0.679650
C401	C40	0.609680	0.312510	0.733800
N601	N60	0.636590	0.321250	0.794180
N611	N61	0.434380	0.297940	0.020450
C411	C41	0.495440	0.264390	0.046060
N621	N62	0.729280	0.214740	0.052520
C421	C42	0.648090	0.221130	0.062980
N631	N63	0.557200	0.224150	0.079690
N641	N64	0.401140	0.175240	0.927490
C431	C43	0.442380	0.118020	0.938000
N651	N65	0.481220	0.921100	0.920960
C441	C44	0.483290	0.986620	0.934170
N661	N66	0.497350	0.058550	0.954100
N671	N67	0.676330	0.312000	0.544430
C451	C45	0.759490	0.311880	0.542400
N681	N68	0.966750	0.215160	0.508890
C461	C46	0.908780	0.261220	0.523630
N691	N69	0.853420	0.318870	0.542600
N701	N70	0.439380	0.676930	0.912980
C471	C47	0.395980	0.619380	0.909540
N711	N71	0.366620	0.421130	0.928050
C481	C48	0.359310	0.487330	0.918010
N721	N72	0.337070	0.560140	0.903460
