data_BEXREC_freeONLY_PM
_symmetry_space_group_name_H-M	'P1'
_cell_length_a	14.222800
_cell_length_b	16.705000
_cell_length_c	21.602000
_cell_angle_alpha	90.000000
_cell_angle_beta	90.000000
_cell_angle_gamma	90.000000
_symmetry_Int_Tables_number 1

loop_
_symmetry_equiv_pos_as_xyz
'x,y,z'

loop_
_atom_site_label
_atom_site_type_symbol
_atom_site_fract_x
_atom_site_fract_y
_atom_site_fract_z
Co11	Co1	0.870760	0.268200	0.925220
Co21	Co2	0.035650	0.269350	0.598470
N11	N1	0.826530	0.244290	0.834160
C11	C1	0.811280	0.242510	0.782110
N21	N2	0.905050	0.259040	0.643240
C21	C2	0.851790	0.251170	0.682300
N31	N3	0.785710	0.240620	0.723740
N41	N4	0.008830	0.283400	0.884370
C31	C3	0.059060	0.291460	0.842710
N51	N5	0.092190	0.285530	0.689250
C41	C4	0.102330	0.290830	0.741870
N61	N6	0.124440	0.300350	0.800630
N71	N7	0.924430	0.287460	0.016300
C51	C5	0.992000	0.278910	0.044500
N81	N8	0.225270	0.244950	0.050760
C61	C6	0.147700	0.256420	0.062570
N91	N9	0.061920	0.269800	0.082670
N101	N10	0.849430	0.391100	0.915650
C71	C7	0.841670	0.459250	0.909070
N111	N11	0.931870	0.646020	0.895350
C81	C8	0.883600	0.590800	0.898000
N121	N12	0.820240	0.534110	0.899980
N131	N13	0.170910	0.282850	0.557240
C91	C9	0.250600	0.291440	0.551930
N141	N14	0.460900	0.251280	0.484450
C101	C10	0.399910	0.275000	0.514270
N151	N15	0.341080	0.307860	0.552620
N161	N16	0.980340	0.894270	0.916730
C111	C11	0.953850	0.950670	0.942680
N171	N17	0.893710	0.145920	0.941570
C121	C12	0.909470	0.080880	0.956130
N181	N18	0.926170	0.009180	0.978360
Co31	Co3	0.629240	0.731800	0.425220
Co41	Co4	0.464350	0.730650	0.098470
N191	N19	0.673470	0.755710	0.334160
C131	C13	0.688720	0.757490	0.282110
N201	N20	0.594950	0.740960	0.143240
C141	C14	0.648210	0.748830	0.182300
N211	N21	0.714290	0.759380	0.223740
N221	N22	0.491170	0.716600	0.384370
C151	C15	0.440940	0.708540	0.342710
N231	N23	0.407810	0.714470	0.189250
C161	C16	0.397670	0.709170	0.241870
N241	N24	0.375560	0.699650	0.300630
N251	N25	0.575570	0.712540	0.516300
C171	C17	0.508000	0.721090	0.544500
N261	N26	0.274730	0.755050	0.550760
C181	C18	0.352300	0.743580	0.562570
N271	N27	0.438080	0.730200	0.582670
N281	N28	0.650570	0.608900	0.415650
C191	C19	0.658330	0.540750	0.409070
N291	N29	0.568130	0.353980	0.395350
C201	C20	0.616400	0.409200	0.398000
N301	N30	0.679760	0.465890	0.399980
N311	N31	0.329090	0.717150	0.057240
C211	C21	0.249400	0.708560	0.051930
N321	N32	0.039100	0.748720	0.984450
C221	C22	0.100090	0.725000	0.014270
N331	N33	0.158920	0.692140	0.052620
N341	N34	0.519660	0.105730	0.416730
C231	C23	0.546150	0.049330	0.442680
N351	N35	0.606290	0.854080	0.441570
C241	C24	0.590530	0.919120	0.456130
N361	N36	0.573830	0.990820	0.478360
Co51	Co5	0.129240	0.768200	0.574780
Co61	Co6	0.964350	0.769350	0.901530
N371	N37	0.173470	0.744290	0.665840
C251	C25	0.188720	0.742510	0.717890
N381	N38	0.094950	0.759040	0.856760
C261	C26	0.148210	0.751170	0.817700
N391	N39	0.214290	0.740620	0.776260
N401	N40	0.991170	0.783400	0.615630
C271	C27	0.940940	0.791460	0.657290
N411	N41	0.907810	0.785530	0.810750
C281	C28	0.897670	0.790830	0.758130
N421	N42	0.875560	0.800350	0.699370
N431	N43	0.075570	0.787460	0.483700
C291	C29	0.008000	0.778910	0.455500
N441	N44	0.774730	0.744950	0.449240
C301	C30	0.852300	0.756420	0.437430
N451	N45	0.938080	0.769800	0.417330
N461	N46	0.150570	0.891100	0.584350
C311	C31	0.158330	0.959250	0.590930
N471	N47	0.068130	0.146020	0.604650
C321	C32	0.116400	0.090800	0.602000
N481	N48	0.179760	0.034110	0.600020
N491	N49	0.829090	0.782850	0.942760
C331	C33	0.749400	0.791440	0.948070
N501	N50	0.539100	0.751280	0.015550
C341	C34	0.600090	0.775000	0.985730
N511	N51	0.658920	0.807860	0.947380
N521	N52	0.019660	0.394270	0.583270
C351	C35	0.046150	0.450670	0.557320
N531	N53	0.106290	0.645920	0.558430
C361	C36	0.090530	0.580880	0.543870
N541	N54	0.073830	0.509180	0.521640
Co71	Co7	0.370760	0.231800	0.074780
Co81	Co8	0.535650	0.230650	0.401530
N551	N55	0.326530	0.255710	0.165840
C371	C37	0.311280	0.257490	0.217890
N561	N56	0.405050	0.240960	0.356760
C381	C38	0.351790	0.248830	0.317700
N571	N57	0.285710	0.259380	0.276260
N581	N58	0.508830	0.216600	0.115630
C391	C39	0.559060	0.208540	0.157290
N591	N59	0.592190	0.214470	0.310750
C401	C40	0.602330	0.209170	0.258130
N601	N60	0.624440	0.199650	0.199370
N611	N61	0.424430	0.212540	0.983700
C411	C41	0.492000	0.221090	0.955500
N621	N62	0.725270	0.255050	0.949240
C421	C42	0.647700	0.243580	0.937430
N631	N63	0.561920	0.230200	0.917330
N641	N64	0.349430	0.108900	0.084350
C431	C43	0.341670	0.040750	0.090930
N651	N65	0.431870	0.853980	0.104650
C441	C44	0.383600	0.909200	0.102000
N661	N66	0.320240	0.965890	0.100020
N671	N67	0.670910	0.217150	0.442760
C451	C45	0.750600	0.208560	0.448070
N681	N68	0.960900	0.248720	0.515550
C461	C46	0.899910	0.225000	0.485730
N691	N69	0.841080	0.192140	0.447380
N701	N70	0.480340	0.605730	0.083270
C471	C47	0.453850	0.549330	0.057320
N711	N71	0.393710	0.354080	0.058430
C481	C48	0.409470	0.419120	0.043870
N721	N72	0.426170	0.490820	0.021640
