data_BIGZUO_freeONLY_PM
_symmetry_space_group_name_H-M	'P1'
_cell_length_a	44.391000
_cell_length_b	44.391000
_cell_length_c	23.258000
_cell_angle_alpha	90.000000
_cell_angle_beta	90.000000
_cell_angle_gamma	120.000000
_symmetry_Int_Tables_number 1

loop_
_symmetry_equiv_pos_as_xyz
'x,y,z'

loop_
_atom_site_label
_atom_site_type_symbol
_atom_site_fract_x
_atom_site_fract_y
_atom_site_fract_z
O11	O1	0.808700	0.253700	0.201000
C11	C1	0.829300	0.321000	0.301200
H11	H1	0.826200	0.309000	0.336400
C21	C2	0.838000	0.355500	0.300900
H21	H2	0.840400	0.367500	0.335900
O21	O2	0.801300	0.134700	0.190800
O31	O3	0.776400	0.159100	0.142800
C31	C3	0.782000	0.134900	0.151400
C41	C4	0.761500	0.102000	0.117800
C51	C5	0.739100	0.102200	0.079400
H31	H3	0.735700	0.121600	0.075500
C61	C6	0.721400	0.073200	0.046000
H41	H4	0.705400	0.072100	0.017800
N11	N1	0.726800	0.045400	0.053400
C71	C7	0.750700	0.047900	0.092800
H51	H5	0.754700	0.028900	0.096900
C81	C8	0.769500	0.077000	0.127100
H61	H6	0.786300	0.079000	0.154400
O41	O4	0.746300	0.555000	0.201000
C91	C9	0.679000	0.508300	0.301200
H71	H7	0.691000	0.517200	0.336400
C101	C10	0.644500	0.482500	0.300900
H81	H8	0.632500	0.472900	0.335900
O51	O5	0.865300	0.666600	0.190800
O61	O6	0.840900	0.617300	0.142800
C111	C11	0.865100	0.647100	0.151400
C121	C12	0.898000	0.659500	0.117800
C131	C13	0.897800	0.636900	0.079400
H91	H9	0.878400	0.614100	0.075500
C141	C14	0.926800	0.648200	0.046000
H101	H10	0.927900	0.633300	0.017800
N21	N2	0.954600	0.681400	0.053400
C151	C15	0.952100	0.702800	0.092800
H111	H11	0.971100	0.725800	0.096900
C161	C16	0.923000	0.692500	0.127100
H121	H12	0.921000	0.707300	0.154400
O71	O7	0.445000	0.191300	0.201000
C171	C17	0.491700	0.170700	0.301200
H131	H13	0.482800	0.173800	0.336400
C181	C18	0.517500	0.162000	0.300900
H141	H14	0.527100	0.159600	0.335900
O81	O8	0.333400	0.198700	0.190800
O91	O9	0.382700	0.223600	0.142800
C191	C19	0.352900	0.218000	0.151400
C201	C20	0.340500	0.238500	0.117800
C211	C21	0.363100	0.260900	0.079400
H151	H15	0.385900	0.264300	0.075500
C221	C22	0.351800	0.278600	0.046000
H161	H16	0.366700	0.294600	0.017800
N31	N3	0.318600	0.273200	0.053400
C231	C23	0.297200	0.249300	0.092800
H171	H17	0.274200	0.245300	0.096900
C241	C24	0.307500	0.230500	0.127100
H181	H18	0.292700	0.213700	0.154400
O101	O10	0.191300	0.746300	0.701000
C251	C25	0.170700	0.679000	0.801200
H191	H19	0.173800	0.691000	0.836400
C261	C26	0.162000	0.644500	0.800900
H201	H20	0.159600	0.632500	0.835900
O111	O11	0.198700	0.865300	0.690800
O121	O12	0.223600	0.840900	0.642800
C271	C27	0.218000	0.865100	0.651400
C281	C28	0.238500	0.898000	0.617800
C291	C29	0.260900	0.897800	0.579400
H211	H21	0.264300	0.878400	0.575500
C301	C30	0.278600	0.926800	0.546000
H221	H22	0.294600	0.927900	0.517800
N41	N4	0.273200	0.954600	0.553400
C311	C31	0.249300	0.952100	0.592800
H231	H23	0.245300	0.971100	0.596900
C321	C32	0.230500	0.923000	0.627100
H241	H24	0.213700	0.921000	0.654400
O131	O13	0.253700	0.445000	0.701000
C331	C33	0.321000	0.491700	0.801200
H251	H25	0.309000	0.482800	0.836400
C341	C34	0.355500	0.517500	0.800900
H261	H26	0.367500	0.527100	0.835900
O141	O14	0.134700	0.333400	0.690800
O151	O15	0.159100	0.382700	0.642800
C351	C35	0.134900	0.352900	0.651400
C361	C36	0.102000	0.340500	0.617800
C371	C37	0.102200	0.363100	0.579400
H271	H27	0.121600	0.385900	0.575500
C381	C38	0.073200	0.351800	0.546000
H281	H28	0.072100	0.366700	0.517800
N51	N5	0.045400	0.318600	0.553400
C391	C39	0.047900	0.297200	0.592800
H291	H29	0.028900	0.274200	0.596900
C401	C40	0.077000	0.307500	0.627100
H301	H30	0.079000	0.292700	0.654400
O161	O16	0.555000	0.808700	0.701000
C411	C41	0.508300	0.829300	0.801200
H311	H31	0.517200	0.826200	0.836400
C421	C42	0.482500	0.838000	0.800900
H321	H32	0.472900	0.840400	0.835900
O171	O17	0.666600	0.801300	0.690800
O181	O18	0.617300	0.776400	0.642800
C431	C43	0.647100	0.782000	0.651400
C441	C44	0.659500	0.761500	0.617800
C451	C45	0.636900	0.739100	0.579400
H331	H33	0.614100	0.735700	0.575500
C461	C46	0.648200	0.721400	0.546000
H341	H34	0.633300	0.705400	0.517800
N61	N6	0.681400	0.726800	0.553400
C471	C47	0.702800	0.750700	0.592800
H351	H35	0.725800	0.754700	0.596900
C481	C48	0.692500	0.769500	0.627100
H361	H36	0.707300	0.786300	0.654400
O191	O19	0.253700	0.808700	0.799000
C491	C49	0.321000	0.829300	0.698800
H371	H37	0.309000	0.826200	0.663600
C501	C50	0.355500	0.838000	0.699100
H381	H38	0.367500	0.840400	0.664100
O201	O20	0.134700	0.801300	0.809200
O211	O21	0.159100	0.776400	0.857200
C511	C51	0.134900	0.782000	0.848600
C521	C52	0.102000	0.761500	0.882200
C531	C53	0.102200	0.739100	0.920600
H391	H39	0.121600	0.735700	0.924500
C541	C54	0.073200	0.721400	0.954000
H401	H40	0.072100	0.705400	0.982200
N71	N7	0.045400	0.726800	0.946600
C551	C55	0.047900	0.750700	0.907200
H411	H41	0.028900	0.754700	0.903100
C561	C56	0.077000	0.769500	0.872900
H421	H42	0.079000	0.786300	0.845600
O221	O22	0.555000	0.746300	0.799000
C571	C57	0.508300	0.679000	0.698800
H431	H43	0.517200	0.691000	0.663600
C581	C58	0.482500	0.644500	0.699100
H441	H44	0.472900	0.632500	0.664100
O231	O23	0.666600	0.865300	0.809200
O241	O24	0.617300	0.840900	0.857200
C591	C59	0.647100	0.865100	0.848600
C601	C60	0.659500	0.898000	0.882200
C611	C61	0.636900	0.897800	0.920600
H451	H45	0.614100	0.878400	0.924500
C621	C62	0.648200	0.926800	0.954000
H461	H46	0.633300	0.927900	0.982200
N81	N8	0.681400	0.954600	0.946600
C631	C63	0.702800	0.952100	0.907200
H471	H47	0.725800	0.971100	0.903100
C641	C64	0.692500	0.923000	0.872900
H481	H48	0.707300	0.921000	0.845600
O251	O25	0.191300	0.445000	0.799000
C651	C65	0.170700	0.491700	0.698800
H491	H49	0.173800	0.482800	0.663600
C661	C66	0.162000	0.517500	0.699100
H501	H50	0.159600	0.527100	0.664100
O261	O26	0.198700	0.333400	0.809200
O271	O27	0.223600	0.382700	0.857200
C671	C67	0.218000	0.352900	0.848600
C681	C68	0.238500	0.340500	0.882200
C691	C69	0.260900	0.363100	0.920600
H511	H51	0.264300	0.385900	0.924500
C701	C70	0.278600	0.351800	0.954000
H521	H52	0.294600	0.366700	0.982200
N91	N9	0.273200	0.318600	0.946600
C711	C71	0.249300	0.297200	0.907200
H531	H53	0.245300	0.274200	0.903100
C721	C72	0.230500	0.307500	0.872900
H541	H54	0.213700	0.292700	0.845600
O281	O28	0.746300	0.191300	0.299000
C731	C73	0.679000	0.170700	0.198800
H551	H55	0.691000	0.173800	0.163600
C741	C74	0.644500	0.162000	0.199100
H561	H56	0.632500	0.159600	0.164100
O291	O29	0.865300	0.198700	0.309200
O301	O30	0.840900	0.223600	0.357200
C751	C75	0.865100	0.218000	0.348600
C761	C76	0.898000	0.238500	0.382200
C771	C77	0.897800	0.260900	0.420600
H571	H57	0.878400	0.264300	0.424500
C781	C78	0.926800	0.278600	0.454000
H581	H58	0.927900	0.294600	0.482200
N101	N10	0.954600	0.273200	0.446600
C791	C79	0.952100	0.249300	0.407200
H591	H59	0.971100	0.245300	0.403100
C801	C80	0.923000	0.230500	0.372900
H601	H60	0.921000	0.213700	0.345600
O311	O31	0.445000	0.253700	0.299000
C811	C81	0.491700	0.321000	0.198800
H611	H61	0.482800	0.309000	0.163600
C821	C82	0.517500	0.355500	0.199100
H621	H62	0.527100	0.367500	0.164100
O321	O32	0.333400	0.134700	0.309200
O331	O33	0.382700	0.159100	0.357200
C831	C83	0.352900	0.134900	0.348600
C841	C84	0.340500	0.102000	0.382200
C851	C85	0.363100	0.102200	0.420600
H631	H63	0.385900	0.121600	0.424500
C861	C86	0.351800	0.073200	0.454000
H641	H64	0.366700	0.072100	0.482200
N111	N11	0.318600	0.045400	0.446600
C871	C87	0.297200	0.047900	0.407200
H651	H65	0.274200	0.028900	0.403100
C881	C88	0.307500	0.077000	0.372900
H661	H66	0.292700	0.079000	0.345600
O341	O34	0.808700	0.555000	0.299000
C891	C89	0.829300	0.508300	0.198800
H671	H67	0.826200	0.517200	0.163600
C901	C90	0.838000	0.482500	0.199100
H681	H68	0.840400	0.472900	0.164100
O351	O35	0.801300	0.666600	0.309200
O361	O36	0.776400	0.617300	0.357200
C911	C91	0.782000	0.647100	0.348600
C921	C92	0.761500	0.659500	0.382200
C931	C93	0.739100	0.636900	0.420600
H691	H69	0.735700	0.614100	0.424500
C941	C94	0.721400	0.648200	0.454000
H701	H70	0.705400	0.633300	0.482200
N121	N12	0.726800	0.681400	0.446600
C951	C95	0.750700	0.702800	0.407200
H711	H71	0.754700	0.725800	0.403100
C961	C96	0.769500	0.692500	0.372900
H721	H72	0.786300	0.707300	0.345600
O371	O37	0.191300	0.746300	0.799000
C971	C97	0.170700	0.679000	0.698800
H731	H73	0.173800	0.691000	0.663600
C981	C98	0.162000	0.644500	0.699100
H741	H74	0.159600	0.632500	0.664100
O381	O38	0.198700	0.865300	0.809200
O391	O39	0.223600	0.840900	0.857200
C991	C99	0.218000	0.865100	0.848600
C1001	C100	0.238500	0.898000	0.882200
C1011	C101	0.260900	0.897800	0.920600
H751	H75	0.264300	0.878400	0.924500
C1021	C102	0.278600	0.926800	0.954000
H761	H76	0.294600	0.927900	0.982200
N131	N13	0.273200	0.954600	0.946600
C1031	C103	0.249300	0.952100	0.907200
H771	H77	0.245300	0.971100	0.903100
C1041	C104	0.230500	0.923000	0.872900
H781	H78	0.213700	0.921000	0.845600
O401	O40	0.253700	0.445000	0.799000
C1051	C105	0.321000	0.491700	0.698800
H791	H79	0.309000	0.482800	0.663600
C1061	C106	0.355500	0.517500	0.699100
H801	H80	0.367500	0.527100	0.664100
O411	O41	0.134700	0.333400	0.809200
O421	O42	0.159100	0.382700	0.857200
C1071	C107	0.134900	0.352900	0.848600
C1081	C108	0.102000	0.340500	0.882200
C1091	C109	0.102200	0.363100	0.920600
H811	H81	0.121600	0.385900	0.924500
C1101	C110	0.073200	0.351800	0.954000
H821	H82	0.072100	0.366700	0.982200
N141	N14	0.045400	0.318600	0.946600
C1111	C111	0.047900	0.297200	0.907200
H831	H83	0.028900	0.274200	0.903100
C1121	C112	0.077000	0.307500	0.872900
H841	H84	0.079000	0.292700	0.845600
O431	O43	0.555000	0.808700	0.799000
C1131	C113	0.508300	0.829300	0.698800
H851	H85	0.517200	0.826200	0.663600
C1141	C114	0.482500	0.838000	0.699100
H861	H86	0.472900	0.840400	0.664100
O441	O44	0.666600	0.801300	0.809200
O451	O45	0.617300	0.776400	0.857200
C1151	C115	0.647100	0.782000	0.848600
C1161	C116	0.659500	0.761500	0.882200
C1171	C117	0.636900	0.739100	0.920600
H871	H87	0.614100	0.735700	0.924500
C1181	C118	0.648200	0.721400	0.954000
H881	H88	0.633300	0.705400	0.982200
N151	N15	0.681400	0.726800	0.946600
C1191	C119	0.702800	0.750700	0.907200
H891	H89	0.725800	0.754700	0.903100
C1201	C120	0.692500	0.769500	0.872900
H901	H90	0.707300	0.786300	0.845600
O461	O46	0.808700	0.253700	0.299000
C1211	C121	0.829300	0.321000	0.198800
H911	H91	0.826200	0.309000	0.163600
C1221	C122	0.838000	0.355500	0.199100
H921	H92	0.840400	0.367500	0.164100
O471	O47	0.801300	0.134700	0.309200
O481	O48	0.776400	0.159100	0.357200
C1231	C123	0.782000	0.134900	0.348600
C1241	C124	0.761500	0.102000	0.382200
C1251	C125	0.739100	0.102200	0.420600
H931	H93	0.735700	0.121600	0.424500
C1261	C126	0.721400	0.073200	0.454000
H941	H94	0.705400	0.072100	0.482200
N161	N16	0.726800	0.045400	0.446600
C1271	C127	0.750700	0.047900	0.407200
H951	H95	0.754700	0.028900	0.403100
C1281	C128	0.769500	0.077000	0.372900
H961	H96	0.786300	0.079000	0.345600
O491	O49	0.746300	0.555000	0.299000
C1291	C129	0.679000	0.508300	0.198800
H971	H97	0.691000	0.517200	0.163600
C1301	C130	0.644500	0.482500	0.199100
H981	H98	0.632500	0.472900	0.164100
O501	O50	0.865300	0.666600	0.309200
O511	O51	0.840900	0.617300	0.357200
C1311	C131	0.865100	0.647100	0.348600
C1321	C132	0.898000	0.659500	0.382200
C1331	C133	0.897800	0.636900	0.420600
H991	H99	0.878400	0.614100	0.424500
C1341	C134	0.926800	0.648200	0.454000
H1001	H100	0.927900	0.633300	0.482200
N171	N17	0.954600	0.681400	0.446600
C1351	C135	0.952100	0.702800	0.407200
H1011	H101	0.971100	0.725800	0.403100
C1361	C136	0.923000	0.692500	0.372900
H1021	H102	0.921000	0.707300	0.345600
O521	O52	0.445000	0.191300	0.299000
C1371	C137	0.491700	0.170700	0.198800
H1031	H103	0.482800	0.173800	0.163600
C1381	C138	0.517500	0.162000	0.199100
H1041	H104	0.527100	0.159600	0.164100
O531	O53	0.333400	0.198700	0.309200
O541	O54	0.382700	0.223600	0.357200
C1391	C139	0.352900	0.218000	0.348600
C1401	C140	0.340500	0.238500	0.382200
C1411	C141	0.363100	0.260900	0.420600
H1051	H105	0.385900	0.264300	0.424500
C1421	C142	0.351800	0.278600	0.454000
H1061	H106	0.366700	0.294600	0.482200
N181	N18	0.318600	0.273200	0.446600
C1431	C143	0.297200	0.249300	0.407200
H1071	H107	0.274200	0.245300	0.403100
C1441	C144	0.307500	0.230500	0.372900
H1081	H108	0.292700	0.213700	0.345600
O551	O55	0.746300	0.191300	0.201000
C1451	C145	0.679000	0.170700	0.301200
H1091	H109	0.691000	0.173800	0.336400
C1461	C146	0.644500	0.162000	0.300900
H1101	H110	0.632500	0.159600	0.335900
O561	O56	0.865300	0.198700	0.190800
O571	O57	0.840900	0.223600	0.142800
C1471	C147	0.865100	0.218000	0.151400
C1481	C148	0.898000	0.238500	0.117800
C1491	C149	0.897800	0.260900	0.079400
H1111	H111	0.878400	0.264300	0.075500
C1501	C150	0.926800	0.278600	0.046000
H1121	H112	0.927900	0.294600	0.017800
N191	N19	0.954600	0.273200	0.053400
C1511	C151	0.952100	0.249300	0.092800
H1131	H113	0.971100	0.245300	0.096900
C1521	C152	0.923000	0.230500	0.127100
H1141	H114	0.921000	0.213700	0.154400
O581	O58	0.445000	0.253700	0.201000
C1531	C153	0.491700	0.321000	0.301200
H1151	H115	0.482800	0.309000	0.336400
C1541	C154	0.517500	0.355500	0.300900
H1161	H116	0.527100	0.367500	0.335900
O591	O59	0.333400	0.134700	0.190800
O601	O60	0.382700	0.159100	0.142800
C1551	C155	0.352900	0.134900	0.151400
C1561	C156	0.340500	0.102000	0.117800
C1571	C157	0.363100	0.102200	0.079400
H1171	H117	0.385900	0.121600	0.075500
C1581	C158	0.351800	0.073200	0.046000
H1181	H118	0.366700	0.072100	0.017800
N201	N20	0.318600	0.045400	0.053400
C1591	C159	0.297200	0.047900	0.092800
H1191	H119	0.274200	0.028900	0.096900
C1601	C160	0.307500	0.077000	0.127100
H1201	H120	0.292700	0.079000	0.154400
O611	O61	0.808700	0.555000	0.201000
C1611	C161	0.829300	0.508300	0.301200
H1211	H121	0.826200	0.517200	0.336400
C1621	C162	0.838000	0.482500	0.300900
H1221	H122	0.840400	0.472900	0.335900
O621	O62	0.801300	0.666600	0.190800
O631	O63	0.776400	0.617300	0.142800
C1631	C163	0.782000	0.647100	0.151400
C1641	C164	0.761500	0.659500	0.117800
C1651	C165	0.739100	0.636900	0.079400
H1231	H123	0.735700	0.614100	0.075500
C1661	C166	0.721400	0.648200	0.046000
H1241	H124	0.705400	0.633300	0.017800
N211	N21	0.726800	0.681400	0.053400
C1671	C167	0.750700	0.702800	0.092800
H1251	H125	0.754700	0.725800	0.096900
C1681	C168	0.769500	0.692500	0.127100
H1261	H126	0.786300	0.707300	0.154400
O641	O64	0.253700	0.808700	0.701000
C1691	C169	0.321000	0.829300	0.801200
H1271	H127	0.309000	0.826200	0.836400
C1701	C170	0.355500	0.838000	0.800900
H1281	H128	0.367500	0.840400	0.835900
O651	O65	0.134700	0.801300	0.690800
O661	O66	0.159100	0.776400	0.642800
C1711	C171	0.134900	0.782000	0.651400
C1721	C172	0.102000	0.761500	0.617800
C1731	C173	0.102200	0.739100	0.579400
H1291	H129	0.121600	0.735700	0.575500
C1741	C174	0.073200	0.721400	0.546000
H1301	H130	0.072100	0.705400	0.517800
N221	N22	0.045400	0.726800	0.553400
C1751	C175	0.047900	0.750700	0.592800
H1311	H131	0.028900	0.754700	0.596900
C1761	C176	0.077000	0.769500	0.627100
H1321	H132	0.079000	0.786300	0.654400
O671	O67	0.555000	0.746300	0.701000
C1771	C177	0.508300	0.679000	0.801200
H1331	H133	0.517200	0.691000	0.836400
C1781	C178	0.482500	0.644500	0.800900
H1341	H134	0.472900	0.632500	0.835900
O681	O68	0.666600	0.865300	0.690800
O691	O69	0.617300	0.840900	0.642800
C1791	C179	0.647100	0.865100	0.651400
C1801	C180	0.659500	0.898000	0.617800
C1811	C181	0.636900	0.897800	0.579400
H1351	H135	0.614100	0.878400	0.575500
C1821	C182	0.648200	0.926800	0.546000
H1361	H136	0.633300	0.927900	0.517800
N231	N23	0.681400	0.954600	0.553400
C1831	C183	0.702800	0.952100	0.592800
H1371	H137	0.725800	0.971100	0.596900
C1841	C184	0.692500	0.923000	0.627100
H1381	H138	0.707300	0.921000	0.654400
O701	O70	0.191300	0.445000	0.701000
C1851	C185	0.170700	0.491700	0.801200
H1391	H139	0.173800	0.482800	0.836400
C1861	C186	0.162000	0.517500	0.800900
H1401	H140	0.159600	0.527100	0.835900
O711	O71	0.198700	0.333400	0.690800
O721	O72	0.223600	0.382700	0.642800
C1871	C187	0.218000	0.352900	0.651400
C1881	C188	0.238500	0.340500	0.617800
C1891	C189	0.260900	0.363100	0.579400
H1411	H141	0.264300	0.385900	0.575500
C1901	C190	0.278600	0.351800	0.546000
H1421	H142	0.294600	0.366700	0.517800
N241	N24	0.273200	0.318600	0.553400
C1911	C191	0.249300	0.297200	0.592800
H1431	H143	0.245300	0.274200	0.596900
C1921	C192	0.230500	0.307500	0.627100
H1441	H144	0.213700	0.292700	0.654400
Ag11	Ag1	0.852530	0.426260	0.250000
Ag21	Ag2	0.573740	0.426260	0.250000
Ag31	Ag3	0.573740	0.147470	0.250000
Ag41	Ag4	0.147470	0.573740	0.750000
Ag51	Ag5	0.426260	0.573730	0.750000
Ag61	Ag6	0.426260	0.852530	0.750000
Ag71	Ag7	0.702640	0.000000	0.000000
Ag81	Ag8	0.000000	0.702640	0.000000
Ag91	Ag9	0.297360	0.297360	0.000000
Ag101	Ag10	0.297360	0.000000	0.500000
Ag111	Ag11	0.000000	0.297360	0.500000
Ag121	Ag12	0.702640	0.702640	0.500000
Ag131	Ag13	0.297360	0.000000	0.000000
Ag141	Ag14	0.000000	0.297360	0.000000
Ag151	Ag15	0.702640	0.702640	0.000000
Ag161	Ag16	0.702640	0.000000	0.500000
Ag171	Ag17	0.000000	0.702640	0.500000
Ag181	Ag18	0.297360	0.297360	0.500000
Cr11	Cr1	0.831560	0.168440	0.250000
O731	O73	0.807900	0.192100	0.250000
O741	O74	0.859000	0.141000	0.250000
Cr21	Cr2	0.831560	0.663120	0.250000
O751	O75	0.807900	0.615800	0.250000
O761	O76	0.859000	0.718000	0.250000
Cr31	Cr3	0.336880	0.168440	0.250000
O771	O77	0.384200	0.192100	0.250000
O781	O78	0.282000	0.141000	0.250000
Cr41	Cr4	0.168440	0.831560	0.750000
O791	O79	0.192100	0.807900	0.750000
O801	O80	0.141000	0.859000	0.750000
Cr51	Cr5	0.168440	0.336880	0.750000
O811	O81	0.192100	0.384200	0.750000
O821	O82	0.141000	0.282000	0.750000
Cr61	Cr6	0.663120	0.831560	0.750000
O831	O83	0.615800	0.807900	0.750000
O841	O84	0.718000	0.859000	0.750000
Cr71	Cr7	0.794870	0.205130	0.179800
O851	O85	0.781450	0.218550	0.099600
Cr81	Cr8	0.794870	0.589740	0.179800
O861	O86	0.781450	0.562900	0.099600
Cr91	Cr9	0.410260	0.205130	0.179800
O871	O87	0.437100	0.218550	0.099600
Cr101	Cr10	0.205130	0.794870	0.679800
O881	O88	0.218550	0.781450	0.599600
Cr111	Cr11	0.205130	0.410260	0.679800
O891	O89	0.218550	0.437100	0.599600
Cr121	Cr12	0.589740	0.794870	0.679800
O901	O90	0.562900	0.781450	0.599600
Cr131	Cr13	0.205130	0.794870	0.820200
O911	O91	0.218550	0.781450	0.900400
Cr141	Cr14	0.589740	0.794870	0.820200
O921	O92	0.562900	0.781450	0.900400
Cr151	Cr15	0.205130	0.410260	0.820200
O931	O93	0.218550	0.437100	0.900400
Cr161	Cr16	0.794870	0.205130	0.320200
O941	O94	0.781450	0.218550	0.400400
Cr171	Cr17	0.410260	0.205130	0.320200
O951	O95	0.437100	0.218550	0.400400
Cr181	Cr18	0.794870	0.589740	0.320200
O961	O96	0.781450	0.562900	0.400400
C1931	C193	0.813400	0.266000	0.250000
C1941	C194	0.825400	0.304500	0.250000
N251	N25	0.843000	0.371800	0.250000
C1951	C195	0.734000	0.547400	0.250000
C1961	C196	0.695500	0.520900	0.250000
N261	N26	0.628200	0.471200	0.250000
C1971	C197	0.452600	0.186600	0.250000
C1981	C198	0.479100	0.174600	0.250000
N271	N27	0.528800	0.157000	0.250000
C1991	C199	0.186600	0.734000	0.750000
C2001	C200	0.174600	0.695500	0.750000
N281	N28	0.157000	0.628200	0.750000
C2011	C201	0.266000	0.452600	0.750000
C2021	C202	0.304500	0.479100	0.750000
N291	N29	0.371800	0.528800	0.750000
C2031	C203	0.547400	0.813400	0.750000
C2041	C204	0.520900	0.825400	0.750000
N301	N30	0.471200	0.843000	0.750000
C2051	C205	0.266000	0.813400	0.750000
C2061	C206	0.304500	0.825400	0.750000
N311	N31	0.371800	0.843000	0.750000
C2071	C207	0.547400	0.734000	0.750000
C2081	C208	0.520900	0.695500	0.750000
N321	N32	0.471200	0.628200	0.750000
C2091	C209	0.186600	0.452600	0.750000
C2101	C210	0.174600	0.479100	0.750000
N331	N33	0.157000	0.528800	0.750000
C2111	C211	0.734000	0.186600	0.250000
C2121	C212	0.695500	0.174600	0.250000
N341	N34	0.628200	0.157000	0.250000
C2131	C213	0.452600	0.266000	0.250000
C2141	C214	0.479100	0.304500	0.250000
N351	N35	0.528800	0.371800	0.250000
C2151	C215	0.813400	0.547400	0.250000
C2161	C216	0.825400	0.520900	0.250000
N361	N36	0.843000	0.471200	0.250000
