data_BIHMUC_freeONLY_PM
_symmetry_space_group_name_H-M	'P1'
_cell_length_a	10.040600
_cell_length_b	11.214200
_cell_length_c	14.310000
_cell_angle_alpha	87.454000
_cell_angle_beta	84.296000
_cell_angle_gamma	68.867000
_symmetry_Int_Tables_number 1

loop_
_symmetry_equiv_pos_as_xyz
'x,y,z'

loop_
_atom_site_label
_atom_site_type_symbol
_atom_site_fract_x
_atom_site_fract_y
_atom_site_fract_z
Co11	Co1	0.828730	0.063910	0.420170
Co21	Co2	0.171270	0.936090	0.579830
Co31	Co3	0.000000	0.500000	0.000000
H11	H1	0.621300	0.953000	0.589500
H21	H2	0.527200	0.730600	0.792500
H31	H3	0.918000	0.758100	0.763900
H41	H4	0.095500	0.212900	0.977900
H51	H5	0.258900	0.041300	0.896300
H61	H6	0.432100	0.074400	0.788900
H71	H7	0.243400	0.448800	0.837100
H81	H8	0.614300	0.194700	0.581400
H91	H9	0.853400	0.337600	0.416200
H101	H10	0.591800	0.549100	0.625700
H111	H11	0.048600	0.543700	0.275300
H121	H12	0.138000	0.694000	0.208200
H131	H13	0.052100	0.898400	0.265100
H141	H14	0.789700	0.810400	0.451200
H151	H15	0.528500	0.215100	0.715900
H161	H16	0.871000	0.505300	0.377800
H171	H17	0.774300	0.448900	0.996800
H181	H18	0.887200	0.335600	0.974000
H191	H19	0.378700	0.047000	0.410500
H201	H20	0.472800	0.269400	0.207500
H211	H21	0.082000	0.241900	0.236100
H221	H22	0.904500	0.787100	0.022100
H231	H23	0.741100	0.958700	0.103700
H241	H24	0.567900	0.925600	0.211100
H251	H25	0.756600	0.551200	0.162900
H261	H26	0.385700	0.805300	0.418600
H271	H27	0.146600	0.662400	0.583800
H281	H28	0.408200	0.450900	0.374300
H291	H29	0.951400	0.456300	0.724700
H301	H30	0.862000	0.306000	0.791800
H311	H31	0.947900	0.101600	0.734900
H321	H32	0.210300	0.189600	0.548800
H331	H33	0.471500	0.784900	0.284100
H341	H34	0.129000	0.494700	0.622200
H351	H35	0.225700	0.551100	0.003200
H361	H36	0.112800	0.664400	0.026000
C11	C1	0.890700	0.916800	0.618600
C21	C2	0.786500	0.865100	0.669000
C31	C3	0.648500	0.897300	0.640100
C41	C4	0.552300	0.847300	0.685800
C51	C5	0.406500	0.880700	0.651100
C61	C6	0.592600	0.763200	0.761200
C71	C7	0.729300	0.727600	0.789800
C81	C8	0.777000	0.633000	0.869100
C91	C9	0.826700	0.780200	0.744000
C101	C10	0.160800	0.227100	0.932100
C111	C11	0.260200	0.123100	0.884600
C121	C12	0.361100	0.142900	0.819600
C131	C13	0.354600	0.265900	0.801200
C141	C14	0.248500	0.365400	0.850400
C151	C15	0.468800	0.387500	0.693800
C161	C16	0.586000	0.373000	0.616200
C171	C17	0.644300	0.262700	0.564300
C181	C18	0.785100	0.346500	0.466900
C191	C19	0.732000	0.461800	0.515000
C201	C20	0.629600	0.473600	0.591700
C211	C21	0.782900	0.569000	0.488700
C221	C22	0.909000	0.662400	0.371700
C231	C23	0.014200	0.626900	0.297900
C241	C24	0.067200	0.716100	0.258100
C251	C25	0.015300	0.838600	0.292500
C261	C26	0.861600	0.785900	0.402000
C271	C27	0.109300	0.083200	0.381400
C281	C28	0.213500	0.134900	0.331000
C291	C29	0.351500	0.102700	0.359900
C301	C30	0.447700	0.152700	0.314200
C311	C31	0.593500	0.119300	0.348900
C321	C32	0.407400	0.236800	0.238800
C331	C33	0.270700	0.272400	0.210200
C341	C34	0.223000	0.367000	0.130900
C351	C35	0.173300	0.219800	0.256000
C361	C36	0.839200	0.772900	0.067900
C371	C37	0.739800	0.876900	0.115400
C381	C38	0.638900	0.857100	0.180400
C391	C39	0.645400	0.734100	0.198800
C401	C40	0.751500	0.634600	0.149600
C411	C41	0.531200	0.612500	0.306200
C421	C42	0.414000	0.627000	0.383800
C431	C43	0.355700	0.737300	0.435700
C441	C44	0.214900	0.653500	0.533100
C451	C45	0.268000	0.538200	0.485000
C461	C46	0.370400	0.526400	0.408300
C471	C47	0.217100	0.431000	0.511300
C481	C48	0.091000	0.337600	0.628300
C491	C49	0.985800	0.373100	0.702100
C501	C50	0.932800	0.283900	0.741900
C511	C51	0.984700	0.161400	0.707500
C521	C52	0.138400	0.214100	0.598000
N11	N1	0.154500	0.346100	0.915400
N21	N2	0.459500	0.284300	0.733500
N31	N3	0.742900	0.247800	0.489800
N41	N4	0.853300	0.571200	0.412100
N51	N5	0.914300	0.874200	0.363700
N61	N6	0.845500	0.653900	0.084600
N71	N7	0.540500	0.715700	0.266500
N81	N8	0.257100	0.752200	0.510200
N91	N9	0.146700	0.428800	0.587900
N101	N10	0.085700	0.125800	0.636300
O11	O1	0.852700	0.992800	0.551900
O21	O2	0.856200	0.398800	0.011300
O31	O3	0.014500	0.881700	0.647100
O41	O4	0.907100	0.595700	0.883000
O51	O5	0.684500	0.599400	0.916500
O61	O6	0.381100	0.940100	0.574600
O71	O7	0.310000	0.849600	0.697700
O81	O8	0.656600	0.690300	0.492600
O91	O9	0.365400	0.492200	0.704500
O101	O10	0.147300	0.007200	0.448100
O111	O11	0.143800	0.601200	0.988700
O121	O12	0.985500	0.118300	0.352900
O131	O13	0.092900	0.404300	0.117000
O141	O14	0.315500	0.400600	0.083500
O151	O15	0.618900	0.059900	0.425400
O161	O16	0.690000	0.150400	0.302300
O171	O17	0.343400	0.309700	0.507400
O181	O18	0.634600	0.507800	0.295500
