data_BINCUY_manual_PM
_symmetry_space_group_name_H-M	'P1'
_cell_length_a	22.249000
_cell_length_b	22.249000
_cell_length_c	22.249000
_cell_angle_alpha	90.000000
_cell_angle_beta	90.000000
_cell_angle_gamma	90.000000
_symmetry_Int_Tables_number 1

loop_
_symmetry_equiv_pos_as_xyz
'x,y,z'

loop_
_atom_site_label
_atom_site_type_symbol
_atom_site_fract_x
_atom_site_fract_y
_atom_site_fract_z
H11	H1	0.351560	0.859220	0.200010
C21	C2	0.281460	0.051000	0.873760
H31	H3	0.262750	0.029300	0.831280
C41	C4	0.329750	0.025410	0.902920
H51	H5	0.352730	0.984140	0.883070
H61	H6	0.648440	0.140780	0.200010
C71	C7	0.718540	0.949000	0.873760
H81	H8	0.737250	0.970700	0.831280
C91	C9	0.670250	0.974590	0.902920
H101	H10	0.647270	0.015860	0.883070
H111	H11	0.648440	0.859220	0.799990
C121	C12	0.718540	0.051000	0.126240
H131	H13	0.737250	0.029300	0.168720
C141	C14	0.670250	0.025410	0.097080
H151	H15	0.647270	0.984140	0.116930
H161	H16	0.351560	0.140780	0.799990
C171	C17	0.281460	0.949000	0.126240
H181	H18	0.262750	0.970700	0.168720
C191	C19	0.329750	0.974590	0.097080
H201	H20	0.352730	0.015860	0.116930
H211	H21	0.200010	0.351560	0.859220
C221	C22	0.873760	0.281460	0.051000
H231	H23	0.831280	0.262750	0.029300
C241	C24	0.902920	0.329750	0.025410
H251	H25	0.883070	0.352730	0.984140
H261	H26	0.200010	0.648440	0.140780
C271	C27	0.873760	0.718540	0.949000
H281	H28	0.831280	0.737250	0.970700
C291	C29	0.902920	0.670250	0.974590
H301	H30	0.883070	0.647270	0.015860
H311	H31	0.799990	0.648440	0.859220
C321	C32	0.126240	0.718540	0.051000
H331	H33	0.168720	0.737250	0.029300
C341	C34	0.097080	0.670250	0.025410
H351	H35	0.116930	0.647270	0.984140
H361	H36	0.799990	0.351560	0.140780
C371	C37	0.126240	0.281460	0.949000
H381	H38	0.168720	0.262750	0.970700
C391	C39	0.097080	0.329750	0.974590
H401	H40	0.116930	0.352730	0.015860
H411	H41	0.859220	0.200010	0.351560
C421	C42	0.051000	0.873760	0.281460
H431	H43	0.029300	0.831280	0.262750
C441	C44	0.025410	0.902920	0.329750
H451	H45	0.984140	0.883070	0.352730
H461	H46	0.140780	0.200010	0.648440
C471	C47	0.949000	0.873760	0.718540
H481	H48	0.970700	0.831280	0.737250
C491	C49	0.974590	0.902920	0.670250
H501	H50	0.015860	0.883070	0.647270
H511	H51	0.859220	0.799990	0.648440
C521	C52	0.051000	0.126240	0.718540
H531	H53	0.029300	0.168720	0.737250
C541	C54	0.025410	0.097080	0.670250
H551	H55	0.984140	0.116930	0.647270
H561	H56	0.140780	0.799990	0.351560
C571	C57	0.949000	0.126240	0.281460
H581	H58	0.970700	0.168720	0.262750
C591	C59	0.974590	0.097080	0.329750
H601	H60	0.015860	0.116930	0.352730
H611	H61	0.859220	0.351430	0.199940
C621	C62	0.051000	0.281460	0.873760
H631	H63	0.029300	0.262750	0.831280
C641	C64	0.025410	0.329750	0.902920
H651	H65	0.984140	0.352730	0.883070
H661	H66	0.140780	0.648570	0.199940
C671	C67	0.949000	0.718540	0.873760
H681	H68	0.970700	0.737250	0.831280
C691	C69	0.974590	0.670250	0.902920
H701	H70	0.015860	0.647270	0.883070
H711	H71	0.859220	0.648570	0.800060
C721	C72	0.051000	0.718540	0.126240
H731	H73	0.029300	0.737250	0.168720
C741	C74	0.025410	0.670250	0.097080
H751	H75	0.984140	0.647270	0.116930
H761	H76	0.140780	0.351430	0.800060
C771	C77	0.949000	0.281460	0.126240
H781	H78	0.970700	0.262750	0.168720
C791	C79	0.974590	0.329750	0.097080
H801	H80	0.015860	0.352730	0.116930
H811	H81	0.351430	0.199940	0.859220
C821	C82	0.281460	0.873760	0.051000
H831	H83	0.262750	0.831280	0.029300
C841	C84	0.329750	0.902920	0.025410
H851	H85	0.352730	0.883070	0.984140
H861	H86	0.648570	0.199940	0.140780
C871	C87	0.718540	0.873760	0.949000
H881	H88	0.737250	0.831280	0.970700
C891	C89	0.670250	0.902920	0.974590
H901	H90	0.647270	0.883070	0.015860
H911	H91	0.648570	0.800060	0.859220
C921	C92	0.718540	0.126240	0.051000
H931	H93	0.737250	0.168720	0.029300
C941	C94	0.670250	0.097080	0.025410
H951	H95	0.647270	0.116930	0.984140
H961	H96	0.351430	0.800060	0.140780
C971	C97	0.281460	0.126240	0.949000
H981	H98	0.262750	0.168720	0.970700
C991	C99	0.329750	0.097080	0.974590
H1001	H100	0.352730	0.116930	0.015860
H1011	H101	0.199940	0.859220	0.351430
C1021	C102	0.873760	0.051000	0.281460
H1031	H103	0.831280	0.029300	0.262750
C1041	C104	0.902920	0.025410	0.329750
H1051	H105	0.883070	0.984140	0.352730
H1061	H106	0.199940	0.140780	0.648570
C1071	C107	0.873760	0.949000	0.718540
H1081	H108	0.831280	0.970700	0.737250
C1091	C109	0.902920	0.974590	0.670250
H1101	H110	0.883070	0.015860	0.647270
H1111	H111	0.800060	0.859220	0.648570
C1121	C112	0.126240	0.051000	0.718540
H1131	H113	0.168720	0.029300	0.737250
C1141	C114	0.097080	0.025410	0.670250
H1151	H115	0.116930	0.984140	0.647270
H1161	H116	0.800060	0.140780	0.351430
C1171	C117	0.126240	0.949000	0.281460
H1181	H118	0.168720	0.970700	0.262750
C1191	C119	0.097080	0.974590	0.329750
H1201	H120	0.116930	0.015860	0.352730
Co1211	Co121	0.424270	0.000000	0.000000
Co1221	Co122	0.575730	0.000000	0.000000
Co1231	Co123	0.000000	0.424270	0.000000
Co1241	Co124	0.000000	0.575730	0.000000
Co1251	Co125	0.000000	0.000000	0.424270
Co1261	Co126	0.000000	0.000000	0.575730
O1271	O127	0.472210	0.938020	0.061980
N1281	N128	0.351290	0.046450	0.953550
C1291	C129	0.297450	0.778810	0.221190
O1301	O130	0.406150	0.783670	0.216330
C1311	C131	0.202820	0.131120	0.868880
O1321	O132	0.573150	0.935710	0.064290
C1331	C133	0.521220	0.918720	0.081280
C1341	C134	0.352590	0.808740	0.191260
C1351	C135	0.256060	0.103290	0.896710
C1361	C136	0.519480	0.870260	0.129740
C1371	C137	0.463130	0.850500	0.149500
H1381	H138	0.420460	0.870560	0.129440
C1391	C139	0.459120	0.805290	0.194710
C1401	C140	0.511000	0.782300	0.217700
H1411	H141	0.509140	0.746090	0.253910
C1421	C142	0.567600	0.802290	0.197710
H1431	H143	0.610350	0.782310	0.217690
C1441	C144	0.570700	0.846200	0.153800
H1451	H145	0.616590	0.862310	0.137690
O1461	O146	0.527790	0.061980	0.061980
N1471	N147	0.648710	0.953550	0.953550
C1481	C148	0.702550	0.221190	0.221190
O1491	O149	0.593850	0.216330	0.216330
C1501	C150	0.797180	0.868880	0.868880
O1511	O151	0.426850	0.064290	0.064290
C1521	C152	0.478780	0.081280	0.081280
C1531	C153	0.647410	0.191260	0.191260
C1541	C154	0.743940	0.896710	0.896710
C1551	C155	0.480520	0.129740	0.129740
C1561	C156	0.536870	0.149500	0.149500
H1571	H157	0.579540	0.129440	0.129440
C1581	C158	0.540880	0.194710	0.194710
C1591	C159	0.489000	0.217700	0.217700
H1601	H160	0.490860	0.253910	0.253910
C1611	C161	0.432400	0.197710	0.197710
H1621	H162	0.389650	0.217690	0.217690
C1631	C163	0.429300	0.153800	0.153800
H1641	H164	0.383410	0.137690	0.137690
O1651	O165	0.527790	0.938020	0.938020
N1661	N166	0.648710	0.046450	0.046450
C1671	C167	0.702550	0.778810	0.778810
O1681	O168	0.593850	0.783670	0.783670
C1691	C169	0.797180	0.131120	0.131120
O1701	O170	0.426850	0.935710	0.935710
C1711	C171	0.478780	0.918720	0.918720
C1721	C172	0.647410	0.808740	0.808740
C1731	C173	0.743940	0.103290	0.103290
C1741	C174	0.480520	0.870260	0.870260
C1751	C175	0.536870	0.850500	0.850500
H1761	H176	0.579540	0.870560	0.870560
C1771	C177	0.540880	0.805290	0.805290
C1781	C178	0.489000	0.782300	0.782300
H1791	H179	0.490860	0.746090	0.746090
C1801	C180	0.432400	0.802290	0.802290
H1811	H181	0.389650	0.782310	0.782310
C1821	C182	0.429300	0.846200	0.846200
H1831	H183	0.383410	0.862310	0.862310
O1841	O184	0.472210	0.061980	0.938020
N1851	N185	0.351290	0.953550	0.046450
C1861	C186	0.297450	0.221190	0.778810
O1871	O187	0.406150	0.216330	0.783670
C1881	C188	0.202820	0.868880	0.131120
O1891	O189	0.573150	0.064290	0.935710
C1901	C190	0.521220	0.081280	0.918720
C1911	C191	0.352590	0.191260	0.808740
C1921	C192	0.256060	0.896710	0.103290
C1931	C193	0.519480	0.129740	0.870260
C1941	C194	0.463130	0.149500	0.850500
H1951	H195	0.420460	0.129440	0.870560
C1961	C196	0.459120	0.194710	0.805290
C1971	C197	0.511000	0.217700	0.782300
H1981	H198	0.509140	0.253910	0.746090
C1991	C199	0.567600	0.197710	0.802290
H2001	H200	0.610350	0.217690	0.782310
C2011	C201	0.570700	0.153800	0.846200
H2021	H202	0.616590	0.137690	0.862310
O2031	O203	0.061980	0.472210	0.938020
N2041	N204	0.953550	0.351290	0.046450
C2051	C205	0.221190	0.297450	0.778810
O2061	O206	0.216330	0.406150	0.783670
C2071	C207	0.868880	0.202820	0.131120
O2081	O208	0.064290	0.573150	0.935710
C2091	C209	0.081280	0.521220	0.918720
C2101	C210	0.191260	0.352590	0.808740
C2111	C211	0.896710	0.256060	0.103290
C2121	C212	0.129740	0.519480	0.870260
C2131	C213	0.149500	0.463130	0.850500
H2141	H214	0.129440	0.420460	0.870560
C2151	C215	0.194710	0.459120	0.805290
C2161	C216	0.217700	0.511000	0.782300
H2171	H217	0.253910	0.509140	0.746090
C2181	C218	0.197710	0.567600	0.802290
H2191	H219	0.217690	0.610350	0.782310
C2201	C220	0.153800	0.570700	0.846200
H2211	H221	0.137690	0.616590	0.862310
O2221	O222	0.061980	0.527790	0.061980
N2231	N223	0.953550	0.648710	0.953550
C2241	C224	0.221190	0.702550	0.221190
O2251	O225	0.216330	0.593850	0.216330
C2261	C226	0.868880	0.797180	0.868880
O2271	O227	0.064290	0.426850	0.064290
C2281	C228	0.081280	0.478780	0.081280
C2291	C229	0.191260	0.647410	0.191260
C2301	C230	0.896710	0.743940	0.896710
C2311	C231	0.129740	0.480520	0.129740
C2321	C232	0.149500	0.536870	0.149500
H2331	H233	0.129440	0.579540	0.129440
C2341	C234	0.194710	0.540880	0.194710
C2351	C235	0.217700	0.489000	0.217700
H2361	H236	0.253910	0.490860	0.253910
C2371	C237	0.197710	0.432400	0.197710
H2381	H238	0.217690	0.389650	0.217690
C2391	C239	0.153800	0.429300	0.153800
H2401	H240	0.137690	0.383410	0.137690
O2411	O241	0.938020	0.527790	0.938020
N2421	N242	0.046450	0.648710	0.046450
C2431	C243	0.778810	0.702550	0.778810
O2441	O244	0.783670	0.593850	0.783670
C2451	C245	0.131120	0.797180	0.131120
O2461	O246	0.935710	0.426850	0.935710
C2471	C247	0.918720	0.478780	0.918720
C2481	C248	0.808740	0.647410	0.808740
C2491	C249	0.103290	0.743940	0.103290
C2501	C250	0.870260	0.480520	0.870260
C2511	C251	0.850500	0.536870	0.850500
H2521	H252	0.870560	0.579540	0.870560
C2531	C253	0.805290	0.540880	0.805290
C2541	C254	0.782300	0.489000	0.782300
H2551	H255	0.746090	0.490860	0.746090
C2561	C256	0.802290	0.432400	0.802290
H2571	H257	0.782310	0.389650	0.782310
C2581	C258	0.846200	0.429300	0.846200
H2591	H259	0.862310	0.383410	0.862310
O2601	O260	0.938020	0.472210	0.061980
N2611	N261	0.046450	0.351290	0.953550
C2621	C262	0.778810	0.297450	0.221190
O2631	O263	0.783670	0.406150	0.216330
C2641	C264	0.131120	0.202820	0.868880
O2651	O265	0.935710	0.573150	0.064290
C2661	C266	0.918720	0.521220	0.081280
C2671	C267	0.808740	0.352590	0.191260
C2681	C268	0.103290	0.256060	0.896710
C2691	C269	0.870260	0.519480	0.129740
C2701	C270	0.850500	0.463130	0.149500
H2711	H271	0.870560	0.420460	0.129440
C2721	C272	0.805290	0.459120	0.194710
C2731	C273	0.782300	0.511000	0.217700
H2741	H274	0.746090	0.509140	0.253910
C2751	C275	0.802290	0.567600	0.197710
H2761	H276	0.782310	0.610350	0.217690
C2771	C277	0.846200	0.570700	0.153800
H2781	H278	0.862310	0.616590	0.137690
O2791	O279	0.938020	0.061980	0.472210
N2801	N280	0.046450	0.953550	0.351290
C2811	C281	0.778810	0.221190	0.297450
O2821	O282	0.783670	0.216330	0.406150
C2831	C283	0.131120	0.868880	0.202820
O2841	O284	0.935710	0.064290	0.573150
C2851	C285	0.918720	0.081280	0.521220
C2861	C286	0.808740	0.191260	0.352590
C2871	C287	0.103290	0.896710	0.256060
C2881	C288	0.870260	0.129740	0.519480
C2891	C289	0.850500	0.149500	0.463130
H2901	H290	0.870560	0.129440	0.420460
C2911	C291	0.805290	0.194710	0.459120
C2921	C292	0.782300	0.217700	0.511000
H2931	H293	0.746090	0.253910	0.509140
C2941	C294	0.802290	0.197710	0.567600
H2951	H295	0.782310	0.217690	0.610350
C2961	C296	0.846200	0.153800	0.570700
H2971	H297	0.862310	0.137690	0.616590
O2981	O298	0.061980	0.061980	0.527790
N2991	N299	0.953550	0.953550	0.648710
C3001	C300	0.221190	0.221190	0.702550
O3011	O301	0.216330	0.216330	0.593850
C3021	C302	0.868880	0.868880	0.797180
O3031	O303	0.064290	0.064290	0.426850
C3041	C304	0.081280	0.081280	0.478780
C3051	C305	0.191260	0.191260	0.647410
C3061	C306	0.896710	0.896710	0.743940
C3071	C307	0.129740	0.129740	0.480520
C3081	C308	0.149500	0.149500	0.536870
H3091	H309	0.129440	0.129440	0.579540
C3101	C310	0.194710	0.194710	0.540880
C3111	C311	0.217700	0.217700	0.489000
H3121	H312	0.253910	0.253910	0.490860
C3131	C313	0.197710	0.197710	0.432400
H3141	H314	0.217690	0.217690	0.389650
C3151	C315	0.153800	0.153800	0.429300
H3161	H316	0.137690	0.137690	0.383410
O3171	O317	0.938020	0.938020	0.527790
N3181	N318	0.046450	0.046450	0.648710
C3191	C319	0.778810	0.778810	0.702550
O3201	O320	0.783670	0.783670	0.593850
C3211	C321	0.131120	0.131120	0.797180
O3221	O322	0.935710	0.935710	0.426850
C3231	C323	0.918720	0.918720	0.478780
C3241	C324	0.808740	0.808740	0.647410
C3251	C325	0.103290	0.103290	0.743940
C3261	C326	0.870260	0.870260	0.480520
C3271	C327	0.850500	0.850500	0.536870
H3281	H328	0.870560	0.870560	0.579540
C3291	C329	0.805290	0.805290	0.540880
C3301	C330	0.782300	0.782300	0.489000
H3311	H331	0.746090	0.746090	0.490860
C3321	C332	0.802290	0.802290	0.432400
H3331	H333	0.782310	0.782310	0.389650
C3341	C334	0.846200	0.846200	0.429300
H3351	H335	0.862310	0.862310	0.383410
O3361	O336	0.061980	0.938020	0.472210
N3371	N337	0.953550	0.046450	0.351290
C3381	C338	0.221190	0.778810	0.297450
O3391	O339	0.216330	0.783670	0.406150
C3401	C340	0.868880	0.131120	0.202820
O3411	O341	0.064290	0.935710	0.573150
C3421	C342	0.081280	0.918720	0.521220
C3431	C343	0.191260	0.808740	0.352590
C3441	C344	0.896710	0.103290	0.256060
C3451	C345	0.129740	0.870260	0.519480
C3461	C346	0.149500	0.850500	0.463130
H3471	H347	0.129440	0.870560	0.420460
C3481	C348	0.194710	0.805290	0.459120
C3491	C349	0.217700	0.782300	0.511000
H3501	H350	0.253910	0.746090	0.509140
C3511	C351	0.197710	0.802290	0.567600
H3521	H352	0.217690	0.782310	0.610350
C3531	C353	0.153800	0.846200	0.570700
H3541	H354	0.137690	0.862310	0.616590
C3551	C355	0.273660	0.726340	0.196580
C3561	C356	0.301530	0.698470	0.139960
C3571	C357	0.726340	0.273660	0.196580
C3581	C358	0.698470	0.301530	0.139960
C3591	C359	0.726340	0.726340	0.803420
C3601	C360	0.698470	0.698470	0.860040
C3611	C361	0.273660	0.273660	0.803420
C3621	C362	0.301530	0.301530	0.860040
C3631	C363	0.196580	0.273660	0.726340
C3641	C364	0.139960	0.301530	0.698470
C3651	C365	0.196580	0.726340	0.273660
C3661	C366	0.139960	0.698470	0.301530
C3671	C367	0.803420	0.726340	0.726340
C3681	C368	0.860040	0.698470	0.698470
C3691	C369	0.803420	0.273660	0.273660
C3701	C370	0.860040	0.301530	0.301530
C3711	C371	0.726340	0.196580	0.273660
C3721	C372	0.698470	0.139960	0.301530
C3731	C373	0.273660	0.196580	0.726340
C3741	C374	0.301530	0.139960	0.698470
C3751	C375	0.726340	0.803420	0.726340
C3761	C376	0.698470	0.860040	0.698470
C3771	C377	0.273660	0.803420	0.273660
C3781	C378	0.301530	0.860040	0.301530
N3791	N379	0.180500	0.180500	0.895160
N3801	N380	0.819500	0.819500	0.895160
N3811	N381	0.819500	0.180500	0.104840
N3821	N382	0.180500	0.819500	0.104840
N3831	N383	0.895160	0.180500	0.180500
N3841	N384	0.895160	0.819500	0.819500
N3851	N385	0.104840	0.819500	0.180500
N3861	N386	0.104840	0.180500	0.819500
N3871	N387	0.180500	0.895160	0.180500
N3881	N388	0.819500	0.895160	0.819500
N3891	N389	0.180500	0.104840	0.819500
N3901	N390	0.819500	0.104840	0.180500
H3911	H391	0.281330	0.720520	0.098350
H3921	H392	0.291750	0.648180	0.139090
H3931	H393	0.352210	0.706010	0.140380
H3941	H394	0.676530	0.264740	0.111840
H3951	H395	0.735070	0.324520	0.112450
H3961	H396	0.663100	0.336030	0.153540
H3971	H397	0.706610	0.647880	0.859950
H3981	H398	0.648070	0.707660	0.860560
H3991	H399	0.720040	0.719170	0.901650
H4001	H400	0.335530	0.337380	0.846470
H4011	H401	0.325110	0.265040	0.887210
H4021	H402	0.264650	0.322870	0.888500
H4031	H403	0.102040	0.267070	0.698770
H4041	H404	0.149840	0.315630	0.650210
H4051	H405	0.125940	0.342590	0.725730
H4061	H406	0.149840	0.650210	0.315630
H4071	H407	0.102040	0.698770	0.267070
H4081	H408	0.125940	0.725730	0.342590
H4091	H409	0.860260	0.707140	0.647970
H4101	H410	0.860260	0.647970	0.707140
H4111	H411	0.901660	0.719610	0.719610
H4121	H412	0.887860	0.323990	0.264830
H4131	H413	0.887860	0.264830	0.323990
H4141	H414	0.846460	0.336460	0.336460
H4151	H415	0.735070	0.112450	0.324520
H4161	H416	0.676530	0.111840	0.264740
H4171	H417	0.663100	0.153540	0.336030
H4181	H418	0.291750	0.139090	0.648180
H4191	H419	0.281330	0.098350	0.720520
H4201	H420	0.352210	0.140380	0.706010
H4211	H421	0.648070	0.860560	0.707660
H4221	H422	0.706610	0.859950	0.647880
H4231	H423	0.720040	0.901650	0.719170
H4241	H424	0.325110	0.887210	0.265040
H4251	H425	0.335530	0.846470	0.337380
H4261	H426	0.264650	0.888500	0.322870
