data_BIQHEQ_freeONLY_PM
_symmetry_space_group_name_H-M	'P1'
_cell_length_a	11.499800
_cell_length_b	15.835400
_cell_length_c	17.520400
_cell_angle_alpha	90.000000
_cell_angle_beta	90.000000
_cell_angle_gamma	90.000000
_symmetry_Int_Tables_number 1

loop_
_symmetry_equiv_pos_as_xyz
'x,y,z'

loop_
_atom_site_label
_atom_site_type_symbol
_atom_site_fract_x
_atom_site_fract_y
_atom_site_fract_z
Zn11	Zn1	0.000000	0.892050	0.332700
Zn21	Zn2	0.000000	0.392050	0.167300
Zn31	Zn3	0.000000	0.607950	0.832700
Zn41	Zn4	0.000000	0.000000	0.000000
Zn51	Zn5	0.000000	0.500000	0.500000
Zn61	Zn6	0.000000	0.107950	0.667300
Fe11	Fe1	0.000000	0.198270	0.391430
Fe21	Fe2	0.000000	0.698270	0.108570
Fe31	Fe3	0.000000	0.801730	0.608570
Fe41	Fe4	0.000000	0.301730	0.891430
H11	H1	0.412200	0.162000	0.773000
H21	H2	0.587800	0.338000	0.273000
H31	H3	0.932000	0.907300	0.886000
H41	H4	0.210000	0.968400	0.415800
H51	H5	0.211100	0.936100	0.093900
H61	H6	0.788900	0.436100	0.406100
H71	H7	0.210000	0.531600	0.915800
H81	H8	0.790000	0.968400	0.415800
H91	H9	0.587800	0.662000	0.727000
H101	H10	0.786400	0.331800	0.267100
H111	H11	0.788900	0.563900	0.593900
H121	H12	0.412200	0.838000	0.227000
H131	H13	0.932000	0.092700	0.114000
H141	H14	0.409200	0.564800	0.597400
H151	H15	0.786400	0.831800	0.232900
H161	H16	0.590800	0.064800	0.902600
H171	H17	0.590800	0.935200	0.097400
H181	H18	0.786400	0.168200	0.767100
H191	H19	0.412200	0.662000	0.727000
H201	H20	0.788900	0.936100	0.093900
H211	H21	0.592400	0.979100	0.414900
H221	H22	0.210000	0.468400	0.084200
H231	H23	0.211100	0.063900	0.906100
H241	H24	0.211100	0.436100	0.406100
H251	H25	0.210000	0.031600	0.584200
H261	H26	0.590800	0.435200	0.402600
H271	H27	0.932000	0.592700	0.386000
H281	H28	0.592400	0.479100	0.085100
H291	H29	0.068000	0.592700	0.386000
H301	H30	0.790000	0.531600	0.915800
H311	H31	0.407600	0.020900	0.585100
H321	H32	0.213600	0.168200	0.767100
H331	H33	0.213600	0.668200	0.732900
H341	H34	0.213600	0.831800	0.232900
H351	H35	0.590800	0.564800	0.597400
H361	H36	0.592400	0.520900	0.914900
H371	H37	0.407600	0.479100	0.085100
H381	H38	0.790000	0.031600	0.584200
H391	H39	0.068000	0.407300	0.614000
H401	H40	0.587800	0.162000	0.773000
H411	H41	0.932000	0.407300	0.614000
H421	H42	0.407600	0.979100	0.414900
H431	H43	0.790000	0.468400	0.084200
H441	H44	0.068000	0.092700	0.114000
H451	H45	0.211100	0.563900	0.593900
H461	H46	0.592400	0.020900	0.585100
H471	H47	0.213600	0.331800	0.267100
H481	H48	0.068000	0.907300	0.886000
H491	H49	0.409200	0.064800	0.902600
H501	H50	0.412200	0.338000	0.273000
H511	H51	0.587800	0.838000	0.227000
H521	H52	0.409200	0.435200	0.402600
H531	H53	0.407600	0.520900	0.914900
H541	H54	0.788900	0.063900	0.906100
H551	H55	0.409200	0.935200	0.097400
H561	H56	0.786400	0.668200	0.732900
C11	C1	0.564300	0.500000	0.500000
C21	C2	0.629600	0.447600	0.122700
C31	C3	0.373200	0.864700	0.266700
C41	C4	0.434800	0.907600	0.321700
C51	C5	0.626800	0.864700	0.266700
C61	C6	0.000000	0.652800	0.006800
C71	C7	0.253200	0.861500	0.270600
C81	C8	0.170000	0.302000	0.893600
C91	C9	0.000000	0.689900	0.566600
C101	C10	0.628600	0.038200	0.942800
C111	C11	0.250900	0.058800	0.622900
C121	C12	0.251400	0.037000	0.945200
C131	C13	0.000000	0.152800	0.493200
C141	C14	0.373200	0.364700	0.233300
C151	C15	0.371400	0.038200	0.942800
C161	C16	0.253200	0.138500	0.729400
C171	C17	0.748600	0.537000	0.554800
C181	C18	0.626800	0.135300	0.733300
C191	C19	0.749100	0.441200	0.122900
C201	C20	0.626800	0.635300	0.766700
C211	C21	0.435700	0.500000	0.500000
C221	C22	0.370400	0.447600	0.122700
C231	C23	0.253200	0.361500	0.229400
C241	C24	0.251400	0.463000	0.445200
C251	C25	0.170000	0.198000	0.393600
C261	C26	0.564300	0.000000	0.000000
C271	C27	0.830000	0.802000	0.606400
C281	C28	0.629600	0.552400	0.877300
C291	C29	0.370400	0.052400	0.622700
C301	C30	0.000000	0.413600	0.847900
C311	C31	0.434800	0.092400	0.678300
C321	C32	0.434800	0.407600	0.178300
C331	C33	0.000000	0.586400	0.152100
C341	C34	0.435700	0.000000	0.000000
C351	C35	0.749100	0.558800	0.877100
C361	C36	0.000000	0.310100	0.433400
C371	C37	0.749100	0.058800	0.622900
C381	C38	0.748600	0.463000	0.445200
C391	C39	0.434800	0.592400	0.821700
C401	C40	0.748600	0.963000	0.054800
C411	C41	0.746800	0.638500	0.770600
C421	C42	0.170000	0.802000	0.606400
C431	C43	0.749100	0.941200	0.377100
C441	C44	0.371400	0.961800	0.057200
C451	C45	0.373200	0.635300	0.766700
C461	C46	0.370400	0.947600	0.377300
C471	C47	0.000000	0.086400	0.347900
C481	C48	0.000000	0.847200	0.506800
C491	C49	0.000000	0.245700	0.794300
C501	C50	0.628600	0.461800	0.442800
C511	C51	0.251400	0.537000	0.554800
C521	C52	0.746800	0.361500	0.229400
C531	C53	0.748600	0.037000	0.945200
C541	C54	0.629600	0.947600	0.377300
C551	C55	0.628600	0.538200	0.557200
C561	C56	0.629600	0.052400	0.622700
C571	C57	0.250900	0.558800	0.877100
C581	C58	0.000000	0.347200	0.993200
C591	C59	0.565200	0.092400	0.678300
C601	C60	0.565200	0.907600	0.321700
C611	C61	0.830000	0.198000	0.393600
C621	C62	0.371400	0.538200	0.557200
C631	C63	0.746800	0.138500	0.729400
C641	C64	0.565200	0.407600	0.178300
C651	C65	0.251400	0.963000	0.054800
C661	C66	0.565200	0.592400	0.821700
C671	C67	0.250900	0.441200	0.122900
C681	C68	0.170000	0.698000	0.106400
C691	C69	0.000000	0.189900	0.933400
C701	C70	0.000000	0.754300	0.205700
C711	C71	0.253200	0.638500	0.770600
C721	C72	0.250900	0.941200	0.377100
C731	C73	0.000000	0.913600	0.652100
C741	C74	0.370400	0.552400	0.877300
C751	C75	0.000000	0.254300	0.294300
C761	C76	0.373200	0.135300	0.733300
C771	C77	0.746800	0.861500	0.270600
C781	C78	0.000000	0.745700	0.705700
C791	C79	0.628600	0.961800	0.057200
C801	C80	0.830000	0.698000	0.106400
C811	C81	0.371400	0.461800	0.442800
C821	C82	0.000000	0.810100	0.066600
C831	C83	0.626800	0.364700	0.233300
C841	C84	0.830000	0.302000	0.893600
N11	N1	0.000000	0.480800	0.823100
N21	N2	0.809300	0.601270	0.825610
N31	N3	0.729500	0.302900	0.896900
N41	N4	0.270500	0.802900	0.603100
N51	N5	0.270500	0.302900	0.896900
N61	N6	0.000000	0.019200	0.323100
N71	N7	0.000000	0.519200	0.176900
N81	N8	0.000000	0.868400	0.443900
N91	N9	0.809700	0.500000	0.500000
N101	N10	0.809300	0.398730	0.174390
N111	N11	0.000000	0.295900	0.240700
N121	N12	0.190700	0.101270	0.674390
N131	N13	0.729500	0.802900	0.603100
N141	N14	0.000000	0.878400	0.044800
N151	N15	0.000000	0.368400	0.056100
N161	N16	0.190700	0.398730	0.174390
N171	N17	0.000000	0.795900	0.259300
N181	N18	0.729500	0.197100	0.396900
N191	N19	0.270500	0.697100	0.103100
N201	N20	0.000000	0.378400	0.455200
N211	N21	0.000000	0.980800	0.676900
N221	N22	0.190300	0.500000	0.500000
N231	N23	0.809700	0.000000	0.000000
N241	N24	0.000000	0.631600	0.943900
N251	N25	0.000000	0.621600	0.544800
N261	N26	0.000000	0.204100	0.740700
N271	N27	0.729500	0.697100	0.103100
N281	N28	0.809300	0.898730	0.325610
N291	N29	0.190700	0.601270	0.825610
N301	N30	0.000000	0.704100	0.759300
N311	N31	0.270500	0.197100	0.396900
N321	N32	0.809300	0.101270	0.674390
N331	N33	0.000000	0.131600	0.556100
N341	N34	0.190300	0.000000	0.000000
N351	N35	0.000000	0.121600	0.955200
N361	N36	0.190700	0.898730	0.325610
O11	O1	0.000000	0.947600	0.887700
O21	O2	0.000000	0.552400	0.387700
O31	O3	0.000000	0.052400	0.112300
O41	O4	0.000000	0.447600	0.612300
