data_BIWSIK_ion_b_PM
_symmetry_space_group_name_H-M	'P1'
_cell_length_a	25.231700
_cell_length_b	25.231700
_cell_length_c	25.231700
_cell_angle_alpha	109.471200
_cell_angle_beta	109.471200
_cell_angle_gamma	109.471200
_symmetry_Int_Tables_number 1

loop_
_symmetry_equiv_pos_as_xyz
'x,y,z'

loop_
_atom_site_label
_atom_site_type_symbol
_atom_site_fract_x
_atom_site_fract_y
_atom_site_fract_z
N11	N1	0.144020	0.536410	0.503330
N21	N2	0.186900	0.537530	0.484030
C31	C3	0.285900	0.461700	0.518000
H41	H4	0.270900	0.446600	0.542900
C51	C5	0.331300	0.448900	0.507000
H61	H6	0.346900	0.425600	0.524300
N81	N8	0.033080	0.640690	0.496670
N91	N9	0.053500	0.702870	0.515970
C101	C10	0.943700	0.767900	0.482000
H111	H11	0.903700	0.728000	0.457100
C121	C12	0.941900	0.824300	0.493000
H131	H13	0.901300	0.822600	0.475700
N151	N15	0.966920	0.463590	0.607610
N161	N16	0.946500	0.462470	0.649370
C171	C17	0.056300	0.538300	0.824200
H181	H18	0.096300	0.553400	0.824300
C191	C19	0.058100	0.551100	0.882400
H201	H20	0.098700	0.574400	0.921300
N221	N22	0.855980	0.359310	0.392390
N231	N23	0.813100	0.297130	0.350630
C241	C24	0.714100	0.232100	0.175800
H251	H25	0.729100	0.272000	0.175700
C261	C26	0.668700	0.175700	0.117600
H271	H27	0.653100	0.177400	0.078700
N291	N29	0.503330	0.144020	0.536410
N301	N30	0.484030	0.186900	0.537530
C311	C31	0.518000	0.285900	0.461700
H321	H32	0.542900	0.270900	0.446600
C331	C33	0.507000	0.331300	0.448900
H341	H34	0.524300	0.346900	0.425600
N361	N36	0.496670	0.033080	0.640690
N371	N37	0.515970	0.053500	0.702870
C381	C38	0.482000	0.943700	0.767900
H391	H39	0.457100	0.903700	0.728000
C401	C40	0.493000	0.941900	0.824300
H411	H41	0.475700	0.901300	0.822600
N431	N43	0.607610	0.966920	0.463590
N441	N44	0.649370	0.946500	0.462470
C451	C45	0.824200	0.056300	0.538300
H461	H46	0.824300	0.096300	0.553400
C471	C47	0.882400	0.058100	0.551100
H481	H48	0.921300	0.098700	0.574400
N501	N50	0.392390	0.855980	0.359310
N511	N51	0.350630	0.813100	0.297130
C521	C52	0.175800	0.714100	0.232100
H531	H53	0.175700	0.729100	0.272000
C541	C54	0.117600	0.668700	0.175700
H551	H55	0.078700	0.653100	0.177400
N571	N57	0.536410	0.503330	0.144020
N581	N58	0.537530	0.484030	0.186900
C591	C59	0.461700	0.518000	0.285900
H601	H60	0.446600	0.542900	0.270900
C611	C61	0.448900	0.507000	0.331300
H621	H62	0.425600	0.524300	0.346900
N641	N64	0.640690	0.496670	0.033080
N651	N65	0.702870	0.515970	0.053500
C661	C66	0.767900	0.482000	0.943700
H671	H67	0.728000	0.457100	0.903700
C681	C68	0.824300	0.493000	0.941900
H691	H69	0.822600	0.475700	0.901300
N711	N71	0.463590	0.607610	0.966920
N721	N72	0.462470	0.649370	0.946500
C731	C73	0.538300	0.824200	0.056300
H741	H74	0.553400	0.824300	0.096300
C751	C75	0.551100	0.882400	0.058100
H761	H76	0.574400	0.921300	0.098700
N781	N78	0.359310	0.392390	0.855980
N791	N79	0.297130	0.350630	0.813100
C801	C80	0.232100	0.175800	0.714100
H811	H81	0.272000	0.175700	0.729100
C821	C82	0.175700	0.117600	0.668700
H831	H83	0.177400	0.078700	0.653100
N851	N85	0.359310	0.966920	0.503330
N861	N86	0.297130	0.946500	0.484030
C871	C87	0.232100	0.056300	0.518000
H881	H88	0.272000	0.096300	0.542900
C891	C89	0.175700	0.058100	0.507000
H901	H90	0.177400	0.098700	0.524300
N921	N92	0.463590	0.855980	0.496670
N931	N93	0.462470	0.813100	0.515970
C941	C94	0.538300	0.714100	0.482000
H951	H95	0.553400	0.729100	0.457100
C961	C96	0.551100	0.668700	0.493000
H971	H97	0.574400	0.653100	0.475700
N991	N99	0.640690	0.144020	0.607610
N1001	N100	0.702870	0.186900	0.649370
C1011	C101	0.767900	0.285900	0.824200
H1021	H102	0.728000	0.270900	0.824300
C1031	C103	0.824300	0.331300	0.882400
H1041	H104	0.822600	0.346900	0.921300
N1061	N106	0.536410	0.033080	0.392390
N1071	N107	0.537530	0.053500	0.350630
C1081	C108	0.461700	0.943700	0.175800
H1091	H109	0.446600	0.903700	0.175700
C1101	C110	0.448900	0.941900	0.117600
H1111	H111	0.425600	0.901300	0.078700
N1131	N113	0.033080	0.392390	0.536410
N1141	N114	0.053500	0.350630	0.537530
C1151	C115	0.943700	0.175800	0.461700
H1161	H116	0.903700	0.175700	0.446600
C1171	C117	0.941900	0.117600	0.448900
H1181	H118	0.901300	0.078700	0.425600
N1201	N120	0.144020	0.607610	0.640690
N1211	N121	0.186900	0.649370	0.702870
C1221	C122	0.285900	0.824200	0.767900
H1231	H123	0.270900	0.824300	0.728000
C1241	C124	0.331300	0.882400	0.824300
H1251	H125	0.346900	0.921300	0.822600
N1271	N127	0.855980	0.496670	0.463590
N1281	N128	0.813100	0.515970	0.462470
C1291	C129	0.714100	0.482000	0.538300
H1301	H130	0.729100	0.457100	0.553400
C1311	C131	0.668700	0.493000	0.551100
H1321	H132	0.653100	0.475700	0.574400
N1341	N134	0.966920	0.503330	0.359310
N1351	N135	0.946500	0.484030	0.297130
C1361	C136	0.056300	0.518000	0.232100
H1371	H137	0.096300	0.542900	0.272000
C1381	C138	0.058100	0.507000	0.175700
H1391	H139	0.098700	0.524300	0.177400
N1411	N141	0.607610	0.640690	0.144020
N1421	N142	0.649370	0.702870	0.186900
C1431	C143	0.824200	0.767900	0.285900
H1441	H144	0.824300	0.728000	0.270900
C1451	C145	0.882400	0.824300	0.331300
H1461	H146	0.921300	0.822600	0.346900
N1481	N148	0.392390	0.536410	0.033080
N1491	N149	0.350630	0.537530	0.053500
C1501	C150	0.175800	0.461700	0.943700
H1511	H151	0.175700	0.446600	0.903700
C1521	C152	0.117600	0.448900	0.941900
H1531	H153	0.078700	0.425600	0.901300
N1551	N155	0.503330	0.359310	0.966920
N1561	N156	0.484030	0.297130	0.946500
C1571	C157	0.518000	0.232100	0.056300
H1581	H158	0.542900	0.272000	0.096300
C1591	C159	0.507000	0.175700	0.058100
H1601	H160	0.524300	0.177400	0.098700
N1621	N162	0.496670	0.463590	0.855980
N1631	N163	0.515970	0.462470	0.813100
C1641	C164	0.482000	0.538300	0.714100
H1651	H165	0.457100	0.553400	0.729100
C1661	C166	0.493000	0.551100	0.668700
H1671	H167	0.475700	0.574400	0.653100
N1691	N169	0.855980	0.463590	0.496670
N1701	N170	0.813100	0.462470	0.515970
C1711	C171	0.714100	0.538300	0.482000
H1721	H172	0.729100	0.553400	0.457100
C1731	C173	0.668700	0.551100	0.493000
H1741	H174	0.653100	0.574400	0.475700
N1761	N176	0.966920	0.359310	0.503330
N1771	N177	0.946500	0.297130	0.484030
C1781	C178	0.056300	0.232100	0.518000
H1791	H179	0.096300	0.272000	0.542900
C1801	C180	0.058100	0.175700	0.507000
H1811	H181	0.098700	0.177400	0.524300
N1831	N183	0.033080	0.536410	0.392390
N1841	N184	0.053500	0.537530	0.350630
C1851	C185	0.943700	0.461700	0.175800
H1861	H186	0.903700	0.446600	0.175700
C1871	C187	0.941900	0.448900	0.117600
H1881	H188	0.901300	0.425600	0.078700
N1901	N190	0.144020	0.640690	0.607610
N1911	N191	0.186900	0.702870	0.649370
C1921	C192	0.285900	0.767900	0.824200
H1931	H193	0.270900	0.728000	0.824300
C1941	C194	0.331300	0.824300	0.882400
H1951	H195	0.346900	0.822600	0.921300
N1971	N197	0.496670	0.855980	0.463590
N1981	N198	0.515970	0.813100	0.462470
C1991	C199	0.482000	0.714100	0.538300
H2001	H200	0.457100	0.729100	0.553400
C2011	C201	0.493000	0.668700	0.551100
H2021	H202	0.475700	0.653100	0.574400
N2041	N204	0.503330	0.966920	0.359310
N2051	N205	0.484030	0.946500	0.297130
C2061	C206	0.518000	0.056300	0.232100
H2071	H207	0.542900	0.096300	0.272000
C2081	C208	0.507000	0.058100	0.175700
H2091	H209	0.524300	0.098700	0.177400
N2111	N211	0.392390	0.033080	0.536410
N2121	N212	0.350630	0.053500	0.537530
C2131	C213	0.175800	0.943700	0.461700
H2141	H214	0.175700	0.903700	0.446600
C2151	C215	0.117600	0.941900	0.448900
H2161	H216	0.078700	0.901300	0.425600
N2181	N218	0.607610	0.144020	0.640690
N2191	N219	0.649370	0.186900	0.702870
C2201	C220	0.824200	0.285900	0.767900
H2211	H221	0.824300	0.270900	0.728000
C2221	C222	0.882400	0.331300	0.824300
H2231	H223	0.921300	0.346900	0.822600
N2251	N225	0.463590	0.496670	0.855980
N2261	N226	0.462470	0.515970	0.813100
C2271	C227	0.538300	0.482000	0.714100
H2281	H228	0.553400	0.457100	0.729100
C2291	C229	0.551100	0.493000	0.668700
H2301	H230	0.574400	0.475700	0.653100
N2321	N232	0.359310	0.503330	0.966920
N2331	N233	0.297130	0.484030	0.946500
C2341	C234	0.232100	0.518000	0.056300
H2351	H235	0.272000	0.542900	0.096300
C2361	C236	0.175700	0.507000	0.058100
H2371	H237	0.177400	0.524300	0.098700
N2391	N239	0.536410	0.392390	0.033080
N2401	N240	0.537530	0.350630	0.053500
C2411	C241	0.461700	0.175800	0.943700
H2421	H242	0.446600	0.175700	0.903700
C2431	C243	0.448900	0.117600	0.941900
H2441	H244	0.425600	0.078700	0.901300
N2461	N246	0.640690	0.607610	0.144020
N2471	N247	0.702870	0.649370	0.186900
C2481	C248	0.767900	0.824200	0.285900
H2491	H249	0.728000	0.824300	0.270900
C2501	C250	0.824300	0.882400	0.331300
H2511	H251	0.822600	0.921300	0.346900
N2531	N253	0.640690	0.033080	0.496670
N2541	N254	0.702870	0.053500	0.515970
C2551	C255	0.767900	0.943700	0.482000
H2561	H256	0.728000	0.903700	0.457100
C2571	C257	0.824300	0.941900	0.493000
H2581	H258	0.822600	0.901300	0.475700
N2601	N260	0.536410	0.144020	0.503330
N2611	N261	0.537530	0.186900	0.484030
C2621	C262	0.461700	0.285900	0.518000
H2631	H263	0.446600	0.270900	0.542900
C2641	C264	0.448900	0.331300	0.507000
H2651	H265	0.425600	0.346900	0.524300
N2671	N267	0.359310	0.855980	0.392390
N2681	N268	0.297130	0.813100	0.350630
C2691	C269	0.232100	0.714100	0.175800
H2701	H270	0.272000	0.729100	0.175700
C2711	C271	0.175700	0.668700	0.117600
H2721	H272	0.177400	0.653100	0.078700
N2741	N274	0.463590	0.966920	0.607610
N2751	N275	0.462470	0.946500	0.649370
C2761	C276	0.538300	0.056300	0.824200
H2771	H277	0.553400	0.096300	0.824300
C2781	C278	0.551100	0.058100	0.882400
H2791	H279	0.574400	0.098700	0.921300
N2811	N281	0.966920	0.607610	0.463590
N2821	N282	0.946500	0.649370	0.462470
C2831	C283	0.056300	0.824200	0.538300
H2841	H284	0.096300	0.824300	0.553400
C2851	C285	0.058100	0.882400	0.551100
H2861	H286	0.098700	0.921300	0.574400
N2881	N288	0.855980	0.392390	0.359310
N2891	N289	0.813100	0.350630	0.297130
C2901	C290	0.714100	0.175800	0.232100
H2911	H291	0.729100	0.175700	0.272000
C2921	C292	0.668700	0.117600	0.175700
H2931	H293	0.653100	0.078700	0.177400
N2951	N295	0.144020	0.503330	0.536410
N2961	N296	0.186900	0.484030	0.537530
C2971	C297	0.285900	0.518000	0.461700
H2981	H298	0.270900	0.542900	0.446600
C2991	C299	0.331300	0.507000	0.448900
H3001	H300	0.346900	0.524300	0.425600
N3021	N302	0.033080	0.496670	0.640690
N3031	N303	0.053500	0.515970	0.702870
C3041	C304	0.943700	0.482000	0.767900
H3051	H305	0.903700	0.457100	0.728000
C3061	C306	0.941900	0.493000	0.824300
H3071	H307	0.901300	0.475700	0.822600
N3091	N309	0.392390	0.359310	0.855980
N3101	N310	0.350630	0.297130	0.813100
C3111	C311	0.175800	0.232100	0.714100
H3121	H312	0.175700	0.272000	0.729100
C3131	C313	0.117600	0.175700	0.668700
H3141	H314	0.078700	0.177400	0.653100
N3161	N316	0.607610	0.463590	0.966920
N3171	N317	0.649370	0.462470	0.946500
C3181	C318	0.824200	0.538300	0.056300
H3191	H319	0.824300	0.553400	0.096300
C3201	C320	0.882400	0.551100	0.058100
H3211	H321	0.921300	0.574400	0.098700
N3231	N323	0.496670	0.640690	0.033080
N3241	N324	0.515970	0.702870	0.053500
C3251	C325	0.482000	0.767900	0.943700
H3261	H326	0.457100	0.728000	0.903700
C3271	C327	0.493000	0.824300	0.941900
H3281	H328	0.475700	0.822600	0.901300
N3301	N330	0.503330	0.536410	0.144020
N3311	N331	0.484030	0.537530	0.186900
C3321	C332	0.518000	0.461700	0.285900
H3331	H333	0.542900	0.446600	0.270900
C3341	C334	0.507000	0.448900	0.331300
H3351	H335	0.524300	0.425600	0.346900
Mn3371	Mn337	0.094200	0.594200	0.500000
O3381	O338	0.168100	0.668100	0.500000
Mn3391	Mn339	0.905800	0.405800	0.500000
O3401	O340	0.831900	0.331900	0.500000
Mn3411	Mn341	0.500000	0.094200	0.594200
O3421	O342	0.500000	0.168100	0.668100
Mn3431	Mn343	0.500000	0.905800	0.405800
O3441	O344	0.500000	0.831900	0.331900
Mn3451	Mn345	0.594200	0.500000	0.094200
O3461	O346	0.668100	0.500000	0.168100
Mn3471	Mn347	0.405800	0.500000	0.905800
O3481	O348	0.331900	0.500000	0.831900
Mn3491	Mn349	0.405800	0.905800	0.500000
O3501	O350	0.331900	0.831900	0.500000
Mn3511	Mn351	0.594200	0.094200	0.500000
O3521	O352	0.668100	0.168100	0.500000
Mn3531	Mn353	0.094200	0.500000	0.594200
O3541	O354	0.168100	0.500000	0.668100
Mn3551	Mn355	0.905800	0.500000	0.405800
O3561	O356	0.831900	0.500000	0.331900
Mn3571	Mn357	0.500000	0.594200	0.094200
O3581	O358	0.500000	0.668100	0.168100
Mn3591	Mn359	0.500000	0.405800	0.905800
O3601	O360	0.500000	0.331900	0.831900
Cl3611	Cl361	0.000000	0.500000	0.500000
Cl3621	Cl362	0.500000	0.000000	0.500000
Cl3631	Cl363	0.500000	0.500000	0.000000
N3761	N376	0.416100	0.416100	0.473800
N3771	N377	0.942300	0.942300	0.526200
N3781	N378	0.057700	0.583900	0.000000
N3791	N379	0.583900	0.057700	0.000000
N3801	N380	0.473800	0.416100	0.416100
N3811	N381	0.526200	0.942300	0.942300
N3821	N382	0.000000	0.057700	0.583900
N3831	N383	0.000000	0.583900	0.057700
N3841	N384	0.416100	0.473800	0.416100
N3851	N385	0.942300	0.526200	0.942300
N3861	N386	0.583900	0.000000	0.057700
N3871	N387	0.057700	0.000000	0.583900
N3881	N388	0.057700	0.057700	0.473800
N3891	N389	0.583900	0.583900	0.526200
N3901	N390	0.942300	0.416100	0.000000
N3911	N391	0.416100	0.942300	0.000000
N3921	N392	0.942300	0.000000	0.416100
N3931	N393	0.416100	0.000000	0.942300
N3941	N394	0.583900	0.526200	0.583900
N3951	N395	0.057700	0.473800	0.057700
N3961	N396	0.000000	0.942300	0.416100
N3971	N397	0.000000	0.416100	0.942300
N3981	N398	0.473800	0.057700	0.057700
N3991	N399	0.526200	0.583900	0.583900
C4001	C400	0.211800	0.505200	0.505200
C4011	C401	0.261400	0.495000	0.495000
C4021	C402	0.355000	0.470100	0.470100
C4031	C403	0.397200	0.452400	0.452400
C4041	C404	0.000000	0.706600	0.494800
C4051	C405	0.000000	0.766400	0.505000
C4061	C406	0.000000	0.884900	0.529900
C4071	C407	0.000000	0.944800	0.547600
C4081	C408	0.000000	0.494800	0.706600
C4091	C409	0.000000	0.505000	0.766400
C4101	C410	0.000000	0.529900	0.884900
C4111	C411	0.000000	0.547600	0.944800
C4121	C412	0.788200	0.293400	0.293400
C4131	C413	0.738600	0.233600	0.233600
C4141	C414	0.645000	0.115100	0.115100
C4151	C415	0.602800	0.055200	0.055200
C4161	C416	0.505200	0.211800	0.505200
C4171	C417	0.495000	0.261400	0.495000
C4181	C418	0.470100	0.355000	0.470100
C4191	C419	0.452400	0.397200	0.452400
C4201	C420	0.494800	0.000000	0.706600
C4211	C421	0.505000	0.000000	0.766400
C4221	C422	0.529900	0.000000	0.884900
C4231	C423	0.547600	0.000000	0.944800
C4241	C424	0.706600	0.000000	0.494800
C4251	C425	0.766400	0.000000	0.505000
C4261	C426	0.884900	0.000000	0.529900
C4271	C427	0.944800	0.000000	0.547600
C4281	C428	0.293400	0.788200	0.293400
C4291	C429	0.233600	0.738600	0.233600
C4301	C430	0.115100	0.645000	0.115100
C4311	C431	0.055200	0.602800	0.055200
C4321	C432	0.505200	0.505200	0.211800
C4331	C433	0.495000	0.495000	0.261400
C4341	C434	0.470100	0.470100	0.355000
C4351	C435	0.452400	0.452400	0.397200
C4361	C436	0.706600	0.494800	0.000000
C4371	C437	0.766400	0.505000	0.000000
C4381	C438	0.884900	0.529900	0.000000
C4391	C439	0.944800	0.547600	0.000000
C4401	C440	0.494800	0.706600	0.000000
C4411	C441	0.505000	0.766400	0.000000
C4421	C442	0.529900	0.884900	0.000000
C4431	C443	0.547600	0.944800	0.000000
C4441	C444	0.293400	0.293400	0.788200
C4451	C445	0.233600	0.233600	0.738600
C4461	C446	0.115100	0.115100	0.645000
C4471	C447	0.055200	0.055200	0.602800
C4481	C448	0.293400	0.000000	0.505200
C4491	C449	0.233600	0.000000	0.495000
C4501	C450	0.115100	0.000000	0.470100
C4511	C451	0.055200	0.000000	0.452400
C4521	C452	0.494800	0.788200	0.494800
C4531	C453	0.505000	0.738600	0.505000
C4541	C454	0.529900	0.645000	0.529900
C4551	C455	0.547600	0.602800	0.547600
C4561	C456	0.706600	0.211800	0.706600
C4571	C457	0.766400	0.261400	0.766400
C4581	C458	0.884900	0.355000	0.884900
C4591	C459	0.944800	0.397200	0.944800
C4601	C460	0.505200	0.000000	0.293400
C4611	C461	0.495000	0.000000	0.233600
C4621	C462	0.470100	0.000000	0.115100
C4631	C463	0.452400	0.000000	0.055200
C4641	C464	0.000000	0.293400	0.505200
C4651	C465	0.000000	0.233600	0.495000
C4661	C466	0.000000	0.115100	0.470100
C4671	C467	0.000000	0.055200	0.452400
C4681	C468	0.211800	0.706600	0.706600
C4691	C469	0.261400	0.766400	0.766400
C4701	C470	0.355000	0.884900	0.884900
C4711	C471	0.397200	0.944800	0.944800
C4721	C472	0.788200	0.494800	0.494800
C4731	C473	0.738600	0.505000	0.505000
C4741	C474	0.645000	0.529900	0.529900
C4751	C475	0.602800	0.547600	0.547600
C4761	C476	0.000000	0.505200	0.293400
C4771	C477	0.000000	0.495000	0.233600
C4781	C478	0.000000	0.470100	0.115100
C4791	C479	0.000000	0.452400	0.055200
C4801	C480	0.706600	0.706600	0.211800
C4811	C481	0.766400	0.766400	0.261400
C4821	C482	0.884900	0.884900	0.355000
C4831	C483	0.944800	0.944800	0.397200
C4841	C484	0.293400	0.505200	0.000000
C4851	C485	0.233600	0.495000	0.000000
C4861	C486	0.115100	0.470100	0.000000
C4871	C487	0.055200	0.452400	0.000000
C4881	C488	0.505200	0.293400	0.000000
C4891	C489	0.495000	0.233600	0.000000
C4901	C490	0.470100	0.115100	0.000000
C4911	C491	0.452400	0.055200	0.000000
C4921	C492	0.494800	0.494800	0.788200
C4931	C493	0.505000	0.505000	0.738600
C4941	C494	0.529900	0.529900	0.645000
C4951	C495	0.547600	0.547600	0.602800
