data_BIYXUE_charged_PM
_symmetry_space_group_name_H-M	'P1'
_cell_length_a	24.050000
_cell_length_b	24.104200
_cell_length_c	24.621900
_cell_angle_alpha	86.088000
_cell_angle_beta	61.613000
_cell_angle_gamma	61.393000
_symmetry_Int_Tables_number 1

loop_
_symmetry_equiv_pos_as_xyz
'x,y,z'

loop_
_atom_site_label
_atom_site_type_symbol
_atom_site_fract_x
_atom_site_fract_y
_atom_site_fract_z
Dy11	Dy1	0.367730	0.202580	0.844470
Dy21	Dy2	0.859750	0.356000	0.703940
Dy31	Dy3	0.632270	0.797420	0.155530
Dy41	Dy4	0.140250	0.644000	0.296060
Dy51	Dy5	0.762110	0.224320	0.255640
Dy61	Dy6	0.237890	0.775680	0.744360
H11	H1	0.606100	0.576400	0.245400
H21	H2	0.580700	0.994300	0.900800
H31	H3	0.398000	0.871400	0.534300
H41	H4	0.964300	0.808900	0.411200
H51	H5	0.560500	0.693200	0.391000
H61	H6	0.340200	0.218400	0.696100
H71	H7	0.771600	0.003100	0.147400
H81	H8	0.059100	0.680300	0.187100
H91	H9	0.078100	0.969100	0.816300
H101	H10	0.256400	0.224400	0.671800
H111	H11	0.749900	0.349000	0.046100
H121	H12	0.289200	0.526800	0.103000
H131	H13	0.478900	0.683200	0.479000
H141	H14	0.355400	0.492100	0.699600
H151	H15	0.787200	0.600600	0.078200
H161	H16	0.136200	0.680000	0.825300
H171	H17	0.001000	0.947300	0.208200
H181	H18	0.239000	0.578400	0.392800
H191	H19	0.653900	0.297100	0.168400
H201	H20	0.602000	0.128600	0.465700
H211	H21	0.063400	0.763800	0.546600
H221	H22	0.510700	0.985700	0.262900
H231	H23	0.590600	0.117500	0.560600
H241	H24	0.105700	0.856400	0.936000
H251	H25	0.069400	0.391100	0.475600
H261	H26	0.732300	0.387300	0.544600
H271	H27	0.892000	0.903100	0.389800
H281	H28	0.674300	0.411700	0.333700
H291	H29	0.959600	0.660100	0.441600
H301	H30	0.817100	0.684000	0.982400
H311	H31	0.047000	0.287200	0.048500
H321	H32	0.459200	0.657100	0.825800
H331	H33	0.411200	0.873200	0.221400
H341	H34	0.816000	0.906000	0.001400
H351	H35	0.842100	0.011500	0.392700
H361	H36	0.439500	0.602100	0.661500
H371	H37	0.910200	0.560900	0.596900
H381	H38	0.504600	0.328200	0.879400
H391	H39	0.430200	0.672400	0.581300
H401	H40	0.622100	0.952200	0.956100
H411	H41	0.333700	0.831500	0.258300
H421	H42	0.894300	0.143600	0.064000
H431	H43	0.866200	0.164800	0.350800
H441	H44	0.930600	0.608900	0.524400
H451	H45	0.869700	0.550800	0.819900
H461	H46	0.681000	0.330800	0.421000
H471	H47	0.329600	0.097800	0.980700
H481	H48	0.448800	0.882200	0.334900
H491	H49	0.150900	0.403000	0.082500
H501	H50	0.743600	0.775600	0.328200
H511	H51	0.346100	0.424500	0.358900
H521	H52	0.530000	0.043600	0.837700
H531	H53	0.903900	0.452500	0.769900
H541	H54	0.551200	0.117800	0.665100
H551	H55	0.907800	0.639500	0.169800
H561	H56	0.985900	0.741700	0.847400
H571	H57	0.325500	0.428100	0.051600
H581	H58	0.555800	0.562500	0.648700
H591	H59	0.855600	0.190200	0.717300
H601	H60	0.820600	0.509300	0.119600
H611	H61	0.644500	0.690200	0.944000
H621	H62	0.269000	0.107400	0.908700
H631	H63	0.130300	0.449200	0.180100
H641	H64	0.863800	0.320000	0.174700
H651	H65	0.731000	0.892600	0.091300
H661	H66	0.710800	0.473200	0.897000
H671	H67	0.086700	0.785900	0.211300
H681	H68	0.714600	0.856600	0.225700
H691	H69	0.286800	0.775800	0.304800
H701	H70	0.250100	0.651000	0.953900
H711	H71	0.940900	0.319700	0.812900
H721	H72	0.569800	0.327600	0.418700
H731	H73	0.219500	0.721500	0.346100
H741	H74	0.461800	0.933500	0.752900
H751	H75	0.768400	0.515300	0.633900
H761	H76	0.597100	0.698600	0.286400
H771	H77	0.184000	0.094000	0.998600
H781	H78	0.212800	0.399400	0.921800
H791	H79	0.108000	0.096900	0.610200
H801	H80	0.826200	0.745100	0.357800
H811	H81	0.708100	0.359800	0.887400
H821	H82	0.357300	0.588300	0.185500
H831	H83	0.766200	0.098400	0.364800
H841	H84	0.089800	0.439100	0.403100
H851	H85	0.069200	0.100200	0.047200
H861	H86	0.929000	0.243000	0.238700
H871	H87	0.837900	0.415300	0.135600
H881	H88	0.569000	0.717400	0.084400
H891	H89	0.071000	0.757000	0.761300
H901	H90	0.257000	0.061000	0.789100
H911	H91	0.144400	0.809800	0.282700
H921	H92	0.668300	0.509100	0.816600
H931	H93	0.556200	0.560900	0.821900
H941	H94	0.670400	0.902200	0.019300
H951	H95	0.966500	0.272500	0.514600
H961	H96	0.521100	0.316800	0.521000
H971	H97	0.267700	0.612700	0.455400
H981	H98	0.713200	0.224200	0.695200
H991	H99	0.653900	0.575500	0.641100
H1001	H100	0.424800	0.332400	0.797100
H1011	H101	0.975900	0.673200	0.170500
H1021	H102	0.822400	0.649500	0.145800
H1031	H103	0.849100	0.597000	0.917500
H1041	H104	0.930800	0.899800	0.952800
H1051	H105	0.177600	0.350500	0.854200
H1061	H106	0.116700	0.843500	0.025400
H1071	H107	0.780500	0.278500	0.653900
H1081	H108	0.393900	0.423600	0.754600
H1091	H109	0.999000	0.052700	0.791800
H1101	H110	0.381800	0.222700	0.996800
H1111	H111	0.319000	0.669200	0.579000
H1121	H112	0.182900	0.316000	0.017600
H1131	H113	0.157900	0.988500	0.607300
H1141	H114	0.886000	0.506100	0.678300
H1151	H115	0.644600	0.507900	0.300400
H1161	H116	0.913300	0.214100	0.788700
H1171	H117	0.027700	0.906300	0.867100
H1181	H118	0.132400	0.298300	0.956200
H1191	H119	0.291900	0.640200	0.112600
H1201	H120	0.096100	0.547500	0.230100
H1211	H121	0.014100	0.258300	0.152600
H1221	H122	0.231600	0.484700	0.366100
H1231	H123	0.765500	0.332800	0.132900
H1241	H124	0.346100	0.702900	0.831600
H1251	H125	0.808100	0.079900	0.134000
H1261	H126	0.495400	0.671800	0.120600
H1271	H127	0.953000	0.712800	0.951500
H1281	H128	0.419300	0.005700	0.099200
H1291	H129	0.233800	0.901600	0.635200
H1301	H130	0.075700	0.903700	0.262500
H1311	H131	0.674500	0.571900	0.948400
H1321	H132	0.040400	0.339900	0.558400
H1331	H133	0.431000	0.282600	0.915600
H1341	H134	0.712600	0.366500	0.480100
H1351	H135	0.162100	0.584700	0.864400
H1361	H136	0.601400	0.214600	0.256200
H1371	H137	0.921900	0.030900	0.183700
H1381	H138	0.035700	0.191100	0.588800
H1391	H139	0.588800	0.126800	0.778600
H1401	H140	0.114000	0.493900	0.321700
H1411	H141	0.402900	0.301400	0.713600
H1421	H142	0.883300	0.156500	0.974600
H1431	H143	0.173800	0.254900	0.642200
H1441	H144	0.648200	0.141600	0.361700
H1451	H145	0.331700	0.490900	0.183400
H1461	H146	0.228400	0.996900	0.852600
H1471	H147	0.761000	0.421600	0.607200
H1481	H148	0.439500	0.306800	0.609000
H1491	H149	0.708800	0.341600	0.980700
H1501	H150	0.972300	0.093700	0.132900
H1511	H151	0.936600	0.236200	0.453400
H1521	H152	0.540800	0.342900	0.174200
H1531	H153	0.024100	0.326800	0.829500
H1541	H154	0.291200	0.658400	0.019300
H1551	H155	0.867600	0.701700	0.043800
H1561	H156	0.575400	0.359600	0.856000
H1571	H157	0.666300	0.168500	0.741700
H1581	H158	0.538200	0.066500	0.247100
H1591	H159	0.924300	0.096300	0.737500
H1601	H160	0.033500	0.727500	0.485400
H1611	H161	0.575200	0.667600	0.202900
H1621	H162	0.424600	0.640400	0.144000
H1631	H163	0.913600	0.750700	0.370200
H1641	H164	0.377900	0.047800	0.043900
H1651	H165	0.918000	0.194200	0.880600
H1661	H166	0.133800	0.835200	0.649200
H1671	H167	0.444200	0.437500	0.351300
H1681	H168	0.436100	0.860900	0.728700
H1691	H169	0.563900	0.139100	0.271300
H1701	H170	0.096000	0.801000	0.592700
H1711	H171	0.234500	0.667200	0.867100
H1721	H172	0.904000	0.199000	0.407300
H1731	H173	0.560500	0.397900	0.338500
H1741	H174	0.642700	0.411700	0.814500
H1751	H175	0.082000	0.805800	0.119400
H1761	H176	0.325700	0.588300	0.666300
H1771	H177	0.618200	0.777300	0.003200
H1781	H178	0.355500	0.309800	0.056000
H1791	H179	0.409400	0.882500	0.439400
H1801	H180	0.470000	0.956400	0.162300
H1811	H181	0.086400	0.249300	0.629800
H1821	H182	0.351800	0.858400	0.638300
H1831	H183	0.443800	0.439100	0.178100
H1841	H184	0.489300	0.014300	0.737100
H1851	H185	0.191900	0.920100	0.866000
H1861	H186	0.179400	0.490700	0.880400
H1871	H187	0.092200	0.360500	0.830200
H1881	H188	0.285400	0.143400	0.774300
H1891	H189	0.659800	0.781600	0.303900
H1901	H190	0.743000	0.939000	0.210900
H1911	H191	0.398600	0.785400	0.743800
H1921	H192	0.287400	0.633500	0.519900
C11	C1	0.109300	0.291100	0.738700
C21	C2	0.193400	0.324700	0.816800
C31	C3	0.406500	0.829900	0.542900
C41	C4	0.092600	0.828900	0.304000
C51	C5	0.239100	0.250200	0.709900
C61	C6	0.555900	0.735500	0.318400
C71	C7	0.486900	0.410900	0.312300
C81	C8	0.292700	0.587300	0.707300
C91	C9	0.470900	0.985200	0.082000
C101	C10	0.610800	0.328100	0.204800
C111	C11	0.930700	0.967900	0.303500
C121	C12	0.126600	0.268100	0.677700
C131	C13	0.556000	0.386200	0.305300
C141	C14	0.356100	0.419000	0.788700
C151	C15	0.760900	0.749800	0.290100
C161	C16	0.251000	0.368200	0.074100
C171	C17	0.961700	0.689500	0.211800
C181	C18	0.363300	0.712700	0.221500
C191	C19	0.363600	0.829200	0.765000
C201	C20	0.031000	0.416000	0.516800
C211	C21	0.407400	0.426700	0.267900
C221	C22	0.923300	0.482800	0.636300
C231	C23	0.498900	0.044100	0.880200
C241	C24	0.142600	0.523400	0.192900
C251	C25	0.751400	0.315100	0.941700
C261	C26	0.140400	0.985300	0.650300
C271	C27	0.689400	0.469800	0.273200
C281	C28	0.310600	0.530200	0.726800
C291	C29	0.334900	0.938300	0.785800
C301	C30	0.679300	0.899300	0.228500
C311	C31	0.770200	0.541300	0.137300
C321	C32	0.521300	0.740000	0.120700
C331	C33	0.099700	0.724800	0.515800
C341	C34	0.061900	0.485000	0.412000
C351	C35	0.559000	0.976000	0.250200
C361	C36	0.183300	0.745300	0.001100
C371	C37	0.890700	0.708900	0.261300
C381	C38	0.816700	0.254700	0.998900
C391	C39	0.230400	0.428600	0.109200
C401	C40	0.780500	0.306600	0.048500
C411	C41	0.038300	0.310500	0.788200
C421	C42	0.374700	0.364700	0.813400
C431	C43	0.425200	0.976300	0.757900
C441	C44	0.813800	0.066400	0.333000
C451	C45	0.052000	0.883700	0.291800
C461	C46	0.993300	0.482000	0.526000
C471	C47	0.948000	0.116300	0.708200
C481	C48	0.643900	0.581000	0.211300
C491	C49	0.354400	0.989400	0.773900
C501	C50	0.722100	0.547700	0.912500
C511	C51	0.614200	0.125900	0.244300
C521	C52	0.165900	0.794100	0.621400
C531	C53	0.769600	0.571400	0.890800
C541	C54	0.943900	0.883800	0.366900
C551	C55	0.143200	0.773400	0.587700
C561	C56	0.186200	0.933600	0.667000
C571	C57	0.812000	0.285900	0.452000
C581	C58	0.818400	0.358600	0.199500
C591	C59	0.736900	0.472500	0.213100
C601	C60	0.410200	0.046500	0.001600
C611	C61	0.992700	0.776500	0.851900
C621	C62	0.218400	0.315400	0.025300
C631	C63	0.219200	0.636700	0.462300
C641	C64	0.014200	0.385800	0.565800
C651	C65	0.738300	0.295000	0.695000
C661	C66	0.988700	0.306500	0.778500
C671	C67	0.900300	0.275200	0.484200
C681	C68	0.949600	0.818600	0.909500
C691	C69	0.202400	0.616200	0.425200
C701	C70	0.530200	0.157900	0.653400
C711	C71	0.664700	0.739000	0.987500
C721	C72	0.141200	0.806800	0.993500
C731	C73	0.871800	0.240400	0.828300
C741	C74	0.385800	0.874100	0.755700
C751	C75	0.199600	0.367100	0.063200
C761	C76	0.814200	0.265000	0.940900
C771	C77	0.592600	0.573300	0.732100
C781	C78	0.248600	0.684900	0.058300
C791	C79	0.907800	0.750000	0.979800
C801	C80	0.408400	0.743900	0.195000
C811	C81	0.334200	0.479200	0.220100
C821	C82	0.831900	0.308700	0.490400
C831	C83	0.444100	0.264500	0.681600
C841	C84	0.441000	0.024000	0.749800
C851	C85	0.554700	0.157000	0.590800
C861	C86	0.011300	0.693500	0.221500
C871	C87	0.656700	0.560200	0.676800
C881	C88	0.248900	0.674000	0.113800
C891	C89	0.758600	0.091400	0.162700
C901	C90	0.106500	0.190000	0.033700
C911	C91	0.485100	0.015100	0.979900
C921	C92	0.788700	0.297000	0.100400
C931	C93	0.710800	0.753400	0.276000
C941	C94	0.736600	0.046000	0.171400
C951	C95	0.261700	0.705000	0.305000
C961	C96	0.076700	0.517200	0.363700
C971	C97	0.522600	0.287000	0.857500
C981	C98	0.873400	0.731900	0.322300
C991	C99	0.961400	0.868600	0.914500
C1001	C100	0.275200	0.474500	0.327500
C1011	C101	0.343200	0.626300	0.210100
C1021	C102	0.135000	0.814500	0.940400
C1031	C103	0.857100	0.743100	0.034100
C1041	C104	0.478700	0.260000	0.879300
C1051	C105	0.826700	0.863900	0.009100
C1061	C106	0.985800	0.614200	0.434200
C1071	C107	0.865000	0.185500	0.059600
C1081	C108	0.874400	0.228300	0.883000
C1091	C109	0.163300	0.465000	0.163000
C1101	C110	0.534000	0.732200	0.380600
C1111	C111	0.598900	0.552800	0.783300
C1121	C112	0.856800	0.226600	0.412300
C1131	C113	0.013300	0.172100	0.620600
C1141	C114	0.806600	0.675300	0.183200
C1151	C115	0.056100	0.116200	0.633100
C1161	C116	0.074500	0.265000	0.670400
C1171	C117	0.401100	0.447200	0.216700
C1181	C118	0.553300	0.221500	0.506000
C1191	C119	0.574800	0.023700	0.242100
C1201	C120	0.456400	0.645800	0.791300
C1211	C121	0.836700	0.535000	0.837000
C1221	C122	0.893500	0.810000	0.966300
C1231	C123	0.007300	0.223500	0.148100
C1241	C124	0.780800	0.363300	0.537700
C1251	C125	0.181600	0.641400	0.800500
C1261	C126	0.501100	0.955900	0.119800
C1271	C127	0.320700	0.100700	0.771500
C1281	C128	0.128200	0.759600	0.171700
C1291	C129	0.636400	0.170800	0.235000
C1301	C130	0.695600	0.948900	0.220500
C1311	C131	0.006700	0.518000	0.474000
C1321	C132	0.125600	0.771700	0.117000
C1331	C133	0.479500	0.397300	0.263800
C1341	C134	0.745300	0.324400	0.454300
C1351	C135	0.976900	0.912400	0.320100
C1361	C136	0.591600	0.256100	0.805000
C1371	C137	0.283400	0.467500	0.812100
C1381	C138	0.665100	0.061700	0.214200
C1391	C139	0.335300	0.261000	0.012500
C1401	C140	0.575500	0.287000	0.428500
C1411	C141	0.229800	0.458700	0.862700
C1421	C142	0.383300	0.657200	0.185600
C1431	C143	0.697800	0.262900	0.719600
C1441	C144	0.263400	0.954000	0.828600
C1451	C145	0.514900	0.984900	0.020100
C1461	C146	0.803200	0.415400	0.176300
C1471	C147	0.446700	0.778500	0.494000
C1481	C148	0.969000	0.584000	0.483200
C1491	C149	0.211300	0.703000	0.899600
C1501	C150	0.466000	0.267800	0.619400
C1511	C151	0.188000	0.714100	0.548000
C1521	C152	0.857400	0.476600	0.807100
C1531	C153	0.256100	0.511100	0.118100
C1541	C154	0.164300	0.290200	0.749100
C1551	C155	0.981900	0.126700	0.136700
C1561	C156	0.680600	0.687900	0.951700
C1571	C157	0.381100	0.075800	0.964000
C1581	C158	0.776500	0.856000	0.062300
C1591	C159	0.925500	0.735000	0.329600
C1601	C160	0.857300	0.670200	0.196900
C1611	C161	0.529100	0.014800	0.918000
C1621	C162	0.905900	0.026900	0.226500
C1631	C163	0.543600	0.354200	0.208700
C1641	C164	0.571600	0.168400	0.799000
C1651	C165	0.593500	0.170100	0.457100
C1661	C166	0.219500	0.693400	0.951500
C1671	C167	0.907400	0.171100	0.696000
C1681	C168	0.444000	0.613800	0.694700
C1691	C169	0.858800	0.193200	0.006500
C1701	C170	0.241400	0.908600	0.837300
C1711	C171	0.018100	0.873300	0.863300
C1721	C172	0.142700	0.329800	0.803100
C1731	C173	0.725900	0.302700	0.420100
C1741	C174	0.343300	0.439800	0.323200
C1751	C175	0.750400	0.595700	0.113200
C1761	C176	0.520500	0.602700	0.736200
C1771	C177	0.625300	0.635300	0.186600
C1781	C178	0.081700	0.703800	0.479100
C1791	C179	0.834100	0.205900	0.378600
C1801	C180	0.445300	0.843000	0.409200
C1811	C181	0.636700	0.287300	0.778500
C1821	C182	0.254700	0.675600	0.545700
C1831	C183	0.835700	0.709800	0.250900
C1841	C184	0.424500	0.713000	0.571500
C1851	C185	0.716600	0.532500	0.187900
C1861	C186	0.382400	0.806700	0.223700
C1871	C187	0.044700	0.784100	0.801500
C1881	C188	0.277900	0.452300	0.087500
C1891	C189	0.223500	0.144000	0.937700
C1901	C190	0.168100	0.691300	0.509600
C1911	C191	0.622000	0.177600	0.395000
C1921	C192	0.050400	0.181400	0.090500
C1931	C193	0.797600	0.383800	0.574800
C1941	C194	0.952700	0.976700	0.241000
C1951	C195	0.263100	0.527500	0.786900
C1961	C196	0.477400	0.713000	0.142500
C1971	C197	0.526000	0.215100	0.571700
C1981	C198	0.938100	0.515000	0.588000
C1991	C199	0.274100	0.697300	0.579900
C2001	C200	0.751100	0.326000	0.886200
C2011	C201	0.859600	0.014700	0.349700
C2021	C202	0.304400	0.051100	0.779500
C2031	C203	0.743900	0.488900	0.881900
C2041	C204	0.546900	0.280200	0.488600
C2051	C205	0.069300	0.032100	0.696500
C2061	C206	0.955300	0.215900	0.198500
C2071	C207	0.023100	0.087600	0.679900
C2081	C208	0.724800	0.525500	0.672500
C2091	C209	0.618900	0.924200	0.036000
C2101	C210	0.474000	0.784900	0.428300
C2111	C211	0.389200	0.671900	0.795200
C2121	C212	0.378000	0.822400	0.605000
C2131	C213	0.645600	0.010600	0.226100
C2141	C214	0.289200	0.246600	0.724000
C2151	C215	0.094100	0.973100	0.773500
C2161	C216	0.092200	0.250000	0.020200
C2171	C217	0.047300	0.023300	0.759000
C2181	C218	0.249600	0.404300	0.886800
C2191	C219	0.800400	0.632900	0.936800
C2201	C220	0.589800	0.953500	0.998400
C2211	C221	0.617600	0.193300	0.776300
C2221	C222	0.196800	0.584600	0.823700
C2231	C223	0.707300	0.412700	0.292700
C2241	C224	0.616700	0.342800	0.814400
C2251	C225	0.319400	0.312100	0.048300
C2261	C226	0.469800	0.842100	0.346600
C2271	C227	0.453100	0.719800	0.511400
C2281	C228	0.185800	0.735000	0.059100
C2291	C229	0.513100	0.589100	0.687700
C2301	C230	0.918300	0.296200	0.520900
C2311	C231	0.173300	0.136100	0.990900
C2321	C232	0.665800	0.520800	0.779900
C2331	C233	0.142900	0.256900	0.965900
C2341	C234	0.781600	0.684600	0.974700
C2351	C235	0.749000	0.631800	0.925900
C2361	C236	0.428400	0.831600	0.201000
C2371	C237	0.302200	0.737100	0.280400
C2381	C238	0.038600	0.131400	0.085500
C2391	C239	0.656800	0.373700	0.789900
C2401	C240	0.986700	0.827900	0.379400
N11	N1	0.284500	0.650200	0.268600
N21	N2	0.387400	0.086500	0.759900
N31	N3	0.679700	0.642600	0.138100
N41	N4	0.189500	0.710300	0.169200
N51	N5	0.038700	0.580200	0.376100
N61	N6	0.059100	0.800400	0.347500
N71	N7	0.162800	0.929300	0.727900
N81	N8	0.792200	0.796400	0.073100
N91	N9	0.940900	0.169600	0.191600
N101	N10	0.810400	0.453900	0.831600
N111	N11	0.426100	0.073100	0.903300
N121	N12	0.768800	0.243200	0.385500
N131	N13	0.480700	0.208800	0.698500
N141	N14	0.727300	0.506100	0.725700
N151	N15	0.008000	0.283700	0.719500
N161	N16	0.230400	0.641900	0.743800
N171	N17	0.320300	0.357400	0.861900
N181	N18	0.837200	0.070700	0.272100
N191	N19	0.519300	0.791200	0.301500
N201	N20	0.961300	0.419800	0.623900
N211	N21	0.713800	0.736500	0.001400
N221	N22	0.387100	0.765300	0.618400
N231	N23	0.810500	0.289700	0.830800
N241	N24	0.940900	0.199600	0.652500
N251	N25	0.734600	0.716500	0.221900
N261	N26	0.992000	0.716300	0.280500
N271	N27	0.706900	0.152900	0.196400
N281	N28	0.612900	0.234700	0.381600
N291	N29	0.286200	0.263500	0.998600
N301	N30	0.189600	0.546100	0.168400
N311	N31	0.207800	0.203600	0.926900
N321	N32	0.383800	0.654100	0.748300
N331	N33	0.170700	0.762600	0.894700
N341	N34	0.059100	0.830400	0.808400
N351	N35	0.573900	0.926900	0.096700
N361	N36	0.495900	0.799500	0.151600
N371	N37	0.829300	0.237400	0.105300
N381	N38	0.133400	0.649500	0.434300
N391	N39	0.504100	0.200500	0.848400
N401	N40	0.265400	0.283500	0.778100
N411	N41	0.715500	0.349800	0.731400
N421	N42	0.272700	0.493900	0.274300
N431	N43	0.866600	0.350500	0.565700
N441	N44	0.769600	0.358100	0.256200
N451	N45	0.293100	0.847100	0.803600
N461	N46	0.612600	0.913500	0.240100
N471	N47	0.231200	0.756800	0.614500
N481	N48	0.616200	0.345900	0.251700
O11	O1	0.190400	0.698400	0.222100
O21	O2	0.254400	0.778000	0.642900
O31	O3	0.357300	0.758500	0.678300
O41	O4	0.053100	0.612400	0.330300
O51	O5	0.598900	0.865200	0.243900
O61	O6	0.785200	0.303300	0.276100
O71	O7	0.536200	0.792400	0.242500
O81	O8	0.642700	0.241500	0.321700
O91	O9	0.099700	0.742700	0.356900
O101	O10	0.960500	0.276800	0.711600
O111	O11	0.039500	0.723200	0.288400
O121	O12	0.399000	0.099500	0.866200
O131	O13	0.601000	0.900500	0.133800
O141	O14	0.745600	0.222000	0.357100
O151	O15	0.463800	0.207600	0.757500
O161	O16	0.838800	0.229300	0.154800
O171	O17	0.169700	0.603200	0.194600
O181	O18	0.744200	0.789300	0.127100
O191	O19	0.900300	0.257300	0.643100
O201	O20	0.946900	0.387600	0.669700
O211	O21	0.790900	0.117400	0.257400
O221	O22	0.830300	0.396800	0.805400
O231	O23	0.249100	0.618800	0.291500
O241	O24	0.882500	0.371700	0.601600
O251	O25	0.214800	0.696700	0.723900
O261	O26	0.750900	0.381200	0.708500
O271	O27	0.255800	0.210700	0.872900
O281	O28	0.401100	0.134800	0.756100
O291	O29	0.687100	0.720800	0.206300
O301	O30	0.728600	0.195900	0.189500
O311	O31	0.208100	0.528300	0.278600
O321	O32	0.209100	0.882600	0.742600
O331	O33	0.459700	0.176800	0.869500
O341	O34	0.682100	0.324100	0.244500
O351	O35	0.791900	0.471700	0.721400
O361	O36	0.161200	0.770700	0.845200
O371	O37	0.809600	0.301600	0.777900
O381	O38	0.695300	0.784500	0.041500
O391	O39	0.113700	0.835400	0.761600
O401	O40	0.540300	0.823200	0.130500
O411	O41	0.662100	0.695700	0.113700
O421	O42	0.312900	0.279200	0.793700
O431	O43	0.304700	0.215500	0.958500
O441	O44	0.317900	0.675900	0.755500
O451	O45	0.337900	0.304300	0.886300
O461	O46	0.271400	0.804100	0.810500
O471	O47	0.886300	0.164600	0.238400
O481	O48	0.117500	0.628300	0.398400
C2411	C241	0.129900	0.583800	0.027600
S11	S1	0.057200	0.627700	0.006400
O491	O49	0.991400	0.655900	0.065900
O501	O50	0.079000	0.670400	0.969800
O511	O51	0.065700	0.579900	0.968200
F11	F1	0.126000	0.623300	0.063500
F21	F2	0.120600	0.543300	0.058800
F31	F3	0.194300	0.556700	0.977400
C2421	C242	0.870100	0.416200	0.972400
S21	S2	0.942800	0.372300	0.993600
O521	O52	0.921000	0.329600	0.030200
O531	O53	0.008600	0.344100	0.934100
O541	O54	0.934300	0.420100	0.031800
F41	F4	0.874000	0.376700	0.936500
F51	F5	0.805700	0.443300	0.022600
F61	F6	0.879400	0.456700	0.941200
