data_BIYYAL_charged_PM
_symmetry_space_group_name_H-M	'P1'
_cell_length_a	23.972400
_cell_length_b	24.092800
_cell_length_c	24.569300
_cell_angle_alpha	86.145000
_cell_angle_beta	61.593000
_cell_angle_gamma	61.533000
_symmetry_Int_Tables_number 1

loop_
_symmetry_equiv_pos_as_xyz
'x,y,z'

loop_
_atom_site_label
_atom_site_type_symbol
_atom_site_fract_x
_atom_site_fract_y
_atom_site_fract_z
Ho11	Ho1	0.861240	0.354430	0.703380
Ho21	Ho2	0.240140	0.775170	0.743050
Ho31	Ho3	0.634010	0.795890	0.153510
Ho41	Ho4	0.365990	0.204110	0.846490
Ho51	Ho5	0.138760	0.645570	0.296620
Ho61	Ho6	0.759860	0.224830	0.256950
H11	H1	0.772800	0.002300	0.146800
H21	H2	0.883300	0.155400	0.975600
H31	H3	0.321800	0.427600	0.056100
H41	H4	0.523400	0.315900	0.522500
H51	H5	0.098000	0.804900	0.588500
H61	H6	0.915600	0.216100	0.788300
H71	H7	0.459400	0.936300	0.754000
H81	H8	0.891100	0.502100	0.679200
H91	H9	0.237900	0.904600	0.632000
H101	H10	0.815600	0.906200	0.002000
H111	H11	0.715700	0.469100	0.895700
H121	H12	0.476600	0.684100	0.477500
H131	H13	0.621400	0.775500	0.002000
H141	H14	0.073900	0.906300	0.262400
H151	H15	0.374500	0.055700	0.048400
H161	H16	0.563200	0.137800	0.268000
H171	H17	0.862600	0.162500	0.356100
H181	H18	0.764800	0.331500	0.133800
H191	H19	0.940500	0.233300	0.452300
H201	H20	0.335700	0.829200	0.256100
H211	H21	0.494500	0.673200	0.120400
H221	H22	0.178800	0.318200	0.020300
H231	H23	0.109700	0.855500	0.931300
H241	H24	0.436800	0.862200	0.732000
H251	H25	0.404000	0.880500	0.438300
H261	H26	0.540600	0.063700	0.246000
H271	H27	0.411500	0.872000	0.220300
H281	H28	0.401600	0.787400	0.740400
H291	H29	0.871100	0.700300	0.043000
H301	H30	0.395700	0.423000	0.753700
H311	H31	0.426300	0.333300	0.800800
H321	H32	0.420900	0.009700	0.101500
H331	H33	0.463300	0.658700	0.823500
H341	H34	0.353400	0.856700	0.638500
H351	H35	0.558200	0.560500	0.648200
H361	H36	0.352000	0.310200	0.060400
H371	H37	0.560100	0.563600	0.821700
H381	H38	0.488100	0.017600	0.738300
H391	H39	0.856400	0.188600	0.715600
H401	H40	0.818700	0.509400	0.121800
H411	H41	0.253800	0.651700	0.953200
H421	H42	0.125800	0.451500	0.179700
H431	H43	0.924900	0.244200	0.240900
H441	H44	0.644400	0.507300	0.298400
H451	H45	0.059500	0.766700	0.547700
H461	H46	0.821200	0.681800	0.979700
H471	H47	0.839900	0.014300	0.394000
H481	H48	0.908300	0.641300	0.168700
H491	H49	0.036600	0.339200	0.558500
H501	H50	0.227200	0.997700	0.853200
H511	H51	0.015600	0.257800	0.153200
H521	H52	0.714700	0.853300	0.224300
H531	H53	0.671300	0.902600	0.018400
H541	H54	0.557300	0.392200	0.342100
H551	H55	0.670400	0.413500	0.335600
H561	H56	0.762100	0.095400	0.368000
H571	H57	0.089500	0.249400	0.629400
H581	H58	0.588500	0.128000	0.779700
H591	H59	0.565100	0.328300	0.422000
H601	H60	0.536700	0.341300	0.176500
H611	H61	0.035500	0.190400	0.588200
H621	H62	0.964500	0.809600	0.411800
H631	H63	0.902000	0.195100	0.411500
H641	H64	0.746200	0.348300	0.046800
H651	H65	0.292300	0.661400	0.018500
H661	H66	0.254900	0.064200	0.789400
H671	H67	0.778600	0.277700	0.655200
H681	H68	0.963400	0.660800	0.441500
H691	H69	0.268600	0.107200	0.909700
H701	H70	0.194000	0.919300	0.865100
H711	H71	0.402300	0.303300	0.717000
H721	H72	0.143600	0.811400	0.284400
H731	H73	0.329600	0.586500	0.664400
H741	H74	0.084600	0.805900	0.117400
H751	H75	0.023700	0.326600	0.830700
H761	H76	0.452200	0.879800	0.331300
H771	H77	0.667800	0.510400	0.815600
H781	H78	0.057100	0.685600	0.186800
H791	H79	0.080600	0.969400	0.815500
H801	H80	0.972000	0.093600	0.134400
H811	H81	0.338600	0.223000	0.697000
H821	H82	0.604300	0.577000	0.246300
H831	H83	0.573700	0.666700	0.199200
H841	H84	0.707700	0.338600	0.981500
H851	H85	0.651300	0.296900	0.167500
H861	H86	0.547800	0.120200	0.668700
H871	H87	0.442700	0.607800	0.657900
H881	H88	0.328700	0.097400	0.981600
H891	H89	0.045000	0.288600	0.050200
H901	H90	0.573600	0.363200	0.855400
H911	H91	0.355600	0.492700	0.701600
H921	H92	0.433300	0.282300	0.919600
H931	H93	0.147900	0.407100	0.080800
H941	H94	0.930300	0.899000	0.952300
H951	H95	0.561400	0.693200	0.388500
H961	H96	0.505500	0.326800	0.879600
H971	H97	0.678200	0.572400	0.943900
H981	H98	0.393900	0.871400	0.533200
H991	H99	0.069700	0.101000	0.047700
H1001	H100	0.731400	0.892800	0.090300
H1011	H101	0.745100	0.935800	0.210600
H1021	H102	0.002300	0.053600	0.790100
H1031	H103	0.470100	0.960200	0.161900
H1041	H104	0.211800	0.399600	0.920100
H1051	H105	0.172900	0.257500	0.643500
H1061	H106	0.256000	0.224700	0.671400
H1071	H107	0.355900	0.587900	0.187400
H1081	H108	0.712500	0.226300	0.695600
H1091	H109	0.137400	0.837500	0.643900
H1101	H110	0.234100	0.582200	0.394200
H1111	H111	0.075100	0.755800	0.759100
H1121	H112	0.265500	0.613500	0.455000
H1131	H113	0.891000	0.902100	0.390200
H1141	H114	0.606100	0.128600	0.466800
H1151	H115	0.166500	0.584500	0.864300
H1161	H116	0.076300	0.392000	0.474400
H1171	H117	0.235200	0.668500	0.866200
H1181	H118	0.744000	0.775300	0.328600
H1191	H119	0.292800	0.640600	0.112300
H1201	H120	0.092800	0.552000	0.229000
H1211	H121	0.598400	0.212600	0.259600
H1221	H122	0.596000	0.119500	0.561700
H1231	H123	0.655800	0.576400	0.639800
H1241	H124	0.332200	0.489600	0.184400
H1251	H125	0.765900	0.417800	0.605800
H1261	H126	0.438600	0.306800	0.611500
H1271	H127	0.907200	0.448000	0.771000
H1281	H128	0.221400	0.722300	0.344800
H1291	H129	0.734500	0.386500	0.545000
H1301	H130	0.091700	0.358700	0.831300
H1311	H131	0.116700	0.844600	0.024400
H1321	H132	0.086700	0.441900	0.402300
H1331	H133	0.426400	0.636800	0.144600
H1341	H134	0.109000	0.097900	0.609800
H1351	H135	0.661400	0.777000	0.303000
H1361	H136	0.529900	0.039800	0.838100
H1371	H137	0.833500	0.415500	0.135700
H1381	H138	0.160100	0.985700	0.606000
H1391	H139	0.128900	0.299700	0.957000
H1401	H140	0.681100	0.331100	0.419200
H1411	H141	0.439900	0.436400	0.178300
H1421	H142	0.285300	0.146700	0.775700
H1431	H143	0.824200	0.645700	0.144400
H1441	H144	0.287500	0.773700	0.304400
H1451	H145	0.716900	0.369600	0.474000
H1461	H146	0.806000	0.080700	0.134900
H1471	H147	0.915400	0.194100	0.882600
H1481	H148	0.441800	0.439500	0.351800
H1491	H149	0.283100	0.630400	0.526000
H1501	H150	0.923700	0.608000	0.525600
H1511	H151	0.137800	0.680900	0.823900
H1521	H152	0.284300	0.530900	0.104300
H1531	H153	0.955000	0.711400	0.949800
H1541	H154	0.108900	0.497900	0.320800
H1551	H155	0.913300	0.558100	0.597700
H1561	H156	0.997700	0.946400	0.209900
H1571	H157	0.175800	0.354300	0.855600
H1581	H158	0.968400	0.273500	0.513600
H1591	H159	0.227800	0.486600	0.367400
H1601	H160	0.625500	0.944300	0.951600
H1611	H161	0.852100	0.592900	0.919200
H1621	H162	0.788200	0.600400	0.079900
H1631	H163	0.344200	0.423600	0.360200
H1641	H164	0.919400	0.030600	0.184500
H1651	H165	0.031600	0.726500	0.486400
H1661	H166	0.511900	0.982400	0.261700
H1671	H167	0.318900	0.668900	0.580800
H1681	H168	0.976300	0.673400	0.169300
H1691	H169	0.664300	0.170800	0.743900
H1701	H170	0.984400	0.742200	0.846800
H1711	H171	0.566700	0.717700	0.080400
H1721	H172	0.942900	0.314400	0.813200
H1731	H173	0.646600	0.143300	0.361500
H1741	H174	0.707200	0.359400	0.887700
H1751	H175	0.874200	0.548500	0.820300
H1761	H176	0.827100	0.742500	0.356500
H1771	H177	0.579100	0.990300	0.898500
H1781	H178	0.434900	0.671700	0.578000
H1791	H179	0.597700	0.696700	0.283000
H1801	H180	0.648000	0.689800	0.939600
H1811	H181	0.028000	0.906400	0.865600
H1821	H182	0.184400	0.093800	0.998000
H1831	H183	0.910500	0.750600	0.370600
H1841	H184	0.772200	0.513400	0.632600
H1851	H185	0.926100	0.093700	0.737600
H1861	H186	0.348700	0.703100	0.832500
H1871	H187	0.862200	0.319100	0.176100
H1881	H188	0.378600	0.224500	0.998000
H1891	H189	0.084400	0.783900	0.211700
H1901	H190	0.644100	0.412100	0.812600
H1911	H191	0.890300	0.144500	0.068700
H1921	H192	0.181300	0.490600	0.878200
C11	C1	0.443300	0.841800	0.407900
C21	C2	0.776900	0.856400	0.061000
C31	C3	0.623800	0.635200	0.184500
C41	C4	0.501500	0.957900	0.118700
C51	C5	0.522400	0.285900	0.857900
C61	C6	0.271800	0.475800	0.328700
C71	C7	0.965100	0.584000	0.485000
C81	C8	0.140000	0.526700	0.192700
C91	C9	0.528800	0.160100	0.656100
C101	C10	0.815500	0.253700	0.999800
C111	C11	0.200700	0.584000	0.823000
C121	C12	0.442800	0.266200	0.684900
C131	C13	0.076600	0.265100	0.670500
C141	C14	0.993400	0.481700	0.526300
C151	C15	0.195800	0.370200	0.063400
C161	C16	0.273500	0.453000	0.091100
C171	C17	0.635200	0.288100	0.778700
C181	C18	0.143800	0.983000	0.649200
C191	C19	0.859800	0.741500	0.032400
C201	C20	0.331800	0.262600	0.014200
C211	C21	0.923400	0.734900	0.329500
C221	C22	0.515700	0.589600	0.686100
C231	C23	0.855900	0.224300	0.414900
C241	C24	0.941200	0.512300	0.587900
C251	C25	0.006600	0.518300	0.473700
C261	C26	0.546700	0.280000	0.490200
C271	C27	0.683500	0.686700	0.948900
C281	C28	0.785400	0.682000	0.972700
C291	C29	0.477600	0.714100	0.142100
C301	C30	0.019100	0.872900	0.861700
C311	C31	0.750300	0.595500	0.113800
C321	C32	0.023000	0.088100	0.680700
C331	C33	0.908300	0.169900	0.695100
C341	C34	0.592900	0.949000	0.995100
C351	C35	0.802000	0.380500	0.572800
C361	C36	0.364800	0.711900	0.221300
C371	C37	0.214600	0.318000	0.027300
C381	C38	0.475600	0.784000	0.425700
C391	C39	0.159700	0.466600	0.163400
C401	C40	0.355800	0.989900	0.772600
C411	C41	0.644200	0.010100	0.227400
C421	C42	0.835900	0.709100	0.248900
C431	C43	0.264900	0.527400	0.787600
C441	C44	0.366000	0.830600	0.763200
C451	C45	0.010200	0.696400	0.221700
C461	C46	0.557200	0.733800	0.315100
C471	C47	0.726500	0.547000	0.908900
C481	C48	0.634000	0.169400	0.236800
C491	C49	0.980900	0.127100	0.138300
C501	C50	0.034900	0.416000	0.515000
C511	C51	0.380100	0.077100	0.965600
C521	C52	0.799300	0.416000	0.177000
C531	C53	0.712700	0.750400	0.274500
C541	C54	0.872600	0.241000	0.827800
C551	C55	0.137800	0.814000	0.937100
C561	C56	0.572600	0.287200	0.431200
C571	C57	0.405500	0.829500	0.541900
C581	C58	0.384400	0.654900	0.185900
C591	C59	0.840300	0.533400	0.836600
C601	C60	0.950900	0.816500	0.908600
C611	C61	0.386200	0.875000	0.757100
C621	C62	0.404700	0.427100	0.268700
C631	C63	0.860000	0.473300	0.807300
C641	C64	0.249300	0.687200	0.057700
C651	C65	0.904000	0.272700	0.482500
C661	C66	0.050600	0.885800	0.291500
C671	C67	0.807900	0.673000	0.181200
C681	C68	0.357600	0.419400	0.788900
C691	C69	0.977000	0.911900	0.319300
C701	C70	0.263600	0.704900	0.303600
C711	C71	0.341200	0.439500	0.324700
C721	C72	0.038300	0.309900	0.789300
C731	C73	0.608600	0.327000	0.204700
C741	C74	0.615600	0.345100	0.814100
C751	C75	0.857800	0.192400	0.007500
C761	C76	0.397000	0.446500	0.217800
C771	C77	0.223100	0.143600	0.939000
C781	C78	0.427400	0.712800	0.568800
C791	C79	0.728200	0.524200	0.671300
C801	C80	0.986400	0.615100	0.433700
C811	C81	0.484700	0.016700	0.979800
C821	C82	0.142600	0.329300	0.803900
C831	C83	0.890900	0.708700	0.261300
C841	C84	0.049100	0.183500	0.091400
C851	C85	0.335400	0.938300	0.786100
C861	C86	0.768400	0.541400	0.138500
C871	C87	0.857400	0.670700	0.196100
C881	C88	0.310900	0.531100	0.728400
C891	C89	0.274000	0.697000	0.581600
C901	C90	0.231600	0.458600	0.861500
C911	C91	0.515300	0.983300	0.020200
C921	C92	0.287300	0.249600	0.725500
C931	C93	0.619900	0.922900	0.034400
C941	C94	0.252800	0.673900	0.548500
C951	C95	0.862200	0.186000	0.062900
C961	C96	0.286100	0.467900	0.811800
C971	C97	0.825800	0.864100	0.009400
C981	C98	0.174200	0.135900	0.990600
C991	C99	0.927100	0.479400	0.636700
C1001	C100	0.222100	0.693800	0.951100
C1011	C101	0.736400	0.295100	0.696400
C1021	C102	0.949400	0.114200	0.708500
C1031	C103	0.091700	0.830100	0.304900
C1041	C104	0.620900	0.178600	0.395400
C1051	C105	0.465200	0.268100	0.622100
C1061	C106	0.689100	0.468900	0.271600
C1071	C107	0.125900	0.269400	0.678900
C1081	C108	0.777900	0.306200	0.048900
C1091	C109	0.520400	0.739900	0.118300
C1101	C110	0.303300	0.735100	0.279600
C1111	C111	0.696700	0.264900	0.720400
C1121	C112	0.761200	0.749400	0.290500
C1131	C113	0.909700	0.748600	0.978100
C1141	C114	0.810800	0.065600	0.335900
C1151	C115	0.713900	0.532100	0.188200
C1161	C116	0.551600	0.223000	0.507500
C1171	C117	0.183700	0.642400	0.799600
C1181	C118	0.013600	0.384900	0.566300
C1191	C119	0.989800	0.303600	0.778300
C1201	C120	0.560000	0.972800	0.249700
C1211	C121	0.104200	0.192900	0.036100
C1221	C122	0.007600	0.223900	0.148300
C1231	C123	0.524400	0.216000	0.574300
C1241	C124	0.302500	0.054100	0.779600
C1251	C125	0.376200	0.364800	0.815500
C1261	C126	0.212400	0.704200	0.898600
C1271	C127	0.227300	0.430700	0.112000
C1281	C128	0.429200	0.830400	0.199600
C1291	C129	0.070900	0.031400	0.696800
C1301	C130	0.185400	0.715300	0.548200
C1311	C131	0.992400	0.776100	0.851700
C1321	C132	0.072900	0.520600	0.363300
C1331	C133	0.527100	0.013700	0.917200
C1341	C134	0.090300	0.251400	0.021900
C1351	C135	0.872300	0.228500	0.884400
C1361	C136	0.679700	0.896500	0.227900
C1371	C137	0.783400	0.361900	0.537300
C1381	C138	0.615200	0.195500	0.778000
C1391	C139	0.961700	0.690100	0.210700
C1401	C140	0.726000	0.303000	0.418400
C1411	C141	0.952300	0.216500	0.200800
C1421	C142	0.316500	0.313300	0.051100
C1431	C143	0.540500	0.352700	0.210400
C1441	C144	0.391400	0.673000	0.795300
C1451	C145	0.874100	0.730600	0.321100
C1461	C146	0.140200	0.258500	0.967600
C1471	C147	0.658800	0.560500	0.675300
C1481	C148	0.804200	0.629800	0.936600
C1491	C149	0.184500	0.746300	0.000200
C1501	C150	0.750300	0.325300	0.886300
C1511	C151	0.013200	0.171500	0.620500
C1521	C152	0.198000	0.619500	0.427200
C1531	C153	0.553100	0.383500	0.307500
C1541	C154	0.961400	0.867800	0.914000
C1551	C155	0.096000	0.727300	0.517500
C1561	C156	0.484300	0.410400	0.313900
C1571	C157	0.831800	0.204500	0.382000
C1581	C158	0.613800	0.125000	0.242900
C1591	C159	0.929100	0.968600	0.303200
C1601	C160	0.251700	0.514500	0.120600
C1611	C161	0.943000	0.883300	0.367300
C1621	C162	0.737300	0.045100	0.170800
C1631	C163	0.320300	0.103500	0.772100
C1641	C164	0.142200	0.807600	0.992500
C1651	C165	0.189200	0.934400	0.664100
C1661	C166	0.058800	0.487700	0.412100
C1671	C167	0.704000	0.413200	0.294100
C1681	C168	0.243300	0.908500	0.836300
C1691	C169	0.833800	0.307400	0.489400
C1701	C170	0.594500	0.170500	0.458100
C1711	C171	0.787600	0.295800	0.101400
C1721	C172	0.986800	0.828500	0.379500
C1731	C173	0.127400	0.759000	0.172200
C1741	C174	0.422800	0.979000	0.758400
C1751	C175	0.756700	0.091500	0.163700
C1761	C176	0.166200	0.692600	0.510600
C1771	C177	0.498500	0.042100	0.881300
C1781	C178	0.379100	0.821400	0.604600
C1791	C179	0.262700	0.954900	0.829200
C1801	C180	0.057000	0.116700	0.632700
C1811	C181	0.903600	0.027100	0.227400
C1821	C182	0.453300	0.720000	0.509800
C1831	C183	0.248300	0.369800	0.075200
C1841	C184	0.296000	0.586800	0.705900
C1851	C185	0.522400	0.605100	0.734800
C1861	C186	0.668200	0.737400	0.985800
C1871	C187	0.188000	0.736100	0.058000
C1881	C188	0.249700	0.404500	0.886200
C1891	C189	0.657300	0.374100	0.788700
C1901	C190	0.751700	0.630200	0.924800
C1911	C191	0.342700	0.625900	0.211300
C1921	C192	0.168200	0.795500	0.618000
C1931	C193	0.697500	0.945900	0.220400
C1941	C194	0.735100	0.472600	0.212400
C1951	C195	0.595300	0.572900	0.731300
C1961	C196	0.440000	0.027200	0.750300
C1971	C197	0.384800	0.804500	0.222000
C1981	C198	0.747200	0.326100	0.451500
C1991	C199	0.589200	0.256500	0.804200
C2001	C200	0.446900	0.616500	0.692500
C2011	C201	0.812000	0.263900	0.942000
C2021	C202	0.556700	0.158200	0.592100
C2031	C203	0.407100	0.051000	0.004900
C2041	C204	0.750700	0.312800	0.942300
C2051	C205	0.603000	0.553500	0.782200
C2061	C206	0.534800	0.731900	0.377900
C2071	C207	0.772700	0.569300	0.888000
C2081	C208	0.192100	0.327000	0.818800
C2091	C209	0.448400	0.777000	0.492500
C2101	C210	0.410800	0.743500	0.195800
C2111	C211	0.471200	0.839900	0.343900
C2121	C212	0.642400	0.580600	0.211100
C2131	C213	0.249700	0.674700	0.113700
C2141	C214	0.164100	0.290900	0.751100
C2151	C215	0.856200	0.017000	0.350800
C2161	C216	0.479600	0.260100	0.881700
C2171	C217	0.472900	0.986300	0.082800
C2181	C218	0.666000	0.522200	0.778600
C2191	C219	0.895800	0.807100	0.963900
C2201	C220	0.080000	0.704000	0.480100
C2211	C221	0.814600	0.284700	0.451800
C2221	C222	0.664600	0.061700	0.213900
C2231	C223	0.050300	0.023400	0.757200
C2241	C224	0.038600	0.132200	0.086000
C2251	C225	0.096400	0.972900	0.772600
C2261	C226	0.949700	0.976600	0.242800
C2271	C227	0.748300	0.485500	0.879400
C2281	C228	0.477600	0.394900	0.265200
C2291	C229	0.216600	0.638100	0.462700
C2301	C230	0.144100	0.775700	0.585100
C2311	C231	0.577200	0.021000	0.241600
C2321	C232	0.920000	0.296000	0.519900
C2331	C233	0.238800	0.250600	0.709500
C2341	C234	0.047700	0.783500	0.799200
C2351	C235	0.459500	0.647300	0.789600
C2361	C236	0.127700	0.771500	0.115600
C2371	C237	0.816300	0.357600	0.200400
C2381	C238	0.334000	0.477800	0.221400
C2391	C239	0.109100	0.291300	0.738700
C2401	C240	0.570800	0.169600	0.800400
N11	N1	0.387000	0.088100	0.759700
N21	N2	0.735000	0.715400	0.220400
N31	N3	0.390900	0.762800	0.615500
N41	N4	0.813400	0.452300	0.830200
N51	N5	0.716400	0.349100	0.730400
N61	N6	0.706300	0.151800	0.197300
N71	N7	0.939100	0.170200	0.193300
N81	N8	0.766900	0.243200	0.386000
N91	N9	0.613000	0.911900	0.240300
N101	N10	0.320900	0.357600	0.863300
N111	N11	0.679100	0.642400	0.136700
N121	N12	0.715300	0.736300	0.000300
N131	N13	0.502500	0.201400	0.851200
N141	N14	0.171900	0.763300	0.893700
N151	N15	0.284700	0.263700	0.999700
N161	N16	0.233100	0.756800	0.614000
N171	N17	0.765400	0.358700	0.258000
N181	N18	0.576600	0.925100	0.093700
N191	N19	0.165300	0.927500	0.725600
N201	N20	0.870300	0.347700	0.563100
N211	N21	0.993700	0.716700	0.278400
N221	N22	0.810800	0.289200	0.829900
N231	N23	0.792800	0.795700	0.071300
N241	N24	0.963800	0.417700	0.623000
N251	N25	0.834700	0.072500	0.274400
N261	N26	0.189200	0.710800	0.170100
N271	N27	0.006300	0.283300	0.721600
N281	N28	0.479500	0.210600	0.699900
N291	N29	0.520500	0.789400	0.300100
N301	N30	0.129700	0.652300	0.436900
N311	N31	0.283600	0.650900	0.269600
N321	N32	0.384700	0.655800	0.748400
N331	N33	0.828100	0.236700	0.106300
N341	N34	0.609100	0.237200	0.384500
N351	N35	0.730800	0.505200	0.723200
N361	N36	0.942100	0.198500	0.651800
N371	N37	0.423400	0.074900	0.906300
N381	N38	0.207200	0.204300	0.928700
N391	N39	0.265000	0.284600	0.779600
N401	N40	0.269200	0.494800	0.276800
N411	N41	0.615300	0.344200	0.251600
N421	N42	0.234600	0.641300	0.742000
N431	N43	0.057900	0.801500	0.348200
N441	N44	0.060900	0.829800	0.806700
N451	N45	0.036200	0.582300	0.377000
N461	N46	0.497500	0.798600	0.148800
N471	N47	0.186600	0.547700	0.169800
N481	N48	0.293700	0.848200	0.802700
O11	O1	0.100700	0.742500	0.356000
O21	O2	0.167800	0.605400	0.195900
O31	O3	0.788200	0.118000	0.260400
O41	O4	0.458000	0.177600	0.871700
O51	O5	0.537800	0.790100	0.239600
O61	O6	0.050300	0.615300	0.331500
O71	O7	0.247900	0.618800	0.292200
O81	O8	0.189100	0.698900	0.222600
O91	O9	0.743700	0.222100	0.358000
O101	O10	0.949700	0.384700	0.668500
O111	O11	0.312500	0.280700	0.795500
O121	O12	0.163900	0.769600	0.843900
O131	O13	0.882900	0.166800	0.240500
O141	O14	0.795700	0.469500	0.719600
O151	O15	0.397200	0.101200	0.867500
O161	O16	0.211800	0.882000	0.739600
O171	O17	0.960900	0.275300	0.711600
O181	O18	0.357600	0.758000	0.677400
O191	O19	0.219400	0.694600	0.721600
O201	O20	0.752100	0.381200	0.707800
O211	O21	0.745600	0.788100	0.124400
O221	O22	0.698100	0.783000	0.039500
O231	O23	0.832200	0.394600	0.804100
O241	O24	0.272500	0.804100	0.809700
O251	O25	0.337300	0.305000	0.889100
O261	O26	0.662700	0.695000	0.110900
O271	O27	0.680700	0.323500	0.244300
O281	O28	0.114400	0.630300	0.399500
O291	O29	0.039100	0.724700	0.288400
O301	O30	0.836100	0.230400	0.156100
O311	O31	0.899300	0.257500	0.644000
O321	O32	0.687500	0.719300	0.204500
O331	O33	0.204300	0.530500	0.280400
O341	O34	0.256300	0.777900	0.642000
O351	O35	0.780600	0.305400	0.278400
O361	O36	0.885600	0.369700	0.600500
O371	O37	0.301900	0.217000	0.960500
O381	O38	0.542000	0.822400	0.128300
O391	O39	0.601300	0.862700	0.241700
O401	O40	0.602800	0.898800	0.132500
O411	O41	0.642400	0.242000	0.322600
O421	O42	0.810900	0.301100	0.777400
O431	O43	0.398700	0.137300	0.758300
O441	O44	0.254400	0.211900	0.875600
O451	O45	0.462200	0.209900	0.760400
O461	O46	0.727500	0.195900	0.190300
O471	O47	0.319300	0.676500	0.755700
O481	O48	0.117100	0.833200	0.759500
C2411	C241	0.872000	0.415600	0.972500
S11	S1	0.943400	0.371300	0.993300
O491	O49	0.008400	0.345100	0.934000
O501	O50	0.921600	0.327900	0.029200
O511	O51	0.932500	0.419300	0.033800
F11	F1	0.886100	0.448300	0.935500
F21	F2	0.875900	0.374400	0.935500
F31	F3	0.806300	0.441100	0.021300
C2421	C242	0.128000	0.584400	0.027500
S21	S2	0.056600	0.628700	0.006700
O521	O52	0.078400	0.672100	0.970800
O531	O53	0.067500	0.580700	0.966200
O541	O54	0.991600	0.654900	0.066000
F41	F4	0.113900	0.551700	0.064500
F51	F5	0.124100	0.625600	0.064500
F61	F6	0.193700	0.558900	0.978700
