data_BIZMEE_freeONLY_PM
_symmetry_space_group_name_H-M	'P1'
_cell_length_a	24.030000
_cell_length_b	24.134800
_cell_length_c	24.392200
_cell_angle_alpha	85.032000
_cell_angle_beta	61.325000
_cell_angle_gamma	61.265000
_symmetry_Int_Tables_number 1

loop_
_symmetry_equiv_pos_as_xyz
'x,y,z'

loop_
_atom_site_label
_atom_site_type_symbol
_atom_site_fract_x
_atom_site_fract_y
_atom_site_fract_z
Ho11	Ho1	0.360890	0.846890	0.201560
O11	O1	0.251700	0.874500	0.206600
O21	O2	0.295700	0.960900	0.221800
O31	O3	0.380500	0.870900	0.099500
O41	O4	0.450900	0.875500	0.164300
O51	O5	0.399800	0.753900	0.137200
O61	O6	0.339600	0.882400	0.299100
O71	O7	0.460400	0.764000	0.208600
O81	O8	0.308300	0.792400	0.275500
N11	N1	0.212200	0.846100	0.230700
N21	N2	0.230300	0.998400	0.224600
N31	N3	0.364100	0.850300	0.063300
N41	N4	0.463800	0.910000	0.119200
N51	N5	0.445300	0.693400	0.139400
C11	C1	0.231300	0.792600	0.196700
C21	C2	0.152800	0.871000	0.289700
C31	C3	0.229800	0.018100	0.171000
C41	C4	0.170100	0.015900	0.278800
C51	C5	0.296700	0.879500	0.072900
C61	C6	0.418700	0.799200	0.015500
C71	C7	0.425300	0.974300	0.135400
C81	C8	0.515900	0.879600	0.059600
C91	C9	0.415400	0.663000	0.181600
C101	C10	0.516900	0.669200	0.103400
H11	H1	0.274500	0.774400	0.156000
C111	C11	0.188800	0.764000	0.220400
C121	C12	0.110100	0.843800	0.316100
H21	H2	0.140700	0.908300	0.313200
H31	H3	0.274600	0.007700	0.133100
C131	C13	0.165700	0.052500	0.171300
C141	C14	0.101100	0.053700	0.283200
H41	H4	0.172800	0.003200	0.315800
H51	H5	0.259700	0.916300	0.105800
C151	C15	0.278500	0.859200	0.037800
C161	C16	0.403100	0.775700	0.978400
H61	H6	0.467600	0.779600	0.007600
H71	H7	0.389500	0.994900	0.178400
C171	C17	0.439100	0.010500	0.087500
C181	C18	0.530300	0.915200	0.011700
H81	H8	0.543100	0.833900	0.049700
H91	H9	0.363700	0.680900	0.205100
C191	C19	0.461100	0.605100	0.190400
C201	C20	0.565700	0.611100	0.108800
H101	H10	0.535100	0.692400	0.073100
H111	H11	0.201200	0.728100	0.194700
C211	C21	0.127300	0.787100	0.282200
H121	H12	0.068300	0.862600	0.357600
H131	H13	0.166400	0.063700	0.132700
C221	C22	0.097500	0.072400	0.227900
H141	H14	0.057400	0.066600	0.323000
H151	H15	0.229100	0.881700	0.046800
C231	C23	0.329700	0.806500	0.989000
H161	H16	0.441100	0.738900	0.945700
H171	H17	0.412200	0.056100	0.098400
C241	C24	0.492100	0.980600	0.023400
H181	H18	0.568200	0.893000	0.969500
H191	H19	0.440800	0.582200	0.219500
C251	C25	0.538400	0.579300	0.156200
H201	H20	0.617000	0.592900	0.080900
C261	C26	0.080100	0.758700	0.309900
C271	C27	0.027700	0.104400	0.228800
C281	C28	0.309100	0.781400	0.953600
C291	C29	0.588600	0.522400	0.171100
C301	C30	0.099600	0.699900	0.286000
C311	C31	0.011100	0.791400	0.364700
C321	C32	0.018000	0.090300	0.183000
C331	C33	0.964900	0.150900	0.284300
C341	C34	0.242000	0.820100	0.955900
C351	C35	0.353500	0.719700	0.915000
C361	C36	0.657100	0.479300	0.126300
C371	C37	0.569200	0.518300	0.236000
C381	C38	0.052100	0.676300	0.311200
H211	H21	0.147400	0.674000	0.250900
H221	H22	0.996700	0.831900	0.384500
C391	C39	0.963500	0.769000	0.391400
C401	C40	0.949500	0.116000	0.190700
H231	H23	0.059600	0.062000	0.144400
H241	H24	0.969800	0.163700	0.316800
C411	C41	0.897500	0.176700	0.289300
C421	C42	0.220200	0.796300	0.924100
H251	H25	0.210900	0.862900	0.979200
H261	H26	0.400800	0.692100	0.910000
C431	C43	0.330300	0.699300	0.885300
C441	C44	0.704500	0.430200	0.143200
H271	H27	0.673300	0.482400	0.082700
H281	H28	0.522700	0.549600	0.269300
C451	C45	0.616600	0.470700	0.249400
N61	N6	0.985400	0.709900	0.363000
H291	H29	0.066800	0.635600	0.291800
H301	H30	0.916800	0.793200	0.428300
N71	N7	0.890200	0.157700	0.243900
H311	H31	0.943900	0.104300	0.158200
H321	H32	0.855200	0.208500	0.325300
N81	N8	0.263900	0.736000	0.891000
H331	H33	0.174300	0.822900	0.926000
H341	H34	0.361800	0.657600	0.859400
N91	N9	0.683700	0.427000	0.204000
H351	H35	0.752000	0.398800	0.111100
H361	H36	0.602300	0.467400	0.292700
O91	O9	0.940000	0.687400	0.385500
O101	O10	0.824300	0.180000	0.251200
O111	O11	0.239100	0.715200	0.865000
O121	O12	0.731900	0.383000	0.219200
Ho21	Ho2	0.847060	0.716970	0.359330
Ho31	Ho3	0.746640	0.279970	0.236230
O131	O13	0.878100	0.614300	0.382600
O141	O14	0.778200	0.735000	0.473500
O151	O15	0.791100	0.793400	0.308000
O161	O16	0.821700	0.817700	0.396700
O171	O17	0.743500	0.711600	0.384800
O181	O18	0.943200	0.722200	0.274100
O191	O19	0.882600	0.653100	0.267800
O201	O20	0.722200	0.202800	0.214700
O211	O21	0.774800	0.310100	0.304400
O221	O22	0.669200	0.274400	0.338500
O231	O23	0.624800	0.344700	0.254800
O241	O24	0.867700	0.259700	0.170900
N101	N10	0.910800	0.584900	0.415500
N111	N11	0.761200	0.783900	0.511100
N121	N12	0.744300	0.793100	0.292100
N131	N13	0.806600	0.869500	0.371700
N141	N14	0.698200	0.702200	0.437500
N151	N15	0.962900	0.721200	0.212000
N161	N16	0.733600	0.148800	0.239400
N171	N17	0.792700	0.355400	0.299400
N181	N18	0.678600	0.266200	0.387500
N191	N19	0.566100	0.342900	0.302300
N201	N20	0.102600	0.735100	0.889500
C461	C46	0.984200	0.543000	0.384200
C471	C47	0.871200	0.594200	0.480100
C481	C48	0.808800	0.780600	0.528600
C491	C49	0.695900	0.836600	0.534800
C501	C50	0.671000	0.827800	0.333200
C511	C51	0.773400	0.760200	0.232800
C521	C52	0.862600	0.877000	0.322900
C531	C53	0.739700	0.914400	0.390400
C541	C54	0.634000	0.751500	0.480800
C551	C55	0.717100	0.639700	0.449500
C561	C56	0.928100	0.773200	0.191500
C571	C57	0.019400	0.664600	0.168900
C581	C58	0.681800	0.150200	0.297700
C591	C59	0.796500	0.092900	0.203300
C601	C60	0.862500	0.340200	0.260900
C611	C61	0.739500	0.414900	0.331200
C621	C62	0.722100	0.205500	0.394500
C631	C63	0.643200	0.317200	0.434300
C641	C64	0.552600	0.298100	0.290800
C651	C65	0.526600	0.381700	0.358100
C661	C66	0.107100	0.677700	0.905100
C671	C67	0.071700	0.784200	0.934300
H371	H37	0.011100	0.536800	0.339100
C681	C68	0.018600	0.511000	0.414600
C691	C69	0.906900	0.561800	0.512700
H381	H38	0.819700	0.622700	0.502300
H391	H39	0.853500	0.741500	0.516700
C701	C70	0.793600	0.829900	0.560900
C711	C71	0.680400	0.887200	0.569300
H401	H40	0.659900	0.838500	0.527200
H411	H41	0.651900	0.851800	0.373000
C721	C72	0.625300	0.826700	0.314800
C731	C73	0.726700	0.758400	0.217100
H421	H42	0.824600	0.739300	0.203600
H431	H43	0.912200	0.844100	0.307500
C741	C74	0.847500	0.930800	0.296600
C751	C75	0.720200	0.970500	0.365200
H441	H44	0.701400	0.909000	0.423600
H451	H45	0.623100	0.794100	0.474100
C761	C76	0.583700	0.743400	0.534200
C771	C77	0.669100	0.629600	0.500000
H461	H46	0.764200	0.604500	0.421500
H471	H47	0.885500	0.810300	0.221800
C781	C78	0.952000	0.773900	0.130100
C791	C79	0.045300	0.662900	0.106200
H481	H48	0.040000	0.626400	0.183800
H491	H49	0.636800	0.189200	0.321200
C801	C80	0.694800	0.095100	0.322300
C811	C81	0.809000	0.037200	0.227300
H501	H50	0.831400	0.092400	0.161900
H511	H51	0.898500	0.296900	0.239800
C821	C82	0.883600	0.386200	0.251300
C831	C83	0.756900	0.462300	0.326800
H521	H52	0.690000	0.424500	0.356600
H531	H53	0.749600	0.169300	0.361600
C841	C84	0.724800	0.198500	0.450700
C851	C85	0.648200	0.311000	0.488000
H541	H54	0.613800	0.358800	0.429300
H551	H55	0.581500	0.270500	0.250600
C861	C86	0.493500	0.294900	0.341600
C871	C87	0.468900	0.376700	0.407600
H561	H56	0.537800	0.412700	0.364200
H571	H57	0.130500	0.642400	0.872500
C881	C88	0.078400	0.671300	0.966600
C891	C89	0.040600	0.779600	0.997700
H581	H58	0.070900	0.823100	0.922700
H591	H59	0.070100	0.482500	0.391300
C901	C90	0.980000	0.518000	0.482700
H601	H60	0.879600	0.570200	0.557800
H611	H61	0.828400	0.827000	0.570800
C911	C91	0.727700	0.887400	0.581800
H621	H62	0.633200	0.924500	0.585500
H631	H63	0.573800	0.851900	0.342300
C921	C92	0.651700	0.790100	0.257100
H641	H64	0.746800	0.734300	0.177000
H651	H65	0.886700	0.935200	0.263400
C931	C93	0.777000	0.978200	0.317300
H661	H66	0.670200	0.002000	0.380000
H671	H67	0.538100	0.779400	0.563100
C941	C94	0.600400	0.681400	0.545300
H681	H68	0.681000	0.586700	0.506000
H691	H69	0.927200	0.811900	0.117100
C951	C95	0.012600	0.720100	0.084500
H701	H70	0.084900	0.624200	0.076700
H711	H71	0.658800	0.096300	0.363400
C961	C96	0.759400	0.037500	0.288500
H721	H72	0.852200	0.997900	0.201700
H731	H73	0.932800	0.375600	0.222100
C971	C97	0.829700	0.449100	0.286000
H741	H74	0.719800	0.504200	0.351400
H751	H75	0.750400	0.156400	0.457300
C981	C98	0.692300	0.249500	0.496000
H761	H76	0.622300	0.347800	0.519900
H771	H77	0.481600	0.265100	0.334100
C991	C99	0.452600	0.330500	0.400000
H781	H78	0.440000	0.405200	0.447300
H791	H79	0.081300	0.631600	0.977500
C1001	C100	0.043200	0.725300	0.015800
H801	H80	0.016900	0.816100	0.029200
C1011	C101	0.709700	0.947900	0.617800
C1021	C102	0.600300	0.785300	0.244200
C1031	C103	0.845500	0.501500	0.278800
C1041	C104	0.693100	0.240100	0.556400
C1051	C105	0.641600	0.987300	0.668800
C1061	C106	0.763200	0.967600	0.595400
C1071	C107	0.619700	0.765500	0.182700
C1081	C108	0.534600	0.796600	0.291700
C1091	C109	0.912900	0.493100	0.265100
C1101	C110	0.792600	0.564600	0.285000
C1111	C111	0.633600	0.282800	0.614400
C1121	C112	0.751500	0.187600	0.559900
C1131	C113	0.624800	0.044400	0.697200
H811	H81	0.605300	0.975000	0.685000
H821	H82	0.811500	0.940900	0.561200
C1141	C114	0.744000	0.025000	0.623600
C1151	C115	0.570400	0.760500	0.171100
H831	H83	0.666800	0.755300	0.148300
H841	H84	0.521200	0.809300	0.334000
C1161	C116	0.483800	0.790400	0.281800
C1171	C117	0.926200	0.543100	0.260700
H851	H85	0.951400	0.450700	0.258400
H861	H86	0.746600	0.573300	0.291700
C1181	C118	0.806100	0.613000	0.281500
C1191	C119	0.634900	0.270600	0.669900
H871	H87	0.592900	0.319800	0.614900
H881	H88	0.793100	0.158000	0.522200
C1201	C120	0.749700	0.178300	0.616200
N211	N21	0.677800	0.060700	0.674100
H891	H89	0.577300	0.071800	0.732000
H901	H90	0.778200	0.039700	0.607100
N221	N22	0.506200	0.771200	0.220100
H911	H91	0.582600	0.749600	0.128800
H921	H92	0.437200	0.799000	0.316000
N231	N23	0.871800	0.603000	0.269800
H931	H93	0.972700	0.535500	0.251600
H941	H94	0.768500	0.655700	0.287400
N241	N24	0.692000	0.219700	0.670500
H951	H95	0.594200	0.299000	0.708800
H961	H96	0.789700	0.142100	0.617300
Ho41	Ho4	0.639110	0.153110	0.798440
O251	O25	0.748300	0.125500	0.793400
O261	O26	0.704300	0.039100	0.778200
O271	O27	0.619500	0.129100	0.900500
O281	O28	0.549100	0.124500	0.835700
O291	O29	0.600200	0.246100	0.862800
O301	O30	0.660400	0.117600	0.700900
O311	O31	0.539600	0.236000	0.791400
O321	O32	0.691700	0.207600	0.724500
N251	N25	0.787800	0.153900	0.769300
N261	N26	0.769700	0.001600	0.775400
N271	N27	0.635900	0.149700	0.936700
N281	N28	0.536200	0.090000	0.880800
N291	N29	0.554700	0.306600	0.860600
C1211	C121	0.768700	0.207400	0.803300
C1221	C122	0.847200	0.129000	0.710300
C1231	C123	0.770200	0.981900	0.829000
C1241	C124	0.829900	0.984100	0.721200
C1251	C125	0.703300	0.120500	0.927100
C1261	C126	0.581300	0.200800	0.984500
C1271	C127	0.574700	0.025700	0.864600
C1281	C128	0.484100	0.120400	0.940400
C1291	C129	0.584600	0.337000	0.818400
C1301	C130	0.483100	0.330800	0.896600
H971	H97	0.725500	0.225600	0.844000
C1311	C131	0.811200	0.236000	0.779600
C1321	C132	0.889900	0.156200	0.683900
H981	H98	0.859300	0.091700	0.686800
H991	H99	0.725400	0.992300	0.866900
C1331	C133	0.834300	0.947500	0.828700
C1341	C134	0.898900	0.946300	0.716800
H1001	H100	0.827200	0.996800	0.684200
H1011	H101	0.740300	0.083700	0.894200
C1351	C135	0.721500	0.140800	0.962200
C1361	C136	0.596900	0.224300	0.021600
H1021	H102	0.532400	0.220400	0.992400
H1031	H103	0.610500	0.005100	0.821600
C1371	C137	0.560900	0.989500	0.912500
C1381	C138	0.469700	0.084800	0.988300
H1041	H104	0.456900	0.166100	0.950300
H1051	H105	0.636300	0.319100	0.794900
C1391	C139	0.538900	0.394900	0.809600
C1401	C140	0.434300	0.388900	0.891200
H1061	H106	0.464900	0.307600	0.926900
H1071	H107	0.798800	0.271900	0.805300
C1411	C141	0.872700	0.212900	0.717800
H1081	H108	0.931700	0.137400	0.642400
H1091	H109	0.833600	0.936300	0.867300
C1421	C142	0.902500	0.927600	0.772100
H1101	H110	0.942600	0.933400	0.677000
H1111	H111	0.770900	0.118300	0.953200
C1431	C143	0.670300	0.193500	0.011000
H1121	H112	0.558900	0.261100	0.054300
H1131	H113	0.587800	0.943900	0.901600
C1441	C144	0.507900	0.019400	0.976600
H1141	H114	0.431800	0.107000	0.030500
H1151	H115	0.559200	0.417800	0.780500
C1451	C145	0.461600	0.420700	0.843800
H1161	H116	0.383000	0.407100	0.919100
C1461	C146	0.919900	0.241300	0.690100
C1471	C147	0.972300	0.895600	0.771200
C1481	C148	0.690900	0.218600	0.046400
C1491	C149	0.411400	0.477600	0.828900
C1501	C150	0.900400	0.300100	0.714000
C1511	C151	0.988900	0.208600	0.635300
C1521	C152	0.982000	0.909700	0.817000
C1531	C153	0.035100	0.849100	0.715700
C1541	C154	0.758000	0.179900	0.044100
C1551	C155	0.646500	0.280300	0.085000
C1561	C156	0.342900	0.520700	0.873700
C1571	C157	0.430800	0.481700	0.764000
C1581	C158	0.947900	0.323700	0.688800
H1171	H117	0.852600	0.326000	0.749100
H1181	H118	0.003300	0.168100	0.615500
C1591	C159	0.036500	0.231000	0.608600
C1601	C160	0.050500	0.884000	0.809300
H1191	H119	0.940400	0.938000	0.855600
H1201	H120	0.030200	0.836300	0.683200
C1611	C161	0.102500	0.823300	0.710700
C1621	C162	0.779800	0.203700	0.075900
H1211	H121	0.789100	0.137100	0.020800
H1221	H122	0.599200	0.307900	0.090000
C1631	C163	0.669700	0.300700	0.114700
C1641	C164	0.295500	0.569800	0.856800
H1231	H123	0.326700	0.517600	0.917300
H1241	H124	0.477300	0.450400	0.730700
C1651	C165	0.383400	0.529300	0.750600
N301	N30	0.014600	0.290100	0.637000
H1251	H125	0.933200	0.364400	0.708200
H1261	H126	0.083200	0.206800	0.571700
N311	N31	0.109800	0.842300	0.756100
H1271	H127	0.056100	0.895700	0.841800
H1281	H128	0.144800	0.791500	0.674700
N321	N32	0.736100	0.264000	0.109000
H1291	H129	0.825700	0.177100	0.074000
H1301	H130	0.638200	0.342400	0.140600
N331	N33	0.316300	0.573000	0.796000
H1311	H131	0.248000	0.601200	0.888900
H1321	H132	0.397700	0.532600	0.707300
O331	O33	0.060000	0.312600	0.614500
O341	O34	0.175700	0.820000	0.748800
O351	O35	0.760900	0.284800	0.135000
O361	O36	0.268100	0.617000	0.780800
Ho51	Ho5	0.152940	0.283030	0.640670
Ho61	Ho6	0.253360	0.720030	0.763770
O371	O37	0.121900	0.385700	0.617400
O381	O38	0.221800	0.265000	0.526500
O391	O39	0.208900	0.206600	0.692000
O401	O40	0.178300	0.182300	0.603300
O411	O41	0.256500	0.288400	0.615200
O421	O42	0.056800	0.277800	0.725900
O431	O43	0.117400	0.346900	0.732200
O441	O44	0.277800	0.797200	0.785300
O451	O45	0.225200	0.689900	0.695600
O461	O46	0.330800	0.725600	0.661500
O471	O47	0.375200	0.655300	0.745200
O481	O48	0.132300	0.740300	0.829100
N341	N34	0.089200	0.415100	0.584500
N351	N35	0.238800	0.216100	0.488900
N361	N36	0.255700	0.206900	0.707900
N371	N37	0.193400	0.130500	0.628300
N381	N38	0.301800	0.297800	0.562500
N391	N39	0.037100	0.278800	0.788000
N401	N40	0.266400	0.851200	0.760600
N411	N41	0.207300	0.644600	0.700600
N421	N42	0.321400	0.733800	0.612500
N431	N43	0.433900	0.657100	0.697700
N441	N44	0.897400	0.264900	0.110500
C1661	C166	0.015800	0.457000	0.615800
C1671	C167	0.128800	0.405800	0.519900
C1681	C168	0.191200	0.219400	0.471400
C1691	C169	0.304100	0.163400	0.465200
C1701	C170	0.329000	0.172200	0.666800
C1711	C171	0.226600	0.239800	0.767200
C1721	C172	0.137400	0.123000	0.677100
C1731	C173	0.260300	0.085600	0.609600
C1741	C174	0.366000	0.248500	0.519200
C1751	C175	0.282900	0.360300	0.550500
C1761	C176	0.071900	0.226800	0.808500
C1771	C177	0.980600	0.335400	0.831100
C1781	C178	0.318200	0.849800	0.702300
C1791	C179	0.203500	0.907100	0.796700
C1801	C180	0.137500	0.659800	0.739100
C1811	C181	0.260500	0.585100	0.668800
C1821	C182	0.277900	0.794500	0.605500
C1831	C183	0.356800	0.682800	0.565700
C1841	C184	0.447400	0.701900	0.709200
C1851	C185	0.473400	0.618300	0.641900
C1861	C186	0.892900	0.322300	0.094900
C1871	C187	0.928300	0.215800	0.065700
H1331	H133	0.988900	0.463200	0.660900
C1881	C188	0.981400	0.489000	0.585400
C1891	C189	0.093100	0.438200	0.487300
H1341	H134	0.180300	0.377300	0.497700
H1351	H135	0.146500	0.258500	0.483300
C1901	C190	0.206400	0.170100	0.439100
C1911	C191	0.319600	0.112800	0.430700
H1361	H136	0.340100	0.161500	0.472800
H1371	H137	0.348100	0.148200	0.627000
C1921	C192	0.374700	0.173300	0.685200
C1931	C193	0.273300	0.241600	0.782900
H1381	H138	0.175400	0.260700	0.796400
H1391	H139	0.087800	0.155900	0.692500
C1941	C194	0.152500	0.069200	0.703400
C1951	C195	0.279800	0.029500	0.634800
H1401	H140	0.298600	0.091000	0.576400
H1411	H141	0.376900	0.205900	0.525900
C1961	C196	0.416300	0.256600	0.465800
C1971	C197	0.330900	0.370400	0.500000
H1421	H142	0.235800	0.395500	0.578500
H1431	H143	0.114500	0.189700	0.778200
C1981	C198	0.048000	0.226100	0.869900
C1991	C199	0.954700	0.337100	0.893800
H1441	H144	0.960000	0.373600	0.816200
H1451	H145	0.363200	0.810800	0.678800
C2001	C200	0.305200	0.904900	0.677700
C2011	C201	0.191000	0.962800	0.772700
H1461	H146	0.168600	0.907600	0.838100
H1471	H147	0.101500	0.703100	0.760200
C2021	C202	0.116400	0.613800	0.748700
C2031	C203	0.243100	0.537700	0.673200
H1481	H148	0.310000	0.575500	0.643400
H1491	H149	0.250400	0.830700	0.638400
C2041	C204	0.275200	0.801500	0.549300
C2051	C205	0.351800	0.689000	0.512000
H1501	H150	0.386200	0.641200	0.570700
H1511	H151	0.418500	0.729500	0.749400
C2061	C206	0.506500	0.705100	0.658400
C2071	C207	0.531100	0.623300	0.592400
H1521	H152	0.462200	0.587300	0.635800
H1531	H153	0.869500	0.357600	0.127500
C2081	C208	0.921600	0.328700	0.033400
C2091	C209	0.959400	0.220400	0.002300
H1541	H154	0.929100	0.176900	0.077300
H1551	H155	0.929900	0.517500	0.608700
C2101	C210	0.020000	0.482000	0.517300
H1561	H156	0.120400	0.429800	0.442200
H1571	H157	0.171600	0.173000	0.429200
C2111	C211	0.272300	0.112600	0.418200
H1581	H158	0.366800	0.075500	0.414500
H1591	H159	0.426200	0.148100	0.657700
C2121	C212	0.348300	0.209900	0.742900
H1601	H160	0.253200	0.265700	0.823000
H1611	H161	0.113300	0.064800	0.736600
C2131	C213	0.223000	0.021800	0.682700
H1621	H162	0.329800	0.998000	0.620000
H1631	H163	0.461900	0.220600	0.436900
C2141	C214	0.399600	0.318600	0.454700
H1641	H164	0.319000	0.413300	0.494000
H1651	H165	0.072800	0.188100	0.882900
C2151	C215	0.987400	0.279900	0.915500
H1661	H166	0.915100	0.375800	0.923300
H1671	H167	0.341200	0.903700	0.636600
C2161	C216	0.240600	0.962500	0.711500
H1681	H168	0.147800	0.002100	0.798300
H1691	H169	0.067200	0.624400	0.777900
C2171	C217	0.170300	0.550900	0.714000
H1701	H170	0.280200	0.495800	0.648600
H1711	H171	0.249600	0.843600	0.542700
C2181	C218	0.307700	0.750500	0.504000
H1721	H172	0.377700	0.652200	0.480100
H1731	H173	0.518400	0.734900	0.665900
C2191	C219	0.547400	0.669500	0.600000
H1741	H174	0.560000	0.594800	0.552700
H1751	H175	0.918700	0.368400	0.022500
C2201	C220	0.956800	0.274700	0.984200
H1761	H176	0.983100	0.183900	0.970800
C2211	C221	0.290300	0.052100	0.382200
C2221	C222	0.399700	0.214700	0.755800
C2231	C223	0.154500	0.498500	0.721200
C2241	C224	0.306900	0.759900	0.443600
C2251	C225	0.358400	0.012700	0.331200
C2261	C226	0.236800	0.032400	0.404600
C2271	C227	0.380300	0.234500	0.817300
C2281	C228	0.465400	0.203400	0.708300
C2291	C229	0.087100	0.506900	0.734900
C2301	C230	0.207400	0.435400	0.715000
C2311	C231	0.366400	0.717200	0.385600
C2321	C232	0.248500	0.812400	0.440100
C2331	C233	0.375200	0.955600	0.302800
H1771	H177	0.394700	0.025000	0.315000
H1781	H178	0.188500	0.059100	0.438800
C2341	C234	0.256000	0.975000	0.376400
C2351	C235	0.429600	0.239500	0.828900
H1791	H179	0.333200	0.244700	0.851700
H1801	H180	0.478800	0.190700	0.666000
C2361	C236	0.516200	0.209600	0.718200
C2371	C237	0.073800	0.456900	0.739300
H1811	H181	0.048600	0.549300	0.741600
H1821	H182	0.253400	0.426700	0.708300
C2381	C238	0.193900	0.387000	0.718500
C2391	C239	0.365100	0.729400	0.330100
H1831	H183	0.407100	0.680200	0.385100
H1841	H184	0.206900	0.842000	0.477800
C2401	C240	0.250300	0.821700	0.383800
N451	N45	0.322200	0.939300	0.325900
H1851	H185	0.422700	0.928200	0.268000
H1861	H186	0.221800	0.960300	0.392900
N461	N46	0.493800	0.228800	0.779900
H1871	H187	0.417400	0.250400	0.871200
H1881	H188	0.562800	0.201000	0.684000
N471	N47	0.128200	0.397000	0.730200
H1891	H189	0.027300	0.464500	0.748400
H1901	H190	0.231500	0.344300	0.712600
N481	N48	0.308000	0.780300	0.329500
H1911	H191	0.405800	0.701000	0.291200
H1921	H192	0.210300	0.857900	0.382700
