data_BOCTEU01_freeONLY_PM
_symmetry_space_group_name_H-M	'P1'
_cell_length_a	12.149100
_cell_length_b	12.284000
_cell_length_c	12.216000
_cell_angle_alpha	90.000000
_cell_angle_beta	90.000000
_cell_angle_gamma	90.000000
_symmetry_Int_Tables_number 1

loop_
_symmetry_equiv_pos_as_xyz
'x,y,z'

loop_
_atom_site_label
_atom_site_type_symbol
_atom_site_fract_x
_atom_site_fract_y
_atom_site_fract_z
N11	N1	0.318500	0.317500	0.186000
N21	N2	0.818500	0.817500	0.186000
N31	N3	0.681500	0.182500	0.686000
N41	N4	0.181500	0.682500	0.686000
N51	N5	0.681500	0.817500	0.314000
N61	N6	0.181500	0.317500	0.314000
N71	N7	0.318500	0.682500	0.814000
N81	N8	0.818500	0.182500	0.814000
N91	N9	0.681500	0.682500	0.814000
N101	N10	0.181500	0.182500	0.814000
N111	N11	0.318500	0.817500	0.314000
N121	N12	0.818500	0.317500	0.314000
N131	N13	0.318500	0.182500	0.686000
N141	N14	0.818500	0.682500	0.686000
N151	N15	0.681500	0.317500	0.186000
N161	N16	0.181500	0.817500	0.186000
Mn11	Mn1	0.500000	0.307940	0.194560
N171	N17	0.500000	0.329100	0.375200
N181	N18	0.500000	0.265400	0.445500
N191	N19	0.500000	0.201000	0.514700
N201	N20	0.500000	0.486700	0.170100
N211	N21	0.500000	0.559300	0.230200
N221	N22	0.500000	0.630900	0.289500
Mn21	Mn2	0.000000	0.807940	0.194560
N231	N23	0.000000	0.829100	0.375200
N241	N24	0.000000	0.765400	0.445500
N251	N25	0.000000	0.701000	0.514700
N261	N26	0.000000	0.986700	0.170100
N271	N27	0.000000	0.059300	0.230200
N281	N28	0.000000	0.130900	0.289500
Mn31	Mn3	0.500000	0.192060	0.694560
N291	N29	0.500000	0.170900	0.875200
N301	N30	0.500000	0.234600	0.945500
N311	N31	0.500000	0.299000	0.014700
N321	N32	0.500000	0.013300	0.670100
N331	N33	0.500000	0.940700	0.730200
N341	N34	0.500000	0.869100	0.789500
Mn41	Mn4	0.000000	0.692060	0.694560
N351	N35	0.000000	0.670900	0.875200
N361	N36	0.000000	0.734600	0.945500
N371	N37	0.000000	0.799000	0.014700
N381	N38	0.000000	0.513300	0.670100
N391	N39	0.000000	0.440700	0.730200
N401	N40	0.000000	0.369100	0.789500
Mn51	Mn5	0.500000	0.807940	0.305440
N411	N41	0.500000	0.829100	0.124800
N421	N42	0.500000	0.765400	0.054500
N431	N43	0.500000	0.701000	0.985300
N441	N44	0.500000	0.986700	0.329900
N451	N45	0.500000	0.059300	0.269800
N461	N46	0.500000	0.130900	0.210500
Mn61	Mn6	0.000000	0.307940	0.305440
N471	N47	0.000000	0.329100	0.124800
N481	N48	0.000000	0.265400	0.054500
N491	N49	0.000000	0.201000	0.985300
N501	N50	0.000000	0.486700	0.329900
N511	N51	0.000000	0.559300	0.269800
N521	N52	0.000000	0.630900	0.210500
Mn71	Mn7	0.500000	0.692060	0.805440
N531	N53	0.500000	0.670900	0.624800
N541	N54	0.500000	0.734600	0.554500
N551	N55	0.500000	0.799000	0.485300
N561	N56	0.500000	0.513300	0.829900
N571	N57	0.500000	0.440700	0.769800
N581	N58	0.500000	0.369100	0.710500
Mn81	Mn8	0.000000	0.192060	0.805440
N591	N59	0.000000	0.170900	0.624800
N601	N60	0.000000	0.234600	0.554500
N611	N61	0.000000	0.299000	0.485300
N621	N62	0.000000	0.013300	0.829900
N631	N63	0.000000	0.940700	0.769800
N641	N64	0.000000	0.869100	0.710500
N651	N65	0.250000	0.316500	0.250000
N661	N66	0.750000	0.183500	0.750000
N671	N67	0.750000	0.816500	0.250000
N681	N68	0.250000	0.683500	0.750000
N691	N69	0.750000	0.683500	0.750000
N701	N70	0.250000	0.816500	0.250000
N711	N71	0.250000	0.183500	0.750000
N721	N72	0.750000	0.316500	0.250000
