data_BOCTOE_freeONLY_PM
_symmetry_space_group_name_H-M	'P1'
_cell_length_a	8.413600
_cell_length_b	9.247400
_cell_length_c	12.807400
_cell_angle_alpha	90.000000
_cell_angle_beta	105.969000
_cell_angle_gamma	90.000000
_symmetry_Int_Tables_number 1

loop_
_symmetry_equiv_pos_as_xyz
'x,y,z'

loop_
_atom_site_label
_atom_site_type_symbol
_atom_site_fract_x
_atom_site_fract_y
_atom_site_fract_z
Mn11	Mn1	0.256960	0.748360	0.010370
N11	N1	0.326120	0.798870	0.188290
N21	N2	0.269140	0.801730	0.262010
N31	N3	0.212300	0.808150	0.335640
N41	N4	0.041940	0.620590	0.017880
N51	N5	0.107130	0.947090	0.971020
N61	N6	0.481790	0.874580	0.006320
N71	N7	0.428670	0.558360	0.055090
Mn21	Mn2	0.743040	0.248360	0.489630
N81	N8	0.673880	0.298870	0.311710
N91	N9	0.730860	0.301730	0.237990
N101	N10	0.787700	0.308150	0.164360
N111	N11	0.958060	0.120590	0.482120
N121	N12	0.892870	0.447090	0.528980
N131	N13	0.518210	0.374580	0.493680
N141	N14	0.571330	0.058360	0.444910
Mn31	Mn3	0.743040	0.251640	0.989630
N151	N15	0.673880	0.201130	0.811710
N161	N16	0.730860	0.198270	0.737990
N171	N17	0.787700	0.191850	0.664360
N181	N18	0.958060	0.379410	0.982120
N191	N19	0.892870	0.052910	0.028980
N201	N20	0.518210	0.125420	0.993680
N211	N21	0.571330	0.441640	0.944910
Mn41	Mn4	0.256960	0.751640	0.510370
N221	N22	0.326120	0.701130	0.688290
N231	N23	0.269140	0.698270	0.762010
N241	N24	0.212300	0.691850	0.835640
N251	N25	0.041940	0.879410	0.517880
N261	N26	0.107130	0.552910	0.471020
N271	N27	0.481790	0.625420	0.506320
N281	N28	0.428670	0.941640	0.555090
N291	N29	0.000000	0.500000	0.000000
N301	N30	0.000000	0.000000	0.500000
N311	N31	0.000000	0.000000	0.000000
N321	N32	0.000000	0.500000	0.500000
N331	N33	0.500000	0.000000	0.000000
N341	N34	0.500000	0.500000	0.500000
N351	N35	0.500000	0.500000	0.000000
N361	N36	0.500000	0.000000	0.500000
