data_BOKQEZ_freeONLY_PM
_symmetry_space_group_name_H-M	'P1'
_cell_length_a	15.242900
_cell_length_b	15.242900
_cell_length_c	20.689400
_cell_angle_alpha	68.384500
_cell_angle_beta	68.384500
_cell_angle_gamma	60.000000
_symmetry_Int_Tables_number 1

loop_
_symmetry_equiv_pos_as_xyz
'x,y,z'

loop_
_atom_site_label
_atom_site_type_symbol
_atom_site_fract_x
_atom_site_fract_y
_atom_site_fract_z
Mn11	Mn1	0.376950	0.383120	0.254690
Mn21	Mn2	0.383120	0.985240	0.254690
Mn31	Mn3	0.985240	0.376950	0.254690
Mn41	Mn4	0.123050	0.514760	0.245310
Mn51	Mn5	0.721660	0.721660	0.835020
Mn61	Mn6	0.616880	0.014760	0.745310
Mn71	Mn7	0.623050	0.616880	0.745310
Mn81	Mn8	0.278340	0.278340	0.164980
Mn91	Mn9	0.221660	0.221660	0.335020
Mn101	Mn10	0.014760	0.623050	0.745310
Mn111	Mn11	0.514760	0.116880	0.245310
Mn121	Mn12	0.883120	0.876950	0.754690
Mn131	Mn13	0.485240	0.883120	0.754690
Mn141	Mn14	0.116880	0.123050	0.245310
Mn151	Mn15	0.876950	0.485240	0.754690
Mn161	Mn16	0.778340	0.778340	0.664980
H11	H1	0.627100	0.724200	0.503000
H21	H2	0.724200	0.145700	0.503000
H31	H3	0.854300	0.372900	0.497000
H41	H4	0.925400	0.297400	0.109200
H51	H5	0.775800	0.872900	0.997000
H61	H6	0.668000	0.925400	0.109200
H71	H7	0.872900	0.354300	0.997000
H81	H8	0.168000	0.797400	0.609200
H91	H9	0.127100	0.645700	0.003000
H101	H10	0.354300	0.775800	0.997000
H111	H11	0.275800	0.854300	0.497000
H121	H12	0.797400	0.425400	0.609200
H131	H13	0.645700	0.224200	0.003000
H141	H14	0.425400	0.168000	0.609200
H151	H15	0.574600	0.832000	0.390800
H161	H16	0.202600	0.574600	0.390800
H171	H17	0.074600	0.702600	0.890800
H181	H18	0.224200	0.127100	0.003000
H191	H19	0.702600	0.332000	0.890800
H201	H20	0.145700	0.627100	0.503000
H211	H21	0.832000	0.202600	0.390800
H221	H22	0.297400	0.668000	0.109200
H231	H23	0.372900	0.275800	0.497000
H241	H24	0.332000	0.074600	0.890800
C11	C1	0.438650	0.952050	0.942850
C21	C2	0.939070	0.485870	0.368090
C31	C3	0.809070	0.600470	0.613190
C41	C4	0.477270	0.100470	0.113190
C51	C5	0.069380	0.643580	0.999160
C61	C6	0.608160	0.332160	0.055620
C71	C7	0.643580	0.287880	0.999160
C81	C8	0.666450	0.438650	0.942850
C91	C9	0.690930	0.522730	0.886810
C101	C10	0.014130	0.560930	0.131910
C111	C11	0.977270	0.809070	0.613190
C121	C12	0.309070	0.477270	0.113190
C131	C13	0.047950	0.333550	0.057150
C141	C14	0.952050	0.666450	0.942850
C151	C15	0.060930	0.514130	0.631910
C161	C16	0.108160	0.504060	0.555620
C171	C17	0.350130	0.038730	0.934510
C181	C18	0.667840	0.995940	0.944380
C191	C19	0.899530	0.690930	0.886810
C201	C20	0.323370	0.649870	0.065490
C211	C21	0.399530	0.022730	0.386810
C221	C22	0.787880	0.143580	0.499160
C231	C23	0.706970	0.985870	0.868090
C241	C24	0.176630	0.538730	0.434510
C251	C25	0.569380	0.787880	0.499160
C261	C26	0.143580	0.569380	0.499160
C271	C27	0.547950	0.061350	0.557150
C281	C28	0.391840	0.667840	0.944380
C291	C29	0.166450	0.452050	0.442850
C301	C30	0.495940	0.167840	0.444380
C311	C31	0.600470	0.977270	0.613190
C321	C32	0.561350	0.047950	0.057150
C331	C33	0.560930	0.293030	0.131910
C341	C34	0.461270	0.149870	0.565490
C351	C35	0.514130	0.793030	0.631910
C361	C36	0.938650	0.166450	0.442850
C371	C37	0.100470	0.309070	0.113190
C381	C38	0.930620	0.356420	0.000840
C391	C39	0.823370	0.461270	0.565490
C401	C40	0.485870	0.206970	0.368090
C411	C41	0.712120	0.930620	0.000840
C421	C42	0.430620	0.212120	0.500840
C431	C43	0.190930	0.399530	0.386810
C441	C44	0.004060	0.608160	0.055620
C451	C45	0.522730	0.899530	0.886810
C461	C46	0.452050	0.938650	0.442850
C471	C47	0.332160	0.004060	0.055620
C481	C48	0.287880	0.069380	0.999160
C491	C49	0.149870	0.823370	0.565490
C501	C50	0.293030	0.014130	0.131910
C511	C51	0.333550	0.561350	0.057150
C521	C52	0.649870	0.961270	0.065490
C531	C53	0.832160	0.108160	0.555620
C541	C54	0.439070	0.706970	0.868090
C551	C55	0.850130	0.176630	0.434510
C561	C56	0.961270	0.323370	0.065490
C571	C57	0.212120	0.856420	0.500840
C581	C58	0.022730	0.190930	0.386810
C591	C59	0.356420	0.712120	0.000840
C601	C60	0.167840	0.891840	0.444380
C611	C61	0.538730	0.850130	0.434510
C621	C62	0.985870	0.439070	0.868090
C631	C63	0.206970	0.939070	0.368090
C641	C64	0.891840	0.495940	0.444380
C651	C65	0.676630	0.350130	0.934510
C661	C66	0.793030	0.060930	0.631910
C671	C67	0.856420	0.430620	0.500840
C681	C68	0.995940	0.391840	0.944380
C691	C69	0.504060	0.832160	0.555620
C701	C70	0.061350	0.833550	0.557150
C711	C71	0.833550	0.547950	0.557150
C721	C72	0.038730	0.676630	0.934510
S11	S1	0.385550	0.550690	0.970390
S21	S2	0.949310	0.114450	0.529610
S31	S3	0.050690	0.885550	0.470390
S41	S4	0.614450	0.449310	0.029610
S51	S5	0.593370	0.050690	0.470390
S61	S6	0.885550	0.593370	0.470390
S71	S7	0.906630	0.614450	0.029610
S81	S8	0.406630	0.949310	0.529610
S91	S9	0.093370	0.385550	0.970390
S101	S10	0.550690	0.093370	0.970390
S111	S11	0.114450	0.406630	0.529610
S121	S12	0.449310	0.906630	0.029610
O11	O1	0.425230	0.300730	0.350810
O21	O2	0.484450	0.170350	0.740150
O31	O3	0.750000	0.858150	0.750000
O41	O4	0.818460	0.680260	0.905320
O51	O5	0.404040	0.181540	0.094680
O61	O6	0.484800	0.057400	0.177600
O71	O7	0.105050	0.670350	0.240150
O81	O8	0.858150	0.641850	0.750000
O91	O9	0.095960	0.180260	0.405320
O101	O10	0.143270	0.988770	0.329390
O111	O11	0.076770	0.574770	0.649190
O121	O12	0.800730	0.925230	0.850810
O131	O13	0.904040	0.819740	0.594680
O141	O14	0.605050	0.484450	0.740150
O151	O15	0.423230	0.800730	0.850810
O161	O16	0.394950	0.515550	0.259850
O171	O17	0.923230	0.425230	0.350810
O181	O18	0.170350	0.605050	0.740150
O191	O19	0.984800	0.780200	0.677600
O201	O20	0.925230	0.423230	0.850810
O211	O21	0.219800	0.442600	0.322400
O221	O22	0.199270	0.074770	0.149190
O231	O23	0.074770	0.576770	0.149190
O241	O24	0.641850	0.750000	0.750000
O251	O25	0.719800	0.515200	0.822400
O261	O26	0.988770	0.538570	0.329390
O271	O27	0.442600	0.015200	0.322400
O281	O28	0.680260	0.595960	0.905320
O291	O29	0.576770	0.199270	0.149190
O301	O30	0.038570	0.488770	0.829390
O311	O31	0.250000	0.141850	0.250000
O321	O32	0.015550	0.894950	0.759850
O331	O33	0.280200	0.484800	0.177600
O341	O34	0.461430	0.856730	0.670610
O351	O35	0.557400	0.984800	0.677600
O361	O36	0.856730	0.011230	0.670610
O371	O37	0.829650	0.394950	0.259850
O381	O38	0.511230	0.356730	0.170610
O391	O39	0.329650	0.015550	0.759850
O401	O40	0.319740	0.404040	0.094680
O411	O41	0.488770	0.643270	0.829390
O421	O42	0.318460	0.095960	0.405320
O431	O43	0.011230	0.461430	0.670610
O441	O44	0.574770	0.699270	0.649190
O451	O45	0.984450	0.105050	0.240150
O461	O46	0.780200	0.557400	0.677600
O471	O47	0.699270	0.076770	0.649190
O481	O48	0.670350	0.984450	0.240150
O491	O49	0.356730	0.961430	0.170610
O501	O50	0.181540	0.319740	0.094680
O511	O51	0.894950	0.329650	0.759850
O521	O52	0.180260	0.318460	0.405320
O531	O53	0.595960	0.818460	0.905320
O541	O54	0.358150	0.250000	0.250000
O551	O55	0.942600	0.719800	0.822400
O561	O56	0.515200	0.942600	0.822400
O571	O57	0.141850	0.358150	0.250000
O581	O58	0.057400	0.280200	0.177600
O591	O59	0.961430	0.511230	0.170610
O601	O60	0.015200	0.219800	0.322400
O611	O61	0.300730	0.923230	0.350810
O621	O62	0.538570	0.143270	0.329390
O631	O63	0.819740	0.681540	0.594680
O641	O64	0.643270	0.038570	0.829390
O651	O65	0.681540	0.904040	0.594680
O661	O66	0.515550	0.829650	0.259850
