data_BOQYUD_freeONLY_PM
_symmetry_space_group_name_H-M	'P1'
_cell_length_a	10.386200
_cell_length_b	10.386200
_cell_length_c	9.208900
_cell_angle_alpha	90.000000
_cell_angle_beta	90.000000
_cell_angle_gamma	120.000000
_symmetry_Int_Tables_number 1

loop_
_symmetry_equiv_pos_as_xyz
'x,y,z'

loop_
_atom_site_label
_atom_site_type_symbol
_atom_site_fract_x
_atom_site_fract_y
_atom_site_fract_z
P11	P1	0.880020	0.293520	0.090440
H11	H1	0.020000	0.343000	0.091000
O11	O1	0.851200	0.393500	0.192700
O21	O2	0.840400	0.310200	0.933500
O31	O3	0.806300	0.134500	0.144000
P21	P2	0.706480	0.586500	0.090440
H21	H2	0.657000	0.677000	0.091000
O41	O4	0.606500	0.457700	0.192700
O51	O5	0.689800	0.530200	0.933500
O61	O6	0.865500	0.671800	0.144000
P31	P3	0.413500	0.119980	0.090440
H31	H3	0.323000	0.980000	0.091000
O71	O7	0.542300	0.148800	0.192700
O81	O8	0.469800	0.159600	0.933500
O91	O9	0.328200	0.193700	0.144000
P41	P4	0.293520	0.880020	0.409560
H41	H4	0.343000	0.020000	0.409000
O101	O10	0.393500	0.851200	0.307300
O111	O11	0.310200	0.840400	0.566500
O121	O12	0.134500	0.806300	0.356000
P51	P5	0.586500	0.706480	0.409560
H51	H5	0.677000	0.657000	0.409000
O131	O13	0.457700	0.606500	0.307300
O141	O14	0.530200	0.689800	0.566500
O151	O15	0.671800	0.865500	0.356000
P61	P6	0.119980	0.413500	0.409560
H61	H6	0.980000	0.323000	0.409000
O161	O16	0.148800	0.542300	0.307300
O171	O17	0.159600	0.469800	0.566500
O181	O18	0.193700	0.328200	0.356000
P71	P7	0.119980	0.706480	0.909560
H71	H7	0.980000	0.657000	0.909000
O191	O19	0.148800	0.606500	0.807300
O201	O20	0.159600	0.689800	0.066500
O211	O21	0.193700	0.865500	0.856000
P81	P8	0.293520	0.413500	0.909560
H81	H8	0.343000	0.323000	0.909000
O221	O22	0.393500	0.542300	0.807300
O231	O23	0.310200	0.469800	0.066500
O241	O24	0.134500	0.328200	0.856000
P91	P9	0.586500	0.880020	0.909560
H91	H9	0.677000	0.020000	0.909000
O251	O25	0.457700	0.851200	0.807300
O261	O26	0.530200	0.840400	0.066500
O271	O27	0.671800	0.806300	0.856000
P101	P10	0.706480	0.119980	0.590440
H101	H10	0.657000	0.980000	0.591000
O281	O28	0.606500	0.148800	0.692700
O291	O29	0.689800	0.159600	0.433500
O301	O30	0.865500	0.193700	0.644000
P111	P11	0.413500	0.293520	0.590440
H111	H11	0.323000	0.343000	0.591000
O311	O31	0.542300	0.393500	0.692700
O321	O32	0.469800	0.310200	0.433500
O331	O33	0.328200	0.134500	0.644000
P121	P12	0.880020	0.586500	0.590440
H121	H12	0.020000	0.677000	0.591000
O341	O34	0.851200	0.457700	0.692700
O351	O35	0.840400	0.530200	0.433500
O361	O36	0.806300	0.671800	0.644000
Fe11	Fe1	0.613300	0.000000	0.250000
Fe21	Fe2	0.000000	0.613300	0.250000
Fe31	Fe3	0.386700	0.386700	0.250000
Fe41	Fe4	0.386700	0.000000	0.750000
Fe51	Fe5	0.000000	0.386700	0.750000
Fe61	Fe6	0.613300	0.613300	0.750000
Fe71	Fe7	0.666670	0.333330	0.334530
Fe81	Fe8	0.333330	0.666670	0.165470
Fe91	Fe9	0.333330	0.666670	0.665470
Fe101	Fe10	0.666670	0.333330	0.834530
