data_BOWDIC_freeONLY_PM
_symmetry_space_group_name_H-M	'P1'
_cell_length_a	12.653000
_cell_length_b	25.497000
_cell_length_c	28.551000
_cell_angle_alpha	90.000000
_cell_angle_beta	90.945000
_cell_angle_gamma	90.000000
_symmetry_Int_Tables_number 1

loop_
_symmetry_equiv_pos_as_xyz
'x,y,z'

loop_
_atom_site_label
_atom_site_type_symbol
_atom_site_fract_x
_atom_site_fract_y
_atom_site_fract_z
Co11	Co1	0.744780	0.998150	0.813030
Co21	Co2	0.245730	0.499640	0.187070
Co31	Co3	0.886870	0.750650	0.032380
Co41	Co4	0.604570	0.748990	0.024270
O11	O1	0.741700	0.749590	0.070630
O21	O2	0.037300	0.748980	0.999600
O31	O3	0.846200	0.812500	0.990270
O41	O4	0.672700	0.800720	0.979090
O51	O5	0.460200	0.188680	0.940410
O61	O6	0.333100	0.169430	0.888020
O71	O7	0.660900	0.683620	0.991250
O81	O8	0.834800	0.695590	0.983690
O91	O9	0.941800	0.689540	0.073320
O101	O10	0.810000	0.668610	0.120900
O111	O11	0.865100	0.044230	0.841180
O121	O12	0.902300	0.096800	0.781130
O131	O13	0.346500	0.550940	0.154170
O141	O14	0.391100	0.604330	0.213340
O151	O15	0.270200	0.749110	0.822390
O161	O16	0.145200	0.747990	0.876870
O171	O17	0.641400	0.553700	0.713090
O181	O18	0.620800	0.542130	0.790010
O191	O19	0.616400	0.956500	0.788370
O201	O20	0.646600	0.943670	0.712160
N11	N1	0.747400	0.951130	0.874730
N21	N2	0.633100	0.050030	0.845050
N31	N3	0.754400	0.548080	0.874370
N41	N4	0.117200	0.545720	0.158840
N51	N5	0.051000	0.192710	0.919330
N61	N6	0.528700	0.696990	0.071310
N71	N7	0.476500	0.748240	0.973020
N81	N8	0.366800	0.686420	0.749420
N91	N9	0.368000	0.811300	0.748460
C11	C1	0.840500	0.933720	0.892360
H11	H1	0.903700	0.949800	0.882000
C21	C2	0.848300	0.893660	0.924760
H21	H2	0.915300	0.882700	0.936700
C31	C3	0.754900	0.869560	0.939690
C41	C4	0.661000	0.888100	0.921950
H31	H3	0.596500	0.872900	0.931800
C51	C5	0.659100	0.928590	0.889880
H41	H4	0.592800	0.940800	0.878200
C61	C6	0.759300	0.823650	0.972870
C71	C7	0.537400	0.061410	0.825170
H51	H5	0.518000	0.044400	0.796700
C81	C8	0.466200	0.096800	0.844540
H61	H6	0.400700	0.104000	0.829200
C91	C9	0.492400	0.121170	0.886430
C101	C10	0.587100	0.108500	0.907840
H71	H7	0.607300	0.124300	0.936800
C111	C11	0.652900	0.072300	0.886600
H81	H8	0.716200	0.062600	0.902700
C121	C12	0.421200	0.161880	0.906910
C131	C13	0.664000	0.565580	0.891960
H91	H9	0.599400	0.550200	0.881400
C141	C14	0.660500	0.604780	0.924570
H101	H10	0.594400	0.616200	0.936100
C151	C15	0.752800	0.627770	0.940690
C161	C16	0.847200	0.608990	0.923670
H111	H11	0.912700	0.623100	0.934500
C171	C17	0.844900	0.569750	0.891030
H121	H12	0.910100	0.557100	0.879500
C181	C18	0.750900	0.673320	0.974890
C191	C19	0.122300	0.564900	0.115400
H131	H13	0.177800	0.552700	0.096200
C201	C20	0.052300	0.601600	0.096100
H141	H14	0.061700	0.614600	0.065200
C211	C21	0.970300	0.618500	0.122440
C221	C22	0.957100	0.596900	0.165800
H151	H15	0.897700	0.606200	0.183900
C231	C23	0.031300	0.561000	0.183300
H161	H16	0.021200	0.546700	0.213600
C241	C24	0.900500	0.661800	0.104000
C251	C25	0.004800	0.149600	0.933700
H171	H17	0.002800	0.143800	0.966500
C261	C26	0.958700	0.112000	0.905000
H181	H18	0.927200	0.081400	0.917500
C271	C27	0.960500	0.121200	0.856700
C281	C28	0.011000	0.166100	0.840200
H191	H19	0.014800	0.173000	0.807600
C291	C29	0.055200	0.200200	0.872900
H201	H20	0.090300	0.230600	0.861700
C301	C30	0.905200	0.084500	0.823600
C311	C31	0.481900	0.652900	0.058900
H211	H21	0.480700	0.644500	0.026500
C321	C32	0.433800	0.617300	0.089170
H221	H22	0.398800	0.586900	0.077600
C331	C33	0.438900	0.628000	0.136100
C341	C34	0.486400	0.674400	0.151600
H231	H23	0.489100	0.683200	0.184000
C351	C35	0.529400	0.707200	0.118400
H241	H24	0.561500	0.738800	0.128900
C361	C36	0.389600	0.591900	0.170960
C371	C37	0.377000	0.753780	0.983600
H251	H25	0.358400	0.757200	0.015600
C381	C38	0.297300	0.754800	0.949300
H261	H26	0.225700	0.759300	0.958000
C391	C39	0.322600	0.749300	0.902500
C401	C40	0.430000	0.743610	0.891400
H271	H27	0.450700	0.739900	0.859700
C411	C41	0.504300	0.743470	0.927120
H281	H28	0.576900	0.740000	0.919700
C421	C42	0.237100	0.749030	0.864400
C431	C43	0.376500	0.653120	0.786050
H291	H29	0.330000	0.657300	0.811600
C441	C44	0.449800	0.613690	0.788210
H301	H30	0.454100	0.591500	0.814900
C451	C45	0.518900	0.606250	0.750580
C461	C46	0.507600	0.639560	0.712700
H311	H31	0.551300	0.635300	0.686200
C471	C47	0.432900	0.678980	0.713360
H321	H32	0.427800	0.702000	0.687200
C481	C48	0.600600	0.563120	0.751890
C491	C49	0.430200	0.820410	0.711260
H331	H33	0.422700	0.798400	0.684600
C501	C50	0.503800	0.859880	0.710150
H341	H34	0.544700	0.865100	0.682900
C511	C51	0.518300	0.892230	0.748950
C521	C52	0.452800	0.883200	0.786620
H351	H35	0.458900	0.904600	0.813800
C531	C53	0.380100	0.844000	0.785060
H361	H36	0.335500	0.839400	0.811200
C541	C54	0.599900	0.934650	0.749350
Co51	Co5	0.755220	0.998150	0.686970
Co61	Co6	0.254270	0.499640	0.312930
Co71	Co7	0.613130	0.750650	0.467620
Co81	Co8	0.895430	0.748990	0.475730
O211	O21	0.758300	0.749590	0.429370
O221	O22	0.462700	0.748980	0.500400
O231	O23	0.653800	0.812500	0.509730
O241	O24	0.827300	0.800720	0.520910
O251	O25	0.039800	0.188680	0.559590
O261	O26	0.166900	0.169430	0.611980
O271	O27	0.839100	0.683620	0.508750
O281	O28	0.665200	0.695590	0.516310
O291	O29	0.558200	0.689540	0.426680
O301	O30	0.690000	0.668610	0.379100
O311	O31	0.634900	0.044230	0.658820
O321	O32	0.597700	0.096800	0.718870
O331	O33	0.153500	0.550940	0.345830
O341	O34	0.108900	0.604330	0.286660
O351	O35	0.229800	0.749110	0.677610
O361	O36	0.354800	0.747990	0.623130
O371	O37	0.858600	0.553700	0.786910
O381	O38	0.879200	0.542130	0.709990
O391	O39	0.883600	0.956500	0.711630
O401	O40	0.853400	0.943670	0.787840
N101	N10	0.752600	0.951130	0.625270
N111	N11	0.866900	0.050030	0.654950
N121	N12	0.745600	0.548080	0.625630
N131	N13	0.382800	0.545720	0.341160
N141	N14	0.449000	0.192710	0.580670
N151	N15	0.971300	0.696990	0.428690
N161	N16	0.023500	0.748240	0.526980
N171	N17	0.133200	0.686420	0.750580
N181	N18	0.132000	0.811300	0.751540
C551	C55	0.659500	0.933720	0.607640
H371	H37	0.596300	0.949800	0.618000
C561	C56	0.651700	0.893660	0.575240
H381	H38	0.584700	0.882700	0.563300
C571	C57	0.745100	0.869560	0.560310
C581	C58	0.839000	0.888100	0.578050
H391	H39	0.903500	0.872900	0.568200
C591	C59	0.840900	0.928590	0.610120
H401	H40	0.907200	0.940800	0.621800
C601	C60	0.740700	0.823650	0.527130
C611	C61	0.962600	0.061410	0.674830
H411	H41	0.982000	0.044400	0.703300
C621	C62	0.033800	0.096800	0.655460
H421	H42	0.099300	0.104000	0.670800
C631	C63	0.007600	0.121170	0.613570
C641	C64	0.912900	0.108500	0.592160
H431	H43	0.892700	0.124300	0.563200
C651	C65	0.847100	0.072300	0.613400
H441	H44	0.783800	0.062600	0.597300
C661	C66	0.078800	0.161880	0.593090
C671	C67	0.836000	0.565580	0.608040
H451	H45	0.900600	0.550200	0.618600
C681	C68	0.839500	0.604780	0.575430
H461	H46	0.905600	0.616200	0.563900
C691	C69	0.747200	0.627770	0.559310
C701	C70	0.652800	0.608990	0.576330
H471	H47	0.587300	0.623100	0.565500
C711	C71	0.655100	0.569750	0.608970
H481	H48	0.589900	0.557100	0.620500
C721	C72	0.749100	0.673320	0.525110
C731	C73	0.377700	0.564900	0.384600
H491	H49	0.322200	0.552700	0.403800
C741	C74	0.447700	0.601600	0.403900
H501	H50	0.438300	0.614600	0.434800
C751	C75	0.529700	0.618500	0.377560
C761	C76	0.542900	0.596900	0.334200
H511	H51	0.602300	0.606200	0.316100
C771	C77	0.468700	0.561000	0.316700
H521	H52	0.478800	0.546700	0.286400
C781	C78	0.599500	0.661800	0.396000
C791	C79	0.495200	0.149600	0.566300
H531	H53	0.497200	0.143800	0.533500
C801	C80	0.541300	0.112000	0.595000
H541	H54	0.572800	0.081400	0.582500
C811	C81	0.539500	0.121200	0.643300
C821	C82	0.489000	0.166100	0.659800
H551	H55	0.485200	0.173000	0.692400
C831	C83	0.444800	0.200200	0.627100
H561	H56	0.409700	0.230600	0.638300
C841	C84	0.594800	0.084500	0.676400
C851	C85	0.018100	0.652900	0.441100
H571	H57	0.019300	0.644500	0.473500
C861	C86	0.066200	0.617300	0.410830
H581	H58	0.101200	0.586900	0.422400
C871	C87	0.061100	0.628000	0.363900
C881	C88	0.013600	0.674400	0.348400
H591	H59	0.010900	0.683200	0.316000
C891	C89	0.970600	0.707200	0.381600
H601	H60	0.938500	0.738800	0.371100
C901	C90	0.110400	0.591900	0.329040
C911	C91	0.123000	0.753780	0.516400
H611	H61	0.141600	0.757200	0.484400
C921	C92	0.202700	0.754800	0.550700
H621	H62	0.274300	0.759300	0.542000
C931	C93	0.177400	0.749300	0.597500
C941	C94	0.070000	0.743610	0.608600
H631	H63	0.049300	0.739900	0.640300
C951	C95	0.995700	0.743470	0.572880
H641	H64	0.923100	0.740000	0.580300
C961	C96	0.262900	0.749030	0.635600
C971	C97	0.123500	0.653120	0.713950
H651	H65	0.170000	0.657300	0.688400
C981	C98	0.050200	0.613690	0.711790
H661	H66	0.045900	0.591500	0.685100
C991	C99	0.981100	0.606250	0.749420
C1001	C100	0.992400	0.639560	0.787300
H671	H67	0.948700	0.635300	0.813800
C1011	C101	0.067100	0.678980	0.786640
H681	H68	0.072200	0.702000	0.812800
C1021	C102	0.899400	0.563120	0.748110
C1031	C103	0.069800	0.820410	0.788740
H691	H69	0.077300	0.798400	0.815400
C1041	C104	0.996200	0.859880	0.789850
H701	H70	0.955300	0.865100	0.817100
C1051	C105	0.981700	0.892230	0.751050
C1061	C106	0.047200	0.883200	0.713380
H711	H71	0.041100	0.904600	0.686200
C1071	C107	0.119900	0.844000	0.714940
H721	H72	0.164500	0.839400	0.688800
C1081	C108	0.900100	0.934650	0.750650
Co91	Co9	0.255220	0.001850	0.186970
Co101	Co10	0.754270	0.500360	0.812930
Co111	Co11	0.113130	0.249350	0.967620
Co121	Co12	0.395430	0.251010	0.975730
O411	O41	0.258300	0.250410	0.929370
O421	O42	0.962700	0.251020	0.000400
O431	O43	0.153800	0.187500	0.009730
O441	O44	0.327300	0.199280	0.020910
O451	O45	0.539800	0.811320	0.059590
O461	O46	0.666900	0.830570	0.111980
O471	O47	0.339100	0.316380	0.008750
O481	O48	0.165200	0.304410	0.016310
O491	O49	0.058200	0.310460	0.926680
O501	O50	0.190000	0.331390	0.879100
O511	O51	0.134900	0.955770	0.158820
O521	O52	0.097700	0.903200	0.218870
O531	O53	0.653500	0.449060	0.845830
O541	O54	0.608900	0.395670	0.786660
O551	O55	0.729800	0.250890	0.177610
O561	O56	0.854800	0.252010	0.123130
O571	O57	0.358600	0.446300	0.286910
O581	O58	0.379200	0.457870	0.209990
O591	O59	0.383600	0.043500	0.211630
O601	O60	0.353400	0.056330	0.287840
N191	N19	0.252600	0.048870	0.125270
N201	N20	0.366900	0.949970	0.154950
N211	N21	0.245600	0.451920	0.125630
N221	N22	0.882800	0.454280	0.841160
N231	N23	0.949000	0.807290	0.080670
N241	N24	0.471300	0.303010	0.928690
N251	N25	0.523500	0.251760	0.026980
N261	N26	0.633200	0.313580	0.250580
N271	N27	0.632000	0.188700	0.251540
C1091	C109	0.159500	0.066280	0.107640
H731	H73	0.096300	0.050200	0.118000
C1101	C110	0.151700	0.106340	0.075240
H741	H74	0.084700	0.117300	0.063300
C1111	C111	0.245100	0.130440	0.060310
C1121	C112	0.339000	0.111900	0.078050
H751	H75	0.403500	0.127100	0.068200
C1131	C113	0.340900	0.071410	0.110120
H761	H76	0.407200	0.059200	0.121800
C1141	C114	0.240700	0.176350	0.027130
C1151	C115	0.462600	0.938590	0.174830
H771	H77	0.482000	0.955600	0.203300
C1161	C116	0.533800	0.903200	0.155460
H781	H78	0.599300	0.896000	0.170800
C1171	C117	0.507600	0.878830	0.113570
C1181	C118	0.412900	0.891500	0.092160
H791	H79	0.392700	0.875700	0.063200
C1191	C119	0.347100	0.927700	0.113400
H801	H80	0.283800	0.937400	0.097300
C1201	C120	0.578800	0.838120	0.093090
C1211	C121	0.336000	0.434420	0.108040
H811	H81	0.400600	0.449800	0.118600
C1221	C122	0.339500	0.395220	0.075430
H821	H82	0.405600	0.383800	0.063900
C1231	C123	0.247200	0.372230	0.059310
C1241	C124	0.152800	0.391010	0.076330
H831	H83	0.087300	0.376900	0.065500
C1251	C125	0.155100	0.430250	0.108970
H841	H84	0.089900	0.442900	0.120500
C1261	C126	0.249100	0.326680	0.025110
C1271	C127	0.877700	0.435100	0.884600
H851	H85	0.822200	0.447300	0.903800
C1281	C128	0.947700	0.398400	0.903900
H861	H86	0.938300	0.385400	0.934800
C1291	C129	0.029700	0.381500	0.877560
C1301	C130	0.042900	0.403100	0.834200
H871	H87	0.102300	0.393800	0.816100
C1311	C131	0.968700	0.439000	0.816700
H881	H88	0.978800	0.453300	0.786400
C1321	C132	0.099500	0.338200	0.896000
C1331	C133	0.995200	0.850400	0.066300
H891	H89	0.997200	0.856200	0.033500
C1341	C134	0.041300	0.888000	0.095000
H901	H90	0.072800	0.918600	0.082500
C1351	C135	0.039500	0.878800	0.143300
C1361	C136	0.989000	0.833900	0.159800
H911	H91	0.985200	0.827000	0.192400
C1371	C137	0.944800	0.799800	0.127100
H921	H92	0.909700	0.769400	0.138300
C1381	C138	0.094800	0.915500	0.176400
C1391	C139	0.518100	0.347100	0.941100
H931	H93	0.519300	0.355500	0.973500
C1401	C140	0.566200	0.382700	0.910830
H941	H94	0.601200	0.413100	0.922400
C1411	C141	0.561100	0.372000	0.863900
C1421	C142	0.513600	0.325600	0.848400
H951	H95	0.510900	0.316800	0.816000
C1431	C143	0.470600	0.292800	0.881600
H961	H96	0.438500	0.261200	0.871100
C1441	C144	0.610400	0.408100	0.829040
C1451	C145	0.623000	0.246220	0.016400
H971	H97	0.641600	0.242800	0.984400
C1461	C146	0.702700	0.245200	0.050700
H981	H98	0.774300	0.240700	0.042000
C1471	C147	0.677400	0.250700	0.097500
C1481	C148	0.570000	0.256390	0.108600
H991	H99	0.549300	0.260100	0.140300
C1491	C149	0.495700	0.256530	0.072880
H1001	H100	0.423100	0.260000	0.080300
C1501	C150	0.762900	0.250970	0.135600
C1511	C151	0.623500	0.346880	0.213950
H1011	H101	0.670000	0.342700	0.188400
C1521	C152	0.550200	0.386310	0.211790
H1021	H102	0.545900	0.408500	0.185100
C1531	C153	0.481100	0.393750	0.249420
C1541	C154	0.492400	0.360440	0.287300
H1031	H103	0.448700	0.364700	0.313800
C1551	C155	0.567100	0.321020	0.286640
H1041	H104	0.572200	0.298000	0.312800
C1561	C156	0.399400	0.436880	0.248110
C1571	C157	0.569800	0.179590	0.288740
H1051	H105	0.577300	0.201600	0.315400
C1581	C158	0.496200	0.140120	0.289850
H1061	H106	0.455300	0.134900	0.317100
C1591	C159	0.481700	0.107770	0.251050
C1601	C160	0.547200	0.116800	0.213380
H1071	H107	0.541100	0.095400	0.186200
C1611	C161	0.619900	0.156000	0.214940
H1081	H108	0.664500	0.160600	0.188800
C1621	C162	0.400100	0.065350	0.250650
Co131	Co13	0.244780	0.001850	0.313030
Co141	Co14	0.745730	0.500360	0.687070
Co151	Co15	0.386870	0.249350	0.532380
Co161	Co16	0.104570	0.251010	0.524270
O611	O61	0.241700	0.250410	0.570630
O621	O62	0.537300	0.251020	0.499600
O631	O63	0.346200	0.187500	0.490270
O641	O64	0.172700	0.199280	0.479090
O651	O65	0.960200	0.811320	0.440410
O661	O66	0.833100	0.830570	0.388020
O671	O67	0.160900	0.316380	0.491250
O681	O68	0.334800	0.304410	0.483690
O691	O69	0.441800	0.310460	0.573320
O701	O70	0.310000	0.331390	0.620900
O711	O71	0.365100	0.955770	0.341180
O721	O72	0.402300	0.903200	0.281130
O731	O73	0.846500	0.449060	0.654170
O741	O74	0.891100	0.395670	0.713340
O751	O75	0.770200	0.250890	0.322390
O761	O76	0.645200	0.252010	0.376870
O771	O77	0.141400	0.446300	0.213090
O781	O78	0.120800	0.457870	0.290010
O791	O79	0.116400	0.043500	0.288370
O801	O80	0.146600	0.056330	0.212160
N281	N28	0.247400	0.048870	0.374730
N291	N29	0.133100	0.949970	0.345050
N301	N30	0.254400	0.451920	0.374370
N311	N31	0.617200	0.454280	0.658840
N321	N32	0.551000	0.807290	0.419330
N331	N33	0.028700	0.303010	0.571310
N341	N34	0.976500	0.251760	0.473020
N351	N35	0.866800	0.313580	0.249420
N361	N36	0.868000	0.188700	0.248460
C1631	C163	0.340500	0.066280	0.392360
H1091	H109	0.403700	0.050200	0.382000
C1641	C164	0.348300	0.106340	0.424760
H1101	H110	0.415300	0.117300	0.436700
C1651	C165	0.254900	0.130440	0.439690
C1661	C166	0.161000	0.111900	0.421950
H1111	H111	0.096500	0.127100	0.431800
C1671	C167	0.159100	0.071410	0.389880
H1121	H112	0.092800	0.059200	0.378200
C1681	C168	0.259300	0.176350	0.472870
C1691	C169	0.037400	0.938590	0.325170
H1131	H113	0.018000	0.955600	0.296700
C1701	C170	0.966200	0.903200	0.344540
H1141	H114	0.900700	0.896000	0.329200
C1711	C171	0.992400	0.878830	0.386430
C1721	C172	0.087100	0.891500	0.407840
H1151	H115	0.107300	0.875700	0.436800
C1731	C173	0.152900	0.927700	0.386600
H1161	H116	0.216200	0.937400	0.402700
C1741	C174	0.921200	0.838120	0.406910
C1751	C175	0.164000	0.434420	0.391960
H1171	H117	0.099400	0.449800	0.381400
C1761	C176	0.160500	0.395220	0.424570
H1181	H118	0.094400	0.383800	0.436100
C1771	C177	0.252800	0.372230	0.440690
C1781	C178	0.347200	0.391010	0.423670
H1191	H119	0.412700	0.376900	0.434500
C1791	C179	0.344900	0.430250	0.391030
H1201	H120	0.410100	0.442900	0.379500
C1801	C180	0.250900	0.326680	0.474890
C1811	C181	0.622300	0.435100	0.615400
H1211	H121	0.677800	0.447300	0.596200
C1821	C182	0.552300	0.398400	0.596100
H1221	H122	0.561700	0.385400	0.565200
C1831	C183	0.470300	0.381500	0.622440
C1841	C184	0.457100	0.403100	0.665800
H1231	H123	0.397700	0.393800	0.683900
C1851	C185	0.531300	0.439000	0.683300
H1241	H124	0.521200	0.453300	0.713600
C1861	C186	0.400500	0.338200	0.604000
C1871	C187	0.504800	0.850400	0.433700
H1251	H125	0.502800	0.856200	0.466500
C1881	C188	0.458700	0.888000	0.405000
H1261	H126	0.427200	0.918600	0.417500
C1891	C189	0.460500	0.878800	0.356700
C1901	C190	0.511000	0.833900	0.340200
H1271	H127	0.514800	0.827000	0.307600
C1911	C191	0.555200	0.799800	0.372900
H1281	H128	0.590300	0.769400	0.361700
C1921	C192	0.405200	0.915500	0.323600
C1931	C193	0.981900	0.347100	0.558900
H1291	H129	0.980700	0.355500	0.526500
C1941	C194	0.933800	0.382700	0.589170
H1301	H130	0.898800	0.413100	0.577600
C1951	C195	0.938900	0.372000	0.636100
C1961	C196	0.986400	0.325600	0.651600
H1311	H131	0.989100	0.316800	0.684000
C1971	C197	0.029400	0.292800	0.618400
H1321	H132	0.061500	0.261200	0.628900
C1981	C198	0.889600	0.408100	0.670960
C1991	C199	0.877000	0.246220	0.483600
H1331	H133	0.858400	0.242800	0.515600
C2001	C200	0.797300	0.245200	0.449300
H1341	H134	0.725700	0.240700	0.458000
C2011	C201	0.822600	0.250700	0.402500
C2021	C202	0.930000	0.256390	0.391400
H1351	H135	0.950700	0.260100	0.359700
C2031	C203	0.004300	0.256530	0.427120
H1361	H136	0.076900	0.260000	0.419700
C2041	C204	0.737100	0.250970	0.364400
C2051	C205	0.876500	0.346880	0.286050
H1371	H137	0.830000	0.342700	0.311600
C2061	C206	0.949800	0.386310	0.288210
H1381	H138	0.954100	0.408500	0.314900
C2071	C207	0.018900	0.393750	0.250580
C2081	C208	0.007600	0.360440	0.212700
H1391	H139	0.051300	0.364700	0.186200
C2091	C209	0.932900	0.321020	0.213360
H1401	H140	0.927800	0.298000	0.187200
C2101	C210	0.100600	0.436880	0.251890
C2111	C211	0.930200	0.179590	0.211260
H1411	H141	0.922700	0.201600	0.184600
C2121	C212	0.003800	0.140120	0.210150
H1421	H142	0.044700	0.134900	0.182900
C2131	C213	0.018300	0.107770	0.248950
C2141	C214	0.952800	0.116800	0.286620
H1431	H143	0.958900	0.095400	0.313800
C2151	C215	0.880100	0.156000	0.285060
H1441	H144	0.835500	0.160600	0.311200
C2161	C216	0.099900	0.065350	0.249350
Co171	Co17	0.250000	0.749010	0.750000
Co181	Co18	0.750000	0.250990	0.250000
O811	O81	0.750000	0.042430	0.750000
O821	O82	0.250000	0.957570	0.250000
O831	O83	0.250000	0.545770	0.250000
O841	O84	0.750000	0.454230	0.750000
