data_BOYYOF_freeONLY_PM
_symmetry_space_group_name_H-M	'P1'
_cell_length_a	19.109000
_cell_length_b	19.109000
_cell_length_c	24.317000
_cell_angle_alpha	90.000000
_cell_angle_beta	90.000000
_cell_angle_gamma	90.000000
_symmetry_Int_Tables_number 1

loop_
_symmetry_equiv_pos_as_xyz
'x,y,z'

loop_
_atom_site_label
_atom_site_type_symbol
_atom_site_fract_x
_atom_site_fract_y
_atom_site_fract_z
Cd11	Cd1	0.159170	0.678080	0.005240
O11	O1	0.343130	0.658950	0.799080
O21	O2	0.335980	0.544680	0.803370
O31	O3	0.018540	0.655070	0.783470
O41	O4	0.027540	0.540080	0.784850
O51	O5	0.151100	0.749000	0.086300
H11	H1	0.108100	0.757700	0.091700
H21	H2	0.160800	0.709200	0.100000
N11	N1	0.169810	0.625900	0.917840
C11	C1	0.311200	0.604500	0.812230
C21	C2	0.049600	0.599600	0.796940
C31	C3	0.115500	0.606400	0.830250
C41	C4	0.111400	0.616800	0.886900
C51	C5	0.041600	0.619900	0.916300
H31	H3	0.045300	0.596700	0.951100
H41	H4	0.006600	0.597200	0.894300
H51	H5	0.028700	0.667900	0.922000
C61	C6	0.232800	0.621300	0.893780
C71	C7	0.295700	0.628700	0.930700
H61	H6	0.302300	0.677100	0.939900
H71	H7	0.336500	0.611600	0.912000
H81	H8	0.288500	0.602100	0.963700
C81	C8	0.240400	0.609800	0.837200
C91	C9	0.180600	0.603600	0.804720
C101	C10	0.185000	0.597000	0.743600
C111	C11	0.185300	0.655400	0.710600
H91	H9	0.184300	0.699500	0.726700
C121	C12	0.186900	0.650200	0.654600
H101	H10	0.187100	0.690700	0.633400
C131	C13	0.188100	0.588200	0.629700
H111	H11	0.188100	0.585600	0.591500
C141	C14	0.189400	0.529100	0.659900
H121	H12	0.192000	0.485800	0.642500
C151	C15	0.186800	0.532600	0.718200
H131	H13	0.186200	0.491800	0.739000
Cd21	Cd2	0.659170	0.178080	0.505240
O61	O6	0.843130	0.158950	0.299080
O71	O7	0.835980	0.044680	0.303370
O81	O8	0.518540	0.155070	0.283470
O91	O9	0.527540	0.040080	0.284850
O101	O10	0.651100	0.249000	0.586300
H141	H14	0.608100	0.257700	0.591700
H151	H15	0.660800	0.209200	0.600000
N21	N2	0.669810	0.125900	0.417840
C161	C16	0.811200	0.104500	0.312230
C171	C17	0.549600	0.099600	0.296940
C181	C18	0.615500	0.106400	0.330250
C191	C19	0.611400	0.116800	0.386900
C201	C20	0.541600	0.119900	0.416300
H161	H16	0.545300	0.096700	0.451100
H171	H17	0.506600	0.097200	0.394300
H181	H18	0.528700	0.167900	0.422000
C211	C21	0.732800	0.121300	0.393780
C221	C22	0.795700	0.128700	0.430700
H191	H19	0.802300	0.177100	0.439900
H201	H20	0.836500	0.111600	0.412000
H211	H21	0.788500	0.102100	0.463700
C231	C23	0.740400	0.109800	0.337200
C241	C24	0.680600	0.103600	0.304720
C251	C25	0.685000	0.097000	0.243600
C261	C26	0.685300	0.155400	0.210600
H221	H22	0.684300	0.199500	0.226700
C271	C27	0.686900	0.150200	0.154600
H231	H23	0.687100	0.190700	0.133400
C281	C28	0.688100	0.088200	0.129700
H241	H24	0.688100	0.085600	0.091500
C291	C29	0.689400	0.029100	0.159900
H251	H25	0.692000	0.985800	0.142500
C301	C30	0.686800	0.032600	0.218200
H261	H26	0.686200	0.991800	0.239000
Cd31	Cd3	0.340830	0.321920	0.505240
O111	O11	0.156870	0.341050	0.299080
O121	O12	0.164020	0.455320	0.303370
O131	O13	0.481460	0.344930	0.283470
O141	O14	0.472460	0.459920	0.284850
O151	O15	0.348900	0.251000	0.586300
H271	H27	0.391900	0.242300	0.591700
H281	H28	0.339200	0.290800	0.600000
N31	N3	0.330190	0.374100	0.417840
C311	C31	0.188800	0.395500	0.312230
C321	C32	0.450400	0.400400	0.296940
C331	C33	0.384500	0.393600	0.330250
C341	C34	0.388600	0.383200	0.386900
C351	C35	0.458400	0.380100	0.416300
H291	H29	0.454700	0.403300	0.451100
H301	H30	0.493400	0.402800	0.394300
H311	H31	0.471300	0.332100	0.422000
C361	C36	0.267200	0.378700	0.393780
C371	C37	0.204300	0.371300	0.430700
H321	H32	0.197700	0.322900	0.439900
H331	H33	0.163500	0.388400	0.412000
H341	H34	0.211500	0.397900	0.463700
C381	C38	0.259600	0.390200	0.337200
C391	C39	0.319400	0.396400	0.304720
C401	C40	0.315000	0.403000	0.243600
C411	C41	0.314700	0.344600	0.210600
H351	H35	0.315700	0.300500	0.226700
C421	C42	0.313100	0.349800	0.154600
H361	H36	0.312900	0.309300	0.133400
C431	C43	0.311900	0.411800	0.129700
H371	H37	0.311900	0.414400	0.091500
C441	C44	0.310600	0.470900	0.159900
H381	H38	0.308000	0.514200	0.142500
C451	C45	0.313200	0.467400	0.218200
H391	H39	0.313800	0.508200	0.239000
Cd41	Cd4	0.840830	0.821920	0.005240
O161	O16	0.656870	0.841050	0.799080
O171	O17	0.664020	0.955320	0.803370
O181	O18	0.981460	0.844930	0.783470
O191	O19	0.972460	0.959920	0.784850
O201	O20	0.848900	0.751000	0.086300
H401	H40	0.891900	0.742300	0.091700
H411	H41	0.839200	0.790800	0.100000
N41	N4	0.830190	0.874100	0.917840
C461	C46	0.688800	0.895500	0.812230
C471	C47	0.950400	0.900400	0.796940
C481	C48	0.884500	0.893600	0.830250
C491	C49	0.888600	0.883200	0.886900
C501	C50	0.958400	0.880100	0.916300
H421	H42	0.954700	0.903300	0.951100
H431	H43	0.993400	0.902800	0.894300
H441	H44	0.971300	0.832100	0.922000
C511	C51	0.767200	0.878700	0.893780
C521	C52	0.704300	0.871300	0.930700
H451	H45	0.697700	0.822900	0.939900
H461	H46	0.663500	0.888400	0.912000
H471	H47	0.711500	0.897900	0.963700
C531	C53	0.759600	0.890200	0.837200
C541	C54	0.819400	0.896400	0.804720
C551	C55	0.815000	0.903000	0.743600
C561	C56	0.814700	0.844600	0.710600
H481	H48	0.815700	0.800500	0.726700
C571	C57	0.813100	0.849800	0.654600
H491	H49	0.812900	0.809300	0.633400
C581	C58	0.811900	0.911800	0.629700
H501	H50	0.811900	0.914400	0.591500
C591	C59	0.810600	0.970900	0.659900
H511	H51	0.808000	0.014200	0.642500
C601	C60	0.813200	0.967400	0.718200
H521	H52	0.813800	0.008200	0.739000
Cd51	Cd5	0.071920	0.409170	0.255240
O211	O21	0.091050	0.593130	0.049080
O221	O22	0.205320	0.585980	0.053370
O231	O23	0.094930	0.268540	0.033470
O241	O24	0.209920	0.277540	0.034850
O251	O25	0.001000	0.401100	0.336300
H531	H53	0.992300	0.358100	0.341700
H541	H54	0.040800	0.410800	0.350000
N51	N5	0.124100	0.419810	0.167840
C611	C61	0.145500	0.561200	0.062230
C621	C62	0.150400	0.299600	0.046940
C631	C63	0.143600	0.365500	0.080250
C641	C64	0.133200	0.361400	0.136900
C651	C65	0.130100	0.291600	0.166300
H551	H55	0.153300	0.295300	0.201100
H561	H56	0.152800	0.256600	0.144300
H571	H57	0.082100	0.278700	0.172000
C661	C66	0.128700	0.482800	0.143780
C671	C67	0.121300	0.545700	0.180700
H581	H58	0.072900	0.552300	0.189900
H591	H59	0.138400	0.586500	0.162000
H601	H60	0.147900	0.538500	0.213700
C681	C68	0.140200	0.490400	0.087200
C691	C69	0.146400	0.430600	0.054720
C701	C70	0.153000	0.435000	0.993600
C711	C71	0.094600	0.435300	0.960600
H611	H61	0.050500	0.434300	0.976700
C721	C72	0.099800	0.436900	0.904600
H621	H62	0.059300	0.437100	0.883400
C731	C73	0.161800	0.438100	0.879700
H631	H63	0.164400	0.438100	0.841500
C741	C74	0.220900	0.439400	0.909900
H641	H64	0.264200	0.442000	0.892500
C751	C75	0.217400	0.436800	0.968200
H651	H65	0.258200	0.436200	0.989000
Cd61	Cd6	0.571920	0.909170	0.755240
O261	O26	0.591050	0.093130	0.549080
O271	O27	0.705320	0.085980	0.553370
O281	O28	0.594930	0.768540	0.533470
O291	O29	0.709920	0.777540	0.534850
O301	O30	0.501000	0.901100	0.836300
H661	H66	0.492300	0.858100	0.841700
H671	H67	0.540800	0.910800	0.850000
N61	N6	0.624100	0.919810	0.667840
C761	C76	0.645500	0.061200	0.562230
C771	C77	0.650400	0.799600	0.546940
C781	C78	0.643600	0.865500	0.580250
C791	C79	0.633200	0.861400	0.636900
C801	C80	0.630100	0.791600	0.666300
H681	H68	0.653300	0.795300	0.701100
H691	H69	0.652800	0.756600	0.644300
H701	H70	0.582100	0.778700	0.672000
C811	C81	0.628700	0.982800	0.643780
C821	C82	0.621300	0.045700	0.680700
H711	H71	0.572900	0.052300	0.689900
H721	H72	0.638400	0.086500	0.662000
H731	H73	0.647900	0.038500	0.713700
C831	C83	0.640200	0.990400	0.587200
C841	C84	0.646400	0.930600	0.554720
C851	C85	0.653000	0.935000	0.493600
C861	C86	0.594600	0.935300	0.460600
H741	H74	0.550500	0.934300	0.476700
C871	C87	0.599800	0.936900	0.404600
H751	H75	0.559300	0.937100	0.383400
C881	C88	0.661800	0.938100	0.379700
H761	H76	0.664400	0.938100	0.341500
C891	C89	0.720900	0.939400	0.409900
H771	H77	0.764200	0.942000	0.392500
C901	C90	0.717400	0.936800	0.468200
H781	H78	0.758200	0.936200	0.489000
Cd71	Cd7	0.428080	0.590830	0.755240
O311	O31	0.408950	0.406870	0.549080
O321	O32	0.294680	0.414020	0.553370
O331	O33	0.405070	0.731460	0.533470
O341	O34	0.290080	0.722460	0.534850
O351	O35	0.499000	0.598900	0.836300
H791	H79	0.507700	0.641900	0.841700
H801	H80	0.459200	0.589200	0.850000
N71	N7	0.375900	0.580190	0.667840
C911	C91	0.354500	0.438800	0.562230
C921	C92	0.349600	0.700400	0.546940
C931	C93	0.356400	0.634500	0.580250
C941	C94	0.366800	0.638600	0.636900
C951	C95	0.369900	0.708400	0.666300
H811	H81	0.346700	0.704700	0.701100
H821	H82	0.347200	0.743400	0.644300
H831	H83	0.417900	0.721300	0.672000
C961	C96	0.371300	0.517200	0.643780
C971	C97	0.378700	0.454300	0.680700
H841	H84	0.427100	0.447700	0.689900
H851	H85	0.361600	0.413500	0.662000
H861	H86	0.352100	0.461500	0.713700
C981	C98	0.359800	0.509600	0.587200
C991	C99	0.353600	0.569400	0.554720
C1001	C100	0.347000	0.565000	0.493600
C1011	C101	0.405400	0.564700	0.460600
H871	H87	0.449500	0.565700	0.476700
C1021	C102	0.400200	0.563100	0.404600
H881	H88	0.440700	0.562900	0.383400
C1031	C103	0.338200	0.561900	0.379700
H891	H89	0.335600	0.561900	0.341500
C1041	C104	0.279100	0.560600	0.409900
H901	H90	0.235800	0.558000	0.392500
C1051	C105	0.282600	0.563200	0.468200
H911	H91	0.241800	0.563800	0.489000
Cd81	Cd8	0.928080	0.090830	0.255240
O361	O36	0.908950	0.906870	0.049080
O371	O37	0.794680	0.914020	0.053370
O381	O38	0.905070	0.231460	0.033470
O391	O39	0.790080	0.222460	0.034850
O401	O40	0.999000	0.098900	0.336300
H921	H92	0.007700	0.141900	0.341700
H931	H93	0.959200	0.089200	0.350000
N81	N8	0.875900	0.080190	0.167840
C1061	C106	0.854500	0.938800	0.062230
C1071	C107	0.849600	0.200400	0.046940
C1081	C108	0.856400	0.134500	0.080250
C1091	C109	0.866800	0.138600	0.136900
C1101	C110	0.869900	0.208400	0.166300
H941	H94	0.846700	0.204700	0.201100
H951	H95	0.847200	0.243400	0.144300
H961	H96	0.917900	0.221300	0.172000
C1111	C111	0.871300	0.017200	0.143780
C1121	C112	0.878700	0.954300	0.180700
H971	H97	0.927100	0.947700	0.189900
H981	H98	0.861600	0.913500	0.162000
H991	H99	0.852100	0.961500	0.213700
C1131	C113	0.859800	0.009600	0.087200
C1141	C114	0.853600	0.069400	0.054720
C1151	C115	0.847000	0.065000	0.993600
C1161	C116	0.905400	0.064700	0.960600
H1001	H100	0.949500	0.065700	0.976700
C1171	C117	0.900200	0.063100	0.904600
H1011	H101	0.940700	0.062900	0.883400
C1181	C118	0.838200	0.061900	0.879700
H1021	H102	0.835600	0.061900	0.841500
C1191	C119	0.779100	0.060600	0.909900
H1031	H103	0.735800	0.058000	0.892500
C1201	C120	0.782600	0.063200	0.968200
H1041	H104	0.741800	0.063800	0.989000
Cd91	Cd9	0.840830	0.321920	0.994760
O411	O41	0.656870	0.341050	0.200920
O421	O42	0.664020	0.455320	0.196630
O431	O43	0.981460	0.344930	0.216530
O441	O44	0.972460	0.459920	0.215150
O451	O45	0.848900	0.251000	0.913700
H1051	H105	0.891900	0.242300	0.908300
H1061	H106	0.839200	0.290800	0.900000
N91	N9	0.830190	0.374100	0.082160
C1211	C121	0.688800	0.395500	0.187770
C1221	C122	0.950400	0.400400	0.203060
C1231	C123	0.884500	0.393600	0.169750
C1241	C124	0.888600	0.383200	0.113100
C1251	C125	0.958400	0.380100	0.083700
H1071	H107	0.954700	0.403300	0.048900
H1081	H108	0.993400	0.402800	0.105700
H1091	H109	0.971300	0.332100	0.078000
C1261	C126	0.767200	0.378700	0.106220
C1271	C127	0.704300	0.371300	0.069300
H1101	H110	0.697700	0.322900	0.060100
H1111	H111	0.663500	0.388400	0.088000
H1121	H112	0.711500	0.397900	0.036300
C1281	C128	0.759600	0.390200	0.162800
C1291	C129	0.819400	0.396400	0.195280
C1301	C130	0.815000	0.403000	0.256400
C1311	C131	0.814700	0.344600	0.289400
H1131	H113	0.815700	0.300500	0.273300
C1321	C132	0.813100	0.349800	0.345400
H1141	H114	0.812900	0.309300	0.366600
C1331	C133	0.811900	0.411800	0.370300
H1151	H115	0.811900	0.414400	0.408500
C1341	C134	0.810600	0.470900	0.340100
H1161	H116	0.808000	0.514200	0.357500
C1351	C135	0.813200	0.467400	0.281800
H1171	H117	0.813800	0.508200	0.261000
Cd101	Cd10	0.340830	0.821920	0.494760
O461	O46	0.156870	0.841050	0.700920
O471	O47	0.164020	0.955320	0.696630
O481	O48	0.481460	0.844930	0.716530
O491	O49	0.472460	0.959920	0.715150
O501	O50	0.348900	0.751000	0.413700
H1181	H118	0.391900	0.742300	0.408300
H1191	H119	0.339200	0.790800	0.400000
N101	N10	0.330190	0.874100	0.582160
C1361	C136	0.188800	0.895500	0.687770
C1371	C137	0.450400	0.900400	0.703060
C1381	C138	0.384500	0.893600	0.669750
C1391	C139	0.388600	0.883200	0.613100
C1401	C140	0.458400	0.880100	0.583700
H1201	H120	0.454700	0.903300	0.548900
H1211	H121	0.493400	0.902800	0.605700
H1221	H122	0.471300	0.832100	0.578000
C1411	C141	0.267200	0.878700	0.606220
C1421	C142	0.204300	0.871300	0.569300
H1231	H123	0.197700	0.822900	0.560100
H1241	H124	0.163500	0.888400	0.588000
H1251	H125	0.211500	0.897900	0.536300
C1431	C143	0.259600	0.890200	0.662800
C1441	C144	0.319400	0.896400	0.695280
C1451	C145	0.315000	0.903000	0.756400
C1461	C146	0.314700	0.844600	0.789400
H1261	H126	0.315700	0.800500	0.773300
C1471	C147	0.313100	0.849800	0.845400
H1271	H127	0.312900	0.809300	0.866600
C1481	C148	0.311900	0.911800	0.870300
H1281	H128	0.311900	0.914400	0.908500
C1491	C149	0.310600	0.970900	0.840100
H1291	H129	0.308000	0.014200	0.857500
C1501	C150	0.313200	0.967400	0.781800
H1301	H130	0.313800	0.008200	0.761000
Cd111	Cd11	0.659170	0.678080	0.494760
O511	O51	0.843130	0.658950	0.700920
O521	O52	0.835980	0.544680	0.696630
O531	O53	0.518540	0.655070	0.716530
O541	O54	0.527540	0.540080	0.715150
O551	O55	0.651100	0.749000	0.413700
H1311	H131	0.608100	0.757700	0.408300
H1321	H132	0.660800	0.709200	0.400000
N111	N11	0.669810	0.625900	0.582160
C1511	C151	0.811200	0.604500	0.687770
C1521	C152	0.549600	0.599600	0.703060
C1531	C153	0.615500	0.606400	0.669750
C1541	C154	0.611400	0.616800	0.613100
C1551	C155	0.541600	0.619900	0.583700
H1331	H133	0.545300	0.596700	0.548900
H1341	H134	0.506600	0.597200	0.605700
H1351	H135	0.528700	0.667900	0.578000
C1561	C156	0.732800	0.621300	0.606220
C1571	C157	0.795700	0.628700	0.569300
H1361	H136	0.802300	0.677100	0.560100
H1371	H137	0.836500	0.611600	0.588000
H1381	H138	0.788500	0.602100	0.536300
C1581	C158	0.740400	0.609800	0.662800
C1591	C159	0.680600	0.603600	0.695280
C1601	C160	0.685000	0.597000	0.756400
C1611	C161	0.685300	0.655400	0.789400
H1391	H139	0.684300	0.699500	0.773300
C1621	C162	0.686900	0.650200	0.845400
H1401	H140	0.687100	0.690700	0.866600
C1631	C163	0.688100	0.588200	0.870300
H1411	H141	0.688100	0.585600	0.908500
C1641	C164	0.689400	0.529100	0.840100
H1421	H142	0.692000	0.485800	0.857500
C1651	C165	0.686800	0.532600	0.781800
H1431	H143	0.686200	0.491800	0.761000
Cd121	Cd12	0.159170	0.178080	0.994760
O561	O56	0.343130	0.158950	0.200920
O571	O57	0.335980	0.044680	0.196630
O581	O58	0.018540	0.155070	0.216530
O591	O59	0.027540	0.040080	0.215150
O601	O60	0.151100	0.249000	0.913700
H1441	H144	0.108100	0.257700	0.908300
H1451	H145	0.160800	0.209200	0.900000
N121	N12	0.169810	0.125900	0.082160
C1661	C166	0.311200	0.104500	0.187770
C1671	C167	0.049600	0.099600	0.203060
C1681	C168	0.115500	0.106400	0.169750
C1691	C169	0.111400	0.116800	0.113100
C1701	C170	0.041600	0.119900	0.083700
H1461	H146	0.045300	0.096700	0.048900
H1471	H147	0.006600	0.097200	0.105700
H1481	H148	0.028700	0.167900	0.078000
C1711	C171	0.232800	0.121300	0.106220
C1721	C172	0.295700	0.128700	0.069300
H1491	H149	0.302300	0.177100	0.060100
H1501	H150	0.336500	0.111600	0.088000
H1511	H151	0.288500	0.102100	0.036300
C1731	C173	0.240400	0.109800	0.162800
C1741	C174	0.180600	0.103600	0.195280
C1751	C175	0.185000	0.097000	0.256400
C1761	C176	0.185300	0.155400	0.289400
H1521	H152	0.184300	0.199500	0.273300
C1771	C177	0.186900	0.150200	0.345400
H1531	H153	0.187100	0.190700	0.366600
C1781	C178	0.188100	0.088200	0.370300
H1541	H154	0.188100	0.085600	0.408500
C1791	C179	0.189400	0.029100	0.340100
H1551	H155	0.192000	0.985800	0.357500
C1801	C180	0.186800	0.032600	0.281800
H1561	H156	0.186200	0.991800	0.261000
Cd131	Cd13	0.928080	0.590830	0.744760
O611	O61	0.908950	0.406870	0.950920
O621	O62	0.794680	0.414020	0.946630
O631	O63	0.905070	0.731460	0.966530
O641	O64	0.790080	0.722460	0.965150
O651	O65	0.999000	0.598900	0.663700
H1571	H157	0.007700	0.641900	0.658300
H1581	H158	0.959200	0.589200	0.650000
N131	N13	0.875900	0.580190	0.832160
C1811	C181	0.854500	0.438800	0.937770
C1821	C182	0.849600	0.700400	0.953060
C1831	C183	0.856400	0.634500	0.919750
C1841	C184	0.866800	0.638600	0.863100
C1851	C185	0.869900	0.708400	0.833700
H1591	H159	0.846700	0.704700	0.798900
H1601	H160	0.847200	0.743400	0.855700
H1611	H161	0.917900	0.721300	0.828000
C1861	C186	0.871300	0.517200	0.856220
C1871	C187	0.878700	0.454300	0.819300
H1621	H162	0.927100	0.447700	0.810100
H1631	H163	0.861600	0.413500	0.838000
H1641	H164	0.852100	0.461500	0.786300
C1881	C188	0.859800	0.509600	0.912800
C1891	C189	0.853600	0.569400	0.945280
C1901	C190	0.847000	0.565000	0.006400
C1911	C191	0.905400	0.564700	0.039400
H1651	H165	0.949500	0.565700	0.023300
C1921	C192	0.900200	0.563100	0.095400
H1661	H166	0.940700	0.562900	0.116600
C1931	C193	0.838200	0.561900	0.120300
H1671	H167	0.835600	0.561900	0.158500
C1941	C194	0.779100	0.560600	0.090100
H1681	H168	0.735800	0.558000	0.107500
C1951	C195	0.782600	0.563200	0.031800
H1691	H169	0.741800	0.563800	0.011000
Cd141	Cd14	0.428080	0.090830	0.244760
O661	O66	0.408950	0.906870	0.450920
O671	O67	0.294680	0.914020	0.446630
O681	O68	0.405070	0.231460	0.466530
O691	O69	0.290080	0.222460	0.465150
O701	O70	0.499000	0.098900	0.163700
H1701	H170	0.507700	0.141900	0.158300
H1711	H171	0.459200	0.089200	0.150000
N141	N14	0.375900	0.080190	0.332160
C1961	C196	0.354500	0.938800	0.437770
C1971	C197	0.349600	0.200400	0.453060
C1981	C198	0.356400	0.134500	0.419750
C1991	C199	0.366800	0.138600	0.363100
C2001	C200	0.369900	0.208400	0.333700
H1721	H172	0.346700	0.204700	0.298900
H1731	H173	0.347200	0.243400	0.355700
H1741	H174	0.417900	0.221300	0.328000
C2011	C201	0.371300	0.017200	0.356220
C2021	C202	0.378700	0.954300	0.319300
H1751	H175	0.427100	0.947700	0.310100
H1761	H176	0.361600	0.913500	0.338000
H1771	H177	0.352100	0.961500	0.286300
C2031	C203	0.359800	0.009600	0.412800
C2041	C204	0.353600	0.069400	0.445280
C2051	C205	0.347000	0.065000	0.506400
C2061	C206	0.405400	0.064700	0.539400
H1781	H178	0.449500	0.065700	0.523300
C2071	C207	0.400200	0.063100	0.595400
H1791	H179	0.440700	0.062900	0.616600
C2081	C208	0.338200	0.061900	0.620300
H1801	H180	0.335600	0.061900	0.658500
C2091	C209	0.279100	0.060600	0.590100
H1811	H181	0.235800	0.058000	0.607500
C2101	C210	0.282600	0.063200	0.531800
H1821	H182	0.241800	0.063800	0.511000
Cd151	Cd15	0.571920	0.409170	0.244760
O711	O71	0.591050	0.593130	0.450920
O721	O72	0.705320	0.585980	0.446630
O731	O73	0.594930	0.268540	0.466530
O741	O74	0.709920	0.277540	0.465150
O751	O75	0.501000	0.401100	0.163700
H1831	H183	0.492300	0.358100	0.158300
H1841	H184	0.540800	0.410800	0.150000
N151	N15	0.624100	0.419810	0.332160
C2111	C211	0.645500	0.561200	0.437770
C2121	C212	0.650400	0.299600	0.453060
C2131	C213	0.643600	0.365500	0.419750
C2141	C214	0.633200	0.361400	0.363100
C2151	C215	0.630100	0.291600	0.333700
H1851	H185	0.653300	0.295300	0.298900
H1861	H186	0.652800	0.256600	0.355700
H1871	H187	0.582100	0.278700	0.328000
C2161	C216	0.628700	0.482800	0.356220
C2171	C217	0.621300	0.545700	0.319300
H1881	H188	0.572900	0.552300	0.310100
H1891	H189	0.638400	0.586500	0.338000
H1901	H190	0.647900	0.538500	0.286300
C2181	C218	0.640200	0.490400	0.412800
C2191	C219	0.646400	0.430600	0.445280
C2201	C220	0.653000	0.435000	0.506400
C2211	C221	0.594600	0.435300	0.539400
H1911	H191	0.550500	0.434300	0.523300
C2221	C222	0.599800	0.436900	0.595400
H1921	H192	0.559300	0.437100	0.616600
C2231	C223	0.661800	0.438100	0.620300
H1931	H193	0.664400	0.438100	0.658500
C2241	C224	0.720900	0.439400	0.590100
H1941	H194	0.764200	0.442000	0.607500
C2251	C225	0.717400	0.436800	0.531800
H1951	H195	0.758200	0.436200	0.511000
Cd161	Cd16	0.071920	0.909170	0.744760
O761	O76	0.091050	0.093130	0.950920
O771	O77	0.205320	0.085980	0.946630
O781	O78	0.094930	0.768540	0.966530
O791	O79	0.209920	0.777540	0.965150
O801	O80	0.001000	0.901100	0.663700
H1961	H196	0.992300	0.858100	0.658300
H1971	H197	0.040800	0.910800	0.650000
N161	N16	0.124100	0.919810	0.832160
C2261	C226	0.145500	0.061200	0.937770
C2271	C227	0.150400	0.799600	0.953060
C2281	C228	0.143600	0.865500	0.919750
C2291	C229	0.133200	0.861400	0.863100
C2301	C230	0.130100	0.791600	0.833700
H1981	H198	0.153300	0.795300	0.798900
H1991	H199	0.152800	0.756600	0.855700
H2001	H200	0.082100	0.778700	0.828000
C2311	C231	0.128700	0.982800	0.856220
C2321	C232	0.121300	0.045700	0.819300
H2011	H201	0.072900	0.052300	0.810100
H2021	H202	0.138400	0.086500	0.838000
H2031	H203	0.147900	0.038500	0.786300
C2331	C233	0.140200	0.990400	0.912800
C2341	C234	0.146400	0.930600	0.945280
C2351	C235	0.153000	0.935000	0.006400
C2361	C236	0.094600	0.935300	0.039400
H2041	H204	0.050500	0.934300	0.023300
C2371	C237	0.099800	0.936900	0.095400
H2051	H205	0.059300	0.937100	0.116600
C2381	C238	0.161800	0.938100	0.120300
H2061	H206	0.164400	0.938100	0.158500
C2391	C239	0.220900	0.939400	0.090100
H2071	H207	0.264200	0.942000	0.107500
C2401	C240	0.217400	0.936800	0.031800
H2081	H208	0.258200	0.936200	0.011000
