data_BUDDIO_freeONLY_PM
_symmetry_space_group_name_H-M	'P1'
_cell_length_a	3.676900
_cell_length_b	8.204200
_cell_length_c	26.292000
_cell_angle_alpha	90.000000
_cell_angle_beta	92.924000
_cell_angle_gamma	90.000000
_symmetry_Int_Tables_number 1

loop_
_symmetry_equiv_pos_as_xyz
'x,y,z'

loop_
_atom_site_label
_atom_site_type_symbol
_atom_site_fract_x
_atom_site_fract_y
_atom_site_fract_z
K11	K1	0.937670	0.272040	0.777110
K21	K2	0.062330	0.772040	0.722890
K31	K3	0.062330	0.727960	0.222890
K41	K4	0.937670	0.227960	0.277110
H11	H1	0.501000	0.546000	0.825200
H21	H2	0.472000	0.461000	0.868000
H31	H3	0.464800	0.662500	0.620800
H41	H4	0.086200	0.203200	0.613700
H51	H5	0.889400	0.249000	0.529300
H61	H6	0.499000	0.046000	0.674800
H71	H7	0.528000	0.961000	0.632000
H81	H8	0.535200	0.162500	0.879200
H91	H9	0.913800	0.703200	0.886300
H101	H10	0.110600	0.749000	0.970700
H111	H11	0.499000	0.454000	0.174800
H121	H12	0.528000	0.539000	0.132000
H131	H13	0.535200	0.337500	0.379200
H141	H14	0.913800	0.796800	0.386300
H151	H15	0.110600	0.751000	0.470700
H161	H16	0.501000	0.954000	0.325200
H171	H17	0.472000	0.039000	0.368000
H181	H18	0.464800	0.837500	0.120800
H191	H19	0.086200	0.296800	0.113700
H201	H20	0.889400	0.251000	0.029300
C11	C1	0.065000	0.483200	0.526900
C21	C2	0.347300	0.576600	0.602120
C31	C3	0.301900	0.429600	0.626360
C41	C4	0.125600	0.306200	0.598380
C51	C5	0.008400	0.333100	0.548570
C61	C6	0.441800	0.404000	0.681020
C71	C7	0.935000	0.983200	0.973100
C81	C8	0.652700	0.076600	0.897880
C91	C9	0.698100	0.929600	0.873640
C101	C10	0.874400	0.806200	0.901620
C111	C11	0.991600	0.833100	0.951430
C121	C12	0.558200	0.904000	0.818980
C131	C13	0.935000	0.516800	0.473100
C141	C14	0.652700	0.423400	0.397880
C151	C15	0.698100	0.570400	0.373640
C161	C16	0.874400	0.693800	0.401620
C171	C17	0.991600	0.666900	0.451430
C181	C18	0.558200	0.596000	0.318980
C191	C19	0.065000	0.016800	0.026900
C201	C20	0.347300	0.923400	0.102120
C211	C21	0.301900	0.070400	0.126360
C221	C22	0.125600	0.193800	0.098380
C231	C23	0.008400	0.166900	0.048570
C241	C24	0.441800	0.096000	0.181020
N11	N1	0.234100	0.605300	0.553330
N21	N2	0.765900	0.105300	0.946670
N31	N3	0.765900	0.394700	0.446670
N41	N4	0.234100	0.894700	0.053330
O11	O1	0.409100	0.263200	0.699340
O21	O2	0.578400	0.523800	0.704220
O31	O3	0.450700	0.453400	0.836610
O41	O4	0.590900	0.763200	0.800660
O51	O5	0.421600	0.023800	0.795780
O61	O6	0.549300	0.953400	0.663390
O71	O7	0.590900	0.736800	0.300660
O81	O8	0.421600	0.476200	0.295780
O91	O9	0.549300	0.546600	0.163390
O101	O10	0.409100	0.236800	0.199340
O111	O11	0.578400	0.976200	0.204220
O121	O12	0.450700	0.046600	0.336610
