data_BUPVEP_freeONLY_PM
_symmetry_space_group_name_H-M	'P1'
_cell_length_a	18.572800
_cell_length_b	18.572800
_cell_length_c	18.572800
_cell_angle_alpha	90.000000
_cell_angle_beta	90.000000
_cell_angle_gamma	90.000000
_symmetry_Int_Tables_number 1

loop_
_symmetry_equiv_pos_as_xyz
'x,y,z'

loop_
_atom_site_label
_atom_site_type_symbol
_atom_site_fract_x
_atom_site_fract_y
_atom_site_fract_z
Ce11	Ce1	0.392900	0.259800	0.244100
O11	O1	0.322500	0.322500	0.177500
O21	O2	0.452000	0.273000	0.128000
O31	O3	0.357000	0.257000	0.053000
C11	C1	0.426000	0.269000	0.064000
C21	C2	0.463000	0.274000	0.000000
O41	O4	0.469600	0.257000	0.349000
O51	O5	0.383000	0.252000	0.434500
C31	C3	0.450000	0.259000	0.419000
C41	C4	0.509000	0.267000	0.464000
Ce21	Ce2	0.607100	0.740200	0.244100
O61	O6	0.677500	0.677500	0.177500
O71	O7	0.548000	0.727000	0.128000
O81	O8	0.643000	0.743000	0.053000
C51	C5	0.574000	0.731000	0.064000
C61	C6	0.537000	0.726000	0.000000
O91	O9	0.530400	0.743000	0.349000
O101	O10	0.617000	0.748000	0.434500
C71	C7	0.550000	0.741000	0.419000
C81	C8	0.491000	0.733000	0.464000
Ce31	Ce3	0.607100	0.259800	0.755900
O111	O11	0.677500	0.322500	0.822500
O121	O12	0.548000	0.273000	0.872000
O131	O13	0.643000	0.257000	0.947000
C91	C9	0.574000	0.269000	0.936000
C101	C10	0.537000	0.274000	0.000000
O141	O14	0.530400	0.257000	0.651000
O151	O15	0.617000	0.252000	0.565500
C111	C11	0.550000	0.259000	0.581000
C121	C12	0.491000	0.267000	0.536000
Ce41	Ce4	0.392900	0.740200	0.755900
O161	O16	0.322500	0.677500	0.822500
O171	O17	0.452000	0.727000	0.872000
O181	O18	0.357000	0.743000	0.947000
C131	C13	0.426000	0.731000	0.936000
C141	C14	0.463000	0.726000	0.000000
O191	O19	0.469600	0.743000	0.651000
O201	O20	0.383000	0.748000	0.565500
C151	C15	0.450000	0.741000	0.581000
C161	C16	0.509000	0.733000	0.536000
Ce51	Ce5	0.244100	0.392900	0.259800
O211	O21	0.177500	0.322500	0.322500
O221	O22	0.128000	0.452000	0.273000
O231	O23	0.053000	0.357000	0.257000
C171	C17	0.064000	0.426000	0.269000
C181	C18	0.000000	0.463000	0.274000
O241	O24	0.349000	0.469600	0.257000
O251	O25	0.434500	0.383000	0.252000
C191	C19	0.419000	0.450000	0.259000
C201	C20	0.464000	0.509000	0.267000
Ce61	Ce6	0.244100	0.607100	0.740200
O261	O26	0.177500	0.677500	0.677500
O271	O27	0.128000	0.548000	0.727000
O281	O28	0.053000	0.643000	0.743000
C211	C21	0.064000	0.574000	0.731000
C221	C22	0.000000	0.537000	0.726000
O291	O29	0.349000	0.530400	0.743000
O301	O30	0.434500	0.617000	0.748000
C231	C23	0.419000	0.550000	0.741000
C241	C24	0.464000	0.491000	0.733000
Ce71	Ce7	0.755900	0.607100	0.259800
O311	O31	0.822500	0.677500	0.322500
O321	O32	0.872000	0.548000	0.273000
O331	O33	0.947000	0.643000	0.257000
C251	C25	0.936000	0.574000	0.269000
C261	C26	0.000000	0.537000	0.274000
O341	O34	0.651000	0.530400	0.257000
O351	O35	0.565500	0.617000	0.252000
C271	C27	0.581000	0.550000	0.259000
C281	C28	0.536000	0.491000	0.267000
Ce81	Ce8	0.755900	0.392900	0.740200
O361	O36	0.822500	0.322500	0.677500
O371	O37	0.872000	0.452000	0.727000
O381	O38	0.947000	0.357000	0.743000
C291	C29	0.936000	0.426000	0.731000
C301	C30	0.000000	0.463000	0.726000
O391	O39	0.651000	0.469600	0.743000
O401	O40	0.565500	0.383000	0.748000
C311	C31	0.581000	0.450000	0.741000
C321	C32	0.536000	0.509000	0.733000
Ce91	Ce9	0.259800	0.244100	0.392900
O411	O41	0.322500	0.177500	0.322500
O421	O42	0.273000	0.128000	0.452000
O431	O43	0.257000	0.053000	0.357000
C331	C33	0.269000	0.064000	0.426000
C341	C34	0.274000	0.000000	0.463000
O441	O44	0.257000	0.349000	0.469600
O451	O45	0.252000	0.434500	0.383000
C351	C35	0.259000	0.419000	0.450000
C361	C36	0.267000	0.464000	0.509000
Ce101	Ce10	0.740200	0.244100	0.607100
O461	O46	0.677500	0.177500	0.677500
O471	O47	0.727000	0.128000	0.548000
O481	O48	0.743000	0.053000	0.643000
C371	C37	0.731000	0.064000	0.574000
C381	C38	0.726000	0.000000	0.537000
O491	O49	0.743000	0.349000	0.530400
O501	O50	0.748000	0.434500	0.617000
C391	C39	0.741000	0.419000	0.550000
C401	C40	0.733000	0.464000	0.491000
Ce111	Ce11	0.259800	0.755900	0.607100
O511	O51	0.322500	0.822500	0.677500
O521	O52	0.273000	0.872000	0.548000
O531	O53	0.257000	0.947000	0.643000
C411	C41	0.269000	0.936000	0.574000
C421	C42	0.274000	0.000000	0.537000
O541	O54	0.257000	0.651000	0.530400
O551	O55	0.252000	0.565500	0.617000
C431	C43	0.259000	0.581000	0.550000
C441	C44	0.267000	0.536000	0.491000
Ce121	Ce12	0.740200	0.755900	0.392900
O561	O56	0.677500	0.822500	0.322500
O571	O57	0.727000	0.872000	0.452000
O581	O58	0.743000	0.947000	0.357000
C451	C45	0.731000	0.936000	0.426000
C461	C46	0.726000	0.000000	0.463000
O591	O59	0.743000	0.651000	0.469600
O601	O60	0.748000	0.565500	0.383000
C471	C47	0.741000	0.581000	0.450000
C481	C48	0.733000	0.536000	0.509000
Ce131	Ce13	0.107100	0.240200	0.255900
O611	O61	0.177500	0.177500	0.322500
O621	O62	0.048000	0.227000	0.372000
O631	O63	0.143000	0.243000	0.447000
C491	C49	0.074000	0.231000	0.436000
C501	C50	0.037000	0.226000	0.500000
O641	O64	0.030400	0.243000	0.151000
O651	O65	0.117000	0.248000	0.065500
C511	C51	0.050000	0.241000	0.081000
C521	C52	0.991000	0.233000	0.036000
Ce141	Ce14	0.892900	0.759800	0.255900
O661	O66	0.822500	0.822500	0.322500
O671	O67	0.952000	0.773000	0.372000
O681	O68	0.857000	0.757000	0.447000
C531	C53	0.926000	0.769000	0.436000
C541	C54	0.963000	0.774000	0.500000
O691	O69	0.969600	0.757000	0.151000
O701	O70	0.883000	0.752000	0.065500
C551	C55	0.950000	0.759000	0.081000
C561	C56	0.009000	0.767000	0.036000
Ce151	Ce15	0.892900	0.240200	0.744100
O711	O71	0.822500	0.177500	0.677500
O721	O72	0.952000	0.227000	0.628000
O731	O73	0.857000	0.243000	0.553000
C571	C57	0.926000	0.231000	0.564000
C581	C58	0.963000	0.226000	0.500000
O741	O74	0.969600	0.243000	0.849000
O751	O75	0.883000	0.248000	0.934500
C591	C59	0.950000	0.241000	0.919000
C601	C60	0.009000	0.233000	0.964000
Ce161	Ce16	0.107100	0.759800	0.744100
O761	O76	0.177500	0.822500	0.677500
O771	O77	0.048000	0.773000	0.628000
O781	O78	0.143000	0.757000	0.553000
C611	C61	0.074000	0.769000	0.564000
C621	C62	0.037000	0.774000	0.500000
O791	O79	0.030400	0.757000	0.849000
O801	O80	0.117000	0.752000	0.934500
C631	C63	0.050000	0.759000	0.919000
C641	C64	0.991000	0.767000	0.964000
Ce171	Ce17	0.255900	0.107100	0.240200
O811	O81	0.322500	0.177500	0.177500
O821	O82	0.372000	0.048000	0.227000
O831	O83	0.447000	0.143000	0.243000
C651	C65	0.436000	0.074000	0.231000
C661	C66	0.500000	0.037000	0.226000
O841	O84	0.151000	0.030400	0.243000
O851	O85	0.065500	0.117000	0.248000
C671	C67	0.081000	0.050000	0.241000
C681	C68	0.036000	0.991000	0.233000
Ce181	Ce18	0.255900	0.892900	0.759800
O861	O86	0.322500	0.822500	0.822500
O871	O87	0.372000	0.952000	0.773000
O881	O88	0.447000	0.857000	0.757000
C691	C69	0.436000	0.926000	0.769000
C701	C70	0.500000	0.963000	0.774000
O891	O89	0.151000	0.969600	0.757000
O901	O90	0.065500	0.883000	0.752000
C711	C71	0.081000	0.950000	0.759000
C721	C72	0.036000	0.009000	0.767000
Ce191	Ce19	0.744100	0.892900	0.240200
O911	O91	0.677500	0.822500	0.177500
O921	O92	0.628000	0.952000	0.227000
O931	O93	0.553000	0.857000	0.243000
C731	C73	0.564000	0.926000	0.231000
C741	C74	0.500000	0.963000	0.226000
O941	O94	0.849000	0.969600	0.243000
O951	O95	0.934500	0.883000	0.248000
C751	C75	0.919000	0.950000	0.241000
C761	C76	0.964000	0.009000	0.233000
Ce201	Ce20	0.744100	0.107100	0.759800
O961	O96	0.677500	0.177500	0.822500
O971	O97	0.628000	0.048000	0.773000
O981	O98	0.553000	0.143000	0.757000
C771	C77	0.564000	0.074000	0.769000
C781	C78	0.500000	0.037000	0.774000
O991	O99	0.849000	0.030400	0.757000
O1001	O100	0.934500	0.117000	0.752000
C791	C79	0.919000	0.050000	0.759000
C801	C80	0.964000	0.991000	0.767000
Ce211	Ce21	0.240200	0.255900	0.107100
O1011	O101	0.177500	0.322500	0.177500
O1021	O102	0.227000	0.372000	0.048000
O1031	O103	0.243000	0.447000	0.143000
C811	C81	0.231000	0.436000	0.074000
C821	C82	0.226000	0.500000	0.037000
O1041	O104	0.243000	0.151000	0.030400
O1051	O105	0.248000	0.065500	0.117000
C831	C83	0.241000	0.081000	0.050000
C841	C84	0.233000	0.036000	0.991000
Ce221	Ce22	0.759800	0.255900	0.892900
O1061	O106	0.822500	0.322500	0.822500
O1071	O107	0.773000	0.372000	0.952000
O1081	O108	0.757000	0.447000	0.857000
C851	C85	0.769000	0.436000	0.926000
C861	C86	0.774000	0.500000	0.963000
O1091	O109	0.757000	0.151000	0.969600
O1101	O110	0.752000	0.065500	0.883000
C871	C87	0.759000	0.081000	0.950000
C881	C88	0.767000	0.036000	0.009000
Ce231	Ce23	0.240200	0.744100	0.892900
O1111	O111	0.177500	0.677500	0.822500
O1121	O112	0.227000	0.628000	0.952000
O1131	O113	0.243000	0.553000	0.857000
C891	C89	0.231000	0.564000	0.926000
C901	C90	0.226000	0.500000	0.963000
O1141	O114	0.243000	0.849000	0.969600
O1151	O115	0.248000	0.934500	0.883000
C911	C91	0.241000	0.919000	0.950000
C921	C92	0.233000	0.964000	0.009000
Ce241	Ce24	0.759800	0.744100	0.107100
O1161	O116	0.822500	0.677500	0.177500
O1171	O117	0.773000	0.628000	0.048000
O1181	O118	0.757000	0.553000	0.143000
C931	C93	0.769000	0.564000	0.074000
C941	C94	0.774000	0.500000	0.037000
O1191	O119	0.757000	0.849000	0.030400
O1201	O120	0.752000	0.934500	0.117000
C951	C95	0.759000	0.919000	0.050000
C961	C96	0.767000	0.964000	0.991000
O1211	O121	0.334900	0.334900	0.334900
O1221	O122	0.665100	0.665100	0.334900
O1231	O123	0.665100	0.334900	0.665100
O1241	O124	0.334900	0.665100	0.665100
O1251	O125	0.165100	0.165100	0.165100
O1261	O126	0.834900	0.834900	0.165100
O1271	O127	0.834900	0.165100	0.834900
O1281	O128	0.165100	0.834900	0.834900
