data_BUSGOM_freeONLY_PM
_symmetry_space_group_name_H-M	'P1'
_cell_length_a	9.233300
_cell_length_b	9.550300
_cell_length_c	21.585000
_cell_angle_alpha	90.000000
_cell_angle_beta	90.000000
_cell_angle_gamma	116.006000
_symmetry_Int_Tables_number 1

loop_
_symmetry_equiv_pos_as_xyz
'x,y,z'

loop_
_atom_site_label
_atom_site_type_symbol
_atom_site_fract_x
_atom_site_fract_y
_atom_site_fract_z
Sm11	Sm1	0.623410	0.859220	0.991440
Sm21	Sm2	0.876590	0.140780	0.491440
Sm31	Sm3	0.376590	0.140780	0.008560
Sm41	Sm4	0.123410	0.859220	0.508560
Cu11	Cu1	0.959140	0.808840	0.854550
Cu21	Cu2	0.540860	0.191160	0.354550
Cu31	Cu3	0.040860	0.191160	0.145450
Cu41	Cu4	0.459140	0.808840	0.645450
H11	H1	0.608900	0.817300	0.166400
H21	H2	0.060800	0.296900	0.930100
H31	H3	0.255800	0.499300	0.874800
H41	H4	0.792500	0.529200	0.929700
H51	H5	0.647200	0.771900	0.269000
H61	H6	0.206300	0.703200	0.843600
H71	H7	0.496000	0.154200	0.223900
H81	H8	0.625200	0.926500	0.344800
H91	H9	0.891100	0.182700	0.666400
H101	H10	0.439200	0.703100	0.430100
H111	H11	0.244200	0.500700	0.374800
H121	H12	0.707500	0.470800	0.429700
H131	H13	0.852800	0.228100	0.769000
H141	H14	0.293700	0.296800	0.343600
H151	H15	0.004000	0.845800	0.723900
H161	H16	0.874800	0.073500	0.844800
H171	H17	0.391100	0.182700	0.833600
H181	H18	0.939200	0.703100	0.069900
H191	H19	0.744200	0.500700	0.125200
H201	H20	0.207500	0.470800	0.070300
H211	H21	0.352800	0.228100	0.731000
H221	H22	0.793700	0.296800	0.156400
H231	H23	0.504000	0.845800	0.776100
H241	H24	0.374800	0.073500	0.655200
H251	H25	0.108900	0.817300	0.333600
H261	H26	0.560800	0.296900	0.569900
H271	H27	0.755800	0.499300	0.625200
H281	H28	0.292500	0.529200	0.570300
H291	H29	0.147200	0.771900	0.231000
H301	H30	0.706300	0.703200	0.656400
H311	H31	0.996000	0.154200	0.276100
H321	H32	0.125200	0.926500	0.155200
C11	C1	0.546000	0.991500	0.184500
C21	C2	0.511400	0.027300	0.120500
C31	C3	0.594100	0.876300	0.197900
C41	C4	0.771900	0.259500	0.969400
C51	C5	0.903800	0.390400	0.934900
C61	C6	0.044100	0.382600	0.918600
C71	C7	0.159200	0.501800	0.885200
C81	C8	0.885000	0.521100	0.917300
C91	C9	0.619300	0.851400	0.258700
C101	C10	0.129600	0.624700	0.867500
C111	C11	0.529100	0.077500	0.233000
C121	C12	0.603500	0.943000	0.304100
C131	C13	0.488800	0.492000	0.964500
C141	C14	0.003500	0.977200	0.966300
C151	C15	0.954000	0.008500	0.684500
C161	C16	0.988600	0.972700	0.620500
C171	C17	0.905900	0.123700	0.697900
C181	C18	0.728100	0.740500	0.469400
C191	C19	0.596200	0.609600	0.434900
C201	C20	0.455900	0.617400	0.418600
C211	C21	0.340800	0.498200	0.385200
C221	C22	0.615000	0.478900	0.417300
C231	C23	0.880700	0.148600	0.758700
C241	C24	0.370400	0.375300	0.367500
C251	C25	0.970900	0.922500	0.733000
C261	C26	0.896500	0.057000	0.804100
C271	C27	0.011200	0.508000	0.464500
C281	C28	0.496500	0.022800	0.466300
C291	C29	0.454000	0.008500	0.815500
C301	C30	0.488600	0.972700	0.879500
C311	C31	0.405900	0.123700	0.802100
C321	C32	0.228100	0.740500	0.030600
C331	C33	0.096200	0.609600	0.065100
C341	C34	0.955900	0.617400	0.081400
C351	C35	0.840800	0.498200	0.114800
C361	C36	0.115000	0.478900	0.082700
C371	C37	0.380700	0.148600	0.741300
C381	C38	0.870400	0.375300	0.132500
C391	C39	0.470900	0.922500	0.767000
C401	C40	0.396500	0.057000	0.695900
C411	C41	0.511200	0.508000	0.035500
C421	C42	0.996500	0.022800	0.033700
C431	C43	0.046000	0.991500	0.315500
C441	C44	0.011400	0.027300	0.379500
C451	C45	0.094100	0.876300	0.302100
C461	C46	0.271900	0.259500	0.530600
C471	C47	0.403800	0.390400	0.565100
C481	C48	0.544100	0.382600	0.581400
C491	C49	0.659200	0.501800	0.614800
C501	C50	0.385000	0.521100	0.582700
C511	C51	0.119300	0.851400	0.241300
C521	C52	0.629600	0.624700	0.632500
C531	C53	0.029100	0.077500	0.267000
C541	C54	0.103500	0.943000	0.195900
C551	C55	0.988800	0.492000	0.535500
C561	C56	0.503500	0.977200	0.533700
N11	N1	0.995000	0.636900	0.883100
N21	N2	0.557700	0.056800	0.292500
N31	N3	0.505000	0.363100	0.383100
N41	N4	0.942300	0.943200	0.792500
N51	N5	0.005000	0.363100	0.116900
N61	N6	0.442300	0.943200	0.707500
N71	N7	0.495000	0.636900	0.616900
N81	N8	0.057700	0.056800	0.207500
O11	O1	0.873200	0.882200	0.942140
O21	O2	0.780000	0.132100	0.969620
O31	O3	0.550400	0.968300	0.075490
O41	O4	0.551200	0.615400	0.933720
O51	O5	0.664000	0.287300	0.994200
O61	O6	0.443100	0.114500	0.114380
O71	O7	0.408900	0.357900	0.943140
O81	O8	0.136600	0.037700	0.939330
O91	O9	0.626800	0.117800	0.442140
O101	O10	0.720000	0.867900	0.469620
O111	O11	0.949600	0.031700	0.575490
O121	O12	0.948800	0.384600	0.433720
O131	O13	0.836000	0.712700	0.494200
O141	O14	0.056900	0.885500	0.614380
O151	O15	0.091100	0.642100	0.443140
O161	O16	0.363400	0.962300	0.439330
O171	O17	0.126800	0.117800	0.057860
O181	O18	0.220000	0.867900	0.030380
O191	O19	0.449600	0.031700	0.924510
O201	O20	0.448800	0.384600	0.066280
O211	O21	0.336000	0.712700	0.005800
O221	O22	0.556900	0.885500	0.885620
O231	O23	0.591100	0.642100	0.056860
O241	O24	0.863400	0.962300	0.060670
O251	O25	0.373200	0.882200	0.557860
O261	O26	0.280000	0.132100	0.530380
O271	O27	0.050400	0.968300	0.424510
O281	O28	0.051200	0.615400	0.566280
O291	O29	0.164000	0.287300	0.505800
O301	O30	0.943100	0.114500	0.385620
O311	O31	0.908900	0.357900	0.556860
O321	O32	0.636600	0.037700	0.560670
