data_BUSQEM_freeONLY_PM
_symmetry_space_group_name_H-M	'P1'
_cell_length_a	11.616000
_cell_length_b	12.503000
_cell_length_c	14.891000
_cell_angle_alpha	90.000000
_cell_angle_beta	90.000000
_cell_angle_gamma	90.000000
_symmetry_Int_Tables_number 1

loop_
_symmetry_equiv_pos_as_xyz
'x,y,z'

loop_
_atom_site_label
_atom_site_type_symbol
_atom_site_fract_x
_atom_site_fract_y
_atom_site_fract_z
Mn11	Mn1	0.500000	0.500000	0.250000
Mn21	Mn2	0.500000	0.500000	0.750000
H11	H1	0.300600	0.782600	0.364100
H21	H2	0.163500	0.918000	0.364800
H31	H3	0.286000	0.651900	0.218700
H41	H4	0.086700	0.657100	0.219200
H51	H5	0.699400	0.217400	0.364100
H61	H6	0.836500	0.082000	0.364800
H71	H7	0.714000	0.348100	0.218700
H81	H8	0.913300	0.342900	0.219200
H91	H9	0.699400	0.782600	0.135900
H101	H10	0.836500	0.918000	0.135200
H111	H11	0.714000	0.651900	0.281300
H121	H12	0.913300	0.657100	0.280800
H131	H13	0.300600	0.217400	0.135900
H141	H14	0.163500	0.082000	0.135200
H151	H15	0.286000	0.348100	0.281300
H161	H16	0.086700	0.342900	0.280800
H171	H17	0.699400	0.217400	0.635900
H181	H18	0.836500	0.082000	0.635200
H191	H19	0.714000	0.348100	0.781300
H201	H20	0.913300	0.342900	0.780800
H211	H21	0.300600	0.782600	0.635900
H221	H22	0.163500	0.918000	0.635200
H231	H23	0.286000	0.651900	0.781300
H241	H24	0.086700	0.657100	0.780800
H251	H25	0.300600	0.217400	0.864100
H261	H26	0.163500	0.082000	0.864800
H271	H27	0.286000	0.348100	0.718700
H281	H28	0.086700	0.342900	0.719200
H291	H29	0.699400	0.782600	0.864100
H301	H30	0.836500	0.918000	0.864800
H311	H31	0.714000	0.651900	0.718700
H321	H32	0.913300	0.657100	0.719200
C11	C1	0.463200	0.658300	0.420200
C21	C2	0.275700	0.812000	0.419600
C31	C3	0.194200	0.892600	0.420000
C41	C4	0.077100	0.092000	0.420300
C51	C5	0.244900	0.588200	0.232200
C61	C6	0.125700	0.592000	0.231900
C71	C7	0.536800	0.341700	0.420200
C81	C8	0.724300	0.188000	0.419600
C91	C9	0.805800	0.107400	0.420000
C101	C10	0.922900	0.908000	0.420300
C111	C11	0.755100	0.411800	0.232200
C121	C12	0.874300	0.408000	0.231900
C131	C13	0.536800	0.658300	0.079800
C141	C14	0.724300	0.812000	0.080400
C151	C15	0.805800	0.892600	0.080000
C161	C16	0.922900	0.092000	0.079700
C171	C17	0.755100	0.588200	0.267800
C181	C18	0.874300	0.592000	0.268100
C191	C19	0.463200	0.341700	0.079800
C201	C20	0.275700	0.188000	0.080400
C211	C21	0.194200	0.107400	0.080000
C221	C22	0.077100	0.908000	0.079700
C231	C23	0.244900	0.411800	0.267800
C241	C24	0.125700	0.408000	0.268100
C251	C25	0.536800	0.341700	0.579800
C261	C26	0.724300	0.188000	0.580400
C271	C27	0.805800	0.107400	0.580000
C281	C28	0.922900	0.908000	0.579700
C291	C29	0.755100	0.411800	0.767800
C301	C30	0.874300	0.408000	0.768100
C311	C31	0.463200	0.658300	0.579800
C321	C32	0.275700	0.812000	0.580400
C331	C33	0.194200	0.892600	0.580000
C341	C34	0.077100	0.092000	0.579700
C351	C35	0.244900	0.588200	0.767800
C361	C36	0.125700	0.592000	0.768100
C371	C37	0.463200	0.341700	0.920200
C381	C38	0.275700	0.188000	0.919600
C391	C39	0.194200	0.107400	0.920000
C401	C40	0.077100	0.908000	0.920300
C411	C41	0.244900	0.411800	0.732200
C421	C42	0.125700	0.408000	0.731900
C431	C43	0.536800	0.658300	0.920200
C441	C44	0.724300	0.812000	0.919600
C451	C45	0.805800	0.892600	0.920000
C461	C46	0.922900	0.092000	0.920300
C471	C47	0.755100	0.588200	0.732200
C481	C48	0.874300	0.592000	0.731900
C491	C49	0.064200	0.500000	0.250000
C501	C50	0.935800	0.500000	0.250000
C511	C51	0.935800	0.500000	0.750000
C521	C52	0.064200	0.500000	0.750000
C531	C53	0.417300	0.697900	0.500000
C541	C54	0.323200	0.773600	0.500000
C551	C55	0.156500	0.936200	0.500000
C561	C56	0.063800	0.027200	0.500000
C571	C57	0.582700	0.302100	0.500000
C581	C58	0.676800	0.226400	0.500000
C591	C59	0.843500	0.063800	0.500000
C601	C60	0.936200	0.972800	0.500000
C611	C61	0.582700	0.697900	0.000000
C621	C62	0.676800	0.773600	0.000000
C631	C63	0.843500	0.936200	0.000000
C641	C64	0.936200	0.027200	0.000000
C651	C65	0.417300	0.302100	0.000000
C661	C66	0.323200	0.226400	0.000000
C671	C67	0.156500	0.063800	0.000000
C681	C68	0.063800	0.972800	0.000000
N11	N1	0.501400	0.625300	0.354200
N21	N2	0.094100	0.139600	0.357300
N31	N3	0.498600	0.374700	0.354200
N41	N4	0.905900	0.860400	0.357300
N51	N5	0.498600	0.625300	0.145800
N61	N6	0.905900	0.139600	0.142700
N71	N7	0.501400	0.374700	0.145800
N81	N8	0.094100	0.860400	0.142700
N91	N9	0.498600	0.374700	0.645800
N101	N10	0.905900	0.860400	0.642700
N111	N11	0.501400	0.625300	0.645800
N121	N12	0.094100	0.139600	0.642700
N131	N13	0.501400	0.374700	0.854200
N141	N14	0.094100	0.860400	0.857300
N151	N15	0.498600	0.625300	0.854200
N161	N16	0.905900	0.139600	0.857300
N171	N17	0.304500	0.500000	0.250000
N181	N18	0.695500	0.500000	0.250000
N191	N19	0.695500	0.500000	0.750000
N201	N20	0.304500	0.500000	0.750000
