data_BUVYIB01_freeONLY_PM
_symmetry_space_group_name_H-M	'P1'
_cell_length_a	12.398200
_cell_length_b	18.892900
_cell_length_c	18.892900
_cell_angle_alpha	64.645000
_cell_angle_beta	77.364600
_cell_angle_gamma	102.635000
_symmetry_Int_Tables_number 1

loop_
_symmetry_equiv_pos_as_xyz
'x,y,z'

loop_
_atom_site_label
_atom_site_type_symbol
_atom_site_fract_x
_atom_site_fract_y
_atom_site_fract_z
Fe11	Fe1	0.000000	0.000000	0.500000
Fe21	Fe2	0.500000	0.500000	0.500000
Fe31	Fe3	0.000000	0.500000	0.000000
H11	H1	0.321000	0.072400	0.250100
H21	H2	0.403300	0.973600	0.311500
H31	H3	0.319300	0.880800	0.454800
H41	H4	0.161100	0.890500	0.532900
H51	H5	0.196900	0.295100	0.102900
H61	H6	0.171000	0.408500	0.009000
H71	H7	0.877800	0.365000	0.176400
H81	H8	0.899200	0.251400	0.274300
H91	H9	0.571100	0.250100	0.677500
H101	H10	0.714800	0.311500	0.714900
H111	H11	0.774100	0.454800	0.664400
H121	H12	0.694000	0.532900	0.576600
H131	H13	0.299800	0.102900	0.602000
H141	H14	0.180000	0.009000	0.582500
H151	H15	0.054200	0.176400	0.458600
H161	H16	0.173500	0.274300	0.474300
H171	H17	0.248600	0.677500	0.072400
H181	H18	0.429700	0.714900	0.973600
H191	H19	0.438500	0.664400	0.880800
H201	H20	0.270600	0.576600	0.890500
H211	H21	0.901800	0.602000	0.295100
H221	H22	0.762500	0.582500	0.408500
H231	H23	0.512800	0.458600	0.365000
H241	H24	0.647800	0.474300	0.251400
H251	H25	0.679000	0.927600	0.749900
H261	H26	0.596700	0.026400	0.688500
H271	H27	0.680700	0.119200	0.545200
H281	H28	0.838900	0.109500	0.467100
H291	H29	0.803100	0.704900	0.897100
H301	H30	0.829000	0.591500	0.991000
H311	H31	0.122200	0.635000	0.823600
H321	H32	0.100800	0.748600	0.725700
H331	H33	0.428900	0.749900	0.322500
H341	H34	0.285200	0.688500	0.285100
H351	H35	0.225900	0.545200	0.335600
H361	H36	0.306000	0.467100	0.423400
H371	H37	0.700200	0.897100	0.398000
H381	H38	0.820000	0.991000	0.417500
H391	H39	0.945800	0.823600	0.541400
H401	H40	0.826500	0.725700	0.525700
H411	H41	0.751400	0.322500	0.927600
H421	H42	0.570300	0.285100	0.026400
H431	H43	0.561500	0.335600	0.119200
H441	H44	0.729400	0.423400	0.109500
H451	H45	0.098200	0.398000	0.704900
H461	H46	0.237500	0.417500	0.591500
H471	H47	0.487200	0.541400	0.635000
H481	H48	0.352200	0.525700	0.748600
C11	C1	0.130490	0.095110	0.328040
C21	C2	0.067920	0.188330	0.264270
C31	C3	0.191840	0.038050	0.357230
C41	C4	0.288970	0.035000	0.307590
C51	C5	0.337810	0.976320	0.343890
C61	C6	0.288250	0.921370	0.429220
C71	C7	0.193060	0.927600	0.475320
C81	C8	0.053630	0.260530	0.199940
C91	C9	0.131680	0.308680	0.119540
C101	C10	0.115300	0.376550	0.063150
C111	C11	0.943360	0.351160	0.161480
C121	C12	0.955670	0.283000	0.220490
C131	C13	0.458530	0.328040	0.576850
C141	C14	0.332190	0.264270	0.547400
C151	C15	0.549070	0.357230	0.604720
C161	C16	0.596560	0.307590	0.657410
C171	C17	0.681700	0.343890	0.679790
C181	C18	0.717470	0.429220	0.649410
C191	C19	0.668380	0.475320	0.597080
C201	C20	0.253570	0.199940	0.539530
C211	C21	0.251220	0.119540	0.571780
C221	C22	0.178450	0.063150	0.560300
C231	C23	0.104840	0.161480	0.487360
C241	C24	0.176160	0.220490	0.496510
C251	C25	0.035380	0.576850	0.095110
C261	C26	0.879590	0.547400	0.188330
C271	C27	0.153790	0.604720	0.038050
C281	C28	0.253970	0.657410	0.035000
C291	C29	0.361490	0.679790	0.976320
C301	C30	0.366880	0.649410	0.921370
C311	C31	0.265460	0.597080	0.927600
C321	C32	0.793100	0.539530	0.260530
C331	C33	0.823000	0.571780	0.308680
C341	C34	0.738750	0.560300	0.376550
C351	C35	0.592200	0.487360	0.351160
C361	C36	0.672670	0.496510	0.283000
C371	C37	0.869510	0.904890	0.671960
C381	C38	0.932080	0.811670	0.735730
C391	C39	0.808160	0.961950	0.642770
C401	C40	0.711030	0.965000	0.692410
C411	C41	0.662190	0.023680	0.656110
C421	C42	0.711750	0.078630	0.570780
C431	C43	0.806940	0.072400	0.524680
C441	C44	0.946370	0.739470	0.800060
C451	C45	0.868320	0.691320	0.880460
C461	C46	0.884700	0.623450	0.936850
C471	C47	0.056640	0.648840	0.838520
C481	C48	0.044330	0.717000	0.779510
C491	C49	0.541470	0.671960	0.423150
C501	C50	0.667810	0.735730	0.452600
C511	C51	0.450930	0.642770	0.395280
C521	C52	0.403440	0.692410	0.342590
C531	C53	0.318300	0.656110	0.320210
C541	C54	0.282530	0.570780	0.350590
C551	C55	0.331620	0.524680	0.402920
C561	C56	0.746430	0.800060	0.460470
C571	C57	0.748780	0.880460	0.428220
C581	C58	0.821550	0.936850	0.439700
C591	C59	0.895160	0.838520	0.512640
C601	C60	0.823840	0.779510	0.503490
C611	C61	0.964620	0.423150	0.904890
C621	C62	0.120410	0.452600	0.811670
C631	C63	0.846210	0.395280	0.961950
C641	C64	0.746030	0.342590	0.965000
C651	C65	0.638510	0.320210	0.023680
C661	C66	0.633120	0.350590	0.078630
C671	C67	0.734540	0.402920	0.072400
C681	C68	0.206900	0.460470	0.739470
C691	C69	0.177000	0.428220	0.691320
C701	C70	0.261250	0.439700	0.623450
C711	C71	0.407800	0.512640	0.648840
C721	C72	0.327330	0.503490	0.717000
N11	N1	0.036360	0.087370	0.384890
N21	N2	0.993930	0.146990	0.344400
N31	N3	0.154450	0.158560	0.250010
N41	N4	0.142220	0.985070	0.441830
N51	N5	0.022180	0.399770	0.081930
N61	N6	0.421250	0.384890	0.527740
N71	N7	0.338330	0.344400	0.508610
N81	N8	0.404460	0.250010	0.591430
N91	N9	0.584050	0.441830	0.573100
N101	N10	0.104110	0.081930	0.518300
N111	N11	0.948990	0.527740	0.087370
N121	N12	0.846940	0.508610	0.146990
N131	N13	0.995890	0.591430	0.158560
N141	N14	0.157150	0.573100	0.985070
N151	N15	0.622410	0.518300	0.399770
N161	N16	0.963640	0.912630	0.615110
N171	N17	0.006070	0.853010	0.655600
N181	N18	0.845550	0.841440	0.749990
N191	N19	0.857780	0.014930	0.558170
N201	N20	0.977820	0.600230	0.918070
N211	N21	0.578750	0.615110	0.472260
N221	N22	0.661670	0.655600	0.491390
N231	N23	0.595540	0.749990	0.408570
N241	N24	0.415950	0.558170	0.426900
N251	N25	0.895890	0.918070	0.481700
N261	N26	0.051010	0.472260	0.912630
N271	N27	0.153060	0.491390	0.853010
N281	N28	0.004110	0.408570	0.841440
N291	N29	0.842850	0.426900	0.014930
N301	N30	0.377590	0.481700	0.600230
