data_BUVYIB_freeONLY_PM
_symmetry_space_group_name_H-M	'P1'
_cell_length_a	11.899800
_cell_length_b	18.979200
_cell_length_c	18.979200
_cell_angle_alpha	64.247800
_cell_angle_beta	77.936400
_cell_angle_gamma	102.064000
_symmetry_Int_Tables_number 1

loop_
_symmetry_equiv_pos_as_xyz
'x,y,z'

loop_
_atom_site_label
_atom_site_type_symbol
_atom_site_fract_x
_atom_site_fract_y
_atom_site_fract_z
Fe11	Fe1	0.500000	0.000000	0.500000
Fe21	Fe2	0.000000	0.500000	0.500000
Fe31	Fe3	0.500000	0.500000	0.000000
H11	H1	0.238000	0.064100	0.684100
H21	H2	0.050400	0.962500	0.722300
H31	H3	0.046600	0.874700	0.664500
H41	H4	0.221400	0.889300	0.573500
H51	H5	0.854400	0.253300	0.472200
H61	H6	0.993000	0.367700	0.456100
H71	H7	0.730800	0.409000	0.583200
H81	H8	0.585200	0.294700	0.602100
H91	H9	0.922100	0.684100	0.251800
H101	H10	0.772700	0.722300	0.315200
H111	H11	0.711100	0.664500	0.460800
H121	H12	0.794900	0.573500	0.537200
H131	H13	0.326600	0.472200	0.274500
H141	H14	0.449100	0.456100	0.176200
H151	H15	0.314000	0.583200	0.007800
H161	H16	0.187300	0.602100	0.103200
H171	H17	0.173900	0.251800	0.064100
H181	H18	0.087900	0.315200	0.962500
H191	H19	0.171900	0.460800	0.874700
H201	H20	0.332100	0.537200	0.889300
H211	H21	0.601100	0.274500	0.253300
H221	H22	0.625300	0.176200	0.367700
H231	H23	0.321800	0.007800	0.409000
H241	H24	0.290500	0.103200	0.294700
H251	H25	0.762000	0.935900	0.315900
H261	H26	0.949600	0.037500	0.277700
H271	H27	0.953400	0.125300	0.335500
H281	H28	0.778600	0.110700	0.426500
H291	H29	0.145600	0.746700	0.527800
H301	H30	0.007000	0.632300	0.543900
H311	H31	0.269200	0.591000	0.416800
H321	H32	0.414800	0.705300	0.397900
H331	H33	0.077900	0.315900	0.748200
H341	H34	0.227300	0.277700	0.684800
H351	H35	0.288900	0.335500	0.539200
H361	H36	0.205100	0.426500	0.462800
H371	H37	0.673400	0.527800	0.725500
H381	H38	0.550900	0.543900	0.823800
H391	H39	0.686000	0.416800	0.992200
H401	H40	0.812700	0.397900	0.896800
H411	H41	0.826100	0.748200	0.935900
H421	H42	0.912100	0.684800	0.037500
H431	H43	0.828100	0.539200	0.125300
H441	H44	0.667900	0.462800	0.110700
H451	H45	0.398900	0.725500	0.746700
H461	H46	0.374700	0.823800	0.632300
H471	H47	0.678200	0.992200	0.591000
H481	H48	0.709500	0.896800	0.705300
C11	C1	0.457700	0.092900	0.578800
C21	C2	0.616390	0.187840	0.548070
C31	C3	0.335030	0.033080	0.607690
C41	C4	0.232910	0.027520	0.662190
C51	C5	0.122710	0.968060	0.684630
C61	C6	0.121050	0.916360	0.650210
C71	C7	0.225500	0.925250	0.596250
C81	C8	0.703910	0.259980	0.539150
C91	C9	0.826880	0.284430	0.495590
C101	C10	0.909170	0.352810	0.486000
C111	C11	0.756060	0.376940	0.560260
C121	C12	0.668580	0.308690	0.572050
C131	C13	0.036500	0.578800	0.328300
C141	C14	0.164460	0.548070	0.264090
C151	C15	0.942720	0.607690	0.359230
C161	C16	0.895100	0.662190	0.310290
C171	C17	0.807340	0.684630	0.347310
C181	C18	0.771260	0.650210	0.433430
C191	C19	0.821750	0.596250	0.478500
C201	C20	0.243060	0.539150	0.200870
C211	C21	0.322470	0.495590	0.219980
C221	C22	0.395170	0.486000	0.161190
C231	C23	0.316320	0.560260	0.062800
C241	C24	0.240630	0.572050	0.119260
C251	C25	0.364800	0.328300	0.092900
C261	C26	0.428550	0.264090	0.187840
C271	C27	0.301950	0.359230	0.033080
C281	C28	0.205390	0.310290	0.027520
C291	C29	0.154650	0.347310	0.968060
C301	C30	0.204690	0.433430	0.916360
C311	C31	0.300250	0.478500	0.925250
C321	C32	0.443930	0.200870	0.259980
C331	C33	0.542450	0.219980	0.284430
C341	C34	0.556360	0.161190	0.352810
C351	C35	0.379120	0.062800	0.376940
C361	C36	0.359890	0.119260	0.308690
C371	C37	0.542300	0.907100	0.421200
C381	C38	0.383610	0.812160	0.451930
C391	C39	0.664970	0.966920	0.392310
C401	C40	0.767090	0.972480	0.337810
C411	C41	0.877290	0.031940	0.315370
C421	C42	0.878950	0.083640	0.349790
C431	C43	0.774500	0.074750	0.403750
C441	C44	0.296090	0.740020	0.460850
C451	C45	0.173120	0.715570	0.504410
C461	C46	0.090830	0.647190	0.514000
C471	C47	0.243940	0.623060	0.439740
C481	C48	0.331420	0.691310	0.427950
C491	C49	0.963500	0.421200	0.671700
C501	C50	0.835540	0.451930	0.735910
C511	C51	0.057280	0.392310	0.640770
C521	C52	0.104900	0.337810	0.689710
C531	C53	0.192660	0.315370	0.652690
C541	C54	0.228740	0.349790	0.566570
C551	C55	0.178250	0.403750	0.521500
C561	C56	0.756940	0.460850	0.799130
C571	C57	0.677530	0.504410	0.780020
C581	C58	0.604830	0.514000	0.838810
C591	C59	0.683680	0.439740	0.937200
C601	C60	0.759370	0.427950	0.880740
C611	C61	0.635200	0.671700	0.907100
C621	C62	0.571450	0.735910	0.812160
C631	C63	0.698050	0.640770	0.966920
C641	C64	0.794610	0.689710	0.972480
C651	C65	0.845350	0.652690	0.031940
C661	C66	0.795310	0.566570	0.083640
C671	C67	0.699750	0.521500	0.074750
C681	C68	0.556070	0.799130	0.740020
C691	C69	0.457550	0.780020	0.715570
C701	C70	0.443640	0.838810	0.647190
C711	C71	0.620880	0.937200	0.623060
C721	C72	0.640110	0.880740	0.691310
N11	N1	0.547590	0.086290	0.529320
N21	N2	0.652390	0.148050	0.508280
N31	N3	0.495050	0.155380	0.593130
N41	N4	0.334810	0.982530	0.573400
N51	N5	0.875980	0.400670	0.517630
N61	N6	0.076910	0.529320	0.384390
N71	N7	0.160670	0.508280	0.343670
N81	N8	0.088180	0.593130	0.251490
N91	N9	0.908210	0.573400	0.444070
N101	N10	0.393610	0.517630	0.081700
N111	N11	0.461300	0.384390	0.086290
N121	N12	0.504340	0.343670	0.148050
N131	N13	0.339670	0.251490	0.155380
N141	N14	0.352280	0.444070	0.982530
N151	N15	0.475310	0.081700	0.400670
N161	N16	0.452410	0.913710	0.470680
N171	N17	0.347610	0.851950	0.491720
N181	N18	0.504950	0.844620	0.406870
N191	N19	0.665190	0.017470	0.426600
N201	N20	0.124020	0.599330	0.482370
N211	N21	0.923090	0.470680	0.615610
N221	N22	0.839330	0.491720	0.656330
N231	N23	0.911820	0.406870	0.748510
N241	N24	0.091790	0.426600	0.555930
N251	N25	0.606390	0.482370	0.918300
N261	N26	0.538700	0.615610	0.913710
N271	N27	0.495660	0.656330	0.851950
N281	N28	0.660330	0.748510	0.844620
N291	N29	0.647720	0.555930	0.017470
N301	N30	0.524690	0.918300	0.599330
