data_BUYNAL_charged_PM
_symmetry_space_group_name_H-M	'P1'
_cell_length_a	14.075600
_cell_length_b	14.075600
_cell_length_c	14.075600
_cell_angle_alpha	108.347000
_cell_angle_beta	108.347000
_cell_angle_gamma	108.347000
_symmetry_Int_Tables_number 1

loop_
_symmetry_equiv_pos_as_xyz
'x,y,z'

loop_
_atom_site_label
_atom_site_type_symbol
_atom_site_fract_x
_atom_site_fract_y
_atom_site_fract_z
Zn11	Zn1	0.000000	0.000000	0.000000
H11	H1	0.268000	0.106400	0.200700
H21	H2	0.326700	0.054200	0.349900
H31	H3	0.995100	0.886400	0.172800
H41	H4	0.201300	0.941100	0.433600
H51	H5	0.072500	0.864400	0.349600
H61	H6	0.166600	0.752900	0.361900
H71	H7	0.243700	0.814500	0.318000
H81	H8	0.216200	0.628100	0.268200
H91	H9	0.210900	0.462500	0.159500
H101	H10	0.921300	0.648700	0.024700
H111	H11	0.200700	0.268000	0.106400
H121	H12	0.349900	0.326700	0.054200
H131	H13	0.172800	0.995100	0.886400
H141	H14	0.433600	0.201300	0.941100
H151	H15	0.349600	0.072500	0.864400
H161	H16	0.361900	0.166600	0.752900
H171	H17	0.318000	0.243700	0.814500
H181	H18	0.268200	0.216200	0.628100
H191	H19	0.159500	0.210900	0.462500
H201	H20	0.024700	0.921300	0.648700
H211	H21	0.106400	0.200700	0.268000
H221	H22	0.054200	0.349900	0.326700
H231	H23	0.886400	0.172800	0.995100
H241	H24	0.941100	0.433600	0.201300
H251	H25	0.864400	0.349600	0.072500
H261	H26	0.752900	0.361900	0.166600
H271	H27	0.814500	0.318000	0.243700
H281	H28	0.628100	0.268200	0.216200
H291	H29	0.462500	0.159500	0.210900
H301	H30	0.648700	0.024700	0.921300
H311	H31	0.732000	0.893600	0.799300
H321	H32	0.673300	0.945800	0.650100
H331	H33	0.004900	0.113600	0.827200
H341	H34	0.798700	0.058900	0.566400
H351	H35	0.927500	0.135600	0.650400
H361	H36	0.833400	0.247100	0.638100
H371	H37	0.756300	0.185500	0.682000
H381	H38	0.783800	0.371900	0.731800
H391	H39	0.789100	0.537500	0.840500
H401	H40	0.078700	0.351300	0.975300
H411	H41	0.799300	0.732000	0.893600
H421	H42	0.650100	0.673300	0.945800
H431	H43	0.827200	0.004900	0.113600
H441	H44	0.566400	0.798700	0.058900
H451	H45	0.650400	0.927500	0.135600
H461	H46	0.638100	0.833400	0.247100
H471	H47	0.682000	0.756300	0.185500
H481	H48	0.731800	0.783800	0.371900
H491	H49	0.840500	0.789100	0.537500
H501	H50	0.975300	0.078700	0.351300
H511	H51	0.893600	0.799300	0.732000
H521	H52	0.945800	0.650100	0.673300
H531	H53	0.113600	0.827200	0.004900
H541	H54	0.058900	0.566400	0.798700
H551	H55	0.135600	0.650400	0.927500
H561	H56	0.247100	0.638100	0.833400
H571	H57	0.185500	0.682000	0.756300
H581	H58	0.371900	0.731800	0.783800
H591	H59	0.537500	0.840500	0.789100
H601	H60	0.351300	0.975300	0.078700
C11	C1	0.220020	0.055500	0.214080
C21	C2	0.253150	0.027450	0.296600
C31	C3	0.070090	0.935380	0.198230
C41	C4	0.147450	0.890150	0.355100
C51	C5	0.169800	0.790320	0.314980
C61	C6	0.086690	0.618530	0.145980
C71	C7	0.162460	0.584530	0.193010
C81	C8	0.158370	0.484330	0.127500
C91	C9	0.001540	0.551450	0.032110
C101	C10	0.920810	0.582470	0.982520
C111	C11	0.214080	0.220020	0.055500
C121	C12	0.296600	0.253150	0.027450
C131	C13	0.198230	0.070090	0.935380
C141	C14	0.355100	0.147450	0.890150
C151	C15	0.314980	0.169800	0.790320
C161	C16	0.145980	0.086690	0.618530
C171	C17	0.193010	0.162460	0.584530
C181	C18	0.127500	0.158370	0.484330
C191	C19	0.032110	0.001540	0.551450
C201	C20	0.982520	0.920810	0.582470
C211	C21	0.055500	0.214080	0.220020
C221	C22	0.027450	0.296600	0.253150
C231	C23	0.935380	0.198230	0.070090
C241	C24	0.890150	0.355100	0.147450
C251	C25	0.790320	0.314980	0.169800
C261	C26	0.618530	0.145980	0.086690
C271	C27	0.584530	0.193010	0.162460
C281	C28	0.484330	0.127500	0.158370
C291	C29	0.551450	0.032110	0.001540
C301	C30	0.582470	0.982520	0.920810
C311	C31	0.779980	0.944500	0.785920
C321	C32	0.746850	0.972550	0.703400
C331	C33	0.929910	0.064620	0.801770
C341	C34	0.852550	0.109850	0.644900
C351	C35	0.830200	0.209680	0.685020
C361	C36	0.913310	0.381470	0.854020
C371	C37	0.837540	0.415470	0.806990
C381	C38	0.841630	0.515670	0.872500
C391	C39	0.998460	0.448550	0.967890
C401	C40	0.079190	0.417530	0.017480
C411	C41	0.785920	0.779980	0.944500
C421	C42	0.703400	0.746850	0.972550
C431	C43	0.801770	0.929910	0.064620
C441	C44	0.644900	0.852550	0.109850
C451	C45	0.685020	0.830200	0.209680
C461	C46	0.854020	0.913310	0.381470
C471	C47	0.806990	0.837540	0.415470
C481	C48	0.872500	0.841630	0.515670
C491	C49	0.967890	0.998460	0.448550
C501	C50	0.017480	0.079190	0.417530
C511	C51	0.944500	0.785920	0.779980
C521	C52	0.972550	0.703400	0.746850
C531	C53	0.064620	0.801770	0.929910
C541	C54	0.109850	0.644900	0.852550
C551	C55	0.209680	0.685020	0.830200
C561	C56	0.381470	0.854020	0.913310
C571	C57	0.415470	0.806990	0.837540
C581	C58	0.515670	0.872500	0.841630
C591	C59	0.448550	0.967890	0.998460
C601	C60	0.417530	0.017480	0.079190
N11	N1	0.104100	0.997730	0.151610
N21	N2	0.156830	0.951210	0.286760
N31	N3	0.151610	0.104100	0.997730
N41	N4	0.286760	0.156830	0.951210
N51	N5	0.997730	0.151610	0.104100
N61	N6	0.951210	0.286760	0.156830
N71	N7	0.895900	0.002270	0.848390
N81	N8	0.843170	0.048790	0.713240
N91	N9	0.848390	0.895900	0.002270
N101	N10	0.713240	0.843170	0.048790
N111	N11	0.002270	0.848390	0.895900
N121	N12	0.048790	0.713240	0.843170
O11	O1	0.084450	0.716320	0.202050
O21	O2	0.202050	0.084450	0.716320
O31	O3	0.716320	0.202050	0.084450
O41	O4	0.915550	0.283680	0.797950
O51	O5	0.797950	0.915550	0.283680
O61	O6	0.283680	0.797950	0.915550
N131	N13	0.382300	0.382300	0.382300
O71	O7	0.443400	0.353100	0.344700
O81	O8	0.344700	0.443400	0.353100
O91	O9	0.353100	0.344700	0.443400
N141	N14	0.617700	0.617700	0.617700
O101	O10	0.556600	0.646900	0.655300
O111	O11	0.655300	0.556600	0.646900
O121	O12	0.646900	0.655300	0.556600
