data_c4dt03702b_c4dt03702b2_freeONLY_PM
_symmetry_space_group_name_H-M	'P1'
_cell_length_a	19.425400
_cell_length_b	21.878000
_cell_length_c	15.578000
_cell_angle_alpha	90.000000
_cell_angle_beta	90.000000
_cell_angle_gamma	90.000000
_symmetry_Int_Tables_number 1

loop_
_symmetry_equiv_pos_as_xyz
'x,y,z'

loop_
_atom_site_label
_atom_site_type_symbol
_atom_site_fract_x
_atom_site_fract_y
_atom_site_fract_z
N11	N1	0.440430	0.599590	0.599470
C11	C1	0.443700	0.726600	0.596000
C21	C2	0.446500	0.794200	0.599100
C31	C3	0.394900	0.629900	0.554800
H11	H1	0.361000	0.608400	0.525400
N21	N2	0.399900	0.829940	0.562500
H21	H2	0.361700	0.818700	0.539500
N31	N3	0.496300	0.826010	0.632000
C41	C4	0.487300	0.631300	0.641900
H31	H3	0.521100	0.610000	0.672000
C51	C5	0.395500	0.694900	0.549600
H41	H4	0.363800	0.715400	0.515400
C61	C6	0.488700	0.692300	0.643800
H51	H5	0.520900	0.712000	0.678300
N41	N4	0.485100	0.885300	0.627000
C71	C7	0.424500	0.888300	0.568700
C81	C8	0.395800	0.946800	0.559700
C91	C9	0.328900	0.947800	0.523300
H61	H6	0.304400	0.911400	0.518900
N51	N5	0.559570	0.599590	0.400530
C101	C10	0.556300	0.726600	0.404000
C111	C11	0.553500	0.794200	0.400900
C121	C12	0.605100	0.629900	0.445200
H71	H7	0.639000	0.608400	0.474600
N61	N6	0.600100	0.829940	0.437500
H81	H8	0.638300	0.818700	0.460500
N71	N7	0.503700	0.826010	0.368000
C131	C13	0.512700	0.631300	0.358100
H91	H9	0.478900	0.610000	0.328000
C141	C14	0.604500	0.694900	0.450400
H101	H10	0.636200	0.715400	0.484600
C151	C15	0.511300	0.692300	0.356200
H111	H11	0.479100	0.712000	0.321700
N81	N8	0.514900	0.885300	0.373000
C161	C16	0.575500	0.888300	0.431300
C171	C17	0.604200	0.946800	0.440300
C181	C18	0.671100	0.947800	0.476700
H121	H12	0.695600	0.911400	0.481100
N91	N9	0.059570	0.400410	0.099470
C191	C19	0.056300	0.273400	0.096000
C201	C20	0.053500	0.205800	0.099100
C211	C21	0.105100	0.370100	0.054800
H131	H13	0.139000	0.391600	0.025400
N101	N10	0.100100	0.170060	0.062500
H141	H14	0.138300	0.181300	0.039500
N111	N11	0.003700	0.173990	0.132000
C221	C22	0.012700	0.368700	0.141900
H151	H15	0.978900	0.390000	0.172000
C231	C23	0.104500	0.305100	0.049600
H161	H16	0.136200	0.284600	0.015400
C241	C24	0.011300	0.307700	0.143800
H171	H17	0.979100	0.288000	0.178300
N121	N12	0.014900	0.114700	0.127000
C251	C25	0.075500	0.111700	0.068700
C261	C26	0.104200	0.053200	0.059700
C271	C27	0.171100	0.052200	0.023300
H181	H18	0.195600	0.088600	0.018900
N131	N13	0.940430	0.400410	0.900530
C281	C28	0.943700	0.273400	0.904000
C291	C29	0.946500	0.205800	0.900900
C301	C30	0.894900	0.370100	0.945200
H191	H19	0.861000	0.391600	0.974600
N141	N14	0.899900	0.170060	0.937500
H201	H20	0.861700	0.181300	0.960500
N151	N15	0.996300	0.173990	0.868000
C311	C31	0.987300	0.368700	0.858100
H211	H21	0.021100	0.390000	0.828000
C321	C32	0.895500	0.305100	0.950400
H221	H22	0.863800	0.284600	0.984600
C331	C33	0.988700	0.307700	0.856200
H231	H23	0.020900	0.288000	0.821700
N161	N16	0.985100	0.114700	0.873000
C341	C34	0.924500	0.111700	0.931300
C351	C35	0.895800	0.053200	0.940300
C361	C36	0.828900	0.052200	0.976700
H241	H24	0.804400	0.088600	0.981100
N171	N17	0.559570	0.400410	0.400530
C371	C37	0.556300	0.273400	0.404000
C381	C38	0.553500	0.205800	0.400900
C391	C39	0.605100	0.370100	0.445200
H251	H25	0.639000	0.391600	0.474600
N181	N18	0.600100	0.170060	0.437500
H261	H26	0.638300	0.181300	0.460500
N191	N19	0.503700	0.173990	0.368000
C401	C40	0.512700	0.368700	0.358100
H271	H27	0.478900	0.390000	0.328000
C411	C41	0.604500	0.305100	0.450400
H281	H28	0.636200	0.284600	0.484600
C421	C42	0.511300	0.307700	0.356200
H291	H29	0.479100	0.288000	0.321700
N201	N20	0.514900	0.114700	0.373000
C431	C43	0.575500	0.111700	0.431300
C441	C44	0.604200	0.053200	0.440300
C451	C45	0.671100	0.052200	0.476700
H301	H30	0.695600	0.088600	0.481100
N211	N21	0.440430	0.400410	0.599470
C461	C46	0.443700	0.273400	0.596000
C471	C47	0.446500	0.205800	0.599100
C481	C48	0.394900	0.370100	0.554800
H311	H31	0.361000	0.391600	0.525400
N221	N22	0.399900	0.170060	0.562500
H321	H32	0.361700	0.181300	0.539500
N231	N23	0.496300	0.173990	0.632000
C491	C49	0.487300	0.368700	0.641900
H331	H33	0.521100	0.390000	0.672000
C501	C50	0.395500	0.305100	0.549600
H341	H34	0.363800	0.284600	0.515400
C511	C51	0.488700	0.307700	0.643800
H351	H35	0.520900	0.288000	0.678300
N241	N24	0.485100	0.114700	0.627000
C521	C52	0.424500	0.111700	0.568700
C531	C53	0.395800	0.053200	0.559700
C541	C54	0.328900	0.052200	0.523300
H361	H36	0.304400	0.088600	0.518900
N251	N25	0.940430	0.599590	0.900530
C551	C55	0.943700	0.726600	0.904000
C561	C56	0.946500	0.794200	0.900900
C571	C57	0.894900	0.629900	0.945200
H371	H37	0.861000	0.608400	0.974600
N261	N26	0.899900	0.829940	0.937500
H381	H38	0.861700	0.818700	0.960500
N271	N27	0.996300	0.826010	0.868000
C581	C58	0.987300	0.631300	0.858100
H391	H39	0.021100	0.610000	0.828000
C591	C59	0.895500	0.694900	0.950400
H401	H40	0.863800	0.715400	0.984600
C601	C60	0.988700	0.692300	0.856200
H411	H41	0.020900	0.712000	0.821700
N281	N28	0.985100	0.885300	0.873000
C611	C61	0.924500	0.888300	0.931300
C621	C62	0.895800	0.946800	0.940300
C631	C63	0.828900	0.947800	0.976700
H421	H42	0.804400	0.911400	0.981100
N291	N29	0.059570	0.599590	0.099470
C641	C64	0.056300	0.726600	0.096000
C651	C65	0.053500	0.794200	0.099100
C661	C66	0.105100	0.629900	0.054800
H431	H43	0.139000	0.608400	0.025400
N301	N30	0.100100	0.829940	0.062500
H441	H44	0.138300	0.818700	0.039500
N311	N31	0.003700	0.826010	0.132000
C671	C67	0.012700	0.631300	0.141900
H451	H45	0.978900	0.610000	0.172000
C681	C68	0.104500	0.694900	0.049600
H461	H46	0.136200	0.715400	0.015400
C691	C69	0.011300	0.692300	0.143800
H471	H47	0.979100	0.712000	0.178300
N321	N32	0.014900	0.885300	0.127000
C701	C70	0.075500	0.888300	0.068700
C711	C71	0.104200	0.946800	0.059700
C721	C72	0.171100	0.947800	0.023300
H481	H48	0.195600	0.911400	0.018900
Co11	Co1	0.439960	0.500000	0.599420
O11	O1	0.036460	0.500000	0.847200
C731	C73	0.087800	0.500000	0.898200
O21	O2	0.084400	0.500000	0.979100
O31	O3	0.396900	0.500000	0.741000
C741	C74	0.279300	0.500000	0.855900
H491	H49	0.320900	0.500000	0.885500
C751	C75	0.280000	0.500000	0.765900
C761	C76	0.218900	0.500000	0.728200
H501	H50	0.218100	0.500000	0.668500
C771	C77	0.216500	0.500000	0.903500
H511	H51	0.216700	0.500000	0.963200
C781	C78	0.154900	0.500000	0.857500
C791	C79	0.158800	0.500000	0.768600
H521	H52	0.118400	0.500000	0.736600
O41	O4	0.331100	0.500000	0.623600
C801	C80	0.346200	0.500000	0.713400
Co21	Co2	0.560040	0.500000	0.400580
O51	O5	0.963540	0.500000	0.152800
C811	C81	0.912200	0.500000	0.101800
O61	O6	0.915600	0.500000	0.020900
O71	O7	0.603100	0.500000	0.259000
C821	C82	0.720700	0.500000	0.144100
H531	H53	0.679100	0.500000	0.114500
C831	C83	0.720000	0.500000	0.234100
C841	C84	0.781100	0.500000	0.271800
H541	H54	0.781900	0.500000	0.331500
C851	C85	0.783500	0.500000	0.096500
H551	H55	0.783300	0.500000	0.036800
C861	C86	0.845100	0.500000	0.142500
C871	C87	0.841200	0.500000	0.231400
H561	H56	0.881600	0.500000	0.263400
O81	O8	0.668900	0.500000	0.376400
C881	C88	0.653800	0.500000	0.286600
Co31	Co3	0.060040	0.500000	0.099420
O91	O9	0.463540	0.500000	0.347200
C891	C89	0.412200	0.500000	0.398200
O101	O10	0.415600	0.500000	0.479100
O111	O11	0.103100	0.500000	0.241000
C901	C90	0.220700	0.500000	0.355900
H571	H57	0.179100	0.500000	0.385500
C911	C91	0.220000	0.500000	0.265900
C921	C92	0.281100	0.500000	0.228200
H581	H58	0.281900	0.500000	0.168500
C931	C93	0.283500	0.500000	0.403500
H591	H59	0.283300	0.500000	0.463200
C941	C94	0.345100	0.500000	0.357500
C951	C95	0.341200	0.500000	0.268600
H601	H60	0.381600	0.500000	0.236600
O121	O12	0.168900	0.500000	0.123600
C961	C96	0.153800	0.500000	0.213400
Co41	Co4	0.939960	0.500000	0.900580
O131	O13	0.536460	0.500000	0.652800
C971	C97	0.587800	0.500000	0.601800
O141	O14	0.584400	0.500000	0.520900
O151	O15	0.896900	0.500000	0.759000
C981	C98	0.779300	0.500000	0.644100
H611	H61	0.820900	0.500000	0.614500
C991	C99	0.780000	0.500000	0.734100
C1001	C100	0.718900	0.500000	0.771800
H621	H62	0.718100	0.500000	0.831500
C1011	C101	0.716500	0.500000	0.596500
H631	H63	0.716700	0.500000	0.536800
C1021	C102	0.654900	0.500000	0.642500
C1031	C103	0.658800	0.500000	0.731400
H641	H64	0.618400	0.500000	0.763400
O161	O16	0.831100	0.500000	0.876400
C1041	C104	0.846200	0.500000	0.786600
C1051	C105	0.422400	0.000000	0.575600
H651	H65	0.465600	0.000000	0.601400
N331	N33	0.299900	0.000000	0.494800
C1061	C106	0.577600	0.000000	0.424400
H661	H66	0.534400	0.000000	0.398600
N341	N34	0.700100	0.000000	0.505200
C1071	C107	0.077600	0.000000	0.075600
H671	H67	0.034400	0.000000	0.101400
N351	N35	0.200100	0.000000	0.994800
C1081	C108	0.922400	0.000000	0.924400
H681	H68	0.965600	0.000000	0.898600
N361	N36	0.799900	0.000000	0.005200
