data_c5cc06190c_c5cc06190c2_freeONLY_PM
_symmetry_space_group_name_H-M	'P1'
_cell_length_a	7.297300
_cell_length_b	7.948000
_cell_length_c	13.822400
_cell_angle_alpha	90.000000
_cell_angle_beta	90.000000
_cell_angle_gamma	90.000000
_symmetry_Int_Tables_number 1

loop_
_symmetry_equiv_pos_as_xyz
'x,y,z'

loop_
_atom_site_label
_atom_site_type_symbol
_atom_site_fract_x
_atom_site_fract_y
_atom_site_fract_z
Zn11	Zn1	0.759240	0.719430	0.664530
O11	O1	0.586500	0.925400	0.662910
O21	O2	0.903750	0.806180	0.788540
O31	O3	0.608700	0.605020	0.772030
O41	O4	0.619230	0.610810	0.546860
O51	O5	0.919200	0.869820	0.573410
O61	O6	0.922870	0.504240	0.643730
C11	C1	0.508660	0.692600	0.494740
H11	H1	0.492500	0.808900	0.508200
C21	C2	0.500970	0.984580	0.733520
H21	H2	0.520500	0.935000	0.795200
C31	C3	0.991690	0.942910	0.786450
H31	H3	0.992900	0.003700	0.727300
Zn21	Zn2	0.740760	0.280570	0.164530
O71	O7	0.913500	0.074600	0.162910
O81	O8	0.596250	0.193820	0.288540
O91	O9	0.891300	0.394980	0.272030
O101	O10	0.880770	0.389190	0.046860
O111	O11	0.580800	0.130180	0.073410
O121	O12	0.577130	0.495760	0.143730
C41	C4	0.991340	0.307400	0.994740
H41	H4	0.007500	0.191100	0.008200
C51	C5	0.999030	0.015420	0.233520
H51	H5	0.979500	0.065000	0.295200
C61	C6	0.508310	0.057090	0.286450
H61	H6	0.507100	0.996300	0.227300
Zn31	Zn3	0.240760	0.219430	0.835470
O131	O13	0.413500	0.425400	0.837090
O141	O14	0.096250	0.306180	0.711460
O151	O15	0.391300	0.105020	0.727970
O161	O16	0.380770	0.110810	0.953140
O171	O17	0.080800	0.369820	0.926590
O181	O18	0.077130	0.004240	0.856270
C71	C7	0.491340	0.192600	0.005260
H71	H7	0.507500	0.308900	0.991800
C81	C8	0.499030	0.484580	0.766480
H81	H8	0.479500	0.435000	0.704800
C91	C9	0.008310	0.442910	0.713550
H91	H9	0.007100	0.503700	0.772700
Zn41	Zn4	0.259240	0.780570	0.335470
O191	O19	0.086500	0.574600	0.337090
O201	O20	0.403750	0.693820	0.211460
O211	O21	0.108700	0.894980	0.227970
O221	O22	0.119230	0.889190	0.453140
O231	O23	0.419200	0.630180	0.426590
O241	O24	0.422870	0.995760	0.356270
C101	C10	0.008660	0.807400	0.505260
H101	H10	0.992500	0.691100	0.491800
C111	C11	0.000970	0.515420	0.266480
H111	H11	0.020500	0.565000	0.204800
C121	C12	0.491690	0.557090	0.213550
H121	H12	0.492900	0.496300	0.272700
