data_c5ce00862j_c5ce00862j2_freeONLY_PM
_symmetry_space_group_name_H-M	'P1'
_cell_length_a	19.762300
_cell_length_b	21.374700
_cell_length_c	8.369000
_cell_angle_alpha	90.000000
_cell_angle_beta	112.171000
_cell_angle_gamma	90.000000
_symmetry_Int_Tables_number 1

loop_
_symmetry_equiv_pos_as_xyz
'x,y,z'

loop_
_atom_site_label
_atom_site_type_symbol
_atom_site_fract_x
_atom_site_fract_y
_atom_site_fract_z
Zn11	Zn1	0.258610	0.007320	0.407680
C11	C1	0.369200	0.045100	0.690200
C21	C2	0.437200	0.044600	0.852800
C31	C3	0.469200	0.988400	0.927500
H11	H1	0.448300	0.950700	0.877800
C41	C4	0.468600	0.099700	0.928300
H21	H2	0.446800	0.137500	0.881300
C51	C5	0.116900	0.021500	0.378800
C61	C6	0.057800	0.024900	0.441700
C71	C7	0.070900	0.024900	0.612400
H31	H3	0.119100	0.024500	0.690900
C81	C8	0.983600	0.025300	0.327000
H41	H4	0.972300	0.025800	0.208600
C91	C9	0.197000	0.891700	0.193400
H51	H5	0.161100	0.913700	0.106600
C101	C10	0.263000	0.815300	0.336900
H61	H6	0.282400	0.775600	0.371800
C111	C11	0.286000	0.868800	0.417500
H71	H7	0.325400	0.873000	0.521900
C121	C12	0.161200	0.786900	0.061700
C131	C13	0.093500	0.804200	0.953100
H81	H8	0.074200	0.842900	0.963900
C141	C14	0.052500	0.761000	0.820900
C151	C15	0.960200	0.839400	0.647700
H91	H9	0.987700	0.875500	0.685800
C161	C16	0.893200	0.836500	0.532300
H101	H10	0.866100	0.870700	0.473600
C171	C17	0.926900	0.742300	0.617400
H111	H11	0.928500	0.699100	0.630400
C181	C18	0.082900	0.706500	0.796800
H121	H12	0.058300	0.680500	0.704000
C191	C19	0.152000	0.690900	0.914900
C201	C20	0.186400	0.612300	0.740700
H131	H13	0.165000	0.632000	0.634400
C211	C21	0.245800	0.546200	0.944400
H141	H14	0.272200	0.511300	0.000300
C221	C22	0.222900	0.593200	0.021500
H151	H15	0.231600	0.597100	0.138300
C231	C23	0.191600	0.730100	0.044800
H161	H16	0.238100	0.718900	0.120700
N11	N1	0.243800	0.917500	0.325500
N21	N2	0.204700	0.830500	0.191600
N31	N3	0.868100	0.773500	0.510000
N41	N4	0.982200	0.779500	0.702100
N51	N5	0.223900	0.558300	0.772300
N61	N6	0.185600	0.632600	0.895500
O11	O1	0.344500	0.994100	0.620300
O21	O2	0.340600	0.095900	0.636400
O31	O3	0.181440	0.028900	0.488200
O41	O4	0.105250	0.010500	0.224000
Zn21	Zn2	0.758610	0.507320	0.407680
C241	C24	0.869200	0.545100	0.690200
C251	C25	0.937200	0.544600	0.852800
C261	C26	0.969200	0.488400	0.927500
H171	H17	0.948300	0.450700	0.877800
C271	C27	0.968600	0.599700	0.928300
H181	H18	0.946800	0.637500	0.881300
C281	C28	0.616900	0.521500	0.378800
C291	C29	0.557800	0.524900	0.441700
C301	C30	0.570900	0.524900	0.612400
H191	H19	0.619100	0.524500	0.690900
C311	C31	0.483600	0.525300	0.327000
H201	H20	0.472300	0.525800	0.208600
C321	C32	0.697000	0.391700	0.193400
H211	H21	0.661100	0.413700	0.106600
C331	C33	0.763000	0.315300	0.336900
H221	H22	0.782400	0.275600	0.371800
C341	C34	0.786000	0.368800	0.417500
H231	H23	0.825400	0.373000	0.521900
C351	C35	0.661200	0.286900	0.061700
C361	C36	0.593500	0.304200	0.953100
H241	H24	0.574200	0.342900	0.963900
C371	C37	0.552500	0.261000	0.820900
C381	C38	0.460200	0.339400	0.647700
H251	H25	0.487700	0.375500	0.685800
C391	C39	0.393200	0.336500	0.532300
H261	H26	0.366100	0.370700	0.473600
C401	C40	0.426900	0.242300	0.617400
H271	H27	0.428500	0.199100	0.630400
C411	C41	0.582900	0.206500	0.796800
H281	H28	0.558300	0.180500	0.704000
C421	C42	0.652000	0.190900	0.914900
C431	C43	0.686400	0.112300	0.740700
H291	H29	0.665000	0.132000	0.634400
C441	C44	0.745800	0.046200	0.944400
H301	H30	0.772200	0.011300	0.000300
C451	C45	0.722900	0.093200	0.021500
H311	H31	0.731600	0.097100	0.138300
C461	C46	0.691600	0.230100	0.044800
H321	H32	0.738100	0.218900	0.120700
N71	N7	0.743800	0.417500	0.325500
N81	N8	0.704700	0.330500	0.191600
N91	N9	0.368100	0.273500	0.510000
N101	N10	0.482200	0.279500	0.702100
N111	N11	0.723900	0.058300	0.772300
N121	N12	0.685600	0.132600	0.895500
O51	O5	0.844500	0.494100	0.620300
O61	O6	0.840600	0.595900	0.636400
O71	O7	0.681440	0.528900	0.488200
O81	O8	0.605250	0.510500	0.224000
Zn31	Zn3	0.741390	0.007320	0.592320
C471	C47	0.630800	0.045100	0.309800
C481	C48	0.562800	0.044600	0.147200
C491	C49	0.530800	0.988400	0.072500
H331	H33	0.551700	0.950700	0.122200
C501	C50	0.531400	0.099700	0.071700
H341	H34	0.553200	0.137500	0.118700
C511	C51	0.883100	0.021500	0.621200
C521	C52	0.942200	0.024900	0.558300
C531	C53	0.929100	0.024900	0.387600
H351	H35	0.880900	0.024500	0.309100
C541	C54	0.016400	0.025300	0.673000
H361	H36	0.027700	0.025800	0.791400
C551	C55	0.803000	0.891700	0.806600
H371	H37	0.838900	0.913700	0.893400
C561	C56	0.737000	0.815300	0.663100
H381	H38	0.717600	0.775600	0.628200
C571	C57	0.714000	0.868800	0.582500
H391	H39	0.674600	0.873000	0.478100
C581	C58	0.838800	0.786900	0.938300
C591	C59	0.906500	0.804200	0.046900
H401	H40	0.925800	0.842900	0.036100
C601	C60	0.947500	0.761000	0.179100
C611	C61	0.039800	0.839400	0.352300
H411	H41	0.012300	0.875500	0.314200
C621	C62	0.106800	0.836500	0.467700
H421	H42	0.133900	0.870700	0.526400
C631	C63	0.073100	0.742300	0.382600
H431	H43	0.071500	0.699100	0.369600
C641	C64	0.917100	0.706500	0.203200
H441	H44	0.941700	0.680500	0.296000
C651	C65	0.848000	0.690900	0.085100
C661	C66	0.813600	0.612300	0.259300
H451	H45	0.835000	0.632000	0.365600
C671	C67	0.754200	0.546200	0.055600
H461	H46	0.727800	0.511300	0.999700
C681	C68	0.777100	0.593200	0.978500
H471	H47	0.768400	0.597100	0.861700
C691	C69	0.808400	0.730100	0.955200
H481	H48	0.761900	0.718900	0.879300
N131	N13	0.756200	0.917500	0.674500
N141	N14	0.795300	0.830500	0.808400
N151	N15	0.131900	0.773500	0.490000
N161	N16	0.017800	0.779500	0.297900
N171	N17	0.776100	0.558300	0.227700
N181	N18	0.814400	0.632600	0.104500
O91	O9	0.655500	0.994100	0.379700
O101	O10	0.659400	0.095900	0.363600
O111	O11	0.818560	0.028900	0.511800
O121	O12	0.894750	0.010500	0.776000
Zn41	Zn4	0.241390	0.507320	0.592320
C701	C70	0.130800	0.545100	0.309800
C711	C71	0.062800	0.544600	0.147200
C721	C72	0.030800	0.488400	0.072500
H491	H49	0.051700	0.450700	0.122200
C731	C73	0.031400	0.599700	0.071700
H501	H50	0.053200	0.637500	0.118700
C741	C74	0.383100	0.521500	0.621200
C751	C75	0.442200	0.524900	0.558300
C761	C76	0.429100	0.524900	0.387600
H511	H51	0.380900	0.524500	0.309100
C771	C77	0.516400	0.525300	0.673000
H521	H52	0.527700	0.525800	0.791400
C781	C78	0.303000	0.391700	0.806600
H531	H53	0.338900	0.413700	0.893400
C791	C79	0.237000	0.315300	0.663100
H541	H54	0.217600	0.275600	0.628200
C801	C80	0.214000	0.368800	0.582500
H551	H55	0.174600	0.373000	0.478100
C811	C81	0.338800	0.286900	0.938300
C821	C82	0.406500	0.304200	0.046900
H561	H56	0.425800	0.342900	0.036100
C831	C83	0.447500	0.261000	0.179100
C841	C84	0.539800	0.339400	0.352300
H571	H57	0.512300	0.375500	0.314200
C851	C85	0.606800	0.336500	0.467700
H581	H58	0.633900	0.370700	0.526400
C861	C86	0.573100	0.242300	0.382600
H591	H59	0.571500	0.199100	0.369600
C871	C87	0.417100	0.206500	0.203200
H601	H60	0.441700	0.180500	0.296000
C881	C88	0.348000	0.190900	0.085100
C891	C89	0.313600	0.112300	0.259300
H611	H61	0.335000	0.132000	0.365600
C901	C90	0.254200	0.046200	0.055600
H621	H62	0.227800	0.011300	0.999700
C911	C91	0.277100	0.093200	0.978500
H631	H63	0.268400	0.097100	0.861700
C921	C92	0.308400	0.230100	0.955200
H641	H64	0.261900	0.218900	0.879300
N191	N19	0.256200	0.417500	0.674500
N201	N20	0.295300	0.330500	0.808400
N211	N21	0.631900	0.273500	0.490000
N221	N22	0.517800	0.279500	0.297900
N231	N23	0.276100	0.058300	0.227700
N241	N24	0.314400	0.132600	0.104500
O131	O13	0.155500	0.494100	0.379700
O141	O14	0.159400	0.595900	0.363600
O151	O15	0.318560	0.528900	0.511800
O161	O16	0.394750	0.510500	0.776000
