data_c5ce00326a_c5ce00326a2_freeONLY_PM
_symmetry_space_group_name_H-M	'P1'
_cell_length_a	8.702200
_cell_length_b	8.952000
_cell_length_c	12.669800
_cell_angle_alpha	106.807000
_cell_angle_beta	90.983000
_cell_angle_gamma	110.054000
_symmetry_Int_Tables_number 1

loop_
_symmetry_equiv_pos_as_xyz
'x,y,z'

loop_
_atom_site_label
_atom_site_type_symbol
_atom_site_fract_x
_atom_site_fract_y
_atom_site_fract_z
Cu11	Cu1	0.011940	0.043530	0.332410
Cu21	Cu2	0.660650	0.055220	0.343590
O11	O1	0.777500	0.251100	0.300300
O21	O2	0.037000	0.263600	0.320700
O31	O3	0.016700	0.231200	0.074100
O41	O4	0.289700	0.360700	0.108600
O51	O5	0.374200	0.824700	0.208800
O61	O6	0.502100	0.855400	0.369500
O71	O7	0.788500	0.936400	0.259300
O81	O8	0.018900	0.824700	0.333270
O91	O9	0.164200	0.897500	0.498170
C11	C1	0.988700	0.484100	0.276600
H11	H1	0.897600	0.515000	0.255900
C21	C2	0.930300	0.319400	0.299900
C31	C3	0.123600	0.506700	0.198300
H21	H2	0.109000	0.576300	0.154800
C41	C4	0.146500	0.355000	0.122200
C51	C5	0.257400	0.616200	0.298000
H31	H3	0.313500	0.548400	0.318200
C61	C6	0.383900	0.775700	0.289000
C71	C7	0.116600	0.626400	0.373600
H41	H4	0.127500	0.590700	0.438600
C81	C8	0.096800	0.794300	0.404400
O101	O10	0.548700	0.196700	0.434500
O111	O11	0.216800	0.160600	0.436700
O121	O12	0.145100	0.996800	0.171200
O131	O13	0.219600	0.068600	0.951000
H51	H5	0.210000	0.067000	0.876400
H61	H6	0.278000	0.182000	0.991000
H71	H7	0.129000	0.881000	0.148000
H81	H8	0.244000	0.090000	0.200000
H91	H9	0.198000	0.097000	0.486000
H101	H10	0.249000	0.271000	0.485000
H111	H11	0.536300	0.161500	0.502000
H121	H12	0.451200	0.206000	0.413000
H131	H13	0.742000	0.836200	0.248000
Cu31	Cu3	0.988060	0.956470	0.667590
Cu41	Cu4	0.339350	0.944780	0.656410
O141	O14	0.222500	0.748900	0.699700
O151	O15	0.963000	0.736400	0.679300
O161	O16	0.983300	0.768800	0.925900
O171	O17	0.710300	0.639300	0.891400
O181	O18	0.625800	0.175300	0.791200
O191	O19	0.497900	0.144600	0.630500
O201	O20	0.211500	0.063600	0.740700
O211	O21	0.981100	0.175300	0.666730
O221	O22	0.835800	0.102500	0.501830
C91	C9	0.011300	0.515900	0.723400
H141	H14	0.102400	0.485000	0.744100
C101	C10	0.069700	0.680600	0.700100
C111	C11	0.876400	0.493300	0.801700
H151	H15	0.891000	0.423700	0.845200
C121	C12	0.853500	0.645000	0.877800
C131	C13	0.742600	0.383800	0.702000
H161	H16	0.686500	0.451600	0.681800
C141	C14	0.616100	0.224300	0.711000
C151	C15	0.883400	0.373600	0.626400
H171	H17	0.872500	0.409300	0.561400
C161	C16	0.903200	0.205700	0.595600
O231	O23	0.451300	0.803300	0.565500
O241	O24	0.783200	0.839400	0.563300
O251	O25	0.854900	0.003200	0.828800
O261	O26	0.780400	0.931400	0.049000
H181	H18	0.790000	0.933000	0.123600
H191	H19	0.722000	0.818000	0.009000
H201	H20	0.871000	0.119000	0.852000
H211	H21	0.756000	0.910000	0.800000
H221	H22	0.802000	0.903000	0.514000
H231	H23	0.751000	0.729000	0.515000
H241	H24	0.463700	0.838500	0.498000
H251	H25	0.548800	0.794000	0.587000
H261	H26	0.258000	0.163800	0.752000
Cu51	Cu5	0.000000	0.000000	0.000000
