data_c6ce00141f_c6ce00141f2_freeONLY_PM
_symmetry_space_group_name_H-M	'P1'
_cell_length_a	40.266900
_cell_length_b	13.903200
_cell_length_c	25.994800
_cell_angle_alpha	90.000000
_cell_angle_beta	104.201000
_cell_angle_gamma	90.000000
_symmetry_Int_Tables_number 1

loop_
_symmetry_equiv_pos_as_xyz
'x,y,z'

loop_
_atom_site_label
_atom_site_type_symbol
_atom_site_fract_x
_atom_site_fract_y
_atom_site_fract_z
Co11	Co1	0.794250	0.526140	0.538030
O11	O1	0.302690	0.178600	0.515510
O21	O2	0.729770	0.378140	0.963170
O31	O3	0.338580	0.113030	0.584440
O41	O4	0.741250	0.698800	0.571480
O51	O5	0.310420	0.886530	0.571720
O61	O6	0.759690	0.512210	0.967600
O71	O7	0.763470	0.549810	0.590160
O81	O8	0.339360	0.937750	0.515640
N11	N1	0.409330	0.525390	0.582470
N21	N2	0.659310	0.559710	0.738450
C11	C1	0.714380	0.487110	0.891400
C21	C2	0.363400	0.428540	0.529710
H11	H1	0.358100	0.479400	0.504600
C31	C3	0.390780	0.613730	0.573580
C41	C4	0.390510	0.437670	0.573780
C51	C5	0.444870	0.526410	0.605980
C61	C6	0.736610	0.457030	0.945410
C71	C7	0.675990	0.535260	0.790840
C81	C8	0.361760	0.624700	0.591430
H21	H2	0.354200	0.573800	0.610100
C91	C9	0.721320	0.602270	0.631880
C101	C10	0.354110	0.783760	0.556200
C111	C11	0.728760	0.530460	0.670060
H31	H3	0.748300	0.491000	0.672400
C121	C12	0.343900	0.345330	0.522080
H41	H4	0.325200	0.339300	0.491800
C131	C13	0.680050	0.573130	0.701840
C141	C14	0.379670	0.279840	0.601970
H51	H5	0.385900	0.228100	0.626300
C151	C15	0.623620	0.543430	0.718410
C161	C16	0.687460	0.429310	0.865660
H61	H6	0.682200	0.372500	0.882400
C171	C17	0.383730	0.772770	0.537240
H71	H7	0.391000	0.823500	0.518100
C181	C18	0.459100	0.596600	0.641810
H81	H8	0.445000	0.645200	0.651000
C191	C19	0.721500	0.570390	0.867950
H91	H9	0.739700	0.610500	0.886000
C201	C20	0.708530	0.515490	0.704260
H101	H10	0.713900	0.465500	0.729800
C211	C21	0.351600	0.270150	0.558880
C221	C22	0.743550	0.618820	0.594260
C231	C23	0.702340	0.596280	0.818220
H111	H11	0.706900	0.655000	0.802600
C241	C24	0.494290	0.596560	0.664690
H121	H12	0.503700	0.646200	0.689000
C251	C25	0.398750	0.363710	0.610030
H131	H13	0.417400	0.370300	0.640300
C261	C26	0.330130	0.183620	0.552900
C271	C27	0.343460	0.709940	0.582320
H141	H14	0.323200	0.716800	0.594500
C281	C28	0.465920	0.455940	0.593310
H151	H15	0.456400	0.406900	0.568600
C291	C29	0.672450	0.644810	0.663820
H161	H16	0.652800	0.684000	0.661300
C301	C30	0.610980	0.506000	0.668550
H171	H17	0.626300	0.485300	0.648300
C311	C31	0.402110	0.689450	0.546290
H181	H18	0.422400	0.682600	0.534300
C321	C32	0.601420	0.570970	0.749170
H191	H19	0.610000	0.594400	0.784300
C331	C33	0.693010	0.659570	0.630050
H201	H20	0.687800	0.710200	0.604800
C341	C34	0.668020	0.454260	0.815120
H211	H21	0.649300	0.415000	0.797700
C351	C35	0.515530	0.527850	0.653430
C361	C36	0.575460	0.498200	0.647380
H221	H22	0.566800	0.472500	0.612800
C371	C37	0.333400	0.874920	0.546930
C381	C38	0.500560	0.456870	0.616500
H231	H23	0.514700	0.408300	0.607300
C391	C39	0.552900	0.528340	0.677500
C401	C40	0.566360	0.563370	0.727230
H241	H24	0.551100	0.583500	0.747800
Co21	Co2	0.294250	0.026140	0.538030
O91	O9	0.802690	0.678600	0.515510
O101	O10	0.229770	0.878140	0.963170
O111	O11	0.838580	0.613030	0.584440
O121	O12	0.241250	0.198800	0.571480
O131	O13	0.810420	0.386530	0.571720
O141	O14	0.259690	0.012210	0.967600
O151	O15	0.263470	0.049810	0.590160
O161	O16	0.839360	0.437750	0.515640
N31	N3	0.909330	0.025390	0.582470
N41	N4	0.159310	0.059710	0.738450
C411	C41	0.214380	0.987110	0.891400
C421	C42	0.863400	0.928540	0.529710
H251	H25	0.858100	0.979400	0.504600
C431	C43	0.890780	0.113730	0.573580
C441	C44	0.890510	0.937670	0.573780
C451	C45	0.944870	0.026410	0.605980
C461	C46	0.236610	0.957030	0.945410
C471	C47	0.175990	0.035260	0.790840
C481	C48	0.861760	0.124700	0.591430
H261	H26	0.854200	0.073800	0.610100
C491	C49	0.221320	0.102270	0.631880
C501	C50	0.854110	0.283760	0.556200
C511	C51	0.228760	0.030460	0.670060
H271	H27	0.248300	0.991000	0.672400
C521	C52	0.843900	0.845330	0.522080
H281	H28	0.825200	0.839300	0.491800
C531	C53	0.180050	0.073130	0.701840
C541	C54	0.879670	0.779840	0.601970
H291	H29	0.885900	0.728100	0.626300
C551	C55	0.123620	0.043430	0.718410
C561	C56	0.187460	0.929310	0.865660
H301	H30	0.182200	0.872500	0.882400
C571	C57	0.883730	0.272770	0.537240
H311	H31	0.891000	0.323500	0.518100
C581	C58	0.959100	0.096600	0.641810
H321	H32	0.945000	0.145200	0.651000
C591	C59	0.221500	0.070390	0.867950
H331	H33	0.239700	0.110500	0.886000
C601	C60	0.208530	0.015490	0.704260
H341	H34	0.213900	0.965500	0.729800
C611	C61	0.851600	0.770150	0.558880
C621	C62	0.243550	0.118820	0.594260
C631	C63	0.202340	0.096280	0.818220
H351	H35	0.206900	0.155000	0.802600
C641	C64	0.994290	0.096560	0.664690
H361	H36	0.003700	0.146200	0.689000
C651	C65	0.898750	0.863710	0.610030
H371	H37	0.917400	0.870300	0.640300
C661	C66	0.830130	0.683620	0.552900
C671	C67	0.843460	0.209940	0.582320
H381	H38	0.823200	0.216800	0.594500
C681	C68	0.965920	0.955940	0.593310
H391	H39	0.956400	0.906900	0.568600
C691	C69	0.172450	0.144810	0.663820
H401	H40	0.152800	0.184000	0.661300
C701	C70	0.110980	0.006000	0.668550
H411	H41	0.126300	0.985300	0.648300
C711	C71	0.902110	0.189450	0.546290
H421	H42	0.922400	0.182600	0.534300
C721	C72	0.101420	0.070970	0.749170
H431	H43	0.110000	0.094400	0.784300
C731	C73	0.193010	0.159570	0.630050
H441	H44	0.187800	0.210200	0.604800
C741	C74	0.168020	0.954260	0.815120
H451	H45	0.149300	0.915000	0.797700
C751	C75	0.015530	0.027850	0.653430
C761	C76	0.075460	0.998200	0.647380
H461	H46	0.066800	0.972500	0.612800
C771	C77	0.833400	0.374920	0.546930
C781	C78	0.000560	0.956870	0.616500
H471	H47	0.014700	0.908300	0.607300
C791	C79	0.052900	0.028340	0.677500
C801	C80	0.066360	0.063370	0.727230
H481	H48	0.051100	0.083500	0.747800
Co31	Co3	0.205750	0.526140	0.961970
O171	O17	0.697310	0.178600	0.984490
O181	O18	0.270230	0.378140	0.536830
O191	O19	0.661420	0.113030	0.915560
O201	O20	0.258750	0.698800	0.928520
O211	O21	0.689580	0.886530	0.928280
O221	O22	0.240310	0.512210	0.532400
O231	O23	0.236530	0.549810	0.909840
O241	O24	0.660640	0.937750	0.984360
N51	N5	0.590670	0.525390	0.917530
N61	N6	0.340690	0.559710	0.761550
C811	C81	0.285620	0.487110	0.608600
C821	C82	0.636600	0.428540	0.970290
H491	H49	0.641900	0.479400	0.995400
C831	C83	0.609220	0.613730	0.926420
C841	C84	0.609490	0.437670	0.926220
C851	C85	0.555130	0.526410	0.894020
C861	C86	0.263390	0.457030	0.554590
C871	C87	0.324010	0.535260	0.709160
C881	C88	0.638240	0.624700	0.908570
H501	H50	0.645800	0.573800	0.889900
C891	C89	0.278680	0.602270	0.868120
C901	C90	0.645890	0.783760	0.943800
C911	C91	0.271240	0.530460	0.829940
H511	H51	0.251700	0.491000	0.827600
C921	C92	0.656100	0.345330	0.977920
H521	H52	0.674800	0.339300	0.008200
C931	C93	0.319950	0.573130	0.798160
C941	C94	0.620330	0.279840	0.898030
H531	H53	0.614100	0.228100	0.873700
C951	C95	0.376380	0.543430	0.781590
C961	C96	0.312540	0.429310	0.634340
H541	H54	0.317800	0.372500	0.617600
C971	C97	0.616270	0.772770	0.962760
H551	H55	0.609000	0.823500	0.981900
C981	C98	0.540900	0.596600	0.858190
H561	H56	0.555000	0.645200	0.849000
C991	C99	0.278500	0.570390	0.632050
H571	H57	0.260300	0.610500	0.614000
C1001	C100	0.291470	0.515490	0.795740
H581	H58	0.286100	0.465500	0.770200
C1011	C101	0.648400	0.270150	0.941120
C1021	C102	0.256450	0.618820	0.905740
C1031	C103	0.297660	0.596280	0.681780
H591	H59	0.293100	0.655000	0.697400
C1041	C104	0.505710	0.596560	0.835310
H601	H60	0.496300	0.646200	0.811000
C1051	C105	0.601250	0.363710	0.889970
H611	H61	0.582600	0.370300	0.859700
C1061	C106	0.669870	0.183620	0.947100
C1071	C107	0.656540	0.709940	0.917680
H621	H62	0.676800	0.716800	0.905500
C1081	C108	0.534080	0.455940	0.906690
H631	H63	0.543600	0.406900	0.931400
C1091	C109	0.327550	0.644810	0.836180
H641	H64	0.347200	0.684000	0.838700
C1101	C110	0.389020	0.506000	0.831450
H651	H65	0.373700	0.485300	0.851700
C1111	C111	0.597890	0.689450	0.953710
H661	H66	0.577600	0.682600	0.965700
C1121	C112	0.398580	0.570970	0.750830
H671	H67	0.390000	0.594400	0.715700
C1131	C113	0.306990	0.659570	0.869950
H681	H68	0.312200	0.710200	0.895200
C1141	C114	0.331980	0.454260	0.684880
H691	H69	0.350700	0.415000	0.702300
C1151	C115	0.484470	0.527850	0.846570
C1161	C116	0.424540	0.498200	0.852620
H701	H70	0.433200	0.472500	0.887200
C1171	C117	0.666600	0.874920	0.953070
C1181	C118	0.499440	0.456870	0.883500
H711	H71	0.485300	0.408300	0.892700
C1191	C119	0.447100	0.528340	0.822500
C1201	C120	0.433640	0.563370	0.772770
H721	H72	0.448900	0.583500	0.752200
Co41	Co4	0.705750	0.026140	0.961970
O251	O25	0.197310	0.678600	0.984490
O261	O26	0.770230	0.878140	0.536830
O271	O27	0.161420	0.613030	0.915560
O281	O28	0.758750	0.198800	0.928520
O291	O29	0.189580	0.386530	0.928280
O301	O30	0.740310	0.012210	0.532400
O311	O31	0.736530	0.049810	0.909840
O321	O32	0.160640	0.437750	0.984360
N71	N7	0.090670	0.025390	0.917530
N81	N8	0.840690	0.059710	0.761550
C1211	C121	0.785620	0.987110	0.608600
C1221	C122	0.136600	0.928540	0.970290
H731	H73	0.141900	0.979400	0.995400
C1231	C123	0.109220	0.113730	0.926420
C1241	C124	0.109490	0.937670	0.926220
C1251	C125	0.055130	0.026410	0.894020
C1261	C126	0.763390	0.957030	0.554590
C1271	C127	0.824010	0.035260	0.709160
C1281	C128	0.138240	0.124700	0.908570
H741	H74	0.145800	0.073800	0.889900
C1291	C129	0.778680	0.102270	0.868120
C1301	C130	0.145890	0.283760	0.943800
C1311	C131	0.771240	0.030460	0.829940
H751	H75	0.751700	0.991000	0.827600
C1321	C132	0.156100	0.845330	0.977920
H761	H76	0.174800	0.839300	0.008200
C1331	C133	0.819950	0.073130	0.798160
C1341	C134	0.120330	0.779840	0.898030
H771	H77	0.114100	0.728100	0.873700
C1351	C135	0.876380	0.043430	0.781590
C1361	C136	0.812540	0.929310	0.634340
H781	H78	0.817800	0.872500	0.617600
C1371	C137	0.116270	0.272770	0.962760
H791	H79	0.109000	0.323500	0.981900
C1381	C138	0.040900	0.096600	0.858190
H801	H80	0.055000	0.145200	0.849000
C1391	C139	0.778500	0.070390	0.632050
H811	H81	0.760300	0.110500	0.614000
C1401	C140	0.791470	0.015490	0.795740
H821	H82	0.786100	0.965500	0.770200
C1411	C141	0.148400	0.770150	0.941120
C1421	C142	0.756450	0.118820	0.905740
C1431	C143	0.797660	0.096280	0.681780
H831	H83	0.793100	0.155000	0.697400
C1441	C144	0.005710	0.096560	0.835310
H841	H84	0.996300	0.146200	0.811000
C1451	C145	0.101250	0.863710	0.889970
H851	H85	0.082600	0.870300	0.859700
C1461	C146	0.169870	0.683620	0.947100
C1471	C147	0.156540	0.209940	0.917680
H861	H86	0.176800	0.216800	0.905500
C1481	C148	0.034080	0.955940	0.906690
H871	H87	0.043600	0.906900	0.931400
C1491	C149	0.827550	0.144810	0.836180
H881	H88	0.847200	0.184000	0.838700
C1501	C150	0.889020	0.006000	0.831450
H891	H89	0.873700	0.985300	0.851700
C1511	C151	0.097890	0.189450	0.953710
H901	H90	0.077600	0.182600	0.965700
C1521	C152	0.898580	0.070970	0.750830
H911	H91	0.890000	0.094400	0.715700
C1531	C153	0.806990	0.159570	0.869950
H921	H92	0.812200	0.210200	0.895200
C1541	C154	0.831980	0.954260	0.684880
H931	H93	0.850700	0.915000	0.702300
C1551	C155	0.984470	0.027850	0.846570
C1561	C156	0.924540	0.998200	0.852620
H941	H94	0.933200	0.972500	0.887200
C1571	C157	0.166600	0.374920	0.953070
C1581	C158	0.999440	0.956870	0.883500
H951	H95	0.985300	0.908300	0.892700
C1591	C159	0.947100	0.028340	0.822500
C1601	C160	0.933640	0.063370	0.772770
H961	H96	0.948900	0.083500	0.752200
Co51	Co5	0.205750	0.473860	0.461970
O331	O33	0.697310	0.821400	0.484490
O341	O34	0.270230	0.621860	0.036830
O351	O35	0.661420	0.886970	0.415560
O361	O36	0.258750	0.301200	0.428520
O371	O37	0.689580	0.113470	0.428280
O381	O38	0.240310	0.487790	0.032400
O391	O39	0.236530	0.450190	0.409840
O401	O40	0.660640	0.062250	0.484360
N91	N9	0.590670	0.474610	0.417530
N101	N10	0.340690	0.440290	0.261550
C1611	C161	0.285620	0.512890	0.108600
C1621	C162	0.636600	0.571460	0.470290
H971	H97	0.641900	0.520600	0.495400
C1631	C163	0.609220	0.386270	0.426420
C1641	C164	0.609490	0.562330	0.426220
C1651	C165	0.555130	0.473590	0.394020
C1661	C166	0.263390	0.542970	0.054590
C1671	C167	0.324010	0.464740	0.209160
C1681	C168	0.638240	0.375300	0.408570
H981	H98	0.645800	0.426200	0.389900
C1691	C169	0.278680	0.397730	0.368120
C1701	C170	0.645890	0.216240	0.443800
C1711	C171	0.271240	0.469540	0.329940
H991	H99	0.251700	0.509000	0.327600
C1721	C172	0.656100	0.654670	0.477920
H1001	H100	0.674800	0.660700	0.508200
C1731	C173	0.319950	0.426870	0.298160
C1741	C174	0.620330	0.720160	0.398030
H1011	H101	0.614100	0.771900	0.373700
C1751	C175	0.376380	0.456570	0.281590
C1761	C176	0.312540	0.570690	0.134340
H1021	H102	0.317800	0.627500	0.117600
C1771	C177	0.616270	0.227230	0.462760
H1031	H103	0.609000	0.176500	0.481900
C1781	C178	0.540900	0.403400	0.358190
H1041	H104	0.555000	0.354800	0.349000
C1791	C179	0.278500	0.429610	0.132050
H1051	H105	0.260300	0.389500	0.114000
C1801	C180	0.291470	0.484510	0.295740
H1061	H106	0.286100	0.534500	0.270200
C1811	C181	0.648400	0.729850	0.441120
C1821	C182	0.256450	0.381180	0.405740
C1831	C183	0.297660	0.403720	0.181780
H1071	H107	0.293100	0.345000	0.197400
C1841	C184	0.505710	0.403440	0.335310
H1081	H108	0.496300	0.353800	0.311000
C1851	C185	0.601250	0.636290	0.389970
H1091	H109	0.582600	0.629700	0.359700
C1861	C186	0.669870	0.816380	0.447100
C1871	C187	0.656540	0.290060	0.417680
H1101	H110	0.676800	0.283200	0.405500
C1881	C188	0.534080	0.544060	0.406690
H1111	H111	0.543600	0.593100	0.431400
C1891	C189	0.327550	0.355190	0.336180
H1121	H112	0.347200	0.316000	0.338700
C1901	C190	0.389020	0.494000	0.331450
H1131	H113	0.373700	0.514700	0.351700
C1911	C191	0.597890	0.310550	0.453710
H1141	H114	0.577600	0.317400	0.465700
C1921	C192	0.398580	0.429030	0.250830
H1151	H115	0.390000	0.405600	0.215700
C1931	C193	0.306990	0.340430	0.369950
H1161	H116	0.312200	0.289800	0.395200
C1941	C194	0.331980	0.545740	0.184880
H1171	H117	0.350700	0.585000	0.202300
C1951	C195	0.484470	0.472150	0.346570
C1961	C196	0.424540	0.501800	0.352620
H1181	H118	0.433200	0.527500	0.387200
C1971	C197	0.666600	0.125080	0.453070
C1981	C198	0.499440	0.543130	0.383500
H1191	H119	0.485300	0.591700	0.392700
C1991	C199	0.447100	0.471660	0.322500
C2001	C200	0.433640	0.436630	0.272770
H1201	H120	0.448900	0.416500	0.252200
Co61	Co6	0.705750	0.973860	0.461970
O411	O41	0.197310	0.321400	0.484490
O421	O42	0.770230	0.121860	0.036830
O431	O43	0.161420	0.386970	0.415560
O441	O44	0.758750	0.801200	0.428520
O451	O45	0.189580	0.613470	0.428280
O461	O46	0.740310	0.987790	0.032400
O471	O47	0.736530	0.950190	0.409840
O481	O48	0.160640	0.562250	0.484360
N111	N11	0.090670	0.974610	0.417530
N121	N12	0.840690	0.940290	0.261550
C2011	C201	0.785620	0.012890	0.108600
C2021	C202	0.136600	0.071460	0.470290
H1211	H121	0.141900	0.020600	0.495400
C2031	C203	0.109220	0.886270	0.426420
C2041	C204	0.109490	0.062330	0.426220
C2051	C205	0.055130	0.973590	0.394020
C2061	C206	0.763390	0.042970	0.054590
C2071	C207	0.824010	0.964740	0.209160
C2081	C208	0.138240	0.875300	0.408570
H1221	H122	0.145800	0.926200	0.389900
C2091	C209	0.778680	0.897730	0.368120
C2101	C210	0.145890	0.716240	0.443800
C2111	C211	0.771240	0.969540	0.329940
H1231	H123	0.751700	0.009000	0.327600
C2121	C212	0.156100	0.154670	0.477920
H1241	H124	0.174800	0.160700	0.508200
C2131	C213	0.819950	0.926870	0.298160
C2141	C214	0.120330	0.220160	0.398030
H1251	H125	0.114100	0.271900	0.373700
C2151	C215	0.876380	0.956570	0.281590
C2161	C216	0.812540	0.070690	0.134340
H1261	H126	0.817800	0.127500	0.117600
C2171	C217	0.116270	0.727230	0.462760
H1271	H127	0.109000	0.676500	0.481900
C2181	C218	0.040900	0.903400	0.358190
H1281	H128	0.055000	0.854800	0.349000
C2191	C219	0.778500	0.929610	0.132050
H1291	H129	0.760300	0.889500	0.114000
C2201	C220	0.791470	0.984510	0.295740
H1301	H130	0.786100	0.034500	0.270200
C2211	C221	0.148400	0.229850	0.441120
C2221	C222	0.756450	0.881180	0.405740
C2231	C223	0.797660	0.903720	0.181780
H1311	H131	0.793100	0.845000	0.197400
C2241	C224	0.005710	0.903440	0.335310
H1321	H132	0.996300	0.853800	0.311000
C2251	C225	0.101250	0.136290	0.389970
H1331	H133	0.082600	0.129700	0.359700
C2261	C226	0.169870	0.316380	0.447100
C2271	C227	0.156540	0.790060	0.417680
H1341	H134	0.176800	0.783200	0.405500
C2281	C228	0.034080	0.044060	0.406690
H1351	H135	0.043600	0.093100	0.431400
C2291	C229	0.827550	0.855190	0.336180
H1361	H136	0.847200	0.816000	0.338700
C2301	C230	0.889020	0.994000	0.331450
H1371	H137	0.873700	0.014700	0.351700
C2311	C231	0.097890	0.810550	0.453710
H1381	H138	0.077600	0.817400	0.465700
C2321	C232	0.898580	0.929030	0.250830
H1391	H139	0.890000	0.905600	0.215700
C2331	C233	0.806990	0.840430	0.369950
H1401	H140	0.812200	0.789800	0.395200
C2341	C234	0.831980	0.045740	0.184880
H1411	H141	0.850700	0.085000	0.202300
C2351	C235	0.984470	0.972150	0.346570
C2361	C236	0.924540	0.001800	0.352620
H1421	H142	0.933200	0.027500	0.387200
C2371	C237	0.166600	0.625080	0.453070
C2381	C238	0.999440	0.043130	0.383500
H1431	H143	0.985300	0.091700	0.392700
C2391	C239	0.947100	0.971660	0.322500
C2401	C240	0.933640	0.936630	0.272770
H1441	H144	0.948900	0.916500	0.252200
Co71	Co7	0.794250	0.473860	0.038030
O491	O49	0.302690	0.821400	0.015510
O501	O50	0.729770	0.621860	0.463170
O511	O51	0.338580	0.886970	0.084440
O521	O52	0.741250	0.301200	0.071480
O531	O53	0.310420	0.113470	0.071720
O541	O54	0.759690	0.487790	0.467600
O551	O55	0.763470	0.450190	0.090160
O561	O56	0.339360	0.062250	0.015640
N131	N13	0.409330	0.474610	0.082470
N141	N14	0.659310	0.440290	0.238450
C2411	C241	0.714380	0.512890	0.391400
C2421	C242	0.363400	0.571460	0.029710
H1451	H145	0.358100	0.520600	0.004600
C2431	C243	0.390780	0.386270	0.073580
C2441	C244	0.390510	0.562330	0.073780
C2451	C245	0.444870	0.473590	0.105980
C2461	C246	0.736610	0.542970	0.445410
C2471	C247	0.675990	0.464740	0.290840
C2481	C248	0.361760	0.375300	0.091430
H1461	H146	0.354200	0.426200	0.110100
C2491	C249	0.721320	0.397730	0.131880
C2501	C250	0.354110	0.216240	0.056200
C2511	C251	0.728760	0.469540	0.170060
H1471	H147	0.748300	0.509000	0.172400
C2521	C252	0.343900	0.654670	0.022080
H1481	H148	0.325200	0.660700	0.991800
C2531	C253	0.680050	0.426870	0.201840
C2541	C254	0.379670	0.720160	0.101970
H1491	H149	0.385900	0.771900	0.126300
C2551	C255	0.623620	0.456570	0.218410
C2561	C256	0.687460	0.570690	0.365660
H1501	H150	0.682200	0.627500	0.382400
C2571	C257	0.383730	0.227230	0.037240
H1511	H151	0.391000	0.176500	0.018100
C2581	C258	0.459100	0.403400	0.141810
H1521	H152	0.445000	0.354800	0.151000
C2591	C259	0.721500	0.429610	0.367950
H1531	H153	0.739700	0.389500	0.386000
C2601	C260	0.708530	0.484510	0.204260
H1541	H154	0.713900	0.534500	0.229800
C2611	C261	0.351600	0.729850	0.058880
C2621	C262	0.743550	0.381180	0.094260
C2631	C263	0.702340	0.403720	0.318220
H1551	H155	0.706900	0.345000	0.302600
C2641	C264	0.494290	0.403440	0.164690
H1561	H156	0.503700	0.353800	0.189000
C2651	C265	0.398750	0.636290	0.110030
H1571	H157	0.417400	0.629700	0.140300
C2661	C266	0.330130	0.816380	0.052900
C2671	C267	0.343460	0.290060	0.082320
H1581	H158	0.323200	0.283200	0.094500
C2681	C268	0.465920	0.544060	0.093310
H1591	H159	0.456400	0.593100	0.068600
C2691	C269	0.672450	0.355190	0.163820
H1601	H160	0.652800	0.316000	0.161300
C2701	C270	0.610980	0.494000	0.168550
H1611	H161	0.626300	0.514700	0.148300
C2711	C271	0.402110	0.310550	0.046290
H1621	H162	0.422400	0.317400	0.034300
C2721	C272	0.601420	0.429030	0.249170
H1631	H163	0.610000	0.405600	0.284300
C2731	C273	0.693010	0.340430	0.130050
H1641	H164	0.687800	0.289800	0.104800
C2741	C274	0.668020	0.545740	0.315120
H1651	H165	0.649300	0.585000	0.297700
C2751	C275	0.515530	0.472150	0.153430
C2761	C276	0.575460	0.501800	0.147380
H1661	H166	0.566800	0.527500	0.112800
C2771	C277	0.333400	0.125080	0.046930
C2781	C278	0.500560	0.543130	0.116500
H1671	H167	0.514700	0.591700	0.107300
C2791	C279	0.552900	0.471660	0.177500
C2801	C280	0.566360	0.436630	0.227230
H1681	H168	0.551100	0.416500	0.247800
Co81	Co8	0.294250	0.973860	0.038030
O571	O57	0.802690	0.321400	0.015510
O581	O58	0.229770	0.121860	0.463170
O591	O59	0.838580	0.386970	0.084440
O601	O60	0.241250	0.801200	0.071480
O611	O61	0.810420	0.613470	0.071720
O621	O62	0.259690	0.987790	0.467600
O631	O63	0.263470	0.950190	0.090160
O641	O64	0.839360	0.562250	0.015640
N151	N15	0.909330	0.974610	0.082470
N161	N16	0.159310	0.940290	0.238450
C2811	C281	0.214380	0.012890	0.391400
C2821	C282	0.863400	0.071460	0.029710
H1691	H169	0.858100	0.020600	0.004600
C2831	C283	0.890780	0.886270	0.073580
C2841	C284	0.890510	0.062330	0.073780
C2851	C285	0.944870	0.973590	0.105980
C2861	C286	0.236610	0.042970	0.445410
C2871	C287	0.175990	0.964740	0.290840
C2881	C288	0.861760	0.875300	0.091430
H1701	H170	0.854200	0.926200	0.110100
C2891	C289	0.221320	0.897730	0.131880
C2901	C290	0.854110	0.716240	0.056200
C2911	C291	0.228760	0.969540	0.170060
H1711	H171	0.248300	0.009000	0.172400
C2921	C292	0.843900	0.154670	0.022080
H1721	H172	0.825200	0.160700	0.991800
C2931	C293	0.180050	0.926870	0.201840
C2941	C294	0.879670	0.220160	0.101970
H1731	H173	0.885900	0.271900	0.126300
C2951	C295	0.123620	0.956570	0.218410
C2961	C296	0.187460	0.070690	0.365660
H1741	H174	0.182200	0.127500	0.382400
C2971	C297	0.883730	0.727230	0.037240
H1751	H175	0.891000	0.676500	0.018100
C2981	C298	0.959100	0.903400	0.141810
H1761	H176	0.945000	0.854800	0.151000
C2991	C299	0.221500	0.929610	0.367950
H1771	H177	0.239700	0.889500	0.386000
C3001	C300	0.208530	0.984510	0.204260
H1781	H178	0.213900	0.034500	0.229800
C3011	C301	0.851600	0.229850	0.058880
C3021	C302	0.243550	0.881180	0.094260
C3031	C303	0.202340	0.903720	0.318220
H1791	H179	0.206900	0.845000	0.302600
C3041	C304	0.994290	0.903440	0.164690
H1801	H180	0.003700	0.853800	0.189000
C3051	C305	0.898750	0.136290	0.110030
H1811	H181	0.917400	0.129700	0.140300
C3061	C306	0.830130	0.316380	0.052900
C3071	C307	0.843460	0.790060	0.082320
H1821	H182	0.823200	0.783200	0.094500
C3081	C308	0.965920	0.044060	0.093310
H1831	H183	0.956400	0.093100	0.068600
C3091	C309	0.172450	0.855190	0.163820
H1841	H184	0.152800	0.816000	0.161300
C3101	C310	0.110980	0.994000	0.168550
H1851	H185	0.126300	0.014700	0.148300
C3111	C311	0.902110	0.810550	0.046290
H1861	H186	0.922400	0.817400	0.034300
C3121	C312	0.101420	0.929030	0.249170
H1871	H187	0.110000	0.905600	0.284300
C3131	C313	0.193010	0.840430	0.130050
H1881	H188	0.187800	0.789800	0.104800
C3141	C314	0.168020	0.045740	0.315120
H1891	H189	0.149300	0.085000	0.297700
C3151	C315	0.015530	0.972150	0.153430
C3161	C316	0.075460	0.001800	0.147380
H1901	H190	0.066800	0.027500	0.112800
C3171	C317	0.833400	0.625080	0.046930
C3181	C318	0.000560	0.043130	0.116500
H1911	H191	0.014700	0.091700	0.107300
C3191	C319	0.052900	0.971660	0.177500
C3201	C320	0.066360	0.936630	0.227230
H1921	H192	0.051100	0.916500	0.247800
Co91	Co9	0.750000	0.750000	0.500000
Co101	Co10	0.250000	0.750000	0.000000
Co111	Co11	0.250000	0.250000	0.500000
Co121	Co12	0.750000	0.250000	0.000000
