data_c6ce00407e_c6ce00407e11_freeONLY_PM
_symmetry_space_group_name_H-M	'P1'
_cell_length_a	19.586200
_cell_length_b	18.176900
_cell_length_c	26.759300
_cell_angle_alpha	106.744000
_cell_angle_beta	82.402800
_cell_angle_gamma	117.123000
_symmetry_Int_Tables_number 1

loop_
_symmetry_equiv_pos_as_xyz
'x,y,z'

loop_
_atom_site_label
_atom_site_type_symbol
_atom_site_fract_x
_atom_site_fract_y
_atom_site_fract_z
C11	C1	0.381730	0.019580	0.699090
C21	C2	0.253050	0.018580	0.636350
C31	C3	0.308710	0.091500	0.672300
H11	H1	0.306050	0.151660	0.678830
C41	C4	0.368540	0.092300	0.701720
H21	H2	0.404270	0.152340	0.728060
C51	C5	0.747440	0.012690	0.696030
H31	H3	0.746170	0.068780	0.723370
C61	C6	0.819600	0.028030	0.668630
H41	H4	0.864920	0.092640	0.677700
C71	C7	0.235850	0.255210	0.337190
C81	C8	0.241520	0.181930	0.341610
H51	H5	0.272700	0.155160	0.311780
C91	C9	0.208470	0.139640	0.383390
H61	H6	0.217110	0.084440	0.381990
C101	C10	0.165660	0.165290	0.425940
C111	C11	0.159830	0.238320	0.421740
H71	H7	0.128440	0.264390	0.451920
C121	C12	0.192850	0.280670	0.379990
H81	H8	0.183710	0.335680	0.381950
C131	C13	0.325850	0.947840	0.663050
H91	H9	0.326530	0.886700	0.656430
C141	C14	0.266820	0.947040	0.633980
H101	H10	0.229980	0.886400	0.608670
C151	C15	0.679840	0.932740	0.690440
C161	C16	0.835410	0.965190	0.631060
C171	C17	0.768460	0.884230	0.624490
H111	H11	0.772470	0.829880	0.596640
C181	C18	0.695020	0.868520	0.652360
H121	H12	0.649670	0.803930	0.643590
C191	C19	0.813170	0.763870	0.324240
C201	C20	0.845320	0.852600	0.347400
H131	H13	0.831550	0.892840	0.331900
C211	C21	0.897110	0.893370	0.390200
H141	H14	0.919400	0.961930	0.405490
C221	C22	0.920770	0.848840	0.413360
C231	C23	0.889060	0.760560	0.390540
H151	H15	0.904450	0.721700	0.406330
C241	C24	0.837390	0.719630	0.347680
H161	H16	0.815330	0.651060	0.333460
C251	C25	0.061100	0.009280	0.543030
C261	C26	0.917300	0.985610	0.601600
C271	C27	0.985110	0.006610	0.579200
C281	C28	0.022280	0.928890	0.497580
C291	C29	0.976410	0.892780	0.459540
C301	C30	0.129310	0.118670	0.471980
C311	C31	0.099770	0.080720	0.509470
C321	C32	0.185020	0.015110	0.603500
C331	C33	0.129450	0.009720	0.576400
O11	O1	0.571950	0.965220	0.855950
O21	O2	0.463020	0.836610	0.829690
C341	C34	0.522230	0.881490	0.862480
O31	O3	0.491550	0.061220	0.871170
O41	O4	0.386820	0.933830	0.831010
C351	C35	0.417960	0.015980	0.866390
Cu11	Cu1	0.551290	0.027110	0.813660
Cu21	Cu2	0.445820	0.884080	0.778090
O51	O5	0.504810	0.059000	0.766260
O61	O6	0.415430	0.921330	0.726750
O71	O7	0.622600	0.006970	0.759560
O81	O8	0.528280	0.866730	0.731500
C361	C36	0.439130	0.004280	0.732990
C371	C37	0.604400	0.930500	0.727310
C381	C38	0.273150	0.303040	0.290010
C391	C39	0.343320	0.393050	0.201300
C401	C40	0.349260	0.320090	0.205500
H171	H17	0.380770	0.294140	0.175350
C411	C41	0.316250	0.277690	0.247240
H181	H18	0.325460	0.222730	0.245290
C421	C42	0.740920	0.636880	0.244180
H191	H19	0.770560	0.603020	0.250840
C431	C43	0.689170	0.596150	0.201370
H201	H20	0.681270	0.533390	0.178090
C441	C44	0.383400	0.074950	0.902340
C451	C45	0.382990	0.140490	0.884240
H211	H21	0.377990	0.129220	0.842650
C461	C46	0.398060	0.224580	0.916290
H221	H22	0.398890	0.270640	0.897850
C471	C47	0.416890	0.252270	0.969620
C481	C48	0.415740	0.187000	0.988380
H231	H23	0.430890	0.202220	0.028740
C491	C49	0.400810	0.103230	0.956120
H241	H24	0.410040	0.061320	0.973160
C501	C50	0.267380	0.376270	0.285590
H251	H25	0.236110	0.402950	0.315390
C511	C51	0.300420	0.418590	0.243830
H261	H26	0.291710	0.473750	0.245240
C521	C52	0.755890	0.718670	0.276880
C531	C53	0.648170	0.633700	0.187840
C541	C54	0.662660	0.715010	0.220210
H271	H27	0.632950	0.748080	0.212360
C551	C55	0.714460	0.755970	0.262990
H281	H28	0.720700	0.818140	0.286000
C561	C56	0.521540	0.824680	0.903390
C571	C57	0.568770	0.845180	0.947030
H291	H29	0.616020	0.908480	0.956810
C581	C58	0.558040	0.787300	0.980170
H301	H30	0.598750	0.812960	0.011500
C591	C59	0.498860	0.700540	0.975150
C601	C60	0.452420	0.680890	0.931780
H311	H31	0.404710	0.617920	0.922150
C611	C61	0.463030	0.738130	0.899050
H321	H32	0.421450	0.711420	0.868210
C621	C62	0.470230	0.509860	0.072380
C631	C63	0.592460	0.589780	0.141710
C641	C64	0.546590	0.553740	0.103670
C651	C65	0.472420	0.579570	0.040260
C661	C66	0.485100	0.634390	0.011650
C671	C67	0.439920	0.345620	0.003580
C681	C68	0.460250	0.422410	0.031440
C691	C69	0.379670	0.439750	0.155300
C701	C70	0.409230	0.477830	0.117870
