data_CABQEB_freeONLY_PM
_symmetry_space_group_name_H-M	'P1'
_cell_length_a	11.565000
_cell_length_b	17.723300
_cell_length_c	17.723300
_cell_angle_alpha	83.889400
_cell_angle_beta	70.957800
_cell_angle_gamma	70.957700
_symmetry_Int_Tables_number 1

loop_
_symmetry_equiv_pos_as_xyz
'x,y,z'

loop_
_atom_site_label
_atom_site_type_symbol
_atom_site_fract_x
_atom_site_fract_y
_atom_site_fract_z
Co11	Co1	0.577400	0.225200	0.670800
Co21	Co2	0.457700	0.412200	0.667600
Co31	Co3	0.973400	0.274800	0.829200
Co41	Co4	0.037500	0.087800	0.832400
Co51	Co5	0.248200	0.329200	0.725200
Co61	Co6	0.125300	0.332400	0.912200
Co71	Co7	0.802600	0.170800	0.774800
Co81	Co8	0.869900	0.167600	0.587800
Co91	Co9	0.422600	0.774800	0.329200
Co101	Co10	0.542300	0.587800	0.332400
Co111	Co11	0.026600	0.725200	0.170800
Co121	Co12	0.962500	0.912200	0.167600
Co131	Co13	0.751800	0.670800	0.274800
Co141	Co14	0.874700	0.667600	0.087800
Co151	Co15	0.197400	0.829200	0.225200
Co161	Co16	0.130100	0.832400	0.412200
Co171	Co17	0.500000	0.500000	0.500000
Co181	Co18	0.000000	0.000000	0.000000
Co191	Co19	0.000000	0.500000	0.000000
Co201	Co20	0.000000	0.000000	0.500000
H11	H1	0.428800	0.307000	0.600400
H21	H2	0.489000	0.390200	0.904800
H31	H3	0.610500	0.412600	0.849800
H41	H4	0.484500	0.440000	0.826400
H51	H5	0.113600	0.553600	0.553400
H61	H6	0.237500	0.511500	0.485700
H71	H7	0.131100	0.469500	0.522700
H81	H8	0.850200	0.296500	0.431500
H91	H9	0.736100	0.276100	0.419900
H101	H10	0.738300	0.364700	0.410700
H111	H11	0.602000	0.599600	0.715800
H121	H12	0.476200	0.662600	0.708200
H131	H13	0.605400	0.651600	0.638000
H141	H14	0.836200	0.193000	0.899600
H151	H15	0.284000	0.109800	0.595200
H161	H16	0.372900	0.087400	0.650200
H171	H17	0.250900	0.060000	0.673600
H181	H18	0.720600	0.946400	0.946600
H191	H19	0.734700	0.988500	0.014300
H201	H20	0.623300	0.030500	0.977300
H211	H21	0.078200	0.203500	0.068500
H221	H22	0.932100	0.223900	0.080100
H231	H23	0.013700	0.135300	0.089300
H241	H24	0.417400	0.900400	0.784200
H251	H25	0.347000	0.837400	0.791800
H261	H26	0.395000	0.848400	0.862000
H271	H27	0.029200	0.399600	0.807000
H281	H28	0.393800	0.095200	0.890200
H291	H29	0.460300	0.150200	0.912600
H301	H30	0.310900	0.173600	0.940000
H311	H31	0.667000	0.446600	0.053600
H321	H32	0.723200	0.514300	0.011500
H331	H33	0.653800	0.477300	0.969500
H341	H34	0.281700	0.568500	0.796500
H351	H35	0.156000	0.580100	0.776100
H361	H36	0.149000	0.589300	0.864700
H371	H37	0.317800	0.284200	0.099600
H381	H38	0.184400	0.291800	0.162600
H391	H39	0.243400	0.362000	0.151600
H401	H40	0.735800	0.100400	0.693000
H411	H41	0.879200	0.404800	0.609800
H421	H42	0.023100	0.349800	0.587400
H431	H43	0.924500	0.326400	0.560000
H441	H44	0.667200	0.053400	0.446400
H451	H45	0.749000	0.985700	0.488500
H461	H46	0.600600	0.022700	0.530500
H471	H47	0.146700	0.931500	0.703500
H481	H48	0.012200	0.919900	0.723900
H491	H49	0.103000	0.910700	0.635300
H501	H50	0.201600	0.215800	0.400400
H511	H51	0.138800	0.208200	0.337400
H521	H52	0.257000	0.138000	0.348400
H531	H53	0.571200	0.693000	0.399600
H541	H54	0.511000	0.609800	0.095200
H551	H55	0.389500	0.587400	0.150200
H561	H56	0.515500	0.560000	0.173600
H571	H57	0.886400	0.446400	0.446600
H581	H58	0.762500	0.488500	0.514300
H591	H59	0.868900	0.530500	0.477300
H601	H60	0.149800	0.703500	0.568500
H611	H61	0.263900	0.723900	0.580100
H621	H62	0.261700	0.635300	0.589300
H631	H63	0.398000	0.400400	0.284200
H641	H64	0.523800	0.337400	0.291800
H651	H65	0.394600	0.348400	0.362000
H661	H66	0.163800	0.807000	0.100400
H671	H67	0.716000	0.890200	0.404800
H681	H68	0.627100	0.912600	0.349800
H691	H69	0.749100	0.940000	0.326400
H701	H70	0.279400	0.053600	0.053400
H711	H71	0.265300	0.011500	0.985700
H721	H72	0.376700	0.969500	0.022700
H731	H73	0.921800	0.796500	0.931500
H741	H74	0.067900	0.776100	0.919900
H751	H75	0.986300	0.864700	0.910700
H761	H76	0.582600	0.099600	0.215800
H771	H77	0.653000	0.162600	0.208200
H781	H78	0.605000	0.151600	0.138000
H791	H79	0.970800	0.600400	0.193000
H801	H80	0.606200	0.904800	0.109800
H811	H81	0.539700	0.849800	0.087400
H821	H82	0.689100	0.826400	0.060000
H831	H83	0.333000	0.553400	0.946400
H841	H84	0.276800	0.485700	0.988500
H851	H85	0.346200	0.522700	0.030500
H861	H86	0.718300	0.431500	0.203500
H871	H87	0.844000	0.419900	0.223900
H881	H88	0.851000	0.410700	0.135300
H891	H89	0.682200	0.715800	0.900400
H901	H90	0.815600	0.708200	0.837400
H911	H91	0.756600	0.638000	0.848400
H921	H92	0.264200	0.899600	0.307000
H931	H93	0.120800	0.595200	0.390200
H941	H94	0.976900	0.650200	0.412600
H951	H95	0.075500	0.673600	0.440000
H961	H96	0.332800	0.946600	0.553600
H971	H97	0.251000	0.014300	0.511500
H981	H98	0.399400	0.977300	0.469500
H991	H99	0.853300	0.068500	0.296500
H1001	H100	0.987800	0.080100	0.276100
H1011	H101	0.897000	0.089300	0.364700
H1021	H102	0.798400	0.784200	0.599600
H1031	H103	0.861200	0.791800	0.662600
H1041	H104	0.743000	0.862000	0.651600
C11	C1	0.582600	0.321900	0.803300
C21	C2	0.537800	0.397800	0.850600
C31	C3	0.239500	0.462000	0.595000
C41	C4	0.174700	0.502700	0.533900
C51	C5	0.687200	0.328200	0.527400
C61	C6	0.759400	0.315800	0.439400
C71	C7	0.523500	0.563200	0.645800
C81	C8	0.555100	0.624700	0.679100
C91	C9	0.207800	0.178100	0.696700
C101	C10	0.286200	0.102200	0.649400
C111	C11	0.796500	0.038000	0.905000
C121	C12	0.711300	0.997300	0.966100
C131	C13	0.042800	0.171800	0.972600
C141	C14	0.014600	0.184200	0.060600
C151	C15	0.232500	0.936800	0.854200
C161	C16	0.358900	0.875300	0.820900
C171	C17	0.385900	0.196700	0.821900
C181	C18	0.388400	0.149400	0.897800
C191	C19	0.834500	0.405000	0.962000
C201	C20	0.708600	0.466100	0.002700
C211	C21	0.214600	0.472600	0.828200
C221	C22	0.198800	0.560600	0.815800
C231	C23	0.169300	0.354200	0.063200
C241	C24	0.234200	0.320900	0.124700
C251	C25	0.904500	0.303300	0.678100
C261	C26	0.935600	0.350600	0.602200
C271	C27	0.701500	0.095000	0.538000
C281	C28	0.677400	0.033900	0.497300
C291	C29	0.015400	0.027400	0.671800
C301	C30	0.075200	0.939400	0.684200
C311	C31	0.086700	0.145800	0.436800
C321	C32	0.179800	0.179100	0.375300
C331	C33	0.417400	0.678100	0.196700
C341	C34	0.462200	0.602200	0.149400
C351	C35	0.760500	0.538000	0.405000
C361	C36	0.825300	0.497300	0.466100
C371	C37	0.312800	0.671800	0.472600
C381	C38	0.240600	0.684200	0.560600
C391	C39	0.476500	0.436800	0.354200
C401	C40	0.444900	0.375300	0.320900
C411	C41	0.792200	0.821900	0.303300
C421	C42	0.713800	0.897800	0.350600
C431	C43	0.203500	0.962000	0.095000
C441	C44	0.288700	0.002700	0.033900
C451	C45	0.957200	0.828200	0.027400
C461	C46	0.985400	0.815800	0.939400
C471	C47	0.767500	0.063200	0.145800
C481	C48	0.641100	0.124700	0.179100
C491	C49	0.614100	0.803300	0.178100
C501	C50	0.611600	0.850600	0.102200
C511	C51	0.165500	0.595000	0.038000
C521	C52	0.291400	0.533900	0.997300
C531	C53	0.785400	0.527400	0.171800
C541	C54	0.801200	0.439400	0.184200
C551	C55	0.830700	0.645800	0.936800
C561	C56	0.765800	0.679100	0.875300
C571	C57	0.095500	0.696700	0.321900
C581	C58	0.064400	0.649400	0.397800
C591	C59	0.298500	0.905000	0.462000
C601	C60	0.322600	0.966100	0.502700
C611	C61	0.984600	0.972600	0.328200
C621	C62	0.924800	0.060600	0.315800
C631	C63	0.913300	0.854200	0.563200
C641	C64	0.820200	0.820900	0.624700
O11	O1	0.427600	0.309600	0.648200
O21	O2	0.563700	0.326100	0.735700
O31	O3	0.183900	0.418500	0.643700
O41	O4	0.343300	0.474800	0.594600
O51	O5	0.714600	0.271000	0.574000
O61	O6	0.603200	0.394200	0.551800
O71	O7	0.501700	0.506400	0.691200
O81	O8	0.525400	0.569000	0.574000
O91	O9	0.634700	0.257900	0.831700
O101	O10	0.885400	0.190400	0.851800
O111	O11	0.125500	0.173900	0.764300
O121	O12	0.746100	0.081500	0.856300
O131	O13	0.912700	0.025200	0.905400
O141	O14	0.059600	0.229000	0.926000
O151	O15	0.049200	0.105800	0.948200
O161	O16	0.199300	0.993600	0.808800
O171	O17	0.168400	0.931000	0.926000
O181	O18	0.224300	0.242100	0.668300
O191	O19	0.075800	0.351800	0.809600
O201	O20	0.299400	0.264300	0.826100
O211	O21	0.827600	0.356300	0.918500
O221	O22	0.937900	0.405400	0.974800
O231	O23	0.288600	0.426000	0.771000
O241	O24	0.155000	0.448200	0.894200
O251	O25	0.192900	0.308800	0.006400
O261	O26	0.099400	0.426000	0.069000
O271	O27	0.466400	0.168300	0.757900
O281	O28	0.737200	0.148200	0.690400
O291	O29	0.889800	0.235700	0.673900
O301	O30	0.602400	0.143700	0.581500
O311	O31	0.818100	0.094600	0.525200
O321	O32	0.985600	0.074000	0.729000
O331	O33	0.997400	0.051800	0.605800
O341	O34	0.008100	0.191200	0.493600
O351	O35	0.094400	0.074000	0.431000
O361	O36	0.892600	0.331700	0.742100
O371	O37	0.572400	0.690400	0.351800
O381	O38	0.436300	0.673900	0.264300
O391	O39	0.816100	0.581500	0.356300
O401	O40	0.656700	0.525200	0.405400
O411	O41	0.285400	0.729000	0.426000
O421	O42	0.396800	0.605800	0.448200
O431	O43	0.498300	0.493600	0.308800
O441	O44	0.474600	0.431000	0.426000
O451	O45	0.365300	0.742100	0.168300
O461	O46	0.114600	0.809600	0.148200
O471	O47	0.874500	0.826100	0.235700
O481	O48	0.253900	0.918500	0.143700
O491	O49	0.087300	0.974800	0.094600
O501	O50	0.940400	0.771000	0.074000
O511	O51	0.950800	0.894200	0.051800
O521	O52	0.800700	0.006400	0.191200
O531	O53	0.831600	0.069000	0.074000
O541	O54	0.775700	0.757900	0.331700
O551	O55	0.924200	0.648200	0.190400
O561	O56	0.700600	0.735700	0.173900
O571	O57	0.172400	0.643700	0.081500
O581	O58	0.062100	0.594600	0.025200
O591	O59	0.711400	0.574000	0.229000
O601	O60	0.845000	0.551800	0.105800
O611	O61	0.807100	0.691200	0.993600
O621	O62	0.900600	0.574000	0.931000
O631	O63	0.533600	0.831700	0.242100
O641	O64	0.262800	0.851800	0.309600
O651	O65	0.110200	0.764300	0.326100
O661	O66	0.397600	0.856300	0.418500
O671	O67	0.181900	0.905400	0.474800
O681	O68	0.014400	0.926000	0.271000
O691	O69	0.002600	0.948200	0.394200
O701	O70	0.991900	0.808800	0.506400
O711	O71	0.905600	0.926000	0.569000
O721	O72	0.107400	0.668300	0.257900
