data_CADPII_freeONLY_PM
_symmetry_space_group_name_H-M	'P1'
_cell_length_a	6.928020
_cell_length_b	17.564800
_cell_length_c	17.564800
_cell_angle_alpha	61.701100
_cell_angle_beta	82.445100
_cell_angle_gamma	97.554900
_symmetry_Int_Tables_number 1

loop_
_symmetry_equiv_pos_as_xyz
'x,y,z'

loop_
_atom_site_label
_atom_site_type_symbol
_atom_site_fract_x
_atom_site_fract_y
_atom_site_fract_z
Zn11	Zn1	0.744870	0.009650	0.709100
Zn21	Zn2	0.558300	0.126040	0.535540
Zn31	Zn3	0.453970	0.709100	0.281250
Zn41	Zn4	0.093840	0.535540	0.338420
Zn51	Zn5	0.735220	0.281250	0.009650
Zn61	Zn6	0.432260	0.338420	0.126040
Zn71	Zn7	0.953970	0.718750	0.290900
Zn81	Zn8	0.593840	0.661580	0.464460
Zn91	Zn9	0.235220	0.990350	0.718750
Zn101	Zn10	0.932260	0.873960	0.661580
Zn111	Zn11	0.244870	0.290900	0.990350
Zn121	Zn12	0.058300	0.464460	0.873960
H11	H1	0.504500	0.957500	0.643300
H21	H2	0.588400	0.290600	0.409100
H31	H3	0.583000	0.794500	0.995100
H41	H4	0.468800	0.672900	0.855200
H51	H5	0.327200	0.534500	0.122400
H61	H6	0.147800	0.643300	0.399200
H71	H7	0.997500	0.409100	0.300300
H81	H8	0.578100	0.995100	0.210400
H91	H9	0.324000	0.855200	0.471900
H101	H10	0.449600	0.122400	0.343100
H111	H11	0.547000	0.399200	0.957500
H121	H12	0.297800	0.300300	0.290600
H131	H13	0.788500	0.210400	0.794500
H141	H14	0.795900	0.471900	0.672900
H151	H15	0.792700	0.343100	0.534500
H161	H16	0.647800	0.600800	0.356700
H171	H17	0.497500	0.699700	0.590900
H181	H18	0.078100	0.789600	0.004900
H191	H19	0.824000	0.528100	0.144800
H201	H20	0.949600	0.656900	0.877600
H211	H21	0.047000	0.042500	0.600800
H221	H22	0.797800	0.709400	0.699700
H231	H23	0.288500	0.205500	0.789600
H241	H24	0.295900	0.327100	0.528100
H251	H25	0.292700	0.465500	0.656900
H261	H26	0.004500	0.356700	0.042500
H271	H27	0.088400	0.590900	0.709400
H281	H28	0.083000	0.004900	0.205500
H291	H29	0.968800	0.144800	0.327100
H301	H30	0.827200	0.877600	0.465500
C11	C1	0.453040	0.664080	0.071560
C21	C2	0.539920	0.746690	0.912430
C31	C3	0.386490	0.590570	0.988300
C41	C4	0.533570	0.743620	0.993510
C51	C5	0.465590	0.670410	0.909440
C61	C6	0.628810	0.831420	0.826490
C71	C7	0.380160	0.587590	0.069710
C81	C8	0.298360	0.509470	0.986190
C91	C9	0.436730	0.659790	0.159700
C101	C10	0.524600	0.071560	0.264360
C111	C11	0.452350	0.912430	0.340880
C121	C12	0.374790	0.988300	0.421130
C131	C13	0.527080	0.993510	0.262870
C141	C14	0.375030	0.909440	0.420150
C151	C15	0.455300	0.826490	0.342090
C161	C16	0.449870	0.069710	0.342700
C171	C17	0.284550	0.986190	0.504340
C181	C18	0.596430	0.159700	0.180510
C191	C19	0.788960	0.264360	0.664080
C201	C20	0.793230	0.340880	0.746690
C211	C21	0.795920	0.421130	0.590570
C221	C22	0.789950	0.262870	0.743620
C231	C23	0.795180	0.420150	0.670410
C241	C24	0.797390	0.342090	0.831420
C251	C25	0.792570	0.342700	0.587590
C261	C26	0.788890	0.504340	0.509470
C271	C27	0.776940	0.180510	0.659790
C281	C28	0.024600	0.735640	0.928440
C291	C29	0.952350	0.659120	0.087570
C301	C30	0.874790	0.578870	0.011700
C311	C31	0.027080	0.737130	0.006490
C321	C32	0.875030	0.579850	0.090560
C331	C33	0.955300	0.657910	0.173510
C341	C34	0.949870	0.657300	0.930290
C351	C35	0.784550	0.495660	0.013810
C361	C36	0.096430	0.819490	0.840300
C371	C37	0.288960	0.335920	0.735640
C381	C38	0.293230	0.253310	0.659120
C391	C39	0.295920	0.409430	0.578870
C401	C40	0.289950	0.256380	0.737130
C411	C41	0.295180	0.329590	0.579850
C421	C42	0.297390	0.168580	0.657910
C431	C43	0.292570	0.412410	0.657300
C441	C44	0.288890	0.490530	0.495660
C451	C45	0.276940	0.340210	0.819490
C461	C46	0.953040	0.928440	0.335920
C471	C47	0.039920	0.087570	0.253310
C481	C48	0.886490	0.011700	0.409430
C491	C49	0.033570	0.006490	0.256380
C501	C50	0.965590	0.090560	0.329590
C511	C51	0.128810	0.173510	0.168580
C521	C52	0.880160	0.930290	0.412410
C531	C53	0.798360	0.013810	0.490530
C541	C54	0.936730	0.840300	0.340210
O11	O1	0.507070	0.004940	0.657830
O21	O2	0.669810	0.902150	0.829720
O31	O3	0.660690	0.827540	0.756370
O41	O4	0.506670	0.730120	0.159710
O51	O5	0.356670	0.587790	0.228880
O61	O6	0.611200	0.244170	0.413070
O71	O7	0.242390	0.436260	0.056590
O81	O8	0.283220	0.521980	0.908820
O91	O9	0.164900	0.657830	0.337230
O101	O10	0.499530	0.829720	0.268130
O111	O11	0.417060	0.756370	0.416090
O121	O12	0.666380	0.159710	0.110170
O131	O13	0.585550	0.228880	0.183330
O141	O14	0.024270	0.413070	0.342760
O151	O15	0.298980	0.056590	0.507150
O161	O16	0.192040	0.908820	0.569200
O171	O17	0.502130	0.337230	0.004940
O181	O18	0.767660	0.268130	0.902150
O191	O19	0.833150	0.416090	0.827540
O201	O20	0.776550	0.110170	0.730120
O211	O21	0.768880	0.183330	0.587790
O221	O22	0.367030	0.342760	0.244170
O231	O23	0.806130	0.507150	0.436260
O241	O24	0.761240	0.569200	0.521980
O251	O25	0.664900	0.662770	0.342170
O261	O26	0.999530	0.731870	0.170280
O271	O27	0.917060	0.583910	0.243630
O281	O28	0.166380	0.889830	0.840290
O291	O29	0.085550	0.816670	0.771120
O301	O30	0.524270	0.657240	0.586930
O311	O31	0.798980	0.492850	0.943410
O321	O32	0.692040	0.430800	0.091180
O331	O33	0.002130	0.995060	0.662770
O341	O34	0.267660	0.097850	0.731870
O351	O35	0.333150	0.172460	0.583910
O361	O36	0.276550	0.269880	0.889830
O371	O37	0.268880	0.412210	0.816670
O381	O38	0.867030	0.755830	0.657240
O391	O39	0.306130	0.563740	0.492850
O401	O40	0.261240	0.478020	0.430800
O411	O41	0.007070	0.342170	0.995060
O421	O42	0.169810	0.170280	0.097850
O431	O43	0.160690	0.243630	0.172460
O441	O44	0.006670	0.840290	0.269880
O451	O45	0.856670	0.771120	0.412210
O461	O46	0.111200	0.586930	0.755830
O471	O47	0.742390	0.943410	0.563740
O481	O48	0.783220	0.091180	0.478020
