data_CAFRUX_freeONLY_PM
_symmetry_space_group_name_H-M	'P1'
_cell_length_a	17.350000
_cell_length_b	17.350000
_cell_length_c	17.350000
_cell_angle_alpha	90.000000
_cell_angle_beta	90.000000
_cell_angle_gamma	90.000000
_symmetry_Int_Tables_number 1

loop_
_symmetry_equiv_pos_as_xyz
'x,y,z'

loop_
_atom_site_label
_atom_site_type_symbol
_atom_site_fract_x
_atom_site_fract_y
_atom_site_fract_z
C11	C1	0.632000	0.107900	0.779800
C21	C2	0.679600	0.043500	0.779200
H11	H1	0.714600	0.036400	0.739200
C31	C3	0.674900	0.989700	0.838300
H21	H2	0.706800	0.946600	0.838000
C41	C4	0.622600	0.000200	0.898100
H31	H3	0.619400	0.964200	0.937600
C51	C5	0.574900	0.064600	0.898600
H41	H4	0.539900	0.071700	0.938600
C61	C6	0.579600	0.118500	0.839500
H51	H5	0.547700	0.161500	0.839800
S11	S1	0.635290	0.179920	0.709240
H61	H6	0.671700	0.090400	0.616200
C71	C7	0.868000	0.892100	0.279800
C81	C8	0.820400	0.956500	0.279200
H71	H7	0.785400	0.963600	0.239200
C91	C9	0.825100	0.010300	0.338300
H81	H8	0.793200	0.053400	0.338000
C101	C10	0.877400	0.999800	0.398100
H91	H9	0.880600	0.035800	0.437600
C111	C11	0.925100	0.935400	0.398600
H101	H10	0.960100	0.928300	0.438600
C121	C12	0.920400	0.881500	0.339500
H111	H11	0.952300	0.838500	0.339800
S21	S2	0.864710	0.820080	0.209240
H121	H12	0.828300	0.909600	0.116200
C131	C13	0.368000	0.607900	0.720200
C141	C14	0.320400	0.543500	0.720800
H131	H13	0.285400	0.536400	0.760800
C151	C15	0.325100	0.489700	0.661700
H141	H14	0.293200	0.446600	0.662000
C161	C16	0.377400	0.500200	0.601900
H151	H15	0.380600	0.464200	0.562400
C171	C17	0.425100	0.564600	0.601400
H161	H16	0.460100	0.571700	0.561400
C181	C18	0.420400	0.618500	0.660500
H171	H17	0.452300	0.661500	0.660200
S31	S3	0.364710	0.679920	0.790760
H181	H18	0.328300	0.590400	0.883800
C191	C19	0.132000	0.392100	0.220200
C201	C20	0.179600	0.456500	0.220800
H191	H19	0.214600	0.463600	0.260800
C211	C21	0.174900	0.510300	0.161700
H201	H20	0.206800	0.553400	0.162000
C221	C22	0.122600	0.499800	0.101900
H211	H21	0.119400	0.535800	0.062400
C231	C23	0.074900	0.435400	0.101400
H221	H22	0.039900	0.428300	0.061400
C241	C24	0.079600	0.381500	0.160500
H231	H23	0.047700	0.338500	0.160200
S41	S4	0.135290	0.320080	0.290760
H241	H24	0.171700	0.409600	0.383800
C251	C25	0.779800	0.632000	0.107900
C261	C26	0.779200	0.679600	0.043500
H251	H25	0.739200	0.714600	0.036400
C271	C27	0.838300	0.674900	0.989700
H261	H26	0.838000	0.706800	0.946600
C281	C28	0.898100	0.622600	0.000200
H271	H27	0.937600	0.619400	0.964200
C291	C29	0.898600	0.574900	0.064600
H281	H28	0.938600	0.539900	0.071700
C301	C30	0.839500	0.579600	0.118500
H291	H29	0.839800	0.547700	0.161500
S51	S5	0.709240	0.635290	0.179920
H301	H30	0.616200	0.671700	0.090400
C311	C31	0.279800	0.868000	0.892100
C321	C32	0.279200	0.820400	0.956500
H311	H31	0.239200	0.785400	0.963600
C331	C33	0.338300	0.825100	0.010300
H321	H32	0.338000	0.793200	0.053400
C341	C34	0.398100	0.877400	0.999800
H331	H33	0.437600	0.880600	0.035800
C351	C35	0.398600	0.925100	0.935400
H341	H34	0.438600	0.960100	0.928300
C361	C36	0.339500	0.920400	0.881500
H351	H35	0.339800	0.952300	0.838500
S61	S6	0.209240	0.864710	0.820080
H361	H36	0.116200	0.828300	0.909600
C371	C37	0.720200	0.368000	0.607900
C381	C38	0.720800	0.320400	0.543500
H371	H37	0.760800	0.285400	0.536400
C391	C39	0.661700	0.325100	0.489700
H381	H38	0.662000	0.293200	0.446600
C401	C40	0.601900	0.377400	0.500200
H391	H39	0.562400	0.380600	0.464200
C411	C41	0.601400	0.425100	0.564600
H401	H40	0.561400	0.460100	0.571700
C421	C42	0.660500	0.420400	0.618500
H411	H41	0.660200	0.452300	0.661500
S71	S7	0.790760	0.364710	0.679920
H421	H42	0.883800	0.328300	0.590400
C431	C43	0.220200	0.132000	0.392100
C441	C44	0.220800	0.179600	0.456500
H431	H43	0.260800	0.214600	0.463600
C451	C45	0.161700	0.174900	0.510300
H441	H44	0.162000	0.206800	0.553400
C461	C46	0.101900	0.122600	0.499800
H451	H45	0.062400	0.119400	0.535800
C471	C47	0.101400	0.074900	0.435400
H461	H46	0.061400	0.039900	0.428300
C481	C48	0.160500	0.079600	0.381500
H471	H47	0.160200	0.047700	0.338500
S81	S8	0.290760	0.135290	0.320080
H481	H48	0.383800	0.171700	0.409600
C491	C49	0.107900	0.779800	0.632000
C501	C50	0.043500	0.779200	0.679600
H491	H49	0.036400	0.739200	0.714600
C511	C51	0.989700	0.838300	0.674900
H501	H50	0.946600	0.838000	0.706800
C521	C52	0.000200	0.898100	0.622600
H511	H51	0.964200	0.937600	0.619400
C531	C53	0.064600	0.898600	0.574900
H521	H52	0.071700	0.938600	0.539900
C541	C54	0.118500	0.839500	0.579600
H531	H53	0.161500	0.839800	0.547700
S91	S9	0.179920	0.709240	0.635290
H541	H54	0.090400	0.616200	0.671700
C551	C55	0.892100	0.279800	0.868000
C561	C56	0.956500	0.279200	0.820400
H551	H55	0.963600	0.239200	0.785400
C571	C57	0.010300	0.338300	0.825100
H561	H56	0.053400	0.338000	0.793200
C581	C58	0.999800	0.398100	0.877400
H571	H57	0.035800	0.437600	0.880600
C591	C59	0.935400	0.398600	0.925100
H581	H58	0.928300	0.438600	0.960100
C601	C60	0.881500	0.339500	0.920400
H591	H59	0.838500	0.339800	0.952300
S101	S10	0.820080	0.209240	0.864710
H601	H60	0.909600	0.116200	0.828300
C611	C61	0.607900	0.720200	0.368000
C621	C62	0.543500	0.720800	0.320400
H611	H61	0.536400	0.760800	0.285400
C631	C63	0.489700	0.661700	0.325100
H621	H62	0.446600	0.662000	0.293200
C641	C64	0.500200	0.601900	0.377400
H631	H63	0.464200	0.562400	0.380600
C651	C65	0.564600	0.601400	0.425100
H641	H64	0.571700	0.561400	0.460100
C661	C66	0.618500	0.660500	0.420400
H651	H65	0.661500	0.660200	0.452300
S111	S11	0.679920	0.790760	0.364710
H661	H66	0.590400	0.883800	0.328300
C671	C67	0.392100	0.220200	0.132000
C681	C68	0.456500	0.220800	0.179600
H671	H67	0.463600	0.260800	0.214600
C691	C69	0.510300	0.161700	0.174900
H681	H68	0.553400	0.162000	0.206800
C701	C70	0.499800	0.101900	0.122600
H691	H69	0.535800	0.062400	0.119400
C711	C71	0.435400	0.101400	0.074900
H701	H70	0.428300	0.061400	0.039900
C721	C72	0.381500	0.160500	0.079600
H711	H71	0.338500	0.160200	0.047700
S121	S12	0.320080	0.290760	0.135290
H721	H72	0.409600	0.383800	0.171700
C731	C73	0.357900	0.382000	0.970200
C741	C74	0.293500	0.429600	0.970800
H731	H73	0.286400	0.464600	0.010800
C751	C75	0.239700	0.424900	0.911700
H741	H74	0.196600	0.456800	0.912000
C761	C76	0.250200	0.372600	0.851900
H751	H75	0.214200	0.369400	0.812400
C771	C77	0.314600	0.324900	0.851400
H761	H76	0.321700	0.289900	0.811400
C781	C78	0.368500	0.329600	0.910500
H771	H77	0.411500	0.297700	0.910200
S131	S13	0.429920	0.385290	0.040760
H781	H78	0.340400	0.421700	0.133800
C791	C79	0.142100	0.618000	0.470200
C801	C80	0.206500	0.570400	0.470800
H791	H79	0.213600	0.535400	0.510800
C811	C81	0.260300	0.575100	0.411700
H801	H80	0.303400	0.543200	0.412000
C821	C82	0.249800	0.627400	0.351900
H811	H81	0.285800	0.630600	0.312400
C831	C83	0.185400	0.675100	0.351400
H821	H82	0.178300	0.710100	0.311400
C841	C84	0.131500	0.670400	0.410500
H831	H83	0.088500	0.702300	0.410200
S141	S14	0.070080	0.614710	0.540760
H841	H84	0.159600	0.578300	0.633800
C851	C85	0.857900	0.118000	0.029800
C861	C86	0.793500	0.070400	0.029200
H851	H85	0.786400	0.035400	0.989200
C871	C87	0.739700	0.075100	0.088300
H861	H86	0.696600	0.043200	0.088000
C881	C88	0.750200	0.127400	0.148100
H871	H87	0.714200	0.130600	0.187600
C891	C89	0.814600	0.175100	0.148600
H881	H88	0.821700	0.210100	0.188600
C901	C90	0.868500	0.170400	0.089500
H891	H89	0.911500	0.202300	0.089800
S151	S15	0.929920	0.114710	0.959240
H901	H90	0.840400	0.078300	0.866200
C911	C91	0.642100	0.882000	0.529800
C921	C92	0.706500	0.929600	0.529200
H911	H91	0.713600	0.964600	0.489200
C931	C93	0.760300	0.924900	0.588300
H921	H92	0.803400	0.956800	0.588000
C941	C94	0.749800	0.872600	0.648100
H931	H93	0.785800	0.869400	0.687600
C951	C95	0.685400	0.824900	0.648600
H941	H94	0.678300	0.789900	0.688600
C961	C96	0.631500	0.829600	0.589500
H951	H95	0.588500	0.797700	0.589800
S161	S16	0.570080	0.885290	0.459240
H961	H96	0.659600	0.921700	0.366200
C971	C97	0.882000	0.529800	0.642100
C981	C98	0.929600	0.529200	0.706500
H971	H97	0.964600	0.489200	0.713600
C991	C99	0.924900	0.588300	0.760300
H981	H98	0.956800	0.588000	0.803400
C1001	C100	0.872600	0.648100	0.749800
H991	H99	0.869400	0.687600	0.785800
C1011	C101	0.824900	0.648600	0.685400
H1001	H100	0.789900	0.688600	0.678300
C1021	C102	0.829600	0.589500	0.631500
H1011	H101	0.797700	0.589800	0.588500
S171	S17	0.885290	0.459240	0.570080
H1021	H102	0.921700	0.366200	0.659600
C1031	C103	0.118000	0.029800	0.857900
C1041	C104	0.070400	0.029200	0.793500
H1031	H103	0.035400	0.989200	0.786400
C1051	C105	0.075100	0.088300	0.739700
H1041	H104	0.043200	0.088000	0.696600
C1061	C106	0.127400	0.148100	0.750200
H1051	H105	0.130600	0.187600	0.714200
C1071	C107	0.175100	0.148600	0.814600
H1061	H106	0.210100	0.188600	0.821700
C1081	C108	0.170400	0.089500	0.868500
H1071	H107	0.202300	0.089800	0.911500
S181	S18	0.114710	0.959240	0.929920
H1081	H108	0.078300	0.866200	0.840400
C1091	C109	0.618000	0.470200	0.142100
C1101	C110	0.570400	0.470800	0.206500
H1091	H109	0.535400	0.510800	0.213600
C1111	C111	0.575100	0.411700	0.260300
H1101	H110	0.543200	0.412000	0.303400
C1121	C112	0.627400	0.351900	0.249800
H1111	H111	0.630600	0.312400	0.285800
C1131	C113	0.675100	0.351400	0.185400
H1121	H112	0.710100	0.311400	0.178300
C1141	C114	0.670400	0.410500	0.131500
H1131	H113	0.702300	0.410200	0.088500
S191	S19	0.614710	0.540760	0.070080
H1141	H114	0.578300	0.633800	0.159600
C1151	C115	0.382000	0.970200	0.357900
C1161	C116	0.429600	0.970800	0.293500
H1151	H115	0.464600	0.010800	0.286400
C1171	C117	0.424900	0.911700	0.239700
H1161	H116	0.456800	0.912000	0.196600
C1181	C118	0.372600	0.851900	0.250200
H1171	H117	0.369400	0.812400	0.214200
C1191	C119	0.324900	0.851400	0.314600
H1181	H118	0.289900	0.811400	0.321700
C1201	C120	0.329600	0.910500	0.368500
H1191	H119	0.297700	0.910200	0.411500
S201	S20	0.385290	0.040760	0.429920
H1201	H120	0.421700	0.133800	0.340400
C1211	C121	0.029800	0.857900	0.118000
C1221	C122	0.029200	0.793500	0.070400
H1211	H121	0.989200	0.786400	0.035400
C1231	C123	0.088300	0.739700	0.075100
H1221	H122	0.088000	0.696600	0.043200
C1241	C124	0.148100	0.750200	0.127400
H1231	H123	0.187600	0.714200	0.130600
C1251	C125	0.148600	0.814600	0.175100
H1241	H124	0.188600	0.821700	0.210100
C1261	C126	0.089500	0.868500	0.170400
H1251	H125	0.089800	0.911500	0.202300
S211	S21	0.959240	0.929920	0.114710
H1261	H126	0.866200	0.840400	0.078300
C1271	C127	0.529800	0.642100	0.882000
C1281	C128	0.529200	0.706500	0.929600
H1271	H127	0.489200	0.713600	0.964600
C1291	C129	0.588300	0.760300	0.924900
H1281	H128	0.588000	0.803400	0.956800
C1301	C130	0.648100	0.749800	0.872600
H1291	H129	0.687600	0.785800	0.869400
C1311	C131	0.648600	0.685400	0.824900
H1301	H130	0.688600	0.678300	0.789900
C1321	C132	0.589500	0.631500	0.829600
H1311	H131	0.589800	0.588500	0.797700
S221	S22	0.459240	0.570080	0.885290
H1321	H132	0.366200	0.659600	0.921700
C1331	C133	0.970200	0.357900	0.382000
C1341	C134	0.970800	0.293500	0.429600
H1331	H133	0.010800	0.286400	0.464600
C1351	C135	0.911700	0.239700	0.424900
H1341	H134	0.912000	0.196600	0.456800
C1361	C136	0.851900	0.250200	0.372600
H1351	H135	0.812400	0.214200	0.369400
C1371	C137	0.851400	0.314600	0.324900
H1361	H136	0.811400	0.321700	0.289900
C1381	C138	0.910500	0.368500	0.329600
H1371	H137	0.910200	0.411500	0.297700
S231	S23	0.040760	0.429920	0.385290
H1381	H138	0.133800	0.340400	0.421700
C1391	C139	0.470200	0.142100	0.618000
C1401	C140	0.470800	0.206500	0.570400
H1391	H139	0.510800	0.213600	0.535400
C1411	C141	0.411700	0.260300	0.575100
H1401	H140	0.412000	0.303400	0.543200
C1421	C142	0.351900	0.249800	0.627400
H1411	H141	0.312400	0.285800	0.630600
C1431	C143	0.351400	0.185400	0.675100
H1421	H142	0.311400	0.178300	0.710100
C1441	C144	0.410500	0.131500	0.670400
H1431	H143	0.410200	0.088500	0.702300
S241	S24	0.540760	0.070080	0.614710
H1441	H144	0.633800	0.159600	0.578300
Ag11	Ag1	0.773580	0.226420	0.726420
Ag21	Ag2	0.726420	0.773580	0.226420
Ag31	Ag3	0.226420	0.726420	0.773580
Ag41	Ag4	0.273580	0.273580	0.273580
Ag51	Ag5	0.476420	0.523580	0.023580
Ag61	Ag6	0.023580	0.476420	0.523580
Ag71	Ag7	0.976420	0.976420	0.976420
Ag81	Ag8	0.523580	0.023580	0.476420
C1451	C145	0.628600	0.125000	0.621400
C1461	C146	0.871400	0.875000	0.121400
C1471	C147	0.371400	0.625000	0.878600
C1481	C148	0.128600	0.375000	0.378600
C1491	C149	0.621400	0.628600	0.125000
C1501	C150	0.121400	0.871400	0.875000
C1511	C151	0.878600	0.371400	0.625000
C1521	C152	0.378600	0.128600	0.375000
C1531	C153	0.125000	0.621400	0.628600
C1541	C154	0.875000	0.121400	0.871400
C1551	C155	0.625000	0.878600	0.371400
C1561	C156	0.375000	0.378600	0.128600
