data_CAGSAG_freeONLY_PM
_symmetry_space_group_name_H-M	'P1'
_cell_length_a	17.672000
_cell_length_b	19.850000
_cell_length_c	20.915000
_cell_angle_alpha	72.383000
_cell_angle_beta	70.947000
_cell_angle_gamma	69.724000
_symmetry_Int_Tables_number 1

loop_
_symmetry_equiv_pos_as_xyz
'x,y,z'

loop_
_atom_site_label
_atom_site_type_symbol
_atom_site_fract_x
_atom_site_fract_y
_atom_site_fract_z
Zn11	Zn1	0.041750	0.724880	0.543520
Zn21	Zn2	0.190240	0.578780	0.542100
Zn31	Zn3	0.193330	0.706180	0.413560
Zn41	Zn4	0.228130	0.724420	0.547350
Zn51	Zn5	0.782950	0.146360	0.980690
Zn61	Zn6	0.632620	0.287830	0.986010
Zn71	Zn7	0.606670	0.140840	0.978670
Zn81	Zn8	0.632850	0.158230	0.120300
H11	H1	0.309300	0.406500	0.431700
H21	H2	0.388600	0.321900	0.361200
H31	H3	0.467300	0.300200	0.243500
H41	H4	0.469900	0.474700	0.077300
H51	H5	0.385400	0.553200	0.148200
H61	H6	0.311800	0.576100	0.267300
H71	H7	0.764700	0.436100	0.856400
H81	H8	0.782700	0.554900	0.779800
H91	H9	0.848800	0.620500	0.685800
H101	H10	0.053700	0.446700	0.682200
H111	H11	0.045800	0.325800	0.763200
H121	H12	0.962500	0.257000	0.850300
H131	H13	0.484700	0.423700	0.855100
H141	H14	0.432800	0.543800	0.779200
H151	H15	0.354800	0.612300	0.700100
H161	H16	0.284500	0.432000	0.709700
H171	H17	0.334900	0.316000	0.787500
H181	H18	0.417200	0.248100	0.863300
H191	H19	0.513500	0.950400	0.080900
H201	H20	0.454300	0.859500	0.155600
H211	H21	0.364500	0.817100	0.270200
H221	H22	0.290100	0.929900	0.421800
H231	H23	0.371200	0.005500	0.354700
H241	H24	0.450200	0.058400	0.236900
H251	H25	0.960600	0.962200	0.073200
H261	H26	0.038200	0.872200	0.148100
H271	H27	0.054700	0.812900	0.269400
H281	H28	0.851900	0.848000	0.429500
H291	H29	0.774900	0.927800	0.357100
H301	H30	0.758300	0.990300	0.235400
H311	H31	0.703800	0.989900	0.845200
H321	H32	0.765700	0.924400	0.757100
H331	H33	0.900300	0.857800	0.681500
H341	H34	0.114600	0.897600	0.661400
H351	H35	0.049100	0.978800	0.738900
H361	H36	0.919400	0.037800	0.817700
H371	H37	0.681200	0.226300	0.199600
H381	H38	0.850700	0.262400	0.230000
H391	H39	0.761300	0.317500	0.223800
H401	H40	0.768200	0.236700	0.271600
H411	H41	0.894900	0.250300	0.081000
H421	H42	0.929600	0.200100	0.146800
H431	H43	0.888400	0.167500	0.109500
H441	H44	0.253400	0.856900	0.555600
H451	H45	0.462700	0.775200	0.568100
H461	H46	0.461100	0.827400	0.614100
H471	H47	0.417500	0.762000	0.648900
H481	H48	0.296300	0.942700	0.626200
H491	H49	0.377600	0.947100	0.564100
H501	H50	0.293300	0.950500	0.548600
C11	C1	0.256500	0.555100	0.401900
C21	C2	0.306000	0.499100	0.356000
C31	C3	0.327400	0.423800	0.383200
C41	C4	0.374300	0.373100	0.341700
C51	C5	0.400100	0.399800	0.269800
C61	C6	0.451200	0.351600	0.225100
C71	C7	0.477900	0.378200	0.155200
C81	C8	0.452000	0.456400	0.125700
C91	C9	0.402700	0.502100	0.167500
C101	C10	0.375100	0.476500	0.240400
C111	C11	0.328300	0.524700	0.285800
C121	C12	0.534500	0.326000	0.108200
C131	C13	0.015100	0.782700	0.403600
C141	C14	0.013300	0.584100	0.619100
C151	C15	0.257000	0.574200	0.643200
C161	C16	0.272300	0.807400	0.396700
C171	C17	0.058300	0.814900	0.618500
C181	C18	0.800400	0.294600	0.911600
C191	C19	0.854700	0.339100	0.859300
C201	C20	0.820800	0.414000	0.835100
C211	C21	0.865300	0.458200	0.781300
C221	C22	0.837000	0.530900	0.756600
C231	C23	0.876400	0.571400	0.704200
C241	C24	0.960100	0.540600	0.675900
C251	C25	0.996400	0.467700	0.701300
C261	C26	0.951100	0.424000	0.754100
C271	C27	0.988400	0.348000	0.780700
C281	C28	0.938600	0.307500	0.832600
C291	C29	0.520200	0.284400	0.909000
C301	C30	0.463900	0.328800	0.863500
C311	C31	0.456500	0.401700	0.839000
C321	C32	0.410300	0.445800	0.792100
C331	C33	0.403900	0.520800	0.764900
C341	C34	0.357200	0.561700	0.718300
C351	C35	0.311300	0.527800	0.696800
C361	C36	0.313700	0.454600	0.724100
C371	C37	0.361000	0.413500	0.774200
C381	C38	0.365700	0.338400	0.800400
C391	C39	0.415300	0.298500	0.844500
C401	C40	0.532900	0.068000	0.106000
C411	C41	0.489200	0.010600	0.154300
C421	C42	0.488500	0.952600	0.128200
C431	C43	0.451800	0.900400	0.171600
C441	C44	0.408700	0.906500	0.242300
C451	C45	0.364400	0.857300	0.285900
C461	C46	0.319900	0.866300	0.352700
C471	C47	0.321300	0.923300	0.376500
C481	C48	0.366600	0.969700	0.335700
C491	C49	0.406700	0.967300	0.267500
C501	C50	0.449100	0.018400	0.221600
C511	C51	0.796500	0.042400	0.101300
C521	C52	0.851700	0.983000	0.148000
C531	C53	0.935600	0.949900	0.121300
C541	C54	0.982500	0.898000	0.166500
C551	C55	0.948100	0.883600	0.239200
C561	C56	0.997700	0.836600	0.286400
C571	C57	0.962800	0.826000	0.355700
C581	C58	0.876700	0.858700	0.381200
C591	C59	0.831200	0.903300	0.338900
C601	C60	0.865500	0.915600	0.264900
C611	C61	0.815500	0.967400	0.217900
C621	C62	0.764300	0.072800	0.884700
C631	C63	0.805500	0.024500	0.834900
C641	C64	0.760300	0.986300	0.820700
C651	C65	0.798000	0.943900	0.771500
C661	C66	0.884600	0.929600	0.742500
C671	C67	0.929900	0.881300	0.694500
C681	C68	0.014300	0.868500	0.667100
C691	C69	0.056800	0.905100	0.682700
C701	C70	0.018000	0.953900	0.729500
C711	C71	0.930900	0.964200	0.761700
C721	C72	0.889400	0.013000	0.806800
C731	C73	0.729800	0.222500	0.162500
C741	C74	0.794500	0.266000	0.228700
C751	C75	0.886100	0.211700	0.122600
C761	C76	0.299800	0.822100	0.571100
C771	C77	0.429700	0.799300	0.606900
C781	C78	0.328100	0.928900	0.581800
N11	N1	0.799400	0.238900	0.171200
N21	N2	0.354000	0.847400	0.591800
O11	O1	0.240900	0.525200	0.467500
O21	O2	0.240900	0.620200	0.373800
O31	O3	0.542900	0.258900	0.134500
O41	O4	0.569300	0.352700	0.048100
O51	O5	0.984600	0.773900	0.467600
O61	O6	0.095000	0.756900	0.376800
O71	O7	0.980400	0.653700	0.603800
O81	O8	0.086200	0.549200	0.589500
O91	O9	0.252500	0.535100	0.609200
O101	O10	0.239900	0.641700	0.635300
O111	O11	0.242600	0.811800	0.459600
O121	O12	0.266400	0.766900	0.368000
O131	O13	0.008800	0.797100	0.598600
O141	O14	0.134600	0.796400	0.603500
O151	O15	0.727500	0.324800	0.930800
O161	O16	0.838400	0.224500	0.931600
O171	O17	0.559700	0.316000	0.922100
O181	O18	0.525800	0.215300	0.930300
O191	O19	0.535500	0.117600	0.128800
O201	O20	0.554500	0.067600	0.041500
O211	O21	0.722700	0.056500	0.123800
O221	O22	0.841300	0.069500	0.042800
O231	O23	0.807600	0.096300	0.905100
O241	O24	0.683800	0.085300	0.908300
O251	O25	0.604800	0.131700	0.229500
O261	O26	0.726900	0.204900	0.114800
O271	O27	0.312100	0.757500	0.573100
O281	O28	0.161200	0.684700	0.513300
O291	O29	0.663800	0.182700	0.016000
Zn91	Zn9	0.958250	0.275120	0.456480
Zn101	Zn10	0.809760	0.421220	0.457900
Zn111	Zn11	0.806670	0.293820	0.586440
Zn121	Zn12	0.771870	0.275580	0.452650
Zn131	Zn13	0.217050	0.853640	0.019310
Zn141	Zn14	0.367380	0.712170	0.013990
Zn151	Zn15	0.393330	0.859160	0.021330
Zn161	Zn16	0.367150	0.841770	0.879700
H511	H51	0.690700	0.593500	0.568300
H521	H52	0.611400	0.678100	0.638800
H531	H53	0.532700	0.699800	0.756500
H541	H54	0.530100	0.525300	0.922700
H551	H55	0.614600	0.446800	0.851800
H561	H56	0.688200	0.423900	0.732700
H571	H57	0.235300	0.563900	0.143600
H581	H58	0.217300	0.445100	0.220200
H591	H59	0.151200	0.379500	0.314200
H601	H60	0.946300	0.553300	0.317800
H611	H61	0.954200	0.674200	0.236800
H621	H62	0.037500	0.743000	0.149700
H631	H63	0.515300	0.576300	0.144900
H641	H64	0.567200	0.456200	0.220800
H651	H65	0.645200	0.387700	0.299900
H661	H66	0.715500	0.568000	0.290300
H671	H67	0.665100	0.684000	0.212500
H681	H68	0.582800	0.751900	0.136700
H691	H69	0.486500	0.049600	0.919100
H701	H70	0.545700	0.140500	0.844400
H711	H71	0.635500	0.182900	0.729800
H721	H72	0.709900	0.070100	0.578200
H731	H73	0.628800	0.994500	0.645300
H741	H74	0.549800	0.941600	0.763100
H751	H75	0.039400	0.037800	0.926800
H761	H76	0.961800	0.127800	0.851900
H771	H77	0.945300	0.187100	0.730600
H781	H78	0.148100	0.152000	0.570500
H791	H79	0.225100	0.072200	0.642900
H801	H80	0.241700	0.009700	0.764600
H811	H81	0.296200	0.010100	0.154800
H821	H82	0.234300	0.075600	0.242900
H831	H83	0.099700	0.142200	0.318500
H841	H84	0.885400	0.102400	0.338600
H851	H85	0.950900	0.021200	0.261100
H861	H86	0.080600	0.962200	0.182300
H871	H87	0.318800	0.773700	0.800400
H881	H88	0.149300	0.737600	0.770000
H891	H89	0.238700	0.682500	0.776200
H901	H90	0.231800	0.763300	0.728400
H911	H91	0.105100	0.749700	0.919000
H921	H92	0.070400	0.799900	0.853200
H931	H93	0.111600	0.832500	0.890500
H941	H94	0.746600	0.143100	0.444400
H951	H95	0.537300	0.224800	0.431900
H961	H96	0.538900	0.172600	0.385900
H971	H97	0.582500	0.238000	0.351100
H981	H98	0.703700	0.057300	0.373800
H991	H99	0.622400	0.052900	0.435900
H1001	H100	0.706700	0.049500	0.451400
C791	C79	0.743500	0.444900	0.598100
C801	C80	0.694000	0.500900	0.644000
C811	C81	0.672600	0.576200	0.616800
C821	C82	0.625700	0.626900	0.658300
C831	C83	0.599900	0.600200	0.730200
C841	C84	0.548800	0.648400	0.774900
C851	C85	0.522100	0.621800	0.844800
C861	C86	0.548000	0.543600	0.874300
C871	C87	0.597300	0.497900	0.832500
C881	C88	0.624900	0.523500	0.759600
C891	C89	0.671700	0.475300	0.714200
C901	C90	0.465500	0.674000	0.891800
C911	C91	0.984900	0.217300	0.596400
C921	C92	0.986700	0.415900	0.380900
C931	C93	0.743000	0.425800	0.356800
C941	C94	0.727700	0.192600	0.603300
C951	C95	0.941700	0.185100	0.381500
C961	C96	0.199600	0.705400	0.088400
C971	C97	0.145300	0.660900	0.140700
C981	C98	0.179200	0.586000	0.164900
C991	C99	0.134700	0.541800	0.218700
C1001	C100	0.163000	0.469100	0.243400
C1011	C101	0.123600	0.428600	0.295800
C1021	C102	0.039900	0.459400	0.324100
C1031	C103	0.003600	0.532300	0.298700
C1041	C104	0.048900	0.576000	0.245900
C1051	C105	0.011600	0.652000	0.219300
C1061	C106	0.061400	0.692500	0.167400
C1071	C107	0.479800	0.715600	0.091000
C1081	C108	0.536100	0.671200	0.136500
C1091	C109	0.543500	0.598300	0.161000
C1101	C110	0.589700	0.554200	0.207900
C1111	C111	0.596100	0.479200	0.235100
C1121	C112	0.642800	0.438300	0.281700
C1131	C113	0.688700	0.472200	0.303200
C1141	C114	0.686300	0.545400	0.275900
C1151	C115	0.639000	0.586500	0.225800
C1161	C116	0.634300	0.661600	0.199600
C1171	C117	0.584700	0.701500	0.155500
C1181	C118	0.467100	0.932000	0.894000
C1191	C119	0.510800	0.989400	0.845700
C1201	C120	0.511500	0.047400	0.871800
C1211	C121	0.548200	0.099600	0.828400
C1221	C122	0.591300	0.093500	0.757700
C1231	C123	0.635600	0.142700	0.714100
C1241	C124	0.680100	0.133700	0.647300
C1251	C125	0.678700	0.076700	0.623500
C1261	C126	0.633400	0.030300	0.664300
C1271	C127	0.593300	0.032700	0.732500
C1281	C128	0.550900	0.981600	0.778400
C1291	C129	0.203500	0.957600	0.898700
C1301	C130	0.148300	0.017000	0.852000
C1311	C131	0.064400	0.050100	0.878700
C1321	C132	0.017500	0.102000	0.833500
C1331	C133	0.051900	0.116400	0.760800
C1341	C134	0.002300	0.163400	0.713600
C1351	C135	0.037200	0.174000	0.644300
C1361	C136	0.123300	0.141300	0.618800
C1371	C137	0.168800	0.096700	0.661100
C1381	C138	0.134500	0.084400	0.735100
C1391	C139	0.184500	0.032600	0.782100
C1401	C140	0.235700	0.927200	0.115300
C1411	C141	0.194500	0.975500	0.165100
C1421	C142	0.239700	0.013700	0.179300
C1431	C143	0.202000	0.056100	0.228500
C1441	C144	0.115400	0.070400	0.257500
C1451	C145	0.070100	0.118700	0.305500
C1461	C146	0.985700	0.131500	0.332900
C1471	C147	0.943200	0.094900	0.317300
C1481	C148	0.982000	0.046100	0.270500
C1491	C149	0.069100	0.035800	0.238300
C1501	C150	0.110600	0.987000	0.193200
C1511	C151	0.270200	0.777500	0.837500
C1521	C152	0.205500	0.734000	0.771300
C1531	C153	0.113900	0.788300	0.877400
C1541	C154	0.700200	0.177900	0.428900
C1551	C155	0.570300	0.200700	0.393100
C1561	C156	0.671900	0.071100	0.418200
N31	N3	0.200600	0.761100	0.828800
N41	N4	0.646000	0.152600	0.408200
O301	O30	0.759100	0.474800	0.532500
O311	O31	0.759100	0.379800	0.626200
O321	O32	0.457100	0.741100	0.865500
O331	O33	0.430700	0.647300	0.951900
O341	O34	0.015400	0.226100	0.532400
O351	O35	0.905000	0.243100	0.623200
O361	O36	0.019600	0.346300	0.396200
O371	O37	0.913800	0.450800	0.410500
O381	O38	0.747500	0.464900	0.390800
O391	O39	0.760100	0.358300	0.364700
O401	O40	0.757400	0.188200	0.540400
O411	O41	0.733600	0.233100	0.632000
O421	O42	0.991200	0.202900	0.401400
O431	O43	0.865400	0.203600	0.396500
O441	O44	0.272500	0.675200	0.069200
O451	O45	0.161600	0.775500	0.068400
O461	O46	0.440300	0.684000	0.077900
O471	O47	0.474200	0.784700	0.069700
O481	O48	0.464500	0.882400	0.871200
O491	O49	0.445500	0.932400	0.958500
O501	O50	0.277300	0.943500	0.876200
O511	O51	0.158700	0.930500	0.957200
O521	O52	0.192400	0.903700	0.094900
O531	O53	0.316200	0.914700	0.091700
O541	O54	0.395200	0.868300	0.770500
O551	O55	0.273100	0.795100	0.885200
O561	O56	0.687900	0.242500	0.426900
O571	O57	0.838800	0.315300	0.486700
O581	O58	0.336200	0.817300	0.984000
