data_CAJHUS_freeONLY_PM
_symmetry_space_group_name_H-M	'P1'
_cell_length_a	7.323600
_cell_length_b	7.323600
_cell_length_c	8.318000
_cell_angle_alpha	90.000000
_cell_angle_beta	90.000000
_cell_angle_gamma	120.000000
_symmetry_Int_Tables_number 1

loop_
_symmetry_equiv_pos_as_xyz
'x,y,z'

loop_
_atom_site_label
_atom_site_type_symbol
_atom_site_fract_x
_atom_site_fract_y
_atom_site_fract_z
O11	O1	0.108270	0.694470	0.104440
O21	O2	0.305530	0.413800	0.104440
O31	O3	0.586200	0.891730	0.104440
O41	O4	0.891730	0.305530	0.604440
O51	O5	0.694470	0.586200	0.604440
O61	O6	0.413800	0.108270	0.604440
O71	O7	0.694470	0.108270	0.895560
O81	O8	0.413800	0.305530	0.895560
O91	O9	0.891730	0.586200	0.895560
O101	O10	0.305530	0.891730	0.395560
O111	O11	0.586200	0.694470	0.395560
O121	O12	0.108270	0.413800	0.395560
Fe11	Fe1	0.333330	0.666670	0.250000
Fe21	Fe2	0.666670	0.333330	0.750000
C11	C1	0.000000	0.564500	0.000000
H11	H1	0.000000	0.411000	0.000000
C21	C2	0.435500	0.435500	0.000000
H21	H2	0.589000	0.589000	0.000000
C31	C3	0.564500	0.000000	0.000000
H31	H3	0.411000	0.000000	0.000000
C41	C4	0.000000	0.435500	0.500000
H41	H4	0.000000	0.589000	0.500000
C51	C5	0.564500	0.564500	0.500000
H51	H5	0.411000	0.411000	0.500000
C61	C6	0.435500	0.000000	0.500000
H61	H6	0.589000	0.000000	0.500000
