data_CAJHUS03_freeONLY_PM
_symmetry_space_group_name_H-M	'P1'
_cell_length_a	7.333700
_cell_length_b	7.333700
_cell_length_c	8.319000
_cell_angle_alpha	90.000000
_cell_angle_beta	90.000000
_cell_angle_gamma	120.000000
_symmetry_Int_Tables_number 1

loop_
_symmetry_equiv_pos_as_xyz
'x,y,z'

loop_
_atom_site_label
_atom_site_type_symbol
_atom_site_fract_x
_atom_site_fract_y
_atom_site_fract_z
O11	O1	0.305800	0.892500	0.895600
O21	O2	0.107500	0.413300	0.895600
O31	O3	0.586700	0.694200	0.895600
O41	O4	0.694200	0.107500	0.395600
O51	O5	0.892500	0.586700	0.395600
O61	O6	0.413300	0.305800	0.395600
O71	O7	0.892500	0.305800	0.104400
O81	O8	0.413300	0.107500	0.104400
O91	O9	0.694200	0.586700	0.104400
O101	O10	0.107500	0.694200	0.604400
O111	O11	0.586700	0.892500	0.604400
O121	O12	0.305800	0.413300	0.604400
Fe11	Fe1	0.333330	0.666670	0.750000
Fe21	Fe2	0.666670	0.333330	0.250000
C11	C1	0.434200	0.000000	0.000000
H11	H1	0.561100	0.000000	0.000000
C21	C2	0.000000	0.434200	0.000000
H21	H2	0.000000	0.561100	0.000000
C31	C3	0.565800	0.565800	0.000000
H31	H3	0.438900	0.438900	0.000000
C41	C4	0.565800	0.000000	0.500000
H41	H4	0.438900	0.000000	0.500000
C51	C5	0.000000	0.565800	0.500000
H51	H5	0.000000	0.438900	0.500000
C61	C6	0.434200	0.434200	0.500000
H61	H6	0.561100	0.561100	0.500000
