data_CAJVUG_charged_PM
_symmetry_space_group_name_H-M	'P1'
_cell_length_a	9.848000
_cell_length_b	9.848000
_cell_length_c	35.058800
_cell_angle_alpha	90.000000
_cell_angle_beta	90.000000
_cell_angle_gamma	90.000000
_symmetry_Int_Tables_number 1

loop_
_symmetry_equiv_pos_as_xyz
'x,y,z'

loop_
_atom_site_label
_atom_site_type_symbol
_atom_site_fract_x
_atom_site_fract_y
_atom_site_fract_z
In11	In1	0.848690	0.769370	0.064170
In21	In2	0.151310	0.230630	0.564170
H11	H1	0.848100	0.277500	0.065000
H21	H2	0.751100	0.071200	0.968200
H31	H3	0.789700	0.475000	0.964100
H41	H4	0.447900	0.253300	0.667800
H51	H5	0.859200	0.248700	0.664200
H61	H6	0.643500	0.236700	0.567600
H71	H7	0.831400	0.371100	0.718000
H81	H8	0.491700	0.178700	0.793500
H91	H9	0.489400	0.162700	0.727200
H101	H10	0.596600	0.118600	0.916200
H111	H11	0.555700	0.123700	0.850300
H121	H12	0.872200	0.422500	0.905000
H131	H13	0.811800	0.538200	0.823700
H141	H14	0.950100	0.487300	0.843100
H151	H15	0.953500	0.456100	0.775200
H161	H16	0.973600	0.314800	0.797300
H171	H17	0.151900	0.722500	0.565000
H181	H18	0.248900	0.928800	0.468200
H191	H19	0.210300	0.525000	0.464100
H201	H20	0.552100	0.746700	0.167800
H211	H21	0.140800	0.751300	0.164200
H221	H22	0.356500	0.763300	0.067600
H231	H23	0.168600	0.628900	0.218000
H241	H24	0.508300	0.821300	0.293500
H251	H25	0.510600	0.837300	0.227200
H261	H26	0.403400	0.881400	0.416200
H271	H27	0.444300	0.876300	0.350300
H281	H28	0.127800	0.577500	0.405000
H291	H29	0.188200	0.461800	0.323700
H301	H30	0.049900	0.512700	0.343100
H311	H31	0.046500	0.543900	0.275200
H321	H32	0.026400	0.685200	0.297300
C11	C1	0.821500	0.394200	0.017100
C21	C2	0.828600	0.276300	0.038500
C31	C3	0.805000	0.153800	0.018500
C41	C4	0.770500	0.155200	0.980400
C51	C5	0.763200	0.268900	0.959800
C61	C6	0.791300	0.392500	0.978100
C71	C7	0.527600	0.246800	0.615200
C81	C8	0.530900	0.253200	0.654000
C91	C9	0.654700	0.259700	0.674100
C101	C10	0.773500	0.249800	0.651800
C111	C11	0.768900	0.241800	0.612800
C121	C12	0.646700	0.241100	0.594700
C131	C13	0.660600	0.265700	0.716100
C141	C14	0.764600	0.327900	0.733300
C151	C15	0.778800	0.331700	0.772400
C161	C16	0.680400	0.268900	0.795500
C171	C17	0.565000	0.212500	0.778600
C181	C18	0.563000	0.208200	0.739100
C191	C19	0.737700	0.269400	0.918000
C201	C20	0.645200	0.181300	0.900800
C211	C21	0.621800	0.182700	0.861100
C221	C22	0.697500	0.273000	0.836800
C231	C23	0.788900	0.361300	0.853900
C241	C24	0.809300	0.360600	0.894000
C251	C25	0.390200	0.236200	0.596000
C261	C26	0.843800	0.522700	0.035800
C271	C27	0.822000	0.023800	0.038200
C281	C28	0.901300	0.235100	0.591500
C291	C29	0.867800	0.457100	0.829300
C301	C30	0.908700	0.389300	0.792100
C311	C31	0.178500	0.605800	0.517100
C321	C32	0.171400	0.723700	0.538500
C331	C33	0.195000	0.846200	0.518500
C341	C34	0.229500	0.844800	0.480400
C351	C35	0.236800	0.731100	0.459800
C361	C36	0.208700	0.607500	0.478100
C371	C37	0.472400	0.753200	0.115200
C381	C38	0.469100	0.746800	0.154000
C391	C39	0.345300	0.740300	0.174100
C401	C40	0.226500	0.750200	0.151800
C411	C41	0.231100	0.758200	0.112800
C421	C42	0.353300	0.758900	0.094700
C431	C43	0.339400	0.734300	0.216100
C441	C44	0.235400	0.672100	0.233300
C451	C45	0.221200	0.668300	0.272400
C461	C46	0.319600	0.731100	0.295500
C471	C47	0.435000	0.787500	0.278600
C481	C48	0.437000	0.791800	0.239100
C491	C49	0.262300	0.730600	0.418000
C501	C50	0.354800	0.818700	0.400800
C511	C51	0.378200	0.817300	0.361100
C521	C52	0.302500	0.727000	0.336800
C531	C53	0.211100	0.638700	0.353900
C541	C54	0.190700	0.639400	0.394000
C551	C55	0.609800	0.763800	0.096000
C561	C56	0.156200	0.477300	0.535800
C571	C57	0.178000	0.976200	0.538200
C581	C58	0.098700	0.764900	0.091500
C591	C59	0.132200	0.542900	0.329300
C601	C60	0.091300	0.610700	0.292100
O11	O1	0.852000	0.537500	0.071940
O21	O2	0.006800	0.220300	0.611020
O31	O3	0.284500	0.236200	0.616120
O41	O4	0.837000	0.915600	0.017820
O51	O5	0.850400	0.631100	0.014400
O61	O6	0.905900	0.231000	0.556300
O71	O7	0.382300	0.248900	0.560900
O81	O8	0.830900	0.011100	0.073270
O91	O9	0.148000	0.462500	0.571940
O101	O10	0.993200	0.779700	0.111020
O111	O11	0.715500	0.763800	0.116120
O121	O12	0.163000	0.084400	0.517820
O131	O13	0.149600	0.368900	0.514400
O141	O14	0.094100	0.769000	0.056300
O151	O15	0.617700	0.751100	0.060900
O161	O16	0.169100	0.988900	0.573270
In31	In3	0.230630	0.848690	0.814170
In41	In4	0.769370	0.151310	0.314170
H331	H33	0.722500	0.848100	0.815000
H341	H34	0.928800	0.751100	0.718200
H351	H35	0.525000	0.789700	0.714100
H361	H36	0.746700	0.447900	0.417800
H371	H37	0.751300	0.859200	0.414200
H381	H38	0.763300	0.643500	0.317600
H391	H39	0.628900	0.831400	0.468000
H401	H40	0.821300	0.491700	0.543500
H411	H41	0.837300	0.489400	0.477200
H421	H42	0.881400	0.596600	0.666200
H431	H43	0.876300	0.555700	0.600300
H441	H44	0.577500	0.872200	0.655000
H451	H45	0.461800	0.811800	0.573700
H461	H46	0.512700	0.950100	0.593100
H471	H47	0.543900	0.953500	0.525200
H481	H48	0.685200	0.973600	0.547300
H491	H49	0.277500	0.151900	0.315000
H501	H50	0.071200	0.248900	0.218200
H511	H51	0.475000	0.210300	0.214100
H521	H52	0.253300	0.552100	0.917800
H531	H53	0.248700	0.140800	0.914200
H541	H54	0.236700	0.356500	0.817600
H551	H55	0.371100	0.168600	0.968000
H561	H56	0.178700	0.508300	0.043500
H571	H57	0.162700	0.510600	0.977200
H581	H58	0.118600	0.403400	0.166200
H591	H59	0.123700	0.444300	0.100300
H601	H60	0.422500	0.127800	0.155000
H611	H61	0.538200	0.188200	0.073700
H621	H62	0.487300	0.049900	0.093100
H631	H63	0.456100	0.046500	0.025200
H641	H64	0.314800	0.026400	0.047300
C611	C61	0.605800	0.821500	0.767100
C621	C62	0.723700	0.828600	0.788500
C631	C63	0.846200	0.805000	0.768500
C641	C64	0.844800	0.770500	0.730400
C651	C65	0.731100	0.763200	0.709800
C661	C66	0.607500	0.791300	0.728100
C671	C67	0.753200	0.527600	0.365200
C681	C68	0.746800	0.530900	0.404000
C691	C69	0.740300	0.654700	0.424100
C701	C70	0.750200	0.773500	0.401800
C711	C71	0.758200	0.768900	0.362800
C721	C72	0.758900	0.646700	0.344700
C731	C73	0.734300	0.660600	0.466100
C741	C74	0.672100	0.764600	0.483300
C751	C75	0.668300	0.778800	0.522400
C761	C76	0.731100	0.680400	0.545500
C771	C77	0.787500	0.565000	0.528600
C781	C78	0.791800	0.563000	0.489100
C791	C79	0.730600	0.737700	0.668000
C801	C80	0.818700	0.645200	0.650800
C811	C81	0.817300	0.621800	0.611100
C821	C82	0.727000	0.697500	0.586800
C831	C83	0.638700	0.788900	0.603900
C841	C84	0.639400	0.809300	0.644000
C851	C85	0.763800	0.390200	0.346000
C861	C86	0.477300	0.843800	0.785800
C871	C87	0.976200	0.822000	0.788200
C881	C88	0.764900	0.901300	0.341500
C891	C89	0.542900	0.867800	0.579300
C901	C90	0.610700	0.908700	0.542100
C911	C91	0.394200	0.178500	0.267100
C921	C92	0.276300	0.171400	0.288500
C931	C93	0.153800	0.195000	0.268500
C941	C94	0.155200	0.229500	0.230400
C951	C95	0.268900	0.236800	0.209800
C961	C96	0.392500	0.208700	0.228100
C971	C97	0.246800	0.472400	0.865200
C981	C98	0.253200	0.469100	0.904000
C991	C99	0.259700	0.345300	0.924100
C1001	C100	0.249800	0.226500	0.901800
C1011	C101	0.241800	0.231100	0.862800
C1021	C102	0.241100	0.353300	0.844700
C1031	C103	0.265700	0.339400	0.966100
C1041	C104	0.327900	0.235400	0.983300
C1051	C105	0.331700	0.221200	0.022400
C1061	C106	0.268900	0.319600	0.045500
C1071	C107	0.212500	0.435000	0.028600
C1081	C108	0.208200	0.437000	0.989100
C1091	C109	0.269400	0.262300	0.168000
C1101	C110	0.181300	0.354800	0.150800
C1111	C111	0.182700	0.378200	0.111100
C1121	C112	0.273000	0.302500	0.086800
C1131	C113	0.361300	0.211100	0.103900
C1141	C114	0.360600	0.190700	0.144000
C1151	C115	0.236200	0.609800	0.846000
C1161	C116	0.522700	0.156200	0.285800
C1171	C117	0.023800	0.178000	0.288200
C1181	C118	0.235100	0.098700	0.841500
C1191	C119	0.457100	0.132200	0.079300
C1201	C120	0.389300	0.091300	0.042100
O171	O17	0.462500	0.852000	0.821940
O181	O18	0.779700	0.006800	0.361020
O191	O19	0.763800	0.284500	0.366120
O201	O20	0.084400	0.837000	0.767820
O211	O21	0.368900	0.850400	0.764400
O221	O22	0.769000	0.905900	0.306300
O231	O23	0.751100	0.382300	0.310900
O241	O24	0.988900	0.830900	0.823270
O251	O25	0.537500	0.148000	0.321940
O261	O26	0.220300	0.993200	0.861020
O271	O27	0.236200	0.715500	0.866120
O281	O28	0.915600	0.163000	0.267820
O291	O29	0.631100	0.149600	0.264400
O301	O30	0.231000	0.094100	0.806300
O311	O31	0.248900	0.617700	0.810900
O321	O32	0.011100	0.169100	0.323270
H651	H65	0.095100	0.839300	0.899400
H661	H66	0.074700	0.848900	0.941200
H671	H67	0.014200	0.033900	0.913100
H681	H68	0.906000	0.947900	0.889000
H691	H69	0.889600	0.962000	0.934300
H701	H70	0.023400	0.646100	0.922200
H711	H71	0.891100	0.722000	0.937900
H721	H72	0.916200	0.709800	0.892900
C1211	C121	0.954900	0.954000	0.913300
C1221	C122	0.960000	0.721000	0.917800
N11	N1	0.030200	0.841900	0.918300
H731	H73	0.904900	0.160700	0.399400
H741	H74	0.925300	0.151100	0.441200
H751	H75	0.985800	0.966100	0.413100
H761	H76	0.094000	0.052100	0.389000
H771	H77	0.110400	0.038000	0.434300
H781	H78	0.976600	0.353900	0.422200
H791	H79	0.108900	0.278000	0.437900
H801	H80	0.083800	0.290200	0.392900
C1231	C123	0.045100	0.046000	0.413300
C1241	C124	0.040000	0.279000	0.417800
N21	N2	0.969800	0.158100	0.418300
H811	H81	0.160700	0.095100	0.649400
H821	H82	0.151100	0.074700	0.691200
H831	H83	0.966100	0.014200	0.663100
H841	H84	0.052100	0.906000	0.639000
H851	H85	0.038000	0.889600	0.684300
H861	H86	0.353900	0.023400	0.672200
H871	H87	0.278000	0.891100	0.687900
H881	H88	0.290200	0.916200	0.642900
C1251	C125	0.046000	0.954900	0.663300
C1261	C126	0.279000	0.960000	0.667800
N31	N3	0.158100	0.030200	0.668300
H891	H89	0.839300	0.904900	0.149400
H901	H90	0.848900	0.925300	0.191200
H911	H91	0.033900	0.985800	0.163100
H921	H92	0.947900	0.094000	0.139000
H931	H93	0.962000	0.110400	0.184300
H941	H94	0.646100	0.976600	0.172200
H951	H95	0.722000	0.108900	0.187900
H961	H96	0.709800	0.083800	0.142900
C1271	C127	0.954000	0.045100	0.163300
C1281	C128	0.721000	0.040000	0.167800
N41	N4	0.841900	0.969800	0.168300
