data_CANROA_freeONLY_PM
_symmetry_space_group_name_H-M	'P1'
_cell_length_a	12.723900
_cell_length_b	14.499200
_cell_length_c	23.345300
_cell_angle_alpha	99.733500
_cell_angle_beta	92.689000
_cell_angle_gamma	97.475600
_symmetry_Int_Tables_number 1

loop_
_symmetry_equiv_pos_as_xyz
'x,y,z'

loop_
_atom_site_label
_atom_site_type_symbol
_atom_site_fract_x
_atom_site_fract_y
_atom_site_fract_z
Co11	Co1	0.495470	0.696040	0.607050
Co21	Co2	0.942380	0.315430	0.074500
Co31	Co3	0.504530	0.303960	0.392950
Co41	Co4	0.057620	0.684570	0.925500
Co51	Co5	0.500000	0.500000	0.500000
Co61	Co6	0.000000	0.500000	0.000000
Si11	Si1	0.974540	0.779570	0.366070
Si21	Si2	0.601630	0.755750	0.187300
Si31	Si3	0.025460	0.220430	0.633930
Si41	Si4	0.398370	0.244250	0.812700
H11	H1	0.868600	0.622300	0.413100
H21	H2	0.730900	0.595700	0.472200
H31	H3	0.668600	0.863700	0.475000
H41	H4	0.805000	0.889200	0.413600
H51	H5	0.831300	0.614500	0.304900
H61	H6	0.831500	0.508900	0.218200
H71	H7	0.065900	0.682600	0.165900
H81	H8	0.074700	0.783800	0.255400
H91	H9	0.161900	0.681100	0.339100
H101	H10	0.287000	0.621300	0.392500
H111	H11	0.164200	0.728900	0.541700
H121	H12	0.033600	0.780200	0.488900
H131	H13	0.940000	0.906500	0.282700
H141	H14	0.974800	0.069300	0.283700
H151	H15	0.117200	0.107400	0.446500
H161	H16	0.082400	0.944600	0.445600
H171	H17	0.542300	0.770600	0.308000
H181	H18	0.518700	0.672100	0.375400
H191	H19	0.609100	0.460600	0.261400
H201	H20	0.630300	0.559100	0.193400
H211	H21	0.663200	0.603700	0.103400
H221	H22	0.791900	0.585800	0.037200
H231	H23	0.922500	0.857400	0.094000
H241	H24	0.798200	0.872700	0.163000
H251	H25	0.392500	0.637000	0.181100
H261	H26	0.249200	0.591700	0.113700
H271	H27	0.384900	0.763500	0.011400
H281	H28	0.530900	0.805500	0.077500
H291	H29	0.740500	0.867600	0.282600
H301	H30	0.748000	0.011900	0.343500
H311	H31	0.505200	0.073100	0.246100
H321	H32	0.494200	0.925500	0.186700
H331	H33	0.746200	0.752800	0.722200
H341	H34	0.669500	0.831300	0.719000
H351	H35	0.627900	0.750300	0.799100
H361	H36	0.527300	0.732100	0.752800
H371	H37	0.602300	0.652000	0.754700
H381	H38	0.032000	0.360300	0.206300
H391	H39	0.132600	0.306300	0.208100
H401	H40	0.179200	0.467300	0.256200
H411	H41	0.248400	0.449700	0.200900
H421	H42	0.147400	0.504400	0.197800
H431	H43	0.131400	0.377700	0.586900
H441	H44	0.269100	0.404300	0.527800
H451	H45	0.331400	0.136300	0.525000
H461	H46	0.195000	0.110800	0.586400
H471	H47	0.168700	0.385500	0.695100
H481	H48	0.168500	0.491100	0.781800
H491	H49	0.934100	0.317400	0.834100
H501	H50	0.925300	0.216200	0.744600
H511	H51	0.838100	0.318900	0.660900
H521	H52	0.713000	0.378700	0.607500
H531	H53	0.835800	0.271100	0.458300
H541	H54	0.966400	0.219800	0.511100
H551	H55	0.060000	0.093500	0.717300
H561	H56	0.025200	0.930700	0.716300
H571	H57	0.882800	0.892600	0.553500
H581	H58	0.917600	0.055400	0.554400
H591	H59	0.457700	0.229400	0.692000
H601	H60	0.481300	0.327900	0.624600
H611	H61	0.390900	0.539400	0.738600
H621	H62	0.369700	0.440900	0.806600
H631	H63	0.336800	0.396300	0.896600
H641	H64	0.208100	0.414200	0.962800
H651	H65	0.077500	0.142600	0.906000
H661	H66	0.201800	0.127300	0.837000
H671	H67	0.607500	0.363000	0.818900
H681	H68	0.750800	0.408300	0.886300
H691	H69	0.615100	0.236500	0.988600
H701	H70	0.469100	0.194500	0.922500
H711	H71	0.259500	0.132400	0.717400
H721	H72	0.252000	0.988100	0.656500
H731	H73	0.494800	0.926900	0.753900
H741	H74	0.505800	0.074500	0.813300
H751	H75	0.253800	0.247200	0.277800
H761	H76	0.330500	0.168700	0.281000
H771	H77	0.372100	0.249700	0.200900
H781	H78	0.472700	0.267900	0.247200
H791	H79	0.397700	0.348000	0.245300
H801	H80	0.968000	0.639700	0.793700
H811	H81	0.867400	0.693700	0.791900
H821	H82	0.820800	0.532700	0.743800
H831	H83	0.751600	0.550300	0.799100
H841	H84	0.852600	0.495600	0.802200
C11	C1	0.853400	0.759290	0.407790
C21	C2	0.828300	0.671710	0.425790
C31	C3	0.747100	0.655730	0.461120
C41	C4	0.688200	0.728860	0.480670
C51	C5	0.709700	0.814800	0.462540
C61	C6	0.791300	0.830000	0.426140
C71	C7	0.608400	0.714600	0.523700
C81	C8	0.957300	0.708400	0.290940
C91	C9	0.882100	0.627400	0.277780
C101	C10	0.880900	0.565300	0.225520
C111	C11	0.950200	0.584300	0.184190
C121	C12	0.020300	0.667000	0.194930
C131	C13	0.024600	0.727800	0.248210
C141	C14	0.951300	0.514400	0.128500
C151	C15	0.083400	0.737030	0.407820
C161	C16	0.160900	0.689800	0.380370
C171	C17	0.236400	0.655200	0.412260
C181	C18	0.239500	0.669160	0.472520
C191	C19	0.162900	0.717700	0.500350
C201	C20	0.086200	0.749300	0.469010
C211	C21	0.322900	0.634210	0.506770
C221	C22	0.007900	0.910260	0.364070
C231	C23	0.976000	0.947290	0.315980
C241	C24	0.996600	0.043980	0.316540
C251	C25	0.049200	0.103630	0.365190
C261	C26	0.081200	0.066600	0.413280
C271	C27	0.060500	0.969900	0.412720
C281	C28	0.071200	0.206100	0.364800
C291	C29	0.590850	0.676710	0.243150
C301	C30	0.556600	0.707400	0.298170
C311	C31	0.542800	0.649000	0.338490
C321	C32	0.563800	0.556900	0.325850
C331	C33	0.595900	0.524200	0.271110
C341	C34	0.608700	0.583100	0.230800
C351	C35	0.548800	0.493220	0.369430
C361	C36	0.716000	0.741040	0.140620
C371	C37	0.716500	0.655510	0.101930
C381	C38	0.792000	0.644930	0.062020
C391	C39	0.867900	0.720160	0.058050
C401	C40	0.869800	0.805500	0.096140
C411	C41	0.795200	0.814500	0.136810
C421	C42	0.943200	0.711200	0.011000
C431	C43	0.479100	0.726420	0.136830
C441	C44	0.392200	0.662600	0.146230
C451	C45	0.306500	0.635900	0.106230
C461	C46	0.302300	0.672210	0.055690
C471	C47	0.386800	0.736700	0.045770
C481	C48	0.473200	0.762100	0.085470
C491	C49	0.208200	0.641900	0.012290
C501	C50	0.614700	0.879850	0.228300
C511	C51	0.690900	0.908700	0.275500
C521	C52	0.695900	0.994100	0.311660
C531	C53	0.624500	0.053940	0.301430
C541	C54	0.551700	0.030000	0.254270
C551	C55	0.546300	0.942500	0.218580
C561	C56	0.620400	0.143700	0.342710
C571	C57	0.671700	0.762500	0.714300
C581	C58	0.600600	0.720300	0.759500
C591	C59	0.101800	0.354700	0.190000
C601	C60	0.176500	0.453700	0.213500
C611	C61	0.146600	0.240710	0.592210
C621	C62	0.171700	0.328290	0.574210
C631	C63	0.252900	0.344270	0.538880
C641	C64	0.311800	0.271140	0.519330
C651	C65	0.290300	0.185200	0.537460
C661	C66	0.208700	0.170000	0.573860
C671	C67	0.391600	0.285400	0.476300
C681	C68	0.042700	0.291600	0.709060
C691	C69	0.117900	0.372600	0.722220
C701	C70	0.119100	0.434700	0.774480
C711	C71	0.049800	0.415700	0.815810
C721	C72	0.979700	0.333000	0.805070
C731	C73	0.975400	0.272200	0.751790
C741	C74	0.048700	0.485600	0.871500
C751	C75	0.916600	0.262970	0.592180
C761	C76	0.839100	0.310200	0.619630
C771	C77	0.763600	0.344800	0.587740
C781	C78	0.760500	0.330840	0.527480
C791	C79	0.837100	0.282300	0.499650
C801	C80	0.913800	0.250700	0.530990
C811	C81	0.677100	0.365790	0.493230
C821	C82	0.992100	0.089740	0.635930
C831	C83	0.024000	0.052710	0.684020
C841	C84	0.003400	0.956020	0.683460
C851	C85	0.950800	0.896370	0.634810
C861	C86	0.918800	0.933400	0.586720
C871	C87	0.939500	0.030100	0.587280
C881	C88	0.928800	0.793900	0.635200
C891	C89	0.409150	0.323290	0.756850
C901	C90	0.443400	0.292600	0.701830
C911	C91	0.457200	0.351000	0.661510
C921	C92	0.436200	0.443100	0.674150
C931	C93	0.404100	0.475800	0.728890
C941	C94	0.391300	0.416900	0.769200
C951	C95	0.451200	0.506780	0.630570
C961	C96	0.284000	0.258960	0.859380
C971	C97	0.283500	0.344490	0.898070
C981	C98	0.208000	0.355070	0.937980
C991	C99	0.132100	0.279840	0.941950
C1001	C100	0.130200	0.194500	0.903860
C1011	C101	0.204800	0.185500	0.863190
C1021	C102	0.056800	0.288800	0.989000
C1031	C103	0.520900	0.273580	0.863170
C1041	C104	0.607800	0.337400	0.853770
C1051	C105	0.693500	0.364100	0.893770
C1061	C106	0.697700	0.327790	0.944310
C1071	C107	0.613200	0.263300	0.954230
C1081	C108	0.526800	0.237900	0.914530
C1091	C109	0.791800	0.358100	0.987710
C1101	C110	0.385300	0.120150	0.771700
C1111	C111	0.309100	0.091300	0.724500
C1121	C112	0.304100	0.005900	0.688340
C1131	C113	0.375500	0.946060	0.698570
C1141	C114	0.448300	0.970000	0.745730
C1151	C115	0.453700	0.057500	0.781420
C1161	C116	0.379600	0.856300	0.657290
C1171	C117	0.328300	0.237500	0.285700
C1181	C118	0.399400	0.279700	0.240500
C1191	C119	0.898200	0.645300	0.810000
C1201	C120	0.823500	0.546300	0.786500
O11	O1	0.583120	0.633280	0.537240
O21	O2	0.569220	0.783350	0.550310
O31	O3	0.910050	0.431010	0.128520
O41	O4	0.995760	0.544640	0.087740
O51	O5	0.357050	0.559470	0.486120
O61	O6	0.355750	0.685140	0.556120
O71	O7	0.046200	0.237300	0.319850
O81	O8	0.116000	0.259300	0.411120
O91	O9	0.526260	0.528200	0.419480
O101	O10	0.558600	0.407910	0.352670
O111	O11	0.954220	0.629630	0.983680
O121	O12	0.990700	0.782290	0.994930
O131	O13	0.157020	0.562480	0.012780
O141	O14	0.189380	0.698470	0.979460
O151	O15	0.688200	0.159140	0.388080
O161	O16	0.556960	0.196770	0.334670
O171	O17	0.637800	0.721000	0.658640
O181	O18	0.080400	0.316000	0.129060
O191	O19	0.865000	0.217700	0.119800
O201	O20	0.416880	0.366720	0.462760
O211	O21	0.430780	0.216650	0.449690
O221	O22	0.089950	0.568990	0.871480
O231	O23	0.004240	0.455360	0.912260
O241	O24	0.642950	0.440530	0.513880
O251	O25	0.644250	0.314860	0.443880
O261	O26	0.953800	0.762700	0.680150
O271	O27	0.884000	0.740700	0.588880
O281	O28	0.473740	0.471800	0.580520
O291	O29	0.441400	0.592090	0.647330
O301	O30	0.045780	0.370370	0.016320
O311	O31	0.009300	0.217710	0.005070
O321	O32	0.842980	0.437520	0.987220
O331	O33	0.810620	0.301530	0.020540
O341	O34	0.311800	0.840860	0.611920
O351	O35	0.443040	0.803230	0.665330
O361	O36	0.362200	0.279000	0.341360
O371	O37	0.919600	0.684000	0.870940
O381	O38	0.135000	0.782300	0.880200
