data_CANZOH_freeONLY_PM
_symmetry_space_group_name_H-M	'P1'
_cell_length_a	13.872000
_cell_length_b	13.872000
_cell_length_c	9.435000
_cell_angle_alpha	90.000000
_cell_angle_beta	90.000000
_cell_angle_gamma	120.000000
_symmetry_Int_Tables_number 1

loop_
_symmetry_equiv_pos_as_xyz
'x,y,z'

loop_
_atom_site_label
_atom_site_type_symbol
_atom_site_fract_x
_atom_site_fract_y
_atom_site_fract_z
Sc11	Sc1	0.561500	0.855300	0.407940
O11	O1	0.700200	0.890900	0.286200
P11	P1	0.816210	0.984840	0.245280
O21	O2	0.861100	0.943400	0.128400
O31	O3	0.892800	0.030600	0.375700
O41	O4	0.805800	0.083800	0.177000
O51	O5	0.576300	0.006500	0.355300
P21	P2	0.631750	0.126510	0.396690
O61	O6	0.698800	0.195300	0.262500
O71	O7	0.450600	0.835300	0.568200
O81	O8	0.564500	0.716300	0.484000
O91	O9	0.444800	0.765500	0.260500
O101	O10	0.689900	0.948700	0.576500
Sc21	Sc2	0.144700	0.706200	0.407940
O111	O11	0.109100	0.809300	0.286200
P31	P3	0.015160	0.831370	0.245280
O121	O12	0.056600	0.917700	0.128400
O131	O13	0.969400	0.862200	0.375700
O141	O14	0.916200	0.722000	0.177000
O151	O15	0.993500	0.569800	0.355300
P41	P4	0.873490	0.505240	0.396690
O161	O16	0.804700	0.503500	0.262500
O171	O17	0.164700	0.615300	0.568200
O181	O18	0.283700	0.848200	0.484000
O191	O19	0.234500	0.679300	0.260500
O201	O20	0.051300	0.741200	0.576500
Sc31	Sc3	0.293800	0.438500	0.407940
O211	O21	0.190700	0.299800	0.286200
P51	P5	0.168630	0.183790	0.245280
O221	O22	0.082300	0.138900	0.128400
O231	O23	0.137800	0.107200	0.375700
O241	O24	0.278000	0.194200	0.177000
O251	O25	0.430200	0.423700	0.355300
P61	P6	0.494760	0.368250	0.396690
O261	O26	0.496500	0.301200	0.262500
O271	O27	0.384700	0.549400	0.568200
O281	O28	0.151800	0.435500	0.484000
O291	O29	0.320700	0.555200	0.260500
O301	O30	0.258800	0.310100	0.576500
Sc41	Sc4	0.438500	0.144700	0.592060
O311	O31	0.299800	0.109100	0.713800
P71	P7	0.183790	0.015160	0.754720
O321	O32	0.138900	0.056600	0.871600
O331	O33	0.107200	0.969400	0.624300
O341	O34	0.194200	0.916200	0.823000
O351	O35	0.423700	0.993500	0.644700
P81	P8	0.368250	0.873490	0.603310
O361	O36	0.301200	0.804700	0.737500
O371	O37	0.549400	0.164700	0.431800
O381	O38	0.435500	0.283700	0.516000
O391	O39	0.555200	0.234500	0.739500
O401	O40	0.310100	0.051300	0.423500
Sc51	Sc5	0.855300	0.293800	0.592060
O411	O41	0.890900	0.190700	0.713800
P91	P9	0.984840	0.168630	0.754720
O421	O42	0.943400	0.082300	0.871600
O431	O43	0.030600	0.137800	0.624300
O441	O44	0.083800	0.278000	0.823000
O451	O45	0.006500	0.430200	0.644700
P101	P10	0.126510	0.494760	0.603310
O461	O46	0.195300	0.496500	0.737500
O471	O47	0.835300	0.384700	0.431800
O481	O48	0.716300	0.151800	0.516000
O491	O49	0.765500	0.320700	0.739500
O501	O50	0.948700	0.258800	0.423500
Sc61	Sc6	0.706200	0.561500	0.592060
O511	O51	0.809300	0.700200	0.713800
P111	P11	0.831370	0.816210	0.754720
O521	O52	0.917700	0.861100	0.871600
O531	O53	0.862200	0.892800	0.624300
O541	O54	0.722000	0.805800	0.823000
O551	O55	0.569800	0.576300	0.644700
P121	P12	0.505240	0.631750	0.603310
O561	O56	0.503500	0.698800	0.737500
O571	O57	0.615300	0.450600	0.431800
O581	O58	0.848200	0.564500	0.516000
O591	O59	0.679300	0.444800	0.739500
O601	O60	0.741200	0.689900	0.423500
Sc71	Sc7	0.000000	0.000000	0.000000
Sc81	Sc8	0.000000	0.000000	0.500000
P131	P13	0.333330	0.666670	0.215700
O611	O61	0.333330	0.666670	0.046900
P141	P14	0.666670	0.333330	0.784300
O621	O62	0.666670	0.333330	0.953100
