data_CAVPEW_manual_PM
_symmetry_space_group_name_H-M	'P1'
_cell_length_a	27.652300
_cell_length_b	27.652300
_cell_length_c	27.652300
_cell_angle_alpha	90.000000
_cell_angle_beta	90.000000
_cell_angle_gamma	90.000000
_symmetry_Int_Tables_number 1

loop_
_symmetry_equiv_pos_as_xyz
'x,y,z'

loop_
_atom_site_label
_atom_site_type_symbol
_atom_site_fract_x
_atom_site_fract_y
_atom_site_fract_z
Co11	Co1	0.999980	0.499970	0.707280
Co21	Co2	0.000020	0.500030	0.292710
Co31	Co3	0.707290	0.000000	0.499970
Co41	Co4	0.292710	0.000000	0.500030
Co51	Co5	0.500000	0.707290	0.999980
Co61	Co6	0.500000	0.292710	0.000020
Co71	Co7	0.999970	0.499980	0.792710
Co81	Co8	0.000030	0.500020	0.207290
Co91	Co9	0.500000	0.207290	0.000030
Co101	Co10	0.500000	0.792710	0.999970
Co111	Co11	0.207290	0.000000	0.500020
Co121	Co12	0.792710	0.000000	0.499980
H11	H1	0.106030	0.391960	0.827960
H21	H2	0.168000	0.329010	0.827830
H31	H3	0.893870	0.608000	0.827920
H41	H4	0.831880	0.670930	0.827750
H51	H5	0.893950	0.392000	0.172060
H61	H6	0.831970	0.329050	0.172210
H71	H7	0.008230	0.576020	0.372740
H81	H8	0.009470	0.577460	0.461140
H91	H9	0.106130	0.608020	0.172060
H101	H10	0.168110	0.670960	0.172200
H111	H11	0.991800	0.424030	0.372710
H121	H12	0.990540	0.422560	0.461110
H131	H13	0.827950	0.106110	0.392000
H141	H14	0.827810	0.168100	0.329060
H151	H15	0.827930	0.893880	0.607970
H161	H16	0.827770	0.831880	0.670910
H171	H17	0.172070	0.893970	0.391950
H181	H18	0.172230	0.831980	0.329010
H191	H19	0.172050	0.106030	0.608080
H201	H20	0.172180	0.168000	0.671030
H211	H21	0.392010	0.827950	0.106080
H221	H22	0.329070	0.827810	0.168070
H231	H23	0.607980	0.827930	0.893840
H241	H24	0.670910	0.827770	0.831840
H251	H25	0.391930	0.172050	0.894010
H261	H26	0.328980	0.172180	0.832030
H271	H27	0.608060	0.172070	0.106080
H281	H28	0.671000	0.172220	0.168060
H291	H29	0.890890	0.604570	0.671990
H301	H30	0.827980	0.666550	0.671780
H311	H31	0.109060	0.395330	0.672030
H321	H32	0.171960	0.333330	0.671860
H331	H33	0.890940	0.395410	0.327990
H341	H34	0.828040	0.333420	0.328180
H351	H35	0.075970	0.491360	0.127250
H361	H36	0.077400	0.490070	0.038850
H371	H37	0.109080	0.604670	0.327990
H381	H38	0.171990	0.666660	0.328180
H391	H39	0.924070	0.508670	0.127280
H401	H40	0.922620	0.509940	0.038880
H411	H41	0.604660	0.328000	0.109060
H421	H42	0.666650	0.328200	0.171960
H431	H43	0.395330	0.327980	0.890980
H441	H44	0.333330	0.328160	0.828080
H451	H45	0.395410	0.672020	0.109090
H461	H46	0.333430	0.671830	0.172000
H471	H47	0.491430	0.872740	0.924020
H481	H48	0.490160	0.961130	0.922590
H491	H49	0.604580	0.672000	0.890880
H501	H50	0.666560	0.671790	0.827960
H511	H51	0.508570	0.872720	0.075940
H521	H52	0.509840	0.961100	0.077400
H531	H53	0.328000	0.890950	0.395380
H541	H54	0.328200	0.828050	0.333390
H551	H55	0.327980	0.109030	0.604710
H561	H56	0.328160	0.171930	0.666710
H571	H57	0.672000	0.890880	0.604540
H581	H58	0.671790	0.827970	0.666520
H591	H59	0.872730	0.075960	0.508560
H601	H60	0.961120	0.077410	0.509840
H611	H61	0.672020	0.109100	0.395370
H621	H62	0.671830	0.172010	0.333390
H631	H63	0.872730	0.924040	0.491410
H641	H64	0.961120	0.922590	0.490150
H651	H65	0.895430	0.609100	0.171990
H661	H66	0.833450	0.672010	0.171780
H671	H67	0.104660	0.390940	0.172040
H681	H68	0.166660	0.328040	0.171870
H691	H69	0.104580	0.609060	0.827980
H701	H70	0.166580	0.671960	0.828180
H711	H71	0.008620	0.424020	0.627250
H721	H72	0.009910	0.422600	0.538850
H731	H73	0.895330	0.390920	0.827980
H741	H74	0.833340	0.328010	0.828180
H751	H75	0.991350	0.575930	0.627270
H761	H76	0.990080	0.577390	0.538880
H771	H77	0.172000	0.895320	0.609040
H781	H78	0.171810	0.833330	0.671950
H791	H79	0.372710	0.991740	0.424030
H801	H80	0.461110	0.990490	0.422560
H811	H81	0.172030	0.104680	0.390990
H821	H82	0.171850	0.166680	0.328090
H831	H83	0.372740	0.008260	0.576020
H841	H84	0.461130	0.009510	0.577460
H851	H85	0.827970	0.104590	0.609100
H861	H86	0.828160	0.166570	0.672010
H871	H87	0.627260	0.008400	0.424000
H881	H88	0.538870	0.009660	0.422560
H891	H89	0.828000	0.895420	0.390870
H901	H90	0.828200	0.833440	0.327960
H911	H91	0.627290	0.991610	0.575960
H921	H92	0.538890	0.990350	0.577420
H931	H93	0.609030	0.172010	0.895370
H941	H94	0.671940	0.171810	0.833380
H951	H95	0.424010	0.372720	0.991760
H961	H96	0.422550	0.461120	0.990500
H971	H97	0.390980	0.172030	0.104720
H981	H98	0.328080	0.171850	0.166720
H991	H99	0.575990	0.372730	0.008270
H1001	H100	0.577450	0.461120	0.009510
H1011	H101	0.609120	0.828000	0.104540
H1021	H102	0.672030	0.828200	0.166520
H1031	H103	0.424020	0.627280	0.008380
H1041	H104	0.422570	0.538880	0.009650
H1051	H105	0.390890	0.827980	0.895380
H1061	H106	0.327980	0.828160	0.833390
H1071	H107	0.575980	0.627270	0.991590
H1081	H108	0.577430	0.538880	0.990350
H1091	H109	0.108050	0.393970	0.327970
H1101	H110	0.171000	0.332000	0.327840
H1111	H111	0.891990	0.606120	0.327920
H1121	H112	0.829060	0.668120	0.327750
H1131	H113	0.108010	0.606040	0.672050
H1141	H114	0.170950	0.668020	0.672200
H1151	H115	0.923980	0.491760	0.872730
H1161	H116	0.922540	0.490520	0.961140
H1171	H117	0.891970	0.393870	0.672050
H1181	H118	0.829030	0.331890	0.672200
H1191	H119	0.075970	0.508210	0.872710
H1201	H120	0.077440	0.509470	0.961110
H1211	H121	0.393890	0.672050	0.892000
H1221	H122	0.331900	0.672180	0.829060
H1231	H123	0.606120	0.672070	0.107970
H1241	H124	0.668110	0.672230	0.170910
H1251	H125	0.606040	0.327930	0.891960
H1261	H126	0.668020	0.327780	0.829020
H1271	H127	0.492080	0.127280	0.076050
H1281	H128	0.490850	0.038880	0.077500
H1291	H129	0.393960	0.327960	0.108070
H1301	H130	0.331990	0.327820	0.171020
H1311	H131	0.507930	0.127300	0.924000
H1321	H132	0.509160	0.038910	0.922520
H1331	H133	0.672050	0.107990	0.606070
H1341	H134	0.672190	0.170930	0.668050
H1351	H135	0.672070	0.892020	0.393840
H1361	H136	0.672230	0.829080	0.331850
H1371	H137	0.327960	0.108060	0.394010
H1381	H138	0.327820	0.171010	0.332040
H1391	H139	0.127290	0.923970	0.507940
H1401	H140	0.038890	0.922510	0.509160
H1411	H141	0.327930	0.891950	0.606080
H1421	H142	0.327780	0.829010	0.668070
H1431	H143	0.127290	0.076030	0.492090
H1441	H144	0.038890	0.077490	0.490850
H1451	H145	0.250630	0.313840	0.813230
H1461	H146	0.749260	0.686090	0.813110
H1471	H147	0.749350	0.313900	0.186820
H1481	H148	0.250720	0.686140	0.186830
H1491	H149	0.813190	0.250710	0.313880
H1501	H150	0.813140	0.749260	0.686060
H1511	H151	0.186840	0.749350	0.313870
H1521	H152	0.186790	0.250630	0.686180
H1531	H153	0.313910	0.813190	0.250690
H1541	H154	0.686070	0.813120	0.749230
H1551	H155	0.313840	0.186790	0.749400
H1561	H156	0.686140	0.186860	0.250690
H1571	H157	0.750740	0.686860	0.186060
H1581	H158	0.249370	0.313210	0.186180
H1591	H159	0.249280	0.686800	0.813880
H1601	H160	0.750640	0.313160	0.813870
H1611	H161	0.186110	0.750640	0.686820
H1621	H162	0.186160	0.249370	0.313240
H1631	H163	0.813860	0.249280	0.686840
H1641	H164	0.813910	0.750740	0.313110
H1651	H165	0.686790	0.186110	0.750670
H1661	H166	0.313220	0.186180	0.249420
H1671	H167	0.686860	0.813910	0.249240
H1681	H168	0.313150	0.813840	0.750680
C11	C1	0.120050	0.379500	0.793580
C21	C2	0.156000	0.343460	0.793500
C31	C3	0.879860	0.620440	0.793530
C41	C4	0.843900	0.656470	0.793420
C51	C5	0.879930	0.379550	0.206440
C61	C6	0.843980	0.343510	0.206540
C71	C7	0.004590	0.542140	0.391950
C81	C8	0.004890	0.542860	0.443630
C91	C9	0.120130	0.620480	0.206440
C101	C10	0.156090	0.656520	0.206540
C111	C11	0.995440	0.457900	0.391930
C121	C12	0.995130	0.457160	0.443620
C131	C13	0.793570	0.120130	0.379540
C141	C14	0.793480	0.156080	0.343510
C151	C15	0.793550	0.879860	0.620420
C161	C16	0.793440	0.843900	0.656440
C171	C17	0.206450	0.879950	0.379510
C181	C18	0.206560	0.843990	0.343470
C191	C19	0.206430	0.120040	0.620540
C201	C20	0.206520	0.155990	0.656580
C211	C21	0.379560	0.793570	0.120100
C221	C22	0.343530	0.793480	0.156050
C231	C23	0.620430	0.793550	0.879830
C241	C24	0.656460	0.793440	0.843860
C251	C25	0.379480	0.206430	0.879990
C261	C26	0.343440	0.206520	0.844040
C271	C27	0.620510	0.206450	0.120090
C281	C28	0.656540	0.206550	0.156050
C291	C29	0.878320	0.618650	0.706300
C301	C30	0.842320	0.654620	0.706190
C311	C31	0.121610	0.381260	0.706350
C321	C32	0.157610	0.345280	0.706260
C331	C33	0.878380	0.381330	0.293670
C341	C34	0.842380	0.345360	0.293770
C351	C35	0.042110	0.495190	0.108050
C361	C36	0.042830	0.494870	0.056360
C371	C37	0.121650	0.618730	0.293670
C381	C38	0.157660	0.654710	0.293770
C391	C39	0.957930	0.504830	0.108060
C401	C40	0.957190	0.505140	0.056370
C411	C41	0.618740	0.293680	0.121620
C421	C42	0.654710	0.293790	0.157630
C431	C43	0.381250	0.293660	0.878430
C441	C44	0.345270	0.293750	0.842430
C451	C45	0.381330	0.706340	0.121650
C461	C46	0.345360	0.706240	0.157660
C471	C47	0.495230	0.891950	0.957880
C481	C48	0.494910	0.943640	0.957170
C491	C49	0.618660	0.706320	0.878300
C501	C50	0.654620	0.706200	0.842300
C511	C51	0.504780	0.891940	0.042080
C521	C52	0.505090	0.943620	0.042810
C531	C53	0.293680	0.878390	0.381300
C541	C54	0.293790	0.842390	0.345320
C551	C55	0.293660	0.121590	0.618790
C561	C56	0.293750	0.157590	0.654760
C571	C57	0.706320	0.878320	0.618620
C581	C58	0.706200	0.842310	0.654590
C591	C59	0.891940	0.042100	0.504760
C601	C60	0.943630	0.042820	0.505080
C611	C61	0.706340	0.121670	0.381300
C621	C62	0.706240	0.157670	0.345330
C631	C63	0.891940	0.957900	0.495210
C641	C64	0.943630	0.957180	0.494910
C651	C65	0.881350	0.621670	0.206310
C661	C66	0.845380	0.657680	0.206190
C671	C67	0.118740	0.378380	0.206360
C681	C68	0.154720	0.342390	0.206270
C691	C69	0.118670	0.621620	0.793670
C701	C70	0.154640	0.657620	0.793770
C711	C71	0.004800	0.457880	0.608040
C721	C72	0.005120	0.457170	0.556360
C731	C73	0.881260	0.378350	0.793670
C741	C74	0.845290	0.342340	0.793770
C751	C75	0.995180	0.542070	0.608060
C761	C76	0.994870	0.542810	0.556370
C771	C77	0.206320	0.881250	0.621620
C781	C78	0.206210	0.845280	0.657620
C791	C79	0.391930	0.995400	0.457900
C801	C80	0.443620	0.995100	0.457170
C811	C81	0.206350	0.118760	0.378430
C821	C82	0.206250	0.154740	0.342440
C831	C83	0.391950	0.004600	0.542140
C841	C84	0.443640	0.004910	0.542860
C851	C85	0.793660	0.118660	0.621660
C861	C86	0.793750	0.154640	0.657660
C871	C87	0.608050	0.004680	0.457870
C881	C88	0.556370	0.004990	0.457160
C891	C89	0.793680	0.881340	0.378300
C901	C90	0.793790	0.845370	0.342290
C911	C91	0.608070	0.995330	0.542090
C921	C92	0.556380	0.995020	0.542820
C931	C93	0.621600	0.206320	0.881290
C941	C94	0.657600	0.206210	0.845310
C951	C95	0.457880	0.391940	0.995420
C961	C96	0.457150	0.443630	0.995110
C971	C97	0.378410	0.206350	0.118790
C981	C98	0.342410	0.206250	0.154770
C991	C99	0.542120	0.391940	0.004610
C1001	C100	0.542840	0.443630	0.004910
C1011	C101	0.621680	0.793680	0.118620
C1021	C102	0.657690	0.793790	0.154590
C1031	C103	0.457890	0.608060	0.004660
C1041	C104	0.457160	0.556370	0.004980
C1051	C105	0.378330	0.793660	0.881300
C1061	C106	0.342320	0.793750	0.845330
C1071	C107	0.542110	0.608060	0.995310
C1081	C108	0.542830	0.556370	0.995010
C1091	C109	0.120500	0.379950	0.293590
C1101	C110	0.156540	0.344000	0.293500
C1111	C111	0.879550	0.620140	0.293540
C1121	C112	0.843520	0.656100	0.293420
C1131	C113	0.120450	0.620060	0.706440
C1141	C114	0.156490	0.656010	0.706540
C1151	C115	0.957860	0.495410	0.891940
C1161	C116	0.957140	0.495110	0.943630
C1171	C117	0.879510	0.379870	0.706430
C1181	C118	0.843480	0.343910	0.706530
C1191	C119	0.042100	0.504570	0.891930
C1201	C120	0.042840	0.504880	0.943620
C1211	C121	0.379870	0.706430	0.879540
C1221	C122	0.343920	0.706520	0.843510
C1231	C123	0.620140	0.706450	0.120420
C1241	C124	0.656100	0.706560	0.156440
C1251	C125	0.620050	0.293550	0.879510
C1261	C126	0.656010	0.293450	0.843480
C1271	C127	0.495590	0.108060	0.042160
C1281	C128	0.495290	0.056370	0.042880
C1291	C129	0.379950	0.293580	0.120540
C1301	C130	0.344000	0.293490	0.156580
C1311	C131	0.504420	0.108080	0.957880
C1321	C132	0.504710	0.056390	0.957150
C1331	C133	0.706430	0.120440	0.620090
C1341	C134	0.706520	0.156480	0.656050
C1351	C135	0.706450	0.879570	0.379830
C1361	C136	0.706560	0.843540	0.343870
C1371	C137	0.293580	0.120520	0.379990
C1381	C138	0.293490	0.156560	0.344040
C1391	C139	0.108070	0.957860	0.504430
C1401	C140	0.056380	0.957130	0.504720
C1411	C141	0.293550	0.879490	0.620090
C1421	C142	0.293450	0.843460	0.656050
C1431	C143	0.108070	0.042140	0.495600
C1441	C144	0.056380	0.042870	0.495300
C1451	C145	0.000000	0.499990	0.528370
C1461	C146	0.000000	0.500010	0.471620
C1471	C147	0.528380	0.000000	0.500000
C1481	C148	0.471620	0.000000	0.500010
C1491	C149	0.500000	0.528380	0.000000
C1501	C150	0.500000	0.471620	0.000010
C1511	C151	0.000000	0.500000	0.971620
C1521	C152	0.000010	0.500000	0.028370
C1531	C153	0.500000	0.028380	0.000010
C1541	C154	0.500000	0.971630	0.999990
C1551	C155	0.028380	0.000000	0.500010
C1561	C156	0.971630	0.000000	0.500000
C1571	C157	0.063680	0.437260	0.750060
C1581	C158	0.102230	0.398970	0.750010
C1591	C159	0.175470	0.325650	0.749830
C1601	C160	0.214030	0.286940	0.749720
C1611	C161	0.936260	0.562680	0.750040
C1621	C162	0.897700	0.600960	0.749970
C1631	C163	0.824450	0.674260	0.749740
C1641	C164	0.785880	0.712970	0.749610
C1651	C165	0.936310	0.437320	0.249940
C1661	C166	0.897760	0.399030	0.250010
C1671	C167	0.824520	0.325720	0.250210
C1681	C168	0.785950	0.287010	0.250340
C1691	C169	0.063740	0.562730	0.249940
C1701	C170	0.102290	0.601020	0.250000
C1711	C171	0.175530	0.674330	0.250210
C1721	C172	0.214100	0.713040	0.250340
C1731	C173	0.750060	0.063730	0.437290
C1741	C174	0.750000	0.102290	0.399010
C1751	C175	0.749810	0.175540	0.325710
C1761	C176	0.749680	0.214100	0.286990
C1771	C177	0.750050	0.936260	0.562660
C1781	C178	0.749980	0.897700	0.600930
C1791	C179	0.749760	0.824440	0.674230
C1801	C180	0.749620	0.785880	0.712940
C1811	C181	0.249950	0.936320	0.437290
C1821	C182	0.250020	0.897780	0.398990
C1831	C183	0.250230	0.824530	0.325690
C1841	C184	0.250360	0.785960	0.286980
C1851	C185	0.249940	0.063680	0.562770
C1861	C186	0.250000	0.102210	0.601070
C1871	C187	0.250190	0.175460	0.674380
C1881	C188	0.250300	0.214020	0.713090
C1891	C189	0.437310	0.750060	0.063710
C1901	C190	0.399040	0.750000	0.102260
C1911	C191	0.325730	0.749800	0.175520
C1921	C192	0.287020	0.749680	0.214080
C1931	C193	0.562690	0.750050	0.936240
C1941	C194	0.600950	0.749990	0.897680
C1951	C195	0.674250	0.749760	0.824420
C1961	C196	0.712960	0.749620	0.785850
C1971	C197	0.437260	0.249940	0.936350
C1981	C198	0.398960	0.250000	0.897810
C1991	C199	0.325640	0.250190	0.824570
C2001	C200	0.286940	0.250300	0.786000
C2011	C201	0.562740	0.249950	0.063710
C2021	C202	0.601030	0.250020	0.102250
C2031	C203	0.674340	0.250230	0.175500
C2041	C204	0.713040	0.250360	0.214070
C2051	C205	0.937320	0.563740	0.250050
C2061	C206	0.899040	0.602290	0.249980
C2071	C207	0.825740	0.675550	0.249740
C2081	C208	0.787030	0.714110	0.249610
C2091	C209	0.062730	0.436310	0.250070
C2101	C210	0.101020	0.397770	0.250020
C2111	C211	0.174350	0.324530	0.249840
C2121	C212	0.213060	0.285970	0.249730
C2131	C213	0.062680	0.563690	0.749940
C2141	C214	0.100970	0.602230	0.750000
C2151	C215	0.174280	0.675480	0.750210
C2161	C216	0.212990	0.714040	0.750330
C2171	C217	0.937260	0.436260	0.749940
C2181	C218	0.898980	0.397710	0.750000
C2191	C219	0.825670	0.324470	0.750210
C2201	C220	0.786960	0.285900	0.750330
C2211	C221	0.250050	0.937260	0.563710
C2221	C222	0.249990	0.898970	0.602250
C2231	C223	0.249780	0.825650	0.675500
C2241	C224	0.249650	0.786950	0.714060
C2251	C225	0.250060	0.062740	0.436350
C2261	C226	0.250010	0.101040	0.397820
C2271	C227	0.249820	0.174360	0.324580
C2281	C228	0.249710	0.213070	0.286010
C2291	C229	0.749940	0.062690	0.563710
C2301	C230	0.749990	0.100960	0.602260
C2311	C231	0.750190	0.174270	0.675510
C2321	C232	0.750310	0.212990	0.714070
C2331	C233	0.749950	0.937310	0.436240
C2341	C234	0.750010	0.899040	0.397680
C2351	C235	0.750240	0.825740	0.324420
C2361	C236	0.750370	0.787030	0.285860
C2371	C237	0.563680	0.250050	0.937290
C2381	C238	0.602220	0.249990	0.898990
C2391	C239	0.675470	0.249780	0.825680
C2401	C240	0.714030	0.249650	0.786980
C2411	C241	0.436320	0.250060	0.062770
C2421	C242	0.397790	0.250010	0.101070
C2431	C243	0.324550	0.249820	0.174390
C2441	C244	0.285980	0.249710	0.213090
C2451	C245	0.563740	0.749950	0.062660
C2461	C246	0.602300	0.750010	0.100930
C2471	C247	0.675560	0.750240	0.174230
C2481	C248	0.714120	0.750370	0.212940
C2491	C249	0.436270	0.749940	0.937290
C2501	C250	0.397710	0.749990	0.899010
C2511	C251	0.324460	0.750190	0.825700
C2521	C252	0.285900	0.750310	0.786990
C2531	C253	0.250540	0.286220	0.785520
C2541	C254	0.749360	0.713700	0.785390
C2551	C255	0.749440	0.286280	0.214540
C2561	C256	0.250620	0.713760	0.214550
C2571	C257	0.785480	0.250620	0.286260
C2581	C258	0.785420	0.749360	0.713680
C2591	C259	0.214560	0.749440	0.286250
C2601	C260	0.214510	0.250540	0.713810
C2611	C261	0.286290	0.785480	0.250590
C2621	C262	0.713690	0.785410	0.749330
C2631	C263	0.286220	0.214500	0.749490
C2641	C264	0.713760	0.214570	0.250590
C2651	C265	0.750640	0.714580	0.213680
C2661	C266	0.249460	0.285500	0.213810
C2671	C267	0.249380	0.714520	0.786260
C2681	C268	0.750550	0.285440	0.786250
C2691	C269	0.213720	0.750550	0.714540
C2701	C270	0.213780	0.249470	0.285530
C2711	C271	0.786230	0.249380	0.714550
C2721	C272	0.786290	0.750640	0.285390
C2731	C273	0.714510	0.213720	0.750580
C2741	C274	0.285510	0.213790	0.249500
C2751	C275	0.714580	0.786300	0.249340
C2761	C276	0.285440	0.786220	0.750580
N11	N1	0.999980	0.499980	0.633940
N21	N2	0.000020	0.500020	0.366050
N31	N3	0.633950	0.000000	0.499980
N41	N4	0.366050	0.000000	0.500030
N51	N5	0.500000	0.633950	0.999990
N61	N6	0.500000	0.366050	0.000020
N71	N7	0.999980	0.499990	0.866050
N81	N8	0.000020	0.500020	0.133940
N91	N9	0.500000	0.133950	0.000020
N101	N10	0.500000	0.866050	0.999980
N111	N11	0.133950	0.000000	0.500020
N121	N12	0.866050	0.000000	0.499990
O11	O1	0.047230	0.453670	0.709670
O21	O2	0.952720	0.546270	0.709660
O31	O3	0.952770	0.453720	0.290330
O41	O4	0.047270	0.546340	0.290330
O51	O5	0.709670	0.047270	0.453680
O61	O6	0.709660	0.952730	0.546260
O71	O7	0.290340	0.952770	0.453700
O81	O8	0.290340	0.047230	0.546360
O91	O9	0.453710	0.709670	0.047250
O101	O10	0.546290	0.709660	0.952710
O111	O11	0.453670	0.290330	0.952790
O121	O12	0.546330	0.290340	0.047250
O131	O13	0.952830	0.546410	0.790450
O141	O14	0.047100	0.453540	0.790460
O151	O15	0.952890	0.453590	0.209540
O161	O16	0.047170	0.546450	0.209540
O171	O17	0.546460	0.209550	0.047140
O181	O18	0.453540	0.209540	0.952920
O191	O19	0.453580	0.790470	0.047130
O201	O20	0.546410	0.790460	0.952820
O211	O21	0.209550	0.952890	0.453560
O221	O22	0.209540	0.047110	0.546490
O231	O23	0.790460	0.952840	0.546390
O241	O24	0.790470	0.047150	0.453560
O251	O25	0.953580	0.547160	0.290460
O261	O26	0.046460	0.452890	0.290470
O271	O27	0.046410	0.547110	0.709530
O281	O28	0.953550	0.452830	0.709530
O291	O29	0.290460	0.953540	0.547150
O301	O30	0.290470	0.046450	0.452920
O311	O31	0.709530	0.046420	0.547120
O321	O32	0.709540	0.953580	0.452820
O331	O33	0.547110	0.290460	0.953570
O341	O34	0.452880	0.290470	0.046480
O351	O35	0.547150	0.709540	0.046400
O361	O36	0.452850	0.709530	0.953560
O371	O37	0.046330	0.452760	0.209670
O381	O38	0.953730	0.547280	0.209660
O391	O39	0.046280	0.547230	0.790330
O401	O40	0.953660	0.452730	0.790330
O411	O41	0.452730	0.790330	0.953690
O421	O42	0.547270	0.790340	0.046260
O431	O43	0.547220	0.209660	0.953700
O441	O44	0.452770	0.209670	0.046360
O451	O45	0.790330	0.046290	0.547250
O461	O46	0.790340	0.953710	0.452710
O471	O47	0.209670	0.046330	0.452800
O481	O48	0.209660	0.953670	0.547250
