data_CAVPUM_manual_PM
_symmetry_space_group_name_H-M	'P1'
_cell_length_a	27.682100
_cell_length_b	27.682100
_cell_length_c	27.682100
_cell_angle_alpha	90.000000
_cell_angle_beta	90.000000
_cell_angle_gamma	90.000000
_symmetry_Int_Tables_number 1

loop_
_symmetry_equiv_pos_as_xyz
'x,y,z'

loop_
_atom_site_label
_atom_site_type_symbol
_atom_site_fract_x
_atom_site_fract_y
_atom_site_fract_z
Zn11	Zn1	0.000000	0.499970	0.693900
Zn21	Zn2	0.000000	0.500030	0.306100
Zn31	Zn3	0.693900	0.000000	0.500000
Zn41	Zn4	0.306090	0.000000	0.500000
Zn51	Zn5	0.500000	0.693910	0.999980
Zn61	Zn6	0.500000	0.306090	0.000020
Zn71	Zn7	0.000000	0.499980	0.806090
Zn81	Zn8	0.000000	0.500020	0.193910
Zn91	Zn9	0.500000	0.193900	0.000030
Zn101	Zn10	0.500000	0.806100	0.999970
Zn111	Zn11	0.193910	0.000000	0.500000
Zn121	Zn12	0.806100	0.000000	0.500000
H11	H1	0.105670	0.393670	0.827120
H21	H2	0.167850	0.330950	0.827540
H31	H3	0.023890	0.572550	0.622780
H41	H4	0.025670	0.573850	0.534040
H51	H5	0.894320	0.606280	0.827110
H61	H6	0.832150	0.669010	0.827520
H71	H7	0.976120	0.427400	0.622760
H81	H8	0.974330	0.426140	0.534020
H91	H9	0.894320	0.393720	0.172890
H101	H10	0.832150	0.330990	0.172480
H111	H11	0.976120	0.572600	0.377240
H121	H12	0.974330	0.573860	0.465980
H131	H13	0.105670	0.606330	0.172880
H141	H14	0.167850	0.669050	0.172460
H151	H15	0.023890	0.427450	0.377220
H161	H16	0.025670	0.426150	0.465960
H171	H17	0.828540	0.106340	0.393430
H181	H18	0.828270	0.168210	0.330440
H191	H19	0.828540	0.893660	0.606570
H201	H20	0.828270	0.831790	0.669560
H211	H21	0.171490	0.893680	0.393410
H221	H22	0.171750	0.831820	0.330420
H231	H23	0.171490	0.106320	0.606590
H241	H24	0.171750	0.168180	0.669580
H251	H25	0.393650	0.827120	0.105790
H261	H26	0.330930	0.827540	0.167970
H271	H27	0.572580	0.622770	0.023860
H281	H28	0.573860	0.534030	0.025660
H291	H29	0.606350	0.827110	0.894160
H301	H30	0.669080	0.827520	0.831990
H311	H31	0.427430	0.622770	0.976100
H321	H32	0.426150	0.534020	0.974330
H331	H33	0.393650	0.172880	0.894210
H341	H34	0.330930	0.172460	0.832030
H351	H35	0.572580	0.377230	0.976140
H361	H36	0.573860	0.465970	0.974340
H371	H37	0.606350	0.172890	0.105840
H381	H38	0.669080	0.172480	0.168010
H391	H39	0.427430	0.377230	0.023900
H401	H40	0.426150	0.465980	0.025670
H411	H41	0.893630	0.606430	0.671400
H421	H42	0.830670	0.668340	0.671680
H431	H43	0.106380	0.393520	0.671420
H441	H44	0.169350	0.331620	0.671700
H451	H45	0.893630	0.393570	0.328600
H461	H46	0.830670	0.331660	0.328320
H471	H47	0.106380	0.606480	0.328580
H481	H48	0.169350	0.668380	0.328300
H491	H49	0.606590	0.328590	0.106440
H501	H50	0.668500	0.328320	0.169400
H511	H51	0.393410	0.328580	0.893600
H521	H52	0.331500	0.328300	0.830630
H531	H53	0.393410	0.671420	0.106400
H541	H54	0.331500	0.671700	0.169370
H551	H55	0.606590	0.671410	0.893560
H561	H56	0.668500	0.671680	0.830600
H571	H57	0.327190	0.893860	0.394050
H581	H58	0.327590	0.831160	0.331830
H591	H59	0.327190	0.106140	0.605950
H601	H60	0.327590	0.168840	0.668170
H611	H61	0.672840	0.893820	0.605910
H621	H62	0.672430	0.831120	0.668120
H631	H63	0.877250	0.072460	0.524230
H641	H64	0.965980	0.073730	0.526040
H651	H65	0.672840	0.106180	0.394090
H661	H66	0.672430	0.168880	0.331880
H671	H67	0.877250	0.927540	0.475770
H681	H68	0.965980	0.926270	0.473960
H691	H69	0.893400	0.606430	0.171410
H701	H70	0.831490	0.669400	0.171680
H711	H71	0.106590	0.393600	0.171420
H721	H72	0.168500	0.330630	0.171700
H731	H73	0.106590	0.606400	0.828580
H741	H74	0.168500	0.669370	0.828300
H751	H75	0.893400	0.393570	0.828590
H761	H76	0.831490	0.330600	0.828320
H771	H77	0.172810	0.894040	0.606140
H781	H78	0.172410	0.831820	0.668830
H791	H79	0.377220	0.976540	0.427290
H801	H80	0.465960	0.974760	0.426000
H811	H81	0.172810	0.105960	0.393860
H821	H82	0.172410	0.168180	0.331170
H831	H83	0.377220	0.023460	0.572710
H841	H84	0.465960	0.025240	0.574000
H851	H85	0.827160	0.105900	0.606190
H861	H86	0.827560	0.168110	0.668890
H871	H87	0.622750	0.024220	0.427540
H881	H88	0.534020	0.026030	0.426270
H891	H89	0.827160	0.894100	0.393810
H901	H90	0.827560	0.831890	0.331110
H911	H91	0.622750	0.975780	0.572460
H921	H92	0.534020	0.973970	0.573730
H931	H93	0.606370	0.171410	0.893570
H941	H94	0.669330	0.171680	0.831660
H951	H95	0.393620	0.171410	0.106480
H961	H96	0.330650	0.171700	0.168380
H971	H97	0.606370	0.828590	0.106430
H981	H98	0.669330	0.828320	0.168340
H991	H99	0.393620	0.828590	0.893520
H1001	H100	0.330650	0.828300	0.831620
H1011	H101	0.106350	0.394210	0.327120
H1021	H102	0.169070	0.332040	0.327540
H1031	H103	0.927420	0.476140	0.122770
H1041	H104	0.926140	0.474340	0.034030
H1051	H105	0.893650	0.605850	0.327110
H1061	H106	0.830930	0.668020	0.327520
H1071	H107	0.072570	0.523900	0.122760
H1081	H108	0.073850	0.525680	0.034020
H1091	H109	0.106350	0.605790	0.672880
H1101	H110	0.169070	0.667960	0.672460
H1111	H111	0.927420	0.523860	0.877230
H1121	H112	0.926140	0.525660	0.965970
H1131	H113	0.893650	0.394150	0.672890
H1141	H114	0.830930	0.331980	0.672480
H1151	H115	0.072570	0.476100	0.877240
H1161	H116	0.073850	0.474320	0.965980
H1171	H117	0.394330	0.672880	0.893680
H1181	H118	0.332150	0.672460	0.830960
H1191	H119	0.476120	0.877220	0.072550
H1201	H120	0.474340	0.965960	0.073850
H1211	H121	0.605680	0.672890	0.106290
H1221	H122	0.667840	0.672480	0.169010
H1231	H123	0.523890	0.877240	0.927410
H1241	H124	0.525680	0.965980	0.926140
H1251	H125	0.605680	0.327110	0.893710
H1261	H126	0.667840	0.327520	0.830990
H1271	H127	0.523890	0.122760	0.072590
H1281	H128	0.525680	0.034020	0.073860
H1291	H129	0.394330	0.327120	0.106320
H1301	H130	0.332150	0.327540	0.169040
H1311	H131	0.476120	0.122780	0.927450
H1321	H132	0.474340	0.034040	0.926150
H1331	H133	0.671450	0.106590	0.606320
H1341	H134	0.671720	0.169570	0.668190
H1351	H135	0.671450	0.893410	0.393680
H1361	H136	0.671720	0.830430	0.331810
H1371	H137	0.328510	0.106580	0.393680
H1381	H138	0.328250	0.169570	0.331820
H1391	H139	0.122780	0.927300	0.523480
H1401	H140	0.034040	0.926010	0.525270
H1411	H141	0.328510	0.893420	0.606320
H1421	H142	0.328250	0.830430	0.668180
H1431	H143	0.122780	0.072700	0.476520
H1441	H144	0.034040	0.073990	0.474730
H1451	H145	0.249830	0.313710	0.813290
H1461	H146	0.750180	0.686260	0.813260
H1471	H147	0.750180	0.313740	0.186740
H1481	H148	0.249830	0.686290	0.186710
H1491	H149	0.813620	0.249910	0.313550
H1501	H150	0.813620	0.750090	0.686450
H1511	H151	0.186400	0.750130	0.313520
H1521	H152	0.186400	0.249870	0.686480
H1531	H153	0.313390	0.813480	0.249870
H1541	H154	0.686620	0.813450	0.750090
H1551	H155	0.313390	0.186520	0.750130
H1561	H156	0.686620	0.186550	0.249910
H1571	H157	0.749820	0.686740	0.186260
H1581	H158	0.250170	0.313290	0.186280
H1591	H159	0.250170	0.686710	0.813720
H1601	H160	0.749820	0.313260	0.813740
H1611	H161	0.186610	0.749860	0.686520
H1621	H162	0.186610	0.250140	0.313480
H1631	H163	0.813370	0.250090	0.686550
H1641	H164	0.813370	0.749910	0.313450
H1651	H165	0.686370	0.186450	0.749900
H1661	H166	0.313610	0.186480	0.250130
H1671	H167	0.686370	0.813550	0.250100
H1681	H168	0.313610	0.813520	0.749870
C11	C1	0.119150	0.380480	0.792850
C21	C2	0.155330	0.344480	0.793070
C31	C3	0.013430	0.540690	0.602750
C41	C4	0.013950	0.541420	0.552480
C51	C5	0.880850	0.619470	0.792840
C61	C6	0.844670	0.655480	0.793040
C71	C7	0.986580	0.459280	0.602740
C81	C8	0.986060	0.458570	0.552460
C91	C9	0.880850	0.380530	0.207160
C101	C10	0.844670	0.344520	0.206960
C111	C11	0.986580	0.540720	0.397260
C121	C12	0.986060	0.541430	0.447540
C131	C13	0.119150	0.619520	0.207150
C141	C14	0.155330	0.655520	0.206930
C151	C15	0.013430	0.459310	0.397250
C161	C16	0.013950	0.458580	0.447520
C171	C17	0.794130	0.119580	0.380370
C181	C18	0.793930	0.155580	0.344200
C191	C19	0.794130	0.880420	0.619630
C201	C20	0.793930	0.844420	0.655800
C211	C21	0.205900	0.880450	0.380350
C221	C22	0.206090	0.844450	0.344170
C231	C23	0.205900	0.119550	0.619650
C241	C24	0.206090	0.155550	0.655830
C251	C25	0.380440	0.792850	0.119240
C261	C26	0.344430	0.793060	0.155430
C271	C27	0.540710	0.602750	0.013410
C281	C28	0.541430	0.552470	0.013930
C291	C29	0.619560	0.792830	0.880710
C301	C30	0.655580	0.793040	0.844520
C311	C31	0.459300	0.602740	0.986560
C321	C32	0.458580	0.552470	0.986050
C331	C33	0.380440	0.207150	0.880760
C341	C34	0.344430	0.206940	0.844570
C351	C35	0.540710	0.397250	0.986590
C361	C36	0.541430	0.447530	0.986070
C371	C37	0.619560	0.207170	0.119290
C381	C38	0.655580	0.206960	0.155480
C391	C39	0.459300	0.397260	0.013440
C401	C40	0.458580	0.447530	0.013950
C411	C41	0.880590	0.619680	0.705820
C421	C42	0.844430	0.655700	0.706010
C431	C43	0.119420	0.380270	0.705830
C441	C44	0.155580	0.344260	0.706030
C451	C45	0.880590	0.380320	0.294180
C461	C46	0.844430	0.344300	0.293990
C471	C47	0.119420	0.619730	0.294170
C481	C48	0.155580	0.655740	0.293970
C491	C49	0.619820	0.294170	0.119500
C501	C50	0.655850	0.293980	0.155660
C511	C51	0.380180	0.294160	0.880540
C521	C52	0.344150	0.293960	0.844370
C531	C53	0.380180	0.705840	0.119460
C541	C54	0.344150	0.706040	0.155630
C551	C55	0.619820	0.705830	0.880500
C561	C56	0.655850	0.706020	0.844340
C571	C57	0.292920	0.880670	0.380580
C581	C58	0.293120	0.844680	0.344370
C591	C59	0.292920	0.119330	0.619420
C601	C60	0.293120	0.155320	0.655630
C611	C61	0.707110	0.880640	0.619380
C621	C62	0.706900	0.844640	0.655580
C631	C63	0.897260	0.040640	0.513620
C641	C64	0.947540	0.041360	0.514150
C651	C65	0.707110	0.119360	0.380620
C661	C66	0.706900	0.155360	0.344420
C671	C67	0.897260	0.959360	0.486380
C681	C68	0.947540	0.958640	0.485850
C691	C69	0.880180	0.619500	0.205830
C701	C70	0.844140	0.655660	0.206020
C711	C71	0.119820	0.380540	0.205840
C721	C72	0.155850	0.344370	0.206040
C731	C73	0.119820	0.619460	0.794160
C741	C74	0.155850	0.655630	0.793960
C751	C75	0.880180	0.380500	0.794170
C761	C76	0.844140	0.344340	0.793980
C771	C77	0.207080	0.880570	0.619330
C781	C78	0.206880	0.844370	0.655320
C791	C79	0.397240	0.986810	0.459220
C801	C80	0.447520	0.986300	0.458490
C811	C81	0.207080	0.119430	0.380670
C821	C82	0.206880	0.155630	0.344680
C831	C83	0.397240	0.013190	0.540780
C841	C84	0.447520	0.013700	0.541510
C851	C85	0.792880	0.119380	0.619370
C861	C86	0.793090	0.155580	0.655360
C871	C87	0.602730	0.013620	0.459360
C881	C88	0.552460	0.014140	0.458640
C891	C89	0.792880	0.880620	0.380630
C901	C90	0.793090	0.844420	0.344640
C911	C91	0.602730	0.986380	0.540640
C921	C92	0.552460	0.985860	0.541360
C931	C93	0.619410	0.205820	0.880320
C941	C94	0.655560	0.206020	0.844300
C951	C95	0.380580	0.205830	0.119720
C961	C96	0.344420	0.206030	0.155740
C971	C97	0.619410	0.794180	0.119680
C981	C98	0.655560	0.793980	0.155700
C991	C99	0.380580	0.794170	0.880280
C1001	C100	0.344420	0.793970	0.844260
C1011	C101	0.119560	0.380760	0.292850
C1021	C102	0.155570	0.344570	0.293060
C1031	C103	0.959290	0.486590	0.102750
C1041	C104	0.958570	0.486070	0.052470
C1051	C105	0.880440	0.619290	0.292840
C1061	C106	0.844430	0.655480	0.293050
C1071	C107	0.040700	0.513440	0.102740
C1081	C108	0.041420	0.513950	0.052470
C1091	C109	0.119560	0.619240	0.707150
C1101	C110	0.155570	0.655430	0.706940
C1111	C111	0.959290	0.513410	0.897250
C1121	C112	0.958570	0.513930	0.947530
C1131	C113	0.880440	0.380710	0.707160
C1141	C114	0.844430	0.344520	0.706950
C1151	C115	0.040700	0.486560	0.897260
C1161	C116	0.041420	0.486050	0.947530
C1171	C117	0.380850	0.707150	0.880490
C1181	C118	0.344670	0.706930	0.844490
C1191	C119	0.486580	0.897250	0.040690
C1201	C120	0.486060	0.947530	0.041420
C1211	C121	0.619150	0.707160	0.119480
C1221	C122	0.655320	0.706950	0.155480
C1231	C123	0.513430	0.897260	0.959280
C1241	C124	0.513950	0.947540	0.958570
C1251	C125	0.619150	0.292840	0.880520
C1261	C126	0.655320	0.293050	0.844520
C1271	C127	0.513430	0.102740	0.040720
C1281	C128	0.513950	0.052460	0.041430
C1291	C129	0.380850	0.292850	0.119510
C1301	C130	0.344670	0.293070	0.155510
C1311	C131	0.486580	0.102750	0.959310
C1321	C132	0.486060	0.052470	0.958580
C1331	C133	0.705870	0.119640	0.619560
C1341	C134	0.706060	0.155810	0.655570
C1351	C135	0.705870	0.880360	0.380440
C1361	C136	0.706060	0.844190	0.344430
C1371	C137	0.294100	0.119650	0.380450
C1381	C138	0.293910	0.155820	0.344450
C1391	C139	0.102750	0.959220	0.513200
C1401	C140	0.052480	0.958500	0.513720
C1411	C141	0.294100	0.880350	0.619550
C1421	C142	0.293910	0.844180	0.655550
C1431	C143	0.102750	0.040780	0.486800
C1441	C144	0.052480	0.041500	0.486280
C1451	C145	0.000000	0.500000	0.526710
C1461	C146	0.000000	0.500000	0.473290
C1471	C147	0.526700	0.000000	0.500000
C1481	C148	0.473280	0.000000	0.500000
C1491	C149	0.500000	0.526710	0.000000
C1501	C150	0.500000	0.473290	0.000000
C1511	C151	0.999990	0.499990	0.973290
C1521	C152	0.999990	0.500010	0.026710
C1531	C153	0.500010	0.026710	0.000000
C1541	C154	0.500010	0.973290	0.000000
C1551	C155	0.026710	0.000000	0.500000
C1561	C156	0.973300	0.000000	0.500000
C1571	C157	0.061780	0.437780	0.749020
C1581	C158	0.100470	0.399100	0.749230
C1591	C159	0.174360	0.325530	0.749660
C1601	C160	0.213280	0.286640	0.749850
C1611	C161	0.938220	0.562180	0.749010
C1621	C162	0.899530	0.600850	0.749220
C1631	C163	0.825650	0.674420	0.749630
C1641	C164	0.786730	0.713330	0.749820
C1651	C165	0.938220	0.437820	0.250990
C1661	C166	0.899530	0.399150	0.250780
C1671	C167	0.825650	0.325580	0.250370
C1681	C168	0.786730	0.286670	0.250180
C1691	C169	0.061780	0.562220	0.250980
C1701	C170	0.100470	0.600900	0.250770
C1711	C171	0.174360	0.674470	0.250340
C1721	C172	0.213280	0.713360	0.250150
C1731	C173	0.750950	0.062130	0.438100
C1741	C174	0.750730	0.100760	0.399340
C1751	C175	0.750320	0.174330	0.325410
C1761	C176	0.750160	0.213330	0.286560
C1771	C177	0.750950	0.937870	0.561900
C1781	C178	0.750730	0.899240	0.600660
C1791	C179	0.750320	0.825670	0.674590
C1801	C180	0.750160	0.786670	0.713440
C1811	C181	0.249080	0.937890	0.438080
C1821	C182	0.249300	0.899270	0.399310
C1831	C183	0.249710	0.825710	0.325370
C1841	C184	0.249850	0.786700	0.286520
C1851	C185	0.249080	0.062110	0.561920
C1861	C186	0.249300	0.100730	0.600690
C1871	C187	0.249710	0.174290	0.674630
C1881	C188	0.249850	0.213300	0.713480
C1891	C189	0.437750	0.749020	0.061810
C1901	C190	0.399050	0.749230	0.100520
C1911	C191	0.325440	0.749660	0.174450
C1921	C192	0.286510	0.749850	0.213410
C1931	C193	0.562250	0.749020	0.938150
C1941	C194	0.600950	0.749220	0.899430
C1951	C195	0.674570	0.749630	0.825510
C1961	C196	0.713500	0.749820	0.786560
C1971	C197	0.437750	0.250980	0.938190
C1981	C198	0.399050	0.250770	0.899480
C1991	C199	0.325440	0.250340	0.825550
C2001	C200	0.286510	0.250150	0.786590
C2011	C201	0.562250	0.250980	0.061850
C2021	C202	0.600950	0.250780	0.100570
C2031	C203	0.674570	0.250370	0.174490
C2041	C204	0.713500	0.250180	0.213440
C2051	C205	0.937750	0.561850	0.249020
C2061	C206	0.899050	0.600570	0.249230
C2071	C207	0.825430	0.674490	0.249640
C2081	C208	0.786500	0.713440	0.249820
C2091	C209	0.062250	0.438190	0.249020
C2101	C210	0.100950	0.399480	0.249230
C2111	C211	0.174560	0.325550	0.249650
C2121	C212	0.213490	0.286590	0.249850
C2131	C213	0.062250	0.561810	0.750980
C2141	C214	0.100950	0.600520	0.750770
C2151	C215	0.174560	0.674450	0.750350
C2161	C216	0.213490	0.713410	0.750150
C2171	C217	0.937750	0.438150	0.750980
C2181	C218	0.899050	0.399430	0.750770
C2191	C219	0.825430	0.325510	0.750360
C2201	C220	0.786500	0.286560	0.750180
C2211	C221	0.250910	0.938080	0.562110
C2221	C222	0.250700	0.899310	0.600730
C2231	C223	0.250300	0.825370	0.674290
C2241	C224	0.250150	0.786520	0.713290
C2251	C225	0.250910	0.061920	0.437890
C2261	C226	0.250700	0.100690	0.399270
C2271	C227	0.250300	0.174630	0.325710
C2281	C228	0.250150	0.213480	0.286710
C2291	C229	0.749050	0.061900	0.562130
C2301	C230	0.749270	0.100660	0.600760
C2311	C231	0.749680	0.174600	0.674320
C2321	C232	0.749830	0.213440	0.713330
C2331	C233	0.749050	0.938100	0.437870
C2341	C234	0.749270	0.899340	0.399240
C2351	C235	0.749680	0.825400	0.325680
C2361	C236	0.749830	0.786560	0.286670
C2371	C237	0.561780	0.249010	0.937820
C2381	C238	0.600470	0.249220	0.899140
C2391	C239	0.674340	0.249640	0.825570
C2401	C240	0.713270	0.249820	0.786670
C2411	C241	0.438220	0.249020	0.062220
C2421	C242	0.399530	0.249230	0.100900
C2431	C243	0.325640	0.249660	0.174460
C2441	C244	0.286720	0.249850	0.213360
C2451	C245	0.561780	0.750990	0.062180
C2461	C246	0.600470	0.750780	0.100860
C2471	C247	0.674340	0.750360	0.174430
C2481	C248	0.713270	0.750180	0.213330
C2491	C249	0.438220	0.750980	0.937780
C2501	C250	0.399530	0.750770	0.899100
C2511	C251	0.325640	0.750340	0.825540
C2521	C252	0.286720	0.750150	0.786640
C2531	C253	0.249870	0.286010	0.785740
C2541	C254	0.750140	0.713960	0.785710
C2551	C255	0.750140	0.286040	0.214290
C2561	C256	0.249870	0.713990	0.214260
C2571	C257	0.786000	0.249970	0.285930
C2581	C258	0.786000	0.750030	0.714070
C2591	C259	0.214020	0.750070	0.285890
C2601	C260	0.214020	0.249930	0.714110
C2611	C261	0.285760	0.785850	0.249920
C2621	C262	0.714250	0.785820	0.750030
C2631	C263	0.285760	0.214150	0.750080
C2641	C264	0.714250	0.214180	0.249970
C2651	C265	0.749860	0.714290	0.213970
C2661	C266	0.250130	0.285740	0.213990
C2671	C267	0.250130	0.714260	0.786010
C2681	C268	0.749860	0.285710	0.786030
C2691	C269	0.214240	0.749920	0.714150
C2701	C270	0.214240	0.250080	0.285850
C2711	C271	0.785750	0.250040	0.714170
C2721	C272	0.785750	0.749960	0.285830
C2731	C273	0.714000	0.214080	0.749960
C2741	C274	0.285980	0.214110	0.250070
C2751	C275	0.714000	0.785920	0.250040
C2761	C276	0.285980	0.785890	0.749930
N11	N1	0.000000	0.499980	0.626620
N21	N2	0.000000	0.500020	0.373380
N31	N3	0.626610	0.000000	0.500000
N41	N4	0.373370	0.000000	0.500000
N51	N5	0.500000	0.626620	0.999980
N61	N6	0.500000	0.373380	0.000020
N71	N7	0.000000	0.499980	0.873380
N81	N8	0.000000	0.500020	0.126620
N91	N9	0.500000	0.126620	0.000020
N101	N10	0.500000	0.873380	0.999980
N111	N11	0.126630	0.000000	0.500000
N121	N12	0.873390	0.000000	0.500000
O11	O1	0.045570	0.454090	0.709130
O21	O2	0.954430	0.545860	0.709130
O31	O3	0.954430	0.454140	0.290870
O41	O4	0.045570	0.545910	0.290870
O51	O5	0.711190	0.045710	0.454570
O61	O6	0.711190	0.954290	0.545430
O71	O7	0.288840	0.954300	0.454560
O81	O8	0.288840	0.045700	0.545440
O91	O9	0.454080	0.709130	0.045590
O101	O10	0.545930	0.709130	0.954370
O111	O11	0.454080	0.290870	0.954410
O121	O12	0.545930	0.290870	0.045630
O131	O13	0.954660	0.545740	0.788770
O141	O14	0.045340	0.454210	0.788780
O151	O15	0.954660	0.454260	0.211230
O161	O16	0.045340	0.545790	0.211220
O171	O17	0.545800	0.211220	0.045400
O181	O18	0.454200	0.211220	0.954650
O191	O19	0.454200	0.788780	0.045350
O201	O20	0.545800	0.788780	0.954600
O211	O21	0.209200	0.954180	0.454320
O221	O22	0.209200	0.045820	0.545680
O231	O23	0.790840	0.954160	0.545660
O241	O24	0.790840	0.045840	0.454340
O251	O25	0.954200	0.545400	0.288780
O261	O26	0.045800	0.454650	0.288780
O271	O27	0.045800	0.545350	0.711220
O281	O28	0.954200	0.454600	0.711220
O291	O29	0.290800	0.954320	0.545820
O301	O30	0.290800	0.045680	0.454180
O311	O31	0.709160	0.045660	0.545830
O321	O32	0.709160	0.954340	0.454170
O331	O33	0.545340	0.288770	0.954260
O341	O34	0.454670	0.288780	0.045780
O351	O35	0.545340	0.711230	0.045740
O361	O36	0.454670	0.711220	0.954220
O371	O37	0.045920	0.454410	0.209130
O381	O38	0.954070	0.545630	0.209130
O391	O39	0.045920	0.545590	0.790870
O401	O40	0.954070	0.454370	0.790870
O411	O41	0.454430	0.790870	0.954090
O421	O42	0.545570	0.790870	0.045860
O431	O43	0.545570	0.209130	0.954140
O441	O44	0.454430	0.209130	0.045910
O451	O45	0.788800	0.045430	0.545710
O461	O46	0.788800	0.954570	0.454290
O471	O47	0.211160	0.045440	0.454300
O481	O48	0.211160	0.954560	0.545700
