data_CAVTAW_freeONLY_PM
_symmetry_space_group_name_H-M	'P1'
_cell_length_a	12.503500
_cell_length_b	18.187400
_cell_length_c	5.820000
_cell_angle_alpha	90.000000
_cell_angle_beta	101.923000
_cell_angle_gamma	90.000000
_symmetry_Int_Tables_number 1

loop_
_symmetry_equiv_pos_as_xyz
'x,y,z'

loop_
_atom_site_label
_atom_site_type_symbol
_atom_site_fract_x
_atom_site_fract_y
_atom_site_fract_z
La11	La1	0.669500	0.250000	0.376300
P11	P1	0.465200	0.088900	0.180000
P21	P2	0.747900	0.112600	0.914000
O11	O1	0.429900	0.089200	0.914000
O21	O2	0.499600	0.168200	0.259000
O31	O3	0.549300	0.030100	0.278000
O41	O4	0.873000	0.106600	0.931000
O51	O5	0.695100	0.163000	0.710000
O61	O6	0.718500	0.134100	0.151000
C11	C1	0.348400	0.073200	0.319000
C21	C2	0.690900	0.022900	0.833000
N11	N1	0.242900	0.032000	0.287000
C31	C3	0.152900	0.087800	0.274000
C41	C4	0.123700	0.099200	0.510000
C51	C5	0.016600	0.065200	0.524000
P31	P3	0.553200	0.898600	0.797000
P41	P4	0.206800	0.880400	0.073000
O71	O7	0.567400	0.865900	0.045000
O81	O8	0.483100	0.848600	0.602000
O91	O9	0.507800	0.975900	0.767000
O101	O10	0.082000	0.868000	0.041000
O111	O11	0.268000	0.846800	0.306000
O121	O12	0.248400	0.848700	0.860000
C61	C6	0.688500	0.894300	0.721000
C71	C7	0.231200	0.978300	0.087000
N21	N2	0.699700	0.971500	0.636000
C81	C8	0.790700	0.986300	0.510000
C91	C9	0.903000	0.962700	0.643000
C101	C10	0.999000	0.984900	0.541000
La21	La2	0.330500	0.750000	0.623700
P51	P5	0.534800	0.588900	0.820000
P61	P6	0.252100	0.612600	0.086000
O131	O13	0.570100	0.589200	0.086000
O141	O14	0.500400	0.668200	0.741000
O151	O15	0.450700	0.530100	0.722000
O161	O16	0.127000	0.606600	0.069000
O171	O17	0.304900	0.663000	0.290000
O181	O18	0.281500	0.634100	0.849000
C111	C11	0.651600	0.573200	0.681000
C121	C12	0.309100	0.522900	0.167000
N31	N3	0.757100	0.532000	0.713000
C131	C13	0.847100	0.587800	0.726000
C141	C14	0.876300	0.599200	0.490000
C151	C15	0.983400	0.565200	0.476000
P71	P7	0.446800	0.398600	0.203000
P81	P8	0.793200	0.380400	0.927000
O191	O19	0.432600	0.365900	0.955000
O201	O20	0.516900	0.348600	0.398000
O211	O21	0.492200	0.475900	0.233000
O221	O22	0.918000	0.368000	0.959000
O231	O23	0.732000	0.346800	0.694000
O241	O24	0.751600	0.348700	0.140000
C161	C16	0.311500	0.394300	0.279000
C171	C17	0.768800	0.478300	0.913000
N41	N4	0.300300	0.471500	0.364000
C181	C18	0.209300	0.486300	0.490000
C191	C19	0.097000	0.462700	0.357000
C201	C20	0.001000	0.484900	0.459000
