data_CAVVUS_freeONLY_PM
_symmetry_space_group_name_H-M	'P1'
_cell_length_a	10.766600
_cell_length_b	16.462000
_cell_length_c	17.912000
_cell_angle_alpha	90.000000
_cell_angle_beta	91.098000
_cell_angle_gamma	90.000000
_symmetry_Int_Tables_number 1

loop_
_symmetry_equiv_pos_as_xyz
'x,y,z'

loop_
_atom_site_label
_atom_site_type_symbol
_atom_site_fract_x
_atom_site_fract_y
_atom_site_fract_z
Zn11	Zn1	0.078510	0.556720	0.911130
Zn21	Zn2	0.615720	0.543340	0.916160
P11	P1	0.854490	0.431350	0.914500
P21	P2	0.155330	0.953750	0.590530
O11	O1	0.714300	0.445640	0.915280
O21	O2	0.922500	0.505800	0.888100
O31	O3	0.903100	0.398300	0.988810
O41	O4	0.859500	0.139100	0.646210
O51	O5	0.914300	0.068600	0.745300
O61	O6	0.953900	0.710200	0.869200
O71	O7	0.118900	0.641000	0.836770
O81	O8	0.063500	0.023640	0.596990
O91	O9	0.288000	0.979700	0.603000
O101	O10	0.135600	0.907490	0.516580
C11	C1	0.873900	0.348300	0.849800
C21	C2	0.965300	0.289400	0.863100
H11	H1	0.023200	0.296900	0.901600
C31	C3	0.970400	0.220400	0.819600
H21	H2	0.029100	0.180500	0.830400
C41	C4	0.887700	0.210600	0.759600
C51	C5	0.800500	0.270400	0.743900
H31	H3	0.747200	0.265500	0.702700
C61	C6	0.793400	0.338100	0.790500
H41	H4	0.732500	0.377100	0.781200
C71	C7	0.888900	0.133000	0.715600
C81	C8	0.124400	0.880000	0.662800
C91	C9	0.043100	0.896700	0.719800
H51	H5	0.003900	0.947000	0.721500
C101	C10	0.019500	0.839700	0.773900
H61	H6	0.964100	0.851800	0.811500
C111	C11	0.077400	0.764400	0.773100
C121	C12	0.161500	0.748800	0.718100
H71	H7	0.204600	0.699800	0.718500
C131	C13	0.182900	0.804900	0.662000
H81	H8	0.236700	0.792100	0.623700
C141	C14	0.046100	0.701800	0.831300
Zn31	Zn3	0.421490	0.056720	0.588870
Zn41	Zn4	0.884280	0.043340	0.583840
P31	P3	0.645510	0.931350	0.585500
P41	P4	0.344670	0.453750	0.909470
O111	O11	0.785700	0.945640	0.584720
O121	O12	0.577500	0.005800	0.611900
O131	O13	0.596900	0.898300	0.511190
O141	O14	0.640500	0.639100	0.853790
O151	O15	0.585700	0.568600	0.754700
O161	O16	0.546100	0.210200	0.630800
O171	O17	0.381100	0.141000	0.663230
O181	O18	0.436500	0.523640	0.903010
O191	O19	0.212000	0.479700	0.897000
O201	O20	0.364400	0.407490	0.983420
C151	C15	0.626100	0.848300	0.650200
C161	C16	0.534700	0.789400	0.636900
H91	H9	0.476800	0.796900	0.598400
C171	C17	0.529600	0.720400	0.680400
H101	H10	0.470900	0.680500	0.669600
C181	C18	0.612300	0.710600	0.740400
C191	C19	0.699500	0.770400	0.756100
H111	H11	0.752800	0.765500	0.797300
C201	C20	0.706600	0.838100	0.709500
H121	H12	0.767500	0.877100	0.718800
C211	C21	0.611100	0.633000	0.784400
C221	C22	0.375600	0.380000	0.837200
C231	C23	0.456900	0.396700	0.780200
H131	H13	0.496100	0.447000	0.778500
C241	C24	0.480500	0.339700	0.726100
H141	H14	0.535900	0.351800	0.688500
C251	C25	0.422600	0.264400	0.726900
C261	C26	0.338500	0.248800	0.781900
H151	H15	0.295400	0.199800	0.781500
C271	C27	0.317100	0.304900	0.838000
H161	H16	0.263300	0.292100	0.876300
C281	C28	0.453900	0.201800	0.668700
Zn51	Zn5	0.921490	0.443280	0.088870
Zn61	Zn6	0.384280	0.456660	0.083840
P51	P5	0.145510	0.568650	0.085500
P61	P6	0.844670	0.046250	0.409470
O211	O21	0.285700	0.554360	0.084720
O221	O22	0.077500	0.494200	0.111900
O231	O23	0.096900	0.601700	0.011190
O241	O24	0.140500	0.860900	0.353790
O251	O25	0.085700	0.931400	0.254700
O261	O26	0.046100	0.289800	0.130800
O271	O27	0.881100	0.359000	0.163230
O281	O28	0.936500	0.976360	0.403010
O291	O29	0.712000	0.020300	0.397000
O301	O30	0.864400	0.092510	0.483420
C291	C29	0.126100	0.651700	0.150200
C301	C30	0.034700	0.710600	0.136900
H171	H17	0.976800	0.703100	0.098400
C311	C31	0.029600	0.779600	0.180400
H181	H18	0.970900	0.819500	0.169600
C321	C32	0.112300	0.789400	0.240400
C331	C33	0.199500	0.729600	0.256100
H191	H19	0.252800	0.734500	0.297300
C341	C34	0.206600	0.661900	0.209500
H201	H20	0.267500	0.622900	0.218800
C351	C35	0.111100	0.867000	0.284400
C361	C36	0.875600	0.120000	0.337200
C371	C37	0.956900	0.103300	0.280200
H211	H21	0.996100	0.053000	0.278500
C381	C38	0.980500	0.160300	0.226100
H221	H22	0.035900	0.148200	0.188500
C391	C39	0.922600	0.235600	0.226900
C401	C40	0.838500	0.251200	0.281900
H231	H23	0.795400	0.300200	0.281500
C411	C41	0.817100	0.195100	0.338000
H241	H24	0.763300	0.207900	0.376300
C421	C42	0.953900	0.298200	0.168700
Zn71	Zn7	0.578510	0.943280	0.411130
Zn81	Zn8	0.115720	0.956660	0.416160
P71	P7	0.354490	0.068650	0.414500
P81	P8	0.655330	0.546250	0.090530
O311	O31	0.214300	0.054360	0.415280
O321	O32	0.422500	0.994200	0.388100
O331	O33	0.403100	0.101700	0.488810
O341	O34	0.359500	0.360900	0.146210
O351	O35	0.414300	0.431400	0.245300
O361	O36	0.453900	0.789800	0.369200
O371	O37	0.618900	0.859000	0.336770
O381	O38	0.563500	0.476360	0.096990
O391	O39	0.788000	0.520300	0.103000
O401	O40	0.635600	0.592510	0.016580
C431	C43	0.373900	0.151700	0.349800
C441	C44	0.465300	0.210600	0.363100
H251	H25	0.523200	0.203100	0.401600
C451	C45	0.470400	0.279600	0.319600
H261	H26	0.529100	0.319500	0.330400
C461	C46	0.387700	0.289400	0.259600
C471	C47	0.300500	0.229600	0.243900
H271	H27	0.247200	0.234500	0.202700
C481	C48	0.293400	0.161900	0.290500
H281	H28	0.232500	0.122900	0.281200
C491	C49	0.388900	0.367000	0.215600
C501	C50	0.624400	0.620000	0.162800
C511	C51	0.543100	0.603300	0.219800
H291	H29	0.503900	0.553000	0.221500
C521	C52	0.519500	0.660300	0.273900
H301	H30	0.464100	0.648200	0.311500
C531	C53	0.577400	0.735600	0.273100
C541	C54	0.661500	0.751200	0.218100
H311	H31	0.704600	0.800200	0.218500
C551	C55	0.682900	0.695100	0.162000
H321	H32	0.736700	0.707900	0.123700
C561	C56	0.546100	0.798200	0.331300
