data_CAWGAJ_freeONLY_PM
_symmetry_space_group_name_H-M	'P1'
_cell_length_a	9.463000
_cell_length_b	16.753400
_cell_length_c	22.383600
_cell_angle_alpha	90.000000
_cell_angle_beta	90.000000
_cell_angle_gamma	91.899000
_symmetry_Int_Tables_number 1

loop_
_symmetry_equiv_pos_as_xyz
'x,y,z'

loop_
_atom_site_label
_atom_site_type_symbol
_atom_site_fract_x
_atom_site_fract_y
_atom_site_fract_z
U11	U1	0.542980	0.135580	0.251890
U21	U2	0.905730	0.264930	0.253920
U31	U3	0.457020	0.364420	0.751890
U41	U4	0.094270	0.235070	0.753920
U51	U5	0.457020	0.864420	0.748110
U61	U6	0.094270	0.735070	0.746080
U71	U7	0.542980	0.635580	0.248110
U81	U8	0.905730	0.764930	0.246080
Zn11	Zn1	0.841130	0.005460	0.254050
Zn21	Zn2	0.226040	0.949580	0.246310
Zn31	Zn3	0.158870	0.494540	0.754050
Zn41	Zn4	0.773960	0.550420	0.746310
Zn51	Zn5	0.158870	0.994540	0.745950
Zn61	Zn6	0.773960	0.050420	0.753690
Zn71	Zn7	0.841130	0.505460	0.245950
Zn81	Zn8	0.226040	0.449580	0.253690
H11	H1	0.099500	0.125100	0.255500
H21	H2	0.180100	0.193700	0.259500
H31	H3	0.484600	0.912200	0.251100
H41	H4	0.425000	0.841600	0.241300
H51	H5	0.974500	0.090300	0.150300
H61	H6	0.952900	0.104800	0.049000
H71	H7	0.664400	0.930900	0.153400
H81	H8	0.630900	0.942800	0.052900
H91	H9	0.860200	0.144200	0.964300
H101	H10	0.854400	0.150300	0.862600
H111	H11	0.690200	0.922900	0.954700
H121	H12	0.695100	0.933600	0.853200
H131	H13	0.952000	0.110600	0.354300
H141	H14	0.927200	0.130200	0.454900
H151	H15	0.696600	0.923600	0.358900
H161	H16	0.666500	0.936600	0.459700
H171	H17	0.975100	0.097600	0.548700
H181	H18	0.960300	0.104100	0.650700
H191	H19	0.584900	0.996800	0.547100
H201	H20	0.579700	0.008400	0.648600
H211	H21	0.900500	0.374900	0.755500
H221	H22	0.819900	0.306300	0.759500
H231	H23	0.515400	0.587800	0.751100
H241	H24	0.575000	0.658400	0.741300
H251	H25	0.025500	0.409700	0.650300
H261	H26	0.047100	0.395200	0.549000
H271	H27	0.335600	0.569100	0.653400
H281	H28	0.369100	0.557200	0.552900
H291	H29	0.139800	0.355800	0.464300
H301	H30	0.145600	0.349700	0.362600
H311	H31	0.309800	0.577100	0.454700
H321	H32	0.304900	0.566400	0.353200
H331	H33	0.048000	0.389400	0.854300
H341	H34	0.072800	0.369800	0.954900
H351	H35	0.303400	0.576400	0.858900
H361	H36	0.333500	0.563400	0.959700
H371	H37	0.024900	0.402400	0.048700
H381	H38	0.039700	0.395900	0.150700
H391	H39	0.415100	0.503200	0.047100
H401	H40	0.420300	0.491600	0.148600
H411	H41	0.900500	0.874900	0.744500
H421	H42	0.819900	0.806300	0.740500
H431	H43	0.515400	0.087800	0.748900
H441	H44	0.575000	0.158400	0.758700
H451	H45	0.025500	0.909700	0.849700
H461	H46	0.047100	0.895200	0.951000
H471	H47	0.335600	0.069100	0.846600
H481	H48	0.369100	0.057200	0.947100
H491	H49	0.139800	0.855800	0.035700
H501	H50	0.145600	0.849700	0.137400
H511	H51	0.309800	0.077100	0.045300
H521	H52	0.304900	0.066400	0.146800
H531	H53	0.048000	0.889400	0.645700
H541	H54	0.072800	0.869800	0.545100
H551	H55	0.303400	0.076400	0.641100
H561	H56	0.333500	0.063400	0.540300
H571	H57	0.024900	0.902400	0.451300
H581	H58	0.039700	0.895900	0.349300
H591	H59	0.415100	0.003200	0.452900
H601	H60	0.420300	0.991600	0.351400
H611	H61	0.099500	0.625100	0.244500
H621	H62	0.180100	0.693700	0.240500
H631	H63	0.484600	0.412200	0.248900
H641	H64	0.425000	0.341600	0.258700
H651	H65	0.974500	0.590300	0.349700
H661	H66	0.952900	0.604800	0.451000
H671	H67	0.664400	0.430900	0.346600
H681	H68	0.630900	0.442800	0.447100
H691	H69	0.860200	0.644200	0.535700
H701	H70	0.854400	0.650300	0.637400
H711	H71	0.690200	0.422900	0.545300
H721	H72	0.695100	0.433600	0.646800
H731	H73	0.952000	0.610600	0.145700
H741	H74	0.927200	0.630200	0.045100
H751	H75	0.696600	0.423600	0.141100
H761	H76	0.666500	0.436600	0.040300
H771	H77	0.975100	0.597600	0.951300
H781	H78	0.960300	0.604100	0.849300
H791	H79	0.584900	0.496800	0.952900
H801	H80	0.579700	0.508400	0.851400
C11	C1	0.905400	0.060050	0.130200
C21	C2	0.893000	0.069060	0.069370
C31	C3	0.722500	0.966500	0.131980
C41	C4	0.702500	0.972780	0.071650
C51	C5	0.790100	0.024350	0.038430
C61	C6	0.779000	0.032010	0.972390
C71	C7	0.826100	0.100280	0.942640
C81	C8	0.822900	0.103540	0.881430
C91	C9	0.726600	0.969450	0.936980
C101	C10	0.728600	0.976640	0.875990
C111	C11	0.893600	0.075320	0.375870
C121	C12	0.879700	0.087450	0.436380
C131	C13	0.744000	0.965390	0.378630
C141	C14	0.725000	0.972940	0.439210
C151	C15	0.793600	0.035060	0.469680
C161	C16	0.782400	0.044560	0.535430
C171	C17	0.894200	0.077980	0.568090
C181	C18	0.884200	0.081890	0.629420
C191	C19	0.663000	0.018650	0.567190
C201	C20	0.660900	0.025410	0.628180
C211	C21	0.094600	0.439950	0.630200
C221	C22	0.107000	0.430940	0.569370
C231	C23	0.277500	0.533500	0.631980
C241	C24	0.297500	0.527220	0.571650
C251	C25	0.209900	0.475650	0.538430
C261	C26	0.221000	0.467990	0.472390
C271	C27	0.173900	0.399720	0.442640
C281	C28	0.177100	0.396460	0.381430
C291	C29	0.273400	0.530550	0.436980
C301	C30	0.271400	0.523360	0.375990
C311	C31	0.106400	0.424680	0.875870
C321	C32	0.120300	0.412550	0.936380
C331	C33	0.256000	0.534610	0.878630
C341	C34	0.275000	0.527060	0.939210
C351	C35	0.206400	0.464940	0.969680
C361	C36	0.217600	0.455440	0.035430
C371	C37	0.105800	0.422020	0.068090
C381	C38	0.115800	0.418110	0.129420
C391	C39	0.337000	0.481350	0.067190
C401	C40	0.339100	0.474590	0.128180
C411	C41	0.094600	0.939950	0.869800
C421	C42	0.107000	0.930940	0.930630
C431	C43	0.277500	0.033500	0.868020
C441	C44	0.297500	0.027220	0.928350
C451	C45	0.209900	0.975650	0.961570
C461	C46	0.221000	0.967990	0.027610
C471	C47	0.173900	0.899720	0.057360
C481	C48	0.177100	0.896460	0.118570
C491	C49	0.273400	0.030550	0.063020
C501	C50	0.271400	0.023360	0.124010
C511	C51	0.106400	0.924680	0.624130
C521	C52	0.120300	0.912550	0.563620
C531	C53	0.256000	0.034610	0.621370
C541	C54	0.275000	0.027060	0.560790
C551	C55	0.206400	0.964940	0.530320
C561	C56	0.217600	0.955440	0.464570
C571	C57	0.105800	0.922020	0.431910
C581	C58	0.115800	0.918110	0.370580
C591	C59	0.337000	0.981350	0.432810
C601	C60	0.339100	0.974590	0.371820
C611	C61	0.905400	0.560050	0.369800
C621	C62	0.893000	0.569060	0.430630
C631	C63	0.722500	0.466500	0.368020
C641	C64	0.702500	0.472780	0.428350
C651	C65	0.790100	0.524350	0.461570
C661	C66	0.779000	0.532010	0.527610
C671	C67	0.826100	0.600280	0.557360
C681	C68	0.822900	0.603540	0.618570
C691	C69	0.726600	0.469450	0.563020
C701	C70	0.728600	0.476640	0.624010
C711	C71	0.893600	0.575320	0.124130
C721	C72	0.879700	0.587450	0.063620
C731	C73	0.744000	0.465390	0.121370
C741	C74	0.725000	0.472940	0.060790
C751	C75	0.793600	0.535060	0.030320
C761	C76	0.782400	0.544560	0.964570
C771	C77	0.894200	0.577980	0.931910
C781	C78	0.884200	0.581890	0.870580
C791	C79	0.663000	0.518650	0.932810
C801	C80	0.660900	0.525410	0.871820
N11	N1	0.822000	0.009430	0.161720
N21	N2	0.776300	0.042360	0.847630
N31	N3	0.827500	0.015420	0.346540
N41	N4	0.770800	0.055420	0.659880
N51	N5	0.178000	0.490570	0.661720
N61	N6	0.223700	0.457640	0.347630
N71	N7	0.172500	0.484580	0.846540
N81	N8	0.229200	0.444580	0.159880
N91	N9	0.178000	0.990570	0.838280
N101	N10	0.223700	0.957640	0.152370
N111	N11	0.172500	0.984580	0.653460
N121	N12	0.229200	0.944580	0.340120
N131	N13	0.822000	0.509430	0.338280
N141	N14	0.776300	0.542360	0.652370
N151	N15	0.827500	0.515420	0.153460
N161	N16	0.770800	0.555420	0.840120
O11	O1	0.549800	0.132910	0.172750
O21	O2	0.543100	0.137930	0.331070
O31	O3	0.917600	0.256520	0.175000
O41	O4	0.895100	0.270640	0.332770
O51	O5	0.104180	0.175580	0.263100
O61	O6	0.413200	0.885770	0.240690
O71	O7	0.450200	0.367090	0.672750
O81	O8	0.456900	0.362070	0.831070
O91	O9	0.082400	0.243480	0.675000
O101	O10	0.104900	0.229360	0.832770
O111	O11	0.895820	0.324420	0.763100
O121	O12	0.586800	0.614230	0.740690
O131	O13	0.450200	0.867090	0.827250
O141	O14	0.456900	0.862070	0.668930
O151	O15	0.082400	0.743480	0.825000
O161	O16	0.104900	0.729360	0.667230
O171	O17	0.895820	0.824420	0.736900
O181	O18	0.586800	0.114230	0.759310
O191	O19	0.549800	0.632910	0.327250
O201	O20	0.543100	0.637930	0.168930
O211	O21	0.917600	0.756520	0.325000
O221	O22	0.895100	0.770640	0.167230
O231	O23	0.104180	0.675580	0.236900
O241	O24	0.413200	0.385770	0.259310
F11	F1	0.660160	0.258260	0.249430
F21	F2	0.345230	0.056600	0.251250
F31	F3	0.618070	0.007110	0.256160
F41	F4	0.806020	0.133170	0.254520
F51	F5	0.370490	0.224180	0.247650
F61	F6	0.104870	0.343050	0.255610
F71	F7	0.828020	0.387750	0.241660
F81	F8	0.051360	0.021580	0.252340
F91	F9	0.339840	0.241740	0.749430
F101	F10	0.654770	0.443400	0.751250
F111	F11	0.381930	0.492890	0.756160
F121	F12	0.193980	0.366830	0.754520
F131	F13	0.629510	0.275820	0.747650
F141	F14	0.895130	0.156950	0.755610
F151	F15	0.171980	0.112250	0.741660
F161	F16	0.948640	0.478420	0.752340
F171	F17	0.339840	0.741740	0.750570
F181	F18	0.654770	0.943400	0.748750
F191	F19	0.381930	0.992890	0.743840
F201	F20	0.193980	0.866830	0.745480
F211	F21	0.629510	0.775820	0.752350
F221	F22	0.895130	0.656950	0.744390
F231	F23	0.171980	0.612250	0.758340
F241	F24	0.948640	0.978420	0.747660
F251	F25	0.660160	0.758260	0.250570
F261	F26	0.345230	0.556600	0.248750
F271	F27	0.618070	0.507110	0.243840
F281	F28	0.806020	0.633170	0.245480
F291	F29	0.370490	0.724180	0.252350
F301	F30	0.104870	0.843050	0.244390
F311	F31	0.828020	0.887750	0.258340
F321	F32	0.051360	0.521580	0.247660
