data_CAXVOO_freeONLY_PM
_symmetry_space_group_name_H-M	'P1'
_cell_length_a	6.910730
_cell_length_b	15.245100
_cell_length_c	15.245100
_cell_angle_alpha	62.241100
_cell_angle_beta	81.309200
_cell_angle_gamma	98.690800
_symmetry_Int_Tables_number 1

loop_
_symmetry_equiv_pos_as_xyz
'x,y,z'

loop_
_atom_site_label
_atom_site_type_symbol
_atom_site_fract_x
_atom_site_fract_y
_atom_site_fract_z
Fe11	Fe1	0.889200	0.679200	0.587700
Fe21	Fe2	0.476900	0.587700	0.733100
Fe31	Fe3	0.210000	0.733100	0.679200
Fe41	Fe4	0.110800	0.320800	0.412300
Fe51	Fe5	0.523100	0.412300	0.266900
Fe61	Fe6	0.790000	0.266900	0.320800
H11	H1	0.648200	0.030700	0.538100
H21	H2	0.186300	0.538100	0.431200
H31	H3	0.617500	0.431200	0.030700
H41	H4	0.351800	0.969300	0.461900
H51	H5	0.813700	0.461900	0.568800
H61	H6	0.382500	0.568800	0.969300
C11	C1	0.623600	0.825100	0.619300
C21	C2	0.841300	0.912100	0.551200
C31	C3	0.035500	0.900900	0.536400
C41	C4	0.798900	0.005900	0.526200
C51	C5	0.242900	0.619300	0.555600
C61	C6	0.392500	0.551200	0.536700
C71	C7	0.571900	0.536400	0.562700
C81	C8	0.325100	0.526200	0.467900
C91	C9	0.798500	0.555600	0.825100
C101	C10	0.929200	0.536700	0.912100
C111	C11	0.134600	0.562700	0.900900
C121	C12	0.793000	0.467900	0.005900
C131	C13	0.376400	0.174900	0.380700
C141	C14	0.158700	0.087900	0.448800
C151	C15	0.964500	0.099100	0.463600
C161	C16	0.201100	0.994100	0.473800
C171	C17	0.757100	0.380700	0.444400
C181	C18	0.607500	0.448800	0.463300
C191	C19	0.428100	0.463600	0.437300
C201	C20	0.674900	0.473800	0.532100
C211	C21	0.201500	0.444400	0.174900
C221	C22	0.070800	0.463300	0.087900
C231	C23	0.865400	0.437300	0.099100
C241	C24	0.207000	0.532100	0.994100
O11	O1	0.680000	0.747700	0.648700
O21	O2	0.471600	0.838900	0.630100
O31	O3	0.072200	0.812500	0.562900
O41	O4	0.328700	0.648700	0.603600
O51	O5	0.101700	0.630100	0.531000
O61	O6	0.635100	0.562900	0.624600
O71	O7	0.932300	0.603600	0.747700
O81	O8	0.632700	0.531000	0.838900
O91	O9	0.259700	0.624600	0.812500
O101	O10	0.320000	0.252300	0.351300
O111	O11	0.528400	0.161100	0.369900
O121	O12	0.927800	0.187500	0.437100
O131	O13	0.671300	0.351300	0.396400
O141	O14	0.898300	0.369900	0.469000
O151	O15	0.364900	0.437100	0.375400
O161	O16	0.067700	0.396400	0.252300
O171	O17	0.367300	0.469000	0.161100
O181	O18	0.740300	0.375400	0.187500
