data_CAXWIJ_freeONLY_PM
_symmetry_space_group_name_H-M	'P1'
_cell_length_a	6.853840
_cell_length_b	15.157600
_cell_length_c	15.157600
_cell_angle_alpha	62.230000
_cell_angle_beta	81.331100
_cell_angle_gamma	98.668900
_symmetry_Int_Tables_number 1

loop_
_symmetry_equiv_pos_as_xyz
'x,y,z'

loop_
_atom_site_label
_atom_site_type_symbol
_atom_site_fract_x
_atom_site_fract_y
_atom_site_fract_z
Fe11	Fe1	0.888100	0.684000	0.588000
Fe21	Fe2	0.476100	0.588000	0.728000
Fe31	Fe3	0.204100	0.728000	0.684000
Fe41	Fe4	0.111900	0.316000	0.412000
Fe51	Fe5	0.523900	0.412000	0.272000
Fe61	Fe6	0.795900	0.272000	0.316000
H11	H1	0.640900	0.019800	0.541900
H21	H2	0.853600	0.775000	0.416200
H31	H3	0.182800	0.541900	0.438300
H41	H4	0.269800	0.416200	0.808800
H51	H5	0.621100	0.438300	0.019800
H61	H6	0.078600	0.808800	0.775000
H71	H7	0.359100	0.980200	0.458100
H81	H8	0.146400	0.225000	0.583800
H91	H9	0.817200	0.458100	0.561700
H101	H10	0.730200	0.583800	0.191200
H111	H11	0.378900	0.561700	0.980200
H121	H12	0.921400	0.191200	0.225000
C11	C1	0.671900	0.827900	0.611900
C21	C2	0.837200	0.920500	0.545200
C31	C3	0.028100	0.894100	0.534400
C41	C4	0.802800	0.014300	0.522000
C51	C5	0.283800	0.611900	0.560200
C61	C6	0.382400	0.545200	0.534300
C71	C7	0.562500	0.534400	0.571500
C81	C8	0.324800	0.522000	0.463700
C91	C9	0.844000	0.560200	0.827900
C101	C10	0.916700	0.534300	0.920500
C111	C11	0.134000	0.571500	0.894100
C121	C12	0.788500	0.463700	0.014300
C131	C13	0.328100	0.172100	0.388100
C141	C14	0.162800	0.079500	0.454800
C151	C15	0.971900	0.105900	0.465600
C161	C16	0.197200	0.985700	0.478000
C171	C17	0.716200	0.388100	0.439800
C181	C18	0.617600	0.454800	0.465700
C191	C19	0.437500	0.465600	0.428500
C201	C20	0.675200	0.478000	0.536300
C211	C21	0.156000	0.439800	0.172100
C221	C22	0.083300	0.465700	0.079500
C231	C23	0.866000	0.428500	0.105900
C241	C24	0.211500	0.536300	0.985700
O11	O1	0.680800	0.733600	0.645700
O21	O2	0.475300	0.851500	0.619600
O31	O3	0.069000	0.807200	0.569600
O41	O4	0.793000	0.686000	0.455000
O51	O5	0.019000	0.749000	0.398000
O61	O6	0.326500	0.645700	0.620700
O71	O7	0.094900	0.619600	0.528900
O81	O8	0.638600	0.569600	0.623200
O91	O9	0.248000	0.455000	0.859000
O101	O10	0.417000	0.398000	0.853000
O111	O11	0.947200	0.620700	0.733600
O121	O12	0.623800	0.528900	0.851500
O131	O13	0.261800	0.623200	0.807200
O141	O14	0.107000	0.859000	0.686000
O151	O15	0.270000	0.853000	0.749000
O161	O16	0.319200	0.266400	0.354300
O171	O17	0.524700	0.148500	0.380400
O181	O18	0.931000	0.192800	0.430400
O191	O19	0.207000	0.314000	0.545000
O201	O20	0.981000	0.251000	0.602000
O211	O21	0.673500	0.354300	0.379300
O221	O22	0.905100	0.380400	0.471100
O231	O23	0.361400	0.430400	0.376800
O241	O24	0.752000	0.545000	0.141000
O251	O25	0.583000	0.602000	0.147000
O261	O26	0.052800	0.379300	0.266400
O271	O27	0.376200	0.471100	0.148500
O281	O28	0.738200	0.376800	0.192800
O291	O29	0.893000	0.141000	0.314000
O301	O30	0.730000	0.147000	0.251000
