data_CAYCAI_freeONLY_PM
_symmetry_space_group_name_H-M	'P1'
_cell_length_a	16.067100
_cell_length_b	16.312800
_cell_length_c	20.862600
_cell_angle_alpha	72.919000
_cell_angle_beta	72.729000
_cell_angle_gamma	80.883000
_symmetry_Int_Tables_number 1

loop_
_symmetry_equiv_pos_as_xyz
'x,y,z'

loop_
_atom_site_label
_atom_site_type_symbol
_atom_site_fract_x
_atom_site_fract_y
_atom_site_fract_z
Rb11	Rb1	0.041990	0.054090	0.839680
Rb21	Rb2	0.083460	0.342230	0.477410
Rb31	Rb3	0.004050	0.574920	0.858040
Rb41	Rb4	0.665480	0.922740	0.941390
Rb51	Rb5	0.426120	0.996610	0.387270
Rb61	Rb6	0.958010	0.945910	0.160320
Rb71	Rb7	0.916540	0.657770	0.522590
Rb81	Rb8	0.995950	0.425080	0.141960
Rb91	Rb9	0.334520	0.077260	0.058610
Rb101	Rb10	0.573880	0.003390	0.612730
Na11	Na1	0.248300	0.252000	0.750180
Na21	Na2	0.751700	0.748000	0.249820
Mo11	Mo1	0.212980	0.471760	0.745590
Mo21	Mo2	0.302870	0.577820	0.559220
Mo31	Mo3	0.167200	0.560610	0.479990
Mo41	Mo4	0.527210	0.781260	0.328600
Mo51	Mo5	0.431470	0.696410	0.222600
Mo61	Mo6	0.448640	0.836620	0.077220
Mo71	Mo7	0.120000	0.200780	0.653910
Mo81	Mo8	0.167880	0.964810	0.685520
Mo91	Mo9	0.361970	0.932580	0.596000
Mo101	Mo10	0.811840	0.881510	0.070960
Mo111	Mo11	0.947920	0.168590	0.984170
Mo121	Mo12	0.918290	0.360650	0.999380
Mo131	Mo13	0.787020	0.528240	0.254410
Mo141	Mo14	0.697130	0.422180	0.440780
Mo151	Mo15	0.832800	0.439390	0.520010
Mo161	Mo16	0.472790	0.218740	0.671400
Mo171	Mo17	0.568530	0.303590	0.777400
Mo181	Mo18	0.551360	0.163380	0.922780
Mo191	Mo19	0.880000	0.799220	0.346090
Mo201	Mo20	0.832120	0.035190	0.314480
Mo211	Mo21	0.638030	0.067420	0.404000
Mo221	Mo22	0.188160	0.118490	0.929040
Mo231	Mo23	0.052080	0.831410	0.015830
Mo241	Mo24	0.081710	0.639350	0.000620
P11	P1	0.168330	0.403010	0.620500
P21	P2	0.076810	0.571120	0.641800
P31	P3	0.569040	0.081080	0.792590
P41	P4	0.604770	0.833020	0.150770
P51	P5	0.258040	0.113130	0.528040
P61	P6	0.330070	0.112240	0.644630
P71	P7	0.101920	0.327630	0.882990
P81	P8	0.900560	0.745760	0.967230
P91	P9	0.831670	0.596990	0.379500
P101	P10	0.923190	0.428880	0.358200
P111	P11	0.430960	0.918920	0.207410
P121	P12	0.395230	0.166980	0.849230
P131	P13	0.741960	0.886870	0.471960
P141	P14	0.669930	0.887760	0.355370
P151	P15	0.898080	0.672370	0.117010
P161	P16	0.099440	0.254240	0.032770
H11	H1	0.933800	0.471900	0.645100
H21	H2	0.981500	0.381600	0.640600
H31	H3	0.953100	0.451800	0.755900
H41	H4	0.010500	0.365400	0.751000
H51	H5	0.892400	0.297800	0.759100
H61	H6	0.833900	0.384600	0.750000
H71	H7	0.890400	0.300100	0.859300
H81	H8	0.854200	0.388500	0.850800
H91	H9	0.764800	0.274600	0.922700
H101	H10	0.723400	0.358400	0.879900
H111	H11	0.749500	0.276400	0.851500
H121	H12	0.625400	0.017100	0.082400
H131	H13	0.534400	0.063900	0.108800
H141	H14	0.637800	0.980000	0.199400
H151	H15	0.555600	0.045100	0.214600
H161	H16	0.726400	0.092500	0.119600
H171	H17	0.644300	0.157100	0.111400
H181	H18	0.702600	0.100300	0.218600
H191	H19	0.622400	0.154200	0.215500
H201	H20	0.784300	0.210300	0.141600
H211	H21	0.729000	0.235400	0.209700
H221	H22	0.696700	0.268500	0.141900
H231	H23	0.431500	0.186000	0.457100
H241	H24	0.464800	0.190700	0.519100
H251	H25	0.319200	0.290600	0.481000
H261	H26	0.350600	0.294400	0.544500
H271	H27	0.462500	0.336600	0.403400
H281	H28	0.487500	0.347200	0.467500
H291	H29	0.349100	0.434300	0.429600
H301	H30	0.392900	0.451500	0.475100
H311	H31	0.425700	0.504900	0.340700
H321	H32	0.435600	0.551600	0.393600
H331	H33	0.507800	0.481400	0.370600
H341	H34	0.177400	0.427300	0.991800
H351	H35	0.185400	0.456000	0.911700
H361	H36	0.287300	0.334600	0.896300
H371	H37	0.278800	0.305200	0.976400
H381	H38	0.407600	0.375700	0.923000
H391	H39	0.341500	0.435300	0.965600
H401	H40	0.301200	0.498700	0.856900
H411	H41	0.385000	0.459900	0.823800
H421	H42	0.433800	0.534400	0.894300
H431	H43	0.438100	0.575100	0.815500
H441	H44	0.357100	0.598500	0.872800
H451	H45	0.066200	0.528100	0.354900
H461	H46	0.018500	0.618400	0.359400
H471	H47	0.046900	0.548200	0.244100
H481	H48	0.989500	0.634600	0.249000
H491	H49	0.107600	0.702200	0.240900
H501	H50	0.166100	0.615400	0.250000
H511	H51	0.109600	0.699900	0.140700
H521	H52	0.145800	0.611500	0.149200
H531	H53	0.235200	0.725400	0.077300
H541	H54	0.276600	0.641600	0.120100
H551	H55	0.250500	0.723600	0.148500
H561	H56	0.374600	0.982900	0.917600
H571	H57	0.465600	0.936100	0.891200
H581	H58	0.362200	0.020000	0.800600
H591	H59	0.444400	0.954900	0.785400
H601	H60	0.273600	0.907500	0.880400
H611	H61	0.355700	0.842900	0.888600
H621	H62	0.297400	0.899700	0.781400
H631	H63	0.377600	0.845800	0.784500
H641	H64	0.215700	0.789700	0.858400
H651	H65	0.271000	0.764600	0.790300
H661	H66	0.303300	0.731500	0.858100
H671	H67	0.568500	0.814000	0.542900
H681	H68	0.535200	0.809300	0.480900
H691	H69	0.680800	0.709400	0.519000
H701	H70	0.649400	0.705600	0.455500
H711	H71	0.537500	0.663400	0.596600
H721	H72	0.512500	0.652800	0.532500
H731	H73	0.650900	0.565700	0.570400
H741	H74	0.607100	0.548500	0.524900
H751	H75	0.574300	0.495100	0.659300
H761	H76	0.564400	0.448400	0.606400
H771	H77	0.492200	0.518600	0.629400
H781	H78	0.822600	0.572700	0.008200
H791	H79	0.814600	0.544000	0.088300
H801	H80	0.712700	0.665400	0.103700
H811	H81	0.721200	0.694800	0.023600
H821	H82	0.592400	0.624300	0.077000
H831	H83	0.658500	0.564700	0.034400
H841	H84	0.698800	0.501300	0.143100
H851	H85	0.615000	0.540100	0.176200
H861	H86	0.566200	0.465600	0.105700
H871	H87	0.561900	0.424900	0.184500
H881	H88	0.642900	0.401500	0.127200
C11	C1	0.066600	0.472600	0.619600
C21	C2	0.981100	0.431200	0.657400
C31	C3	0.961000	0.401700	0.738000
C41	C4	0.880300	0.352900	0.770300
C51	C5	0.765000	0.309600	0.876800
C61	C6	0.531300	0.932200	0.138700
C71	C7	0.575300	0.016000	0.122400
C81	C8	0.605500	0.031400	0.178600
C91	C9	0.669200	0.112400	0.144400
C101	C10	0.726200	0.221300	0.168900
C111	C11	0.356500	0.122700	0.551500
C121	C12	0.412800	0.194900	0.503400
C131	C13	0.369900	0.283900	0.498800
C141	C14	0.439300	0.351400	0.447500
C151	C15	0.446200	0.498100	0.380900
C161	C16	0.110300	0.351700	0.962500
C171	C17	0.186200	0.406400	0.951000
C181	C18	0.277900	0.355000	0.937300
C191	C19	0.352500	0.410600	0.926600
C201	C20	0.400100	0.553600	0.860800
C211	C21	0.933400	0.527400	0.380400
C221	C22	0.018900	0.568800	0.342600
C231	C23	0.039000	0.598300	0.262000
C241	C24	0.119700	0.647100	0.229700
C251	C25	0.235000	0.690400	0.123200
C261	C26	0.468700	0.067800	0.861300
C271	C27	0.424700	0.984000	0.877600
C281	C28	0.394500	0.968600	0.821400
C291	C29	0.330800	0.887600	0.855600
C301	C30	0.273800	0.778700	0.831100
C311	C31	0.643500	0.877300	0.448500
C321	C32	0.587200	0.805100	0.496600
C331	C33	0.630100	0.716100	0.501200
C341	C34	0.560700	0.648600	0.552500
C351	C35	0.553800	0.501900	0.619100
C361	C36	0.889700	0.648300	0.037500
C371	C37	0.813800	0.593600	0.049000
C381	C38	0.722100	0.645000	0.062700
C391	C39	0.647500	0.589400	0.073400
C401	C40	0.599900	0.446400	0.139200
N11	N1	0.851800	0.339000	0.840800
N21	N2	0.676600	0.142100	0.190200
N31	N3	0.402000	0.435000	0.435900
N41	N4	0.355800	0.480500	0.860600
N51	N5	0.148200	0.661000	0.159200
N61	N6	0.323400	0.857900	0.809800
N71	N7	0.598000	0.565000	0.564100
N81	N8	0.644200	0.519500	0.139400
O11	O1	0.186700	0.382700	0.691300
O21	O2	0.621500	0.811700	0.221700
O31	O3	0.234600	0.458300	0.559500
O41	O4	0.029800	0.405200	0.981600
O51	O5	0.302700	0.018700	0.675400
O61	O6	0.551600	0.769400	0.141900
O71	O7	0.006100	0.304700	0.906700
O81	O8	0.111800	0.411100	0.823100
O91	O9	0.277600	0.528900	0.655900
O101	O10	0.413100	0.120000	0.662700
O111	O11	0.068800	0.502100	0.546000
O121	O12	0.101900	0.546000	0.710800
O131	O13	0.506700	0.932500	0.076500
O141	O14	0.688500	0.845000	0.092200
O151	O15	0.168000	0.254700	0.866200
O161	O16	0.158800	0.322200	0.602200
O171	O17	0.256900	0.178500	0.664700
O181	O18	0.187600	0.179300	0.553200
O191	O19	0.833100	0.816600	0.990400
O201	O20	0.277400	0.120300	0.452000
O211	O21	0.996900	0.763300	0.959000
O221	O22	0.064200	0.123500	0.953500
O231	O23	0.274800	0.600900	0.469800
O241	O24	0.152800	0.608800	0.579900
O251	O25	0.207900	0.091400	0.852400
O261	O26	0.237800	0.019700	0.571900
O271	O27	0.893600	0.725100	0.904000
O281	O28	0.093800	0.909400	0.944400
O291	O29	0.090500	0.220100	0.733900
O301	O30	0.604600	0.155900	0.806300
O311	O31	0.413400	0.726900	0.128700
O321	O32	0.289000	0.394800	0.769900
O331	O33	0.123000	0.079300	0.683800
O341	O34	0.993900	0.628700	0.640700
O351	O35	0.088900	0.925700	0.668300
O361	O36	0.863100	0.265400	0.001800
O371	O37	0.872000	0.441700	0.943500
O381	O38	0.395700	0.294900	0.647700
O391	O39	0.410000	0.041000	0.544700
O401	O40	0.630300	0.002300	0.802300
O411	O41	0.908400	0.155000	0.920100
O421	O42	0.887300	0.349000	0.559400
O431	O43	0.790500	0.976500	0.015900
O441	O44	0.473500	0.721900	0.289200
O451	O45	0.215300	0.545000	0.788000
O461	O46	0.130900	0.622100	0.920900
O471	O47	0.644700	0.109800	0.942800
O481	O48	0.147800	0.926700	0.773400
O491	O49	0.513800	0.815300	0.002400
O501	O50	0.557800	0.117300	0.364200
O511	O51	0.450100	0.779500	0.404100
O521	O52	0.375700	0.886000	0.530500
O531	O53	0.023500	0.222400	0.631400
O541	O54	0.484500	0.597300	0.219400
O551	O55	0.323700	0.678500	0.555500
O561	O56	0.403500	0.530400	0.533900
O571	O57	0.546700	0.107200	0.723500
O581	O58	0.194600	0.496400	0.423900
O591	O59	0.264400	0.881600	0.660600
O601	O60	0.327700	0.672500	0.269800
O611	O61	0.384900	0.124100	0.258800
O621	O62	0.734400	0.777900	0.871700
O631	O63	0.873000	0.625200	0.772700
O641	O64	0.813300	0.617300	0.308700
O651	O65	0.378500	0.188300	0.778300
O661	O66	0.765400	0.541700	0.440500
O671	O67	0.970200	0.594800	0.018400
O681	O68	0.697300	0.981300	0.324600
O691	O69	0.448400	0.230600	0.858100
O701	O70	0.993900	0.695300	0.093300
O711	O71	0.888200	0.588900	0.176900
O721	O72	0.722400	0.471100	0.344100
O731	O73	0.586900	0.880000	0.337300
O741	O74	0.931200	0.497900	0.454000
O751	O75	0.898100	0.454000	0.289200
O761	O76	0.493300	0.067500	0.923500
O771	O77	0.311500	0.155000	0.907800
O781	O78	0.832000	0.745300	0.133800
O791	O79	0.841200	0.677800	0.397800
O801	O80	0.743100	0.821500	0.335300
O811	O81	0.812400	0.820700	0.446800
O821	O82	0.166900	0.183400	0.009600
O831	O83	0.722600	0.879700	0.548000
O841	O84	0.003100	0.236700	0.041000
O851	O85	0.935800	0.876500	0.046500
O861	O86	0.725200	0.399100	0.530200
O871	O87	0.847200	0.391200	0.420100
O881	O88	0.792100	0.908600	0.147600
O891	O89	0.762200	0.980300	0.428100
O901	O90	0.106400	0.274900	0.096000
O911	O91	0.906200	0.090600	0.055600
O921	O92	0.909500	0.779900	0.266100
O931	O93	0.395400	0.844100	0.193700
O941	O94	0.586600	0.273100	0.871300
O951	O95	0.711000	0.605200	0.230100
O961	O96	0.877000	0.920700	0.316200
O971	O97	0.006100	0.371300	0.359300
O981	O98	0.911100	0.074300	0.331700
O991	O99	0.136900	0.734600	0.998200
O1001	O100	0.128000	0.558300	0.056500
O1011	O101	0.604300	0.705100	0.352300
O1021	O102	0.590000	0.959000	0.455300
O1031	O103	0.369700	0.997700	0.197700
O1041	O104	0.091600	0.845000	0.079900
O1051	O105	0.112700	0.651000	0.440600
O1061	O106	0.209500	0.023500	0.984100
O1071	O107	0.526500	0.278100	0.710800
O1081	O108	0.784700	0.455000	0.212000
O1091	O109	0.869100	0.377900	0.079100
O1101	O110	0.355300	0.890200	0.057200
O1111	O111	0.852200	0.073300	0.226600
O1121	O112	0.486200	0.184700	0.997600
O1131	O113	0.442200	0.882700	0.635800
O1141	O114	0.549900	0.220500	0.595900
O1151	O115	0.624300	0.114000	0.469500
O1161	O116	0.976500	0.777600	0.368600
O1171	O117	0.515500	0.402700	0.780600
O1181	O118	0.676300	0.321500	0.444500
O1191	O119	0.596500	0.469600	0.466100
O1201	O120	0.453300	0.892800	0.276500
O1211	O121	0.805400	0.503600	0.576100
O1221	O122	0.735600	0.118400	0.339400
O1231	O123	0.672300	0.327500	0.730200
O1241	O124	0.615100	0.875900	0.741200
O1251	O125	0.265600	0.222100	0.128300
O1261	O126	0.127000	0.374800	0.227300
