data_CEFLEF_freeONLY_PM
_symmetry_space_group_name_H-M	'P1'
_cell_length_a	15.277000
_cell_length_b	15.277000
_cell_length_c	15.776000
_cell_angle_alpha	90.000000
_cell_angle_beta	90.000000
_cell_angle_gamma	120.000000
_symmetry_Int_Tables_number 1

loop_
_symmetry_equiv_pos_as_xyz
'x,y,z'

loop_
_atom_site_label
_atom_site_type_symbol
_atom_site_fract_x
_atom_site_fract_y
_atom_site_fract_z
Dy11	Dy1	0.333330	0.666660	0.750000
Dy21	Dy2	0.666670	0.333340	0.750000
Dy31	Dy3	0.666670	0.333340	0.250000
Dy41	Dy4	0.333330	0.666660	0.250000
Mn11	Mn1	0.500000	0.000000	0.000000
Mn21	Mn2	0.500000	0.500000	0.000000
Mn31	Mn3	0.000000	0.500000	0.000000
Mn41	Mn4	0.500000	0.000000	0.500000
Mn51	Mn5	0.000000	0.500000	0.500000
Mn61	Mn6	0.500000	0.500000	0.500000
H11	H1	0.710800	0.943800	0.844400
H21	H2	0.233000	0.289200	0.844400
H31	H3	0.056200	0.767000	0.844400
H41	H4	0.289200	0.056200	0.844400
H51	H5	0.767000	0.710800	0.844400
H61	H6	0.943800	0.233000	0.844400
H71	H7	0.767000	0.056200	0.655600
H81	H8	0.943800	0.710800	0.655600
H91	H9	0.289200	0.233000	0.655600
H101	H10	0.233000	0.943800	0.655600
H111	H11	0.056200	0.289200	0.655600
H121	H12	0.710800	0.767000	0.655600
H131	H13	0.289200	0.056200	0.155600
H141	H14	0.767000	0.710800	0.155600
H151	H15	0.943800	0.233000	0.155600
H161	H16	0.710800	0.943800	0.155600
H171	H17	0.233000	0.289200	0.155600
H181	H18	0.056200	0.767000	0.155600
H191	H19	0.233000	0.943800	0.344400
H201	H20	0.056200	0.289200	0.344400
H211	H21	0.710800	0.767000	0.344400
H221	H22	0.767000	0.056200	0.344400
H231	H23	0.943800	0.710800	0.344400
H241	H24	0.289200	0.233000	0.344400
H251	H25	0.799900	0.899950	0.750000
H261	H26	0.100050	0.200100	0.750000
H271	H27	0.100050	0.899950	0.750000
H281	H28	0.200100	0.100050	0.750000
H291	H29	0.899950	0.799900	0.750000
H301	H30	0.899950	0.100050	0.750000
H311	H31	0.200100	0.100050	0.250000
H321	H32	0.899950	0.799900	0.250000
H331	H33	0.899950	0.100050	0.250000
H341	H34	0.799900	0.899950	0.250000
H351	H35	0.100050	0.200100	0.250000
H361	H36	0.100050	0.899950	0.250000
C11	C1	0.505770	0.862450	0.858970
C21	C2	0.571770	0.838650	0.802770
C31	C3	0.676700	0.891530	0.805760
C41	C4	0.356680	0.494230	0.858970
C51	C5	0.266880	0.428230	0.802770
C61	C6	0.214830	0.323300	0.805760
C71	C7	0.137550	0.643320	0.858970
C81	C8	0.161350	0.733120	0.802770
C91	C9	0.108470	0.785170	0.805760
C101	C10	0.494230	0.137550	0.858970
C111	C11	0.428230	0.161350	0.802770
C121	C12	0.323300	0.108470	0.805760
C131	C13	0.643320	0.505770	0.858970
C141	C14	0.733120	0.571770	0.802770
C151	C15	0.785170	0.676700	0.805760
C161	C16	0.862450	0.356680	0.858970
C171	C17	0.838650	0.266880	0.802770
C181	C18	0.891530	0.214830	0.805760
C191	C19	0.643320	0.137550	0.641030
C201	C20	0.733120	0.161350	0.697230
C211	C21	0.785170	0.108470	0.694240
C221	C22	0.862450	0.505770	0.641030
C231	C23	0.838650	0.571770	0.697230
C241	C24	0.891530	0.676700	0.694240
C251	C25	0.494230	0.356680	0.641030
C261	C26	0.428230	0.266880	0.697230
C271	C27	0.323300	0.214830	0.694240
C281	C28	0.356680	0.862450	0.641030
C291	C29	0.266880	0.838650	0.697230
C301	C30	0.214830	0.891530	0.694240
C311	C31	0.137550	0.494230	0.641030
C321	C32	0.161350	0.428230	0.697230
C331	C33	0.108470	0.323300	0.694240
C341	C34	0.505770	0.643320	0.641030
C351	C35	0.571770	0.733120	0.697230
C361	C36	0.676700	0.785170	0.694240
C371	C37	0.494230	0.137550	0.141030
C381	C38	0.428230	0.161350	0.197230
C391	C39	0.323300	0.108470	0.194240
C401	C40	0.643320	0.505770	0.141030
C411	C41	0.733120	0.571770	0.197230
C421	C42	0.785170	0.676700	0.194240
C431	C43	0.862450	0.356680	0.141030
C441	C44	0.838650	0.266880	0.197230
C451	C45	0.891530	0.214830	0.194240
C461	C46	0.505770	0.862450	0.141030
C471	C47	0.571770	0.838650	0.197230
C481	C48	0.676700	0.891530	0.194240
C491	C49	0.356680	0.494230	0.141030
C501	C50	0.266880	0.428230	0.197230
C511	C51	0.214830	0.323300	0.194240
C521	C52	0.137550	0.643320	0.141030
C531	C53	0.161350	0.733120	0.197230
C541	C54	0.108470	0.785170	0.194240
C551	C55	0.356680	0.862450	0.358970
C561	C56	0.266880	0.838650	0.302770
C571	C57	0.214830	0.891530	0.305760
C581	C58	0.137550	0.494230	0.358970
C591	C59	0.161350	0.428230	0.302770
C601	C60	0.108470	0.323300	0.305760
C611	C61	0.505770	0.643320	0.358970
C621	C62	0.571770	0.733120	0.302770
C631	C63	0.676700	0.785170	0.305760
C641	C64	0.643320	0.137550	0.358970
C651	C65	0.733120	0.161350	0.302770
C661	C66	0.785170	0.108470	0.305760
C671	C67	0.862450	0.505770	0.358970
C681	C68	0.838650	0.571770	0.302770
C691	C69	0.891530	0.676700	0.305760
C701	C70	0.494230	0.356680	0.358970
C711	C71	0.428230	0.266880	0.302770
C721	C72	0.323300	0.214830	0.305760
C731	C73	0.729560	0.864780	0.750000
C741	C74	0.135220	0.270440	0.750000
C751	C75	0.135220	0.864790	0.750000
C761	C76	0.270430	0.135210	0.750000
C771	C77	0.864780	0.729560	0.750000
C781	C78	0.864780	0.135220	0.750000
C791	C79	0.270430	0.135210	0.250000
C801	C80	0.864780	0.729560	0.250000
C811	C81	0.864780	0.135220	0.250000
C821	C82	0.729560	0.864780	0.250000
C831	C83	0.135220	0.270440	0.250000
C841	C84	0.135220	0.864790	0.250000
N11	N1	0.519970	0.759990	0.750000
N21	N2	0.240020	0.480040	0.750000
N31	N3	0.240020	0.759990	0.750000
N41	N4	0.480030	0.240010	0.750000
N51	N5	0.759980	0.519960	0.750000
N61	N6	0.759980	0.240010	0.750000
N71	N7	0.480030	0.240010	0.250000
N81	N8	0.759980	0.519960	0.250000
N91	N9	0.759980	0.240010	0.250000
N101	N10	0.519970	0.759990	0.250000
N111	N11	0.240020	0.480040	0.250000
N121	N12	0.240020	0.759990	0.250000
O11	O1	0.549730	0.935680	0.906250
O21	O2	0.413510	0.801390	0.854520
O31	O3	0.385950	0.450270	0.906250
O41	O4	0.387880	0.586490	0.854520
O51	O5	0.064320	0.614050	0.906250
O61	O6	0.198610	0.612120	0.854520
O71	O7	0.450270	0.064320	0.906250
O81	O8	0.586490	0.198610	0.854520
O91	O9	0.614050	0.549730	0.906250
O101	O10	0.612120	0.413510	0.854520
O111	O11	0.935680	0.385950	0.906250
O121	O12	0.801390	0.387880	0.854520
O131	O13	0.614050	0.064320	0.593750
O141	O14	0.612120	0.198610	0.645480
O151	O15	0.935680	0.549730	0.593750
O161	O16	0.801390	0.413510	0.645480
O171	O17	0.450270	0.385950	0.593750
O181	O18	0.586490	0.387880	0.645480
O191	O19	0.385950	0.935680	0.593750
O201	O20	0.387880	0.801390	0.645480
O211	O21	0.064320	0.450270	0.593750
O221	O22	0.198610	0.586490	0.645480
O231	O23	0.549730	0.614050	0.593750
O241	O24	0.413510	0.612120	0.645480
O251	O25	0.450270	0.064320	0.093750
O261	O26	0.586490	0.198610	0.145480
O271	O27	0.614050	0.549730	0.093750
O281	O28	0.612120	0.413510	0.145480
O291	O29	0.935680	0.385950	0.093750
O301	O30	0.801390	0.387880	0.145480
O311	O31	0.549730	0.935680	0.093750
O321	O32	0.413510	0.801390	0.145480
O331	O33	0.385950	0.450270	0.093750
O341	O34	0.387880	0.586490	0.145480
O351	O35	0.064320	0.614050	0.093750
O361	O36	0.198610	0.612120	0.145480
O371	O37	0.385950	0.935680	0.406250
O381	O38	0.387880	0.801390	0.354520
O391	O39	0.064320	0.450270	0.406250
O401	O40	0.198610	0.586490	0.354520
O411	O41	0.549730	0.614050	0.406250
O421	O42	0.413510	0.612120	0.354520
O431	O43	0.614050	0.064320	0.406250
O441	O44	0.612120	0.198610	0.354520
O451	O45	0.935680	0.549730	0.406250
O461	O46	0.801390	0.413510	0.354520
O471	O47	0.450270	0.385950	0.406250
O481	O48	0.586490	0.387880	0.354520
O491	O49	0.347010	0.855860	0.000000
O501	O50	0.508850	0.652990	0.000000
O511	O51	0.144140	0.491160	0.000000
O521	O52	0.652990	0.144140	0.000000
O531	O53	0.491150	0.347010	0.000000
O541	O54	0.855860	0.508850	0.000000
O551	O55	0.491150	0.144130	0.500000
O561	O56	0.855860	0.347010	0.500000
O571	O57	0.652990	0.508850	0.500000
O581	O58	0.508850	0.855870	0.500000
O591	O59	0.144140	0.652990	0.500000
O601	O60	0.347010	0.491150	0.500000
