data_CEHRIS_freeONLY_PM
_symmetry_space_group_name_H-M	'P1'
_cell_length_a	9.719600
_cell_length_b	9.719600
_cell_length_c	16.576100
_cell_angle_alpha	90.000000
_cell_angle_beta	90.000000
_cell_angle_gamma	90.000000
_symmetry_Int_Tables_number 1

loop_
_symmetry_equiv_pos_as_xyz
'x,y,z'

loop_
_atom_site_label
_atom_site_type_symbol
_atom_site_fract_x
_atom_site_fract_y
_atom_site_fract_z
C11	C1	0.163990	0.234910	0.187460
H11	H1	0.105700	0.226700	0.143200
C21	C2	0.663990	0.734910	0.687460
H21	H2	0.605700	0.726700	0.643200
C31	C3	0.836010	0.765090	0.187460
H31	H3	0.894300	0.773300	0.143200
C41	C4	0.336010	0.265090	0.687460
H41	H4	0.394300	0.273300	0.643200
C51	C5	0.765090	0.163990	0.187460
H51	H5	0.773300	0.105700	0.143200
C61	C6	0.265090	0.663990	0.687460
H61	H6	0.273300	0.605700	0.643200
C71	C7	0.234910	0.836010	0.187460
H71	H7	0.226700	0.894300	0.143200
C81	C8	0.734910	0.336010	0.687460
H81	H8	0.726700	0.394300	0.643200
C91	C9	0.836010	0.234910	0.312540
H91	H9	0.894300	0.226700	0.356800
C101	C10	0.336010	0.734910	0.812540
H101	H10	0.394300	0.726700	0.856800
C111	C11	0.163990	0.765090	0.312540
H111	H11	0.105700	0.773300	0.356800
C121	C12	0.663990	0.265090	0.812540
H121	H12	0.605700	0.273300	0.856800
C131	C13	0.234910	0.163990	0.312540
H131	H13	0.226700	0.105700	0.356800
C141	C14	0.734910	0.663990	0.812540
H141	H14	0.726700	0.605700	0.856800
C151	C15	0.765090	0.836010	0.312540
H151	H15	0.773300	0.894300	0.356800
C161	C16	0.265090	0.336010	0.812540
H161	H16	0.273300	0.394300	0.856800
C171	C17	0.836010	0.765090	0.812540
H171	H17	0.894300	0.773300	0.856800
C181	C18	0.336010	0.265090	0.312540
H181	H18	0.394300	0.273300	0.356800
C191	C19	0.163990	0.234910	0.812540
H191	H19	0.105700	0.226700	0.856800
C201	C20	0.663990	0.734910	0.312540
H201	H20	0.605700	0.726700	0.356800
C211	C21	0.234910	0.836010	0.812540
H211	H21	0.226700	0.894300	0.856800
C221	C22	0.734910	0.336010	0.312540
H221	H22	0.726700	0.394300	0.356800
C231	C23	0.765090	0.163990	0.812540
H231	H23	0.773300	0.105700	0.856800
C241	C24	0.265090	0.663990	0.312540
H241	H24	0.273300	0.605700	0.356800
C251	C25	0.163990	0.765090	0.687460
H251	H25	0.105700	0.773300	0.643200
C261	C26	0.663990	0.265090	0.187460
H261	H26	0.605700	0.273300	0.143200
C271	C27	0.836010	0.234910	0.687460
H271	H27	0.894300	0.226700	0.643200
C281	C28	0.336010	0.734910	0.187460
H281	H28	0.394300	0.726700	0.143200
C291	C29	0.765090	0.836010	0.687460
H291	H29	0.773300	0.894300	0.643200
C301	C30	0.265090	0.336010	0.187460
H301	H30	0.273300	0.394300	0.143200
C311	C31	0.234910	0.163990	0.687460
H311	H31	0.226700	0.105700	0.643200
C321	C32	0.734910	0.663990	0.187460
H321	H32	0.726700	0.605700	0.143200
Nb11	Nb1	0.000000	0.000000	0.000000
Nb21	Nb2	0.500000	0.500000	0.500000
Nb31	Nb3	0.000000	0.000000	0.500000
Nb41	Nb4	0.500000	0.500000	0.000000
Cu11	Cu1	0.000000	0.000000	0.250000
Cu21	Cu2	0.500000	0.500000	0.750000
Cu31	Cu3	0.000000	0.000000	0.750000
Cu41	Cu4	0.500000	0.500000	0.250000
O11	O1	0.000000	0.000000	0.115540
F11	F1	0.000000	0.000000	0.884460
O21	O2	0.500000	0.500000	0.615540
F21	F2	0.500000	0.500000	0.384460
O31	O3	0.000000	0.000000	0.384460
F31	F3	0.000000	0.000000	0.615540
O41	O4	0.500000	0.500000	0.884460
F41	F4	0.500000	0.500000	0.115540
F51	F5	0.042610	0.193980	0.000000
F61	F6	0.542610	0.693980	0.500000
F71	F7	0.957390	0.806020	0.000000
F81	F8	0.457390	0.306020	0.500000
F91	F9	0.806020	0.042610	0.000000
F101	F10	0.306020	0.542610	0.500000
F111	F11	0.193980	0.957390	0.000000
F121	F12	0.693980	0.457390	0.500000
F131	F13	0.957390	0.193980	0.500000
F141	F14	0.457390	0.693980	0.000000
F151	F15	0.042610	0.806020	0.500000
F161	F16	0.542610	0.306020	0.000000
F171	F17	0.193980	0.042610	0.500000
F181	F18	0.693980	0.542610	0.000000
F191	F19	0.806020	0.957390	0.500000
F201	F20	0.306020	0.457390	0.000000
N11	N1	0.149160	0.149160	0.250000
N21	N2	0.649160	0.649160	0.750000
N31	N3	0.850840	0.850840	0.250000
N41	N4	0.350840	0.350840	0.750000
N51	N5	0.850840	0.149160	0.250000
N61	N6	0.350840	0.649160	0.750000
N71	N7	0.149160	0.850840	0.250000
N81	N8	0.649160	0.350840	0.750000
N91	N9	0.850840	0.850840	0.750000
N101	N10	0.350840	0.350840	0.250000
N111	N11	0.149160	0.149160	0.750000
N121	N12	0.649160	0.649160	0.250000
N131	N13	0.149160	0.850840	0.750000
N141	N14	0.649160	0.350840	0.250000
N151	N15	0.850840	0.149160	0.750000
N161	N16	0.350840	0.649160	0.250000
