data_CEHROY_freeONLY_PM
_symmetry_space_group_name_H-M	'P1'
_cell_length_a	9.715300
_cell_length_b	9.715300
_cell_length_c	8.202400
_cell_angle_alpha	90.000000
_cell_angle_beta	90.000000
_cell_angle_gamma	90.000000
_symmetry_Int_Tables_number 1

loop_
_symmetry_equiv_pos_as_xyz
'x,y,z'

loop_
_atom_site_label
_atom_site_type_symbol
_atom_site_fract_x
_atom_site_fract_y
_atom_site_fract_z
C11	C1	0.584900	0.516400	0.626500
H11	H1	0.642400	0.525200	0.716500
C21	C2	0.915100	0.983600	0.626500
H21	H2	0.857600	0.974800	0.716500
C31	C3	0.983600	0.584900	0.626500
H31	H3	0.974800	0.642400	0.716500
C41	C4	0.516400	0.915100	0.626500
H41	H4	0.525200	0.857600	0.716500
C51	C5	0.915100	0.516400	0.373500
H51	H5	0.857600	0.525200	0.283500
C61	C6	0.584900	0.983600	0.373500
H61	H6	0.642400	0.974800	0.283500
C71	C7	0.516400	0.584900	0.373500
H71	H7	0.525200	0.642400	0.283500
C81	C8	0.983600	0.915100	0.373500
H81	H8	0.974800	0.857600	0.283500
C91	C9	0.415100	0.483600	0.373500
H91	H9	0.357600	0.474800	0.283500
C101	C10	0.084900	0.016400	0.373500
H101	H10	0.142400	0.025200	0.283500
C111	C11	0.016400	0.415100	0.373500
H111	H11	0.025200	0.357600	0.283500
C121	C12	0.483600	0.084900	0.373500
H121	H12	0.474800	0.142400	0.283500
C131	C13	0.084900	0.483600	0.626500
H131	H13	0.142400	0.474800	0.716500
C141	C14	0.415100	0.016400	0.626500
H141	H14	0.357600	0.025200	0.716500
C151	C15	0.483600	0.415100	0.626500
H151	H15	0.474800	0.357600	0.716500
C161	C16	0.016400	0.084900	0.626500
H161	H16	0.025200	0.142400	0.716500
Cu11	Cu1	0.750000	0.750000	0.500000
Cu21	Cu2	0.250000	0.250000	0.500000
V11	V1	0.750000	0.750000	0.000000
V21	V2	0.250000	0.250000	0.000000
O11	O1	0.750000	0.550200	0.000000
F11	F1	0.750000	0.949800	0.000000
O21	O2	0.949800	0.750000	0.000000
F21	F2	0.550200	0.750000	0.000000
O31	O3	0.250000	0.449800	0.000000
F31	F3	0.250000	0.050200	0.000000
O41	O4	0.050200	0.250000	0.000000
F41	F4	0.449800	0.250000	0.000000
F51	F5	0.750000	0.750000	0.232900
F61	F6	0.750000	0.750000	0.767100
F71	F7	0.250000	0.250000	0.767100
F81	F8	0.250000	0.250000	0.232900
N11	N1	0.601130	0.601130	0.500000
N21	N2	0.898870	0.898870	0.500000
N31	N3	0.898870	0.601130	0.500000
N41	N4	0.601130	0.898870	0.500000
N51	N5	0.398870	0.398870	0.500000
N61	N6	0.101130	0.101130	0.500000
N71	N7	0.101130	0.398870	0.500000
N81	N8	0.398870	0.101130	0.500000
