data_CEKROB_freeONLY_PM
_symmetry_space_group_name_H-M	'P1'
_cell_length_a	16.294800
_cell_length_b	16.294800
_cell_length_c	19.367100
_cell_angle_alpha	90.000000
_cell_angle_beta	90.000000
_cell_angle_gamma	120.000000
_symmetry_Int_Tables_number 1

loop_
_symmetry_equiv_pos_as_xyz
'x,y,z'

loop_
_atom_site_label
_atom_site_type_symbol
_atom_site_fract_x
_atom_site_fract_y
_atom_site_fract_z
Mn11	Mn1	0.500650	0.784040	0.384410
O11	O1	0.449090	0.821620	0.457570
O21	O2	0.621950	0.880880	0.410560
N11	N1	0.367580	0.688750	0.355000
N21	N2	0.558540	0.749300	0.304710
N31	N3	0.492930	0.894560	0.307680
N41	N4	0.335980	0.840910	0.113390
N51	N5	0.595740	0.858050	0.121050
C11	C1	0.374840	0.834010	0.450560
C21	C2	0.367280	0.899840	0.493270
H11	H1	0.415600	0.935200	0.526100
C31	C3	0.290730	0.913580	0.487940
H21	H2	0.286600	0.958500	0.516800
C41	C4	0.219610	0.861730	0.440340
C51	C5	0.223160	0.795330	0.399010
H31	H3	0.173000	0.758900	0.367700
C61	C6	0.301660	0.781340	0.403220
C71	C7	0.298700	0.705210	0.363050
H41	H4	0.240700	0.663500	0.340500
C81	C8	0.346310	0.599370	0.320820
H51	H5	0.278600	0.564800	0.307400
H61	H6	0.356700	0.559400	0.354100
C91	C9	0.406890	0.614040	0.256470
C101	C10	0.511320	0.652350	0.275550
H71	H7	0.515200	0.609100	0.309600
H81	H8	0.546100	0.652200	0.233700
C111	C11	0.638440	0.809600	0.277660
H91	H9	0.657500	0.789900	0.237500
C121	C12	0.701850	0.904320	0.302410
C131	C13	0.782370	0.962700	0.262390
H101	H10	0.791500	0.940700	0.219200
C141	C14	0.847460	0.050930	0.285420
C151	C15	0.835070	0.084970	0.348180
H111	H11	0.879900	0.147200	0.362900
C161	C16	0.757520	0.028180	0.388890
H121	H12	0.749400	0.051500	0.431700
C171	C17	0.690360	0.935980	0.367430
C181	C18	0.395240	0.678540	0.205440
H131	H13	0.328100	0.650900	0.193300
H141	H14	0.432000	0.685300	0.163600
H151	H15	0.418100	0.741000	0.226400
C191	C19	0.372700	0.515720	0.224890
H161	H16	0.305200	0.486300	0.213400
H171	H17	0.382100	0.475900	0.258200
H181	H18	0.408900	0.522200	0.182800
C201	C20	0.406390	0.902510	0.134040
C211	C21	0.573650	0.912310	0.137130
C221	C22	0.505980	0.936700	0.256790
Cl11	Cl1	0.124310	0.882330	0.432550
Cl21	Cl2	0.947380	0.122700	0.235300
Mn21	Mn2	0.215960	0.716610	0.051080
O31	O3	0.178380	0.627470	0.124240
O41	O4	0.119120	0.741070	0.077230
N61	N6	0.311250	0.678830	0.021670
N71	N7	0.250700	0.809240	0.971380
N81	N8	0.105440	0.598370	0.974350
N91	N9	0.159090	0.495070	0.780060
N101	N10	0.141950	0.737690	0.787720
C231	C23	0.165990	0.540830	0.117230
C241	C24	0.100160	0.467440	0.159940
H191	H19	0.064800	0.480400	0.192770
C251	C25	0.086420	0.377150	0.154610
H201	H20	0.041500	0.328100	0.183470
C261	C26	0.138270	0.357880	0.107010
C271	C27	0.204670	0.427830	0.065680
H211	H21	0.241100	0.414100	0.034370
C281	C28	0.218660	0.520320	0.069890
C291	C29	0.294790	0.593490	0.029720
H221	H22	0.336500	0.577200	0.007170
C301	C30	0.400630	0.746940	0.987490
H231	H23	0.435200	0.713800	0.974070
H241	H24	0.440600	0.797300	0.020770
C311	C31	0.385960	0.792850	0.923140
C321	C32	0.347650	0.858970	0.942220
H251	H25	0.390900	0.906100	0.976270
H261	H26	0.347800	0.893900	0.900370
C331	C33	0.190400	0.828840	0.944330
H271	H27	0.210100	0.867600	0.904170
C341	C34	0.095680	0.797530	0.969080
C351	C35	0.037300	0.819670	0.929060
H281	H28	0.059300	0.850800	0.885870
C361	C36	0.949070	0.796530	0.952090
C371	C37	0.915030	0.750100	0.014850
H291	H29	0.852800	0.732700	0.029570
C381	C38	0.971820	0.729340	0.055560
H301	H30	0.948500	0.697900	0.098370
C391	C39	0.064020	0.754380	0.034100
C401	C40	0.321460	0.716700	0.872110
H311	H31	0.349100	0.677200	0.859970
H321	H32	0.314700	0.746700	0.830270
H331	H33	0.259000	0.677100	0.893070
C411	C41	0.484280	0.856980	0.891560
H341	H34	0.513700	0.818900	0.880070
H351	H35	0.524100	0.906200	0.924870
H361	H36	0.477800	0.886700	0.849470
C421	C42	0.097490	0.503880	0.800710
C431	C43	0.087690	0.661340	0.803800
C441	C44	0.063300	0.569280	0.923460
Cl31	Cl3	0.117670	0.241980	0.099220
Cl41	Cl4	0.877300	0.824680	0.901970
Mn31	Mn3	0.283390	0.499350	0.717740
O51	O5	0.372530	0.550910	0.790900
O61	O6	0.258930	0.378050	0.743890
N111	N11	0.321170	0.632420	0.688330
N121	N12	0.190760	0.441460	0.638040
N131	N13	0.401630	0.507070	0.641010
N141	N14	0.504930	0.664020	0.446720
N151	N15	0.262310	0.404260	0.454380
C451	C45	0.459170	0.625160	0.783890
C461	C46	0.532560	0.632720	0.826600
H371	H37	0.519600	0.584400	0.859430
C471	C47	0.622850	0.709270	0.821270
H381	H38	0.671900	0.713400	0.850130
C481	C48	0.642120	0.780390	0.773670
C491	C49	0.572170	0.776840	0.732340
H391	H39	0.585900	0.827000	0.701030
C501	C50	0.479680	0.698340	0.736550
C511	C51	0.406510	0.701300	0.696380
H401	H40	0.422800	0.759300	0.673830
C521	C52	0.253060	0.653690	0.654150
H411	H41	0.286200	0.721400	0.640730
H421	H42	0.202700	0.643300	0.687430
C531	C53	0.207150	0.593110	0.589800
C541	C54	0.141030	0.488680	0.608880
H431	H43	0.093900	0.484800	0.642930
H441	H44	0.106100	0.453900	0.567030
C551	C55	0.171160	0.361560	0.610990
H451	H45	0.132400	0.342500	0.570830
C561	C56	0.202470	0.298150	0.635740
C571	C57	0.180330	0.217630	0.595720
H461	H46	0.149200	0.208500	0.552530
C581	C58	0.203470	0.152540	0.618750
C591	C59	0.249900	0.164930	0.681510
H471	H47	0.267300	0.120100	0.696230
C601	C60	0.270660	0.242480	0.722220
H481	H48	0.302100	0.250600	0.765030
C611	C61	0.245620	0.309640	0.700760
C621	C62	0.283300	0.604760	0.538770
H491	H49	0.322800	0.671900	0.526630
H501	H50	0.253300	0.568000	0.496930
H511	H51	0.322900	0.581900	0.559730
C631	C63	0.143020	0.627300	0.558220
H521	H52	0.181100	0.694800	0.546730
H531	H53	0.093800	0.617900	0.591530
H541	H54	0.113300	0.591100	0.516130
C641	C64	0.496120	0.593610	0.467370
C651	C65	0.338660	0.426350	0.470460
C661	C66	0.430720	0.494020	0.590120
Cl51	Cl5	0.758020	0.875690	0.765880
Cl61	Cl6	0.175320	0.052620	0.568630
Mn41	Mn4	0.784040	0.500650	0.615590
O71	O7	0.821620	0.449090	0.542430
O81	O8	0.880880	0.621950	0.589440
N161	N16	0.688750	0.367580	0.645000
N171	N17	0.749300	0.558540	0.695290
N181	N18	0.894560	0.492930	0.692320
N191	N19	0.840910	0.335980	0.886610
N201	N20	0.858050	0.595740	0.878950
C671	C67	0.834010	0.374840	0.549440
C681	C68	0.899840	0.367280	0.506730
H551	H55	0.935200	0.415600	0.473900
C691	C69	0.913580	0.290730	0.512060
H561	H56	0.958500	0.286600	0.483200
C701	C70	0.861730	0.219610	0.559660
C711	C71	0.795330	0.223160	0.600990
H571	H57	0.758900	0.173000	0.632300
C721	C72	0.781340	0.301660	0.596780
C731	C73	0.705210	0.298700	0.636950
H581	H58	0.663500	0.240700	0.659500
C741	C74	0.599370	0.346310	0.679180
H591	H59	0.564800	0.278600	0.692600
H601	H60	0.559400	0.356700	0.645900
C751	C75	0.614040	0.406890	0.743530
C761	C76	0.652350	0.511320	0.724450
H611	H61	0.609100	0.515200	0.690400
H621	H62	0.652200	0.546100	0.766300
C771	C77	0.809600	0.638440	0.722340
H631	H63	0.789900	0.657500	0.762500
C781	C78	0.904320	0.701850	0.697590
C791	C79	0.962700	0.782370	0.737610
H641	H64	0.940700	0.791500	0.780800
C801	C80	0.050930	0.847460	0.714580
C811	C81	0.084970	0.835070	0.651820
H651	H65	0.147200	0.879900	0.637100
C821	C82	0.028180	0.757520	0.611110
H661	H66	0.051500	0.749400	0.568300
C831	C83	0.935980	0.690360	0.632570
C841	C84	0.678540	0.395240	0.794560
H671	H67	0.650900	0.328100	0.806700
H681	H68	0.685300	0.432000	0.836400
H691	H69	0.741000	0.418100	0.773600
C851	C85	0.515720	0.372700	0.775110
H701	H70	0.486300	0.305200	0.786600
H711	H71	0.475900	0.382100	0.741800
H721	H72	0.522200	0.408900	0.817200
C861	C86	0.902510	0.406390	0.865960
C871	C87	0.912310	0.573650	0.862870
C881	C88	0.936700	0.505980	0.743210
Cl71	Cl7	0.882330	0.124310	0.567450
Cl81	Cl8	0.122700	0.947380	0.764700
Mn51	Mn5	0.716610	0.215960	0.948920
O91	O9	0.627470	0.178380	0.875760
O101	O10	0.741070	0.119120	0.922770
N211	N21	0.678830	0.311250	0.978330
N221	N22	0.809240	0.250700	0.028620
N231	N23	0.598370	0.105440	0.025650
N241	N24	0.495070	0.159090	0.219940
N251	N25	0.737690	0.141950	0.212280
C891	C89	0.540830	0.165990	0.882770
C901	C90	0.467440	0.100160	0.840060
H731	H73	0.480400	0.064800	0.807230
C911	C91	0.377150	0.086420	0.845390
H741	H74	0.328100	0.041500	0.816530
C921	C92	0.357880	0.138270	0.892990
C931	C93	0.427830	0.204670	0.934320
H751	H75	0.414100	0.241100	0.965630
C941	C94	0.520320	0.218660	0.930110
C951	C95	0.593490	0.294790	0.970280
H761	H76	0.577200	0.336500	0.992830
C961	C96	0.746940	0.400630	0.012510
H771	H77	0.713800	0.435200	0.025930
H781	H78	0.797300	0.440600	0.979230
C971	C97	0.792850	0.385960	0.076860
C981	C98	0.858970	0.347650	0.057780
H791	H79	0.906100	0.390900	0.023730
H801	H80	0.893900	0.347800	0.099630
C991	C99	0.828840	0.190400	0.055670
H811	H81	0.867600	0.210100	0.095830
C1001	C100	0.797530	0.095680	0.030920
C1011	C101	0.819670	0.037300	0.070940
H821	H82	0.850800	0.059300	0.114130
C1021	C102	0.796530	0.949070	0.047910
C1031	C103	0.750100	0.915030	0.985150
H831	H83	0.732700	0.852800	0.970430
C1041	C104	0.729340	0.971820	0.944440
H841	H84	0.697900	0.948500	0.901630
C1051	C105	0.754380	0.064020	0.965900
C1061	C106	0.716700	0.321460	0.127890
H851	H85	0.677200	0.349100	0.140030
H861	H86	0.746700	0.314700	0.169730
H871	H87	0.677100	0.259000	0.106930
C1071	C107	0.856980	0.484280	0.108440
H881	H88	0.818900	0.513700	0.119930
H891	H89	0.906200	0.524100	0.075130
H901	H90	0.886700	0.477800	0.150530
C1081	C108	0.503880	0.097490	0.199290
C1091	C109	0.661340	0.087690	0.196200
C1101	C110	0.569280	0.063300	0.076540
Cl91	Cl9	0.241980	0.117670	0.900780
Cl101	Cl10	0.824680	0.877300	0.098030
Mn61	Mn6	0.499350	0.283390	0.282260
O111	O11	0.550910	0.372530	0.209100
O121	O12	0.378050	0.258930	0.256110
N261	N26	0.632420	0.321170	0.311670
N271	N27	0.441460	0.190760	0.361960
N281	N28	0.507070	0.401630	0.358990
N291	N29	0.664020	0.504930	0.553280
N301	N30	0.404260	0.262310	0.545620
C1111	C111	0.625160	0.459170	0.216110
C1121	C112	0.632720	0.532560	0.173400
H911	H91	0.584400	0.519600	0.140570
C1131	C113	0.709270	0.622850	0.178730
H921	H92	0.713400	0.671900	0.149870
C1141	C114	0.780390	0.642120	0.226330
C1151	C115	0.776840	0.572170	0.267660
H931	H93	0.827000	0.585900	0.298970
C1161	C116	0.698340	0.479680	0.263450
C1171	C117	0.701300	0.406510	0.303620
H941	H94	0.759300	0.422800	0.326170
C1181	C118	0.653690	0.253060	0.345850
H951	H95	0.721400	0.286200	0.359270
H961	H96	0.643300	0.202700	0.312570
C1191	C119	0.593110	0.207150	0.410200
C1201	C120	0.488680	0.141030	0.391120
H971	H97	0.484800	0.093900	0.357070
H981	H98	0.453900	0.106100	0.432970
C1211	C121	0.361560	0.171160	0.389010
H991	H99	0.342500	0.132400	0.429170
C1221	C122	0.298150	0.202470	0.364260
C1231	C123	0.217630	0.180330	0.404280
H1001	H100	0.208500	0.149200	0.447470
C1241	C124	0.152540	0.203470	0.381250
C1251	C125	0.164930	0.249900	0.318490
H1011	H101	0.120100	0.267300	0.303770
C1261	C126	0.242480	0.270660	0.277780
H1021	H102	0.250600	0.302100	0.234970
C1271	C127	0.309640	0.245620	0.299240
C1281	C128	0.604760	0.283300	0.461230
H1031	H103	0.671900	0.322800	0.473370
H1041	H104	0.568000	0.253300	0.503070
H1051	H105	0.581900	0.322900	0.440270
C1291	C129	0.627300	0.143020	0.441780
H1061	H106	0.694800	0.181100	0.453270
H1071	H107	0.617900	0.093800	0.408470
H1081	H108	0.591100	0.113300	0.483870
C1301	C130	0.593610	0.496120	0.532630
C1311	C131	0.426350	0.338660	0.529540
C1321	C132	0.494020	0.430720	0.409880
Cl111	Cl11	0.875690	0.758020	0.234120
Cl121	Cl12	0.052620	0.175320	0.431370
Fe11	Fe1	0.533150	0.000000	0.166670
Fe21	Fe2	0.000000	0.533150	0.833330
Fe31	Fe3	0.466850	0.466850	0.500000
