data_CELZIE_SL_PM
_symmetry_space_group_name_H-M	'P1'
_cell_length_a	21.360900
_cell_length_b	21.360900
_cell_length_c	10.569800
_cell_angle_alpha	90.000000
_cell_angle_beta	90.000000
_cell_angle_gamma	90.000000
_symmetry_Int_Tables_number 1

loop_
_symmetry_equiv_pos_as_xyz
'x,y,z'

loop_
_atom_site_label
_atom_site_type_symbol
_atom_site_fract_x
_atom_site_fract_y
_atom_site_fract_z
Al11	Al1	0.259390	0.816750	0.929030
C21	C2	0.955640	0.796700	0.825630
C31	C3	0.078910	0.821290	0.749780
C41	C4	0.888830	0.790730	0.870830
C51	C5	0.993170	0.859350	0.455900
C61	C6	0.967420	0.817300	0.706230
C71	C7	0.004960	0.786730	0.918100
C81	C8	0.125380	0.794560	0.950040
C91	C9	0.062510	0.800160	0.873260
C101	C10	0.030190	0.827720	0.664620
O111	O11	0.845480	0.813930	0.805930
O121	O12	0.175130	0.820420	0.911020
O131	O13	0.117050	0.760780	0.047400
O141	O14	0.885230	0.748660	0.953590
O151	O15	0.249240	0.762090	0.061010
O161	O16	0.042640	0.856310	0.544860
H171	H17	0.189650	0.473730	0.689060
H181	H18	0.120720	0.511480	0.612950
H191	H19	0.109130	0.454460	0.744070
H201	H20	0.129880	0.831850	0.725940
H211	H21	0.992820	0.769220	0.016990
H221	H22	0.927000	0.826420	0.638260
H231	H23	0.224640	0.213310	0.438990
Al241	Al24	0.759390	0.316750	0.429030
C251	C25	0.455640	0.296700	0.325630
C261	C26	0.578910	0.321290	0.249780
C271	C27	0.388830	0.290730	0.370830
C281	C28	0.493170	0.359350	0.955900
C291	C29	0.467420	0.317300	0.206230
C301	C30	0.504960	0.286730	0.418100
C311	C31	0.625380	0.294560	0.450040
C321	C32	0.562510	0.300160	0.373260
C331	C33	0.530190	0.327720	0.164620
O341	O34	0.345480	0.313930	0.305930
O351	O35	0.675130	0.320420	0.411020
O361	O36	0.617050	0.260780	0.547400
O371	O37	0.385230	0.248660	0.453590
O381	O38	0.749240	0.262090	0.561010
O391	O39	0.542640	0.356310	0.044860
H401	H40	0.689650	0.973730	0.189060
H411	H41	0.620720	0.011480	0.112950
H421	H42	0.609130	0.954460	0.244070
H431	H43	0.629880	0.331850	0.225940
H441	H44	0.492820	0.269220	0.516990
H451	H45	0.427000	0.326420	0.138260
H461	H46	0.724640	0.713310	0.938990
Al471	Al47	0.240610	0.683250	0.429030
C481	C48	0.544360	0.703300	0.325630
C491	C49	0.421090	0.678710	0.249780
C501	C50	0.611170	0.709270	0.370830
C511	C51	0.506830	0.640650	0.955900
C521	C52	0.532580	0.682700	0.206230
C531	C53	0.495040	0.713270	0.418100
C541	C54	0.374620	0.705440	0.450040
C551	C55	0.437490	0.699840	0.373260
C561	C56	0.469810	0.672280	0.164620
O571	O57	0.654520	0.686070	0.305930
O581	O58	0.324870	0.679580	0.411020
O591	O59	0.382950	0.739220	0.547400
O601	O60	0.614770	0.751340	0.453590
O611	O61	0.250760	0.737910	0.561010
O621	O62	0.457360	0.643690	0.044860
H631	H63	0.310350	0.026270	0.189060
H641	H64	0.379280	0.988520	0.112950
H651	H65	0.390870	0.045540	0.244070
H661	H66	0.370120	0.668150	0.225940
H671	H67	0.507180	0.730780	0.516990
H681	H68	0.573000	0.673580	0.138260
H691	H69	0.275360	0.286690	0.938990
Al701	Al70	0.740610	0.183250	0.929030
C711	C71	0.044360	0.203300	0.825630
C721	C72	0.921090	0.178710	0.749780
C731	C73	0.111170	0.209270	0.870830
C741	C74	0.006830	0.140650	0.455900
C751	C75	0.032580	0.182700	0.706230
C761	C76	0.995040	0.213270	0.918100
C771	C77	0.874620	0.205440	0.950040
C781	C78	0.937490	0.199840	0.873260
C791	C79	0.969810	0.172280	0.664620
O801	O80	0.154520	0.186070	0.805930
O811	O81	0.824870	0.179580	0.911020
O821	O82	0.882950	0.239220	0.047400
O831	O83	0.114770	0.251340	0.953590
O841	O84	0.750760	0.237910	0.061010
O851	O85	0.957360	0.143690	0.544860
H861	H86	0.810350	0.526270	0.689060
H871	H87	0.879280	0.488520	0.612950
H881	H88	0.890870	0.545540	0.744070
H891	H89	0.870120	0.168150	0.725940
H901	H90	0.007180	0.230780	0.016990
H911	H91	0.073000	0.173580	0.638260
H921	H92	0.775360	0.786690	0.438990
Al931	Al93	0.183250	0.759390	0.179030
C941	C94	0.203300	0.455640	0.075630
C951	C95	0.178710	0.578910	0.999780
C961	C96	0.209270	0.388830	0.120830
C971	C97	0.140650	0.493170	0.705900
C981	C98	0.182700	0.467420	0.956230
C991	C99	0.213270	0.504960	0.168100
C1001	C100	0.205440	0.625380	0.200040
C1011	C101	0.199840	0.562510	0.123260
C1021	C102	0.172280	0.530190	0.914620
O1031	O103	0.186070	0.345480	0.055930
O1041	O104	0.179580	0.675130	0.161020
O1051	O105	0.239220	0.617050	0.297400
O1061	O106	0.251340	0.385230	0.203590
O1071	O107	0.237910	0.749240	0.311010
O1081	O108	0.143690	0.542640	0.794860
H1091	H109	0.526270	0.689650	0.939060
H1101	H110	0.488520	0.620720	0.862950
H1111	H111	0.545540	0.609130	0.994070
H1121	H112	0.168150	0.629880	0.975940
H1131	H113	0.230780	0.492820	0.266990
H1141	H114	0.173580	0.427000	0.888260
H1151	H115	0.786690	0.724640	0.688990
Al1161	Al116	0.683250	0.259390	0.679030
C1171	C117	0.703300	0.955640	0.575630
C1181	C118	0.678710	0.078910	0.499780
C1191	C119	0.709270	0.888830	0.620830
C1201	C120	0.640650	0.993170	0.205900
C1211	C121	0.682700	0.967420	0.456230
C1221	C122	0.713270	0.004960	0.668100
C1231	C123	0.705440	0.125380	0.700040
C1241	C124	0.699840	0.062510	0.623260
C1251	C125	0.672280	0.030190	0.414620
O1261	O126	0.686070	0.845480	0.555930
O1271	O127	0.679580	0.175130	0.661020
O1281	O128	0.739220	0.117050	0.797400
O1291	O129	0.751340	0.885230	0.703590
O1301	O130	0.737910	0.249240	0.811010
O1311	O131	0.643690	0.042640	0.294860
H1321	H132	0.026270	0.189650	0.439060
H1331	H133	0.988520	0.120720	0.362950
H1341	H134	0.045540	0.109130	0.494070
H1351	H135	0.668150	0.129880	0.475940
H1361	H136	0.730780	0.992820	0.766990
H1371	H137	0.673580	0.927000	0.388260
H1381	H138	0.286690	0.224640	0.188990
Al1391	Al139	0.316750	0.740610	0.679030
C1401	C140	0.296700	0.044360	0.575630
C1411	C141	0.321290	0.921090	0.499780
C1421	C142	0.290730	0.111170	0.620830
C1431	C143	0.359350	0.006830	0.205900
C1441	C144	0.317300	0.032580	0.456230
C1451	C145	0.286730	0.995040	0.668100
C1461	C146	0.294560	0.874620	0.700040
C1471	C147	0.300160	0.937490	0.623260
C1481	C148	0.327720	0.969810	0.414620
O1491	O149	0.313930	0.154520	0.555930
O1501	O150	0.320420	0.824870	0.661020
O1511	O151	0.260780	0.882950	0.797400
O1521	O152	0.248660	0.114770	0.703590
O1531	O153	0.262090	0.750760	0.811010
O1541	O154	0.356310	0.957360	0.294860
H1551	H155	0.973730	0.810350	0.439060
H1561	H156	0.011480	0.879280	0.362950
H1571	H157	0.954460	0.890870	0.494070
H1581	H158	0.331850	0.870120	0.475940
H1591	H159	0.269220	0.007180	0.766990
H1601	H160	0.326420	0.073000	0.388260
H1611	H161	0.713310	0.775360	0.188990
Al1621	Al162	0.816750	0.240610	0.179030
C1631	C163	0.796700	0.544360	0.075630
C1641	C164	0.821290	0.421090	0.999780
C1651	C165	0.790730	0.611170	0.120830
C1661	C166	0.859350	0.506830	0.705900
C1671	C167	0.817300	0.532580	0.956230
C1681	C168	0.786730	0.495040	0.168100
C1691	C169	0.794560	0.374620	0.200040
C1701	C170	0.800160	0.437490	0.123260
C1711	C171	0.827720	0.469810	0.914620
O1721	O172	0.813930	0.654520	0.055930
O1731	O173	0.820420	0.324870	0.161020
O1741	O174	0.760780	0.382950	0.297400
O1751	O175	0.748660	0.614770	0.203590
O1761	O176	0.762090	0.250760	0.311010
O1771	O177	0.856310	0.457360	0.794860
H1781	H178	0.473730	0.310350	0.939060
H1791	H179	0.511480	0.379280	0.862950
H1801	H180	0.454460	0.390870	0.994070
H1811	H181	0.831850	0.370120	0.975940
H1821	H182	0.769220	0.507180	0.266990
H1831	H183	0.826420	0.573000	0.888260
H1841	H184	0.213310	0.275360	0.688990
Al1851	Al185	0.740610	0.683250	0.320970
C1861	C186	0.044360	0.703300	0.424370
C1871	C187	0.921090	0.678710	0.500220
C1881	C188	0.111170	0.709270	0.379170
C1891	C189	0.006830	0.640650	0.794100
C1901	C190	0.032580	0.682700	0.543770
C1911	C191	0.995040	0.713270	0.331900
C1921	C192	0.874620	0.705440	0.299960
C1931	C193	0.937490	0.699840	0.376740
C1941	C194	0.969810	0.672280	0.585380
O1951	O195	0.154520	0.686070	0.444070
O1961	O196	0.824870	0.679580	0.338980
O1971	O197	0.882950	0.739220	0.202600
O1981	O198	0.114770	0.751340	0.296410
O1991	O199	0.750760	0.737910	0.188990
O2001	O200	0.957360	0.643690	0.705140
H2011	H201	0.810350	0.026270	0.560940
H2021	H202	0.879280	0.988520	0.637050
H2031	H203	0.890870	0.045540	0.505930
H2041	H204	0.870120	0.668150	0.524060
H2051	H205	0.007180	0.730780	0.233010
H2061	H206	0.073000	0.673580	0.611740
H2071	H207	0.775360	0.286690	0.811010
Al2081	Al208	0.240610	0.183250	0.820970
C2091	C209	0.544360	0.203300	0.924370
C2101	C210	0.421090	0.178710	0.000220
C2111	C211	0.611170	0.209270	0.879170
C2121	C212	0.506830	0.140650	0.294100
C2131	C213	0.532580	0.182700	0.043770
C2141	C214	0.495040	0.213270	0.831900
C2151	C215	0.374620	0.205440	0.799960
C2161	C216	0.437490	0.199840	0.876740
C2171	C217	0.469810	0.172280	0.085380
O2181	O218	0.654520	0.186070	0.944070
O2191	O219	0.324870	0.179580	0.838980
O2201	O220	0.382950	0.239220	0.702600
O2211	O221	0.614770	0.251340	0.796410
O2221	O222	0.250760	0.237910	0.688990
O2231	O223	0.457360	0.143690	0.205140
H2241	H224	0.310350	0.526270	0.060940
H2251	H225	0.379280	0.488520	0.137050
H2261	H226	0.390870	0.545540	0.005930
H2271	H227	0.370120	0.168150	0.024060
H2281	H228	0.507180	0.230780	0.733010
H2291	H229	0.573000	0.173580	0.111740
H2301	H230	0.275360	0.786690	0.311010
Al2311	Al231	0.759390	0.816750	0.820970
C2321	C232	0.455640	0.796700	0.924370
C2331	C233	0.578910	0.821290	0.000220
C2341	C234	0.388830	0.790730	0.879170
C2351	C235	0.493170	0.859350	0.294100
C2361	C236	0.467420	0.817300	0.043770
C2371	C237	0.504960	0.786730	0.831900
C2381	C238	0.625380	0.794560	0.799960
C2391	C239	0.562510	0.800160	0.876740
C2401	C240	0.530190	0.827720	0.085380
O2411	O241	0.345480	0.813930	0.944070
O2421	O242	0.675130	0.820420	0.838980
O2431	O243	0.617050	0.760780	0.702600
O2441	O244	0.385230	0.748660	0.796410
O2451	O245	0.749240	0.762090	0.688990
O2461	O246	0.542640	0.856310	0.205140
H2471	H247	0.689650	0.473730	0.060940
H2481	H248	0.620720	0.511480	0.137050
H2491	H249	0.609130	0.454460	0.005930
H2501	H250	0.629880	0.831850	0.024060
H2511	H251	0.492820	0.769220	0.733010
H2521	H252	0.427000	0.826420	0.111740
H2531	H253	0.724640	0.213310	0.311010
Al2541	Al254	0.259390	0.316750	0.320970
C2551	C255	0.955640	0.296700	0.424370
C2561	C256	0.078910	0.321290	0.500220
C2571	C257	0.888830	0.290730	0.379170
C2581	C258	0.993170	0.359350	0.794100
C2591	C259	0.967420	0.317300	0.543770
C2601	C260	0.004960	0.286730	0.331900
C2611	C261	0.125380	0.294560	0.299960
C2621	C262	0.062510	0.300160	0.376740
C2631	C263	0.030190	0.327720	0.585380
O2641	O264	0.845480	0.313930	0.444070
O2651	O265	0.175130	0.320420	0.338980
O2661	O266	0.117050	0.260780	0.202600
O2671	O267	0.885230	0.248660	0.296410
O2681	O268	0.249240	0.262090	0.188990
O2691	O269	0.042640	0.356310	0.705140
H2701	H270	0.189650	0.973730	0.560940
H2711	H271	0.120720	0.011480	0.637050
H2721	H272	0.109130	0.954460	0.505930
H2731	H273	0.129880	0.331850	0.524060
H2741	H274	0.992820	0.269220	0.233010
H2751	H275	0.927000	0.326420	0.611740
H2761	H276	0.224640	0.713310	0.811010
Al2771	Al277	0.816750	0.740610	0.070970
C2781	C278	0.796700	0.044360	0.174370
C2791	C279	0.821290	0.921090	0.250220
C2801	C280	0.790730	0.111170	0.129170
C2811	C281	0.859350	0.006830	0.544100
C2821	C282	0.817300	0.032580	0.293770
C2831	C283	0.786730	0.995040	0.081900
C2841	C284	0.794560	0.874620	0.049960
C2851	C285	0.800160	0.937490	0.126740
C2861	C286	0.827720	0.969810	0.335380
O2871	O287	0.813930	0.154520	0.194070
O2881	O288	0.820420	0.824870	0.088980
O2891	O289	0.760780	0.882950	0.952600
O2901	O290	0.748660	0.114770	0.046410
O2911	O291	0.762090	0.750760	0.938990
O2921	O292	0.856310	0.957360	0.455140
H2931	H293	0.473730	0.810350	0.310940
H2941	H294	0.511480	0.879280	0.387050
H2951	H295	0.454460	0.890870	0.255930
H2961	H296	0.831850	0.870120	0.274060
H2971	H297	0.769220	0.007180	0.983010
H2981	H298	0.826420	0.073000	0.361740
H2991	H299	0.213310	0.775360	0.561010
Al3001	Al300	0.316750	0.240610	0.570970
C3011	C301	0.296700	0.544360	0.674370
C3021	C302	0.321290	0.421090	0.750220
C3031	C303	0.290730	0.611170	0.629170
C3041	C304	0.359350	0.506830	0.044100
C3051	C305	0.317300	0.532580	0.793770
C3061	C306	0.286730	0.495040	0.581900
C3071	C307	0.294560	0.374620	0.549960
C3081	C308	0.300160	0.437490	0.626740
C3091	C309	0.327720	0.469810	0.835380
O3101	O310	0.313930	0.654520	0.694070
O3111	O311	0.320420	0.324870	0.588980
O3121	O312	0.260780	0.382950	0.452600
O3131	O313	0.248660	0.614770	0.546410
O3141	O314	0.262090	0.250760	0.438990
O3151	O315	0.356310	0.457360	0.955140
H3161	H316	0.973730	0.310350	0.810940
H3171	H317	0.011480	0.379280	0.887050
H3181	H318	0.954460	0.390870	0.755930
H3191	H319	0.331850	0.370120	0.774060
H3201	H320	0.269220	0.507180	0.483010
H3211	H321	0.326420	0.573000	0.861740
H3221	H322	0.713310	0.275360	0.061010
Al3231	Al323	0.683250	0.759390	0.570970
C3241	C324	0.703300	0.455640	0.674370
C3251	C325	0.678710	0.578910	0.750220
C3261	C326	0.709270	0.388830	0.629170
C3271	C327	0.640650	0.493170	0.044100
C3281	C328	0.682700	0.467420	0.793770
C3291	C329	0.713270	0.504960	0.581900
C3301	C330	0.705440	0.625380	0.549960
C3311	C331	0.699840	0.562510	0.626740
C3321	C332	0.672280	0.530190	0.835380
O3331	O333	0.686070	0.345480	0.694070
O3341	O334	0.679580	0.675130	0.588980
O3351	O335	0.739220	0.617050	0.452600
O3361	O336	0.751340	0.385230	0.546410
O3371	O337	0.737910	0.749240	0.438990
O3381	O338	0.643690	0.542640	0.955140
H3391	H339	0.026270	0.689650	0.810940
H3401	H340	0.988520	0.620720	0.887050
H3411	H341	0.045540	0.609130	0.755930
H3421	H342	0.668150	0.629880	0.774060
H3431	H343	0.730780	0.492820	0.483010
H3441	H344	0.673580	0.427000	0.861740
H3451	H345	0.286690	0.724640	0.061010
Al3461	Al346	0.183250	0.259390	0.070970
C3471	C347	0.203300	0.955640	0.174370
C3481	C348	0.178710	0.078910	0.250220
C3491	C349	0.209270	0.888830	0.129170
C3501	C350	0.140650	0.993170	0.544100
C3511	C351	0.182700	0.967420	0.293770
C3521	C352	0.213270	0.004960	0.081900
C3531	C353	0.205440	0.125380	0.049960
C3541	C354	0.199840	0.062510	0.126740
C3551	C355	0.172280	0.030190	0.335380
O3561	O356	0.186070	0.845480	0.194070
O3571	O357	0.179580	0.175130	0.088980
O3581	O358	0.239220	0.117050	0.952600
O3591	O359	0.251340	0.885230	0.046410
O3601	O360	0.237910	0.249240	0.938990
O3611	O361	0.143690	0.042640	0.455140
H3621	H362	0.526270	0.189650	0.310940
H3631	H363	0.488520	0.120720	0.387050
H3641	H364	0.545540	0.109130	0.255930
H3651	H365	0.168150	0.129880	0.274060
H3661	H366	0.230780	0.992820	0.983010
H3671	H367	0.173580	0.927000	0.361740
H3681	H368	0.786690	0.224640	0.561010
