data_CELZEA_freeONLY_PM
_symmetry_space_group_name_H-M	'P1'
_cell_length_a	9.002300
_cell_length_b	10.611400
_cell_length_c	11.694100
_cell_angle_alpha	116.982000
_cell_angle_beta	109.226000
_cell_angle_gamma	90.000000
_symmetry_Int_Tables_number 1

loop_
_symmetry_equiv_pos_as_xyz
'x,y,z'

loop_
_atom_site_label
_atom_site_type_symbol
_atom_site_fract_x
_atom_site_fract_y
_atom_site_fract_z
Mo11	Mo1	0.763670	0.413450	0.530040
Mo21	Mo2	0.736330	0.883410	0.469960
Mo31	Mo3	0.236330	0.586550	0.469960
Mo41	Mo4	0.263670	0.116590	0.530040
P11	P1	0.538920	0.095570	0.381480
P21	P2	0.961080	0.714090	0.618520
P31	P3	0.461080	0.904430	0.618520
P41	P4	0.038920	0.285910	0.381480
H11	H1	0.355400	0.174900	0.250600
H21	H2	0.297600	0.009400	0.199000
H31	H3	0.450100	0.231400	0.112800
H41	H4	0.536600	0.167600	0.930200
H51	H5	0.853000	0.345000	0.758000
H61	H6	0.951000	0.273100	0.670200
H71	H7	0.144600	0.924300	0.749400
H81	H8	0.202400	0.810400	0.801000
H91	H9	0.049900	0.118600	0.887200
H101	H10	0.963400	0.237400	0.069800
H111	H11	0.647000	0.587000	0.242000
H121	H12	0.549000	0.602900	0.329800
H131	H13	0.644600	0.825100	0.749400
H141	H14	0.702400	0.990600	0.801000
H151	H15	0.549900	0.768600	0.887200
H161	H16	0.463400	0.832400	0.069800
H171	H17	0.147000	0.655000	0.242000
H181	H18	0.049000	0.726900	0.329800
H191	H19	0.855400	0.075700	0.250600
H201	H20	0.797600	0.189600	0.199000
H211	H21	0.950100	0.881400	0.112800
H221	H22	0.036600	0.762600	0.930200
H231	H23	0.353000	0.413000	0.758000
H241	H24	0.451000	0.397100	0.670200
C11	C1	0.391200	0.081260	0.228520
C21	C2	0.447000	0.038600	0.109200
C31	C3	0.470100	0.136770	0.066940
C41	C4	0.522000	0.099060	0.958520
C51	C5	0.108800	0.852740	0.771480
C61	C6	0.053000	0.929400	0.890800
C71	C7	0.029900	0.069830	0.933060
C81	C8	0.978000	0.140540	0.041480
C91	C9	0.608800	0.918740	0.771480
C101	C10	0.553000	0.961400	0.890800
C111	C11	0.529900	0.863230	0.933060
C121	C12	0.478000	0.900940	0.041480
C131	C13	0.891200	0.147260	0.228520
C141	C14	0.947000	0.070600	0.109200
C151	C15	0.970100	0.930170	0.066940
C161	C16	0.022000	0.859460	0.958520
O11	O1	0.688390	0.201320	0.424240
O21	O2	0.473460	0.146290	0.495200
O31	O3	0.586720	0.946530	0.343600
O41	O4	0.684750	0.442050	0.393760
O51	O5	0.629120	0.452430	0.608480
O61	O6	0.906310	0.360220	0.703980
O71	O7	0.811610	0.777080	0.575760
O81	O8	0.026540	0.651090	0.504800
O91	O9	0.913280	0.602930	0.656400
O101	O10	0.815250	0.048290	0.606240
O111	O11	0.870880	0.843950	0.391520
O121	O12	0.593690	0.656240	0.296020
O131	O13	0.311610	0.798680	0.575760
O141	O14	0.526540	0.853710	0.504800
O151	O15	0.413280	0.053470	0.656400
O161	O16	0.315250	0.557950	0.606240
O171	O17	0.370880	0.547570	0.391520
O181	O18	0.093690	0.639780	0.296020
O191	O19	0.188390	0.222920	0.424240
O201	O20	0.973460	0.348910	0.495200
O211	O21	0.086720	0.397070	0.343600
O221	O22	0.184750	0.951710	0.393760
O231	O23	0.129120	0.156050	0.608480
O241	O24	0.406310	0.343760	0.703980
