data_CENJIQ_freeONLY_PM
_symmetry_space_group_name_H-M	'P1'
_cell_length_a	16.812800
_cell_length_b	16.812800
_cell_length_c	16.812800
_cell_angle_alpha	105.664000
_cell_angle_beta	105.664000
_cell_angle_gamma	105.664000
_symmetry_Int_Tables_number 1

loop_
_symmetry_equiv_pos_as_xyz
'x,y,z'

loop_
_atom_site_label
_atom_site_type_symbol
_atom_site_fract_x
_atom_site_fract_y
_atom_site_fract_z
Cu11	Cu1	0.434700	0.849920	0.613900
Cu21	Cu2	0.371320	0.767050	0.390070
Cu31	Cu3	0.287760	0.911940	0.485910
Cu41	Cu4	0.613900	0.434700	0.849920
Cu51	Cu5	0.390070	0.371320	0.767050
Cu61	Cu6	0.485910	0.287760	0.911940
Cu71	Cu7	0.849920	0.613900	0.434700
Cu81	Cu8	0.767050	0.390070	0.371320
Cu91	Cu9	0.911940	0.485910	0.287760
Cu101	Cu10	0.565300	0.150080	0.386100
Cu111	Cu11	0.628680	0.232950	0.609930
Cu121	Cu12	0.712240	0.088060	0.514090
Cu131	Cu13	0.386100	0.565300	0.150080
Cu141	Cu14	0.609930	0.628680	0.232950
Cu151	Cu15	0.514090	0.712240	0.088060
Cu161	Cu16	0.150080	0.386100	0.565300
Cu171	Cu17	0.232950	0.609930	0.628680
Cu181	Cu18	0.088060	0.514090	0.712240
H11	H1	0.577600	0.755900	0.650400
H21	H2	0.592500	0.646200	0.525600
H31	H3	0.483600	0.638800	0.384800
H41	H4	0.258400	0.737800	0.189400
H51	H5	0.153300	0.814400	0.155200
H61	H6	0.162400	0.910900	0.304600
H71	H7	0.234400	0.012500	0.644000
H81	H8	0.305600	0.024000	0.798600
H91	H9	0.416300	0.951400	0.796500
H101	H10	0.414200	0.651300	0.761800
H111	H11	0.378800	0.718500	0.815200
H121	H12	0.556600	0.745500	0.837500
H131	H13	0.526600	0.823300	0.882400
H141	H14	0.435200	0.913800	0.502900
H151	H15	0.650400	0.577600	0.755900
H161	H16	0.525600	0.592500	0.646200
H171	H17	0.384800	0.483600	0.638800
H181	H18	0.189400	0.258400	0.737800
H191	H19	0.155200	0.153300	0.814400
H201	H20	0.304600	0.162400	0.910900
H211	H21	0.644000	0.234400	0.012500
H221	H22	0.798600	0.305600	0.024000
H231	H23	0.796500	0.416300	0.951400
H241	H24	0.761800	0.414200	0.651300
H251	H25	0.815200	0.378800	0.718500
H261	H26	0.837500	0.556600	0.745500
H271	H27	0.882400	0.526600	0.823300
H281	H28	0.502900	0.435200	0.913800
H291	H29	0.755900	0.650400	0.577600
H301	H30	0.646200	0.525600	0.592500
H311	H31	0.638800	0.384800	0.483600
H321	H32	0.737800	0.189400	0.258400
H331	H33	0.814400	0.155200	0.153300
H341	H34	0.910900	0.304600	0.162400
H351	H35	0.012500	0.644000	0.234400
H361	H36	0.024000	0.798600	0.305600
H371	H37	0.951400	0.796500	0.416300
H381	H38	0.651300	0.761800	0.414200
H391	H39	0.718500	0.815200	0.378800
H401	H40	0.745500	0.837500	0.556600
H411	H41	0.823300	0.882400	0.526600
H421	H42	0.913800	0.502900	0.435200
H431	H43	0.422400	0.244100	0.349600
H441	H44	0.407500	0.353800	0.474400
H451	H45	0.516400	0.361200	0.615200
H461	H46	0.741600	0.262200	0.810600
H471	H47	0.846700	0.185600	0.844800
H481	H48	0.837600	0.089100	0.695400
H491	H49	0.765600	0.987500	0.356000
H501	H50	0.694400	0.976000	0.201400
H511	H51	0.583700	0.048600	0.203500
H521	H52	0.585800	0.348700	0.238200
H531	H53	0.621200	0.281500	0.184800
H541	H54	0.443400	0.254500	0.162500
H551	H55	0.473400	0.176700	0.117600
H561	H56	0.564800	0.086200	0.497100
H571	H57	0.349600	0.422400	0.244100
H581	H58	0.474400	0.407500	0.353800
H591	H59	0.615200	0.516400	0.361200
H601	H60	0.810600	0.741600	0.262200
H611	H61	0.844800	0.846700	0.185600
H621	H62	0.695400	0.837600	0.089100
H631	H63	0.356000	0.765600	0.987500
H641	H64	0.201400	0.694400	0.976000
H651	H65	0.203500	0.583700	0.048600
H661	H66	0.238200	0.585800	0.348700
H671	H67	0.184800	0.621200	0.281500
H681	H68	0.162500	0.443400	0.254500
H691	H69	0.117600	0.473400	0.176700
H701	H70	0.497100	0.564800	0.086200
H711	H71	0.244100	0.349600	0.422400
H721	H72	0.353800	0.474400	0.407500
H731	H73	0.361200	0.615200	0.516400
H741	H74	0.262200	0.810600	0.741600
H751	H75	0.185600	0.844800	0.846700
H761	H76	0.089100	0.695400	0.837600
H771	H77	0.987500	0.356000	0.765600
H781	H78	0.976000	0.201400	0.694400
H791	H79	0.048600	0.203500	0.583700
H801	H80	0.348700	0.238200	0.585800
H811	H81	0.281500	0.184800	0.621200
H821	H82	0.254500	0.162500	0.443400
H831	H83	0.176700	0.117600	0.473400
H841	H84	0.086200	0.497100	0.564800
C11	C1	0.545300	0.739300	0.588900
C21	C2	0.554100	0.678400	0.520700
C31	C3	0.493900	0.675100	0.443500
C41	C4	0.246100	0.777600	0.232100
C51	C5	0.188600	0.819600	0.212200
C61	C6	0.193700	0.872000	0.295400
C71	C7	0.278700	0.989600	0.663400
C81	C8	0.317700	0.996500	0.748300
C91	C9	0.377800	0.956100	0.746600
C101	C10	0.409300	0.751400	0.715500
C111	C11	0.424400	0.715100	0.788900
C121	C12	0.511300	0.758200	0.860800
C131	C13	0.514500	0.728100	0.936600
C141	C14	0.588900	0.545300	0.739300
C151	C15	0.520700	0.554100	0.678400
C161	C16	0.443500	0.493900	0.675100
C171	C17	0.232100	0.246100	0.777600
C181	C18	0.212200	0.188600	0.819600
C191	C19	0.295400	0.193700	0.872000
C201	C20	0.663400	0.278700	0.989600
C211	C21	0.748300	0.317700	0.996500
C221	C22	0.746600	0.377800	0.956100
C231	C23	0.715500	0.409300	0.751400
C241	C24	0.788900	0.424400	0.715100
C251	C25	0.860800	0.511300	0.758200
C261	C26	0.936600	0.514500	0.728100
C271	C27	0.739300	0.588900	0.545300
C281	C28	0.678400	0.520700	0.554100
C291	C29	0.675100	0.443500	0.493900
C301	C30	0.777600	0.232100	0.246100
C311	C31	0.819600	0.212200	0.188600
C321	C32	0.872000	0.295400	0.193700
C331	C33	0.989600	0.663400	0.278700
C341	C34	0.996500	0.748300	0.317700
C351	C35	0.956100	0.746600	0.377800
C361	C36	0.751400	0.715500	0.409300
C371	C37	0.715100	0.788900	0.424400
C381	C38	0.758200	0.860800	0.511300
C391	C39	0.728100	0.936600	0.514500
C401	C40	0.454700	0.260700	0.411100
C411	C41	0.445900	0.321600	0.479300
C421	C42	0.506100	0.324900	0.556500
C431	C43	0.753900	0.222400	0.767900
C441	C44	0.811400	0.180400	0.787800
C451	C45	0.806300	0.128000	0.704600
C461	C46	0.721300	0.010400	0.336600
C471	C47	0.682300	0.003500	0.251700
C481	C48	0.622200	0.043900	0.253400
C491	C49	0.590700	0.248600	0.284500
C501	C50	0.575600	0.284900	0.211100
C511	C51	0.488700	0.241800	0.139200
C521	C52	0.485500	0.271900	0.063400
C531	C53	0.411100	0.454700	0.260700
C541	C54	0.479300	0.445900	0.321600
C551	C55	0.556500	0.506100	0.324900
C561	C56	0.767900	0.753900	0.222400
C571	C57	0.787800	0.811400	0.180400
C581	C58	0.704600	0.806300	0.128000
C591	C59	0.336600	0.721300	0.010400
C601	C60	0.251700	0.682300	0.003500
C611	C61	0.253400	0.622200	0.043900
C621	C62	0.284500	0.590700	0.248600
C631	C63	0.211100	0.575600	0.284900
C641	C64	0.139200	0.488700	0.241800
C651	C65	0.063400	0.485500	0.271900
C661	C66	0.260700	0.411100	0.454700
C671	C67	0.321600	0.479300	0.445900
C681	C68	0.324900	0.556500	0.506100
C691	C69	0.222400	0.767900	0.753900
C701	C70	0.180400	0.787800	0.811400
C711	C71	0.128000	0.704600	0.806300
C721	C72	0.010400	0.336600	0.721300
C731	C73	0.003500	0.251700	0.682300
C741	C74	0.043900	0.253400	0.622200
C751	C75	0.248600	0.284500	0.590700
C761	C76	0.284900	0.211100	0.575600
C771	C77	0.241800	0.139200	0.488700
C781	C78	0.271900	0.063400	0.485500
N11	N1	0.484700	0.771500	0.555500
N21	N2	0.452600	0.731500	0.465300
N31	N3	0.282900	0.800600	0.320800
N41	N4	0.248600	0.859000	0.358800
N51	N5	0.312900	0.945000	0.611100
N61	N6	0.373300	0.924100	0.661900
N71	N7	0.555500	0.484700	0.771500
N81	N8	0.465300	0.452600	0.731500
N91	N9	0.320800	0.282900	0.800600
N101	N10	0.358800	0.248600	0.859000
N111	N11	0.611100	0.312900	0.945000
N121	N12	0.661900	0.373300	0.924100
N131	N13	0.771500	0.555500	0.484700
N141	N14	0.731500	0.465300	0.452600
N151	N15	0.800600	0.320800	0.282900
N161	N16	0.859000	0.358800	0.248600
N171	N17	0.945000	0.611100	0.312900
N181	N18	0.924100	0.661900	0.373300
N191	N19	0.515300	0.228500	0.444500
N201	N20	0.547400	0.268500	0.534700
N211	N21	0.717100	0.199400	0.679200
N221	N22	0.751400	0.141000	0.641200
N231	N23	0.687100	0.055000	0.388900
N241	N24	0.626700	0.075900	0.338100
N251	N25	0.444500	0.515300	0.228500
N261	N26	0.534700	0.547400	0.268500
N271	N27	0.679200	0.717100	0.199400
N281	N28	0.641200	0.751400	0.141000
N291	N29	0.388900	0.687100	0.055000
N301	N30	0.338100	0.626700	0.075900
N311	N31	0.228500	0.444500	0.515300
N321	N32	0.268500	0.534700	0.547400
N331	N33	0.199400	0.679200	0.717100
N341	N34	0.141000	0.641200	0.751400
N351	N35	0.055000	0.388900	0.687100
N361	N36	0.075900	0.338100	0.626700
O11	O1	0.469700	0.819200	0.722000
O21	O2	0.336000	0.714700	0.649700
O31	O3	0.526300	0.784900	0.011700
O41	O4	0.503700	0.650000	0.925600
O51	O5	0.384100	0.863300	0.498300
O61	O6	0.722000	0.469700	0.819200
O71	O7	0.649700	0.336000	0.714700
O81	O8	0.011700	0.526300	0.784900
O91	O9	0.925600	0.503700	0.650000
O101	O10	0.498300	0.384100	0.863300
O111	O11	0.819200	0.722000	0.469700
O121	O12	0.714700	0.649700	0.336000
O131	O13	0.784900	0.011700	0.526300
O141	O14	0.650000	0.925600	0.503700
O151	O15	0.863300	0.498300	0.384100
O161	O16	0.530300	0.180800	0.278000
O171	O17	0.664000	0.285300	0.350300
O181	O18	0.473700	0.215100	0.988300
O191	O19	0.496300	0.350000	0.074400
O201	O20	0.615900	0.136700	0.501700
O211	O21	0.278000	0.530300	0.180800
O221	O22	0.350300	0.664000	0.285300
O231	O23	0.988300	0.473700	0.215100
O241	O24	0.074400	0.496300	0.350000
O251	O25	0.501700	0.615900	0.136700
O261	O26	0.180800	0.278000	0.530300
O271	O27	0.285300	0.350300	0.664000
O281	O28	0.215100	0.988300	0.473700
O291	O29	0.350000	0.074400	0.496300
O301	O30	0.136700	0.501700	0.615900
