data_CENKAJ_freeONLY_PM
_symmetry_space_group_name_H-M	'P1'
_cell_length_a	16.758500
_cell_length_b	16.758500
_cell_length_c	16.758500
_cell_angle_alpha	105.192000
_cell_angle_beta	105.192000
_cell_angle_gamma	105.192000
_symmetry_Int_Tables_number 1

loop_
_symmetry_equiv_pos_as_xyz
'x,y,z'

loop_
_atom_site_label
_atom_site_type_symbol
_atom_site_fract_x
_atom_site_fract_y
_atom_site_fract_z
Cu11	Cu1	0.432890	0.847480	0.608850
Cu21	Cu2	0.368060	0.764210	0.387830
Cu31	Cu3	0.284780	0.908290	0.484680
Cu41	Cu4	0.608850	0.432890	0.847480
Cu51	Cu5	0.387830	0.368060	0.764210
Cu61	Cu6	0.484680	0.284780	0.908290
Cu71	Cu7	0.847480	0.608850	0.432890
Cu81	Cu8	0.764210	0.387830	0.368060
Cu91	Cu9	0.908290	0.484680	0.284780
Cu101	Cu10	0.567110	0.152520	0.391150
Cu111	Cu11	0.631940	0.235790	0.612170
Cu121	Cu12	0.715220	0.091710	0.515320
Cu131	Cu13	0.391150	0.567110	0.152520
Cu141	Cu14	0.612170	0.631940	0.235790
Cu151	Cu15	0.515320	0.715220	0.091710
Cu161	Cu16	0.152520	0.391150	0.567110
Cu171	Cu17	0.235790	0.612170	0.631940
Cu181	Cu18	0.091710	0.515320	0.715220
H11	H1	0.576500	0.757900	0.643500
H21	H2	0.590800	0.646100	0.521100
H31	H3	0.482300	0.637900	0.383400
H41	H4	0.262500	0.739400	0.187300
H51	H5	0.170700	0.834200	0.157000
H61	H6	0.169700	0.917300	0.303800
H71	H7	0.247300	0.023500	0.645900
H81	H8	0.330700	0.038400	0.799900
H91	H9	0.428900	0.954700	0.794100
H101	H10	0.413400	0.660600	0.771000
H111	H11	0.385400	0.734300	0.821600
H121	H12	0.554400	0.745800	0.837900
H131	H13	0.528800	0.823700	0.885500
H141	H14	0.423800	0.902900	0.495800
H151	H15	0.643500	0.576500	0.757900
H161	H16	0.521100	0.590800	0.646100
H171	H17	0.383400	0.482300	0.637900
H181	H18	0.187300	0.262500	0.739400
H191	H19	0.157000	0.170700	0.834200
H201	H20	0.303800	0.169700	0.917300
H211	H21	0.645900	0.247300	0.023500
H221	H22	0.799900	0.330700	0.038400
H231	H23	0.794100	0.428900	0.954700
H241	H24	0.771000	0.413400	0.660600
H251	H25	0.821600	0.385400	0.734300
H261	H26	0.837900	0.554400	0.745800
H271	H27	0.885500	0.528800	0.823700
H281	H28	0.495800	0.423800	0.902900
H291	H29	0.757900	0.643500	0.576500
H301	H30	0.646100	0.521100	0.590800
H311	H31	0.637900	0.383400	0.482300
H321	H32	0.739400	0.187300	0.262500
H331	H33	0.834200	0.157000	0.170700
H341	H34	0.917300	0.303800	0.169700
H351	H35	0.023500	0.645900	0.247300
H361	H36	0.038400	0.799900	0.330700
H371	H37	0.954700	0.794100	0.428900
H381	H38	0.660600	0.771000	0.413400
H391	H39	0.734300	0.821600	0.385400
H401	H40	0.745800	0.837900	0.554400
H411	H41	0.823700	0.885500	0.528800
H421	H42	0.902900	0.495800	0.423800
H431	H43	0.423500	0.242100	0.356500
H441	H44	0.409200	0.353900	0.478900
H451	H45	0.517700	0.362100	0.616600
H461	H46	0.737500	0.260600	0.812700
H471	H47	0.829300	0.165800	0.843000
H481	H48	0.830300	0.082700	0.696200
H491	H49	0.752700	0.976500	0.354100
H501	H50	0.669300	0.961600	0.200100
H511	H51	0.571100	0.045300	0.205900
H521	H52	0.586600	0.339400	0.229000
H531	H53	0.614600	0.265700	0.178400
H541	H54	0.445600	0.254200	0.162100
H551	H55	0.471200	0.176300	0.114500
H561	H56	0.576200	0.097100	0.504200
H571	H57	0.356500	0.423500	0.242100
H581	H58	0.478900	0.409200	0.353900
H591	H59	0.616600	0.517700	0.362100
H601	H60	0.812700	0.737500	0.260600
H611	H61	0.843000	0.829300	0.165800
H621	H62	0.696200	0.830300	0.082700
H631	H63	0.354100	0.752700	0.976500
H641	H64	0.200100	0.669300	0.961600
H651	H65	0.205900	0.571100	0.045300
H661	H66	0.229000	0.586600	0.339400
H671	H67	0.178400	0.614600	0.265700
H681	H68	0.162100	0.445600	0.254200
H691	H69	0.114500	0.471200	0.176300
H701	H70	0.504200	0.576200	0.097100
H711	H71	0.242100	0.356500	0.423500
H721	H72	0.353900	0.478900	0.409200
H731	H73	0.362100	0.616600	0.517700
H741	H74	0.260600	0.812700	0.737500
H751	H75	0.165800	0.843000	0.829300
H761	H76	0.082700	0.696200	0.830300
H771	H77	0.976500	0.354100	0.752700
H781	H78	0.961600	0.200100	0.669300
H791	H79	0.045300	0.205900	0.571100
H801	H80	0.339400	0.229000	0.586600
H811	H81	0.265700	0.178400	0.614600
H821	H82	0.254200	0.162100	0.445600
H831	H83	0.176300	0.114500	0.471200
H841	H84	0.097100	0.504200	0.576200
C11	C1	0.543700	0.740100	0.583700
C21	C2	0.552800	0.677600	0.515900
C31	C3	0.493100	0.673600	0.440700
C41	C4	0.252300	0.780500	0.229000
C51	C5	0.199800	0.832200	0.211500
C61	C6	0.201400	0.879700	0.295000
C71	C7	0.289400	0.998400	0.662200
C81	C8	0.336800	0.006300	0.748800
C91	C9	0.391300	0.961200	0.746300
C101	C10	0.412000	0.755000	0.715200
C111	C11	0.428000	0.724100	0.794300
C121	C12	0.511300	0.759800	0.862500
C131	C13	0.513600	0.726700	0.936800
C141	C14	0.583700	0.543700	0.740100
C151	C15	0.515900	0.552800	0.677600
C161	C16	0.440700	0.493100	0.673600
C171	C17	0.229000	0.252300	0.780500
C181	C18	0.211500	0.199800	0.832200
C191	C19	0.295000	0.201400	0.879700
C201	C20	0.662200	0.289400	0.998400
C211	C21	0.748800	0.336800	0.006300
C221	C22	0.746300	0.391300	0.961200
C231	C23	0.715200	0.412000	0.755000
C241	C24	0.794300	0.428000	0.724100
C251	C25	0.862500	0.511300	0.759800
C261	C26	0.936800	0.513600	0.726700
C271	C27	0.740100	0.583700	0.543700
C281	C28	0.677600	0.515900	0.552800
C291	C29	0.673600	0.440700	0.493100
C301	C30	0.780500	0.229000	0.252300
C311	C31	0.832200	0.211500	0.199800
C321	C32	0.879700	0.295000	0.201400
C331	C33	0.998400	0.662200	0.289400
C341	C34	0.006300	0.748800	0.336800
C351	C35	0.961200	0.746300	0.391300
C361	C36	0.755000	0.715200	0.412000
C371	C37	0.724100	0.794300	0.428000
C381	C38	0.759800	0.862500	0.511300
C391	C39	0.726700	0.936800	0.513600
C401	C40	0.456300	0.259900	0.416300
C411	C41	0.447200	0.322400	0.484100
C421	C42	0.506900	0.326400	0.559300
C431	C43	0.747700	0.219500	0.771000
C441	C44	0.800200	0.167800	0.788500
C451	C45	0.798600	0.120300	0.705000
C461	C46	0.710600	0.001600	0.337800
C471	C47	0.663200	0.993700	0.251200
C481	C48	0.608700	0.038800	0.253700
C491	C49	0.588000	0.245000	0.284800
C501	C50	0.572000	0.275900	0.205700
C511	C51	0.488700	0.240200	0.137500
C521	C52	0.486400	0.273300	0.063200
C531	C53	0.416300	0.456300	0.259900
C541	C54	0.484100	0.447200	0.322400
C551	C55	0.559300	0.506900	0.326400
C561	C56	0.771000	0.747700	0.219500
C571	C57	0.788500	0.800200	0.167800
C581	C58	0.705000	0.798600	0.120300
C591	C59	0.337800	0.710600	0.001600
C601	C60	0.251200	0.663200	0.993700
C611	C61	0.253700	0.608700	0.038800
C621	C62	0.284800	0.588000	0.245000
C631	C63	0.205700	0.572000	0.275900
C641	C64	0.137500	0.488700	0.240200
C651	C65	0.063200	0.486400	0.273300
C661	C66	0.259900	0.416300	0.456300
C671	C67	0.322400	0.484100	0.447200
C681	C68	0.326400	0.559300	0.506900
C691	C69	0.219500	0.771000	0.747700
C701	C70	0.167800	0.788500	0.800200
C711	C71	0.120300	0.705000	0.798600
C721	C72	0.001600	0.337800	0.710600
C731	C73	0.993700	0.251200	0.663200
C741	C74	0.038800	0.253700	0.608700
C751	C75	0.245000	0.284800	0.588000
C761	C76	0.275900	0.205700	0.572000
C771	C77	0.240200	0.137500	0.488700
C781	C78	0.273300	0.063200	0.486400
N11	N1	0.483100	0.770000	0.551400
N21	N2	0.452500	0.730600	0.464200
N31	N3	0.284700	0.802500	0.318000
N41	N4	0.255200	0.864200	0.362300
N51	N5	0.316800	0.947700	0.608700
N61	N6	0.381300	0.928200	0.663600
N71	N7	0.551400	0.483100	0.770000
N81	N8	0.464200	0.452500	0.730600
N91	N9	0.318000	0.284700	0.802500
N101	N10	0.362300	0.255200	0.864200
N111	N11	0.608700	0.316800	0.947700
N121	N12	0.663600	0.381300	0.928200
N131	N13	0.770000	0.551400	0.483100
N141	N14	0.730600	0.464200	0.452500
N151	N15	0.802500	0.318000	0.284700
N161	N16	0.864200	0.362300	0.255200
N171	N17	0.947700	0.608700	0.316800
N181	N18	0.928200	0.663600	0.381300
N191	N19	0.516900	0.230000	0.448600
N201	N20	0.547500	0.269400	0.535800
N211	N21	0.715300	0.197500	0.682000
N221	N22	0.744800	0.135800	0.637700
N231	N23	0.683200	0.052300	0.391300
N241	N24	0.618700	0.071800	0.336400
N251	N25	0.448600	0.516900	0.230000
N261	N26	0.535800	0.547500	0.269400
N271	N27	0.682000	0.715300	0.197500
N281	N28	0.637700	0.744800	0.135800
N291	N29	0.391300	0.683200	0.052300
N301	N30	0.336400	0.618700	0.071800
N311	N31	0.230000	0.448600	0.516900
N321	N32	0.269400	0.535800	0.547500
N331	N33	0.197500	0.682000	0.715300
N341	N34	0.135800	0.637700	0.744800
N351	N35	0.052300	0.391300	0.683200
N361	N36	0.071800	0.336400	0.618700
O11	O1	0.472400	0.821500	0.718500
O21	O2	0.339500	0.718900	0.653700
O31	O3	0.523500	0.781200	0.010400
O41	O4	0.510400	0.652100	0.926400
O51	O5	0.383300	0.861800	0.493100
O61	O6	0.718500	0.472400	0.821500
O71	O7	0.653700	0.339500	0.718900
O81	O8	0.010400	0.523500	0.781200
O91	O9	0.926400	0.510400	0.652100
O101	O10	0.493100	0.383300	0.861800
O111	O11	0.821500	0.718500	0.472400
O121	O12	0.718900	0.653700	0.339500
O131	O13	0.781200	0.010400	0.523500
O141	O14	0.652100	0.926400	0.510400
O151	O15	0.861800	0.493100	0.383300
O161	O16	0.527600	0.178500	0.281500
O171	O17	0.660500	0.281100	0.346300
O181	O18	0.476500	0.218800	0.989600
O191	O19	0.489600	0.347900	0.073600
O201	O20	0.616700	0.138200	0.506900
O211	O21	0.281500	0.527600	0.178500
O221	O22	0.346300	0.660500	0.281100
O231	O23	0.989600	0.476500	0.218800
O241	O24	0.073600	0.489600	0.347900
O251	O25	0.506900	0.616700	0.138200
O261	O26	0.178500	0.281500	0.527600
O271	O27	0.281100	0.346300	0.660500
O281	O28	0.218800	0.989600	0.476500
O291	O29	0.347900	0.073600	0.489600
O301	O30	0.138200	0.506900	0.616700
