data_CENPUI_freeONLY_PM
_symmetry_space_group_name_H-M	'P1'
_cell_length_a	8.431900
_cell_length_b	12.825100
_cell_length_c	20.924000
_cell_angle_alpha	73.462000
_cell_angle_beta	84.692000
_cell_angle_gamma	78.307000
_symmetry_Int_Tables_number 1

loop_
_symmetry_equiv_pos_as_xyz
'x,y,z'

loop_
_atom_site_label
_atom_site_type_symbol
_atom_site_fract_x
_atom_site_fract_y
_atom_site_fract_z
Mg11	Mg1	0.433970	0.829940	0.000530
Mg21	Mg2	0.566030	0.170060	0.999470
Mg31	Mg3	0.000000	0.000000	0.000000
H11	H1	0.132700	0.184200	0.979700
H21	H2	0.227400	0.079200	0.025200
H31	H3	0.584300	0.047000	0.187700
H41	H4	0.354900	0.746300	0.305100
H51	H5	0.351100	0.801500	0.190700
H61	H6	0.160000	0.706000	0.742000
H71	H7	0.930800	0.528700	0.750100
H81	H8	0.607000	0.984100	0.300800
H91	H9	0.015400	0.792800	0.629000
H101	H10	0.650700	0.803300	0.767700
H111	H11	0.134000	0.160200	0.853700
H121	H12	0.488500	0.748200	0.705000
H131	H13	0.448600	0.414800	0.771400
H141	H14	0.308300	0.725700	0.824400
H151	H15	0.951600	0.969000	0.858600
H161	H16	0.621700	0.521400	0.705000
H171	H17	0.099700	0.555100	0.638100
H181	H18	0.300700	0.265800	0.781100
H191	H19	0.270900	0.665700	0.572900
H201	H20	0.574300	0.577300	0.504900
H211	H21	0.798500	0.946200	0.778900
H221	H22	0.766700	0.424600	0.825800
H231	H23	0.528500	0.887000	0.523300
H241	H24	0.855600	0.733800	0.566800
H251	H25	0.496100	0.957800	0.409700
H261	H26	0.533800	0.648700	0.392800
H271	H27	0.872300	0.449000	0.937100
H281	H28	0.910400	0.415400	0.013000
H291	H29	0.742800	0.404500	0.991300
H301	H30	0.867300	0.815800	0.020300
H311	H31	0.772600	0.920800	0.974800
H321	H32	0.415700	0.953000	0.812300
H331	H33	0.645100	0.253700	0.694900
H341	H34	0.648900	0.198500	0.809300
H351	H35	0.840000	0.294000	0.258000
H361	H36	0.069200	0.471300	0.249900
H371	H37	0.393000	0.015900	0.699200
H381	H38	0.984600	0.207200	0.371000
H391	H39	0.349300	0.196700	0.232300
H401	H40	0.866000	0.839800	0.146300
H411	H41	0.511500	0.251800	0.295000
H421	H42	0.551400	0.585200	0.228600
H431	H43	0.691700	0.274300	0.175600
H441	H44	0.048400	0.031000	0.141400
H451	H45	0.378300	0.478600	0.295000
H461	H46	0.900300	0.444900	0.361900
H471	H47	0.699300	0.734200	0.218900
H481	H48	0.729100	0.334300	0.427100
H491	H49	0.425700	0.422700	0.495100
H501	H50	0.201500	0.053800	0.221100
H511	H51	0.233300	0.575400	0.174200
H521	H52	0.471500	0.113000	0.476700
H531	H53	0.144400	0.266200	0.433200
H541	H54	0.503900	0.042200	0.590300
H551	H55	0.466200	0.351300	0.607200
H561	H56	0.127700	0.551000	0.062900
H571	H57	0.089600	0.584600	0.987000
H581	H58	0.257200	0.595500	0.008700
C11	C1	0.542500	0.984500	0.211200
C21	C2	0.467900	0.929900	0.176500
C31	C3	0.406300	0.804100	0.281300
C41	C4	0.400500	0.839000	0.212900
C51	C5	0.835600	0.213800	0.903600
C61	C6	0.489300	0.854900	0.315700
C71	C7	0.116700	0.756400	0.766200
C81	C8	0.960600	0.821200	0.752700
C91	C9	0.250600	0.475200	0.713700
C101	C10	0.972200	0.455500	0.772000
C111	C11	0.934900	0.282100	0.850300
C121	C12	0.234200	0.846300	0.910700
C131	C13	0.854300	0.798800	0.707400
C141	C14	0.465300	0.966800	0.102000
C151	C15	0.140200	0.843900	0.853000
C161	C16	0.463200	0.609400	0.633300
C171	C17	0.554900	0.947600	0.278900
C181	C18	0.912200	0.781000	0.645100
C191	C19	0.692700	0.787600	0.728100
C201	C20	0.136800	0.409100	0.758400
C211	C21	0.095000	0.234800	0.834200
C221	C22	0.595100	0.753900	0.690900
C231	C23	0.411800	0.465800	0.731800
C241	C24	0.205300	0.768100	0.815800
C251	C25	0.990100	0.914300	0.836900
C261	C26	0.553200	0.724900	0.526600
C271	C27	0.515900	0.530500	0.692300
C281	C28	0.202700	0.549800	0.652700
C291	C29	0.659200	0.728400	0.631400
C301	C30	0.194700	0.297800	0.789900
C311	C31	0.306200	0.616200	0.613100
C321	C32	0.556600	0.653500	0.486100
C331	C33	0.899900	0.901700	0.788400
C341	C34	0.873200	0.393200	0.817300
C351	C35	0.510400	0.811000	0.388600
C361	C36	0.530200	0.839200	0.497000
C371	C37	0.816000	0.745800	0.607600
C381	C38	0.510000	0.881700	0.428800
C391	C39	0.533800	0.696500	0.418900
C401	C40	0.688500	0.615200	0.012200
C411	C41	0.827100	0.447700	0.981100
C421	C42	0.457500	0.015500	0.788800
C431	C43	0.532100	0.070100	0.823500
C441	C44	0.593700	0.195900	0.718700
C451	C45	0.599500	0.161000	0.787100
C461	C46	0.164400	0.786200	0.096400
C471	C47	0.510700	0.145100	0.684300
C481	C48	0.883300	0.243600	0.233800
C491	C49	0.039400	0.178800	0.247300
C501	C50	0.749400	0.524800	0.286300
C511	C51	0.027800	0.544500	0.228000
C521	C52	0.065100	0.717900	0.149700
C531	C53	0.765800	0.153700	0.089300
C541	C54	0.145700	0.201200	0.292600
C551	C55	0.534700	0.033200	0.898000
C561	C56	0.859800	0.156100	0.147000
C571	C57	0.536800	0.390600	0.366700
C581	C58	0.445100	0.052400	0.721100
C591	C59	0.087800	0.219000	0.354900
C601	C60	0.307300	0.212400	0.271900
C611	C61	0.863200	0.590900	0.241600
C621	C62	0.905000	0.765200	0.165800
C631	C63	0.404900	0.246100	0.309100
C641	C64	0.588200	0.534200	0.268200
C651	C65	0.794700	0.231900	0.184200
C661	C66	0.009900	0.085700	0.163100
C671	C67	0.446800	0.275100	0.473400
C681	C68	0.484100	0.469500	0.307700
C691	C69	0.797300	0.450200	0.347300
C701	C70	0.340800	0.271600	0.368600
C711	C71	0.805300	0.702200	0.210100
C721	C72	0.693800	0.383800	0.386900
C731	C73	0.443400	0.346500	0.513900
C741	C74	0.100100	0.098300	0.211600
C751	C75	0.126800	0.606800	0.182700
C761	C76	0.489600	0.189000	0.611400
C771	C77	0.469800	0.160800	0.503000
C781	C78	0.184000	0.254200	0.392400
C791	C79	0.490000	0.118300	0.571200
C801	C80	0.466200	0.303500	0.581100
C811	C81	0.311500	0.384800	0.987800
C821	C82	0.172900	0.552300	0.018900
N11	N1	0.566300	0.682300	0.596460
N21	N2	0.760200	0.559700	0.984100
N31	N3	0.433700	0.317700	0.403540
N41	N4	0.239800	0.440300	0.015900
O11	O1	0.641100	0.709800	0.014640
O21	O2	0.150400	0.111800	0.001630
O31	O3	0.359400	0.771300	0.926750
O41	O4	0.189100	0.922100	0.941200
O51	O5	0.706900	0.262200	0.926870
O61	O6	0.890800	0.108900	0.920810
O71	O7	0.441800	0.070000	0.074500
O81	O8	0.485300	0.891600	0.072340
O91	O9	0.358900	0.290200	0.985360
O101	O10	0.849600	0.888200	0.998370
O111	O11	0.640600	0.228700	0.073250
O121	O12	0.810900	0.077900	0.058800
O131	O13	0.293100	0.737800	0.073130
O141	O14	0.109200	0.891100	0.079190
O151	O15	0.558200	0.930000	0.925500
O161	O16	0.514700	0.108400	0.927660
