data_CEQBUV_charged_PM
_symmetry_space_group_name_H-M	'P1'
_cell_length_a	9.241100
_cell_length_b	19.528500
_cell_length_c	19.528500
_cell_angle_alpha	62.439900
_cell_angle_beta	80.924500
_cell_angle_gamma	99.075500
_symmetry_Int_Tables_number 1

loop_
_symmetry_equiv_pos_as_xyz
'x,y,z'

loop_
_atom_site_label
_atom_site_type_symbol
_atom_site_fract_x
_atom_site_fract_y
_atom_site_fract_z
Zn11	Zn1	0.083440	0.662770	0.510780
Zn21	Zn2	0.661870	0.592130	0.495790
Zn31	Zn3	0.083090	0.667830	0.787850
Zn41	Zn4	0.594220	0.510780	0.826450
Zn51	Zn5	0.157660	0.495790	0.912080
Zn61	Zn6	0.870940	0.787850	0.544320
Zn71	Zn7	0.420670	0.826450	0.662770
Zn81	Zn8	0.069740	0.912080	0.592130
Zn91	Zn9	0.415260	0.544320	0.667830
Zn101	Zn10	0.916560	0.337230	0.489220
Zn111	Zn11	0.338130	0.407870	0.504210
Zn121	Zn12	0.916910	0.332170	0.212150
Zn131	Zn13	0.405780	0.489220	0.173550
Zn141	Zn14	0.842340	0.504210	0.087920
Zn151	Zn15	0.129060	0.212150	0.455680
Zn161	Zn16	0.579330	0.173550	0.337230
Zn171	Zn17	0.930260	0.087920	0.407870
Zn181	Zn18	0.584740	0.455680	0.332170
P11	P1	0.170810	0.767670	0.593240
P21	P2	0.293990	0.550400	0.526030
P31	P3	0.903060	0.760050	0.400370
P41	P4	0.764050	0.593240	0.639090
P51	P5	0.820020	0.526030	0.923570
P61	P6	0.303430	0.400370	0.839580
P71	P7	0.403140	0.639090	0.767670
P81	P8	0.743590	0.923570	0.550400
P91	P9	0.143010	0.839580	0.760050
P101	P10	0.829190	0.232330	0.406760
P111	P11	0.706010	0.449600	0.473970
P121	P12	0.096940	0.239950	0.599630
P131	P13	0.235950	0.406760	0.360910
P141	P14	0.179980	0.473970	0.076430
P151	P15	0.696570	0.599630	0.160420
P161	P16	0.596860	0.360910	0.232330
P171	P17	0.256410	0.076430	0.449600
P181	P18	0.856990	0.160420	0.239950
H11	H1	0.917300	0.788400	0.286400
H21	H2	0.203700	0.286400	0.925200
H31	H3	0.128900	0.925200	0.788400
H41	H4	0.082700	0.211600	0.713600
H51	H5	0.796300	0.713600	0.074800
H61	H6	0.871100	0.074800	0.211600
O11	O1	0.460900	0.583500	0.480800
O21	O2	0.202000	0.605400	0.477800
O31	O3	0.103500	0.700200	0.678500
O41	O4	0.925600	0.817400	0.432400
O51	O5	0.927200	0.816100	0.307500
O61	O6	0.233300	0.467000	0.538000
O71	O7	0.195900	0.736300	0.535200
O81	O8	0.019500	0.710700	0.413600
O91	O9	0.269200	0.545500	0.607800
O101	O10	0.323300	0.820900	0.583200
O111	O11	0.063100	0.823200	0.567200
O121	O12	0.741100	0.707700	0.435500
O131	O13	0.941700	0.480800	0.935700
O141	O14	0.679800	0.477800	0.916800
O151	O15	0.782000	0.678500	0.621300
O161	O16	0.358000	0.432400	0.750200
O171	O17	0.234700	0.307500	0.876400
O181	O18	0.771300	0.538000	0.995000
O191	O19	0.731100	0.535200	0.728500
O201	O20	0.433100	0.413600	0.875700
O211	O21	0.877000	0.607800	0.846700
O221	O22	0.906500	0.583200	0.595900
O231	O23	0.630300	0.567200	0.609600
O241	O24	0.176600	0.435500	0.856800
O251	O25	0.877400	0.935700	0.583500
O261	O26	0.596600	0.916800	0.605400
O271	O27	0.403300	0.621300	0.700200
O281	O28	0.108200	0.750200	0.817400
O291	O29	0.111100	0.876400	0.816100
O301	O30	0.766300	0.995000	0.467000
O311	O31	0.459600	0.728500	0.736300
O321	O32	0.308800	0.875700	0.710700
O331	O33	0.723700	0.846700	0.545500
O341	O34	0.502400	0.595900	0.820900
O351	O35	0.239900	0.609600	0.823200
O361	O36	0.033400	0.856800	0.707700
O371	O37	0.539100	0.416500	0.519200
O381	O38	0.798000	0.394600	0.522200
O391	O39	0.896500	0.299800	0.321500
O401	O40	0.074400	0.182600	0.567600
O411	O41	0.072800	0.183900	0.692500
O421	O42	0.766700	0.533000	0.462000
O431	O43	0.804100	0.263700	0.464800
O441	O44	0.980500	0.289300	0.586400
O451	O45	0.730800	0.454500	0.392200
O461	O46	0.676700	0.179100	0.416800
O471	O47	0.936900	0.176800	0.432800
O481	O48	0.258900	0.292300	0.564500
O491	O49	0.058300	0.519200	0.064300
O501	O50	0.320200	0.522200	0.083200
O511	O51	0.218000	0.321500	0.378700
O521	O52	0.642000	0.567600	0.249800
O531	O53	0.765300	0.692500	0.123600
O541	O54	0.228700	0.462000	0.005000
O551	O55	0.268900	0.464800	0.271500
O561	O56	0.566900	0.586400	0.124300
O571	O57	0.123000	0.392200	0.153300
O581	O58	0.093500	0.416800	0.404100
O591	O59	0.369700	0.432800	0.390400
O601	O60	0.823400	0.564500	0.143200
O611	O61	0.122600	0.064300	0.416500
O621	O62	0.403400	0.083200	0.394600
O631	O63	0.596700	0.378700	0.299800
O641	O64	0.891800	0.249800	0.182600
O651	O65	0.888900	0.123600	0.183900
O661	O66	0.233700	0.005000	0.533000
O671	O67	0.540400	0.271500	0.263700
O681	O68	0.691200	0.124300	0.289300
O691	O69	0.276300	0.153300	0.454500
O701	O70	0.497600	0.404100	0.179100
O711	O71	0.760100	0.390400	0.176800
O721	O72	0.966600	0.143200	0.292300
H71	H7	0.084100	0.506400	0.685100
H81	H8	0.052800	0.475600	0.787200
H91	H9	0.908500	0.501000	0.738500
H101	H10	0.860900	0.414900	0.591200
H111	H11	0.936200	0.489200	0.604600
H121	H12	0.027900	0.420900	0.612200
H131	H13	0.032300	0.367200	0.756500
H141	H14	0.754500	0.397800	0.722000
H151	H15	0.725700	0.286300	0.705900
H161	H16	0.875300	0.271700	0.732100
H171	H17	0.667900	0.188900	0.843100
H181	H18	0.606800	0.262900	0.832500
H191	H19	0.730300	0.230700	0.933800
H201	H20	0.876600	0.233300	0.878500
H211	H21	0.914600	0.348000	0.884300
H221	H22	0.767100	0.364800	0.857000
C11	C1	0.945500	0.388900	0.762600
C21	C2	0.843600	0.378900	0.712100
C31	C3	0.789000	0.292800	0.738800
C41	C4	0.698000	0.245400	0.826400
C51	C5	0.792400	0.257300	0.879100
C61	C6	0.852000	0.342200	0.851200
N11	N1	0.001700	0.473900	0.742000
N21	N2	0.923100	0.429300	0.623000
H231	H23	0.769200	0.685100	0.808500
H241	H24	0.840000	0.787200	0.737200
H251	H25	0.647000	0.738500	0.760500
H261	H26	0.452100	0.591200	0.993900
H271	H27	0.540800	0.604600	0.906200
H281	H28	0.640100	0.612200	0.966900
H291	H29	0.788800	0.756500	0.876300
H301	H30	0.476500	0.722000	0.880200
H311	H31	0.431600	0.705900	0.007800
H321	H32	0.607400	0.732100	0.996200
H331	H33	0.511000	0.843100	0.968000
H341	H34	0.439300	0.832500	0.904600
H351	H35	0.664100	0.933800	0.835500
H361	H36	0.755100	0.878500	0.888200
H371	H37	0.798900	0.884300	0.767700
H381	H38	0.624100	0.857000	0.778200
C71	C7	0.708100	0.762600	0.848500
C81	C8	0.555700	0.712100	0.909000
C91	C9	0.527800	0.738800	0.968400
C101	C10	0.524400	0.826400	0.928200
C111	C11	0.671500	0.879100	0.863600
C121	C12	0.703200	0.851200	0.806600
N31	N3	0.743700	0.742000	0.784100
N41	N4	0.546100	0.623000	0.947700
H391	H39	0.577700	0.808500	0.506400
H401	H40	0.577200	0.737200	0.475600
H411	H41	0.407500	0.760500	0.501000
H421	H42	0.446000	0.993900	0.414900
H431	H43	0.447000	0.906200	0.489200
H441	H44	0.607000	0.966900	0.420900
H451	H45	0.665100	0.876300	0.367200
H461	H46	0.356700	0.880200	0.397800
H471	H47	0.439400	0.007800	0.286300
H481	H48	0.603600	0.996200	0.271700
H491	H49	0.479000	0.968000	0.188900
H501	H50	0.343900	0.904600	0.262900
H511	H51	0.499600	0.835500	0.230700
H521	H52	0.643300	0.888200	0.233300
H531	H53	0.566600	0.767700	0.348000
H541	H54	0.402300	0.778200	0.364800
C131	C13	0.556600	0.848500	0.388900
C141	C14	0.464700	0.909000	0.378900
C151	C15	0.496200	0.968400	0.292800
C161	C16	0.452600	0.928200	0.245400
C171	C17	0.535100	0.863600	0.257300
C181	C18	0.509800	0.806600	0.342200
N51	N5	0.527800	0.784100	0.473900
N61	N6	0.493800	0.947700	0.429300
H551	H55	0.915900	0.493600	0.314900
H561	H56	0.947200	0.524400	0.212800
H571	H57	0.091500	0.499000	0.261500
H581	H58	0.139100	0.585100	0.408800
H591	H59	0.063800	0.510800	0.395400
H601	H60	0.972100	0.579100	0.387800
H611	H61	0.967700	0.632800	0.243500
H621	H62	0.245500	0.602200	0.278000
H631	H63	0.274300	0.713700	0.294100
H641	H64	0.124700	0.728300	0.267900
H651	H65	0.332100	0.811100	0.156900
H661	H66	0.393200	0.737100	0.167500
H671	H67	0.269700	0.769300	0.066200
H681	H68	0.123400	0.766700	0.121500
H691	H69	0.085400	0.652000	0.115700
H701	H70	0.232900	0.635200	0.143000
C191	C19	0.054500	0.611100	0.237400
C201	C20	0.156400	0.621100	0.287900
C211	C21	0.211000	0.707200	0.261200
C221	C22	0.302000	0.754600	0.173600
C231	C23	0.207600	0.742700	0.120900
C241	C24	0.148000	0.657800	0.148800
N71	N7	0.998300	0.526100	0.258000
N81	N8	0.076900	0.570700	0.377000
H711	H71	0.230800	0.314900	0.191500
H721	H72	0.160000	0.212800	0.262800
H731	H73	0.353000	0.261500	0.239500
H741	H74	0.547900	0.408800	0.006100
H751	H75	0.459200	0.395400	0.093800
H761	H76	0.359900	0.387800	0.033100
H771	H77	0.211200	0.243500	0.123700
H781	H78	0.523500	0.278000	0.119800
H791	H79	0.568400	0.294100	0.992200
H801	H80	0.392600	0.267900	0.003800
H811	H81	0.489000	0.156900	0.032000
H821	H82	0.560700	0.167500	0.095400
H831	H83	0.335900	0.066200	0.164500
H841	H84	0.244900	0.121500	0.111800
H851	H85	0.201100	0.115700	0.232300
H861	H86	0.375900	0.143000	0.221800
C251	C25	0.291900	0.237400	0.151500
C261	C26	0.444300	0.287900	0.091000
C271	C27	0.472200	0.261200	0.031600
C281	C28	0.475600	0.173600	0.071800
C291	C29	0.328500	0.120900	0.136400
C301	C30	0.296800	0.148800	0.193400
N91	N9	0.256300	0.258000	0.215900
N101	N10	0.453900	0.377000	0.052300
H871	H87	0.422300	0.191500	0.493600
H881	H88	0.422800	0.262800	0.524400
H891	H89	0.592500	0.239500	0.499000
H901	H90	0.554000	0.006100	0.585100
H911	H91	0.553000	0.093800	0.510800
H921	H92	0.393000	0.033100	0.579100
H931	H93	0.334900	0.123700	0.632800
H941	H94	0.643300	0.119800	0.602200
H951	H95	0.560600	0.992200	0.713700
H961	H96	0.396400	0.003800	0.728300
H971	H97	0.521000	0.032000	0.811100
H981	H98	0.656100	0.095400	0.737100
H991	H99	0.500400	0.164500	0.769300
H1001	H100	0.356700	0.111800	0.766700
H1011	H101	0.433400	0.232300	0.652000
H1021	H102	0.597700	0.221800	0.635200
C311	C31	0.443400	0.151500	0.611100
C321	C32	0.535300	0.091000	0.621100
C331	C33	0.503800	0.031600	0.707200
C341	C34	0.547400	0.071800	0.754600
C351	C35	0.464900	0.136400	0.742700
C361	C36	0.490200	0.193400	0.657800
N111	N11	0.472200	0.215900	0.526100
N121	N12	0.506200	0.052300	0.570700
