data_CETFOX_freeONLY_PM
_symmetry_space_group_name_H-M	'P1'
_cell_length_a	7.768000
_cell_length_b	14.344000
_cell_length_c	16.125000
_cell_angle_alpha	92.980000
_cell_angle_beta	95.605000
_cell_angle_gamma	99.593000
_symmetry_Int_Tables_number 1

loop_
_symmetry_equiv_pos_as_xyz
'x,y,z'

loop_
_atom_site_label
_atom_site_type_symbol
_atom_site_fract_x
_atom_site_fract_y
_atom_site_fract_z
Nd11	Nd1	0.775680	0.756750	0.724050
Nd21	Nd2	0.728240	0.301220	0.212400
Nd31	Nd3	0.224320	0.243250	0.275950
Nd41	Nd4	0.271760	0.698780	0.787600
H11	H1	0.280000	0.053000	0.085100
H21	H2	0.201900	0.140400	0.054500
H31	H3	0.295500	0.526600	0.580500
H41	H4	0.235100	0.624900	0.575900
H51	H5	0.832300	0.647100	0.011900
H61	H6	0.747500	0.551700	0.961500
H71	H7	0.099200	0.587900	0.034400
H81	H8	0.945900	0.530400	0.076900
H91	H9	0.328500	0.968700	0.602800
H101	H10	0.291900	0.884900	0.534000
H111	H11	0.615000	0.004000	0.572700
H121	H12	0.579300	0.919700	0.504200
H131	H13	0.169900	0.572400	0.308100
H141	H14	0.278300	0.489800	0.318300
H151	H15	0.318400	0.954800	0.833900
H161	H16	0.209800	0.033100	0.806000
H171	H17	0.073400	0.551500	0.439000
H181	H18	0.163400	0.462300	0.448600
H191	H19	0.439100	0.560000	0.458200
H201	H20	0.346300	0.648900	0.451400
H211	H21	0.077700	0.022600	0.930800
H221	H22	0.193800	0.948100	0.958800
H231	H23	0.333900	0.137800	0.935600
H241	H24	0.445400	0.063000	0.968000
H251	H25	0.720000	0.947000	0.914900
H261	H26	0.798100	0.859600	0.945500
H271	H27	0.704500	0.473400	0.419500
H281	H28	0.764900	0.375100	0.424100
H291	H29	0.167700	0.352900	0.988100
H301	H30	0.252500	0.448300	0.038500
H311	H31	0.900800	0.412100	0.965600
H321	H32	0.054100	0.469600	0.923100
H331	H33	0.671500	0.031300	0.397200
H341	H34	0.708100	0.115100	0.466000
H351	H35	0.385000	0.996000	0.427300
H361	H36	0.420700	0.080300	0.495800
H371	H37	0.830100	0.427600	0.691900
H381	H38	0.721700	0.510200	0.681700
H391	H39	0.681600	0.045200	0.166100
H401	H40	0.790200	0.966900	0.194000
H411	H41	0.926600	0.448500	0.561000
H421	H42	0.836600	0.537700	0.551400
H431	H43	0.560900	0.440000	0.541800
H441	H44	0.653700	0.351100	0.548600
H451	H45	0.922300	0.977400	0.069200
H461	H46	0.806200	0.051900	0.041200
H471	H47	0.666100	0.862200	0.064400
H481	H48	0.554600	0.937000	0.032000
C11	C1	0.452900	0.175400	0.106200
C21	C2	0.492000	0.636200	0.618400
C31	C3	0.912700	0.636400	0.896800
C41	C4	0.428700	0.853600	0.639800
C51	C5	0.305200	0.110500	0.056000
C61	C6	0.328500	0.590700	0.564000
C71	C7	0.856600	0.596100	0.975400
C81	C8	0.987000	0.545600	0.023500
C91	C9	0.381000	0.920200	0.575500
C101	C10	0.526100	0.967800	0.531600
C111	C11	0.058000	0.902500	0.804000
C121	C12	0.172500	0.512000	0.332100
C131	C13	0.014800	0.442100	0.296200
C141	C14	0.208700	0.977700	0.838100
C151	C15	0.175000	0.524400	0.426500
C161	C16	0.336000	0.585600	0.470900
C171	C17	0.191300	0.003800	0.927400
C181	C18	0.332000	0.082900	0.968300
C191	C19	0.547100	0.824600	0.893800
C201	C20	0.508000	0.363800	0.381600
C211	C21	0.087300	0.363600	0.103200
C221	C22	0.571300	0.146400	0.360200
C231	C23	0.694800	0.889500	0.944000
C241	C24	0.671500	0.409300	0.436000
C251	C25	0.143400	0.403900	0.024600
C261	C26	0.013000	0.454400	0.976500
C271	C27	0.619000	0.079800	0.424500
C281	C28	0.473900	0.032200	0.468400
C291	C29	0.942000	0.097500	0.196000
C301	C30	0.827500	0.488000	0.667900
C311	C31	0.985200	0.557900	0.703800
C321	C32	0.791300	0.022300	0.161900
C331	C33	0.825000	0.475600	0.573500
C341	C34	0.664000	0.414400	0.529100
C351	C35	0.808700	0.996200	0.072600
C361	C36	0.668000	0.917100	0.031700
O11	O1	0.598100	0.196200	0.081000
O21	O2	0.553400	0.400000	0.130700
O31	O3	0.628900	0.664100	0.587900
O41	O4	0.071100	0.649800	0.886100
O51	O5	0.586400	0.851200	0.656800
O61	O6	0.962500	0.827700	0.621800
O71	O7	0.791500	0.658400	0.844900
O81	O8	0.910000	0.921500	0.785100
O91	O9	0.302900	0.805700	0.671100
O101	O10	0.081600	0.817100	0.797100
O111	O11	0.425100	0.206900	0.177700
O121	O12	0.482000	0.645500	0.696400
O131	O13	0.019000	0.353700	0.303000
O141	O14	0.879200	0.467600	0.265100
O151	O15	0.401900	0.803800	0.919000
O161	O16	0.446600	0.600000	0.869300
O171	O17	0.371100	0.335900	0.412100
O181	O18	0.928900	0.350200	0.113900
O191	O19	0.413600	0.148800	0.343200
O201	O20	0.037500	0.172300	0.378200
O211	O21	0.208500	0.341600	0.155100
O221	O22	0.090000	0.078500	0.214900
O231	O23	0.697100	0.194300	0.328900
O241	O24	0.918400	0.182900	0.202900
O251	O25	0.574900	0.793100	0.822300
O261	O26	0.518000	0.354500	0.303600
O271	O27	0.981000	0.646300	0.697000
O281	O28	0.120800	0.532400	0.734900
