data_CETNUL_freeONLY_PM
_symmetry_space_group_name_H-M	'P1'
_cell_length_a	20.107700
_cell_length_b	20.107700
_cell_length_c	20.234000
_cell_angle_alpha	90.000000
_cell_angle_beta	90.000000
_cell_angle_gamma	120.000000
_symmetry_Int_Tables_number 1

loop_
_symmetry_equiv_pos_as_xyz
'x,y,z'

loop_
_atom_site_label
_atom_site_type_symbol
_atom_site_fract_x
_atom_site_fract_y
_atom_site_fract_z
N11	N1	0.280300	0.555630	0.099320
N21	N2	0.273000	0.559420	0.032130
N31	N3	0.232500	0.440300	0.058540
N41	N4	0.179500	0.320900	0.108170
N51	N5	0.126800	0.205400	0.164400
N61	N6	0.107000	0.181900	0.269800
N71	N7	0.067200	0.113500	0.235580
C11	C1	0.255600	0.484000	0.114400
H11	H1	0.254000	0.465500	0.156900
C21	C2	0.243800	0.490100	0.008900
H21	H2	0.232400	0.476700	0.964700
C31	C3	0.204800	0.359900	0.052800
C41	C4	0.206200	0.328900	0.992200
H31	H3	0.224400	0.359200	0.954500
C51	C5	0.179500	0.251000	0.990000
H41	H4	0.178800	0.227500	0.950300
C61	C6	0.153500	0.208000	0.047700
H51	H5	0.136300	0.155600	0.048000
C71	C7	0.154500	0.246200	0.104000
C81	C8	0.081100	0.129300	0.173500
H61	H6	0.062100	0.093100	0.139600
C91	C9	0.140800	0.235100	0.225400
H71	H7	0.170800	0.287100	0.234800
N81	N8	0.946970	0.888960	0.432650
N91	N9	0.939670	0.892750	0.365460
N101	N10	0.899170	0.773630	0.391870
N111	N11	0.846170	0.654230	0.441500
N121	N12	0.793470	0.538730	0.497730
N131	N13	0.773670	0.515230	0.603130
N141	N14	0.733870	0.446830	0.568910
C101	C10	0.922270	0.817330	0.447730
H81	H8	0.920670	0.798830	0.490230
C111	C11	0.910470	0.823430	0.342230
H91	H9	0.899070	0.810030	0.298030
C121	C12	0.871470	0.693230	0.386130
C131	C13	0.872870	0.662230	0.325530
H101	H10	0.891070	0.692530	0.287830
C141	C14	0.846170	0.584330	0.323330
H111	H11	0.845470	0.560830	0.283630
C151	C15	0.820170	0.541330	0.381030
H121	H12	0.802970	0.488930	0.381330
C161	C16	0.821170	0.579530	0.437330
C171	C17	0.747770	0.462630	0.506830
H131	H13	0.728770	0.426430	0.472930
C181	C18	0.807470	0.568430	0.558730
H141	H14	0.837470	0.620430	0.568130
N151	N15	0.613630	0.222300	0.765990
N161	N16	0.606330	0.226090	0.698800
N171	N17	0.565830	0.106970	0.725210
N181	N18	0.512830	0.987570	0.774840
N191	N19	0.460130	0.872070	0.831070
N201	N20	0.440330	0.848570	0.936470
N211	N21	0.400530	0.780170	0.902250
C191	C19	0.588930	0.150670	0.781070
H151	H15	0.587330	0.132170	0.823570
C201	C20	0.577130	0.156770	0.675570
H161	H16	0.565730	0.143370	0.631370
C211	C21	0.538130	0.026570	0.719470
C221	C22	0.539530	0.995570	0.658870
H171	H17	0.557730	0.025870	0.621170
C231	C23	0.512830	0.917670	0.656670
H181	H18	0.512130	0.894170	0.616970
C241	C24	0.486830	0.874670	0.714370
H191	H19	0.469630	0.822270	0.714670
C251	C25	0.487830	0.912870	0.770670
C261	C26	0.414430	0.795970	0.840170
H201	H20	0.395430	0.759770	0.806270
C271	C27	0.474130	0.901770	0.892070
H211	H21	0.504130	0.953770	0.901470
N221	N22	0.444370	0.724670	0.099320
N231	N23	0.440580	0.713580	0.032130
N241	N24	0.559700	0.792200	0.058540
N251	N25	0.679100	0.858600	0.108170
N261	N26	0.794600	0.921400	0.164400
N271	N27	0.818100	0.925100	0.269800
N281	N28	0.886500	0.953700	0.235580
C281	C28	0.516000	0.771600	0.114400
H221	H22	0.534500	0.788500	0.156900
C291	C29	0.509900	0.753700	0.008900
H231	H23	0.523300	0.755700	0.964700
C301	C30	0.640100	0.844900	0.052800
C311	C31	0.671100	0.877300	0.992200
H241	H24	0.640800	0.865200	0.954500
C321	C32	0.749000	0.928500	0.990000
H251	H25	0.772500	0.951300	0.950300
C331	C33	0.792000	0.945500	0.047700
H261	H26	0.844400	0.980700	0.048000
C341	C34	0.753800	0.908300	0.104000
C351	C35	0.870700	0.951800	0.173500
H271	H27	0.906900	0.969000	0.139600
C361	C36	0.764900	0.905700	0.225400
H281	H28	0.712900	0.883700	0.234800
N291	N29	0.111040	0.058000	0.432650
N301	N30	0.107250	0.046910	0.365460
N311	N31	0.226370	0.125530	0.391870
N321	N32	0.345770	0.191930	0.441500
N331	N33	0.461270	0.254730	0.497730
N341	N34	0.484770	0.258430	0.603130
N351	N35	0.553170	0.287030	0.568910
C371	C37	0.182670	0.104930	0.447730
H291	H29	0.201170	0.121830	0.490230
C381	C38	0.176570	0.087030	0.342230
H301	H30	0.189970	0.089030	0.298030
C391	C39	0.306770	0.178230	0.386130
C401	C40	0.337770	0.210630	0.325530
H311	H31	0.307470	0.198530	0.287830
C411	C41	0.415670	0.261830	0.323330
H321	H32	0.439170	0.284630	0.283630
C421	C42	0.458670	0.278830	0.381030
H331	H33	0.511070	0.314030	0.381330
C431	C43	0.420470	0.241630	0.437330
C441	C44	0.537370	0.285130	0.506830
H341	H34	0.573570	0.302330	0.472930
C451	C45	0.431570	0.239030	0.558730
H351	H35	0.379570	0.217030	0.568130
N361	N36	0.777700	0.391340	0.765990
N371	N37	0.773910	0.380250	0.698800
N381	N38	0.893030	0.458870	0.725210
N391	N39	0.012430	0.525270	0.774840
N401	N40	0.127930	0.588070	0.831070
N411	N41	0.151430	0.591770	0.936470
N421	N42	0.219830	0.620370	0.902250
C461	C46	0.849330	0.438270	0.781070
H361	H36	0.867830	0.455170	0.823570
C471	C47	0.843230	0.420370	0.675570
H371	H37	0.856630	0.422370	0.631370
C481	C48	0.973430	0.511570	0.719470
C491	C49	0.004430	0.543970	0.658870
H381	H38	0.974130	0.531870	0.621170
C501	C50	0.082330	0.595170	0.656670
H391	H39	0.105830	0.617970	0.616970
C511	C51	0.125330	0.612170	0.714370
H401	H40	0.177730	0.647370	0.714670
C521	C52	0.087130	0.574970	0.770670
C531	C53	0.204030	0.618470	0.840170
H411	H41	0.240230	0.635670	0.806270
C541	C54	0.098230	0.572370	0.892070
H421	H42	0.046230	0.550370	0.901470
N431	N43	0.275330	0.719700	0.099320
N441	N44	0.286420	0.727000	0.032130
N451	N45	0.207800	0.767500	0.058540
N461	N46	0.141400	0.820500	0.108170
N471	N47	0.078600	0.873200	0.164400
N481	N48	0.074900	0.893000	0.269800
N491	N49	0.046300	0.932800	0.235580
C551	C55	0.228400	0.744400	0.114400
H431	H43	0.211500	0.746000	0.156900
C561	C56	0.246300	0.756200	0.008900
H441	H44	0.244300	0.767600	0.964700
C571	C57	0.155100	0.795200	0.052800
C581	C58	0.122700	0.793800	0.992200
H451	H45	0.134800	0.775600	0.954500
C591	C59	0.071500	0.820500	0.990000
H461	H46	0.048700	0.821200	0.950300
C601	C60	0.054500	0.846500	0.047700
H471	H47	0.019300	0.863700	0.048000
C611	C61	0.091700	0.845500	0.104000
C621	C62	0.048200	0.918900	0.173500
H481	H48	0.031000	0.937900	0.139600
C631	C63	0.094300	0.859200	0.225400
H491	H49	0.116300	0.829200	0.234800
N501	N50	0.942000	0.053030	0.432650
N511	N51	0.953090	0.060330	0.365460
N521	N52	0.874470	0.100830	0.391870
N531	N53	0.808070	0.153830	0.441500
N541	N54	0.745270	0.206530	0.497730
N551	N55	0.741570	0.226330	0.603130
N561	N56	0.712970	0.266130	0.568910
C641	C64	0.895070	0.077730	0.447730
H501	H50	0.878170	0.079330	0.490230
C651	C65	0.912970	0.089530	0.342230
H511	H51	0.910970	0.100930	0.298030
C661	C66	0.821770	0.128530	0.386130
C671	C67	0.789370	0.127130	0.325530
H521	H52	0.801470	0.108930	0.287830
C681	C68	0.738170	0.153830	0.323330
H531	H53	0.715370	0.154530	0.283630
C691	C69	0.721170	0.179830	0.381030
H541	H54	0.685970	0.197030	0.381330
C701	C70	0.758370	0.178830	0.437330
C711	C71	0.714870	0.252230	0.506830
H551	H55	0.697670	0.271230	0.472930
C721	C72	0.760970	0.192530	0.558730
H561	H56	0.782970	0.162530	0.568130
N571	N57	0.608660	0.386370	0.765990
N581	N58	0.619750	0.393670	0.698800
N591	N59	0.541130	0.434170	0.725210
N601	N60	0.474730	0.487170	0.774840
N611	N61	0.411930	0.539870	0.831070
N621	N62	0.408230	0.559670	0.936470
N631	N63	0.379630	0.599470	0.902250
C731	C73	0.561730	0.411070	0.781070
H571	H57	0.544830	0.412670	0.823570
C741	C74	0.579630	0.422870	0.675570
H581	H58	0.577630	0.434270	0.631370
C751	C75	0.488430	0.461870	0.719470
C761	C76	0.456030	0.460470	0.658870
H591	H59	0.468130	0.442270	0.621170
C771	C77	0.404830	0.487170	0.656670
H601	H60	0.382030	0.487870	0.616970
C781	C78	0.387830	0.513170	0.714370
H611	H61	0.352630	0.530370	0.714670
C791	C79	0.425030	0.512170	0.770670
C801	C80	0.381530	0.585570	0.840170
H621	H62	0.364330	0.604570	0.806270
C811	C81	0.427630	0.525870	0.892070
H631	H63	0.449630	0.495870	0.901470
N641	N64	0.719700	0.444370	0.900680
N651	N65	0.727000	0.440580	0.967870
N661	N66	0.767500	0.559700	0.941460
N671	N67	0.820500	0.679100	0.891830
N681	N68	0.873200	0.794600	0.835600
N691	N69	0.893000	0.818100	0.730200
N701	N70	0.932800	0.886500	0.764420
C821	C82	0.744400	0.516000	0.885600
H641	H64	0.746000	0.534500	0.843100
C831	C83	0.756200	0.509900	0.991100
H651	H65	0.767600	0.523300	0.035300
C841	C84	0.795200	0.640100	0.947200
C851	C85	0.793800	0.671100	0.007800
H661	H66	0.775600	0.640800	0.045500
C861	C86	0.820500	0.749000	0.010000
H671	H67	0.821200	0.772500	0.049700
C871	C87	0.846500	0.792000	0.952300
H681	H68	0.863700	0.844400	0.952000
C881	C88	0.845500	0.753800	0.896000
C891	C89	0.918900	0.870700	0.826500
H691	H69	0.937900	0.906900	0.860400
C901	C90	0.859200	0.764900	0.774600
H701	H70	0.829200	0.712900	0.765200
N711	N71	0.386370	0.777700	0.234010
N721	N72	0.393670	0.773910	0.301200
N731	N73	0.434170	0.893030	0.274790
N741	N74	0.487170	0.012430	0.225160
N751	N75	0.539870	0.127930	0.168930
N761	N76	0.559670	0.151430	0.063530
N771	N77	0.599470	0.219830	0.097750
C911	C91	0.411070	0.849330	0.218930
H711	H71	0.412670	0.867830	0.176430
C921	C92	0.422870	0.843230	0.324430
H721	H72	0.434270	0.856630	0.368630
C931	C93	0.461870	0.973430	0.280530
C941	C94	0.460470	0.004430	0.341130
H731	H73	0.442270	0.974130	0.378830
C951	C95	0.487170	0.082330	0.343330
H741	H74	0.487870	0.105830	0.383030
C961	C96	0.513170	0.125330	0.285630
H751	H75	0.530370	0.177730	0.285330
C971	C97	0.512170	0.087130	0.229330
C981	C98	0.585570	0.204030	0.159830
H761	H76	0.604570	0.240230	0.193730
C991	C99	0.525870	0.098230	0.107930
H771	H77	0.495870	0.046230	0.098530
N781	N78	0.053030	0.111040	0.567350
N791	N79	0.060330	0.107250	0.634540
N801	N80	0.100830	0.226370	0.608130
N811	N81	0.153830	0.345770	0.558500
N821	N82	0.206530	0.461270	0.502270
N831	N83	0.226330	0.484770	0.396870
N841	N84	0.266130	0.553170	0.431090
C1001	C100	0.077730	0.182670	0.552270
H781	H78	0.079330	0.201170	0.509770
C1011	C101	0.089530	0.176570	0.657770
H791	H79	0.100930	0.189970	0.701970
C1021	C102	0.128530	0.306770	0.613870
C1031	C103	0.127130	0.337770	0.674470
H801	H80	0.108930	0.307470	0.712170
C1041	C104	0.153830	0.415670	0.676670
H811	H81	0.154530	0.439170	0.716370
C1051	C105	0.179830	0.458670	0.618970
H821	H82	0.197030	0.511070	0.618670
C1061	C106	0.178830	0.420470	0.562670
C1071	C107	0.252230	0.537370	0.493170
H831	H83	0.271230	0.573570	0.527070
C1081	C108	0.192530	0.431570	0.441270
H841	H84	0.162530	0.379570	0.431870
N851	N85	0.555630	0.275330	0.900680
N861	N86	0.559420	0.286420	0.967870
N871	N87	0.440300	0.207800	0.941460
N881	N88	0.320900	0.141400	0.891830
N891	N89	0.205400	0.078600	0.835600
N901	N90	0.181900	0.074900	0.730200
N911	N91	0.113500	0.046300	0.764420
C1091	C109	0.484000	0.228400	0.885600
H851	H85	0.465500	0.211500	0.843100
C1101	C110	0.490100	0.246300	0.991100
H861	H86	0.476700	0.244300	0.035300
C1111	C111	0.359900	0.155100	0.947200
C1121	C112	0.328900	0.122700	0.007800
H871	H87	0.359200	0.134800	0.045500
C1131	C113	0.251000	0.071500	0.010000
H881	H88	0.227500	0.048700	0.049700
C1141	C114	0.208000	0.054500	0.952300
H891	H89	0.155600	0.019300	0.952000
C1151	C115	0.246200	0.091700	0.896000
C1161	C116	0.129300	0.048200	0.826500
H901	H90	0.093100	0.031000	0.860400
C1171	C117	0.235100	0.094300	0.774600
H911	H91	0.287100	0.116300	0.765200
N921	N92	0.222300	0.608660	0.234010
N931	N93	0.226090	0.619750	0.301200
N941	N94	0.106970	0.541130	0.274790
N951	N95	0.987570	0.474730	0.225160
N961	N96	0.872070	0.411930	0.168930
N971	N97	0.848570	0.408230	0.063530
N981	N98	0.780170	0.379630	0.097750
C1181	C118	0.150670	0.561730	0.218930
H921	H92	0.132170	0.544830	0.176430
C1191	C119	0.156770	0.579630	0.324430
H931	H93	0.143370	0.577630	0.368630
C1201	C120	0.026570	0.488430	0.280530
C1211	C121	0.995570	0.456030	0.341130
H941	H94	0.025870	0.468130	0.378830
C1221	C122	0.917670	0.404830	0.343330
H951	H95	0.894170	0.382030	0.383030
C1231	C123	0.874670	0.387830	0.285630
H961	H96	0.822270	0.352630	0.285330
C1241	C124	0.912870	0.425030	0.229330
C1251	C125	0.795970	0.381530	0.159830
H971	H97	0.759770	0.364330	0.193730
C1261	C126	0.901770	0.427630	0.107930
H981	H98	0.953770	0.449630	0.098530
N991	N99	0.888960	0.942000	0.567350
N1001	N100	0.892750	0.953090	0.634540
N1011	N101	0.773630	0.874470	0.608130
N1021	N102	0.654230	0.808070	0.558500
N1031	N103	0.538730	0.745270	0.502270
N1041	N104	0.515230	0.741570	0.396870
N1051	N105	0.446830	0.712970	0.431090
C1271	C127	0.817330	0.895070	0.552270
H991	H99	0.798830	0.878170	0.509770
C1281	C128	0.823430	0.912970	0.657770
H1001	H100	0.810030	0.910970	0.701970
C1291	C129	0.693230	0.821770	0.613870
C1301	C130	0.662230	0.789370	0.674470
H1011	H101	0.692530	0.801470	0.712170
C1311	C131	0.584330	0.738170	0.676670
H1021	H102	0.560830	0.715370	0.716370
C1321	C132	0.541330	0.721170	0.618970
H1031	H103	0.488930	0.685970	0.618670
C1331	C133	0.579530	0.758370	0.562670
C1341	C134	0.462630	0.714870	0.493170
H1041	H104	0.426430	0.697670	0.527070
C1351	C135	0.568430	0.760970	0.441270
H1051	H105	0.620430	0.782970	0.431870
N1061	N106	0.724670	0.280300	0.900680
N1071	N107	0.713580	0.273000	0.967870
N1081	N108	0.792200	0.232500	0.941460
N1091	N109	0.858600	0.179500	0.891830
N1101	N110	0.921400	0.126800	0.835600
N1111	N111	0.925100	0.107000	0.730200
N1121	N112	0.953700	0.067200	0.764420
C1361	C136	0.771600	0.255600	0.885600
H1061	H106	0.788500	0.254000	0.843100
C1371	C137	0.753700	0.243800	0.991100
H1071	H107	0.755700	0.232400	0.035300
C1381	C138	0.844900	0.204800	0.947200
C1391	C139	0.877300	0.206200	0.007800
H1081	H108	0.865200	0.224400	0.045500
C1401	C140	0.928500	0.179500	0.010000
H1091	H109	0.951300	0.178800	0.049700
C1411	C141	0.945500	0.153500	0.952300
H1101	H110	0.980700	0.136300	0.952000
C1421	C142	0.908300	0.154500	0.896000
C1431	C143	0.951800	0.081100	0.826500
H1111	H111	0.969000	0.062100	0.860400
C1441	C144	0.905700	0.140800	0.774600
H1121	H112	0.883700	0.170800	0.765200
N1131	N113	0.391340	0.613630	0.234010
N1141	N114	0.380250	0.606330	0.301200
N1151	N115	0.458870	0.565830	0.274790
N1161	N116	0.525270	0.512830	0.225160
N1171	N117	0.588070	0.460130	0.168930
N1181	N118	0.591770	0.440330	0.063530
N1191	N119	0.620370	0.400530	0.097750
C1451	C145	0.438270	0.588930	0.218930
H1131	H113	0.455170	0.587330	0.176430
C1461	C146	0.420370	0.577130	0.324430
H1141	H114	0.422370	0.565730	0.368630
C1471	C147	0.511570	0.538130	0.280530
C1481	C148	0.543970	0.539530	0.341130
H1151	H115	0.531870	0.557730	0.378830
C1491	C149	0.595170	0.512830	0.343330
H1161	H116	0.617970	0.512130	0.383030
C1501	C150	0.612170	0.486830	0.285630
H1171	H117	0.647370	0.469630	0.285330
C1511	C151	0.574970	0.487830	0.229330
C1521	C152	0.618470	0.414430	0.159830
H1181	H118	0.635670	0.395430	0.193730
C1531	C153	0.572370	0.474130	0.107930
H1191	H119	0.550370	0.504130	0.098530
N1201	N120	0.058000	0.946970	0.567350
N1211	N121	0.046910	0.939670	0.634540
N1221	N122	0.125530	0.899170	0.608130
N1231	N123	0.191930	0.846170	0.558500
N1241	N124	0.254730	0.793470	0.502270
N1251	N125	0.258430	0.773670	0.396870
N1261	N126	0.287030	0.733870	0.431090
C1541	C154	0.104930	0.922270	0.552270
H1201	H120	0.121830	0.920670	0.509770
C1551	C155	0.087030	0.910470	0.657770
H1211	H121	0.089030	0.899070	0.701970
C1561	C156	0.178230	0.871470	0.613870
C1571	C157	0.210630	0.872870	0.674470
H1221	H122	0.198530	0.891070	0.712170
C1581	C158	0.261830	0.846170	0.676670
H1231	H123	0.284630	0.845470	0.716370
C1591	C159	0.278830	0.820170	0.618970
H1241	H124	0.314030	0.802970	0.618670
C1601	C160	0.241630	0.821170	0.562670
C1611	C161	0.285130	0.747770	0.493170
H1251	H125	0.302330	0.728770	0.527070
C1621	C162	0.239030	0.807470	0.441270
H1261	H126	0.217030	0.837470	0.431870
Cd11	Cd1	0.333330	0.666670	0.166670
Cd21	Cd2	0.000000	0.000000	0.500000
Cd31	Cd3	0.666670	0.333330	0.833330
Cd41	Cd4	0.333330	0.666670	0.961840
Cd51	Cd5	0.000000	0.000000	0.295170
Cd61	Cd6	0.666670	0.333330	0.628510
Cd71	Cd7	0.666670	0.333330	0.038160
Cd81	Cd8	0.333330	0.666670	0.371490
Cd91	Cd9	0.000000	0.000000	0.704830
