data_CEYPUT_freeONLY_PM
_symmetry_space_group_name_H-M	'P1'
_cell_length_a	6.307000
_cell_length_b	10.491900
_cell_length_c	12.611000
_cell_angle_alpha	90.000000
_cell_angle_beta	90.000000
_cell_angle_gamma	91.227000
_symmetry_Int_Tables_number 1

loop_
_symmetry_equiv_pos_as_xyz
'x,y,z'

loop_
_atom_site_label
_atom_site_type_symbol
_atom_site_fract_x
_atom_site_fract_y
_atom_site_fract_z
Co11	Co1	0.372000	0.259950	0.246260
Co21	Co2	0.872000	0.759950	0.753740
H11	H1	0.764500	0.986800	0.629800
H21	H2	0.886600	0.113600	0.491300
H31	H3	0.424800	0.916600	0.492400
H41	H4	0.291100	0.800200	0.633500
H51	H5	0.946800	0.319500	0.150600
H61	H6	0.803400	0.440900	0.021800
H71	H7	0.353300	0.641600	0.013300
H81	H8	0.477800	0.515100	0.143600
H91	H9	0.264500	0.486800	0.370200
H101	H10	0.386600	0.613600	0.508700
H111	H11	0.924800	0.416600	0.507600
H121	H12	0.791100	0.300200	0.366500
H131	H13	0.446800	0.819500	0.849400
H141	H14	0.303400	0.940900	0.978200
H151	H15	0.853300	0.141600	0.986700
H161	H16	0.977800	0.015100	0.856400
C11	C1	0.207300	0.862200	0.603900
C21	C2	0.976700	0.634700	0.912000
C31	C3	0.898900	0.973500	0.602100
C41	C4	0.971100	0.049900	0.518600
C51	C5	0.172400	0.029200	0.476700
C61	C6	0.291100	0.933600	0.519300
C71	C7	0.257600	0.109500	0.385200
C81	C8	0.030700	0.384200	0.120900
C91	C9	0.941300	0.457400	0.044800
C101	C10	0.063700	0.559200	0.001600
C111	C11	0.267000	0.576200	0.040100
C121	C12	0.342500	0.498500	0.116900
C131	C13	0.707300	0.362200	0.396100
C141	C14	0.476700	0.134700	0.088000
C151	C15	0.398900	0.473500	0.397900
C161	C16	0.471100	0.549900	0.481400
C171	C17	0.672400	0.529200	0.523300
C181	C18	0.791100	0.433600	0.480700
C191	C19	0.757600	0.609500	0.614800
C201	C20	0.530700	0.884200	0.879100
C211	C21	0.441300	0.957400	0.955200
C221	C22	0.563700	0.059200	0.998400
C231	C23	0.767000	0.076200	0.959900
C241	C24	0.842500	0.998500	0.883100
N11	N1	0.017700	0.881000	0.643800
N21	N2	0.229200	0.397600	0.156300
N31	N3	0.517700	0.381000	0.356200
N41	N4	0.729200	0.897600	0.843700
O11	O1	0.440800	0.098700	0.356800
O21	O2	0.134200	0.195200	0.347600
O31	O3	0.788600	0.623300	0.884700
O41	O4	0.100200	0.715500	0.865500
O51	O5	0.940800	0.598700	0.643200
O61	O6	0.634200	0.695200	0.652400
O71	O7	0.288600	0.123300	0.115300
O81	O8	0.600200	0.215500	0.134500
