data_CEZFIY_freeONLY_PM
_symmetry_space_group_name_H-M	'P1'
_cell_length_a	14.174400
_cell_length_b	25.915100
_cell_length_c	20.604200
_cell_angle_alpha	90.000000
_cell_angle_beta	90.000000
_cell_angle_gamma	90.000000
_symmetry_Int_Tables_number 1

loop_
_symmetry_equiv_pos_as_xyz
'x,y,z'

loop_
_atom_site_label
_atom_site_type_symbol
_atom_site_fract_x
_atom_site_fract_y
_atom_site_fract_z
Zn11	Zn1	0.758460	0.900400	0.623080
Zn21	Zn2	0.741540	0.599600	0.123080
Zn31	Zn3	0.241540	0.900400	0.123080
Zn41	Zn4	0.258460	0.599600	0.623080
H11	H1	0.566500	0.918800	0.565700
H21	H2	0.453000	0.983100	0.562600
H31	H3	0.611200	0.065800	0.688200
H41	H4	0.720400	0.999600	0.688500
H51	H5	0.404000	0.068500	0.586700
H61	H6	0.404000	0.068100	0.664200
H71	H7	0.525600	0.250800	0.506400
H81	H8	0.508900	0.256800	0.738600
H91	H9	0.625400	0.439100	0.578100
H101	H10	0.625300	0.440300	0.655600
H111	H11	0.562600	0.519200	0.690000
H121	H12	0.444700	0.581500	0.687900
H131	H13	0.321000	0.513000	0.540500
H141	H14	0.432900	0.447900	0.540200
H151	H15	0.759900	0.773100	0.750000
H161	H16	0.756800	0.681700	0.785500
H171	H17	0.759900	0.621000	0.868500
H181	H18	0.775800	0.735100	0.003400
H191	H19	0.783500	0.826900	0.967400
H201	H20	0.783400	0.887400	0.883700
H211	H21	0.933500	0.581200	0.065700
H221	H22	0.047000	0.516900	0.062600
H231	H23	0.888800	0.434200	0.188200
H241	H24	0.779600	0.500400	0.188500
H251	H25	0.096000	0.431500	0.086700
H261	H26	0.096000	0.431900	0.164200
H271	H27	0.974400	0.249200	0.006400
H281	H28	0.991100	0.243200	0.238600
H291	H29	0.874600	0.060900	0.078100
H301	H30	0.874700	0.059700	0.155600
H311	H31	0.937400	0.980800	0.190000
H321	H32	0.055300	0.918500	0.187900
H331	H33	0.179000	0.987000	0.040500
H341	H34	0.067100	0.052100	0.040200
H351	H35	0.740100	0.726900	0.250000
H361	H36	0.743200	0.818300	0.285500
H371	H37	0.740100	0.879000	0.368500
H381	H38	0.724200	0.764900	0.503400
H391	H39	0.716500	0.673100	0.467400
H401	H40	0.716600	0.612600	0.383700
H411	H41	0.433500	0.918800	0.065700
H421	H42	0.547000	0.983100	0.062600
H431	H43	0.388800	0.065800	0.188200
H441	H44	0.279600	0.999600	0.188500
H451	H45	0.596000	0.068500	0.086700
H461	H46	0.596000	0.068100	0.164200
H471	H47	0.474400	0.250800	0.006400
H481	H48	0.491100	0.256800	0.238600
H491	H49	0.374600	0.439100	0.078100
H501	H50	0.374700	0.440300	0.155600
H511	H51	0.437400	0.519200	0.190000
H521	H52	0.555300	0.581500	0.187900
H531	H53	0.679000	0.513000	0.040500
H541	H54	0.567100	0.447900	0.040200
H551	H55	0.240100	0.773100	0.250000
H561	H56	0.243200	0.681700	0.285500
H571	H57	0.240100	0.621000	0.368500
H581	H58	0.224200	0.735100	0.503400
H591	H59	0.216500	0.826900	0.467400
H601	H60	0.216600	0.887400	0.383700
H611	H61	0.066500	0.581200	0.565700
H621	H62	0.953000	0.516900	0.562600
H631	H63	0.111200	0.434200	0.688200
H641	H64	0.220400	0.500400	0.688500
H651	H65	0.904000	0.431500	0.586700
H661	H66	0.904000	0.431900	0.664200
H671	H67	0.025600	0.249200	0.506400
H681	H68	0.008900	0.243200	0.738600
H691	H69	0.125400	0.060900	0.578100
H701	H70	0.125300	0.059700	0.655600
H711	H71	0.062600	0.980800	0.690000
H721	H72	0.944700	0.918500	0.687900
H731	H73	0.821000	0.987000	0.540500
H741	H74	0.932900	0.052100	0.540200
H751	H75	0.259900	0.726900	0.750000
H761	H76	0.256800	0.818300	0.785500
H771	H77	0.259900	0.879000	0.868500
H781	H78	0.275800	0.764900	0.003400
H791	H79	0.283500	0.673100	0.967400
H801	H80	0.283400	0.612600	0.883700
C11	C1	0.575330	0.949010	0.591060
C21	C2	0.507540	0.987280	0.588880
C31	C3	0.519260	0.031720	0.625130
C41	C4	0.600460	0.035870	0.662730
C51	C5	0.665150	0.996260	0.662730
C61	C6	0.444330	0.072890	0.625480
C71	C7	0.497780	0.153530	0.569330
C81	C8	0.510140	0.208280	0.589990
C91	C9	0.521770	0.252000	0.552360
C101	C10	0.527390	0.297620	0.586990
C111	C11	0.541710	0.351270	0.562930
C121	C12	0.538630	0.354020	0.675210
C131	C13	0.523510	0.299250	0.654840
C141	C14	0.511590	0.255630	0.692560
C151	C15	0.503940	0.210110	0.657680
C161	C16	0.484460	0.156590	0.681160
C171	C17	0.585090	0.434900	0.616950
C181	C18	0.509090	0.475870	0.615900
C191	C19	0.512620	0.516720	0.659470
C201	C20	0.442260	0.553810	0.657790
C211	C21	0.369880	0.513660	0.572000
C221	C22	0.436720	0.474970	0.571240
C231	C23	0.775110	0.873970	0.753500
C241	C24	0.773140	0.835020	0.808020
C251	C25	0.765440	0.783670	0.794000
C261	C26	0.765470	0.745530	0.844040
C271	C27	0.760850	0.692630	0.829380
C281	C28	0.762220	0.656710	0.878520
C291	C29	0.767160	0.673150	0.944790
C301	C30	0.772150	0.724500	0.959320
C311	C31	0.771980	0.762640	0.908960
C321	C32	0.778950	0.815840	0.923540
C331	C33	0.779200	0.851630	0.873960
C341	C34	0.765230	0.632750	0.997620
C351	C35	0.924670	0.550990	0.091060
C361	C36	0.992460	0.512720	0.088880
C371	C37	0.980740	0.468280	0.125130
C381	C38	0.899540	0.464130	0.162730
C391	C39	0.834850	0.503740	0.162730
C401	C40	0.055670	0.427110	0.125480
C411	C41	0.002220	0.346470	0.069330
C421	C42	0.989860	0.291720	0.089990
C431	C43	0.978230	0.248000	0.052360
C441	C44	0.972610	0.202380	0.086990
C451	C45	0.958290	0.148730	0.062930
C461	C46	0.961370	0.145980	0.175210
C471	C47	0.976490	0.200750	0.154840
C481	C48	0.988410	0.244370	0.192560
C491	C49	0.996060	0.289890	0.157680
C501	C50	0.015540	0.343410	0.181160
C511	C51	0.914910	0.065100	0.116950
C521	C52	0.990910	0.024130	0.115900
C531	C53	0.987380	0.983280	0.159470
C541	C54	0.057740	0.946190	0.157790
C551	C55	0.130120	0.986340	0.072000
C561	C56	0.063280	0.025030	0.071240
C571	C57	0.724890	0.626030	0.253500
C581	C58	0.726860	0.664980	0.308020
C591	C59	0.734560	0.716330	0.294000
C601	C60	0.734530	0.754470	0.344040
C611	C61	0.739150	0.807370	0.329380
C621	C62	0.737780	0.843290	0.378520
C631	C63	0.732840	0.826850	0.444790
C641	C64	0.727850	0.775500	0.459320
C651	C65	0.728020	0.737360	0.408960
C661	C66	0.721050	0.684160	0.423540
C671	C67	0.720800	0.648370	0.373960
C681	C68	0.734770	0.867250	0.497620
C691	C69	0.424670	0.949010	0.091060
C701	C70	0.492460	0.987280	0.088880
C711	C71	0.480740	0.031720	0.125130
C721	C72	0.399540	0.035870	0.162730
C731	C73	0.334850	0.996260	0.162730
C741	C74	0.555670	0.072890	0.125480
C751	C75	0.502220	0.153530	0.069330
C761	C76	0.489860	0.208280	0.089990
C771	C77	0.478230	0.252000	0.052360
C781	C78	0.472610	0.297620	0.086990
C791	C79	0.458290	0.351270	0.062930
C801	C80	0.461370	0.354020	0.175210
C811	C81	0.476490	0.299250	0.154840
C821	C82	0.488410	0.255630	0.192560
C831	C83	0.496060	0.210110	0.157680
C841	C84	0.515540	0.156590	0.181160
C851	C85	0.414910	0.434900	0.116950
C861	C86	0.490910	0.475870	0.115900
C871	C87	0.487380	0.516720	0.159470
C881	C88	0.557740	0.553810	0.157790
C891	C89	0.630120	0.513660	0.072000
C901	C90	0.563280	0.474970	0.071240
C911	C91	0.224890	0.873970	0.253500
C921	C92	0.226860	0.835020	0.308020
C931	C93	0.234560	0.783670	0.294000
C941	C94	0.234530	0.745530	0.344040
C951	C95	0.239150	0.692630	0.329380
C961	C96	0.237780	0.656710	0.378520
C971	C97	0.232840	0.673150	0.444790
C981	C98	0.227850	0.724500	0.459320
C991	C99	0.228020	0.762640	0.408960
C1001	C100	0.221050	0.815840	0.423540
C1011	C101	0.220800	0.851630	0.373960
C1021	C102	0.234770	0.632750	0.497620
C1031	C103	0.075330	0.550990	0.591060
C1041	C104	0.007540	0.512720	0.588880
C1051	C105	0.019260	0.468280	0.625130
C1061	C106	0.100460	0.464130	0.662730
C1071	C107	0.165150	0.503740	0.662730
C1081	C108	0.944330	0.427110	0.625480
C1091	C109	0.997780	0.346470	0.569330
C1101	C110	0.010140	0.291720	0.589990
C1111	C111	0.021770	0.248000	0.552360
C1121	C112	0.027390	0.202380	0.586990
C1131	C113	0.041710	0.148730	0.562930
C1141	C114	0.038630	0.145980	0.675210
C1151	C115	0.023510	0.200750	0.654840
C1161	C116	0.011590	0.244370	0.692560
C1171	C117	0.003940	0.289890	0.657680
C1181	C118	0.984460	0.343410	0.681160
C1191	C119	0.085090	0.065100	0.616950
C1201	C120	0.009090	0.024130	0.615900
C1211	C121	0.012620	0.983280	0.659470
C1221	C122	0.942260	0.946190	0.657790
C1231	C123	0.869880	0.986340	0.572000
C1241	C124	0.936720	0.025030	0.571240
C1251	C125	0.275110	0.626030	0.753500
C1261	C126	0.273140	0.664980	0.808020
C1271	C127	0.265440	0.716330	0.794000
C1281	C128	0.265470	0.754470	0.844040
C1291	C129	0.260850	0.807370	0.829380
C1301	C130	0.262220	0.843290	0.878520
C1311	C131	0.267160	0.826850	0.944790
C1321	C132	0.272150	0.775500	0.959320
C1331	C133	0.271980	0.737360	0.908960
C1341	C134	0.278950	0.684160	0.923540
C1351	C135	0.279200	0.648370	0.873960
C1361	C136	0.265230	0.867250	0.997620
N11	N1	0.653010	0.953060	0.627570
N21	N2	0.481840	0.125430	0.625920
N31	N3	0.548470	0.382330	0.618190
N41	N4	0.371300	0.552000	0.615370
N51	N5	0.846990	0.546940	0.127570
N61	N6	0.018160	0.374570	0.125920
N71	N7	0.951530	0.117670	0.118190
N81	N8	0.128700	0.948000	0.115370
N91	N9	0.346990	0.953060	0.127570
N101	N10	0.518160	0.125430	0.125920
N111	N11	0.451530	0.382330	0.118190
N121	N12	0.628700	0.552000	0.115370
N131	N13	0.153010	0.546940	0.627570
N141	N14	0.981840	0.374570	0.625920
N151	N15	0.048470	0.117670	0.618190
N161	N16	0.871300	0.948000	0.615370
O11	O1	0.500400	0.135680	0.515190
O21	O2	0.546980	0.366540	0.507640
O31	O3	0.543810	0.371360	0.729520
O41	O4	0.471590	0.141810	0.735810
O51	O5	0.772110	0.854580	0.696150
O61	O6	0.779850	0.919810	0.765970
O71	O7	0.766020	0.586910	0.982940
O81	O8	0.762070	0.650440	0.056110
O91	O9	0.999600	0.364320	0.015190
O101	O10	0.953020	0.133460	0.007640
O111	O11	0.956190	0.128640	0.229520
O121	O12	0.028410	0.358190	0.235810
O131	O13	0.727890	0.645420	0.196150
O141	O14	0.720150	0.580190	0.265970
O151	O15	0.733980	0.913090	0.482940
O161	O16	0.737930	0.849560	0.556110
O171	O17	0.499600	0.135680	0.015190
O181	O18	0.453020	0.366540	0.007640
O191	O19	0.456190	0.371360	0.229520
O201	O20	0.528410	0.141810	0.235810
O211	O21	0.227890	0.854580	0.196150
O221	O22	0.220150	0.919810	0.265970
O231	O23	0.233980	0.586910	0.482940
O241	O24	0.237930	0.650440	0.556110
O251	O25	0.000400	0.364320	0.515190
O261	O26	0.046980	0.133460	0.507640
O271	O27	0.043810	0.128640	0.729520
O281	O28	0.971590	0.358190	0.735810
O291	O29	0.272110	0.645420	0.696150
O301	O30	0.279850	0.580190	0.765970
O311	O31	0.266020	0.913090	0.982940
O321	O32	0.262070	0.849560	0.056110
Zn51	Zn5	0.758460	0.099600	0.876920
Zn61	Zn6	0.741540	0.400400	0.376920
Zn71	Zn7	0.241540	0.099600	0.376920
Zn81	Zn8	0.258460	0.400400	0.876920
H811	H81	0.566500	0.081200	0.934300
H821	H82	0.453000	0.016900	0.937400
H831	H83	0.611200	0.934200	0.811800
H841	H84	0.720400	0.000400	0.811500
H851	H85	0.404000	0.931500	0.913300
H861	H86	0.404000	0.931900	0.835800
H871	H87	0.525600	0.749200	0.993600
H881	H88	0.508900	0.743200	0.761400
H891	H89	0.625400	0.560900	0.921900
H901	H90	0.625300	0.559700	0.844400
H911	H91	0.562600	0.480800	0.810000
H921	H92	0.444700	0.418500	0.812100
H931	H93	0.321000	0.487000	0.959500
H941	H94	0.432900	0.552100	0.959800
H951	H95	0.759900	0.226900	0.750000
H961	H96	0.756800	0.318300	0.714500
H971	H97	0.759900	0.379000	0.631500
H981	H98	0.775800	0.264900	0.496600
H991	H99	0.783500	0.173100	0.532600
H1001	H100	0.783400	0.112600	0.616300
H1011	H101	0.933500	0.418800	0.434300
H1021	H102	0.047000	0.483100	0.437400
H1031	H103	0.888800	0.565800	0.311800
H1041	H104	0.779600	0.499600	0.311500
H1051	H105	0.096000	0.568500	0.413300
H1061	H106	0.096000	0.568100	0.335800
H1071	H107	0.974400	0.750800	0.493600
H1081	H108	0.991100	0.756800	0.261400
H1091	H109	0.874600	0.939100	0.421900
H1101	H110	0.874700	0.940300	0.344400
H1111	H111	0.937400	0.019200	0.310000
H1121	H112	0.055300	0.081500	0.312100
H1131	H113	0.179000	0.013000	0.459500
H1141	H114	0.067100	0.947900	0.459800
H1151	H115	0.740100	0.273100	0.250000
H1161	H116	0.743200	0.181700	0.214500
H1171	H117	0.740100	0.121000	0.131500
H1181	H118	0.724200	0.235100	0.996600
H1191	H119	0.716500	0.326900	0.032600
H1201	H120	0.716600	0.387400	0.116300
H1211	H121	0.433500	0.081200	0.434300
H1221	H122	0.547000	0.016900	0.437400
H1231	H123	0.388800	0.934200	0.311800
H1241	H124	0.279600	0.000400	0.311500
H1251	H125	0.596000	0.931500	0.413300
H1261	H126	0.596000	0.931900	0.335800
H1271	H127	0.474400	0.749200	0.493600
H1281	H128	0.491100	0.743200	0.261400
H1291	H129	0.374600	0.560900	0.421900
H1301	H130	0.374700	0.559700	0.344400
H1311	H131	0.437400	0.480800	0.310000
H1321	H132	0.555300	0.418500	0.312100
H1331	H133	0.679000	0.487000	0.459500
H1341	H134	0.567100	0.552100	0.459800
H1351	H135	0.240100	0.226900	0.250000
H1361	H136	0.243200	0.318300	0.214500
H1371	H137	0.240100	0.379000	0.131500
H1381	H138	0.224200	0.264900	0.996600
H1391	H139	0.216500	0.173100	0.032600
H1401	H140	0.216600	0.112600	0.116300
H1411	H141	0.066500	0.418800	0.934300
H1421	H142	0.953000	0.483100	0.937400
H1431	H143	0.111200	0.565800	0.811800
H1441	H144	0.220400	0.499600	0.811500
H1451	H145	0.904000	0.568500	0.913300
H1461	H146	0.904000	0.568100	0.835800
H1471	H147	0.025600	0.750800	0.993600
H1481	H148	0.008900	0.756800	0.761400
H1491	H149	0.125400	0.939100	0.921900
H1501	H150	0.125300	0.940300	0.844400
H1511	H151	0.062600	0.019200	0.810000
H1521	H152	0.944700	0.081500	0.812100
H1531	H153	0.821000	0.013000	0.959500
H1541	H154	0.932900	0.947900	0.959800
H1551	H155	0.259900	0.273100	0.750000
H1561	H156	0.256800	0.181700	0.714500
H1571	H157	0.259900	0.121000	0.631500
H1581	H158	0.275800	0.235100	0.496600
H1591	H159	0.283500	0.326900	0.532600
H1601	H160	0.283400	0.387400	0.616300
C1371	C137	0.575330	0.050990	0.908940
C1381	C138	0.507540	0.012720	0.911120
C1391	C139	0.519260	0.968280	0.874870
C1401	C140	0.600460	0.964130	0.837270
C1411	C141	0.665150	0.003740	0.837270
C1421	C142	0.444330	0.927110	0.874520
C1431	C143	0.497780	0.846470	0.930670
C1441	C144	0.510140	0.791720	0.910010
C1451	C145	0.521770	0.748000	0.947640
C1461	C146	0.527390	0.702380	0.913010
C1471	C147	0.541710	0.648730	0.937070
C1481	C148	0.538630	0.645980	0.824790
C1491	C149	0.523510	0.700750	0.845160
C1501	C150	0.511590	0.744370	0.807440
C1511	C151	0.503940	0.789890	0.842320
C1521	C152	0.484460	0.843410	0.818840
C1531	C153	0.585090	0.565100	0.883050
C1541	C154	0.509090	0.524130	0.884100
C1551	C155	0.512620	0.483280	0.840530
C1561	C156	0.442260	0.446190	0.842210
C1571	C157	0.369880	0.486340	0.928000
C1581	C158	0.436720	0.525030	0.928760
C1591	C159	0.775110	0.126030	0.746500
C1601	C160	0.773140	0.164980	0.691980
C1611	C161	0.765440	0.216330	0.706000
C1621	C162	0.765470	0.254470	0.655960
C1631	C163	0.760850	0.307370	0.670620
C1641	C164	0.762220	0.343290	0.621480
C1651	C165	0.767160	0.326850	0.555210
C1661	C166	0.772150	0.275500	0.540680
C1671	C167	0.771980	0.237360	0.591040
C1681	C168	0.778950	0.184160	0.576460
C1691	C169	0.779200	0.148370	0.626040
C1701	C170	0.765230	0.367250	0.502380
C1711	C171	0.924670	0.449010	0.408940
C1721	C172	0.992460	0.487280	0.411120
C1731	C173	0.980740	0.531720	0.374870
C1741	C174	0.899540	0.535870	0.337270
C1751	C175	0.834850	0.496260	0.337270
C1761	C176	0.055670	0.572890	0.374520
C1771	C177	0.002220	0.653530	0.430670
C1781	C178	0.989860	0.708280	0.410010
C1791	C179	0.978230	0.752000	0.447640
C1801	C180	0.972610	0.797620	0.413010
C1811	C181	0.958290	0.851270	0.437070
C1821	C182	0.961370	0.854020	0.324790
C1831	C183	0.976490	0.799250	0.345160
C1841	C184	0.988410	0.755630	0.307440
C1851	C185	0.996060	0.710110	0.342320
C1861	C186	0.015540	0.656590	0.318840
C1871	C187	0.914910	0.934900	0.383050
C1881	C188	0.990910	0.975870	0.384100
C1891	C189	0.987380	0.016720	0.340530
C1901	C190	0.057740	0.053810	0.342210
C1911	C191	0.130120	0.013660	0.428000
C1921	C192	0.063280	0.974970	0.428760
C1931	C193	0.724890	0.373970	0.246500
C1941	C194	0.726860	0.335020	0.191980
C1951	C195	0.734560	0.283670	0.206000
C1961	C196	0.734530	0.245530	0.155960
C1971	C197	0.739150	0.192630	0.170620
C1981	C198	0.737780	0.156710	0.121480
C1991	C199	0.732840	0.173150	0.055210
C2001	C200	0.727850	0.224500	0.040680
C2011	C201	0.728020	0.262640	0.091040
C2021	C202	0.721050	0.315840	0.076460
C2031	C203	0.720800	0.351630	0.126040
C2041	C204	0.734770	0.132750	0.002380
C2051	C205	0.424670	0.050990	0.408940
C2061	C206	0.492460	0.012720	0.411120
C2071	C207	0.480740	0.968280	0.374870
C2081	C208	0.399540	0.964130	0.337270
C2091	C209	0.334850	0.003740	0.337270
C2101	C210	0.555670	0.927110	0.374520
C2111	C211	0.502220	0.846470	0.430670
C2121	C212	0.489860	0.791720	0.410010
C2131	C213	0.478230	0.748000	0.447640
C2141	C214	0.472610	0.702380	0.413010
C2151	C215	0.458290	0.648730	0.437070
C2161	C216	0.461370	0.645980	0.324790
C2171	C217	0.476490	0.700750	0.345160
C2181	C218	0.488410	0.744370	0.307440
C2191	C219	0.496060	0.789890	0.342320
C2201	C220	0.515540	0.843410	0.318840
C2211	C221	0.414910	0.565100	0.383050
C2221	C222	0.490910	0.524130	0.384100
C2231	C223	0.487380	0.483280	0.340530
C2241	C224	0.557740	0.446190	0.342210
C2251	C225	0.630120	0.486340	0.428000
C2261	C226	0.563280	0.525030	0.428760
C2271	C227	0.224890	0.126030	0.246500
C2281	C228	0.226860	0.164980	0.191980
C2291	C229	0.234560	0.216330	0.206000
C2301	C230	0.234530	0.254470	0.155960
C2311	C231	0.239150	0.307370	0.170620
C2321	C232	0.237780	0.343290	0.121480
C2331	C233	0.232840	0.326850	0.055210
C2341	C234	0.227850	0.275500	0.040680
C2351	C235	0.228020	0.237360	0.091040
C2361	C236	0.221050	0.184160	0.076460
C2371	C237	0.220800	0.148370	0.126040
C2381	C238	0.234770	0.367250	0.002380
C2391	C239	0.075330	0.449010	0.908940
C2401	C240	0.007540	0.487280	0.911120
C2411	C241	0.019260	0.531720	0.874870
C2421	C242	0.100460	0.535870	0.837270
C2431	C243	0.165150	0.496260	0.837270
C2441	C244	0.944330	0.572890	0.874520
C2451	C245	0.997780	0.653530	0.930670
C2461	C246	0.010140	0.708280	0.910010
C2471	C247	0.021770	0.752000	0.947640
C2481	C248	0.027390	0.797620	0.913010
C2491	C249	0.041710	0.851270	0.937070
C2501	C250	0.038630	0.854020	0.824790
C2511	C251	0.023510	0.799250	0.845160
C2521	C252	0.011590	0.755630	0.807440
C2531	C253	0.003940	0.710110	0.842320
C2541	C254	0.984460	0.656590	0.818840
C2551	C255	0.085090	0.934900	0.883050
C2561	C256	0.009090	0.975870	0.884100
C2571	C257	0.012620	0.016720	0.840530
C2581	C258	0.942260	0.053810	0.842210
C2591	C259	0.869880	0.013660	0.928000
C2601	C260	0.936720	0.974970	0.928760
C2611	C261	0.275110	0.373970	0.746500
C2621	C262	0.273140	0.335020	0.691980
C2631	C263	0.265440	0.283670	0.706000
C2641	C264	0.265470	0.245530	0.655960
C2651	C265	0.260850	0.192630	0.670620
C2661	C266	0.262220	0.156710	0.621480
C2671	C267	0.267160	0.173150	0.555210
C2681	C268	0.272150	0.224500	0.540680
C2691	C269	0.271980	0.262640	0.591040
C2701	C270	0.278950	0.315840	0.576460
C2711	C271	0.279200	0.351630	0.626040
C2721	C272	0.265230	0.132750	0.502380
N171	N17	0.653010	0.046940	0.872430
N181	N18	0.481840	0.874570	0.874080
N191	N19	0.548470	0.617670	0.881810
N201	N20	0.371300	0.448000	0.884630
N211	N21	0.846990	0.453060	0.372430
N221	N22	0.018160	0.625430	0.374080
N231	N23	0.951530	0.882330	0.381810
N241	N24	0.128700	0.052000	0.384630
N251	N25	0.346990	0.046940	0.372430
N261	N26	0.518160	0.874570	0.374080
N271	N27	0.451530	0.617670	0.381810
N281	N28	0.628700	0.448000	0.384630
N291	N29	0.153010	0.453060	0.872430
N301	N30	0.981840	0.625430	0.874080
N311	N31	0.048470	0.882330	0.881810
N321	N32	0.871300	0.052000	0.884630
O331	O33	0.500400	0.864320	0.984810
O341	O34	0.546980	0.633460	0.992360
O351	O35	0.543810	0.628640	0.770480
O361	O36	0.471590	0.858190	0.764190
O371	O37	0.772110	0.145420	0.803850
O381	O38	0.779850	0.080190	0.734030
O391	O39	0.766020	0.413090	0.517060
O401	O40	0.762070	0.349560	0.443890
O411	O41	0.999600	0.635680	0.484810
O421	O42	0.953020	0.866540	0.492360
O431	O43	0.956190	0.871360	0.270480
O441	O44	0.028410	0.641810	0.264190
O451	O45	0.727890	0.354580	0.303850
O461	O46	0.720150	0.419810	0.234030
O471	O47	0.733980	0.086910	0.017060
O481	O48	0.737930	0.150440	0.943890
O491	O49	0.499600	0.864320	0.484810
O501	O50	0.453020	0.633460	0.492360
O511	O51	0.456190	0.628640	0.270480
O521	O52	0.528410	0.858190	0.264190
O531	O53	0.227890	0.145420	0.303850
O541	O54	0.220150	0.080190	0.234030
O551	O55	0.233980	0.413090	0.017060
O561	O56	0.237930	0.349560	0.943890
O571	O57	0.000400	0.635680	0.984810
O581	O58	0.046980	0.866540	0.992360
O591	O59	0.043810	0.871360	0.770480
O601	O60	0.971590	0.641810	0.764190
O611	O61	0.272110	0.354580	0.803850
O621	O62	0.279850	0.419810	0.734030
O631	O63	0.266020	0.086910	0.517060
O641	O64	0.262070	0.150440	0.443890
