data_CEZMUR_charged_PM
_symmetry_space_group_name_H-M	'P1'
_cell_length_a	7.967400
_cell_length_b	9.730400
_cell_length_c	21.296000
_cell_angle_alpha	90.000000
_cell_angle_beta	90.000000
_cell_angle_gamma	114.168000
_symmetry_Int_Tables_number 1

loop_
_symmetry_equiv_pos_as_xyz
'x,y,z'

loop_
_atom_site_label
_atom_site_type_symbol
_atom_site_fract_x
_atom_site_fract_y
_atom_site_fract_z
Na11	Na1	0.113100	0.000000	0.500000
Na21	Na2	0.886900	0.000000	0.000000
U11	U1	0.541050	0.143240	0.381910
U21	U2	0.458950	0.856760	0.881910
U31	U3	0.602190	0.143240	0.118090
U41	U4	0.397810	0.856760	0.618090
H11	H1	0.017800	0.336400	0.458900
H21	H2	0.017800	0.601400	0.452400
H31	H3	0.149700	0.557000	0.282300
H41	H4	0.982200	0.663600	0.958900
H51	H5	0.982200	0.398600	0.952400
H61	H6	0.850300	0.443000	0.782300
H71	H7	0.318600	0.336400	0.041100
H81	H8	0.583600	0.601400	0.047600
H91	H9	0.407300	0.557000	0.217700
H101	H10	0.681400	0.663600	0.541100
H111	H11	0.416400	0.398600	0.547600
H121	H12	0.592700	0.443000	0.717700
C11	C1	0.368900	0.339200	0.413100
C21	C2	0.279500	0.443800	0.425100
C31	C3	0.044400	0.326600	0.277100
C41	C4	0.275800	0.667000	0.422700
C51	C5	0.363000	0.828200	0.411600
C61	C6	0.113100	0.425000	0.445600
C71	C7	0.114900	0.575800	0.442300
C81	C8	0.876600	0.257600	0.313200
C91	C9	0.163600	0.472200	0.267600
C101	C10	0.631100	0.660800	0.913100
C111	C11	0.720500	0.556200	0.925100
C121	C12	0.955600	0.673400	0.777100
C131	C13	0.724200	0.333000	0.922700
C141	C14	0.637000	0.171800	0.911600
C151	C15	0.886900	0.575000	0.945600
C161	C16	0.885100	0.424200	0.942300
C171	C17	0.123400	0.742400	0.813200
C181	C18	0.836400	0.527800	0.767600
C191	C19	0.970300	0.339200	0.086900
C201	C20	0.164300	0.443800	0.074900
C211	C21	0.282200	0.326600	0.222900
C221	C22	0.391200	0.667000	0.077300
C231	C23	0.465200	0.828200	0.088400
C241	C24	0.311900	0.425000	0.054400
C251	C25	0.460900	0.575800	0.057700
C261	C26	0.381000	0.257600	0.186800
C271	C27	0.308600	0.472200	0.232400
C281	C28	0.029700	0.660800	0.586900
C291	C29	0.835700	0.556200	0.574900
C301	C30	0.717800	0.673400	0.722900
C311	C31	0.608800	0.333000	0.577300
C321	C32	0.534800	0.171800	0.588400
C331	C33	0.688100	0.575000	0.554400
C341	C34	0.539100	0.424200	0.557700
C351	C35	0.619000	0.742400	0.686800
C361	C36	0.691400	0.527800	0.732400
O11	O1	0.523100	0.387200	0.388300
O21	O2	0.288900	0.200600	0.429600
O31	O3	0.520600	0.884400	0.383900
O41	O4	0.809400	0.122400	0.328600
O51	O5	0.283300	0.911000	0.425300
O61	O6	0.800800	0.344600	0.330900
O71	O7	0.384600	0.589800	0.410100
O81	O8	0.419100	0.107400	0.310300
O91	O9	0.661600	0.179200	0.453800
O101	O10	0.976500	0.119200	0.561500
O111	O11	0.476900	0.612800	0.888300
O121	O12	0.711100	0.799400	0.929600
O131	O13	0.479400	0.115600	0.883900
O141	O14	0.190600	0.877600	0.828600
O151	O15	0.716700	0.089000	0.925300
O161	O16	0.199200	0.655400	0.830900
O171	O17	0.615400	0.410200	0.910100
O181	O18	0.580900	0.892600	0.810300
O191	O19	0.338400	0.820800	0.953800
O201	O20	0.023500	0.880800	0.061500
O211	O21	0.864100	0.387200	0.111700
O221	O22	0.911700	0.200600	0.070400
O231	O23	0.363800	0.884400	0.116100
O241	O24	0.313000	0.122400	0.171400
O251	O25	0.627700	0.911000	0.074700
O261	O26	0.543800	0.344600	0.169100
O271	O27	0.205200	0.589800	0.089900
O281	O28	0.688300	0.107400	0.189700
O291	O29	0.517600	0.179200	0.046200
O301	O30	0.142700	0.119200	0.938500
O311	O31	0.135900	0.612800	0.611700
O321	O32	0.088300	0.799400	0.570400
O331	O33	0.636200	0.115600	0.616100
O341	O34	0.687000	0.877600	0.671400
O351	O35	0.372300	0.089000	0.574700
O361	O36	0.456200	0.655400	0.669100
O371	O37	0.794800	0.410200	0.589900
O381	O38	0.311700	0.892600	0.689700
O391	O39	0.482400	0.820800	0.546200
O401	O40	0.857300	0.880800	0.438500
O411	O41	0.116200	0.232400	0.250000
O421	O42	0.883800	0.767600	0.750000
