data_cg034025wsi20030214_115651_freeONLY_PM
_symmetry_space_group_name_H-M	'P1'
_cell_length_a	8.457000
_cell_length_b	9.690000
_cell_length_c	17.225000
_cell_angle_alpha	90.000000
_cell_angle_beta	90.000000
_cell_angle_gamma	112.220000
_symmetry_Int_Tables_number 1

loop_
_symmetry_equiv_pos_as_xyz
'x,y,z'

loop_
_atom_site_label
_atom_site_type_symbol
_atom_site_fract_x
_atom_site_fract_y
_atom_site_fract_z
Er11	Er1	0.344210	0.023920	0.257410
Er21	Er2	0.655790	0.476080	0.757410
Er31	Er3	0.344210	0.523920	0.242590
Er41	Er4	0.655790	0.976080	0.742590
H11	H1	0.852000	0.152000	0.321000
H21	H2	0.660700	0.831900	0.589600
H31	H3	0.160000	0.095000	0.736000
H41	H4	0.418000	0.079000	0.992000
H51	H5	0.852000	0.652000	0.179000
H61	H6	0.660700	0.331900	0.910400
H71	H7	0.582000	0.921000	0.008000
H81	H8	0.891900	0.209500	0.631000
H91	H9	0.108100	0.790500	0.369000
H101	H10	0.418000	0.579000	0.508000
H111	H11	0.891900	0.709500	0.869000
H121	H12	0.108100	0.290500	0.131000
H131	H13	0.148000	0.348000	0.821000
H141	H14	0.339300	0.168100	0.410400
H151	H15	0.148000	0.848000	0.679000
H161	H16	0.178600	0.381500	0.088200
H171	H17	0.821400	0.118500	0.588200
H181	H18	0.840000	0.405000	0.236000
H191	H19	0.821400	0.618500	0.911800
H201	H20	0.160000	0.595000	0.764000
H211	H21	0.178600	0.881500	0.411800
H221	H22	0.840000	0.905000	0.264000
H231	H23	0.582000	0.421000	0.492000
H241	H24	0.339300	0.668100	0.089600
C11	C1	0.813500	0.961400	0.283200
C21	C2	0.186500	0.538600	0.783200
C31	C3	0.629000	0.867000	0.286200
C41	C4	0.371000	0.133000	0.713800
C51	C5	0.186500	0.038600	0.716800
C61	C6	0.405700	0.025800	0.098400
C71	C7	0.443800	0.528100	0.485400
C81	C8	0.124000	0.897200	0.699400
C91	C9	0.062600	0.198600	0.289300
C101	C10	0.556200	0.971900	0.985400
C111	C11	0.443800	0.028100	0.014600
C121	C12	0.556200	0.471900	0.514600
C131	C13	0.124000	0.397200	0.800600
C141	C14	0.876000	0.602800	0.199400
C151	C15	0.937400	0.301400	0.789300
C161	C16	0.062600	0.698600	0.210700
C171	C17	0.937400	0.801400	0.710700
C181	C18	0.629000	0.367000	0.213800
C191	C19	0.876000	0.102800	0.300600
C201	C20	0.594300	0.974200	0.901600
C211	C21	0.594300	0.474200	0.598400
C221	C22	0.371000	0.633000	0.786200
C231	C23	0.813500	0.461400	0.216800
C241	C24	0.405700	0.525800	0.401600
O11	O1	0.165600	0.638800	0.230000
O21	O2	0.588300	0.732000	0.268800
O31	O3	0.464100	0.954600	0.145300
O41	O4	0.105100	0.336200	0.296500
O51	O5	0.806000	0.132400	0.637000
O61	O6	0.464100	0.454600	0.354700
O71	O7	0.429000	0.662500	0.121900
O81	O8	0.894900	0.663800	0.703500
O91	O9	0.894900	0.163800	0.796500
O101	O10	0.474900	0.076100	0.694700
O111	O11	0.312300	0.591600	0.377800
O121	O12	0.411700	0.768000	0.768800
O131	O13	0.474900	0.576100	0.805300
O141	O14	0.194000	0.867600	0.363000
O151	O15	0.165600	0.138800	0.270000
O161	O16	0.571000	0.837500	0.621900
O171	O17	0.312300	0.091600	0.122200
O181	O18	0.834400	0.861200	0.730000
O191	O19	0.571000	0.337500	0.878100
O201	O20	0.588300	0.232000	0.231200
O211	O21	0.525100	0.423900	0.194700
O221	O22	0.194000	0.367600	0.137000
O231	O23	0.429000	0.162500	0.378100
O241	O24	0.525100	0.923900	0.305300
O251	O25	0.687700	0.408400	0.622200
O261	O26	0.687700	0.908400	0.877800
O271	O27	0.105100	0.836200	0.203500
O281	O28	0.535900	0.545400	0.645300
O291	O29	0.806000	0.632400	0.863000
O301	O30	0.834400	0.361200	0.770000
O311	O31	0.535900	0.045400	0.854700
O321	O32	0.411700	0.268000	0.731200
