data_cg0702636-file002_freeONLY_PM
_symmetry_space_group_name_H-M	'P1'
_cell_length_a	9.188400
_cell_length_b	9.188400
_cell_length_c	12.743000
_cell_angle_alpha	90.000000
_cell_angle_beta	90.000000
_cell_angle_gamma	120.000000
_symmetry_Int_Tables_number 1

loop_
_symmetry_equiv_pos_as_xyz
'x,y,z'

loop_
_atom_site_label
_atom_site_type_symbol
_atom_site_fract_x
_atom_site_fract_y
_atom_site_fract_z
Cd11	Cd1	0.000000	0.637540	0.666670
Cd21	Cd2	0.362460	0.362460	0.333330
Cd31	Cd3	0.637540	0.000000	0.000000
H11	H1	0.829500	0.036000	0.783870
H21	H2	0.170500	0.206500	0.549470
H31	H3	0.206500	0.170500	0.117200
H41	H4	0.036000	0.829500	0.882800
H51	H5	0.964000	0.793500	0.450530
H61	H6	0.793500	0.964000	0.216130
C11	C1	0.220900	0.100900	0.070490
C21	C2	0.803000	0.319500	0.810470
C31	C3	0.197000	0.516500	0.522870
C41	C4	0.369300	0.095100	0.069270
C51	C5	0.905300	0.905300	0.333330
C61	C6	0.000000	0.094700	0.666670
C71	C7	0.880000	0.779100	0.403820
C81	C8	0.680500	0.483500	0.477130
C91	C9	0.516500	0.197000	0.143800
C101	C10	0.483500	0.680500	0.189530
C111	C11	0.071200	0.071200	0.333330
C121	C12	0.319500	0.803000	0.856200
C131	C13	0.630700	0.725800	0.264060
C141	C14	0.094700	0.000000	0.000000
C151	C15	0.120000	0.899100	0.929510
C161	C16	0.095100	0.369300	0.597400
C171	C17	0.899100	0.120000	0.737160
C181	C18	0.000000	0.928800	0.666670
C191	C19	0.779100	0.880000	0.262840
C201	C20	0.904900	0.274200	0.735940
C211	C21	0.928800	0.000000	0.000000
C221	C22	0.100900	0.220900	0.596180
C231	C23	0.725800	0.630700	0.402600
C241	C24	0.274200	0.904900	0.930730
N11	N1	0.607400	0.607400	0.333330
N21	N2	0.392600	0.000000	0.000000
N31	N3	0.000000	0.392600	0.666670
O11	O1	0.500900	0.286800	0.209230
O21	O2	0.805600	0.881030	0.956460
O31	O3	0.355600	0.539400	0.201830
O41	O4	0.539400	0.355600	0.464830
O51	O5	0.194400	0.075430	0.376870
O61	O6	0.785900	0.499100	0.542560
O71	O7	0.183800	0.644400	0.535170
O81	O8	0.713200	0.214100	0.875900
O91	O9	0.286800	0.500900	0.457440
O101	O10	0.118970	0.924570	0.623130
O111	O11	0.881030	0.805600	0.710210
O121	O12	0.214100	0.713200	0.790770
O131	O13	0.460600	0.816200	0.868500
O141	O14	0.816200	0.460600	0.798170
O151	O15	0.924570	0.118970	0.043540
O161	O16	0.075430	0.194400	0.289790
O171	O17	0.499100	0.785900	0.124100
O181	O18	0.644400	0.183800	0.131500
