data_cg300302n_si_004_freeONLY_PM
_symmetry_space_group_name_H-M	'P1'
_cell_length_a	6.298500
_cell_length_b	14.352000
_cell_length_c	14.352000
_cell_angle_alpha	90.000000
_cell_angle_beta	90.000000
_cell_angle_gamma	90.000000
_symmetry_Int_Tables_number 1

loop_
_symmetry_equiv_pos_as_xyz
'x,y,z'

loop_
_atom_site_label
_atom_site_type_symbol
_atom_site_fract_x
_atom_site_fract_y
_atom_site_fract_z
Co11	Co1	0.500000	0.000000	0.000000
Co21	Co2	0.000000	0.500000	0.500000
H11	H1	0.366900	0.342700	0.466300
H21	H2	0.834700	0.306400	0.963800
H31	H3	0.662000	0.794200	0.415600
H41	H4	0.834700	0.693600	0.036200
H51	H5	0.987800	0.712200	0.848100
H61	H6	0.633100	0.466300	0.657300
H71	H7	0.419400	0.041900	0.786300
H81	H8	0.288900	0.800300	0.381500
H91	H9	0.079800	0.505300	0.285800
H101	H10	0.338000	0.415600	0.205800
H111	H11	0.165300	0.963800	0.693600
H121	H12	0.580600	0.213700	0.041900
H131	H13	0.366900	0.657300	0.533700
H141	H14	0.803800	0.090200	0.331400
H151	H15	0.165300	0.036200	0.306400
H161	H16	0.529500	0.183500	0.381300
H171	H17	0.196200	0.331400	0.909800
H181	H18	0.470500	0.618700	0.183500
H191	H19	0.711100	0.381500	0.199700
H201	H20	0.196200	0.668600	0.090200
H211	H21	0.987800	0.287800	0.151900
H221	H22	0.859000	0.062400	0.849800
H231	H23	0.633100	0.533700	0.342700
H241	H24	0.419400	0.958100	0.213700
H251	H25	0.711100	0.618500	0.800300
H261	H26	0.803800	0.909800	0.668600
H271	H27	0.338000	0.584400	0.794200
H281	H28	0.580600	0.786300	0.958100
H291	H29	0.141000	0.849800	0.937600
H301	H30	0.288900	0.199700	0.618500
H311	H31	0.529500	0.816500	0.618700
H321	H32	0.141000	0.150200	0.062400
H331	H33	0.859000	0.937600	0.150200
H341	H34	0.012200	0.848100	0.287800
H351	H35	0.920200	0.714200	0.505300
H361	H36	0.470500	0.381300	0.816500
H371	H37	0.079800	0.494700	0.714200
H381	H38	0.662000	0.205800	0.584400
H391	H39	0.920200	0.285800	0.494700
H401	H40	0.012200	0.151900	0.712200
C11	C1	0.379900	0.334700	0.795400
C21	C2	0.668200	0.805400	0.006700
C31	C3	0.178400	0.887500	0.887500
C41	C4	0.829700	0.312100	0.538700
C51	C5	0.785200	0.148600	0.304600
C61	C6	0.821600	0.887500	0.112500
C71	C7	0.671400	0.589300	0.371300
C81	C8	0.620100	0.795400	0.665300
C91	C9	0.907400	0.801700	0.117900
C101	C10	0.214800	0.695400	0.148600
C111	C11	0.894500	0.733600	0.802700
C121	C12	0.620100	0.204600	0.334700
C131	C13	0.585200	0.326400	0.647100
C141	C14	0.328600	0.371300	0.410700
C151	C15	0.907400	0.198300	0.882100
C161	C16	0.076700	0.764600	0.177600
C171	C17	0.785200	0.851400	0.695400
C181	C18	0.821600	0.112500	0.887500
C191	C19	0.414800	0.647100	0.673600
C201	C20	0.270900	0.773600	0.323000
C211	C21	0.092600	0.882100	0.801700
C221	C22	0.092600	0.117900	0.198300
C231	C23	0.178400	0.112500	0.112500
C241	C24	0.589000	0.292500	0.295500
C251	C25	0.076700	0.235400	0.822400
C261	C26	0.923300	0.177600	0.235400
C271	C27	0.894500	0.266400	0.197300
C281	C28	0.331800	0.006700	0.194600
C291	C29	0.589000	0.707500	0.704500
C301	C30	0.328600	0.628700	0.589300
C311	C31	0.585200	0.673600	0.352900
C321	C32	0.105500	0.802700	0.266400
C331	C33	0.729100	0.677000	0.773600
C341	C34	0.379900	0.665300	0.204600
C351	C35	0.414800	0.352900	0.326400
C361	C36	0.923300	0.822400	0.764600
C371	C37	0.671400	0.410700	0.628700
C381	C38	0.214800	0.304600	0.851400
C391	C39	0.105500	0.197300	0.733600
C401	C40	0.668200	0.194600	0.993300
C411	C41	0.170300	0.538700	0.687900
C421	C42	0.411000	0.295500	0.707500
C431	C43	0.170300	0.461300	0.312100
C441	C44	0.270900	0.226400	0.677000
C451	C45	0.411000	0.704500	0.292500
C461	C46	0.331800	0.993300	0.805400
C471	C47	0.729100	0.323000	0.226400
C481	C48	0.829700	0.687900	0.461300
N11	N1	0.330500	0.042710	0.109480
N21	N2	0.190700	0.950600	0.751020
N31	N3	0.330500	0.957290	0.890520
N41	N4	0.825400	0.401410	0.560580
N51	N5	0.825400	0.598590	0.439420
N61	N6	0.313300	0.588330	0.735420
N71	N7	0.313300	0.411670	0.264580
N81	N8	0.686700	0.735420	0.411670
N91	N9	0.809300	0.751020	0.049400
N101	N10	0.174600	0.439420	0.401410
N111	N11	0.669500	0.890520	0.042710
N121	N12	0.686700	0.264580	0.588330
N131	N13	0.174600	0.560580	0.598590
N141	N14	0.669500	0.109480	0.957290
N151	N15	0.190700	0.049400	0.248980
N161	N16	0.809300	0.248980	0.950600
