data_cg401887b_si_003_freeONLY_PM
_symmetry_space_group_name_H-M	'P1'
_cell_length_a	12.314000
_cell_length_b	14.986000
_cell_length_c	26.349300
_cell_angle_alpha	90.000000
_cell_angle_beta	99.816700
_cell_angle_gamma	90.000000
_symmetry_Int_Tables_number 1

loop_
_symmetry_equiv_pos_as_xyz
'x,y,z'

loop_
_atom_site_label
_atom_site_type_symbol
_atom_site_fract_x
_atom_site_fract_y
_atom_site_fract_z
Zn11	Zn1	0.132160	0.977070	0.137780
Zn21	Zn2	0.992810	0.156760	0.776020
Zn31	Zn3	0.367840	0.477070	0.362220
Zn41	Zn4	0.632160	0.522930	0.637780
Zn51	Zn5	0.492810	0.343240	0.276020
Zn61	Zn6	0.507190	0.656760	0.723980
Zn71	Zn7	0.867840	0.022930	0.862220
Zn81	Zn8	0.007190	0.843240	0.223980
H11	H1	0.233900	0.247900	0.897400
H21	H2	0.766100	0.752100	0.102600
H31	H3	0.633600	0.778700	0.953400
H41	H4	0.891100	0.931300	0.015400
H51	H5	0.796600	0.125000	0.540900
H61	H6	0.779600	0.815800	0.748200
H71	H7	0.974200	0.966000	0.674200
H81	H8	0.133600	0.721300	0.453400
H91	H9	0.177000	0.999100	0.411300
H101	H10	0.841700	0.738200	0.610300
H111	H11	0.442400	0.257300	0.902500
H121	H12	0.341700	0.761800	0.110300
H131	H13	0.733900	0.252100	0.397400
H141	H14	0.677000	0.500900	0.911300
H151	H15	0.720400	0.315800	0.751800
H161	H16	0.942400	0.242700	0.402500
H171	H17	0.391100	0.568700	0.515400
H181	H18	0.203400	0.875000	0.459100
H191	H19	0.296600	0.375000	0.040900
H201	H20	0.366400	0.221300	0.046600
H211	H21	0.866400	0.278700	0.546600
H221	H22	0.658300	0.238200	0.889700
H231	H23	0.823000	0.000900	0.588700
H241	H24	0.220400	0.184200	0.251800
H251	H25	0.057600	0.757300	0.597500
H261	H26	0.279600	0.684200	0.248200
H271	H27	0.108900	0.068700	0.984600
H281	H28	0.025800	0.034000	0.325800
H291	H29	0.474200	0.534000	0.174200
H301	H30	0.703400	0.625000	0.959100
H311	H31	0.158300	0.261800	0.389700
H321	H32	0.525800	0.466000	0.825800
H331	H33	0.608900	0.431300	0.484600
H341	H34	0.266100	0.747900	0.602600
H351	H35	0.557600	0.742700	0.097500
H361	H36	0.323000	0.499100	0.088700
C11	C1	0.105810	0.818000	0.537010
C21	C2	0.277920	0.312800	0.320320
C31	C3	0.701190	0.266700	0.821090
C41	C4	0.618820	0.400200	0.781420
C51	C5	0.261200	0.636700	0.475700
C61	C6	0.235530	0.220400	0.929130
C71	C7	0.394190	0.318000	0.962990
C81	C8	0.133330	0.988900	0.436230
C91	C9	0.916650	0.855600	0.634350
C101	C10	0.201190	0.233300	0.321090
C111	C11	0.759980	0.906400	0.925280
C121	C12	0.049390	0.052200	0.442790
C131	C13	0.186040	0.174200	0.280040
C141	C14	0.660620	0.387400	0.481220
C151	C15	0.930960	0.915400	0.675460
C161	C16	0.028100	0.129500	0.411400
C171	C17	0.528100	0.370500	0.911400
C181	C18	0.569040	0.415400	0.824540
C191	C19	0.685460	0.795600	0.981660
C201	C20	0.574300	0.374700	0.387600
C211	C21	0.590370	0.604100	0.005870
C221	C22	0.814540	0.295600	0.518340
C231	C23	0.950610	0.947800	0.557210
C241	C24	0.902240	0.964900	0.763040
C251	C25	0.450610	0.552200	0.057210
C261	C26	0.841050	0.847300	0.066150
C271	C27	0.185990	0.747200	0.528990
C281	C28	0.349980	0.415300	0.034480
C291	C29	0.314010	0.247200	0.971010
C301	C30	0.149460	0.220300	0.363060
C311	C31	0.546280	0.691600	0.077280
C321	C32	0.881180	0.900200	0.718580
C331	C33	0.097760	0.035100	0.236960
C341	C34	0.798810	0.766700	0.678910
C351	C35	0.264470	0.720400	0.570870
C361	C36	0.761200	0.863300	0.975700
C371	C37	0.839380	0.887400	0.018780
C381	C38	0.583350	0.355600	0.865650
C391	C39	0.298810	0.733300	0.178910
C401	C40	0.160620	0.112600	0.981220
C411	C41	0.722080	0.687200	0.679680
C421	C42	0.549390	0.447800	0.942790
C431	C43	0.313960	0.674200	0.219960
C441	C44	0.650020	0.584700	0.965520
C451	C45	0.185460	0.704400	0.481660
C461	C46	0.090370	0.895900	0.505870
C471	C47	0.350540	0.720300	0.136940
C481	C48	0.633330	0.511100	0.936230
C491	C49	0.381180	0.599800	0.218580
C501	C50	0.510320	0.538800	0.016020
C511	C51	0.953720	0.191600	0.422720
C521	C52	0.158950	0.152700	0.933850
C531	C53	0.150020	0.915300	0.465520
C541	C54	0.649460	0.279700	0.863060
C551	C55	0.453720	0.308400	0.922720
C561	C56	0.685990	0.752800	0.028990
C571	C57	0.740020	0.406400	0.574720
C581	C58	0.489680	0.461200	0.983980
C591	C59	0.240020	0.093600	0.074720
C601	C60	0.849980	0.084700	0.534480
C611	C61	0.416650	0.644400	0.134350
C621	C62	0.339380	0.612600	0.518780
C631	C63	0.814010	0.252800	0.471010
C641	C64	0.430960	0.584600	0.175460
C651	C65	0.046280	0.808400	0.577280
C661	C66	0.813960	0.825800	0.719960
C671	C67	0.764470	0.779600	0.070870
C681	C68	0.686040	0.325800	0.780040
C691	C69	0.341050	0.652700	0.566150
C701	C70	0.069040	0.084600	0.324540
C711	C71	0.605810	0.682000	0.037010
C721	C72	0.222080	0.812800	0.179680
C731	C73	0.010320	0.961200	0.516020
C741	C74	0.738800	0.363300	0.524300
C751	C75	0.259980	0.593600	0.425280
C761	C76	0.894190	0.182000	0.462990
C771	C77	0.971900	0.870500	0.588600
C781	C78	0.238800	0.136700	0.024300
C791	C79	0.118820	0.099800	0.281420
C801	C80	0.850540	0.779700	0.636940
C811	C81	0.925700	0.874700	0.112400
C821	C82	0.314540	0.204400	0.018340
C831	C83	0.083350	0.144400	0.365650
C841	C84	0.471900	0.629500	0.088600
C851	C85	0.777920	0.187200	0.820320
C861	C86	0.074300	0.125300	0.887600
C871	C87	0.597760	0.464900	0.736960
C881	C88	0.866670	0.011100	0.563770
C891	C89	0.409630	0.395900	0.994130
C901	C90	0.658950	0.347300	0.433850
C911	C91	0.366670	0.488900	0.063770
C921	C92	0.909630	0.104100	0.494130
C931	C93	0.735530	0.279600	0.429130
C941	C94	0.989680	0.038800	0.483980
C951	C95	0.402240	0.535100	0.263040
C961	C96	0.425700	0.625300	0.612400
O11	O1	0.518420	0.441080	0.393520
O21	O2	0.147310	0.049810	0.199710
O31	O3	0.153000	0.139900	0.752600
O41	O4	0.852690	0.950190	0.800290
O51	O5	0.069480	0.170400	0.848080
O61	O6	0.647310	0.450190	0.699710
O71	O7	0.835210	0.182200	0.786010
O81	O8	0.981580	0.941080	0.106480
O91	O9	0.969090	0.026800	0.761190
O101	O10	0.481580	0.558920	0.606480
O111	O11	0.777420	0.130040	0.855620
O121	O12	0.222580	0.869960	0.144380
O131	O13	0.987600	0.701200	0.230600
O141	O14	0.347000	0.639900	0.747400
O151	O15	0.487600	0.798800	0.730600
O161	O16	0.661230	0.458100	0.578430
O171	O17	0.814970	0.391000	0.610870
O181	O18	0.930520	0.829600	0.151920
O191	O19	0.030910	0.973200	0.238810
O201	O20	0.314970	0.109000	0.110870
O211	O21	0.277420	0.369960	0.355620
O221	O22	0.653000	0.360100	0.252600
O231	O23	0.018420	0.058920	0.893520
O241	O24	0.430520	0.670400	0.651920
O251	O25	0.838770	0.958100	0.921570
O261	O26	0.012400	0.298800	0.769400
O271	O27	0.164790	0.817800	0.213990
O281	O28	0.185030	0.609000	0.389130
O291	O29	0.847000	0.860100	0.247400
O301	O30	0.512400	0.201200	0.269400
O311	O31	0.469090	0.473200	0.261190
O321	O32	0.685030	0.891000	0.889130
O331	O33	0.338770	0.541900	0.421570
O341	O34	0.161230	0.041900	0.078430
O351	O35	0.569480	0.329600	0.348080
O361	O36	0.530910	0.526800	0.738810
O371	O37	0.664790	0.682200	0.713990
O381	O38	0.335210	0.317800	0.286010
O391	O39	0.352690	0.549810	0.300290
O401	O40	0.722580	0.630040	0.644380
