data_cg501279y_si_002_freeONLY_PM
_symmetry_space_group_name_H-M	'P1'
_cell_length_a	13.913000
_cell_length_b	16.774000
_cell_length_c	16.774000
_cell_angle_alpha	120.000000
_cell_angle_beta	90.000000
_cell_angle_gamma	90.000000
_symmetry_Int_Tables_number 1

loop_
_symmetry_equiv_pos_as_xyz
'x,y,z'

loop_
_atom_site_label
_atom_site_type_symbol
_atom_site_fract_x
_atom_site_fract_y
_atom_site_fract_z
Ni11	Ni1	0.395670	0.666670	0.333340
Ni21	Ni2	0.895670	0.333330	0.666660
Ni31	Ni3	0.604330	0.333330	0.666660
Ni41	Ni4	0.104330	0.666670	0.333340
H11	H1	0.855600	0.570100	0.771000
H21	H2	0.910800	0.680600	0.687600
H31	H3	0.910800	0.007000	0.319400
H41	H4	0.631300	0.146400	0.873600
H51	H5	0.078500	0.425300	0.638400
H61	H6	0.589200	0.312400	0.319400
H71	H7	0.750000	0.587800	0.412200
H81	H8	0.855600	0.229000	0.799100
H91	H9	0.983000	0.784400	0.988100
H101	H10	0.384600	0.576300	0.512400
H111	H11	0.578500	0.786900	0.361600
H121	H12	0.144400	0.771000	0.200900
H131	H13	0.384600	0.487600	0.063900
H141	H14	0.115400	0.936100	0.512400
H151	H15	0.410800	0.687600	0.680600
H161	H16	0.921500	0.574700	0.361600
H171	H17	0.921500	0.786900	0.425300
H181	H18	0.410800	0.993000	0.312400
H191	H19	0.368700	0.853600	0.126400
H201	H20	0.131300	0.272800	0.126400
H211	H21	0.115400	0.576300	0.063900
H221	H22	0.750000	0.824400	0.412200
H231	H23	0.368700	0.272800	0.146400
H241	H24	0.078500	0.213100	0.574700
H251	H25	0.089200	0.993000	0.680600
H261	H26	0.355600	0.771000	0.570100
H271	H27	0.983000	0.203700	0.215600
H281	H28	0.578500	0.638400	0.425300
H291	H29	0.421500	0.213100	0.638400
H301	H30	0.884600	0.423700	0.936100
H311	H31	0.250000	0.175600	0.587800
H321	H32	0.868700	0.727200	0.873600
H331	H33	0.910800	0.312400	0.993000
H341	H34	0.421500	0.425300	0.786900
H351	H35	0.384600	0.936100	0.423700
H361	H36	0.517000	0.203700	0.988100
H371	H37	0.868700	0.146400	0.272800
H381	H38	0.644400	0.570100	0.799100
H391	H39	0.410800	0.319400	0.007000
H401	H40	0.250000	0.412200	0.824400
H411	H41	0.483000	0.988100	0.784400
H421	H42	0.921500	0.638400	0.213100
H431	H43	0.517000	0.011900	0.215600
H441	H44	0.578500	0.574700	0.213100
H451	H45	0.421500	0.361600	0.574700
H461	H46	0.644400	0.229000	0.429900
H471	H47	0.868700	0.126400	0.853600
H481	H48	0.089200	0.319400	0.312400
H491	H49	0.355600	0.429900	0.200900
H501	H50	0.631300	0.727200	0.853600
H511	H51	0.089200	0.687600	0.007000
H521	H52	0.131300	0.873600	0.146400
H531	H53	0.644400	0.200900	0.771000
H541	H54	0.144400	0.429900	0.229000
H551	H55	0.855600	0.200900	0.429900
H561	H56	0.017000	0.988100	0.203700
H571	H57	0.615400	0.423700	0.487600
H581	H58	0.517000	0.784400	0.796300
H591	H59	0.017000	0.796300	0.784400
H601	H60	0.483000	0.215600	0.203700
H611	H61	0.368700	0.873600	0.727200
H621	H62	0.589200	0.007000	0.687600
H631	H63	0.131300	0.853600	0.727200
H641	H64	0.250000	0.412200	0.587800
H651	H65	0.483000	0.796300	0.011900
H661	H66	0.615400	0.063900	0.576300
H671	H67	0.078500	0.361600	0.786900
H681	H68	0.017000	0.215600	0.011900
H691	H69	0.884600	0.512400	0.576300
H701	H70	0.750000	0.587800	0.175600
H711	H71	0.983000	0.011900	0.796300
H721	H72	0.589200	0.680600	0.993000
H731	H73	0.355600	0.799100	0.229000
H741	H74	0.615400	0.512400	0.936100
H751	H75	0.884600	0.063900	0.487600
H761	H76	0.631300	0.126400	0.272800
H771	H77	0.144400	0.799100	0.570100
H781	H78	0.115400	0.487600	0.423700
C11	C1	0.979700	0.721100	0.948200
C21	C2	0.020300	0.772900	0.721100
C31	C3	0.597400	0.183400	0.406900
C41	C4	0.456200	0.040000	0.335600
C51	C5	0.589600	0.192000	0.878500
C61	C6	0.250000	0.111600	0.555800
C71	C7	0.250000	0.816000	0.408000
C81	C8	0.035800	0.571200	0.897600
C91	C9	0.097400	0.816600	0.223500
C101	C10	0.967900	0.534400	0.825200
C111	C11	0.964200	0.428800	0.102400
C121	C12	0.467900	0.465600	0.290800
C131	C13	0.902600	0.593100	0.816600
C141	C14	0.671100	0.937300	0.495600
C151	C15	0.589600	0.121500	0.313500
C161	C16	0.956200	0.960000	0.295600
C171	C17	0.479700	0.772900	0.051800
C181	C18	0.043800	0.295600	0.335600
C191	C19	0.535800	0.673600	0.102400
C201	C20	0.553500	0.809400	0.420400
C211	C21	0.410400	0.808000	0.121500
C221	C22	0.456200	0.295600	0.960000
C231	C23	0.032100	0.709200	0.534400
C241	C24	0.750000	0.408000	0.592000
C251	C25	0.169400	0.967900	0.510800
C261	C26	0.964200	0.673600	0.571200
C271	C27	0.910400	0.121500	0.808000
C281	C28	0.035800	0.326400	0.428800
C291	C29	0.250000	0.539550	0.460450
C301	C30	0.097400	0.776500	0.593100
C311	C31	0.669400	0.457100	0.489200
C321	C32	0.671100	0.504400	0.441700
C331	C33	0.597400	0.593100	0.776500
C341	C34	0.589600	0.686500	0.808000
C351	C35	0.089600	0.808000	0.686500
C361	C36	0.553500	0.611000	0.190600
C371	C37	0.520300	0.227100	0.948200
C381	C38	0.750000	0.184000	0.592000
C391	C39	0.669400	0.510800	0.967900
C401	C40	0.830600	0.510800	0.542900
C411	C41	0.967900	0.174800	0.709200
C421	C42	0.169400	0.542900	0.032100
C431	C43	0.828900	0.558300	0.495600
C441	C44	0.456200	0.664400	0.704400
C451	C45	0.250000	0.539550	0.079100
C461	C46	0.446500	0.190600	0.579600
C471	C47	0.250000	0.592000	0.184000
C481	C48	0.750000	0.408000	0.816000
C491	C49	0.330600	0.967900	0.457100
C501	C50	0.946500	0.579600	0.190600
C511	C51	0.902600	0.183400	0.776500
C521	C52	0.750000	0.460450	0.539550
C531	C53	0.035800	0.102400	0.673600
C541	C54	0.543800	0.960000	0.664400
C551	C55	0.467900	0.825200	0.534400
C561	C56	0.410400	0.313500	0.192000
C571	C57	0.330600	0.489200	0.032100
C581	C58	0.535800	0.897600	0.571200
C591	C59	0.828900	0.937300	0.441700
C601	C60	0.830600	0.032100	0.489200
C611	C61	0.446500	0.389000	0.809400
C621	C62	0.330600	0.542900	0.510800
C631	C63	0.553500	0.579600	0.389000
C641	C64	0.669400	0.032100	0.542900
C651	C65	0.910400	0.686500	0.878500
C661	C66	0.979700	0.227100	0.278900
C671	C67	0.910400	0.192000	0.313500
C681	C68	0.946500	0.809400	0.389000
C691	C69	0.250000	0.920900	0.460450
C701	C70	0.171100	0.062700	0.558300
C711	C71	0.043800	0.664400	0.960000
C721	C72	0.543800	0.704400	0.040000
C731	C73	0.750000	0.555800	0.111600
C741	C74	0.169400	0.489200	0.457100
C751	C75	0.830600	0.457100	0.967900
C761	C76	0.250000	0.444200	0.888400
C771	C77	0.171100	0.441700	0.504400
C781	C78	0.053500	0.190600	0.611000
C791	C79	0.402600	0.406900	0.223500
C801	C80	0.402600	0.816600	0.593100
C811	C81	0.828900	0.504400	0.062700
C821	C82	0.979700	0.051800	0.772900
C831	C83	0.089600	0.313500	0.121500
C841	C84	0.532100	0.534400	0.709200
C851	C85	0.464200	0.102400	0.428800
C861	C86	0.520300	0.051800	0.278900
C871	C87	0.467900	0.709200	0.174800
C881	C88	0.750000	0.555800	0.444200
C891	C89	0.171100	0.495600	0.937300
C901	C90	0.402600	0.776500	0.183400
C911	C91	0.089600	0.878500	0.192000
C921	C92	0.328900	0.495600	0.558300
C931	C93	0.479700	0.278900	0.227100
C941	C94	0.410400	0.878500	0.686500
C951	C95	0.464200	0.326400	0.897600
C961	C96	0.956200	0.335600	0.040000
C971	C97	0.956200	0.704400	0.664400
C981	C98	0.250000	0.592000	0.408000
C991	C99	0.032100	0.825200	0.290800
C1001	C100	0.446500	0.420400	0.611000
C1011	C101	0.328900	0.441700	0.937300
C1021	C102	0.020300	0.948200	0.227100
C1031	C103	0.328900	0.062700	0.504400
C1041	C104	0.097400	0.406900	0.183400
C1051	C105	0.543800	0.335600	0.295600
C1061	C106	0.479700	0.948200	0.721100
C1071	C107	0.464200	0.571200	0.673600
C1081	C108	0.902600	0.223500	0.406900
C1091	C109	0.750000	0.460450	0.920900
C1101	C110	0.946500	0.611000	0.420400
C1111	C111	0.053500	0.420400	0.809400
C1121	C112	0.020300	0.278900	0.051800
C1131	C113	0.532100	0.290800	0.825200
C1141	C114	0.597400	0.223500	0.816600
C1151	C115	0.750000	0.079100	0.539550
C1161	C116	0.053500	0.389000	0.579600
C1171	C117	0.967900	0.290800	0.465600
C1181	C118	0.671100	0.558300	0.062700
C1191	C119	0.032100	0.465600	0.174800
C1201	C120	0.520300	0.721100	0.772900
C1211	C121	0.750000	0.888400	0.444200
C1221	C122	0.043800	0.040000	0.704400
C1231	C123	0.964200	0.897600	0.326400
C1241	C124	0.250000	0.444200	0.555800
C1251	C125	0.532100	0.174800	0.465600
C1261	C126	0.535800	0.428800	0.326400
N11	N1	0.481300	0.561000	0.331600
N21	N2	0.018700	0.561000	0.229400
N31	N3	0.018700	0.770600	0.331600
N41	N4	0.087900	0.389800	0.504000
N51	N5	0.087900	0.496000	0.885800
N61	N6	0.481300	0.770600	0.439000
N71	N7	0.412100	0.496000	0.610200
N81	N8	0.587900	0.610200	0.114200
N91	N9	0.481300	0.668400	0.229400
N101	N10	0.981300	0.229400	0.668400
N111	N11	0.087900	0.114200	0.610200
N121	N12	0.912100	0.504000	0.114200
N131	N13	0.587900	0.885800	0.496000
N141	N14	0.587900	0.504000	0.389800
N151	N15	0.412100	0.389800	0.885800
N161	N16	0.912100	0.885800	0.389800
N171	N17	0.518700	0.331600	0.770600
N181	N18	0.018700	0.668400	0.439000
N191	N19	0.981300	0.439000	0.770600
N201	N20	0.981300	0.331600	0.561000
N211	N21	0.518700	0.229400	0.561000
N221	N22	0.412100	0.114200	0.504000
N231	N23	0.518700	0.439000	0.668400
N241	N24	0.912100	0.610200	0.496000
O11	O1	0.181500	0.574600	0.353300
O21	O2	0.818500	0.221300	0.574600
O31	O3	0.318500	0.778700	0.353300
O41	O4	0.681500	0.425400	0.778700
O51	O5	0.681500	0.353300	0.574600
O61	O6	0.818500	0.353300	0.778700
O71	O7	0.181500	0.646700	0.221300
O81	O8	0.318500	0.574600	0.221300
O91	O9	0.818500	0.425400	0.646700
O101	O10	0.681500	0.221300	0.646700
O111	O11	0.318500	0.646700	0.425400
O121	O12	0.181500	0.778700	0.425400
