data_cg501560z_si_003_freeONLY_PM
_symmetry_space_group_name_H-M	'P1'
_cell_length_a	14.231500
_cell_length_b	16.890700
_cell_length_c	32.996800
_cell_angle_alpha	91.340800
_cell_angle_beta	90.000000
_cell_angle_gamma	90.000000
_symmetry_Int_Tables_number 1

loop_
_symmetry_equiv_pos_as_xyz
'x,y,z'

loop_
_atom_site_label
_atom_site_type_symbol
_atom_site_fract_x
_atom_site_fract_y
_atom_site_fract_z
Mn11	Mn1	0.034930	0.620190	0.311210
Mn21	Mn2	0.707040	0.128090	0.921740
Mn31	Mn3	0.207040	0.871910	0.578260
Mn41	Mn4	0.792960	0.128090	0.421740
Mn51	Mn5	0.292960	0.871910	0.078260
Mn61	Mn6	0.965070	0.379810	0.688790
Mn71	Mn7	0.465070	0.620190	0.811210
Mn81	Mn8	0.534930	0.379810	0.188790
Cr11	Cr1	0.781050	0.377820	0.317100
Cr21	Cr2	0.533880	0.127710	0.080950
Cr31	Cr3	0.466120	0.872290	0.919050
Cr41	Cr4	0.966120	0.127710	0.580950
Cr51	Cr5	0.718950	0.377820	0.817100
Cr61	Cr6	0.281050	0.622180	0.182900
Cr71	Cr7	0.218950	0.622180	0.682900
Cr81	Cr8	0.033880	0.872290	0.419050
H11	H1	0.895300	0.054300	0.875300
H21	H2	0.898400	0.008700	0.917300
H31	H3	0.601600	0.008700	0.417300
H41	H4	0.101600	0.991300	0.082700
H51	H5	0.979400	0.070500	0.906600
H61	H6	0.479400	0.929500	0.593400
H71	H7	0.020600	0.929500	0.093400
H81	H8	0.604700	0.054300	0.375300
H91	H9	0.395300	0.945700	0.624700
H101	H10	0.398400	0.991300	0.582700
H111	H11	0.104700	0.945700	0.124700
H121	H12	0.520600	0.070500	0.406600
C11	C1	0.862800	0.525600	0.318790
C21	C2	0.797400	0.382600	0.740570
C31	C3	0.208000	0.770300	0.649820
C41	C4	0.087800	0.941300	0.095910
C51	C5	0.874800	0.965800	0.423370
C61	C6	0.217500	0.711300	0.613600
C71	C7	0.912200	0.058700	0.904090
C81	C8	0.702600	0.382600	0.240570
C91	C9	0.055600	0.534200	0.679180
C101	C10	0.137200	0.474400	0.681210
C111	C11	0.412200	0.941300	0.595910
C121	C12	0.457800	0.977000	0.082770
C131	C13	0.587800	0.058700	0.404090
C141	C14	0.374800	0.034200	0.076630
C151	C15	0.282500	0.711300	0.113600
C161	C16	0.521100	0.221300	0.150230
C171	C17	0.282200	0.869800	0.943150
C181	C18	0.478900	0.778700	0.849770
C191	C19	0.782500	0.288700	0.386400
C201	C20	0.529600	0.278800	0.114800
C211	C21	0.792000	0.229700	0.350180
C221	C22	0.717800	0.130200	0.056850
C231	C23	0.555600	0.465800	0.820820
C241	C24	0.021100	0.778700	0.349770
C251	C25	0.944400	0.465800	0.320820
C261	C26	0.978900	0.221300	0.650230
C271	C27	0.880300	0.375880	0.770140
C281	C28	0.362800	0.474400	0.181210
C291	C29	0.470400	0.721200	0.885200
C301	C30	0.217800	0.869800	0.443150
C311	C31	0.158400	0.871400	0.482280
C321	C32	0.619700	0.375880	0.270140
C331	C33	0.708000	0.229700	0.850180
C341	C34	0.297400	0.617400	0.759430
C351	C35	0.658400	0.128600	0.017720
C361	C36	0.957800	0.023000	0.417230
C371	C37	0.970400	0.278800	0.614800
C381	C38	0.625200	0.965800	0.923370
C391	C39	0.042200	0.977000	0.582770
C401	C40	0.717500	0.288700	0.886400
C411	C41	0.202600	0.617400	0.259430
C421	C42	0.841600	0.128600	0.517720
C431	C43	0.782200	0.130200	0.556850
C441	C44	0.542200	0.023000	0.917230
C451	C45	0.029600	0.721200	0.385200
C461	C46	0.119700	0.624120	0.229860
C471	C47	0.380300	0.624120	0.729860
C481	C48	0.125200	0.034200	0.576630
C491	C49	0.292000	0.770300	0.149820
C501	C50	0.341600	0.871400	0.982280
C511	C51	0.444400	0.534200	0.179180
C521	C52	0.637200	0.525600	0.818790
O11	O1	0.218980	0.505150	0.677690
O21	O2	0.684880	0.385490	0.203630
O31	O3	0.202630	0.841950	0.642790
O41	O4	0.419610	0.606700	0.178010
O51	O5	0.696650	0.127560	0.555470
O61	O6	0.069550	0.878090	0.477230
O71	O7	0.397050	0.106550	0.072740
O81	O8	0.025210	0.754440	0.420380
O91	O9	0.293740	0.739400	0.184710
O101	O10	0.803350	0.127560	0.055470
O111	O11	0.168790	0.865720	0.410530
O121	O12	0.018800	0.749670	0.314830
O131	O13	0.815120	0.385490	0.703630
O141	O14	0.058400	0.905450	0.585230
O151	O15	0.315120	0.614510	0.796370
O161	O16	0.118190	0.403430	0.685270
O171	O17	0.430450	0.878090	0.977230
O181	O18	0.642840	0.372540	0.307570
O191	O19	0.199700	0.866580	0.514960
O201	O20	0.272200	0.639280	0.123510
O211	O21	0.705960	0.994430	0.923630
O221	O22	0.283600	0.615890	0.242670
O231	O23	0.205960	0.005570	0.576370
O241	O24	0.357160	0.627460	0.692430
O251	O25	0.702630	0.158050	0.857210
O261	O26	0.857160	0.372540	0.807570
O271	O27	0.206260	0.739400	0.684710
O281	O28	0.474090	0.492220	0.821550
O291	O29	0.831210	0.134280	0.589470
O301	O30	0.474790	0.754440	0.920380
O311	O31	0.515710	0.148340	0.140080
O321	O32	0.484290	0.851660	0.859920
O331	O33	0.618190	0.596570	0.814730
O341	O34	0.794040	0.994430	0.423630
O351	O35	0.716400	0.384110	0.757330
O361	O36	0.461070	0.624850	0.743740
O371	O37	0.038010	0.649810	0.377120
O381	O38	0.381810	0.403430	0.185270
O391	O39	0.800300	0.133420	0.485040
O401	O40	0.781020	0.494850	0.322310
O411	O41	0.962020	0.010730	0.585940
O421	O42	0.797370	0.158050	0.357210
O431	O43	0.881810	0.596570	0.314730
O441	O44	0.718980	0.494850	0.822310
O451	O45	0.699700	0.133420	0.985040
O461	O46	0.783600	0.384110	0.257330
O471	O47	0.287200	0.737960	0.079110
O481	O48	0.216400	0.615890	0.742670
O491	O49	0.641590	0.121880	0.423330
O501	O50	0.303350	0.872440	0.444530
O511	O51	0.294040	0.005570	0.076370
O521	O52	0.461990	0.649810	0.877120
O531	O53	0.772200	0.360720	0.376490
O541	O54	0.331210	0.865720	0.910530
O551	O55	0.793740	0.260600	0.315290
O561	O56	0.602950	0.893450	0.927260
O571	O57	0.184880	0.614510	0.296370
O581	O58	0.038930	0.624850	0.243740
O591	O59	0.712800	0.262040	0.920890
O601	O60	0.525210	0.245560	0.079620
O611	O61	0.102950	0.106550	0.572740
O621	O62	0.297370	0.841950	0.142790
O631	O63	0.981200	0.250330	0.685170
O641	O64	0.930450	0.121910	0.522770
O651	O65	0.142840	0.627460	0.192430
O661	O66	0.227800	0.639280	0.623510
O671	O67	0.558400	0.094550	0.914770
O681	O68	0.984290	0.148340	0.640080
O691	O69	0.858410	0.121880	0.923330
O701	O70	0.300300	0.866580	0.014960
O711	O71	0.961990	0.350190	0.622880
O721	O72	0.961070	0.375150	0.756260
O731	O73	0.525910	0.507780	0.178450
O741	O74	0.538930	0.375150	0.256260
O751	O75	0.537980	0.010730	0.085940
O761	O76	0.727800	0.360720	0.876490
O771	O77	0.897050	0.893450	0.427260
O781	O78	0.580390	0.393300	0.821990
O791	O79	0.569550	0.121910	0.022770
O801	O80	0.518800	0.250330	0.185170
O811	O81	0.974090	0.507780	0.678450
O821	O82	0.196650	0.872440	0.944530
O831	O83	0.025910	0.492220	0.321550
O841	O84	0.358410	0.878120	0.576670
O851	O85	0.481200	0.749670	0.814830
O861	O86	0.668790	0.134280	0.089470
O871	O87	0.941600	0.094550	0.414770
O881	O88	0.787200	0.262040	0.420890
O891	O89	0.212800	0.737960	0.579110
O901	O90	0.462020	0.989270	0.914060
O911	O91	0.919610	0.393300	0.321990
O921	O92	0.538010	0.350190	0.122880
O931	O93	0.706260	0.260600	0.815290
O941	O94	0.015710	0.851660	0.359920
O951	O95	0.141590	0.878120	0.076670
O961	O96	0.080390	0.606700	0.678010
O971	O97	0.037980	0.989270	0.414060
O981	O98	0.974790	0.245560	0.579620
O991	O99	0.281020	0.505150	0.177690
O1001	O100	0.441600	0.905450	0.085230
