data_cg501730q_si_002_freeONLY_PM
_symmetry_space_group_name_H-M	'P1'
_cell_length_a	16.063300
_cell_length_b	24.257600
_cell_length_c	24.257600
_cell_angle_alpha	64.728000
_cell_angle_beta	77.248000
_cell_angle_gamma	102.752000
_symmetry_Int_Tables_number 1

loop_
_symmetry_equiv_pos_as_xyz
'x,y,z'

loop_
_atom_site_label
_atom_site_type_symbol
_atom_site_fract_x
_atom_site_fract_y
_atom_site_fract_z
Cu11	Cu1	0.535650	0.460450	0.033510
Cu21	Cu2	0.921890	0.506540	0.020760
Cu31	Cu3	0.415350	0.472700	0.506540
Cu41	Cu4	0.584650	0.527300	0.493460
Cu51	Cu5	0.464350	0.539550	0.966490
Cu61	Cu6	0.430840	0.966490	0.493960
Cu71	Cu7	0.057350	0.979240	0.527300
Cu81	Cu8	0.942650	0.020760	0.472700
Cu91	Cu9	0.078110	0.493460	0.979240
Cu101	Cu10	0.924800	0.493960	0.539550
Cu111	Cu11	0.569160	0.033510	0.506040
Cu121	Cu12	0.075200	0.506040	0.460450
H11	H1	0.771600	0.409000	0.933600
H21	H2	0.011800	0.557600	0.248100
H31	H3	0.815000	0.766100	0.424000
H41	H4	0.404700	0.629000	0.008300
H51	H5	0.224300	0.637300	0.371000
H61	H6	0.927600	0.626800	0.519900
H71	H7	0.587000	0.991700	0.637300
H81	H8	0.076500	0.524000	0.329100
H91	H9	0.755700	0.497700	0.504800
H101	H10	0.545800	0.805700	0.442400
H111	H11	0.213700	0.741500	0.686300
H121	H12	0.362600	0.657400	0.409000
H131	H13	0.454200	0.194300	0.557600
H141	H14	0.966400	0.539100	0.171400
H151	H15	0.761000	0.576000	0.190100
H161	H16	0.595300	0.371000	0.991700
H171	H17	0.447500	0.519900	0.853300
H181	H18	0.049500	0.214400	0.433500
H191	H19	0.258000	0.997500	0.497700
H201	H20	0.654700	0.243500	0.618500
H211	H21	0.228400	0.591000	0.066400
H221	H22	0.726800	0.381500	0.862000
H231	H23	0.300800	0.853300	0.626800
H241	H24	0.923500	0.476000	0.670900
H251	H25	0.259900	0.248100	0.194300
H261	H26	0.786300	0.258500	0.313700
H271	H27	0.742000	0.002500	0.502300
H281	H28	0.413000	0.008300	0.362700
H291	H29	0.473200	0.191500	0.123900
H301	H30	0.053100	0.862600	0.652900
H311	H31	0.739500	0.495200	0.002500
H321	H32	0.190500	0.484500	0.862600
H331	H33	0.294800	0.066400	0.342600
H341	H34	0.281700	0.684600	0.191500
H351	H35	0.775700	0.362700	0.629000
H361	H36	0.072400	0.373200	0.480100
H371	H37	0.003000	0.285200	0.134900
H381	H38	0.527800	0.427800	0.258500
H391	H39	0.137900	0.134900	0.579900
H401	H40	0.997000	0.714800	0.865100
H411	H41	0.946900	0.137400	0.347100
H421	H42	0.594400	0.670900	0.853100
H431	H43	0.033600	0.460900	0.828600
H441	H44	0.294000	0.347100	0.515500
H451	H45	0.427300	0.289500	0.539100
H461	H46	0.517000	0.566500	0.647900
H471	H47	0.552500	0.480100	0.146700
H481	H48	0.862200	0.828600	0.710500
H491	H49	0.472200	0.572200	0.741500
H501	H50	0.239000	0.424000	0.809900
H511	H51	0.699200	0.146700	0.373200
H521	H52	0.950500	0.785600	0.566500
H531	H53	0.862100	0.865100	0.420100
H541	H54	0.282200	0.420100	0.714800
H551	H55	0.718300	0.315400	0.808500
H561	H56	0.411200	0.138000	0.243500
H571	H57	0.572700	0.710500	0.460900
H581	H58	0.345300	0.756500	0.381500
H591	H59	0.260500	0.504800	0.997500
H601	H60	0.185000	0.233900	0.576000
H611	H61	0.526800	0.808500	0.876100
H621	H62	0.951100	0.190100	0.233900
H631	H63	0.402900	0.876100	0.315400
H641	H64	0.447500	0.853100	0.476000
H651	H65	0.597100	0.123900	0.684600
H661	H66	0.637400	0.342600	0.591000
H671	H67	0.588800	0.862000	0.756500
H681	H68	0.552500	0.146900	0.524000
H691	H69	0.900000	0.686300	0.572200
H701	H70	0.706000	0.652900	0.484500
H711	H71	0.835100	0.352100	0.214400
H721	H72	0.988200	0.442400	0.751900
H731	H73	0.100000	0.313700	0.427800
H741	H74	0.244300	0.502300	0.495200
H751	H75	0.483000	0.433500	0.352100
H761	H76	0.137800	0.171400	0.289500
H771	H77	0.405600	0.329100	0.146900
H781	H78	0.717800	0.579900	0.285200
H791	H79	0.809500	0.515500	0.137400
H801	H80	0.164900	0.647900	0.785600
H811	H81	0.048900	0.809900	0.766100
H821	H82	0.705200	0.933600	0.657400
H831	H83	0.740100	0.751900	0.805700
H841	H84	0.273200	0.618500	0.138000
C11	C1	0.146330	0.283580	0.502890
C21	C2	0.525600	0.718910	0.446210
C31	C3	0.562320	0.122090	0.561830
C41	C4	0.052250	0.100000	0.510050
C51	C5	0.858590	0.319460	0.218090
C61	C6	0.517900	0.390400	0.545500
C71	C7	0.551820	0.339740	0.032680
C81	C8	0.704760	0.547220	0.222640
C91	C9	0.227240	0.462920	0.495600
C101	C10	0.787920	0.372420	0.660260
C111	C11	0.460870	0.537550	0.680540
C121	C12	0.176940	0.347280	0.499660
C131	C13	0.357300	0.145900	0.253200
C141	C14	0.722840	0.495600	0.041480
C151	C15	0.642700	0.854100	0.746800
C161	C16	0.235680	0.958520	0.537080
C171	C17	0.286560	0.102220	0.311940
C181	C18	0.489900	0.223410	0.566010
C191	C19	0.828940	0.263290	0.277570
C201	C20	0.952250	0.389950	0.100000
C211	C21	0.482100	0.609600	0.454500
C221	C22	0.588400	0.108270	0.656670
C231	C23	0.944090	0.433990	0.789420
C241	C24	0.261500	0.874440	0.612840
C251	C25	0.936600	0.454500	0.935900
C261	C26	0.295240	0.452780	0.777360
C271	C27	0.922110	0.328340	0.163910
C281	C28	0.923320	0.781910	0.537550
C291	C29	0.612940	0.487280	0.125560
C301	C30	0.443550	0.791500	0.410050
C311	C31	0.871220	0.829480	0.450120
C321	C32	0.055910	0.566010	0.210580
C331	C33	0.874340	0.612840	0.512720
C341	C34	0.321340	0.450120	0.720400
C351	C35	0.127500	0.064100	0.390400
C361	C36	0.041740	0.720400	0.829480
C371	C37	0.431900	0.854000	0.396800
C381	C38	0.519870	0.764940	0.891730
C391	C39	0.415500	0.967320	0.372420
C401	C40	0.678660	0.549880	0.279600
C411	C41	0.788600	0.399100	0.854100
C421	C42	0.610500	0.253200	0.600900
C431	C43	0.157540	0.230140	0.547220
C441	C44	0.598500	0.311940	0.585840
C451	C45	0.562300	0.510050	0.389950
C461	C46	0.124150	0.561830	0.316080
C471	C47	0.842460	0.769860	0.452780
C481	C48	0.211400	0.600900	0.145900
C491	C49	0.389500	0.746800	0.399100
C501	C50	0.470300	0.674350	0.436450
C511	C51	0.713440	0.897780	0.688060
C521	C52	0.076680	0.218090	0.462450
C531	C53	0.245070	0.656670	0.235060
C541	C54	0.434350	0.540860	0.736710
C551	C55	0.743710	0.628480	0.491850
C561	C56	0.559770	0.683920	0.877910
C571	C57	0.193310	0.165120	0.281090
C581	C58	0.556450	0.208500	0.589950
C591	C59	0.884770	0.120330	0.371520
C601	C60	0.437680	0.877910	0.438170
C611	C61	0.323400	0.500340	0.846940
C621	C62	0.106510	0.277570	0.459140
C631	C63	0.406230	0.492250	0.671660
C641	C64	0.906750	0.436450	0.889200
C651	C65	0.872500	0.935900	0.609600
C661	C66	0.733510	0.789420	0.776590
C671	C67	0.137250	0.786470	0.716420
C681	C68	0.125660	0.387160	0.487280
C691	C69	0.593770	0.507750	0.328340
C701	C70	0.738500	0.125560	0.387160
C711	C71	0.795950	0.889200	0.674350
C721	C72	0.971810	0.446210	0.834880
C731	C73	0.072600	0.777360	0.769860
C741	C74	0.204050	0.110800	0.325650
C751	C75	0.411600	0.891730	0.343330
C761	C76	0.958260	0.279600	0.170520
C771	C77	0.893490	0.722430	0.540860
C781	C78	0.448180	0.660260	0.967320
C791	C79	0.256290	0.371520	0.508150
C801	C80	0.235560	0.491850	0.879670
C811	C81	0.115230	0.879670	0.628480
C821	C82	0.764320	0.041480	0.462920
C831	C83	0.510100	0.776590	0.433990
C841	C84	0.529700	0.325650	0.563550
C851	C85	0.862750	0.213530	0.283580
C861	C86	0.539130	0.462450	0.319460
C871	C87	0.829660	0.153060	0.347280
C881	C88	0.093250	0.563550	0.110800
C891	C89	0.146400	0.589950	0.201550
C901	C90	0.652050	0.798450	0.791500
C911	C91	0.440230	0.316080	0.122090
C921	C92	0.754930	0.343330	0.764940
C931	C93	0.277160	0.504400	0.958520
C941	C94	0.171300	0.603200	0.250800
C951	C95	0.212080	0.627580	0.339740
C961	C96	0.266490	0.210580	0.223410
C971	C97	0.853670	0.716420	0.497110
C981	C98	0.584500	0.032680	0.627580
C991	C99	0.077890	0.671660	0.836090
C1001	C100	0.141410	0.680540	0.781910
C1011	C101	0.853600	0.410050	0.798450
C1021	C102	0.387060	0.512720	0.874440
C1031	C103	0.347950	0.201550	0.208500
C1041	C104	0.806690	0.834880	0.718910
C1051	C105	0.086020	0.163910	0.507750
C1061	C106	0.828700	0.396800	0.749200
C1071	C107	0.437700	0.489950	0.610050
C1081	C108	0.815660	0.414160	0.897780
C1091	C109	0.565650	0.459140	0.263290
C1101	C110	0.875850	0.438170	0.683920
C1111	C111	0.676600	0.499660	0.153060
C1121	C112	0.063400	0.545500	0.064100
C1131	C113	0.764440	0.508150	0.120330
C1141	C114	0.350780	0.497110	0.786470
C1151	C115	0.474400	0.281090	0.553790
C1161	C116	0.772760	0.537080	0.504400
C1171	C117	0.128780	0.170520	0.549880
C1181	C118	0.047750	0.610050	0.900000
C1191	C119	0.568100	0.146000	0.603200
C1201	C120	0.927400	0.222640	0.230140
C1211	C121	0.401500	0.688060	0.414160
C1221	C122	0.480130	0.235060	0.108270
C1231	C123	0.947750	0.900000	0.489950
C1241	C124	0.577900	0.749200	0.854000
C1251	C125	0.184340	0.585840	0.102220
C1261	C126	0.823060	0.652720	0.500340
C1271	C127	0.649220	0.502890	0.213530
C1281	C128	0.422100	0.250800	0.146000
C1291	C129	0.171060	0.736710	0.722430
C1301	C130	0.913980	0.836090	0.492250
C1311	C131	0.170340	0.846940	0.652720
C1321	C132	0.028190	0.553790	0.165120
I11	I1	0.481460	0.093920	0.433530
I21	I2	0.914990	0.433530	0.472550
I31	I3	0.612460	0.527450	0.906080
I41	I4	0.387540	0.472550	0.093920
I51	I5	0.518540	0.906080	0.566470
I61	I6	0.085010	0.566470	0.527450
N11	N1	0.595930	0.050920	0.669730
N21	N2	0.429990	0.935800	0.426730
N31	N3	0.404070	0.949080	0.330270
N41	N4	0.856720	0.426730	0.637470
N51	N5	0.734340	0.330270	0.720650
N61	N6	0.570010	0.064200	0.573270
N71	N7	0.265660	0.669730	0.279350
N81	N8	0.295940	0.930200	0.555080
N91	N9	0.147670	0.935040	0.571230
N101	N10	0.852330	0.064960	0.428770
N111	N11	0.281100	0.428770	0.506270
N121	N12	0.704060	0.069800	0.444920
N131	N13	0.454990	0.720650	0.949080
N141	N14	0.545010	0.279350	0.050920
N151	N15	0.634260	0.485280	0.069800
N161	N16	0.851020	0.555080	0.514720
N171	N17	0.787370	0.506270	0.064960
N181	N18	0.365740	0.514720	0.930200
N191	N19	0.718900	0.571230	0.493730
N201	N20	0.143280	0.573270	0.362530
N211	N21	0.505810	0.362530	0.064200
N221	N22	0.148980	0.444920	0.485280
N231	N23	0.212630	0.493730	0.935040
N241	N24	0.494190	0.637470	0.935800
O11	O1	0.008220	0.906510	0.513650
O21	O2	0.585120	0.437480	0.532820
O31	O3	0.951430	0.935120	0.608130
O41	O4	0.377530	0.466380	0.592390
O51	O5	0.622470	0.533620	0.407610
O61	O6	0.440440	0.391870	0.543250
O71	O7	0.117940	0.532820	0.029700
O81	O8	0.101710	0.579840	0.906510
O91	O9	0.147640	0.029700	0.437480
O101	O10	0.852360	0.970300	0.562520
O111	O11	0.048570	0.064880	0.391870
O121	O12	0.983690	0.543250	0.064880
O131	O13	0.559560	0.608130	0.456750
O141	O14	0.478130	0.486350	0.420160
O151	O15	0.898290	0.420160	0.093490
O161	O16	0.088850	0.058770	0.533620
O171	O17	0.969920	0.592390	0.941230
O181	O18	0.991780	0.093490	0.486350
O191	O19	0.882060	0.467180	0.970300
O201	O20	0.414880	0.562520	0.467180
O211	O21	0.911150	0.941230	0.466380
O221	O22	0.521870	0.513650	0.579840
O231	O23	0.016310	0.456750	0.935120
O241	O24	0.030080	0.407610	0.058770
