data_cg501141m_si_002_freeONLY_PM
_symmetry_space_group_name_H-M	'P1'
_cell_length_a	20.135000
_cell_length_b	20.135000
_cell_length_c	26.217000
_cell_angle_alpha	69.910000
_cell_angle_beta	69.910000
_cell_angle_gamma	78.147600
_symmetry_Int_Tables_number 1

loop_
_symmetry_equiv_pos_as_xyz
'x,y,z'

loop_
_atom_site_label
_atom_site_type_symbol
_atom_site_fract_x
_atom_site_fract_y
_atom_site_fract_z
Co11	Co1	0.180990	0.697010	0.535840
Co21	Co2	0.993660	0.006340	0.750000
Co31	Co3	0.697500	0.703560	0.208100
Co41	Co4	0.302500	0.296440	0.791900
Co51	Co5	0.819010	0.302990	0.464160
Co61	Co6	0.703560	0.697500	0.708100
Co71	Co7	0.006340	0.993660	0.250000
Co81	Co8	0.307070	0.827710	0.472300
Co91	Co9	0.697010	0.180990	0.035840
Co101	Co10	0.302990	0.819010	0.964160
Co111	Co11	0.296440	0.302500	0.291900
Co121	Co12	0.725460	0.712680	0.563380
Co131	Co13	0.692930	0.172290	0.527700
Co141	Co14	0.287320	0.274540	0.936620
Co151	Co15	0.172290	0.692930	0.027700
Co161	Co16	0.274540	0.287320	0.436620
Co171	Co17	0.712680	0.725460	0.063380
Co181	Co18	0.827710	0.307070	0.972300
H11	H1	0.332500	0.948500	0.360900
H21	H2	0.977900	0.891900	0.700000
H31	H3	0.220000	0.904200	0.108600
H41	H4	0.174300	0.956900	0.860500
H51	H5	0.882700	0.983500	0.700800
H61	H6	0.016500	0.117300	0.799200
H71	H7	0.641800	0.446800	0.325200
H81	H8	0.066300	0.674100	0.495600
H91	H9	0.768900	0.336500	0.088500
H101	H10	0.441200	0.220800	0.029500
H111	H11	0.416100	0.734100	0.124500
H121	H12	0.168400	0.531400	0.062800
H131	H13	0.677800	0.945200	0.020000
H141	H14	0.682700	0.051700	0.486800
H151	H15	0.055700	0.675900	0.646400
H161	H16	0.904200	0.220000	0.608600
H171	H17	0.553200	0.358200	0.174800
H181	H18	0.558800	0.779200	0.970500
H191	H19	0.041000	0.822000	0.135300
H201	H20	0.156600	0.961000	0.175900
H211	H21	0.554100	0.629500	0.760100
H221	H22	0.174400	0.503400	0.677900
H231	H23	0.664600	0.436800	0.821400
H241	H24	0.894100	0.879700	0.405900
H251	H25	0.891900	0.977900	0.200000
H261	H26	0.214400	0.918600	0.613100
H271	H27	0.767900	0.327300	0.582400
H281	H28	0.831600	0.468600	0.937200
H291	H29	0.043100	0.825700	0.639500
H301	H30	0.673800	0.931200	0.671400
H311	H31	0.811500	0.465300	0.432100
H321	H32	0.983500	0.882700	0.200800
H331	H33	0.324100	0.944300	0.853600
H341	H34	0.629500	0.554100	0.260100
H351	H35	0.326200	0.068800	0.328600
H361	H36	0.679300	0.934100	0.175200
H371	H37	0.022100	0.108100	0.300000
H381	H38	0.220800	0.441200	0.529500
H391	H39	0.335400	0.563200	0.178600
H401	H40	0.317300	0.948300	0.513200
H411	H41	0.572000	0.270800	0.371800
H421	H42	0.692800	0.930000	0.514100
H431	H43	0.231100	0.663500	0.911500
H441	H44	0.605700	0.805300	0.760300
H451	H45	0.307200	0.070000	0.485900
H461	H46	0.934100	0.679300	0.675200
H471	H47	0.502900	0.834700	0.328400
H481	H48	0.325900	0.933700	0.004400
H491	H49	0.051500	0.667500	0.139100
H501	H50	0.205000	0.436400	0.027300
H511	H51	0.930000	0.692800	0.014100
H521	H52	0.187100	0.391300	0.235400
H531	H53	0.394300	0.194700	0.239700
H541	H54	0.834400	0.818000	0.496800
H551	H55	0.457000	0.351800	0.742700
H561	H56	0.436400	0.205000	0.527300
H571	H57	0.165300	0.497100	0.171600
H581	H58	0.327300	0.767900	0.082400
H591	H59	0.743100	0.718100	0.440100
H601	H60	0.822000	0.041000	0.635300
H611	H61	0.188500	0.534700	0.567900
H621	H62	0.978400	0.145600	0.177200
H631	H63	0.674100	0.066300	0.995600
H641	H64	0.531400	0.168400	0.562800
H651	H65	0.961000	0.156600	0.675900
H661	H66	0.496600	0.825600	0.822100
H671	H67	0.256900	0.281900	0.559900
H681	H68	0.933700	0.325900	0.504400
H691	H69	0.145600	0.978400	0.677200
H701	H70	0.370500	0.445900	0.739900
H711	H71	0.718100	0.743100	0.940100
H721	H72	0.105900	0.120300	0.594100
H731	H73	0.117300	0.016500	0.299200
H741	H74	0.918600	0.214400	0.113100
H751	H75	0.948500	0.332500	0.860900
H761	H76	0.948300	0.317300	0.013200
H771	H77	0.265900	0.583900	0.375500
H781	H78	0.805300	0.605700	0.260300
H791	H79	0.351800	0.457000	0.242700
H801	H80	0.081400	0.785600	0.886900
H811	H81	0.165600	0.182000	0.503200
H821	H82	0.812900	0.608700	0.764600
H831	H83	0.777800	0.800200	0.847000
H841	H84	0.583900	0.265900	0.875500
H851	H85	0.563200	0.335400	0.678600
H861	H86	0.785600	0.081400	0.386900
H871	H87	0.039000	0.843400	0.324100
H881	H88	0.843400	0.039000	0.824100
H891	H89	0.232100	0.672700	0.417600
H901	H90	0.199800	0.222200	0.653000
H911	H91	0.675900	0.055700	0.146400
H921	H92	0.663500	0.231100	0.411500
H931	H93	0.779200	0.558800	0.470500
H941	H94	0.322200	0.054800	0.980000
H951	H95	0.465300	0.811500	0.932100
H961	H96	0.428000	0.729200	0.628200
H971	H97	0.051700	0.682700	0.986800
H981	H98	0.825700	0.043100	0.139500
H991	H99	0.543000	0.648200	0.257300
H1001	H100	0.222200	0.199800	0.153000
H1011	H101	0.436800	0.664600	0.321400
H1021	H102	0.108100	0.022100	0.800000
H1031	H103	0.944300	0.324100	0.353600
H1041	H104	0.468600	0.831600	0.437200
H1051	H105	0.648200	0.543000	0.757300
H1061	H106	0.825600	0.496600	0.322100
H1071	H107	0.734100	0.416100	0.624500
H1081	H108	0.800200	0.777800	0.347000
H1091	H109	0.780000	0.095800	0.891400
H1101	H110	0.534700	0.188500	0.067900
H1111	H111	0.068800	0.326200	0.828600
H1121	H112	0.945200	0.677800	0.520000
H1131	H113	0.729200	0.428000	0.128200
H1141	H114	0.818000	0.834400	0.996800
H1151	H115	0.054800	0.322200	0.480000
H1161	H116	0.194700	0.394300	0.739700
H1171	H117	0.931200	0.673800	0.171400
H1181	H118	0.095800	0.780000	0.391400
H1191	H119	0.270800	0.572000	0.871800
H1201	H120	0.497100	0.165300	0.671600
H1211	H121	0.667500	0.051500	0.639100
H1221	H122	0.503400	0.174400	0.177900
H1231	H123	0.445900	0.370500	0.239900
H1241	H124	0.834700	0.502900	0.828400
H1251	H125	0.959000	0.178000	0.864700
H1261	H126	0.879700	0.894100	0.905900
H1271	H127	0.358200	0.553200	0.674800
H1281	H128	0.178000	0.959000	0.364700
H1291	H129	0.795000	0.563600	0.972700
H1301	H130	0.320700	0.065900	0.824800
H1311	H131	0.120300	0.105900	0.094100
H1321	H132	0.021600	0.854400	0.822800
H1331	H133	0.608700	0.812900	0.264600
H1341	H134	0.956900	0.174300	0.360500
H1351	H135	0.446800	0.641800	0.825200
H1361	H136	0.281900	0.256900	0.059900
H1371	H137	0.070000	0.307200	0.985900
H1381	H138	0.854400	0.021600	0.322800
H1391	H139	0.182000	0.165600	0.003200
H1401	H140	0.672700	0.232100	0.917600
H1411	H141	0.391300	0.187100	0.735400
H1421	H142	0.065900	0.320700	0.324800
H1431	H143	0.563600	0.795000	0.472700
H1441	H144	0.336500	0.768900	0.588500
C11	C1	0.136780	0.152640	0.588240
C21	C2	0.889360	0.878320	0.305210
C31	C3	0.248060	0.502560	0.447720
C41	C4	0.039140	0.676120	0.531850
C51	C5	0.460290	0.810430	0.476140
C61	C6	0.212910	0.192250	0.123160
C71	C7	0.142640	0.935000	0.854270
C81	C8	0.323880	0.960860	0.968150
C91	C9	0.488930	0.205030	0.684200
C101	C10	0.164250	0.303530	0.886060
C111	C11	0.437600	0.749660	0.589080
C121	C12	0.033330	0.322050	0.453720
C131	C13	0.682620	0.026700	0.524010
C141	C14	0.788440	0.517780	0.997110
C151	C15	0.606940	0.260340	0.119100
C161	C16	0.543760	0.667760	0.774800
C171	C17	0.136740	0.857000	0.113380
C181	C18	0.756560	0.506500	0.054820
C191	C19	0.218440	0.425780	0.222600
C201	C20	0.431500	0.270240	0.420490
C211	C21	0.179120	0.824920	0.576340
C221	C22	0.810430	0.460290	0.976140
C231	C23	0.865280	0.135860	0.118640
C241	C24	0.250340	0.562400	0.910920
C251	C25	0.875590	0.051770	0.331270
C261	C26	0.065710	0.850690	0.142280
C271	C27	0.102960	0.973940	0.817400
C281	C28	0.540720	0.251520	0.664300
C291	C29	0.313220	0.084260	0.404130
C301	C30	0.224000	0.487800	0.505940
C311	C31	0.748480	0.459280	0.835700
C321	C32	0.557390	0.729770	0.079460
C331	C33	0.794970	0.511070	0.815800
C341	C34	0.535800	0.684820	0.273200
C351	C35	0.667760	0.543760	0.274800
C361	C36	0.100790	0.828110	0.373500
C371	C37	0.382850	0.773470	0.564860
C381	C38	0.694360	0.471760	0.811600
C391	C39	0.216110	0.491690	0.688210
C401	C40	0.026060	0.897040	0.682600
C411	C41	0.324480	0.521280	0.686900
C421	C42	0.617150	0.226530	0.435140
C431	C43	0.773470	0.382850	0.064860
C441	C44	0.132950	0.933410	0.167040
C451	C45	0.751570	0.773290	0.933180
C461	C46	0.973940	0.102960	0.317400
C471	C47	0.696470	0.835750	0.613940
C481	C48	0.729760	0.568500	0.079510
C491	C49	0.677290	0.954490	0.633350
C501	C50	0.680040	0.925800	0.100350
C511	C51	0.124410	0.948230	0.668730
C521	C52	0.026420	0.673260	0.113720
C531	C53	0.180440	0.824560	0.431220
C541	C54	0.026700	0.682620	0.024010
C551	C55	0.959970	0.678930	0.638340
C561	C56	0.933410	0.132950	0.667040
C571	C57	0.230240	0.625700	0.440420
C581	C58	0.317380	0.973300	0.475990
C591	C59	0.684820	0.535800	0.773200
C601	C60	0.460040	0.733020	0.833860
C611	C61	0.845260	0.685820	0.615890
C621	C62	0.250480	0.572580	0.414930
C631	C63	0.960860	0.323880	0.468150
C641	C64	0.493500	0.243440	0.445180
C651	C65	0.110640	0.121680	0.694790
C661	C66	0.205030	0.488930	0.184200
C671	C67	0.305640	0.528240	0.188400
C681	C68	0.795370	0.455350	0.471420
C691	C69	0.031420	0.887300	0.181760
C701	C70	0.427420	0.749520	0.085070
C711	C71	0.303530	0.164250	0.386060
C721	C72	0.966670	0.677950	0.546280
C731	C73	0.243980	0.607780	0.115900
C741	C74	0.189570	0.539710	0.023860
C751	C75	0.051770	0.875590	0.831270
C761	C76	0.911900	0.166580	0.130470
C771	C77	0.511070	0.794970	0.315800
C781	C78	0.676120	0.039140	0.031850
C791	C79	0.512200	0.776000	0.994060
C801	C80	0.322850	0.967010	0.879400
C811	C81	0.506500	0.756560	0.554820
C821	C82	0.175440	0.819560	0.068780
C831	C83	0.934290	0.149310	0.857720
C841	C84	0.154740	0.314180	0.384110
C851	C85	0.850690	0.065710	0.642280
C861	C86	0.502560	0.248060	0.947720
C871	C87	0.887300	0.031420	0.681760
C881	C88	0.189790	0.172990	0.033710
C891	C89	0.322710	0.045510	0.366650
C901	C90	0.973580	0.326740	0.886280
C911	C91	0.066590	0.867050	0.332960
C921	C92	0.688150	0.953690	0.540160
C931	C93	0.827010	0.810210	0.466290
C941	C94	0.863260	0.143000	0.886620
C951	C95	0.211560	0.482220	0.002890
C961	C96	0.539960	0.266980	0.166140
C971	C97	0.751940	0.497440	0.552280
C981	C98	0.166580	0.911900	0.630470
C991	C99	0.863220	0.847360	0.411760
C1001	C100	0.783890	0.508310	0.311790
C1011	C101	0.948230	0.124410	0.168730
C1021	C102	0.260340	0.606940	0.619100
C1031	C103	0.040030	0.321070	0.361660
C1041	C104	0.562400	0.250340	0.410920
C1051	C105	0.899210	0.171890	0.626500
C1061	C106	0.733020	0.460040	0.333860
C1071	C107	0.226530	0.617150	0.935140
C1081	C108	0.836120	0.853100	0.866290
C1091	C109	0.442610	0.270230	0.920540
C1101	C110	0.322050	0.033330	0.953720
C1111	C111	0.607780	0.243980	0.615900
C1121	C112	0.756020	0.392220	0.884100
C1131	C113	0.828110	0.100790	0.873500
C1141	C114	0.482220	0.211560	0.502890
C1151	C115	0.149310	0.934290	0.357720
C1161	C116	0.769760	0.374300	0.559580
C1171	C117	0.729770	0.557390	0.579460
C1181	C118	0.508310	0.783890	0.811790
C1191	C119	0.326740	0.973580	0.386280
C1201	C120	0.319960	0.074200	0.899650
C1211	C121	0.226710	0.248430	0.566820
C1221	C122	0.134720	0.864140	0.881360
C1231	C123	0.915740	0.686780	0.095870
C1241	C124	0.739660	0.393060	0.380900
C1251	C125	0.314180	0.154740	0.884110
C1261	C126	0.967010	0.322850	0.379400
C1271	C127	0.867050	0.066590	0.832960
C1281	C128	0.065000	0.857360	0.645730
C1291	C129	0.685820	0.845260	0.115890
C1301	C130	0.243440	0.493500	0.945180
C1311	C131	0.464200	0.315180	0.726800
C1321	C132	0.112700	0.968580	0.318240
C1331	C133	0.266980	0.539960	0.666140
C1341	C134	0.625700	0.230240	0.940420
C1351	C135	0.776000	0.512200	0.494060
C1361	C136	0.084260	0.313220	0.904130
C1371	C137	0.163880	0.146900	0.133710
C1381	C138	0.677150	0.032990	0.120600
C1391	C139	0.574220	0.781560	0.277400
C1401	C140	0.491690	0.216110	0.188210
C1411	C141	0.810210	0.827010	0.966290
C1421	C142	0.497440	0.751940	0.052280
C1431	C143	0.143000	0.863260	0.386620
C1441	C144	0.392220	0.756020	0.384100
C1451	C145	0.678930	0.959970	0.138340
C1461	C146	0.471760	0.694360	0.311600
C1471	C147	0.833420	0.088100	0.369530
C1481	C148	0.311850	0.046310	0.459840
C1491	C149	0.426340	0.228700	0.225590
C1501	C150	0.172990	0.189790	0.533710
C1511	C151	0.046310	0.311850	0.959840
C1521	C152	0.152640	0.136780	0.088240
C1531	C153	0.857000	0.136740	0.613380
C1541	C154	0.135860	0.865280	0.618640
C1551	C155	0.393060	0.739660	0.880900
C1561	C156	0.121680	0.110640	0.194790
C1571	C157	0.787090	0.807750	0.876840
C1581	C158	0.228700	0.426340	0.725590
C1591	C159	0.673260	0.026420	0.613720
C1601	C160	0.544650	0.204630	0.028580
C1611	C161	0.251520	0.540720	0.164300
C1621	C162	0.088100	0.833420	0.869530
C1631	C163	0.192250	0.212910	0.623160
C1641	C164	0.675520	0.478720	0.313100
C1651	C165	0.847360	0.863220	0.911760
C1661	C166	0.824560	0.180440	0.931220
C1671	C167	0.455350	0.795370	0.971420
C1681	C168	0.749660	0.437600	0.089080
C1691	C169	0.568500	0.729760	0.579510
C1701	C170	0.897040	0.026060	0.182600
C1711	C171	0.270240	0.431500	0.920490
C1721	C172	0.478720	0.675520	0.813100
C1731	C173	0.204630	0.544650	0.528580
C1741	C174	0.374300	0.769760	0.059580
C1751	C175	0.539710	0.189570	0.523860
C1761	C176	0.935000	0.142640	0.354270
C1771	C177	0.954490	0.677290	0.133350
C1781	C178	0.487800	0.224000	0.005940
C1791	C179	0.045510	0.322710	0.866650
C1801	C180	0.968580	0.112700	0.818240
C1811	C181	0.521280	0.324480	0.186900
C1821	C182	0.315180	0.464200	0.226800
C1831	C183	0.807750	0.787090	0.376840
C1841	C184	0.517780	0.788440	0.497110
C1851	C185	0.820880	0.175080	0.423660
C1861	C186	0.857360	0.065000	0.145730
C1871	C187	0.248430	0.226710	0.066820
C1881	C188	0.835750	0.696470	0.113940
C1891	C189	0.864140	0.134720	0.381360
C1901	C190	0.332240	0.456240	0.725200
C1911	C191	0.175080	0.820880	0.923660
C1921	C192	0.171890	0.899210	0.126500
C1931	C193	0.853100	0.836120	0.366290
C1941	C194	0.459280	0.748480	0.335700
C1951	C195	0.878320	0.889360	0.805210
C1961	C196	0.824920	0.179120	0.076340
C1971	C197	0.425780	0.218440	0.722600
C1981	C198	0.781560	0.574220	0.777400
C1991	C199	0.074200	0.319960	0.399650
C2001	C200	0.819560	0.175440	0.568780
C2011	C201	0.572580	0.250480	0.914930
C2021	C202	0.686780	0.915740	0.595870
C2031	C203	0.573660	0.771300	0.774410
C2041	C204	0.925800	0.680040	0.600350
C2051	C205	0.953690	0.688150	0.040160
C2061	C206	0.528240	0.305640	0.688400
C2071	C207	0.677950	0.966670	0.046280
C2081	C208	0.456240	0.332240	0.225200
C2091	C209	0.321070	0.040030	0.861660
C2101	C210	0.146900	0.163880	0.633710
C2111	C211	0.749520	0.427420	0.585070
C2121	C212	0.032990	0.677150	0.620600
C2131	C213	0.773290	0.751570	0.433180
C2141	C214	0.973300	0.317380	0.975990
C2151	C215	0.270230	0.442610	0.420540
C2161	C216	0.771300	0.573660	0.274410
N11	N1	0.589300	0.725200	0.256930
N21	N2	0.781500	0.763300	0.477030
N31	N3	0.944700	0.057800	0.306070
N41	N4	0.763300	0.781500	0.977030
N51	N5	0.063390	0.677150	0.059470
N61	N6	0.218500	0.236700	0.522970
N71	N7	0.406600	0.287340	0.242680
N81	N8	0.792110	0.387950	0.502710
N91	N9	0.057800	0.944700	0.806070
N101	N10	0.677140	0.072440	0.067950
N111	N11	0.612050	0.207890	0.997290
N121	N12	0.072440	0.677140	0.567950
N131	N13	0.606400	0.197080	0.491330
N141	N14	0.929160	0.064400	0.693750
N151	N15	0.207890	0.612050	0.497290
N161	N16	0.936610	0.322850	0.940530
N171	N17	0.712660	0.593400	0.257320
N181	N18	0.410700	0.274800	0.743070
N191	N19	0.387950	0.792110	0.002710
N201	N20	0.064400	0.929160	0.193750
N211	N21	0.197080	0.606400	0.991330
N221	N22	0.287340	0.406600	0.742680
N231	N23	0.055300	0.942200	0.693930
N241	N24	0.274800	0.410700	0.243070
N251	N25	0.935600	0.070840	0.806250
N261	N26	0.725200	0.589300	0.756930
N271	N27	0.322850	0.936610	0.440530
N281	N28	0.927560	0.322860	0.432050
N291	N29	0.942200	0.055300	0.193930
N301	N30	0.593400	0.712660	0.757320
N311	N31	0.677150	0.063390	0.559470
N321	N32	0.070840	0.935600	0.306250
N331	N33	0.393600	0.802920	0.508670
N341	N34	0.236700	0.218500	0.022970
N351	N35	0.322860	0.927560	0.932050
N361	N36	0.802920	0.393600	0.008670
O11	O1	0.706420	0.541500	0.632370
O21	O2	0.374620	0.798620	0.890700
O31	O3	0.081470	0.066510	0.200720
O41	O4	0.315500	0.637900	0.591700
O51	O5	0.264510	0.269050	0.236710
O61	O6	0.700430	0.553210	0.132690
O71	O7	0.618580	0.737320	0.045320
O81	O8	0.683860	0.821860	0.078550
O91	O9	0.637900	0.315500	0.091700
O101	O10	0.379110	0.811010	0.397430
O111	O11	0.850880	0.221600	0.426270
O121	O12	0.287390	0.191490	0.424860
O131	O13	0.294850	0.642850	0.094500
O141	O14	0.239990	0.842890	0.548400
O151	O15	0.871860	0.870400	0.267120
O161	O16	0.625380	0.201380	0.109300
O171	O17	0.689050	0.804510	0.664820
O181	O18	0.338230	0.327750	0.845960
O191	O19	0.308840	0.189140	0.835690
O201	O20	0.804510	0.689050	0.164820
O211	O21	0.262680	0.381420	0.454680
O221	O22	0.310950	0.195490	0.335180
O231	O23	0.838070	0.236090	0.538610
O241	O24	0.221600	0.850880	0.926270
O251	O25	0.161930	0.763910	0.461390
O261	O26	0.918530	0.933490	0.799280
O271	O27	0.553210	0.700430	0.632690
O281	O28	0.763910	0.161930	0.961390
O291	O29	0.178140	0.316140	0.421450
O301	O30	0.705150	0.357150	0.905500
O311	O31	0.446790	0.299570	0.367310
O321	O32	0.262410	0.370750	0.954650
O331	O33	0.672250	0.661770	0.654040
O341	O34	0.642850	0.294850	0.594500
O351	O35	0.541500	0.706420	0.132370
O361	O36	0.381420	0.262680	0.954680
O371	O37	0.269050	0.264510	0.736710
O381	O38	0.128140	0.129600	0.732880
O391	O39	0.774640	0.143300	0.565590
O401	O40	0.362100	0.684500	0.908300
O411	O41	0.357150	0.705150	0.405500
O421	O42	0.293580	0.458500	0.367630
O431	O43	0.730950	0.735490	0.263290
O441	O44	0.798620	0.374620	0.390700
O451	O45	0.458500	0.293580	0.867630
O461	O46	0.821860	0.683860	0.578550
O471	O47	0.712610	0.808510	0.575140
O481	O48	0.299570	0.446790	0.867310
O491	O49	0.620890	0.188990	0.602570
O501	O50	0.280780	0.711240	0.997110
O511	O51	0.711240	0.280780	0.497110
O521	O52	0.629250	0.737590	0.545350
O531	O53	0.719220	0.288760	0.002890
O541	O54	0.370750	0.262410	0.454650
O551	O55	0.811010	0.379110	0.897430
O561	O56	0.737320	0.618580	0.545320
O571	O57	0.933490	0.918530	0.299280
O581	O58	0.735490	0.730950	0.763290
O591	O59	0.760010	0.157110	0.451600
O601	O60	0.778400	0.149120	0.073730
O611	O61	0.288760	0.719220	0.502890
O621	O62	0.737590	0.629250	0.045350
O631	O63	0.661770	0.672250	0.154040
O641	O64	0.810860	0.691160	0.664310
O651	O65	0.195490	0.310950	0.835180
O661	O66	0.129600	0.128140	0.232880
O671	O67	0.327750	0.338230	0.345960
O681	O68	0.149120	0.778400	0.573730
O691	O69	0.188990	0.620890	0.102570
O701	O70	0.201380	0.625380	0.609300
O711	O71	0.316140	0.178140	0.921450
O721	O72	0.191490	0.287390	0.924860
O731	O73	0.684500	0.362100	0.408300
O741	O74	0.157110	0.760010	0.951600
O751	O75	0.225360	0.856700	0.434410
O761	O76	0.870400	0.871860	0.767120
O771	O77	0.143300	0.774640	0.065590
O781	O78	0.856700	0.225360	0.934410
O791	O79	0.236090	0.838070	0.038610
O801	O80	0.808510	0.712610	0.075140
O811	O81	0.066510	0.081470	0.700720
O821	O82	0.691160	0.810860	0.164310
O831	O83	0.189140	0.308840	0.335690
O841	O84	0.842890	0.239990	0.048400
