data_cg800424t_si_002_freeONLY_PM
_symmetry_space_group_name_H-M	'P1'
_cell_length_a	13.329500
_cell_length_b	16.216000
_cell_length_c	16.216000
_cell_angle_alpha	67.208000
_cell_angle_beta	74.097600
_cell_angle_gamma	105.902000
_symmetry_Int_Tables_number 1

loop_
_symmetry_equiv_pos_as_xyz
'x,y,z'

loop_
_atom_site_label
_atom_site_type_symbol
_atom_site_fract_x
_atom_site_fract_y
_atom_site_fract_z
Cd11	Cd1	0.000000	0.500000	0.500000
Cd21	Cd2	0.500000	0.500000	0.000000
Cd31	Cd3	0.500000	0.000000	0.500000
H11	H1	0.633900	0.454600	0.291100
H21	H2	0.128900	0.000000	0.373400
H31	H3	0.439000	0.833400	0.720500
H41	H4	0.646800	0.475600	0.139600
H51	H5	0.633900	0.708900	0.545400
H61	H6	0.497700	0.626600	0.373400
H71	H7	0.439000	0.279500	0.166600
H81	H8	0.837500	0.458200	0.857400
H91	H9	0.871100	0.000000	0.626600
H101	H10	0.820700	0.745700	0.545400
H111	H11	0.620700	0.458200	0.684400
H121	H12	0.620700	0.315600	0.541800
H131	H13	0.128900	0.626600	0.000000
H141	H14	0.353200	0.524400	0.860400
H151	H15	0.379300	0.684400	0.458200
H161	H16	0.162500	0.541800	0.142600
H171	H17	0.213600	0.384800	0.139600
H181	H18	0.561000	0.720500	0.833400
H191	H19	0.820700	0.454600	0.254300
H201	H20	0.305100	0.142600	0.315600
H211	H21	0.840500	0.446100	0.720500
H221	H22	0.605600	0.166600	0.553900
H231	H23	0.213600	0.860400	0.615200
H241	H24	0.837500	0.142600	0.541800
H251	H25	0.171200	0.524400	0.615200
H261	H26	0.925000	0.745700	0.708900
H271	H27	0.786400	0.139600	0.384800
H281	H28	0.075000	0.708900	0.745700
H291	H29	0.925000	0.291100	0.254300
H301	H30	0.075000	0.254300	0.291100
H311	H31	0.179300	0.545400	0.745700
H321	H32	0.502300	0.373400	0.626600
H331	H33	0.366100	0.291100	0.454600
H341	H34	0.366100	0.545400	0.708900
H351	H35	0.305100	0.684400	0.857400
H361	H36	0.394400	0.833400	0.446100
H371	H37	0.561000	0.166600	0.279500
H381	H38	0.694900	0.315600	0.142600
H391	H39	0.353200	0.139600	0.475600
H401	H40	0.646800	0.860400	0.524400
H411	H41	0.179300	0.254300	0.454600
H421	H42	0.840500	0.279500	0.553900
H431	H43	0.605600	0.446100	0.833400
H441	H44	0.159500	0.720500	0.446100
H451	H45	0.171200	0.384800	0.475600
H461	H46	0.871100	0.373400	0.000000
H471	H47	0.694900	0.857400	0.684400
H481	H48	0.394400	0.553900	0.166600
H491	H49	0.786400	0.615200	0.860400
H501	H50	0.828800	0.615200	0.524400
H511	H51	0.159500	0.553900	0.279500
H521	H52	0.828800	0.475600	0.384800
H531	H53	0.379300	0.541800	0.315600
H541	H54	0.162500	0.857400	0.458200
C11	C1	0.103510	0.336310	0.487680
C21	C2	0.443950	0.808330	0.465580
C31	C3	0.500840	0.424610	0.575390
C41	C4	0.493630	0.321330	0.497040
C51	C5	0.851740	0.266810	0.256890
C61	C6	0.909530	0.465580	0.726090
C71	C7	0.556050	0.465580	0.808330
C81	C8	0.827700	0.818370	0.678670
C91	C9	0.408810	0.176010	0.487680
C101	C10	0.009330	0.502960	0.818370
C111	C11	0.851740	0.743110	0.733190
C121	C12	0.993200	0.493330	0.090530
C131	C13	0.284300	0.718070	0.808870
C141	C14	0.990670	0.818370	0.502960
C151	C15	0.506370	0.497040	0.321330
C161	C16	0.891370	0.743110	0.523700
C171	C17	0.591190	0.823990	0.512320
C181	C18	0.093170	0.526940	0.191130
C191	C19	0.923770	0.424610	0.000000
C201	C20	0.493630	0.502960	0.678670
C211	C21	0.566230	0.473060	0.718070
C221	C22	0.076230	0.000000	0.424610
C231	C23	0.499160	0.575390	0.424610
C241	C24	0.500130	0.583860	0.506670
C251	C25	0.500130	0.493330	0.416140
C261	C26	0.827700	0.321330	0.181630
C271	C27	0.916270	0.909470	0.583860
C281	C28	0.148260	0.733190	0.743110
C291	C29	0.076230	0.575390	0.000000
C301	C30	0.993200	0.909470	0.506670
C311	C31	0.715700	0.281930	0.191130
C321	C32	0.990670	0.497040	0.181630
C331	C33	0.433770	0.526940	0.281930
C341	C34	0.415070	0.523700	0.733190
C351	C35	0.415070	0.266810	0.476300
C361	C36	0.172300	0.678670	0.818370
C371	C37	0.584930	0.733190	0.523700
C381	C38	0.090470	0.726090	0.465580
C391	C39	0.556050	0.191670	0.534420
C401	C40	0.108630	0.256890	0.476300
C411	C41	0.083730	0.583860	0.909470
C421	C42	0.584930	0.476300	0.266810
C431	C43	0.103510	0.512320	0.663690
C441	C44	0.232800	0.823990	0.663690
C451	C45	0.767200	0.176010	0.336310
C461	C46	0.083730	0.090530	0.416140
C471	C47	0.891370	0.476300	0.256890
C481	C48	0.364380	0.808330	0.726090
C491	C49	0.232800	0.336310	0.176010
C501	C50	0.009330	0.181630	0.497040
C511	C51	0.896490	0.487680	0.336310
C521	C52	0.896490	0.663690	0.512320
C531	C53	0.499870	0.506670	0.583860
C541	C54	0.909530	0.273910	0.534420
C551	C55	0.108630	0.523700	0.743110
C561	C56	0.433770	0.718070	0.473060
C571	C57	0.443950	0.534420	0.191670
C581	C58	0.006800	0.090530	0.493330
C591	C59	0.767200	0.663690	0.823990
C601	C60	0.916270	0.416140	0.090530
C611	C61	0.566230	0.281930	0.526940
C621	C62	0.364380	0.273910	0.191670
C631	C63	0.906830	0.473060	0.808870
C641	C64	0.506370	0.678670	0.502960
C651	C65	0.499870	0.416140	0.493330
C661	C66	0.906830	0.191130	0.526940
C671	C67	0.635620	0.726090	0.808330
C681	C68	0.006800	0.506670	0.909470
C691	C69	0.923770	0.000000	0.575390
C701	C70	0.284300	0.191130	0.281930
C711	C71	0.172300	0.181630	0.321330
C721	C72	0.715700	0.808870	0.718070
C731	C73	0.090470	0.534420	0.273910
C741	C74	0.591190	0.487680	0.176010
C751	C75	0.635620	0.191670	0.273910
C761	C76	0.093170	0.808870	0.473060
C771	C77	0.408810	0.512320	0.823990
C781	C78	0.148260	0.256890	0.266810
S11	S1	0.779300	0.415800	0.584200
S21	S2	0.363500	0.584200	0.000000
S31	S3	0.363500	0.000000	0.415800
N11	N1	0.659310	0.138680	0.346050
N21	N2	0.005360	0.484730	0.653950
N31	N3	0.659310	0.653950	0.861320
N41	N4	0.479370	0.484730	0.861320
N51	N5	0.005360	0.346050	0.515270
N61	N6	0.520630	0.515270	0.138680
N71	N7	0.994640	0.515270	0.346050
N81	N8	0.340690	0.346050	0.138680
N91	N9	0.994640	0.653950	0.484730
N101	N10	0.340690	0.861320	0.653950
N111	N11	0.479370	0.138680	0.515270
N121	N12	0.520630	0.861320	0.484730
