data_cg900349c_si_002_freeONLY_PM
_symmetry_space_group_name_H-M	'P1'
_cell_length_a	14.100800
_cell_length_b	14.100600
_cell_length_c	14.100600
_cell_angle_alpha	109.471000
_cell_angle_beta	109.471000
_cell_angle_gamma	109.471000
_symmetry_Int_Tables_number 1

loop_
_symmetry_equiv_pos_as_xyz
'x,y,z'

loop_
_atom_site_label
_atom_site_type_symbol
_atom_site_fract_x
_atom_site_fract_y
_atom_site_fract_z
Zn11	Zn1	0.991420	0.853790	0.395310
Zn21	Zn2	0.137630	0.541520	0.146210
Zn31	Zn3	0.458480	0.596110	0.604690
Zn41	Zn4	0.853790	0.395310	0.991420
Zn51	Zn5	0.403890	0.862370	0.008580
Zn61	Zn6	0.596110	0.604690	0.458480
Zn71	Zn7	0.146210	0.137630	0.541520
Zn81	Zn8	0.862370	0.008580	0.403890
Zn91	Zn9	0.541520	0.146210	0.137630
Zn101	Zn10	0.604690	0.458480	0.596110
Zn111	Zn11	0.395310	0.991420	0.853790
Zn121	Zn12	0.008580	0.403890	0.862370
H11	H1	0.201700	0.564400	0.475300
H21	H2	0.089100	0.726400	0.524700
H31	H3	0.798300	0.273600	0.362700
H41	H4	0.655600	0.419900	0.808900
H51	H5	0.637300	0.910900	0.435600
H61	H6	0.524700	0.089100	0.726400
H71	H7	0.153300	0.764300	0.344400
H81	H8	0.423700	0.872600	0.235100
H91	H9	0.435600	0.637300	0.910900
H101	H10	0.344400	0.153300	0.764300
H111	H11	0.637500	0.188600	0.764900
H121	H12	0.726400	0.524700	0.089100
H131	H13	0.188600	0.764900	0.637500
H141	H14	0.362500	0.127400	0.551100
H151	H15	0.191100	0.611000	0.846700
H161	H16	0.811400	0.448900	0.576300
H171	H17	0.235700	0.389000	0.580100
H181	H18	0.764900	0.637500	0.188600
H191	H19	0.808900	0.655600	0.419900
H201	H20	0.362700	0.798300	0.273600
H211	H21	0.580100	0.235700	0.389000
H221	H22	0.910900	0.435600	0.637300
H231	H23	0.846700	0.191100	0.611000
H241	H24	0.872600	0.235100	0.423700
H251	H25	0.273600	0.362700	0.798300
H261	H26	0.564400	0.475300	0.201700
H271	H27	0.419900	0.808900	0.655600
H281	H28	0.764300	0.344400	0.153300
H291	H29	0.611000	0.846700	0.191100
H301	H30	0.551100	0.362500	0.127400
H311	H31	0.448900	0.576300	0.811400
H321	H32	0.475300	0.201700	0.564400
H331	H33	0.389000	0.580100	0.235700
H341	H34	0.576300	0.811400	0.448900
H351	H35	0.127400	0.551100	0.362500
H361	H36	0.235100	0.423700	0.872600
C11	C1	0.077000	0.708200	0.287000
C21	C2	0.790000	0.713000	0.421200
C31	C3	0.705600	0.813900	0.430900
C41	C4	0.186100	0.891700	0.617000
C51	C5	0.578800	0.291800	0.368800
C61	C6	0.430900	0.705600	0.813900
C71	C7	0.294400	0.725300	0.108300
C81	C8	0.725300	0.108300	0.294400
C91	C9	0.368800	0.578800	0.291800
C101	C10	0.210000	0.631200	0.923000
C111	C11	0.383000	0.274700	0.569100
C121	C12	0.617000	0.186100	0.891700
C131	C13	0.421200	0.790000	0.713000
C141	C14	0.108300	0.294400	0.725300
C151	C15	0.287000	0.077000	0.708200
C161	C16	0.708200	0.287000	0.077000
C171	C17	0.813900	0.430900	0.705600
C181	C18	0.274700	0.569100	0.383000
C191	C19	0.923000	0.210000	0.631200
C201	C20	0.891700	0.617000	0.186100
C211	C21	0.631200	0.923000	0.210000
C221	C22	0.291800	0.368800	0.578800
C231	C23	0.569100	0.383000	0.274700
C241	C24	0.713000	0.421200	0.790000
S11	S1	0.000000	0.353080	0.000000
S21	S2	0.353080	0.000000	0.000000
S31	S3	0.646920	0.646920	0.646920
S41	S4	0.000000	0.000000	0.353080
N11	N1	0.716100	0.434900	0.700600
N21	N2	0.265700	0.565100	0.281200
N31	N3	0.590200	0.388900	0.437300
N41	N4	0.847100	0.798700	0.409800
N51	N5	0.201300	0.048400	0.611100
N61	N6	0.565100	0.281200	0.265700
N71	N7	0.048400	0.611100	0.201300
N81	N8	0.951600	0.152900	0.562700
N91	N9	0.410100	0.191400	0.560500
N101	N10	0.623000	0.072100	0.206700
N111	N11	0.734300	0.015500	0.299400
N121	N12	0.865400	0.416300	0.793300
N131	N13	0.583700	0.449100	0.377000
N141	N14	0.984500	0.718800	0.283900
N151	N15	0.449100	0.377000	0.583700
N161	N16	0.134600	0.927900	0.550900
N171	N17	0.808600	0.218700	0.369100
N181	N18	0.388900	0.437300	0.590200
N191	N19	0.281200	0.265700	0.565100
N201	N20	0.299400	0.734300	0.015500
N211	N21	0.781300	0.589900	0.150400
N221	N22	0.439500	0.630900	0.849600
N231	N23	0.377000	0.583700	0.449100
N241	N24	0.072100	0.206700	0.623000
N251	N25	0.849600	0.439500	0.630900
N261	N26	0.560500	0.410100	0.191400
N271	N27	0.700600	0.716100	0.434900
N281	N28	0.589900	0.150400	0.781300
N291	N29	0.416300	0.793300	0.865400
N301	N30	0.283900	0.984500	0.718800
N311	N31	0.611100	0.201300	0.048400
N321	N32	0.150400	0.781300	0.589900
N331	N33	0.206700	0.623000	0.072100
N341	N34	0.798700	0.409800	0.847100
N351	N35	0.218700	0.369100	0.808600
N361	N36	0.015500	0.299400	0.734300
N371	N37	0.562700	0.951600	0.152900
N381	N38	0.434900	0.700600	0.716100
N391	N39	0.191400	0.560500	0.410100
N401	N40	0.718800	0.283900	0.984500
N411	N41	0.437300	0.590200	0.388900
N421	N42	0.630900	0.849600	0.439500
N431	N43	0.152900	0.562700	0.951600
N441	N44	0.369100	0.808600	0.218700
N451	N45	0.793300	0.865400	0.416300
N461	N46	0.550900	0.134600	0.927900
N471	N47	0.927900	0.550900	0.134600
N481	N48	0.409800	0.847100	0.798700
