data_CITXUZ_freeONLY_PM
_symmetry_space_group_name_H-M	'P1'
_cell_length_a	14.669000
_cell_length_b	16.663900
_cell_length_c	16.663900
_cell_angle_alpha	60.672400
_cell_angle_beta	63.887000
_cell_angle_gamma	63.887100
_symmetry_Int_Tables_number 1

loop_
_symmetry_equiv_pos_as_xyz
'x,y,z'

loop_
_atom_site_label
_atom_site_type_symbol
_atom_site_fract_x
_atom_site_fract_y
_atom_site_fract_z
Cu11	Cu1	0.427200	0.047580	0.952420
Cu21	Cu2	0.572800	0.952420	0.047580
Cu31	Cu3	0.072800	0.547580	0.452420
Cu41	Cu4	0.927200	0.452420	0.547580
Cu51	Cu5	0.250000	0.556000	0.944000
Cu61	Cu6	0.250000	0.944000	0.556000
Cu71	Cu7	0.750000	0.444000	0.056000
Cu81	Cu8	0.750000	0.056000	0.444000
H11	H1	0.573500	0.442500	0.177300
H21	H2	0.618000	0.495100	0.192100
H31	H3	0.596600	0.663600	0.103200
H41	H4	0.456400	0.517600	0.085200
H51	H5	0.371500	0.807000	0.967600
H61	H6	0.806700	0.177300	0.442500
H71	H7	0.694800	0.192100	0.495100
H81	H8	0.636600	0.103200	0.663600
H91	H9	0.940800	0.085200	0.517600
H101	H10	0.853900	0.967600	0.807000
H111	H11	0.926500	0.322700	0.057500
H121	H12	0.882000	0.307900	0.004900
H131	H13	0.903400	0.396800	0.836400
H141	H14	0.043600	0.414800	0.982400
H151	H15	0.128500	0.532400	0.693000
H161	H16	0.693300	0.057500	0.322700
H171	H17	0.805200	0.004900	0.307900
H181	H18	0.863400	0.836400	0.396800
H191	H19	0.559200	0.982400	0.414800
H201	H20	0.646100	0.693000	0.532400
H211	H21	0.426500	0.557500	0.822700
H221	H22	0.382000	0.504900	0.807900
H231	H23	0.403400	0.336400	0.896800
H241	H24	0.543600	0.482400	0.914800
H251	H25	0.628500	0.193000	0.032400
H261	H26	0.193300	0.822700	0.557500
H271	H27	0.305200	0.807900	0.504900
H281	H28	0.363400	0.896800	0.336400
H291	H29	0.059200	0.914800	0.482400
H301	H30	0.146100	0.032400	0.193000
H311	H31	0.073500	0.677300	0.942500
H321	H32	0.118000	0.692100	0.995100
H331	H33	0.096600	0.603200	0.163600
H341	H34	0.956400	0.585200	0.017600
H351	H35	0.871500	0.467600	0.307000
H361	H36	0.306700	0.942500	0.677300
H371	H37	0.194800	0.995100	0.692100
H381	H38	0.136600	0.163600	0.603200
H391	H39	0.440800	0.017600	0.585200
H401	H40	0.353900	0.307000	0.467600
H411	H41	0.219800	0.043400	0.956600
H421	H42	0.095200	0.124800	0.875200
H431	H43	0.118900	0.263000	0.737000
H441	H44	0.259000	0.311000	0.689000
H451	H45	0.381100	0.223000	0.777000
H461	H46	0.780200	0.956600	0.043400
H471	H47	0.904800	0.875200	0.124800
H481	H48	0.881100	0.737000	0.263000
H491	H49	0.741000	0.689000	0.311000
H501	H50	0.618900	0.777000	0.223000
H511	H51	0.280200	0.543400	0.456600
H521	H52	0.404800	0.624800	0.375200
H531	H53	0.381100	0.763000	0.237000
H541	H54	0.241000	0.811000	0.189000
H551	H55	0.118900	0.723000	0.277000
H561	H56	0.719800	0.456600	0.543400
H571	H57	0.595200	0.375200	0.624800
H581	H58	0.618900	0.237000	0.763000
H591	H59	0.759000	0.189000	0.811000
H601	H60	0.881100	0.277000	0.723000
C11	C1	0.325900	0.661600	0.983800
C21	C2	0.486900	0.750100	0.031900
C31	C3	0.548100	0.663300	0.081700
C41	C4	0.538900	0.577000	0.100000
C51	C5	0.465000	0.575800	0.070600
C61	C6	0.403400	0.661500	0.019500
C71	C7	0.413600	0.749500	0.000700
C81	C8	0.494700	0.844200	0.015200
C91	C9	0.028700	0.983800	0.661600
C101	C10	0.731100	0.031900	0.750100
C111	C11	0.706900	0.081700	0.663300
C121	C12	0.784100	0.100000	0.577000
C131	C13	0.888600	0.070600	0.575800
C141	C14	0.915600	0.019500	0.661500
C151	C15	0.836200	0.000700	0.749500
C161	C16	0.645900	0.015200	0.844200
C171	C17	0.174100	0.516200	0.838400
C181	C18	0.013100	0.468100	0.749900
C191	C19	0.951900	0.418300	0.836700
C201	C20	0.961100	0.400000	0.923000
C211	C21	0.035000	0.429400	0.924200
C221	C22	0.096600	0.480500	0.838500
C231	C23	0.086400	0.499300	0.750500
C241	C24	0.005300	0.484800	0.655800
C251	C25	0.471300	0.838400	0.516200
C261	C26	0.768900	0.749900	0.468100
C271	C27	0.793100	0.836700	0.418300
C281	C28	0.715900	0.923000	0.400000
C291	C29	0.611400	0.924200	0.429400
C301	C30	0.584400	0.838500	0.480500
C311	C31	0.663800	0.750500	0.499300
C321	C32	0.854100	0.655800	0.484800
C331	C33	0.674100	0.338400	0.016200
C341	C34	0.513100	0.249900	0.968100
C351	C35	0.451900	0.336700	0.918300
C361	C36	0.461100	0.423000	0.900000
C371	C37	0.535000	0.424200	0.929400
C381	C38	0.596600	0.338500	0.980500
C391	C39	0.586400	0.250500	0.999300
C401	C40	0.505300	0.155800	0.984800
C411	C41	0.971300	0.016200	0.338400
C421	C42	0.268900	0.968100	0.249900
C431	C43	0.293100	0.918300	0.336700
C441	C44	0.215900	0.900000	0.423000
C451	C45	0.111400	0.929400	0.424200
C461	C46	0.084400	0.980500	0.338500
C471	C47	0.163800	0.999300	0.250500
C481	C48	0.354100	0.984800	0.155800
C491	C49	0.825900	0.483800	0.161600
C501	C50	0.986900	0.531900	0.250100
C511	C51	0.048100	0.581700	0.163300
C521	C52	0.038900	0.600000	0.077000
C531	C53	0.965000	0.570600	0.075800
C541	C54	0.903400	0.519500	0.161500
C551	C55	0.913600	0.500700	0.249500
C561	C56	0.994700	0.515200	0.344200
C571	C57	0.528700	0.161600	0.483800
C581	C58	0.231100	0.250100	0.531900
C591	C59	0.206900	0.163300	0.581700
C601	C60	0.284100	0.077000	0.600000
C611	C61	0.388600	0.075800	0.570600
C621	C62	0.415600	0.161500	0.519500
C631	C63	0.336200	0.249500	0.500700
C641	C64	0.145900	0.344200	0.515200
C651	C65	0.228400	0.098100	0.901900
C661	C66	0.153800	0.145900	0.854100
C671	C67	0.168500	0.228500	0.771500
C681	C68	0.248800	0.256400	0.743600
C691	C69	0.322300	0.202300	0.797700
C701	C70	0.771600	0.901900	0.098100
C711	C71	0.846200	0.854100	0.145900
C721	C72	0.831500	0.771500	0.228500
C731	C73	0.751200	0.743600	0.256400
C741	C74	0.677700	0.797700	0.202300
C751	C75	0.271600	0.598100	0.401900
C761	C76	0.346200	0.645900	0.354100
C771	C77	0.331500	0.728500	0.271500
C781	C78	0.251200	0.756400	0.243600
C791	C79	0.177700	0.702300	0.297700
C801	C80	0.728400	0.401900	0.598100
C811	C81	0.653800	0.354100	0.645900
C821	C82	0.668500	0.271500	0.728500
C831	C83	0.748800	0.243600	0.756400
C841	C84	0.822300	0.297700	0.702300
N11	N1	0.606600	0.488500	0.147100
N21	N2	0.757800	0.147100	0.488500
N31	N3	0.893400	0.352900	0.011500
N41	N4	0.742200	0.011500	0.352900
N51	N5	0.393400	0.511500	0.852900
N61	N6	0.242200	0.852900	0.511500
N71	N7	0.106600	0.647100	0.988500
N81	N8	0.257800	0.988500	0.647100
N91	N9	0.313500	0.126100	0.873900
N101	N10	0.686500	0.873900	0.126100
N111	N11	0.186500	0.626100	0.373900
N121	N12	0.813500	0.373900	0.626100
O11	O1	0.322800	0.582700	0.997300
O21	O2	0.437800	0.919100	0.971300
O31	O3	0.558400	0.839500	0.049700
O41	O4	0.268000	0.739300	0.942700
O51	O5	0.097200	0.997300	0.582700
O61	O6	0.671800	0.971300	0.919100
O71	O7	0.552400	0.049700	0.839500
O81	O8	0.050000	0.942700	0.739300
O91	O9	0.177200	0.502700	0.917300
O101	O10	0.062200	0.528700	0.580900
O111	O11	0.941600	0.450300	0.660500
O121	O12	0.232000	0.557300	0.760700
O131	O13	0.402800	0.917300	0.502700
O141	O14	0.828200	0.580900	0.528700
O151	O15	0.947600	0.660500	0.450300
O161	O16	0.450000	0.760700	0.557300
O171	O17	0.677200	0.417300	0.002700
O181	O18	0.562200	0.080900	0.028700
O191	O19	0.441600	0.160500	0.950300
O201	O20	0.732000	0.260700	0.057300
O211	O21	0.902800	0.002700	0.417300
O221	O22	0.328200	0.028700	0.080900
O231	O23	0.447600	0.950300	0.160500
O241	O24	0.950000	0.057300	0.260700
O251	O25	0.822800	0.497300	0.082700
O261	O26	0.937800	0.471300	0.419100
O271	O27	0.058400	0.549700	0.339500
O281	O28	0.768000	0.442700	0.239300
O291	O29	0.597200	0.082700	0.497300
O301	O30	0.171800	0.419100	0.471300
O311	O31	0.052400	0.339500	0.549700
O321	O32	0.550000	0.239300	0.442700
