data_CIVTEH_freeONLY_PM
_symmetry_space_group_name_H-M	'P1'
_cell_length_a	12.234200
_cell_length_b	13.958300
_cell_length_c	19.606400
_cell_angle_alpha	83.817900
_cell_angle_beta	75.775100
_cell_angle_gamma	64.008200
_symmetry_Int_Tables_number 1

loop_
_symmetry_equiv_pos_as_xyz
'x,y,z'

loop_
_atom_site_label
_atom_site_type_symbol
_atom_site_fract_x
_atom_site_fract_y
_atom_site_fract_z
Cu11	Cu1	0.696790	0.443960	0.962230
Cu21	Cu2	0.859250	0.443960	0.537770
Cu31	Cu3	0.303210	0.556040	0.037770
Cu41	Cu4	0.140750	0.556040	0.462230
H11	H1	0.621400	0.756600	0.871900
H21	H2	0.542500	0.931600	0.831600
H31	H3	0.198800	0.939800	0.866400
H41	H4	0.277800	0.764200	0.908300
H51	H5	0.977700	0.383400	0.769000
H61	H6	0.856600	0.469600	0.686300
H71	H7	0.091000	0.246600	0.545600
H81	H8	0.212600	0.157000	0.625100
H91	H9	0.331000	0.412000	0.808400
H101	H10	0.335900	0.529200	0.882300
H111	H11	0.193400	0.408400	0.048900
H121	H12	0.180400	0.289200	0.982000
H131	H13	0.622000	0.756600	0.628100
H141	H14	0.525900	0.931600	0.668400
H151	H15	0.861400	0.939800	0.633600
H161	H16	0.958000	0.764200	0.591700
H171	H17	0.638900	0.383400	0.731000
H181	H18	0.673800	0.469600	0.813700
H191	H19	0.662400	0.246600	0.954400
H201	H20	0.630400	0.157000	0.874900
H211	H21	0.257000	0.412000	0.691600
H221	H22	0.134900	0.529200	0.617700
H231	H23	0.398200	0.408400	0.451100
H241	H24	0.530400	0.289200	0.518000
H251	H25	0.378600	0.243400	0.128100
H261	H26	0.457500	0.068400	0.168400
H271	H27	0.801200	0.060200	0.133600
H281	H28	0.722200	0.235800	0.091700
H291	H29	0.022300	0.616600	0.231000
H301	H30	0.143400	0.530400	0.313700
H311	H31	0.909000	0.753400	0.454400
H321	H32	0.787400	0.843000	0.374900
H331	H33	0.669000	0.588000	0.191600
H341	H34	0.664100	0.470800	0.117700
H351	H35	0.806600	0.591600	0.951100
H361	H36	0.819600	0.710800	0.018000
H371	H37	0.378000	0.243400	0.371900
H381	H38	0.474100	0.068400	0.331600
H391	H39	0.138600	0.060200	0.366400
H401	H40	0.042000	0.235800	0.408300
H411	H41	0.361100	0.616600	0.269000
H421	H42	0.326200	0.530400	0.186300
H431	H43	0.337600	0.753400	0.045600
H441	H44	0.369600	0.843000	0.125100
H451	H45	0.743000	0.588000	0.308400
H461	H46	0.865100	0.470800	0.382300
H471	H47	0.601800	0.591600	0.548900
H481	H48	0.469600	0.710800	0.482000
C11	C1	0.504130	0.630340	0.921800
C21	C2	0.456070	0.743060	0.893400
C31	C3	0.535500	0.793800	0.871000
C41	C4	0.488200	0.897800	0.847600
C51	C5	0.362970	0.953660	0.847000
C61	C6	0.284300	0.903200	0.868200
C71	C7	0.332000	0.798000	0.892400
C81	C8	0.309100	0.068400	0.826100
C91	C9	0.242700	0.106000	0.773400
C101	C10	0.189200	0.214800	0.758500
C111	C11	0.259860	0.252280	0.845400
C121	C12	0.319700	0.143800	0.861000
C131	C13	0.409500	0.110200	0.904900
C141	C14	0.253100	0.025200	0.728000
C151	C15	0.111280	0.263240	0.704300
C161	C16	0.002900	0.355000	0.722900
C171	C17	0.930400	0.405800	0.673600
C181	C18	0.067330	0.275340	0.591500
C191	C19	0.140980	0.222240	0.638400
C201	C20	0.258900	0.335400	0.887300
C211	C21	0.303200	0.408600	0.857900
C221	C22	0.306300	0.477800	0.902800
C231	C23	0.223400	0.407800	0.999400
C241	C24	0.215300	0.336600	0.960100
C251	C25	0.865530	0.630340	0.578200
C261	C26	0.800870	0.743060	0.606600
C271	C27	0.670700	0.793800	0.629000
C281	C28	0.614000	0.897800	0.652400
C291	C29	0.683370	0.953660	0.653000
C301	C30	0.812500	0.903200	0.631800
C311	C31	0.870000	0.798000	0.607600
C321	C32	0.622500	0.068400	0.673900
C331	C33	0.651300	0.106000	0.726600
C341	C34	0.596000	0.214800	0.741500
C351	C35	0.487860	0.252280	0.654600
C361	C36	0.536500	0.143800	0.639000
C371	C37	0.480300	0.110200	0.595100
C381	C38	0.721700	0.025200	0.772000
C391	C39	0.625480	0.263240	0.795700
C401	C40	0.642100	0.355000	0.777100
C411	C41	0.663800	0.405800	0.826400
C421	C42	0.657330	0.275340	0.908500
C431	C43	0.636780	0.222240	0.861600
C441	C44	0.405700	0.335400	0.612700
C451	C45	0.288200	0.408600	0.642100
C461	C46	0.215900	0.477800	0.597200
C471	C47	0.368800	0.407800	0.500600
C481	C48	0.448100	0.336600	0.539900
C491	C49	0.495870	0.369660	0.078200
C501	C50	0.543930	0.256940	0.106600
C511	C51	0.464500	0.206200	0.129000
C521	C52	0.511800	0.102200	0.152400
C531	C53	0.637030	0.046340	0.153000
C541	C54	0.715700	0.096800	0.131800
C551	C55	0.668000	0.202000	0.107600
C561	C56	0.690900	0.931600	0.173900
C571	C57	0.757300	0.894000	0.226600
C581	C58	0.810800	0.785200	0.241500
C591	C59	0.740140	0.747720	0.154600
C601	C60	0.680300	0.856200	0.139000
C611	C61	0.590500	0.889800	0.095100
C621	C62	0.746900	0.974800	0.272000
C631	C63	0.888720	0.736760	0.295700
C641	C64	0.997100	0.645000	0.277100
C651	C65	0.069600	0.594200	0.326400
C661	C66	0.932670	0.724660	0.408500
C671	C67	0.859020	0.777760	0.361600
C681	C68	0.741100	0.664600	0.112700
C691	C69	0.696800	0.591400	0.142100
C701	C70	0.693700	0.522200	0.097200
C711	C71	0.776600	0.592200	0.000600
C721	C72	0.784700	0.663400	0.039900
C731	C73	0.134470	0.369660	0.421800
C741	C74	0.199130	0.256940	0.393400
C751	C75	0.329300	0.206200	0.371000
C761	C76	0.386000	0.102200	0.347600
C771	C77	0.316630	0.046340	0.347000
C781	C78	0.187500	0.096800	0.368200
C791	C79	0.130000	0.202000	0.392400
C801	C80	0.377500	0.931600	0.326100
C811	C81	0.348700	0.894000	0.273400
C821	C82	0.404000	0.785200	0.258500
C831	C83	0.512140	0.747720	0.345400
C841	C84	0.463500	0.856200	0.361000
C851	C85	0.519700	0.889800	0.404900
C861	C86	0.278300	0.974800	0.228000
C871	C87	0.374520	0.736760	0.204300
C881	C88	0.357900	0.645000	0.222900
C891	C89	0.336200	0.594200	0.173600
C901	C90	0.342670	0.724660	0.091500
C911	C91	0.363220	0.777760	0.138400
C921	C92	0.594300	0.664600	0.387300
C931	C93	0.711800	0.591400	0.357900
C941	C94	0.784100	0.522200	0.402800
C951	C95	0.631200	0.592200	0.499400
C961	C96	0.551900	0.663400	0.460100
N11	N1	0.199590	0.286220	0.792980
N21	N2	0.470500	0.091800	0.944300
N31	N3	0.256500	0.963400	0.693300
N41	N4	0.963690	0.365620	0.607730
N51	N5	0.271160	0.476480	0.971500
N61	N6	0.935320	0.299960	0.939000
N71	N7	0.514190	0.286220	0.707020
N81	N8	0.437700	0.091800	0.555700
N91	N9	0.780100	0.963400	0.806700
N101	N10	0.670690	0.365620	0.892270
N111	N11	0.252360	0.476480	0.528500
N121	N12	0.764720	0.299960	0.561000
N131	N13	0.800410	0.713780	0.207020
N141	N14	0.529500	0.908200	0.055700
N151	N15	0.743500	0.036600	0.306700
N161	N16	0.036310	0.634380	0.392270
N171	N17	0.728840	0.523520	0.028500
N181	N18	0.064680	0.700040	0.061000
N191	N19	0.485810	0.713780	0.292980
N201	N20	0.562300	0.908200	0.444300
N211	N21	0.219900	0.036600	0.193300
N221	N22	0.329310	0.634380	0.107730
N231	N23	0.747640	0.523520	0.471500
N241	N24	0.235280	0.700040	0.439000
O11	O1	0.621270	0.582060	0.915760
O21	O2	0.429510	0.592980	0.949150
O31	O3	0.836490	0.304820	0.984110
O41	O4	0.035020	0.219560	0.938400
O51	O5	0.925110	0.375780	0.898200
O61	O6	0.796670	0.582060	0.584240
O71	O7	0.977510	0.592980	0.550850
O81	O8	0.858690	0.304820	0.515890
O91	O9	0.745420	0.219560	0.561600
O101	O10	0.699110	0.375780	0.601800
O111	O11	0.378730	0.417940	0.084240
O121	O12	0.570490	0.407020	0.050850
O131	O13	0.163510	0.695180	0.015890
O141	O14	0.964980	0.780440	0.061600
O151	O15	0.074890	0.624220	0.101800
O161	O16	0.203330	0.417940	0.415760
O171	O17	0.022490	0.407020	0.449150
O181	O18	0.141310	0.695180	0.484110
O191	O19	0.254580	0.780440	0.438400
O201	O20	0.300890	0.624220	0.398200
