data_CIWRUW_freeONLY_PM
_symmetry_space_group_name_H-M	'P1'
_cell_length_a	13.707000
_cell_length_b	27.449000
_cell_length_c	45.248000
_cell_angle_alpha	90.000000
_cell_angle_beta	90.000000
_cell_angle_gamma	90.000000
_symmetry_Int_Tables_number 1

loop_
_symmetry_equiv_pos_as_xyz
'x,y,z'

loop_
_atom_site_label
_atom_site_type_symbol
_atom_site_fract_x
_atom_site_fract_y
_atom_site_fract_z
Zn11	Zn1	0.345170	0.256360	0.814690
Zn21	Zn2	0.135770	0.471710	0.915830
Zn31	Zn3	0.337090	0.446100	0.077030
Zn41	Zn4	0.654830	0.243640	0.314690
Zn51	Zn5	0.864230	0.028290	0.415830
Zn61	Zn6	0.662910	0.053900	0.577030
Zn71	Zn7	0.845170	0.743640	0.685310
Zn81	Zn8	0.635770	0.528290	0.584170
Zn91	Zn9	0.837090	0.553900	0.422970
Zn101	Zn10	0.154830	0.756360	0.185310
Zn111	Zn11	0.364230	0.971710	0.084170
Zn121	Zn12	0.162910	0.946100	0.922970
H11	H1	0.985300	0.412500	0.884000
H21	H2	0.831000	0.382000	0.890700
H31	H3	0.989200	0.464600	0.965300
H41	H4	0.833200	0.436200	0.973700
H51	H5	0.535500	0.460700	0.052200
H61	H6	0.626700	0.440500	0.010500
H71	H7	0.299400	0.406400	0.016000
H81	H8	0.383600	0.384100	0.973900
H91	H9	0.308600	0.310500	0.869200
H101	H10	0.388200	0.344100	0.908500
H111	H11	0.555400	0.284900	0.828900
H121	H12	0.640500	0.324200	0.865900
H131	H13	0.461700	0.198400	0.771200
H141	H14	0.521700	0.206100	0.723600
H151	H15	0.402700	0.337800	0.774900
H161	H16	0.465900	0.350300	0.728500
H171	H17	0.578600	0.491700	0.644400
H181	H18	0.553600	0.420100	0.669700
H191	H19	0.623500	0.422500	0.570300
H201	H20	0.600600	0.348300	0.593100
H211	H21	0.654300	0.161000	0.566200
H221	H22	0.626400	0.232700	0.590800
H231	H23	0.576000	0.083900	0.635600
H241	H24	0.545100	0.153900	0.662600
H251	H25	0.014700	0.087500	0.384000
H261	H26	0.169000	0.118000	0.390700
H271	H27	0.010800	0.035400	0.465300
H281	H28	0.166800	0.063800	0.473700
H291	H29	0.464500	0.039300	0.552200
H301	H30	0.373300	0.059500	0.510500
H311	H31	0.700600	0.093600	0.516000
H321	H32	0.616400	0.115900	0.473900
H331	H33	0.691400	0.189500	0.369200
H341	H34	0.611800	0.155900	0.408500
H351	H35	0.444600	0.215100	0.328900
H361	H36	0.359500	0.175800	0.365900
H371	H37	0.538300	0.301600	0.271200
H381	H38	0.478300	0.293900	0.223600
H391	H39	0.597300	0.162200	0.274900
H401	H40	0.534100	0.149700	0.228500
H411	H41	0.421400	0.008300	0.144400
H421	H42	0.446400	0.079900	0.169700
H431	H43	0.376500	0.077500	0.070300
H441	H44	0.399400	0.151700	0.093100
H451	H45	0.345700	0.339000	0.066200
H461	H46	0.373600	0.267300	0.090800
H471	H47	0.424000	0.416100	0.135600
H481	H48	0.454900	0.346100	0.162600
H491	H49	0.485300	0.587500	0.616000
H501	H50	0.331000	0.618000	0.609300
H511	H51	0.489200	0.535400	0.534700
H521	H52	0.333200	0.563800	0.526300
H531	H53	0.035500	0.539300	0.447800
H541	H54	0.126700	0.559500	0.489500
H551	H55	0.799400	0.593600	0.484000
H561	H56	0.883600	0.615900	0.526100
H571	H57	0.808600	0.689500	0.630800
H581	H58	0.888200	0.655900	0.591500
H591	H59	0.055400	0.715100	0.671100
H601	H60	0.140500	0.675800	0.634100
H611	H61	0.961700	0.801600	0.728800
H621	H62	0.021700	0.793900	0.776400
H631	H63	0.902700	0.662200	0.725100
H641	H64	0.965900	0.649700	0.771500
H651	H65	0.078600	0.508300	0.855600
H661	H66	0.053600	0.579900	0.830300
H671	H67	0.123500	0.577500	0.929700
H681	H68	0.100600	0.651700	0.906900
H691	H69	0.154300	0.839000	0.933800
H701	H70	0.126400	0.767300	0.909200
H711	H71	0.076000	0.916100	0.864400
H721	H72	0.045100	0.846100	0.837400
H731	H73	0.514700	0.912500	0.116000
H741	H74	0.669000	0.882000	0.109300
H751	H75	0.510800	0.964600	0.034700
H761	H76	0.666800	0.936200	0.026300
H771	H77	0.964500	0.960700	0.947800
H781	H78	0.873300	0.940500	0.989500
H791	H79	0.200600	0.906400	0.984000
H801	H80	0.116400	0.884100	0.026100
H811	H81	0.191400	0.810500	0.130800
H821	H82	0.111800	0.844100	0.091500
H831	H83	0.944600	0.784900	0.171100
H841	H84	0.859500	0.824200	0.134100
H851	H85	0.038300	0.698400	0.228800
H861	H86	0.978300	0.706100	0.276400
H871	H87	0.097300	0.837800	0.225100
H881	H88	0.034100	0.850300	0.271500
H891	H89	0.921400	0.991700	0.355600
H901	H90	0.946400	0.920100	0.330300
H911	H91	0.876500	0.922500	0.429700
H921	H92	0.899400	0.848300	0.406900
H931	H93	0.845700	0.661000	0.433800
H941	H94	0.873600	0.732700	0.409200
H951	H95	0.924000	0.583900	0.364400
H961	H96	0.954900	0.653900	0.337400
C11	C1	0.953900	0.417400	0.902530
C21	C2	0.862200	0.399200	0.906280
C31	C3	0.956100	0.447900	0.949880
C41	C4	0.863500	0.430900	0.955090
C51	C5	0.814700	0.406100	0.933170
C61	C6	0.712500	0.390800	0.936230
C71	C7	0.504300	0.444800	0.036080
C81	C8	0.559400	0.432400	0.011410
C91	C9	0.367300	0.413100	0.014950
C101	C10	0.416700	0.399400	0.989860
C111	C11	0.515600	0.408500	0.988420
C121	C12	0.571500	0.393800	0.961740
C131	C13	0.377900	0.311700	0.868830
C141	C14	0.424400	0.332300	0.892100
C151	C15	0.520500	0.297700	0.845310
C161	C16	0.571900	0.320000	0.867470
C171	C17	0.523200	0.336100	0.891830
C181	C18	0.575300	0.358500	0.917070
C191	C19	0.460600	0.229500	0.761930
C201	C20	0.497300	0.233800	0.733780
C211	C21	0.427100	0.310600	0.764170
C221	C22	0.463800	0.318300	0.736600
C231	C23	0.498000	0.279000	0.720550
C241	C24	0.528800	0.283300	0.689160
C251	C25	0.583800	0.461800	0.633930
C261	C26	0.568600	0.419300	0.649210
C271	C27	0.610000	0.421800	0.590860
C281	C28	0.596100	0.377500	0.604300
C291	C29	0.575500	0.375500	0.634330
C301	C30	0.563700	0.328100	0.649080
C311	C31	0.632400	0.159800	0.586160
C321	C32	0.615800	0.202500	0.600500
C331	C33	0.586700	0.114700	0.626660
C341	C34	0.567900	0.156100	0.642790
C351	C35	0.583200	0.201500	0.629540
C361	C36	0.565800	0.246600	0.646840
C371	C37	0.046100	0.082600	0.402530
C381	C38	0.137800	0.100800	0.406280
C391	C39	0.043900	0.052100	0.449880
C401	C40	0.136500	0.069100	0.455090
C411	C41	0.185300	0.093900	0.433170
C421	C42	0.287500	0.109200	0.436230
C431	C43	0.495700	0.055200	0.536080
C441	C44	0.440600	0.067600	0.511410
C451	C45	0.632700	0.086900	0.514950
C461	C46	0.583300	0.100600	0.489860
C471	C47	0.484400	0.091500	0.488420
C481	C48	0.428500	0.106200	0.461740
C491	C49	0.622100	0.188300	0.368830
C501	C50	0.575600	0.167700	0.392100
C511	C51	0.479500	0.202300	0.345310
C521	C52	0.428100	0.180000	0.367470
C531	C53	0.476800	0.163900	0.391830
C541	C54	0.424700	0.141500	0.417070
C551	C55	0.539400	0.270500	0.261930
C561	C56	0.502700	0.266200	0.233780
C571	C57	0.572900	0.189400	0.264170
C581	C58	0.536200	0.181700	0.236600
C591	C59	0.502000	0.221000	0.220550
C601	C60	0.471200	0.216700	0.189160
C611	C61	0.416200	0.038200	0.133930
C621	C62	0.431400	0.080700	0.149210
C631	C63	0.390000	0.078200	0.090860
C641	C64	0.403900	0.122500	0.104300
C651	C65	0.424500	0.124500	0.134330
C661	C66	0.436300	0.171900	0.149080
C671	C67	0.367600	0.340200	0.086160
C681	C68	0.384200	0.297500	0.100500
C691	C69	0.413300	0.385300	0.126660
C701	C70	0.432100	0.343900	0.142790
C711	C71	0.416800	0.298500	0.129540
C721	C72	0.434200	0.253400	0.146840
C731	C73	0.453900	0.582600	0.597470
C741	C74	0.362200	0.600800	0.593720
C751	C75	0.456100	0.552100	0.550120
C761	C76	0.363500	0.569100	0.544910
C771	C77	0.314700	0.593900	0.566830
C781	C78	0.212500	0.609200	0.563770
C791	C79	0.004300	0.555200	0.463920
C801	C80	0.059400	0.567600	0.488590
C811	C81	0.867300	0.586900	0.485050
C821	C82	0.916700	0.600600	0.510140
C831	C83	0.015600	0.591500	0.511580
C841	C84	0.071500	0.606200	0.538260
C851	C85	0.877900	0.688300	0.631170
C861	C86	0.924400	0.667700	0.607900
C871	C87	0.020500	0.702300	0.654690
C881	C88	0.071900	0.680000	0.632530
C891	C89	0.023200	0.663900	0.608170
C901	C90	0.075300	0.641500	0.582930
C911	C91	0.960600	0.770500	0.738070
C921	C92	0.997300	0.766200	0.766220
C931	C93	0.927100	0.689400	0.735830
C941	C94	0.963800	0.681700	0.763400
C951	C95	0.998000	0.721000	0.779450
C961	C96	0.028800	0.716700	0.810840
C971	C97	0.083800	0.538200	0.866070
C981	C98	0.068600	0.580700	0.850790
C991	C99	0.110000	0.578200	0.909140
C1001	C100	0.096100	0.622500	0.895700
C1011	C101	0.075500	0.624500	0.865670
C1021	C102	0.063700	0.671900	0.850920
C1031	C103	0.132400	0.840200	0.913840
C1041	C104	0.115800	0.797500	0.899500
C1051	C105	0.086700	0.885300	0.873340
C1061	C106	0.067900	0.843900	0.857210
C1071	C107	0.083200	0.798500	0.870460
C1081	C108	0.065800	0.753400	0.853160
C1091	C109	0.546100	0.917400	0.097470
C1101	C110	0.637800	0.899200	0.093720
C1111	C111	0.543900	0.947900	0.050120
C1121	C112	0.636500	0.930900	0.044910
C1131	C113	0.685300	0.906100	0.066830
C1141	C114	0.787500	0.890800	0.063770
C1151	C115	0.995700	0.944800	0.963920
C1161	C116	0.940600	0.932400	0.988590
C1171	C117	0.132700	0.913100	0.985050
C1181	C118	0.083300	0.899400	0.010140
C1191	C119	0.984400	0.908500	0.011580
C1201	C120	0.928500	0.893800	0.038260
C1211	C121	0.122100	0.811700	0.131170
C1221	C122	0.075600	0.832300	0.107900
C1231	C123	0.979500	0.797700	0.154690
C1241	C124	0.928100	0.820000	0.132530
C1251	C125	0.976800	0.836100	0.108170
C1261	C126	0.924700	0.858500	0.082930
C1271	C127	0.039400	0.729500	0.238070
C1281	C128	0.002700	0.733800	0.266220
C1291	C129	0.072900	0.810600	0.235830
C1301	C130	0.036200	0.818300	0.263400
C1311	C131	0.002000	0.779000	0.279450
C1321	C132	0.971200	0.783300	0.310840
C1331	C133	0.916200	0.961800	0.366070
C1341	C134	0.931400	0.919300	0.350790
C1351	C135	0.890000	0.921800	0.409140
C1361	C136	0.903900	0.877500	0.395700
C1371	C137	0.924500	0.875500	0.365670
C1381	C138	0.936300	0.828100	0.350920
C1391	C139	0.867600	0.659800	0.413840
C1401	C140	0.884200	0.702500	0.399500
C1411	C141	0.913300	0.614700	0.373340
C1421	C142	0.932100	0.656100	0.357210
C1431	C143	0.916800	0.701500	0.370460
C1441	C144	0.934200	0.746600	0.353160
I11	I1	0.342650	0.166680	0.827870
I21	I2	0.184770	0.301110	0.807190
I31	I3	0.219700	0.420000	0.877400
I41	I4	0.211650	0.491630	0.965810
I51	I5	0.155510	0.433150	0.068720
I61	I6	0.418350	0.515640	0.104390
I71	I7	0.657350	0.333320	0.327870
I81	I8	0.815230	0.198890	0.307190
I91	I9	0.780300	0.080000	0.377400
I101	I10	0.788350	0.008370	0.465810
I111	I11	0.844490	0.066850	0.568720
I121	I12	0.581650	0.984360	0.604390
I131	I13	0.842650	0.833320	0.672130
I141	I14	0.684770	0.698890	0.692810
I151	I15	0.719700	0.580000	0.622600
I161	I16	0.711650	0.508370	0.534190
I171	I17	0.655510	0.566850	0.431280
I181	I18	0.918350	0.484360	0.395610
I191	I19	0.157350	0.666680	0.172130
I201	I20	0.315230	0.801110	0.192810
I211	I21	0.280300	0.920000	0.122600
I221	I22	0.288350	0.991630	0.034190
I231	I23	0.344490	0.933150	0.931280
I241	I24	0.081650	0.015640	0.895610
N11	N1	0.001800	0.441800	0.923820
N21	N2	0.409600	0.435200	0.037920
N31	N3	0.423600	0.293200	0.845700
N41	N4	0.665800	0.404900	0.960900
N51	N5	0.522600	0.371200	0.940570
N61	N6	0.671700	0.366800	0.914040
N71	N7	0.423700	0.267000	0.776740
N81	N8	0.605400	0.463500	0.605420
N91	N9	0.619500	0.116300	0.598680
N101	N10	0.539300	0.327700	0.677970
N111	N11	0.577300	0.288700	0.632620
N121	N12	0.541900	0.241700	0.674830
N131	N13	0.998200	0.058200	0.423820
N141	N14	0.590400	0.064800	0.537920
N151	N15	0.576400	0.206800	0.345700
N161	N16	0.334200	0.095100	0.460900
N171	N17	0.477400	0.128800	0.440570
N181	N18	0.328300	0.133200	0.414040
N191	N19	0.576300	0.233000	0.276740
N201	N20	0.394600	0.036500	0.105420
N211	N21	0.380500	0.383700	0.098680
N221	N22	0.460700	0.172300	0.177970
N231	N23	0.422700	0.211300	0.132620
N241	N24	0.458100	0.258300	0.174830
N251	N25	0.501800	0.558200	0.576180
N261	N26	0.909600	0.564800	0.462080
N271	N27	0.923600	0.706800	0.654300
N281	N28	0.165800	0.595100	0.539100
N291	N29	0.022600	0.628800	0.559430
N301	N30	0.171700	0.633200	0.585960
N311	N31	0.923700	0.733000	0.723260
N321	N32	0.105400	0.536500	0.894580
N331	N33	0.119500	0.883700	0.901320
N341	N34	0.039300	0.672300	0.822030
N351	N35	0.077300	0.711300	0.867380
N361	N36	0.041900	0.758300	0.825170
N371	N37	0.498200	0.941800	0.076180
N381	N38	0.090400	0.935200	0.962080
N391	N39	0.076400	0.793200	0.154300
N401	N40	0.834200	0.904900	0.039100
N411	N41	0.977400	0.871200	0.059430
N421	N42	0.828300	0.866800	0.085960
N431	N43	0.076300	0.767000	0.223260
N441	N44	0.894600	0.963500	0.394580
N451	N45	0.880500	0.616300	0.401320
N461	N46	0.960700	0.827700	0.322030
N471	N47	0.922700	0.788700	0.367380
N481	N48	0.958100	0.741700	0.325170
Zn131	Zn13	0.654830	0.743640	0.185310
Zn141	Zn14	0.864230	0.528290	0.084170
Zn151	Zn15	0.662910	0.553900	0.922970
Zn161	Zn16	0.345170	0.756360	0.685310
Zn171	Zn17	0.135770	0.971710	0.584170
Zn181	Zn18	0.337090	0.946100	0.422970
Zn191	Zn19	0.154830	0.256360	0.314690
Zn201	Zn20	0.364230	0.471710	0.415830
Zn211	Zn21	0.162910	0.446100	0.577030
Zn221	Zn22	0.845170	0.243640	0.814690
Zn231	Zn23	0.635770	0.028290	0.915830
Zn241	Zn24	0.837090	0.053900	0.077030
H971	H97	0.014700	0.587500	0.116000
H981	H98	0.169000	0.618000	0.109300
H991	H99	0.010800	0.535400	0.034700
H1001	H100	0.166800	0.563800	0.026300
H1011	H101	0.464500	0.539300	0.947800
H1021	H102	0.373300	0.559500	0.989500
H1031	H103	0.700600	0.593600	0.984000
H1041	H104	0.616400	0.615900	0.026100
H1051	H105	0.691400	0.689500	0.130800
H1061	H106	0.611800	0.655900	0.091500
H1071	H107	0.444600	0.715100	0.171100
H1081	H108	0.359500	0.675800	0.134100
H1091	H109	0.538300	0.801600	0.228800
H1101	H110	0.478300	0.793900	0.276400
H1111	H111	0.597300	0.662200	0.225100
H1121	H112	0.534100	0.649700	0.271500
H1131	H113	0.421400	0.508300	0.355600
H1141	H114	0.446400	0.579900	0.330300
H1151	H115	0.376500	0.577500	0.429700
H1161	H116	0.399400	0.651700	0.406900
H1171	H117	0.345700	0.839000	0.433800
H1181	H118	0.373600	0.767300	0.409200
H1191	H119	0.424000	0.916100	0.364400
H1201	H120	0.454900	0.846100	0.337400
H1211	H121	0.985300	0.912500	0.616000
H1221	H122	0.831000	0.882000	0.609300
H1231	H123	0.989200	0.964600	0.534700
H1241	H124	0.833200	0.936200	0.526300
H1251	H125	0.535500	0.960700	0.447800
H1261	H126	0.626700	0.940500	0.489500
H1271	H127	0.299400	0.906400	0.484000
H1281	H128	0.383600	0.884100	0.526100
H1291	H129	0.308600	0.810500	0.630800
H1301	H130	0.388200	0.844100	0.591500
H1311	H131	0.555400	0.784900	0.671100
H1321	H132	0.640500	0.824200	0.634100
H1331	H133	0.461700	0.698400	0.728800
H1341	H134	0.521700	0.706100	0.776400
H1351	H135	0.402700	0.837800	0.725100
H1361	H136	0.465900	0.850300	0.771500
H1371	H137	0.578600	0.991700	0.855600
H1381	H138	0.553600	0.920100	0.830300
H1391	H139	0.623500	0.922500	0.929700
H1401	H140	0.600600	0.848300	0.906900
H1411	H141	0.654300	0.661000	0.933800
H1421	H142	0.626400	0.732700	0.909200
H1431	H143	0.576000	0.583900	0.864400
H1441	H144	0.545100	0.653900	0.837400
H1451	H145	0.514700	0.412500	0.384000
H1461	H146	0.669000	0.382000	0.390700
H1471	H147	0.510800	0.464600	0.465300
H1481	H148	0.666800	0.436200	0.473700
H1491	H149	0.964500	0.460700	0.552200
H1501	H150	0.873300	0.440500	0.510500
H1511	H151	0.200600	0.406400	0.516000
H1521	H152	0.116400	0.384100	0.473900
H1531	H153	0.191400	0.310500	0.369200
H1541	H154	0.111800	0.344100	0.408500
H1551	H155	0.944600	0.284900	0.328900
H1561	H156	0.859500	0.324200	0.365900
H1571	H157	0.038300	0.198400	0.271200
H1581	H158	0.978300	0.206100	0.223600
H1591	H159	0.097300	0.337800	0.274900
H1601	H160	0.034100	0.350300	0.228500
H1611	H161	0.921400	0.491700	0.144400
H1621	H162	0.946400	0.420100	0.169700
H1631	H163	0.876500	0.422500	0.070300
H1641	H164	0.899400	0.348300	0.093100
H1651	H165	0.845700	0.161000	0.066200
H1661	H166	0.873600	0.232700	0.090800
H1671	H167	0.924000	0.083900	0.135600
H1681	H168	0.954900	0.153900	0.162600
H1691	H169	0.485300	0.087500	0.884000
H1701	H170	0.331000	0.118000	0.890700
H1711	H171	0.489200	0.035400	0.965300
H1721	H172	0.333200	0.063800	0.973700
H1731	H173	0.035500	0.039300	0.052200
H1741	H174	0.126700	0.059500	0.010500
H1751	H175	0.799400	0.093600	0.016000
H1761	H176	0.883600	0.115900	0.973900
H1771	H177	0.808600	0.189500	0.869200
H1781	H178	0.888200	0.155900	0.908500
H1791	H179	0.055400	0.215100	0.828900
H1801	H180	0.140500	0.175800	0.865900
H1811	H181	0.961700	0.301600	0.771200
H1821	H182	0.021700	0.293900	0.723600
H1831	H183	0.902700	0.162200	0.774900
H1841	H184	0.965900	0.149700	0.728500
H1851	H185	0.078600	0.008300	0.644400
H1861	H186	0.053600	0.079900	0.669700
H1871	H187	0.123500	0.077500	0.570300
H1881	H188	0.100600	0.151700	0.593100
H1891	H189	0.154300	0.339000	0.566200
H1901	H190	0.126400	0.267300	0.590800
H1911	H191	0.076000	0.416100	0.635600
H1921	H192	0.045100	0.346100	0.662600
C1451	C145	0.046100	0.582600	0.097470
C1461	C146	0.137800	0.600800	0.093720
C1471	C147	0.043900	0.552100	0.050120
C1481	C148	0.136500	0.569100	0.044910
C1491	C149	0.185300	0.593900	0.066830
C1501	C150	0.287500	0.609200	0.063770
C1511	C151	0.495700	0.555200	0.963920
C1521	C152	0.440600	0.567600	0.988590
C1531	C153	0.632700	0.586900	0.985050
C1541	C154	0.583300	0.600600	0.010140
C1551	C155	0.484400	0.591500	0.011580
C1561	C156	0.428500	0.606200	0.038260
C1571	C157	0.622100	0.688300	0.131170
C1581	C158	0.575600	0.667700	0.107900
C1591	C159	0.479500	0.702300	0.154690
C1601	C160	0.428100	0.680000	0.132530
C1611	C161	0.476800	0.663900	0.108170
C1621	C162	0.424700	0.641500	0.082930
C1631	C163	0.539400	0.770500	0.238070
C1641	C164	0.502700	0.766200	0.266220
C1651	C165	0.572900	0.689400	0.235830
C1661	C166	0.536200	0.681700	0.263400
C1671	C167	0.502000	0.721000	0.279450
C1681	C168	0.471200	0.716700	0.310840
C1691	C169	0.416200	0.538200	0.366070
C1701	C170	0.431400	0.580700	0.350790
C1711	C171	0.390000	0.578200	0.409140
C1721	C172	0.403900	0.622500	0.395700
C1731	C173	0.424500	0.624500	0.365670
C1741	C174	0.436300	0.671900	0.350920
C1751	C175	0.367600	0.840200	0.413840
C1761	C176	0.384200	0.797500	0.399500
C1771	C177	0.413300	0.885300	0.373340
C1781	C178	0.432100	0.843900	0.357210
C1791	C179	0.416800	0.798500	0.370460
C1801	C180	0.434200	0.753400	0.353160
C1811	C181	0.953900	0.917400	0.597470
C1821	C182	0.862200	0.899200	0.593720
C1831	C183	0.956100	0.947900	0.550120
C1841	C184	0.863500	0.930900	0.544910
C1851	C185	0.814700	0.906100	0.566830
C1861	C186	0.712500	0.890800	0.563770
C1871	C187	0.504300	0.944800	0.463920
C1881	C188	0.559400	0.932400	0.488590
C1891	C189	0.367300	0.913100	0.485050
C1901	C190	0.416700	0.899400	0.510140
C1911	C191	0.515600	0.908500	0.511580
C1921	C192	0.571500	0.893800	0.538260
C1931	C193	0.377900	0.811700	0.631170
C1941	C194	0.424400	0.832300	0.607900
C1951	C195	0.520500	0.797700	0.654690
C1961	C196	0.571900	0.820000	0.632530
C1971	C197	0.523200	0.836100	0.608170
C1981	C198	0.575300	0.858500	0.582930
C1991	C199	0.460600	0.729500	0.738070
C2001	C200	0.497300	0.733800	0.766220
C2011	C201	0.427100	0.810600	0.735830
C2021	C202	0.463800	0.818300	0.763400
C2031	C203	0.498000	0.779000	0.779450
C2041	C204	0.528800	0.783300	0.810840
C2051	C205	0.583800	0.961800	0.866070
C2061	C206	0.568600	0.919300	0.850790
C2071	C207	0.610000	0.921800	0.909140
C2081	C208	0.596100	0.877500	0.895700
C2091	C209	0.575500	0.875500	0.865670
C2101	C210	0.563700	0.828100	0.850920
C2111	C211	0.632400	0.659800	0.913840
C2121	C212	0.615800	0.702500	0.899500
C2131	C213	0.586700	0.614700	0.873340
C2141	C214	0.567900	0.656100	0.857210
C2151	C215	0.583200	0.701500	0.870460
C2161	C216	0.565800	0.746600	0.853160
C2171	C217	0.546100	0.417400	0.402530
C2181	C218	0.637800	0.399200	0.406280
C2191	C219	0.543900	0.447900	0.449880
C2201	C220	0.636500	0.430900	0.455090
C2211	C221	0.685300	0.406100	0.433170
C2221	C222	0.787500	0.390800	0.436230
C2231	C223	0.995700	0.444800	0.536080
C2241	C224	0.940600	0.432400	0.511410
C2251	C225	0.132700	0.413100	0.514950
C2261	C226	0.083300	0.399400	0.489860
C2271	C227	0.984400	0.408500	0.488420
C2281	C228	0.928500	0.393800	0.461740
C2291	C229	0.122100	0.311700	0.368830
C2301	C230	0.075600	0.332300	0.392100
C2311	C231	0.979500	0.297700	0.345310
C2321	C232	0.928100	0.320000	0.367470
C2331	C233	0.976800	0.336100	0.391830
C2341	C234	0.924700	0.358500	0.417070
C2351	C235	0.039400	0.229500	0.261930
C2361	C236	0.002700	0.233800	0.233780
C2371	C237	0.072900	0.310600	0.264170
C2381	C238	0.036200	0.318300	0.236600
C2391	C239	0.002000	0.279000	0.220550
C2401	C240	0.971200	0.283300	0.189160
C2411	C241	0.916200	0.461800	0.133930
C2421	C242	0.931400	0.419300	0.149210
C2431	C243	0.890000	0.421800	0.090860
C2441	C244	0.903900	0.377500	0.104300
C2451	C245	0.924500	0.375500	0.134330
C2461	C246	0.936300	0.328100	0.149080
C2471	C247	0.867600	0.159800	0.086160
C2481	C248	0.884200	0.202500	0.100500
C2491	C249	0.913300	0.114700	0.126660
C2501	C250	0.932100	0.156100	0.142790
C2511	C251	0.916800	0.201500	0.129540
C2521	C252	0.934200	0.246600	0.146840
C2531	C253	0.453900	0.082600	0.902530
C2541	C254	0.362200	0.100800	0.906280
C2551	C255	0.456100	0.052100	0.949880
C2561	C256	0.363500	0.069100	0.955090
C2571	C257	0.314700	0.093900	0.933170
C2581	C258	0.212500	0.109200	0.936230
C2591	C259	0.004300	0.055200	0.036080
C2601	C260	0.059400	0.067600	0.011410
C2611	C261	0.867300	0.086900	0.014950
C2621	C262	0.916700	0.100600	0.989860
C2631	C263	0.015600	0.091500	0.988420
C2641	C264	0.071500	0.106200	0.961740
C2651	C265	0.877900	0.188300	0.868830
C2661	C266	0.924400	0.167700	0.892100
C2671	C267	0.020500	0.202300	0.845310
C2681	C268	0.071900	0.180000	0.867470
C2691	C269	0.023200	0.163900	0.891830
C2701	C270	0.075300	0.141500	0.917070
C2711	C271	0.960600	0.270500	0.761930
C2721	C272	0.997300	0.266200	0.733780
C2731	C273	0.927100	0.189400	0.764170
C2741	C274	0.963800	0.181700	0.736600
C2751	C275	0.998000	0.221000	0.720550
C2761	C276	0.028800	0.216700	0.689160
C2771	C277	0.083800	0.038200	0.633930
C2781	C278	0.068600	0.080700	0.649210
C2791	C279	0.110000	0.078200	0.590860
C2801	C280	0.096100	0.122500	0.604300
C2811	C281	0.075500	0.124500	0.634330
C2821	C282	0.063700	0.171900	0.649080
C2831	C283	0.132400	0.340200	0.586160
C2841	C284	0.115800	0.297500	0.600500
C2851	C285	0.086700	0.385300	0.626660
C2861	C286	0.067900	0.343900	0.642790
C2871	C287	0.083200	0.298500	0.629540
C2881	C288	0.065800	0.253400	0.646840
I251	I25	0.657350	0.833320	0.172130
I261	I26	0.815230	0.698890	0.192810
I271	I27	0.780300	0.580000	0.122600
I281	I28	0.788350	0.508370	0.034190
I291	I29	0.844490	0.566850	0.931280
I301	I30	0.581650	0.484360	0.895610
I311	I31	0.342650	0.666680	0.672130
I321	I32	0.184770	0.801110	0.692810
I331	I33	0.219700	0.920000	0.622600
I341	I34	0.211650	0.991630	0.534190
I351	I35	0.155510	0.933150	0.431280
I361	I36	0.418350	0.015640	0.395610
I371	I37	0.157350	0.166680	0.327870
I381	I38	0.315230	0.301110	0.307190
I391	I39	0.280300	0.420000	0.377400
I401	I40	0.288350	0.491630	0.465810
I411	I41	0.344490	0.433150	0.568720
I421	I42	0.081650	0.515640	0.604390
I431	I43	0.842650	0.333320	0.827870
I441	I44	0.684770	0.198890	0.807190
I451	I45	0.719700	0.080000	0.877400
I461	I46	0.711650	0.008370	0.965810
I471	I47	0.655510	0.066850	0.068720
I481	I48	0.918350	0.984360	0.104390
N491	N49	0.998200	0.558200	0.076180
N501	N50	0.590400	0.564800	0.962080
N511	N51	0.576400	0.706800	0.154300
N521	N52	0.334200	0.595100	0.039100
N531	N53	0.477400	0.628800	0.059430
N541	N54	0.328300	0.633200	0.085960
N551	N55	0.576300	0.733000	0.223260
N561	N56	0.394600	0.536500	0.394580
N571	N57	0.380500	0.883700	0.401320
N581	N58	0.460700	0.672300	0.322030
N591	N59	0.422700	0.711300	0.367380
N601	N60	0.458100	0.758300	0.325170
N611	N61	0.001800	0.941800	0.576180
N621	N62	0.409600	0.935200	0.462080
N631	N63	0.423600	0.793200	0.654300
N641	N64	0.665800	0.904900	0.539100
N651	N65	0.522600	0.871200	0.559430
N661	N66	0.671700	0.866800	0.585960
N671	N67	0.423700	0.767000	0.723260
N681	N68	0.605400	0.963500	0.894580
N691	N69	0.619500	0.616300	0.901320
N701	N70	0.539300	0.827700	0.822030
N711	N71	0.577300	0.788700	0.867380
N721	N72	0.541900	0.741700	0.825170
N731	N73	0.498200	0.441800	0.423820
N741	N74	0.090400	0.435200	0.537920
N751	N75	0.076400	0.293200	0.345700
N761	N76	0.834200	0.404900	0.460900
N771	N77	0.977400	0.371200	0.440570
N781	N78	0.828300	0.366800	0.414040
N791	N79	0.076300	0.267000	0.276740
N801	N80	0.894600	0.463500	0.105420
N811	N81	0.880500	0.116300	0.098680
N821	N82	0.960700	0.327700	0.177970
N831	N83	0.922700	0.288700	0.132620
N841	N84	0.958100	0.241700	0.174830
N851	N85	0.501800	0.058200	0.923820
N861	N86	0.909600	0.064800	0.037920
N871	N87	0.923600	0.206800	0.845700
N881	N88	0.165800	0.095100	0.960900
N891	N89	0.022600	0.128800	0.940570
N901	N90	0.171700	0.133200	0.914040
N911	N91	0.923700	0.233000	0.776740
N921	N92	0.105400	0.036500	0.605420
N931	N93	0.119500	0.383700	0.598680
N941	N94	0.039300	0.172300	0.677970
N951	N95	0.077300	0.211300	0.632620
N961	N96	0.041900	0.258300	0.674830
