data_CIWREG_freeONLY_PM
_symmetry_space_group_name_H-M	'P1'
_cell_length_a	13.681700
_cell_length_b	27.123000
_cell_length_c	45.995000
_cell_angle_alpha	90.000000
_cell_angle_beta	90.000000
_cell_angle_gamma	90.000000
_symmetry_Int_Tables_number 1

loop_
_symmetry_equiv_pos_as_xyz
'x,y,z'

loop_
_atom_site_label
_atom_site_type_symbol
_atom_site_fract_x
_atom_site_fract_y
_atom_site_fract_z
Zn11	Zn1	0.859340	0.951800	0.929640
Zn21	Zn2	0.645660	0.966720	0.093700
Zn31	Zn3	0.844030	0.750900	0.189020
Zn41	Zn4	0.140660	0.548200	0.429640
Zn51	Zn5	0.354340	0.533280	0.593700
Zn61	Zn6	0.155970	0.749100	0.689020
Zn71	Zn7	0.359340	0.048200	0.570360
Zn81	Zn8	0.145660	0.033280	0.406300
Zn91	Zn9	0.344030	0.249100	0.310980
Zn101	Zn10	0.640660	0.451800	0.070360
Zn111	Zn11	0.854340	0.466720	0.906300
Zn121	Zn12	0.655970	0.250900	0.810980
H11	H1	0.806700	0.806500	0.134100
H21	H2	0.890500	0.841900	0.095900
H31	H3	0.053900	0.771700	0.173300
H41	H4	0.144200	0.806700	0.136000
H51	H5	0.470700	0.935500	0.127100
H61	H6	0.313400	0.906100	0.120100
H71	H7	0.523000	0.930800	0.042900
H81	H8	0.365400	0.903400	0.033600
H91	H9	0.053600	0.969700	0.959200
H101	H10	0.141600	0.943400	0.999200
H111	H11	0.820500	0.896300	0.984900
H121	H12	0.902900	0.866400	0.025600
H131	H13	0.927100	0.922600	0.869800
H141	H14	0.949900	0.853300	0.841600
H151	H15	0.858100	0.841000	0.937800
H161	H16	0.884200	0.769400	0.911800
H171	H17	0.882200	0.571100	0.925900
H181	H18	0.908100	0.649100	0.907100
H191	H19	0.916200	0.510700	0.848800
H201	H20	0.944800	0.586500	0.827700
H211	H21	0.086500	0.667600	0.727100
H221	H22	0.028000	0.655900	0.774000
H231	H23	0.043200	0.810800	0.732400
H241	H24	0.985300	0.803200	0.779500
H251	H25	0.193300	0.693500	0.634100
H261	H26	0.109500	0.658100	0.595900
H271	H27	0.946100	0.728300	0.673300
H281	H28	0.855800	0.693300	0.636000
H291	H29	0.529300	0.564500	0.627100
H301	H30	0.686600	0.593900	0.620100
H311	H31	0.477000	0.569200	0.542900
H321	H32	0.634600	0.596600	0.533600
H331	H33	0.946400	0.530300	0.459200
H341	H34	0.858400	0.556600	0.499200
H351	H35	0.179500	0.603700	0.484900
H361	H36	0.097100	0.633600	0.525600
H371	H37	0.072900	0.577400	0.369800
H381	H38	0.050100	0.646700	0.341600
H391	H39	0.141900	0.659000	0.437800
H401	H40	0.115800	0.730600	0.411800
H411	H41	0.117800	0.928900	0.425900
H421	H42	0.091900	0.850900	0.407100
H431	H43	0.083800	0.989300	0.348800
H441	H44	0.055200	0.913500	0.327700
H451	H45	0.913500	0.832400	0.227100
H461	H46	0.972000	0.844100	0.274000
H471	H47	0.956800	0.689200	0.232400
H481	H48	0.014700	0.696800	0.279500
H491	H49	0.306700	0.193500	0.365900
H501	H50	0.390500	0.158100	0.404100
H511	H51	0.553900	0.228300	0.326700
H521	H52	0.644200	0.193300	0.364000
H531	H53	0.970700	0.064500	0.372900
H541	H54	0.813400	0.093900	0.379900
H551	H55	0.023000	0.069200	0.457100
H561	H56	0.865400	0.096600	0.466400
H571	H57	0.553600	0.030300	0.540800
H581	H58	0.641600	0.056600	0.500800
H591	H59	0.320500	0.103700	0.515100
H601	H60	0.402900	0.133600	0.474400
H611	H61	0.427100	0.077400	0.630200
H621	H62	0.449900	0.146700	0.658400
H631	H63	0.358100	0.159000	0.562200
H641	H64	0.384200	0.230600	0.588200
H651	H65	0.382200	0.428900	0.574100
H661	H66	0.408100	0.350900	0.592900
H671	H67	0.416200	0.489300	0.651200
H681	H68	0.444800	0.413500	0.672300
H691	H69	0.586500	0.332400	0.772900
H701	H70	0.528000	0.344100	0.726000
H711	H71	0.543200	0.189200	0.767600
H721	H72	0.485300	0.196800	0.720500
H731	H73	0.693300	0.306500	0.865900
H741	H74	0.609500	0.341900	0.904100
H751	H75	0.446100	0.271700	0.826700
H761	H76	0.355800	0.306700	0.864000
H771	H77	0.029300	0.435500	0.872900
H781	H78	0.186600	0.406100	0.879900
H791	H79	0.977000	0.430800	0.957100
H801	H80	0.134600	0.403400	0.966400
H811	H81	0.446400	0.469700	0.040800
H821	H82	0.358400	0.443400	0.000800
H831	H83	0.679500	0.396300	0.015100
H841	H84	0.597100	0.366400	0.974400
H851	H85	0.572900	0.422600	0.130200
H861	H86	0.550100	0.353300	0.158400
H871	H87	0.641900	0.341000	0.062200
H881	H88	0.615800	0.269400	0.088200
H891	H89	0.617800	0.071100	0.074100
H901	H90	0.591900	0.149100	0.092900
H911	H91	0.583800	0.010700	0.151200
H921	H92	0.555200	0.086500	0.172300
H931	H93	0.413500	0.167600	0.272900
H941	H94	0.472000	0.155900	0.226000
H951	H95	0.456800	0.310800	0.267600
H961	H96	0.514700	0.303200	0.220500
C11	C1	0.876100	0.806380	0.134380
C21	C2	0.925500	0.827560	0.111580
C31	C3	0.020600	0.786090	0.157280
C41	C4	0.074800	0.806820	0.135180
C51	C5	0.026900	0.827830	0.111660
C61	C6	0.082300	0.850880	0.087670
C71	C7	0.448800	0.928750	0.107870
C81	C8	0.355000	0.911410	0.103850
C91	C9	0.479100	0.926310	0.058690
C101	C10	0.385700	0.909570	0.053010
C111	C11	0.322000	0.901830	0.075890
C121	C12	0.220300	0.885600	0.070880
C131	C13	0.023000	0.948390	0.972820
C141	C14	0.076000	0.932800	0.996510
C151	C15	0.886900	0.905390	0.987780
C161	C16	0.935300	0.887530	0.012170
C171	C17	0.031700	0.901120	0.016520
C181	C18	0.085700	0.884410	0.042890
C191	C19	0.917000	0.891030	0.878220
C201	C20	0.931700	0.849910	0.861390
C211	C21	0.877400	0.843270	0.917980
C221	C22	0.892500	0.800490	0.902610
C231	C23	0.919900	0.803220	0.873540
C241	C24	0.935600	0.758500	0.855940
C251	C25	0.893700	0.574650	0.905620
C261	C26	0.909300	0.621190	0.894650
C271	C27	0.913800	0.539370	0.860580
C281	C28	0.930700	0.584250	0.847900
C291	C29	0.927000	0.626640	0.865000
C301	C30	0.939100	0.676000	0.851900
C311	C31	0.066700	0.695430	0.738140
C321	C32	0.032000	0.688120	0.766060
C331	C33	0.041700	0.779110	0.741240
C341	C34	0.006800	0.774880	0.769210
C351	C35	0.003300	0.728840	0.782170
C361	C36	0.973200	0.723370	0.812940
C371	C37	0.123900	0.693620	0.634380
C381	C38	0.074500	0.672440	0.611580
C391	C39	0.979400	0.713910	0.657280
C401	C40	0.925200	0.693180	0.635180
C411	C41	0.973100	0.672170	0.611660
C421	C42	0.917700	0.649120	0.587670
C431	C43	0.551200	0.571250	0.607870
C441	C44	0.645000	0.588590	0.603850
C451	C45	0.520900	0.573690	0.558690
C461	C46	0.614300	0.590430	0.553010
C471	C47	0.678000	0.598170	0.575890
C481	C48	0.779700	0.614400	0.570880
C491	C49	0.977000	0.551610	0.472820
C501	C50	0.924000	0.567200	0.496510
C511	C51	0.113100	0.594610	0.487780
C521	C52	0.064700	0.612470	0.512170
C531	C53	0.968300	0.598880	0.516520
C541	C54	0.914300	0.615590	0.542890
C551	C55	0.083000	0.608970	0.378220
C561	C56	0.068300	0.650090	0.361390
C571	C57	0.122600	0.656730	0.417980
C581	C58	0.107500	0.699510	0.402610
C591	C59	0.080100	0.696780	0.373540
C601	C60	0.064400	0.741500	0.355940
C611	C61	0.106300	0.925350	0.405620
C621	C62	0.090700	0.878810	0.394650
C631	C63	0.086200	0.960630	0.360580
C641	C64	0.069300	0.915750	0.347900
C651	C65	0.073000	0.873360	0.365000
C661	C66	0.060900	0.824000	0.351900
C671	C67	0.933300	0.804570	0.238140
C681	C68	0.968000	0.811880	0.266060
C691	C69	0.958300	0.720890	0.241240
C701	C70	0.993200	0.725120	0.269210
C711	C71	0.996700	0.771160	0.282170
C721	C72	0.026800	0.776630	0.312940
C731	C73	0.376100	0.193620	0.365620
C741	C74	0.425500	0.172440	0.388420
C751	C75	0.520600	0.213910	0.342720
C761	C76	0.574800	0.193180	0.364820
C771	C77	0.526900	0.172170	0.388340
C781	C78	0.582300	0.149120	0.412330
C791	C79	0.948800	0.071250	0.392130
C801	C80	0.855000	0.088590	0.396150
C811	C81	0.979100	0.073690	0.441310
C821	C82	0.885700	0.090430	0.446990
C831	C83	0.822000	0.098170	0.424110
C841	C84	0.720300	0.114400	0.429120
C851	C85	0.523000	0.051610	0.527180
C861	C86	0.576000	0.067200	0.503490
C871	C87	0.386900	0.094610	0.512220
C881	C88	0.435300	0.112470	0.487830
C891	C89	0.531700	0.098880	0.483480
C901	C90	0.585700	0.115590	0.457110
C911	C91	0.417000	0.108970	0.621780
C921	C92	0.431700	0.150090	0.638610
C931	C93	0.377400	0.156730	0.582020
C941	C94	0.392500	0.199510	0.597390
C951	C95	0.419900	0.196780	0.626460
C961	C96	0.435600	0.241500	0.644060
C971	C97	0.393700	0.425350	0.594380
C981	C98	0.409300	0.378810	0.605350
C991	C99	0.413800	0.460630	0.639420
C1001	C100	0.430700	0.415750	0.652100
C1011	C101	0.427000	0.373360	0.635000
C1021	C102	0.439100	0.324000	0.648100
C1031	C103	0.566700	0.304570	0.761860
C1041	C104	0.532000	0.311880	0.733940
C1051	C105	0.541700	0.220890	0.758760
C1061	C106	0.506800	0.225120	0.730790
C1071	C107	0.503300	0.271160	0.717830
C1081	C108	0.473200	0.276630	0.687060
C1091	C109	0.623900	0.306380	0.865620
C1101	C110	0.574500	0.327560	0.888420
C1111	C111	0.479400	0.286090	0.842720
C1121	C112	0.425200	0.306820	0.864820
C1131	C113	0.473100	0.327830	0.888340
C1141	C114	0.417700	0.350880	0.912330
C1151	C115	0.051200	0.428750	0.892130
C1161	C116	0.145000	0.411410	0.896150
C1171	C117	0.020900	0.426310	0.941310
C1181	C118	0.114300	0.409570	0.946990
C1191	C119	0.178000	0.401830	0.924110
C1201	C120	0.279700	0.385600	0.929120
C1211	C121	0.477000	0.448390	0.027180
C1221	C122	0.424000	0.432800	0.003490
C1231	C123	0.613100	0.405390	0.012220
C1241	C124	0.564700	0.387530	0.987830
C1251	C125	0.468300	0.401120	0.983480
C1261	C126	0.414300	0.384410	0.957110
C1271	C127	0.583000	0.391030	0.121780
C1281	C128	0.568300	0.349910	0.138610
C1291	C129	0.622600	0.343270	0.082020
C1301	C130	0.607500	0.300490	0.097390
C1311	C131	0.580100	0.303220	0.126460
C1321	C132	0.564400	0.258500	0.144060
C1331	C133	0.606300	0.074650	0.094380
C1341	C134	0.590700	0.121190	0.105350
C1351	C135	0.586200	0.039370	0.139420
C1361	C136	0.569300	0.084250	0.152100
C1371	C137	0.573000	0.126640	0.135000
C1381	C138	0.560900	0.176000	0.148100
C1391	C139	0.433300	0.195430	0.261860
C1401	C140	0.468000	0.188120	0.233940
C1411	C141	0.458300	0.279110	0.258760
C1421	C142	0.493200	0.274880	0.230790
C1431	C143	0.496700	0.228840	0.217830
C1441	C144	0.526800	0.223370	0.187060
I11	I1	0.954220	0.018740	0.903120
I21	I2	0.675750	0.952330	0.938880
I31	I3	0.732330	0.978520	0.045060
I41	I4	0.724600	0.921200	0.135790
I51	I5	0.691530	0.804050	0.196220
I61	I6	0.831510	0.658900	0.178330
I71	I7	0.045780	0.481260	0.403120
I81	I8	0.324250	0.547670	0.438880
I91	I9	0.267670	0.521480	0.545060
I101	I10	0.275400	0.578800	0.635790
I111	I11	0.308470	0.695950	0.696220
I121	I12	0.168490	0.841100	0.678330
I131	I13	0.454220	0.981260	0.596880
I141	I14	0.175750	0.047670	0.561120
I151	I15	0.232330	0.021480	0.454940
I161	I16	0.224600	0.078800	0.364210
I171	I17	0.191530	0.195950	0.303780
I181	I18	0.331510	0.341100	0.321670
I191	I19	0.545780	0.518740	0.096880
I201	I20	0.824250	0.452330	0.061120
I211	I21	0.767670	0.478520	0.954940
I221	I22	0.775400	0.421200	0.864210
I231	I23	0.808470	0.304050	0.803780
I241	I24	0.668490	0.158900	0.821670
N11	N1	0.922300	0.785430	0.157060
N21	N2	0.510000	0.936410	0.085590
N31	N3	0.929800	0.934860	0.968130
N41	N4	0.175200	0.863020	0.092870
N51	N5	0.180000	0.896640	0.045100
N61	N6	0.033600	0.860550	0.062960
N71	N7	0.889000	0.888280	0.906130
N81	N8	0.893900	0.534170	0.888900
N91	N9	0.073500	0.740410	0.725990
N101	N10	0.924200	0.714870	0.868960
N111	N11	0.963900	0.677970	0.823440
N121	N12	0.959300	0.765140	0.828010
N131	N13	0.077700	0.714570	0.657060
N141	N14	0.490000	0.563590	0.585590
N151	N15	0.070200	0.565140	0.468130
N161	N16	0.824800	0.636980	0.592870
N171	N17	0.820000	0.603360	0.545100
N181	N18	0.966400	0.639450	0.562960
N191	N19	0.111000	0.611720	0.406130
N201	N20	0.106100	0.965830	0.388900
N211	N21	0.926500	0.759590	0.225990
N221	N22	0.075800	0.785130	0.368960
N231	N23	0.036100	0.822030	0.323440
N241	N24	0.040700	0.734860	0.328010
N251	N25	0.422300	0.214570	0.342940
N261	N26	0.010000	0.063590	0.414410
N271	N27	0.429800	0.065140	0.531870
N281	N28	0.675200	0.136980	0.407130
N291	N29	0.680000	0.103360	0.454900
N301	N30	0.533600	0.139450	0.437040
N311	N31	0.389000	0.111720	0.593870
N321	N32	0.393900	0.465830	0.611100
N331	N33	0.573500	0.259590	0.774010
N341	N34	0.424200	0.285130	0.631040
N351	N35	0.463900	0.322030	0.676560
N361	N36	0.459300	0.234860	0.671990
N371	N37	0.577700	0.285430	0.842940
N381	N38	0.990000	0.436410	0.914410
N391	N39	0.570200	0.434860	0.031870
N401	N40	0.324800	0.363020	0.907130
N411	N41	0.320000	0.396640	0.954900
N421	N42	0.466400	0.360550	0.937040
N431	N43	0.611000	0.388280	0.093870
N441	N44	0.606100	0.034170	0.111100
N451	N45	0.426500	0.240410	0.274010
N461	N46	0.575800	0.214870	0.131040
N471	N47	0.536100	0.177970	0.176560
N481	N48	0.540700	0.265140	0.171990
Zn131	Zn13	0.140660	0.048200	0.070360
Zn141	Zn14	0.354340	0.033280	0.906300
Zn151	Zn15	0.155970	0.249100	0.810980
Zn161	Zn16	0.859340	0.451800	0.570360
Zn171	Zn17	0.645660	0.466720	0.406300
Zn181	Zn18	0.844030	0.250900	0.310980
Zn191	Zn19	0.640660	0.951800	0.429640
Zn201	Zn20	0.854340	0.966720	0.593700
Zn211	Zn21	0.655970	0.750900	0.689020
Zn221	Zn22	0.359340	0.548200	0.929640
Zn231	Zn23	0.145660	0.533280	0.093700
Zn241	Zn24	0.344030	0.749100	0.189020
H971	H97	0.193300	0.193500	0.865900
H981	H98	0.109500	0.158100	0.904100
H991	H99	0.946100	0.228300	0.826700
H1001	H100	0.855800	0.193300	0.864000
H1011	H101	0.529300	0.064500	0.872900
H1021	H102	0.686600	0.093900	0.879900
H1031	H103	0.477000	0.069200	0.957100
H1041	H104	0.634600	0.096600	0.966400
H1051	H105	0.946400	0.030300	0.040800
H1061	H106	0.858400	0.056600	0.000800
H1071	H107	0.179500	0.103700	0.015100
H1081	H108	0.097100	0.133600	0.974400
H1091	H109	0.072900	0.077400	0.130200
H1101	H110	0.050100	0.146700	0.158400
H1111	H111	0.141900	0.159000	0.062200
H1121	H112	0.115800	0.230600	0.088200
H1131	H113	0.117800	0.428900	0.074100
H1141	H114	0.091900	0.350900	0.092900
H1151	H115	0.083800	0.489300	0.151200
H1161	H116	0.055200	0.413500	0.172300
H1171	H117	0.913500	0.332400	0.272900
H1181	H118	0.972000	0.344100	0.226000
H1191	H119	0.956800	0.189200	0.267600
H1201	H120	0.014700	0.196800	0.220500
H1211	H121	0.806700	0.306500	0.365900
H1221	H122	0.890500	0.341900	0.404100
H1231	H123	0.053900	0.271700	0.326700
H1241	H124	0.144200	0.306700	0.364000
H1251	H125	0.470700	0.435500	0.372900
H1261	H126	0.313400	0.406100	0.379900
H1271	H127	0.523000	0.430800	0.457100
H1281	H128	0.365400	0.403400	0.466400
H1291	H129	0.053600	0.469700	0.540800
H1301	H130	0.141600	0.443400	0.500800
H1311	H131	0.820500	0.396300	0.515100
H1321	H132	0.902900	0.366400	0.474400
H1331	H133	0.927100	0.422600	0.630200
H1341	H134	0.949900	0.353300	0.658400
H1351	H135	0.858100	0.341000	0.562200
H1361	H136	0.884200	0.269400	0.588200
H1371	H137	0.882200	0.071100	0.574100
H1381	H138	0.908100	0.149100	0.592900
H1391	H139	0.916200	0.010700	0.651200
H1401	H140	0.944800	0.086500	0.672300
H1411	H141	0.086500	0.167600	0.772900
H1421	H142	0.028000	0.155900	0.726000
H1431	H143	0.043200	0.310800	0.767600
H1441	H144	0.985300	0.303200	0.720500
H1451	H145	0.693300	0.806500	0.634100
H1461	H146	0.609500	0.841900	0.595900
H1471	H147	0.446100	0.771700	0.673300
H1481	H148	0.355800	0.806700	0.636000
H1491	H149	0.029300	0.935500	0.627100
H1501	H150	0.186600	0.906100	0.620100
H1511	H151	0.977000	0.930800	0.542900
H1521	H152	0.134600	0.903400	0.533600
H1531	H153	0.446400	0.969700	0.459200
H1541	H154	0.358400	0.943400	0.499200
H1551	H155	0.679500	0.896300	0.484900
H1561	H156	0.597100	0.866400	0.525600
H1571	H157	0.572900	0.922600	0.369800
H1581	H158	0.550100	0.853300	0.341600
H1591	H159	0.641900	0.841000	0.437800
H1601	H160	0.615800	0.769400	0.411800
H1611	H161	0.617800	0.571100	0.425900
H1621	H162	0.591900	0.649100	0.407100
H1631	H163	0.583800	0.510700	0.348800
H1641	H164	0.555200	0.586500	0.327700
H1651	H165	0.413500	0.667600	0.227100
H1661	H166	0.472000	0.655900	0.274000
H1671	H167	0.456800	0.810800	0.232400
H1681	H168	0.514700	0.803200	0.279500
H1691	H169	0.306700	0.693500	0.134100
H1701	H170	0.390500	0.658100	0.095900
H1711	H171	0.553900	0.728300	0.173300
H1721	H172	0.644200	0.693300	0.136000
H1731	H173	0.970700	0.564500	0.127100
H1741	H174	0.813400	0.593900	0.120100
H1751	H175	0.023000	0.569200	0.042900
H1761	H176	0.865400	0.596600	0.033600
H1771	H177	0.553600	0.530300	0.959200
H1781	H178	0.641600	0.556600	0.999200
H1791	H179	0.320500	0.603700	0.984900
H1801	H180	0.402900	0.633600	0.025600
H1811	H181	0.427100	0.577400	0.869800
H1821	H182	0.449900	0.646700	0.841600
H1831	H183	0.358100	0.659000	0.937800
H1841	H184	0.384200	0.730600	0.911800
H1851	H185	0.382200	0.928900	0.925900
H1861	H186	0.408100	0.850900	0.907100
H1871	H187	0.416200	0.989300	0.848800
H1881	H188	0.444800	0.913500	0.827700
H1891	H189	0.586500	0.832400	0.727100
H1901	H190	0.528000	0.844100	0.774000
H1911	H191	0.543200	0.689200	0.732400
H1921	H192	0.485300	0.696800	0.779500
C1451	C145	0.123900	0.193620	0.865620
C1461	C146	0.074500	0.172440	0.888420
C1471	C147	0.979400	0.213910	0.842720
C1481	C148	0.925200	0.193180	0.864820
C1491	C149	0.973100	0.172170	0.888340
C1501	C150	0.917700	0.149120	0.912330
C1511	C151	0.551200	0.071250	0.892130
C1521	C152	0.645000	0.088590	0.896150
C1531	C153	0.520900	0.073690	0.941310
C1541	C154	0.614300	0.090430	0.946990
C1551	C155	0.678000	0.098170	0.924110
C1561	C156	0.779700	0.114400	0.929120
C1571	C157	0.977000	0.051610	0.027180
C1581	C158	0.924000	0.067200	0.003490
C1591	C159	0.113100	0.094610	0.012220
C1601	C160	0.064700	0.112470	0.987830
C1611	C161	0.968300	0.098880	0.983480
C1621	C162	0.914300	0.115590	0.957110
C1631	C163	0.083000	0.108970	0.121780
C1641	C164	0.068300	0.150090	0.138610
C1651	C165	0.122600	0.156730	0.082020
C1661	C166	0.107500	0.199510	0.097390
C1671	C167	0.080100	0.196780	0.126460
C1681	C168	0.064400	0.241500	0.144060
C1691	C169	0.106300	0.425350	0.094380
C1701	C170	0.090700	0.378810	0.105350
C1711	C171	0.086200	0.460630	0.139420
C1721	C172	0.069300	0.415750	0.152100
C1731	C173	0.073000	0.373360	0.135000
C1741	C174	0.060900	0.324000	0.148100
C1751	C175	0.933300	0.304570	0.261860
C1761	C176	0.968000	0.311880	0.233940
C1771	C177	0.958300	0.220890	0.258760
C1781	C178	0.993200	0.225120	0.230790
C1791	C179	0.996700	0.271160	0.217830
C1801	C180	0.026800	0.276630	0.187060
C1811	C181	0.876100	0.306380	0.365620
C1821	C182	0.925500	0.327560	0.388420
C1831	C183	0.020600	0.286090	0.342720
C1841	C184	0.074800	0.306820	0.364820
C1851	C185	0.026900	0.327830	0.388340
C1861	C186	0.082300	0.350880	0.412330
C1871	C187	0.448800	0.428750	0.392130
C1881	C188	0.355000	0.411410	0.396150
C1891	C189	0.479100	0.426310	0.441310
C1901	C190	0.385700	0.409570	0.446990
C1911	C191	0.322000	0.401830	0.424110
C1921	C192	0.220300	0.385600	0.429120
C1931	C193	0.023000	0.448390	0.527180
C1941	C194	0.076000	0.432800	0.503490
C1951	C195	0.886900	0.405390	0.512220
C1961	C196	0.935300	0.387530	0.487830
C1971	C197	0.031700	0.401120	0.483480
C1981	C198	0.085700	0.384410	0.457110
C1991	C199	0.917000	0.391030	0.621780
C2001	C200	0.931700	0.349910	0.638610
C2011	C201	0.877400	0.343270	0.582020
C2021	C202	0.892500	0.300490	0.597390
C2031	C203	0.919900	0.303220	0.626460
C2041	C204	0.935600	0.258500	0.644060
C2051	C205	0.893700	0.074650	0.594380
C2061	C206	0.909300	0.121190	0.605350
C2071	C207	0.913800	0.039370	0.639420
C2081	C208	0.930700	0.084250	0.652100
C2091	C209	0.927000	0.126640	0.635000
C2101	C210	0.939100	0.176000	0.648100
C2111	C211	0.066700	0.195430	0.761860
C2121	C212	0.032000	0.188120	0.733940
C2131	C213	0.041700	0.279110	0.758760
C2141	C214	0.006800	0.274880	0.730790
C2151	C215	0.003300	0.228840	0.717830
C2161	C216	0.973200	0.223370	0.687060
C2171	C217	0.623900	0.806380	0.634380
C2181	C218	0.574500	0.827560	0.611580
C2191	C219	0.479400	0.786090	0.657280
C2201	C220	0.425200	0.806820	0.635180
C2211	C221	0.473100	0.827830	0.611660
C2221	C222	0.417700	0.850880	0.587670
C2231	C223	0.051200	0.928750	0.607870
C2241	C224	0.145000	0.911410	0.603850
C2251	C225	0.020900	0.926310	0.558690
C2261	C226	0.114300	0.909570	0.553010
C2271	C227	0.178000	0.901830	0.575890
C2281	C228	0.279700	0.885600	0.570880
C2291	C229	0.477000	0.948390	0.472820
C2301	C230	0.424000	0.932800	0.496510
C2311	C231	0.613100	0.905390	0.487780
C2321	C232	0.564700	0.887530	0.512170
C2331	C233	0.468300	0.901120	0.516520
C2341	C234	0.414300	0.884410	0.542890
C2351	C235	0.583000	0.891030	0.378220
C2361	C236	0.568300	0.849910	0.361390
C2371	C237	0.622600	0.843270	0.417980
C2381	C238	0.607500	0.800490	0.402610
C2391	C239	0.580100	0.803220	0.373540
C2401	C240	0.564400	0.758500	0.355940
C2411	C241	0.606300	0.574650	0.405620
C2421	C242	0.590700	0.621190	0.394650
C2431	C243	0.586200	0.539370	0.360580
C2441	C244	0.569300	0.584250	0.347900
C2451	C245	0.573000	0.626640	0.365000
C2461	C246	0.560900	0.676000	0.351900
C2471	C247	0.433300	0.695430	0.238140
C2481	C248	0.468000	0.688120	0.266060
C2491	C249	0.458300	0.779110	0.241240
C2501	C250	0.493200	0.774880	0.269210
C2511	C251	0.496700	0.728840	0.282170
C2521	C252	0.526800	0.723370	0.312940
C2531	C253	0.376100	0.693620	0.134380
C2541	C254	0.425500	0.672440	0.111580
C2551	C255	0.520600	0.713910	0.157280
C2561	C256	0.574800	0.693180	0.135180
C2571	C257	0.526900	0.672170	0.111660
C2581	C258	0.582300	0.649120	0.087670
C2591	C259	0.948800	0.571250	0.107870
C2601	C260	0.855000	0.588590	0.103850
C2611	C261	0.979100	0.573690	0.058690
C2621	C262	0.885700	0.590430	0.053010
C2631	C263	0.822000	0.598170	0.075890
C2641	C264	0.720300	0.614400	0.070880
C2651	C265	0.523000	0.551610	0.972820
C2661	C266	0.576000	0.567200	0.996510
C2671	C267	0.386900	0.594610	0.987780
C2681	C268	0.435300	0.612470	0.012170
C2691	C269	0.531700	0.598880	0.016520
C2701	C270	0.585700	0.615590	0.042890
C2711	C271	0.417000	0.608970	0.878220
C2721	C272	0.431700	0.650090	0.861390
C2731	C273	0.377400	0.656730	0.917980
C2741	C274	0.392500	0.699510	0.902610
C2751	C275	0.419900	0.696780	0.873540
C2761	C276	0.435600	0.741500	0.855940
C2771	C277	0.393700	0.925350	0.905620
C2781	C278	0.409300	0.878810	0.894650
C2791	C279	0.413800	0.960630	0.860580
C2801	C280	0.430700	0.915750	0.847900
C2811	C281	0.427000	0.873360	0.865000
C2821	C282	0.439100	0.824000	0.851900
C2831	C283	0.566700	0.804570	0.738140
C2841	C284	0.532000	0.811880	0.766060
C2851	C285	0.541700	0.720890	0.741240
C2861	C286	0.506800	0.725120	0.769210
C2871	C287	0.503300	0.771160	0.782170
C2881	C288	0.473200	0.776630	0.812940
I251	I25	0.045780	0.981260	0.096880
I261	I26	0.324250	0.047670	0.061120
I271	I27	0.267670	0.021480	0.954940
I281	I28	0.275400	0.078800	0.864210
I291	I29	0.308470	0.195950	0.803780
I301	I30	0.168490	0.341100	0.821670
I311	I31	0.954220	0.518740	0.596880
I321	I32	0.675750	0.452330	0.561120
I331	I33	0.732330	0.478520	0.454940
I341	I34	0.724600	0.421200	0.364210
I351	I35	0.691530	0.304050	0.303780
I361	I36	0.831510	0.158900	0.321670
I371	I37	0.545780	0.018740	0.403120
I381	I38	0.824250	0.952330	0.438880
I391	I39	0.767670	0.978520	0.545060
I401	I40	0.775400	0.921200	0.635790
I411	I41	0.808470	0.804050	0.696220
I421	I42	0.668490	0.658900	0.678330
I431	I43	0.454220	0.481260	0.903120
I441	I44	0.175750	0.547670	0.938880
I451	I45	0.232330	0.521480	0.045060
I461	I46	0.224600	0.578800	0.135790
I471	I47	0.191530	0.695950	0.196220
I481	I48	0.331510	0.841100	0.178330
N491	N49	0.077700	0.214570	0.842940
N501	N50	0.490000	0.063590	0.914410
N511	N51	0.070200	0.065140	0.031870
N521	N52	0.824800	0.136980	0.907130
N531	N53	0.820000	0.103360	0.954900
N541	N54	0.966400	0.139450	0.937040
N551	N55	0.111000	0.111720	0.093870
N561	N56	0.106100	0.465830	0.111100
N571	N57	0.926500	0.259590	0.274010
N581	N58	0.075800	0.285130	0.131040
N591	N59	0.036100	0.322030	0.176560
N601	N60	0.040700	0.234860	0.171990
N611	N61	0.922300	0.285430	0.342940
N621	N62	0.510000	0.436410	0.414410
N631	N63	0.929800	0.434860	0.531870
N641	N64	0.175200	0.363020	0.407130
N651	N65	0.180000	0.396640	0.454900
N661	N66	0.033600	0.360550	0.437040
N671	N67	0.889000	0.388280	0.593870
N681	N68	0.893900	0.034170	0.611100
N691	N69	0.073500	0.240410	0.774010
N701	N70	0.924200	0.214870	0.631040
N711	N71	0.963900	0.177970	0.676560
N721	N72	0.959300	0.265140	0.671990
N731	N73	0.577700	0.785430	0.657060
N741	N74	0.990000	0.936410	0.585590
N751	N75	0.570200	0.934860	0.468130
N761	N76	0.324800	0.863020	0.592870
N771	N77	0.320000	0.896640	0.545100
N781	N78	0.466400	0.860550	0.562960
N791	N79	0.611000	0.888280	0.406130
N801	N80	0.606100	0.534170	0.388900
N811	N81	0.426500	0.740410	0.225990
N821	N82	0.575800	0.714870	0.368960
N831	N83	0.536100	0.677970	0.323440
N841	N84	0.540700	0.765140	0.328010
N851	N85	0.422300	0.714570	0.157060
N861	N86	0.010000	0.563590	0.085590
N871	N87	0.429800	0.565140	0.968130
N881	N88	0.675200	0.636980	0.092870
N891	N89	0.680000	0.603360	0.045100
N901	N90	0.533600	0.639450	0.062960
N911	N91	0.389000	0.611720	0.906130
N921	N92	0.393900	0.965830	0.888900
N931	N93	0.573500	0.759590	0.725990
N941	N94	0.424200	0.785130	0.868960
N951	N95	0.463900	0.822030	0.823440
N961	N96	0.459300	0.734860	0.828010
