data_CIWRIK_freeONLY_PM
_symmetry_space_group_name_H-M	'P1'
_cell_length_a	27.122000
_cell_length_b	13.692000
_cell_length_c	45.963000
_cell_angle_alpha	90.000000
_cell_angle_beta	90.000000
_cell_angle_gamma	90.000000
_symmetry_Int_Tables_number 1

loop_
_symmetry_equiv_pos_as_xyz
'x,y,z'

loop_
_atom_site_label
_atom_site_type_symbol
_atom_site_fract_x
_atom_site_fract_y
_atom_site_fract_z
Zn11	Zn1	0.450690	0.361110	0.068580
Zn21	Zn2	0.252540	0.350770	0.809850
Zn31	Zn3	0.467190	0.150110	0.907290
I11	I1	0.517540	0.456820	0.094570
I21	I2	0.454680	0.178780	0.057600
I31	I3	0.161290	0.338330	0.822070
I41	I4	0.303940	0.195880	0.802550
I51	I5	0.420380	0.228880	0.865890
I61	I6	0.479760	0.232750	0.956240
C11	C1	0.307800	0.382900	0.864080
H11	H1	0.308000	0.313500	0.864300
C21	C2	0.328300	0.432300	0.886990
H21	H2	0.342300	0.397300	0.902800
C31	C3	0.287700	0.525900	0.841690
H31	H3	0.273100	0.559200	0.825800
C41	C4	0.307800	0.580300	0.863670
H41	H4	0.307400	0.649700	0.862900
C51	C5	0.328600	0.532200	0.886930
C61	C6	0.351300	0.587400	0.911340
C71	C7	0.428800	0.954000	0.893050
H51	H5	0.435700	0.976500	0.873900
C81	C8	0.411000	0.861200	0.896420
H61	H6	0.405100	0.820900	0.880000
C91	C9	0.426700	0.982400	0.941430
H71	H7	0.431200	0.025500	0.957400
C101	C10	0.409600	0.890100	0.946900
H81	H8	0.403400	0.869900	0.966300
C111	C11	0.401500	0.827000	0.924240
C121	C12	0.385300	0.724900	0.928720
C131	C13	0.446000	0.525800	0.025990
H91	H9	0.467100	0.556200	0.039800
C141	C14	0.430700	0.578900	0.002770
H101	H10	0.441100	0.644700	0.000400
C151	C15	0.403700	0.389500	0.010920
H111	H11	0.394600	0.323000	0.013500
C161	C16	0.386200	0.440100	0.986720
H121	H12	0.365100	0.408500	0.973200
C171	C17	0.399600	0.535700	0.982410
C181	C18	0.383200	0.590100	0.956300
C191	C19	0.342900	0.374300	0.080960
H131	H13	0.340400	0.354800	0.061200
C201	C20	0.300100	0.389200	0.096330
H141	H14	0.268900	0.380700	0.087300
C211	C21	0.390500	0.412300	0.120510
H151	H15	0.422200	0.420400	0.129000
C221	C22	0.349600	0.428000	0.137410
H161	H16	0.353000	0.446300	0.157200
C231	C23	0.303400	0.416700	0.125310
C241	C24	0.258500	0.431600	0.142780
C251	C25	0.278700	0.539100	0.257390
H171	H17	0.310300	0.542000	0.266200
C261	C26	0.274800	0.504000	0.229420
H181	H18	0.303500	0.483700	0.219200
C271	C27	0.195700	0.561000	0.260400
H191	H19	0.167600	0.580200	0.271300
C281	C28	0.188400	0.525900	0.232560
H201	H20	0.156200	0.520500	0.224700
C291	C29	0.229100	0.498600	0.216400
C301	C30	0.223700	0.468600	0.185690
C311	C31	0.040100	0.401300	0.138950
H211	H21	0.011800	0.398400	0.151100
C321	C32	0.085400	0.419400	0.151550
H221	H22	0.087900	0.431100	0.171900
C331	C33	0.074500	0.392000	0.093720
H231	H23	0.070800	0.383800	0.073300
C341	C34	0.120900	0.407900	0.104620
H241	H24	0.148600	0.410200	0.092000
C351	C35	0.126900	0.420400	0.134300
C361	C36	0.176200	0.433700	0.147090
N11	N1	0.287500	0.428400	0.841480
N21	N2	0.437000	0.014200	0.915210
N31	N3	0.432740	0.432300	0.030490
N41	N4	0.363300	0.680700	0.906410
N51	N5	0.395480	0.684000	0.954360
N61	N6	0.360010	0.538200	0.935970
N71	N7	0.387650	0.386000	0.092420
N81	N8	0.239500	0.569400	0.272620
N91	N9	0.034590	0.387600	0.110370
N101	N10	0.265180	0.455000	0.170760
N111	N11	0.178290	0.458700	0.175380
N121	N12	0.214930	0.420700	0.130030
Zn41	Zn4	0.049310	0.638890	0.568580
Zn51	Zn5	0.247460	0.649230	0.309850
Zn61	Zn6	0.032810	0.849890	0.407290
I71	I7	0.982460	0.543180	0.594570
I81	I8	0.045320	0.821220	0.557600
I91	I9	0.338710	0.661670	0.322070
I101	I10	0.196060	0.804120	0.302550
I111	I11	0.079620	0.771120	0.365890
I121	I12	0.020240	0.767250	0.456240
C371	C37	0.192200	0.617100	0.364080
H251	H25	0.192000	0.686500	0.364300
C381	C38	0.171700	0.567700	0.386990
H261	H26	0.157700	0.602700	0.402800
C391	C39	0.212300	0.474100	0.341690
H271	H27	0.226900	0.440800	0.325800
C401	C40	0.192200	0.419700	0.363670
H281	H28	0.192600	0.350300	0.362900
C411	C41	0.171400	0.467800	0.386930
C421	C42	0.148700	0.412600	0.411340
C431	C43	0.071200	0.046000	0.393050
H291	H29	0.064300	0.023500	0.373900
C441	C44	0.089000	0.138800	0.396420
H301	H30	0.094900	0.179100	0.380000
C451	C45	0.073300	0.017600	0.441430
H311	H31	0.068800	0.974500	0.457400
C461	C46	0.090400	0.109900	0.446900
H321	H32	0.096600	0.130100	0.466300
C471	C47	0.098500	0.173000	0.424240
C481	C48	0.114700	0.275100	0.428720
C491	C49	0.054000	0.474200	0.525990
H331	H33	0.032900	0.443800	0.539800
C501	C50	0.069300	0.421100	0.502770
H341	H34	0.058900	0.355300	0.500400
C511	C51	0.096300	0.610500	0.510920
H351	H35	0.105400	0.677000	0.513500
C521	C52	0.113800	0.559900	0.486720
H361	H36	0.134900	0.591500	0.473200
C531	C53	0.100400	0.464300	0.482410
C541	C54	0.116800	0.409900	0.456300
C551	C55	0.157100	0.625700	0.580960
H371	H37	0.159600	0.645200	0.561200
C561	C56	0.199900	0.610800	0.596330
H381	H38	0.231100	0.619300	0.587300
C571	C57	0.109500	0.587700	0.620510
H391	H39	0.077800	0.579600	0.629000
C581	C58	0.150400	0.572000	0.637410
H401	H40	0.147000	0.553700	0.657200
C591	C59	0.196600	0.583300	0.625310
C601	C60	0.241500	0.568400	0.642780
C611	C61	0.221300	0.460900	0.757390
H411	H41	0.189700	0.458000	0.766200
C621	C62	0.225200	0.496000	0.729420
H421	H42	0.196500	0.516300	0.719200
C631	C63	0.304300	0.439000	0.760400
H431	H43	0.332400	0.419800	0.771300
C641	C64	0.311600	0.474100	0.732560
H441	H44	0.343800	0.479500	0.724700
C651	C65	0.270900	0.501400	0.716400
C661	C66	0.276300	0.531400	0.685690
C671	C67	0.459900	0.598700	0.638950
H451	H45	0.488200	0.601600	0.651100
C681	C68	0.414600	0.580600	0.651550
H461	H46	0.412100	0.568900	0.671900
C691	C69	0.425500	0.608000	0.593720
H471	H47	0.429200	0.616200	0.573300
C701	C70	0.379100	0.592100	0.604620
H481	H48	0.351400	0.589800	0.592000
C711	C71	0.373100	0.579600	0.634300
C721	C72	0.323800	0.566300	0.647090
N131	N13	0.212500	0.571600	0.341480
N141	N14	0.063000	0.985800	0.415210
N151	N15	0.067260	0.567700	0.530490
N161	N16	0.136700	0.319300	0.406410
N171	N17	0.104520	0.316000	0.454360
N181	N18	0.139990	0.461800	0.435970
N191	N19	0.112350	0.614000	0.592420
N201	N20	0.260500	0.430600	0.772620
N211	N21	0.465410	0.612400	0.610370
N221	N22	0.234820	0.545000	0.670760
N231	N23	0.321710	0.541300	0.675380
N241	N24	0.285070	0.579300	0.630030
Zn71	Zn7	0.549310	0.861110	0.431410
Zn81	Zn8	0.747460	0.850770	0.690150
Zn91	Zn9	0.532810	0.650110	0.592710
I131	I13	0.482460	0.956820	0.405420
I141	I14	0.545320	0.678780	0.442400
I151	I15	0.838710	0.838330	0.677930
I161	I16	0.696060	0.695880	0.697450
I171	I17	0.579620	0.728880	0.634110
I181	I18	0.520240	0.732750	0.543760
C731	C73	0.692200	0.882900	0.635920
H491	H49	0.692000	0.813500	0.635700
C741	C74	0.671700	0.932300	0.613010
H501	H50	0.657700	0.897300	0.597200
C751	C75	0.712300	0.025900	0.658310
H511	H51	0.726900	0.059200	0.674200
C761	C76	0.692200	0.080300	0.636330
H521	H52	0.692600	0.149700	0.637100
C771	C77	0.671400	0.032200	0.613070
C781	C78	0.648700	0.087400	0.588660
C791	C79	0.571200	0.454000	0.606950
H531	H53	0.564300	0.476500	0.626100
C801	C80	0.589000	0.361200	0.603580
H541	H54	0.594900	0.320900	0.620000
C811	C81	0.573300	0.482400	0.558570
H551	H55	0.568800	0.525500	0.542600
C821	C82	0.590400	0.390100	0.553100
H561	H56	0.596600	0.369900	0.533700
C831	C83	0.598500	0.327000	0.575760
C841	C84	0.614700	0.224900	0.571280
C851	C85	0.554000	0.025800	0.474010
H571	H57	0.532900	0.056200	0.460200
C861	C86	0.569300	0.078900	0.497230
H581	H58	0.558900	0.144700	0.499600
C871	C87	0.596300	0.889500	0.489080
H591	H59	0.605400	0.823000	0.486500
C881	C88	0.613800	0.940100	0.513280
H601	H60	0.634900	0.908500	0.526800
C891	C89	0.600400	0.035700	0.517590
C901	C90	0.616800	0.090100	0.543700
C911	C91	0.657100	0.874300	0.419040
H611	H61	0.659600	0.854800	0.438800
C921	C92	0.699900	0.889200	0.403670
H621	H62	0.731100	0.880700	0.412700
C931	C93	0.609500	0.912300	0.379490
H631	H63	0.577800	0.920400	0.371000
C941	C94	0.650400	0.928000	0.362590
H641	H64	0.647000	0.946300	0.342800
C951	C95	0.696600	0.916700	0.374690
C961	C96	0.741500	0.931600	0.357220
C971	C97	0.721300	0.039100	0.242610
H651	H65	0.689700	0.042000	0.233800
C981	C98	0.725200	0.004000	0.270580
H661	H66	0.696500	0.983700	0.280800
C991	C99	0.804300	0.061000	0.239600
H671	H67	0.832400	0.080200	0.228700
C1001	C100	0.811600	0.025900	0.267440
H681	H68	0.843800	0.020500	0.275300
C1011	C101	0.770900	0.998600	0.283600
C1021	C102	0.776300	0.968600	0.314310
C1031	C103	0.959900	0.901300	0.361050
H691	H69	0.988200	0.898400	0.348900
C1041	C104	0.914600	0.919400	0.348450
H701	H70	0.912100	0.931100	0.328100
C1051	C105	0.925500	0.892000	0.406280
H711	H71	0.929200	0.883800	0.426700
C1061	C106	0.879100	0.907900	0.395380
H721	H72	0.851400	0.910200	0.408000
C1071	C107	0.873100	0.920400	0.365700
C1081	C108	0.823800	0.933700	0.352910
N251	N25	0.712500	0.928400	0.658520
N261	N26	0.563000	0.514200	0.584790
N271	N27	0.567260	0.932300	0.469510
N281	N28	0.636700	0.180700	0.593590
N291	N29	0.604520	0.184000	0.545640
N301	N30	0.639990	0.038200	0.564030
N311	N31	0.612350	0.886000	0.407580
N321	N32	0.760500	0.069400	0.227380
N331	N33	0.965410	0.887600	0.389630
N341	N34	0.734820	0.955000	0.329240
N351	N35	0.821710	0.958700	0.324620
N361	N36	0.785070	0.920700	0.369970
Zn101	Zn10	0.950690	0.138890	0.931410
Zn111	Zn11	0.752540	0.149230	0.190150
Zn121	Zn12	0.967190	0.349890	0.092710
I191	I19	0.017540	0.043180	0.905420
I201	I20	0.954680	0.321220	0.942400
I211	I21	0.661290	0.161670	0.177930
I221	I22	0.803940	0.304120	0.197450
I231	I23	0.920380	0.271120	0.134110
I241	I24	0.979760	0.267250	0.043760
C1091	C109	0.807800	0.117100	0.135920
H731	H73	0.808000	0.186500	0.135700
C1101	C110	0.828300	0.067700	0.113010
H741	H74	0.842300	0.102700	0.097200
C1111	C111	0.787700	0.974100	0.158310
H751	H75	0.773100	0.940800	0.174200
C1121	C112	0.807800	0.919700	0.136330
H761	H76	0.807400	0.850300	0.137100
C1131	C113	0.828600	0.967800	0.113070
C1141	C114	0.851300	0.912600	0.088660
C1151	C115	0.928800	0.546000	0.106950
H771	H77	0.935700	0.523500	0.126100
C1161	C116	0.911000	0.638800	0.103580
H781	H78	0.905100	0.679100	0.120000
C1171	C117	0.926700	0.517600	0.058570
H791	H79	0.931200	0.474500	0.042600
C1181	C118	0.909600	0.609900	0.053100
H801	H80	0.903400	0.630100	0.033700
C1191	C119	0.901500	0.673000	0.075760
C1201	C120	0.885300	0.775100	0.071280
C1211	C121	0.946000	0.974200	0.974010
H811	H81	0.967100	0.943800	0.960200
C1221	C122	0.930700	0.921100	0.997230
H821	H82	0.941100	0.855300	0.999600
C1231	C123	0.903700	0.110500	0.989080
H831	H83	0.894600	0.177000	0.986500
C1241	C124	0.886200	0.059900	0.013280
H841	H84	0.865100	0.091500	0.026800
C1251	C125	0.899600	0.964300	0.017590
C1261	C126	0.883200	0.909900	0.043700
C1271	C127	0.842900	0.125700	0.919040
H851	H85	0.840400	0.145200	0.938800
C1281	C128	0.800100	0.110800	0.903670
H861	H86	0.768900	0.119300	0.912700
C1291	C129	0.890500	0.087700	0.879490
H871	H87	0.922200	0.079600	0.871000
C1301	C130	0.849600	0.072000	0.862590
H881	H88	0.853000	0.053700	0.842800
C1311	C131	0.803400	0.083300	0.874690
C1321	C132	0.758500	0.068400	0.857220
C1331	C133	0.778700	0.960900	0.742610
H891	H89	0.810300	0.958000	0.733800
C1341	C134	0.774800	0.996000	0.770580
H901	H90	0.803500	0.016300	0.780800
C1351	C135	0.695700	0.939000	0.739600
H911	H91	0.667600	0.919800	0.728700
C1361	C136	0.688400	0.974100	0.767440
H921	H92	0.656200	0.979500	0.775300
C1371	C137	0.729100	0.001400	0.783600
C1381	C138	0.723700	0.031400	0.814310
C1391	C139	0.540100	0.098700	0.861050
H931	H93	0.511800	0.101600	0.848900
C1401	C140	0.585400	0.080600	0.848450
H941	H94	0.587900	0.068900	0.828100
C1411	C141	0.574500	0.108000	0.906280
H951	H95	0.570800	0.116200	0.926700
C1421	C142	0.620900	0.092100	0.895380
H961	H96	0.648600	0.089800	0.908000
C1431	C143	0.626900	0.079600	0.865700
C1441	C144	0.676200	0.066300	0.852910
N371	N37	0.787500	0.071600	0.158520
N381	N38	0.937000	0.485800	0.084790
N391	N39	0.932740	0.067700	0.969510
N401	N40	0.863300	0.819300	0.093590
N411	N41	0.895480	0.816000	0.045640
N421	N42	0.860010	0.961800	0.064030
N431	N43	0.887650	0.114000	0.907580
N441	N44	0.739500	0.930600	0.727380
N451	N45	0.534590	0.112400	0.889630
N461	N46	0.765180	0.045000	0.829240
N471	N47	0.678290	0.041300	0.824620
N481	N48	0.714930	0.079300	0.869970
Zn131	Zn13	0.549310	0.638890	0.931410
Zn141	Zn14	0.747460	0.649230	0.190150
Zn151	Zn15	0.532810	0.849890	0.092710
I251	I25	0.482460	0.543180	0.905420
I261	I26	0.545320	0.821220	0.942400
I271	I27	0.838710	0.661670	0.177930
I281	I28	0.696060	0.804120	0.197450
I291	I29	0.579620	0.771120	0.134110
I301	I30	0.520240	0.767250	0.043760
C1451	C145	0.692200	0.617100	0.135920
H971	H97	0.692000	0.686500	0.135700
C1461	C146	0.671700	0.567700	0.113010
H981	H98	0.657700	0.602700	0.097200
C1471	C147	0.712300	0.474100	0.158310
H991	H99	0.726900	0.440800	0.174200
C1481	C148	0.692200	0.419700	0.136330
H1001	H100	0.692600	0.350300	0.137100
C1491	C149	0.671400	0.467800	0.113070
C1501	C150	0.648700	0.412600	0.088660
C1511	C151	0.571200	0.046000	0.106950
H1011	H101	0.564300	0.023500	0.126100
C1521	C152	0.589000	0.138800	0.103580
H1021	H102	0.594900	0.179100	0.120000
C1531	C153	0.573300	0.017600	0.058570
H1031	H103	0.568800	0.974500	0.042600
C1541	C154	0.590400	0.109900	0.053100
H1041	H104	0.596600	0.130100	0.033700
C1551	C155	0.598500	0.173000	0.075760
C1561	C156	0.614700	0.275100	0.071280
C1571	C157	0.554000	0.474200	0.974010
H1051	H105	0.532900	0.443800	0.960200
C1581	C158	0.569300	0.421100	0.997230
H1061	H106	0.558900	0.355300	0.999600
C1591	C159	0.596300	0.610500	0.989080
H1071	H107	0.605400	0.677000	0.986500
C1601	C160	0.613800	0.559900	0.013280
H1081	H108	0.634900	0.591500	0.026800
C1611	C161	0.600400	0.464300	0.017590
C1621	C162	0.616800	0.409900	0.043700
C1631	C163	0.657100	0.625700	0.919040
H1091	H109	0.659600	0.645200	0.938800
C1641	C164	0.699900	0.610800	0.903670
H1101	H110	0.731100	0.619300	0.912700
C1651	C165	0.609500	0.587700	0.879490
H1111	H111	0.577800	0.579600	0.871000
C1661	C166	0.650400	0.572000	0.862590
H1121	H112	0.647000	0.553700	0.842800
C1671	C167	0.696600	0.583300	0.874690
C1681	C168	0.741500	0.568400	0.857220
C1691	C169	0.721300	0.460900	0.742610
H1131	H113	0.689700	0.458000	0.733800
C1701	C170	0.725200	0.496000	0.770580
H1141	H114	0.696500	0.516300	0.780800
C1711	C171	0.804300	0.439000	0.739600
H1151	H115	0.832400	0.419800	0.728700
C1721	C172	0.811600	0.474100	0.767440
H1161	H116	0.843800	0.479500	0.775300
C1731	C173	0.770900	0.501400	0.783600
C1741	C174	0.776300	0.531400	0.814310
C1751	C175	0.959900	0.598700	0.861050
H1171	H117	0.988200	0.601600	0.848900
C1761	C176	0.914600	0.580600	0.848450
H1181	H118	0.912100	0.568900	0.828100
C1771	C177	0.925500	0.608000	0.906280
H1191	H119	0.929200	0.616200	0.926700
C1781	C178	0.879100	0.592100	0.895380
H1201	H120	0.851400	0.589800	0.908000
C1791	C179	0.873100	0.579600	0.865700
C1801	C180	0.823800	0.566300	0.852910
N491	N49	0.712500	0.571600	0.158520
N501	N50	0.563000	0.985800	0.084790
N511	N51	0.567260	0.567700	0.969510
N521	N52	0.636700	0.319300	0.093590
N531	N53	0.604520	0.316000	0.045640
N541	N54	0.639990	0.461800	0.064030
N551	N55	0.612350	0.614000	0.907580
N561	N56	0.760500	0.430600	0.727380
N571	N57	0.965410	0.612400	0.889630
N581	N58	0.734820	0.545000	0.829240
N591	N59	0.821710	0.541300	0.824620
N601	N60	0.785070	0.579300	0.869970
Zn161	Zn16	0.950690	0.361110	0.431410
Zn171	Zn17	0.752540	0.350770	0.690150
Zn181	Zn18	0.967190	0.150110	0.592710
I311	I31	0.017540	0.456820	0.405420
I321	I32	0.954680	0.178780	0.442400
I331	I33	0.661290	0.338330	0.677930
I341	I34	0.803940	0.195880	0.697450
I351	I35	0.920380	0.228880	0.634110
I361	I36	0.979760	0.232750	0.543760
C1811	C181	0.807800	0.382900	0.635920
H1211	H121	0.808000	0.313500	0.635700
C1821	C182	0.828300	0.432300	0.613010
H1221	H122	0.842300	0.397300	0.597200
C1831	C183	0.787700	0.525900	0.658310
H1231	H123	0.773100	0.559200	0.674200
C1841	C184	0.807800	0.580300	0.636330
H1241	H124	0.807400	0.649700	0.637100
C1851	C185	0.828600	0.532200	0.613070
C1861	C186	0.851300	0.587400	0.588660
C1871	C187	0.928800	0.954000	0.606950
H1251	H125	0.935700	0.976500	0.626100
C1881	C188	0.911000	0.861200	0.603580
H1261	H126	0.905100	0.820900	0.620000
C1891	C189	0.926700	0.982400	0.558570
H1271	H127	0.931200	0.025500	0.542600
C1901	C190	0.909600	0.890100	0.553100
H1281	H128	0.903400	0.869900	0.533700
C1911	C191	0.901500	0.827000	0.575760
C1921	C192	0.885300	0.724900	0.571280
C1931	C193	0.946000	0.525800	0.474010
H1291	H129	0.967100	0.556200	0.460200
C1941	C194	0.930700	0.578900	0.497230
H1301	H130	0.941100	0.644700	0.499600
C1951	C195	0.903700	0.389500	0.489080
H1311	H131	0.894600	0.323000	0.486500
C1961	C196	0.886200	0.440100	0.513280
H1321	H132	0.865100	0.408500	0.526800
C1971	C197	0.899600	0.535700	0.517590
C1981	C198	0.883200	0.590100	0.543700
C1991	C199	0.842900	0.374300	0.419040
H1331	H133	0.840400	0.354800	0.438800
C2001	C200	0.800100	0.389200	0.403670
H1341	H134	0.768900	0.380700	0.412700
C2011	C201	0.890500	0.412300	0.379490
H1351	H135	0.922200	0.420400	0.371000
C2021	C202	0.849600	0.428000	0.362590
H1361	H136	0.853000	0.446300	0.342800
C2031	C203	0.803400	0.416700	0.374690
C2041	C204	0.758500	0.431600	0.357220
C2051	C205	0.778700	0.539100	0.242610
H1371	H137	0.810300	0.542000	0.233800
C2061	C206	0.774800	0.504000	0.270580
H1381	H138	0.803500	0.483700	0.280800
C2071	C207	0.695700	0.561000	0.239600
H1391	H139	0.667600	0.580200	0.228700
C2081	C208	0.688400	0.525900	0.267440
H1401	H140	0.656200	0.520500	0.275300
C2091	C209	0.729100	0.498600	0.283600
C2101	C210	0.723700	0.468600	0.314310
C2111	C211	0.540100	0.401300	0.361050
H1411	H141	0.511800	0.398400	0.348900
C2121	C212	0.585400	0.419400	0.348450
H1421	H142	0.587900	0.431100	0.328100
C2131	C213	0.574500	0.392000	0.406280
H1431	H143	0.570800	0.383800	0.426700
C2141	C214	0.620900	0.407900	0.395380
H1441	H144	0.648600	0.410200	0.408000
C2151	C215	0.626900	0.420400	0.365700
C2161	C216	0.676200	0.433700	0.352910
N611	N61	0.787500	0.428400	0.658520
N621	N62	0.937000	0.014200	0.584790
N631	N63	0.932740	0.432300	0.469510
N641	N64	0.863300	0.680700	0.593590
N651	N65	0.895480	0.684000	0.545640
N661	N66	0.860010	0.538200	0.564030
N671	N67	0.887650	0.386000	0.407580
N681	N68	0.739500	0.569400	0.227380
N691	N69	0.534590	0.387600	0.389630
N701	N70	0.765180	0.455000	0.329240
N711	N71	0.678290	0.458700	0.324620
N721	N72	0.714930	0.420700	0.369970
Zn191	Zn19	0.450690	0.138890	0.568580
Zn201	Zn20	0.252540	0.149230	0.309850
Zn211	Zn21	0.467190	0.349890	0.407290
I371	I37	0.517540	0.043180	0.594570
I381	I38	0.454680	0.321220	0.557600
I391	I39	0.161290	0.161670	0.322070
I401	I40	0.303940	0.304120	0.302550
I411	I41	0.420380	0.271120	0.365890
I421	I42	0.479760	0.267250	0.456240
C2171	C217	0.307800	0.117100	0.364080
H1451	H145	0.308000	0.186500	0.364300
C2181	C218	0.328300	0.067700	0.386990
H1461	H146	0.342300	0.102700	0.402800
C2191	C219	0.287700	0.974100	0.341690
H1471	H147	0.273100	0.940800	0.325800
C2201	C220	0.307800	0.919700	0.363670
H1481	H148	0.307400	0.850300	0.362900
C2211	C221	0.328600	0.967800	0.386930
C2221	C222	0.351300	0.912600	0.411340
C2231	C223	0.428800	0.546000	0.393050
H1491	H149	0.435700	0.523500	0.373900
C2241	C224	0.411000	0.638800	0.396420
H1501	H150	0.405100	0.679100	0.380000
C2251	C225	0.426700	0.517600	0.441430
H1511	H151	0.431200	0.474500	0.457400
C2261	C226	0.409600	0.609900	0.446900
H1521	H152	0.403400	0.630100	0.466300
C2271	C227	0.401500	0.673000	0.424240
C2281	C228	0.385300	0.775100	0.428720
C2291	C229	0.446000	0.974200	0.525990
H1531	H153	0.467100	0.943800	0.539800
C2301	C230	0.430700	0.921100	0.502770
H1541	H154	0.441100	0.855300	0.500400
C2311	C231	0.403700	0.110500	0.510920
H1551	H155	0.394600	0.177000	0.513500
C2321	C232	0.386200	0.059900	0.486720
H1561	H156	0.365100	0.091500	0.473200
C2331	C233	0.399600	0.964300	0.482410
C2341	C234	0.383200	0.909900	0.456300
C2351	C235	0.342900	0.125700	0.580960
H1571	H157	0.340400	0.145200	0.561200
C2361	C236	0.300100	0.110800	0.596330
H1581	H158	0.268900	0.119300	0.587300
C2371	C237	0.390500	0.087700	0.620510
H1591	H159	0.422200	0.079600	0.629000
C2381	C238	0.349600	0.072000	0.637410
H1601	H160	0.353000	0.053700	0.657200
C2391	C239	0.303400	0.083300	0.625310
C2401	C240	0.258500	0.068400	0.642780
C2411	C241	0.278700	0.960900	0.757390
H1611	H161	0.310300	0.958000	0.766200
C2421	C242	0.274800	0.996000	0.729420
H1621	H162	0.303500	0.016300	0.719200
C2431	C243	0.195700	0.939000	0.760400
H1631	H163	0.167600	0.919800	0.771300
C2441	C244	0.188400	0.974100	0.732560
H1641	H164	0.156200	0.979500	0.724700
C2451	C245	0.229100	0.001400	0.716400
C2461	C246	0.223700	0.031400	0.685690
C2471	C247	0.040100	0.098700	0.638950
H1651	H165	0.011800	0.101600	0.651100
C2481	C248	0.085400	0.080600	0.651550
H1661	H166	0.087900	0.068900	0.671900
C2491	C249	0.074500	0.108000	0.593720
H1671	H167	0.070800	0.116200	0.573300
C2501	C250	0.120900	0.092100	0.604620
H1681	H168	0.148600	0.089800	0.592000
C2511	C251	0.126900	0.079600	0.634300
C2521	C252	0.176200	0.066300	0.647090
N731	N73	0.287500	0.071600	0.341480
N741	N74	0.437000	0.485800	0.415210
N751	N75	0.432740	0.067700	0.530490
N761	N76	0.363300	0.819300	0.406410
N771	N77	0.395480	0.816000	0.454360
N781	N78	0.360010	0.961800	0.435970
N791	N79	0.387650	0.114000	0.592420
N801	N80	0.239500	0.930600	0.772620
N811	N81	0.034590	0.112400	0.610370
N821	N82	0.265180	0.045000	0.670760
N831	N83	0.178290	0.041300	0.675380
N841	N84	0.214930	0.079300	0.630030
Zn221	Zn22	0.049310	0.861110	0.068580
Zn231	Zn23	0.247460	0.850770	0.809850
Zn241	Zn24	0.032810	0.650110	0.907290
I431	I43	0.982460	0.956820	0.094570
I441	I44	0.045320	0.678780	0.057600
I451	I45	0.338710	0.838330	0.822070
I461	I46	0.196060	0.695880	0.802550
I471	I47	0.079620	0.728880	0.865890
I481	I48	0.020240	0.732750	0.956240
C2531	C253	0.192200	0.882900	0.864080
H1691	H169	0.192000	0.813500	0.864300
C2541	C254	0.171700	0.932300	0.886990
H1701	H170	0.157700	0.897300	0.902800
C2551	C255	0.212300	0.025900	0.841690
H1711	H171	0.226900	0.059200	0.825800
C2561	C256	0.192200	0.080300	0.863670
H1721	H172	0.192600	0.149700	0.862900
C2571	C257	0.171400	0.032200	0.886930
C2581	C258	0.148700	0.087400	0.911340
C2591	C259	0.071200	0.454000	0.893050
H1731	H173	0.064300	0.476500	0.873900
C2601	C260	0.089000	0.361200	0.896420
H1741	H174	0.094900	0.320900	0.880000
C2611	C261	0.073300	0.482400	0.941430
H1751	H175	0.068800	0.525500	0.957400
C2621	C262	0.090400	0.390100	0.946900
H1761	H176	0.096600	0.369900	0.966300
C2631	C263	0.098500	0.327000	0.924240
C2641	C264	0.114700	0.224900	0.928720
C2651	C265	0.054000	0.025800	0.025990
H1771	H177	0.032900	0.056200	0.039800
C2661	C266	0.069300	0.078900	0.002770
H1781	H178	0.058900	0.144700	0.000400
C2671	C267	0.096300	0.889500	0.010920
H1791	H179	0.105400	0.823000	0.013500
C2681	C268	0.113800	0.940100	0.986720
H1801	H180	0.134900	0.908500	0.973200
C2691	C269	0.100400	0.035700	0.982410
C2701	C270	0.116800	0.090100	0.956300
C2711	C271	0.157100	0.874300	0.080960
H1811	H181	0.159600	0.854800	0.061200
C2721	C272	0.199900	0.889200	0.096330
H1821	H182	0.231100	0.880700	0.087300
C2731	C273	0.109500	0.912300	0.120510
H1831	H183	0.077800	0.920400	0.129000
C2741	C274	0.150400	0.928000	0.137410
H1841	H184	0.147000	0.946300	0.157200
C2751	C275	0.196600	0.916700	0.125310
C2761	C276	0.241500	0.931600	0.142780
C2771	C277	0.221300	0.039100	0.257390
H1851	H185	0.189700	0.042000	0.266200
C2781	C278	0.225200	0.004000	0.229420
H1861	H186	0.196500	0.983700	0.219200
C2791	C279	0.304300	0.061000	0.260400
H1871	H187	0.332400	0.080200	0.271300
C2801	C280	0.311600	0.025900	0.232560
H1881	H188	0.343800	0.020500	0.224700
C2811	C281	0.270900	0.998600	0.216400
C2821	C282	0.276300	0.968600	0.185690
C2831	C283	0.459900	0.901300	0.138950
H1891	H189	0.488200	0.898400	0.151100
C2841	C284	0.414600	0.919400	0.151550
H1901	H190	0.412100	0.931100	0.171900
C2851	C285	0.425500	0.892000	0.093720
H1911	H191	0.429200	0.883800	0.073300
C2861	C286	0.379100	0.907900	0.104620
H1921	H192	0.351400	0.910200	0.092000
C2871	C287	0.373100	0.920400	0.134300
C2881	C288	0.323800	0.933700	0.147090
N851	N85	0.212500	0.928400	0.841480
N861	N86	0.063000	0.514200	0.915210
N871	N87	0.067260	0.932300	0.030490
N881	N88	0.136700	0.180700	0.906410
N891	N89	0.104520	0.184000	0.954360
N901	N90	0.139990	0.038200	0.935970
N911	N91	0.112350	0.886000	0.092420
N921	N92	0.260500	0.069400	0.272620
N931	N93	0.465410	0.887600	0.110370
N941	N94	0.234820	0.955000	0.170760
N951	N95	0.321710	0.958700	0.175380
N961	N96	0.285070	0.920700	0.130030
