data_CIWSAD_freeONLY_PM
_symmetry_space_group_name_H-M	'P1'
_cell_length_a	13.673000
_cell_length_b	27.590000
_cell_length_c	45.606000
_cell_angle_alpha	90.000000
_cell_angle_beta	90.000000
_cell_angle_gamma	90.000000
_symmetry_Int_Tables_number 1

loop_
_symmetry_equiv_pos_as_xyz
'x,y,z'

loop_
_atom_site_label
_atom_site_type_symbol
_atom_site_fract_x
_atom_site_fract_y
_atom_site_fract_z
Zn11	Zn1	0.348960	0.256090	0.687560
Zn21	Zn2	0.342460	0.443400	0.426500
Zn31	Zn3	0.146970	0.469530	0.586120
Zn41	Zn4	0.651040	0.243910	0.187560
Zn51	Zn5	0.657540	0.056600	0.926500
Zn61	Zn6	0.853030	0.030470	0.086120
Zn71	Zn7	0.848960	0.743910	0.812440
Zn81	Zn8	0.842460	0.556600	0.073500
Zn91	Zn9	0.646970	0.530470	0.913880
Zn101	Zn10	0.151040	0.756090	0.312440
Zn111	Zn11	0.157540	0.943400	0.573500
Zn121	Zn12	0.353030	0.969530	0.413880
H11	H1	0.307500	0.398500	0.485500
H21	H2	0.393100	0.375700	0.527300
H31	H3	0.540600	0.461500	0.452700
H41	H4	0.631800	0.441200	0.493800
H51	H5	0.998700	0.461600	0.537400
H61	H6	0.840400	0.434300	0.529600
H71	H7	0.995800	0.412000	0.618300
H81	H8	0.838400	0.382500	0.612500
H91	H9	0.558100	0.289900	0.675800
H101	H10	0.645700	0.326800	0.638300
H111	H11	0.313500	0.302700	0.631400
H121	H12	0.395200	0.338600	0.592400
H131	H13	0.396500	0.337700	0.728400
H141	H14	0.460300	0.350000	0.774900
H151	H15	0.467400	0.199600	0.730800
H161	H16	0.525900	0.207500	0.778200
H171	H17	0.584600	0.086500	0.866600
H181	H18	0.556800	0.155700	0.839400
H191	H19	0.649600	0.164400	0.936300
H201	H20	0.620100	0.235600	0.911200
H211	H21	0.614300	0.426600	0.929500
H221	H22	0.589000	0.352200	0.907900
H231	H23	0.607000	0.491600	0.853100
H241	H24	0.580900	0.418500	0.829400
H251	H25	0.692500	0.101500	0.985500
H261	H26	0.606900	0.124300	0.027300
H271	H27	0.459400	0.038500	0.952700
H281	H28	0.368200	0.058800	0.993800
H291	H29	0.001300	0.038400	0.037400
H301	H30	0.159600	0.065700	0.029600
H311	H31	0.004200	0.088000	0.118300
H321	H32	0.161600	0.117500	0.112500
H331	H33	0.441900	0.210100	0.175800
H341	H34	0.354300	0.173200	0.138300
H351	H35	0.686500	0.197300	0.131400
H361	H36	0.604800	0.161400	0.092400
H371	H37	0.603500	0.162300	0.228400
H381	H38	0.539700	0.150000	0.274900
H391	H39	0.532600	0.300400	0.230800
H401	H40	0.474100	0.292500	0.278200
H411	H41	0.415400	0.413500	0.366600
H421	H42	0.443200	0.344300	0.339400
H431	H43	0.350400	0.335600	0.436300
H441	H44	0.379900	0.264400	0.411200
H451	H45	0.385700	0.073400	0.429500
H461	H46	0.411000	0.147800	0.407900
H471	H47	0.393000	0.008400	0.353100
H481	H48	0.419100	0.081500	0.329400
H491	H49	0.807500	0.601500	0.014500
H501	H50	0.893100	0.624300	0.972700
H511	H51	0.040600	0.538500	0.047300
H521	H52	0.131800	0.558800	0.006200
H531	H53	0.498700	0.538400	0.962600
H541	H54	0.340400	0.565700	0.970400
H551	H55	0.495800	0.588000	0.881700
H561	H56	0.338400	0.617500	0.887500
H571	H57	0.058100	0.710100	0.824200
H581	H58	0.145700	0.673200	0.861700
H591	H59	0.813500	0.697300	0.868600
H601	H60	0.895200	0.661400	0.907600
H611	H61	0.896500	0.662300	0.771600
H621	H62	0.960300	0.650000	0.725100
H631	H63	0.967400	0.800400	0.769200
H641	H64	0.025900	0.792500	0.721800
H651	H65	0.084600	0.913500	0.633400
H661	H66	0.056800	0.844300	0.660600
H671	H67	0.149600	0.835600	0.563700
H681	H68	0.120100	0.764400	0.588800
H691	H69	0.114300	0.573400	0.570500
H701	H70	0.089000	0.647800	0.592100
H711	H71	0.107000	0.508400	0.646900
H721	H72	0.080900	0.581500	0.670600
H731	H73	0.192500	0.898500	0.514500
H741	H74	0.106900	0.875700	0.472700
H751	H75	0.959400	0.961500	0.547300
H761	H76	0.868200	0.941200	0.506200
H771	H77	0.501300	0.961600	0.462600
H781	H78	0.659600	0.934300	0.470400
H791	H79	0.504200	0.912000	0.381700
H801	H80	0.661600	0.882500	0.387500
H811	H81	0.941900	0.789900	0.324200
H821	H82	0.854300	0.826800	0.361700
H831	H83	0.186500	0.802700	0.368600
H841	H84	0.104800	0.838600	0.407600
H851	H85	0.103500	0.837700	0.271600
H861	H86	0.039700	0.850000	0.225100
H871	H87	0.032600	0.699600	0.269200
H881	H88	0.974100	0.707500	0.221800
H891	H89	0.915400	0.586500	0.133400
H901	H90	0.943200	0.655700	0.160600
H911	H91	0.850400	0.664400	0.063700
H921	H92	0.879900	0.735600	0.088800
H931	H93	0.885700	0.926600	0.070500
H941	H94	0.911000	0.852200	0.092100
H951	H95	0.893000	0.991600	0.146900
H961	H96	0.919100	0.918500	0.170600
C11	C1	0.374700	0.406770	0.487140
C21	C2	0.425200	0.393090	0.512150
C31	C3	0.510500	0.443560	0.468060
C41	C4	0.565300	0.431450	0.492380
C51	C5	0.522800	0.405070	0.514630
C61	C6	0.579300	0.391100	0.541110
C71	C7	0.965100	0.445820	0.552940
C81	C8	0.871200	0.429420	0.548080
C91	C9	0.963500	0.416740	0.600120
C101	C10	0.869700	0.399040	0.596810
C111	C11	0.822400	0.405730	0.570520
C121	C12	0.718600	0.390560	0.566900
C131	C13	0.524600	0.299700	0.658530
C141	C14	0.577300	0.321640	0.636200
C151	C15	0.382400	0.307040	0.632610
C161	C16	0.430500	0.328720	0.609370
C171	C17	0.529800	0.335840	0.611040
C181	C18	0.582400	0.358390	0.586380
C191	C19	0.423600	0.310930	0.738720
C201	C20	0.460600	0.318510	0.766510
C211	C21	0.464000	0.230280	0.740170
C221	C22	0.499900	0.234870	0.768220
C231	C23	0.497900	0.279670	0.781830
C241	C24	0.530900	0.284220	0.812390
C251	C25	0.592800	0.117240	0.875640
C261	C26	0.575800	0.158250	0.859380
C271	C27	0.630200	0.162770	0.916310
C281	C28	0.613400	0.205270	0.901540
C291	C29	0.586500	0.203250	0.872240
C301	C30	0.570100	0.248250	0.855180
C311	C31	0.607900	0.424960	0.908750
C321	C32	0.592700	0.380460	0.896030
C331	C33	0.603500	0.462730	0.864440
C341	C34	0.587900	0.419230	0.850120
C351	C35	0.582600	0.377010	0.866060
C361	C36	0.569300	0.329530	0.851970
C371	C37	0.625300	0.093230	0.987140
C381	C38	0.574800	0.106910	0.012150
C391	C39	0.489500	0.056440	0.968060
C401	C40	0.434700	0.068550	0.992380
C411	C41	0.477200	0.094930	0.014630
C421	C42	0.420700	0.108900	0.041110
C431	C43	0.034900	0.054180	0.052940
C441	C44	0.128800	0.070580	0.048080
C451	C45	0.036500	0.083260	0.100120
C461	C46	0.130300	0.100960	0.096810
C471	C47	0.177600	0.094270	0.070520
C481	C48	0.281400	0.109440	0.066900
C491	C49	0.475400	0.200300	0.158530
C501	C50	0.422700	0.178360	0.136200
C511	C51	0.617600	0.192960	0.132610
C521	C52	0.569500	0.171280	0.109370
C531	C53	0.470200	0.164160	0.111040
C541	C54	0.417600	0.141610	0.086380
C551	C55	0.576400	0.189070	0.238720
C561	C56	0.539400	0.181490	0.266510
C571	C57	0.536000	0.269720	0.240170
C581	C58	0.500100	0.265130	0.268220
C591	C59	0.502100	0.220330	0.281830
C601	C60	0.469100	0.215780	0.312390
C611	C61	0.407200	0.382760	0.375640
C621	C62	0.424200	0.341750	0.359380
C631	C63	0.369800	0.337230	0.416310
C641	C64	0.386600	0.294730	0.401540
C651	C65	0.413500	0.296750	0.372240
C661	C66	0.429900	0.251750	0.355180
C671	C67	0.392100	0.075040	0.408750
C681	C68	0.407300	0.119540	0.396030
C691	C69	0.396500	0.037270	0.364440
C701	C70	0.412100	0.080770	0.350120
C711	C71	0.417400	0.122990	0.366060
C721	C72	0.430700	0.170470	0.351970
C731	C73	0.874700	0.593230	0.012860
C741	C74	0.925200	0.606910	0.987850
C751	C75	0.010500	0.556440	0.031940
C761	C76	0.065300	0.568550	0.007620
C771	C77	0.022800	0.594930	0.985370
C781	C78	0.079300	0.608900	0.958890
C791	C79	0.465100	0.554180	0.947060
C801	C80	0.371200	0.570580	0.951920
C811	C81	0.463500	0.583260	0.899880
C821	C82	0.369700	0.600960	0.903190
C831	C83	0.322400	0.594270	0.929480
C841	C84	0.218600	0.609440	0.933100
C851	C85	0.024600	0.700300	0.841470
C861	C86	0.077300	0.678360	0.863800
C871	C87	0.882400	0.692960	0.867390
C881	C88	0.930500	0.671280	0.890630
C891	C89	0.029800	0.664160	0.888960
C901	C90	0.082400	0.641610	0.913620
C911	C91	0.923600	0.689070	0.761280
C921	C92	0.960600	0.681490	0.733490
C931	C93	0.964000	0.769720	0.759830
C941	C94	0.999900	0.765130	0.731780
C951	C95	0.997900	0.720330	0.718170
C961	C96	0.030900	0.715780	0.687610
C971	C97	0.092800	0.882760	0.624360
C981	C98	0.075800	0.841750	0.640620
C991	C99	0.130200	0.837230	0.583690
C1001	C100	0.113400	0.794730	0.598460
C1011	C101	0.086500	0.796750	0.627760
C1021	C102	0.070100	0.751750	0.644820
C1031	C103	0.107900	0.575040	0.591250
C1041	C104	0.092700	0.619540	0.603970
C1051	C105	0.103500	0.537270	0.635560
C1061	C106	0.087900	0.580770	0.649880
C1071	C107	0.082600	0.622990	0.633940
C1081	C108	0.069300	0.670470	0.648030
C1091	C109	0.125300	0.906770	0.512860
C1101	C110	0.074800	0.893090	0.487850
C1111	C111	0.989500	0.943560	0.531940
C1121	C112	0.934700	0.931450	0.507620
C1131	C113	0.977200	0.905070	0.485370
C1141	C114	0.920700	0.891100	0.458890
C1151	C115	0.534900	0.945820	0.447060
C1161	C116	0.628800	0.929420	0.451920
C1171	C117	0.536500	0.916740	0.399880
C1181	C118	0.630300	0.899040	0.403190
C1191	C119	0.677600	0.905730	0.429480
C1201	C120	0.781400	0.890560	0.433100
C1211	C121	0.975400	0.799700	0.341470
C1221	C122	0.922700	0.821640	0.363800
C1231	C123	0.117600	0.807040	0.367390
C1241	C124	0.069500	0.828720	0.390630
C1251	C125	0.970200	0.835840	0.388960
C1261	C126	0.917600	0.858390	0.413620
C1271	C127	0.076400	0.810930	0.261280
C1281	C128	0.039400	0.818510	0.233490
C1291	C129	0.036000	0.730280	0.259830
C1301	C130	0.000100	0.734870	0.231780
C1311	C131	0.002100	0.779670	0.218170
C1321	C132	0.969100	0.784220	0.187610
C1331	C133	0.907200	0.617240	0.124360
C1341	C134	0.924200	0.658250	0.140620
C1351	C135	0.869800	0.662770	0.083690
C1361	C136	0.886600	0.705270	0.098460
C1371	C137	0.913500	0.703250	0.127760
C1381	C138	0.929900	0.748250	0.144820
C1391	C139	0.892100	0.924960	0.091250
C1401	C140	0.907300	0.880460	0.103970
C1411	C141	0.896500	0.962730	0.135560
C1421	C142	0.912100	0.919230	0.149880
C1431	C143	0.917400	0.877010	0.133940
C1441	C144	0.930700	0.829530	0.148030
I11	I1	0.185910	0.301150	0.690940
I21	I2	0.343970	0.165770	0.676540
I31	I3	0.425870	0.511930	0.399370
I41	I4	0.160640	0.436080	0.437440
I51	I5	0.221990	0.488480	0.536320
I61	I6	0.231690	0.418330	0.624390
I71	I7	0.814090	0.198850	0.190940
I81	I8	0.656030	0.334230	0.176540
I91	I9	0.574130	0.988070	0.899370
I101	I10	0.839360	0.063920	0.937440
I111	I11	0.778010	0.011520	0.036320
I121	I12	0.768310	0.081670	0.124390
I131	I13	0.685910	0.698850	0.809060
I141	I14	0.843970	0.834230	0.823460
I151	I15	0.925870	0.488070	0.100630
I161	I16	0.660640	0.563920	0.062560
I171	I17	0.721990	0.511520	0.963680
I181	I18	0.731690	0.581670	0.875610
I191	I19	0.314090	0.801150	0.309060
I201	I20	0.156030	0.665770	0.323460
I211	I21	0.074130	0.011930	0.600630
I221	I22	0.339360	0.936080	0.562560
I231	I23	0.278010	0.988480	0.463680
I241	I24	0.268310	0.918330	0.375610
N11	N1	0.416800	0.431010	0.465280
N21	N2	0.010800	0.440300	0.578720
N31	N3	0.428900	0.291970	0.656600
N41	N4	0.673400	0.402800	0.541980
N51	N5	0.677400	0.367790	0.589570
N61	N6	0.529700	0.368650	0.562380
N71	N7	0.424300	0.267630	0.725710
N81	N8	0.620500	0.119020	0.903760
N91	N9	0.614000	0.465800	0.893440
N101	N10	0.544400	0.242800	0.827160
N111	N11	0.583400	0.290440	0.868610
N121	N12	0.543400	0.328710	0.823620
N131	N13	0.583200	0.068990	0.965280
N141	N14	0.989200	0.059700	0.078720
N151	N15	0.571100	0.208030	0.156600
N161	N16	0.326600	0.097200	0.041980
N171	N17	0.322600	0.132210	0.089570
N181	N18	0.470300	0.131350	0.062380
N191	N19	0.575700	0.232370	0.225710
N201	N20	0.379500	0.380980	0.403760
N211	N21	0.386000	0.034200	0.393440
N221	N22	0.455600	0.257200	0.327160
N231	N23	0.416600	0.209560	0.368610
N241	N24	0.456600	0.171290	0.323620
N251	N25	0.916800	0.568990	0.034720
N261	N26	0.510800	0.559700	0.921280
N271	N27	0.928900	0.708030	0.843400
N281	N28	0.173400	0.597200	0.958020
N291	N29	0.177400	0.632210	0.910430
N301	N30	0.029700	0.631350	0.937620
N311	N31	0.924300	0.732370	0.774290
N321	N32	0.120500	0.880980	0.596240
N331	N33	0.114000	0.534200	0.606560
N341	N34	0.044400	0.757200	0.672840
N351	N35	0.083400	0.709560	0.631390
N361	N36	0.043400	0.671290	0.676380
N371	N37	0.083200	0.931010	0.534720
N381	N38	0.489200	0.940300	0.421280
N391	N39	0.071100	0.791970	0.343400
N401	N40	0.826600	0.902800	0.458020
N411	N41	0.822600	0.867790	0.410430
N421	N42	0.970300	0.868650	0.437620
N431	N43	0.075700	0.767630	0.274290
N441	N44	0.879500	0.619020	0.096240
N451	N45	0.886000	0.965800	0.106560
N461	N46	0.955600	0.742800	0.172840
N471	N47	0.916600	0.790440	0.131390
N481	N48	0.956600	0.828710	0.176380
Zn131	Zn13	0.651040	0.743910	0.312440
Zn141	Zn14	0.657540	0.556600	0.573500
Zn151	Zn15	0.853030	0.530470	0.413880
Zn161	Zn16	0.348960	0.756090	0.812440
Zn171	Zn17	0.342460	0.943400	0.073500
Zn181	Zn18	0.146970	0.969530	0.913880
Zn191	Zn19	0.151040	0.256090	0.187560
Zn201	Zn20	0.157540	0.443400	0.926500
Zn211	Zn21	0.353030	0.469530	0.086120
Zn221	Zn22	0.848960	0.243910	0.687560
Zn231	Zn23	0.842460	0.056600	0.426500
Zn241	Zn24	0.646970	0.030470	0.586120
H971	H97	0.692500	0.601500	0.514500
H981	H98	0.606900	0.624300	0.472700
H991	H99	0.459400	0.538500	0.547300
H1001	H100	0.368200	0.558800	0.506200
H1011	H101	0.001300	0.538400	0.462600
H1021	H102	0.159600	0.565700	0.470400
H1031	H103	0.004200	0.588000	0.381700
H1041	H104	0.161600	0.617500	0.387500
H1051	H105	0.441900	0.710100	0.324200
H1061	H106	0.354300	0.673200	0.361700
H1071	H107	0.686500	0.697300	0.368600
H1081	H108	0.604800	0.661400	0.407600
H1091	H109	0.603500	0.662300	0.271600
H1101	H110	0.539700	0.650000	0.225100
H1111	H111	0.532600	0.800400	0.269200
H1121	H112	0.474100	0.792500	0.221800
H1131	H113	0.415400	0.913500	0.133400
H1141	H114	0.443200	0.844300	0.160600
H1151	H115	0.350400	0.835600	0.063700
H1161	H116	0.379900	0.764400	0.088800
H1171	H117	0.385700	0.573400	0.070500
H1181	H118	0.411000	0.647800	0.092100
H1191	H119	0.393000	0.508400	0.146900
H1201	H120	0.419100	0.581500	0.170600
H1211	H121	0.307500	0.898500	0.014500
H1221	H122	0.393100	0.875700	0.972700
H1231	H123	0.540600	0.961500	0.047300
H1241	H124	0.631800	0.941200	0.006200
H1251	H125	0.998700	0.961600	0.962600
H1261	H126	0.840400	0.934300	0.970400
H1271	H127	0.995800	0.912000	0.881700
H1281	H128	0.838400	0.882500	0.887500
H1291	H129	0.558100	0.789900	0.824200
H1301	H130	0.645700	0.826800	0.861700
H1311	H131	0.313500	0.802700	0.868600
H1321	H132	0.395200	0.838600	0.907600
H1331	H133	0.396500	0.837700	0.771600
H1341	H134	0.460300	0.850000	0.725100
H1351	H135	0.467400	0.699600	0.769200
H1361	H136	0.525900	0.707500	0.721800
H1371	H137	0.584600	0.586500	0.633400
H1381	H138	0.556800	0.655700	0.660600
H1391	H139	0.649600	0.664400	0.563700
H1401	H140	0.620100	0.735600	0.588800
H1411	H141	0.614300	0.926600	0.570500
H1421	H142	0.589000	0.852200	0.592100
H1431	H143	0.607000	0.991600	0.646900
H1441	H144	0.580900	0.918500	0.670600
H1451	H145	0.192500	0.398500	0.985500
H1461	H146	0.106900	0.375700	0.027300
H1471	H147	0.959400	0.461500	0.952700
H1481	H148	0.868200	0.441200	0.993800
H1491	H149	0.501300	0.461600	0.037400
H1501	H150	0.659600	0.434300	0.029600
H1511	H151	0.504200	0.412000	0.118300
H1521	H152	0.661600	0.382500	0.112500
H1531	H153	0.941900	0.289900	0.175800
H1541	H154	0.854300	0.326800	0.138300
H1551	H155	0.186500	0.302700	0.131400
H1561	H156	0.104800	0.338600	0.092400
H1571	H157	0.103500	0.337700	0.228400
H1581	H158	0.039700	0.350000	0.274900
H1591	H159	0.032600	0.199600	0.230800
H1601	H160	0.974100	0.207500	0.278200
H1611	H161	0.915400	0.086500	0.366600
H1621	H162	0.943200	0.155700	0.339400
H1631	H163	0.850400	0.164400	0.436300
H1641	H164	0.879900	0.235600	0.411200
H1651	H165	0.885700	0.426600	0.429500
H1661	H166	0.911000	0.352200	0.407900
H1671	H167	0.893000	0.491600	0.353100
H1681	H168	0.919100	0.418500	0.329400
H1691	H169	0.807500	0.101500	0.485500
H1701	H170	0.893100	0.124300	0.527300
H1711	H171	0.040600	0.038500	0.452700
H1721	H172	0.131800	0.058800	0.493800
H1731	H173	0.498700	0.038400	0.537400
H1741	H174	0.340400	0.065700	0.529600
H1751	H175	0.495800	0.088000	0.618300
H1761	H176	0.338400	0.117500	0.612500
H1771	H177	0.058100	0.210100	0.675800
H1781	H178	0.145700	0.173200	0.638300
H1791	H179	0.813500	0.197300	0.631400
H1801	H180	0.895200	0.161400	0.592400
H1811	H181	0.896500	0.162300	0.728400
H1821	H182	0.960300	0.150000	0.774900
H1831	H183	0.967400	0.300400	0.730800
H1841	H184	0.025900	0.292500	0.778200
H1851	H185	0.084600	0.413500	0.866600
H1861	H186	0.056800	0.344300	0.839400
H1871	H187	0.149600	0.335600	0.936300
H1881	H188	0.120100	0.264400	0.911200
H1891	H189	0.114300	0.073400	0.929500
H1901	H190	0.089000	0.147800	0.907900
H1911	H191	0.107000	0.008400	0.853100
H1921	H192	0.080900	0.081500	0.829400
C1451	C145	0.625300	0.593230	0.512860
C1461	C146	0.574800	0.606910	0.487850
C1471	C147	0.489500	0.556440	0.531940
C1481	C148	0.434700	0.568550	0.507620
C1491	C149	0.477200	0.594930	0.485370
C1501	C150	0.420700	0.608900	0.458890
C1511	C151	0.034900	0.554180	0.447060
C1521	C152	0.128800	0.570580	0.451920
C1531	C153	0.036500	0.583260	0.399880
C1541	C154	0.130300	0.600960	0.403190
C1551	C155	0.177600	0.594270	0.429480
C1561	C156	0.281400	0.609440	0.433100
C1571	C157	0.475400	0.700300	0.341470
C1581	C158	0.422700	0.678360	0.363800
C1591	C159	0.617600	0.692960	0.367390
C1601	C160	0.569500	0.671280	0.390630
C1611	C161	0.470200	0.664160	0.388960
C1621	C162	0.417600	0.641610	0.413620
C1631	C163	0.576400	0.689070	0.261280
C1641	C164	0.539400	0.681490	0.233490
C1651	C165	0.536000	0.769720	0.259830
C1661	C166	0.500100	0.765130	0.231780
C1671	C167	0.502100	0.720330	0.218170
C1681	C168	0.469100	0.715780	0.187610
C1691	C169	0.407200	0.882760	0.124360
C1701	C170	0.424200	0.841750	0.140620
C1711	C171	0.369800	0.837230	0.083690
C1721	C172	0.386600	0.794730	0.098460
C1731	C173	0.413500	0.796750	0.127760
C1741	C174	0.429900	0.751750	0.144820
C1751	C175	0.392100	0.575040	0.091250
C1761	C176	0.407300	0.619540	0.103970
C1771	C177	0.396500	0.537270	0.135560
C1781	C178	0.412100	0.580770	0.149880
C1791	C179	0.417400	0.622990	0.133940
C1801	C180	0.430700	0.670470	0.148030
C1811	C181	0.374700	0.906770	0.012860
C1821	C182	0.425200	0.893090	0.987850
C1831	C183	0.510500	0.943560	0.031940
C1841	C184	0.565300	0.931450	0.007620
C1851	C185	0.522800	0.905070	0.985370
C1861	C186	0.579300	0.891100	0.958890
C1871	C187	0.965100	0.945820	0.947060
C1881	C188	0.871200	0.929420	0.951920
C1891	C189	0.963500	0.916740	0.899880
C1901	C190	0.869700	0.899040	0.903190
C1911	C191	0.822400	0.905730	0.929480
C1921	C192	0.718600	0.890560	0.933100
C1931	C193	0.524600	0.799700	0.841470
C1941	C194	0.577300	0.821640	0.863800
C1951	C195	0.382400	0.807040	0.867390
C1961	C196	0.430500	0.828720	0.890630
C1971	C197	0.529800	0.835840	0.888960
C1981	C198	0.582400	0.858390	0.913620
C1991	C199	0.423600	0.810930	0.761280
C2001	C200	0.460600	0.818510	0.733490
C2011	C201	0.464000	0.730280	0.759830
C2021	C202	0.499900	0.734870	0.731780
C2031	C203	0.497900	0.779670	0.718170
C2041	C204	0.530900	0.784220	0.687610
C2051	C205	0.592800	0.617240	0.624360
C2061	C206	0.575800	0.658250	0.640620
C2071	C207	0.630200	0.662770	0.583690
C2081	C208	0.613400	0.705270	0.598460
C2091	C209	0.586500	0.703250	0.627760
C2101	C210	0.570100	0.748250	0.644820
C2111	C211	0.607900	0.924960	0.591250
C2121	C212	0.592700	0.880460	0.603970
C2131	C213	0.603500	0.962730	0.635560
C2141	C214	0.587900	0.919230	0.649880
C2151	C215	0.582600	0.877010	0.633940
C2161	C216	0.569300	0.829530	0.648030
C2171	C217	0.125300	0.406770	0.987140
C2181	C218	0.074800	0.393090	0.012150
C2191	C219	0.989500	0.443560	0.968060
C2201	C220	0.934700	0.431450	0.992380
C2211	C221	0.977200	0.405070	0.014630
C2221	C222	0.920700	0.391100	0.041110
C2231	C223	0.534900	0.445820	0.052940
C2241	C224	0.628800	0.429420	0.048080
C2251	C225	0.536500	0.416740	0.100120
C2261	C226	0.630300	0.399040	0.096810
C2271	C227	0.677600	0.405730	0.070520
C2281	C228	0.781400	0.390560	0.066900
C2291	C229	0.975400	0.299700	0.158530
C2301	C230	0.922700	0.321640	0.136200
C2311	C231	0.117600	0.307040	0.132610
C2321	C232	0.069500	0.328720	0.109370
C2331	C233	0.970200	0.335840	0.111040
C2341	C234	0.917600	0.358390	0.086380
C2351	C235	0.076400	0.310930	0.238720
C2361	C236	0.039400	0.318510	0.266510
C2371	C237	0.036000	0.230280	0.240170
C2381	C238	0.000100	0.234870	0.268220
C2391	C239	0.002100	0.279670	0.281830
C2401	C240	0.969100	0.284220	0.312390
C2411	C241	0.907200	0.117240	0.375640
C2421	C242	0.924200	0.158250	0.359380
C2431	C243	0.869800	0.162770	0.416310
C2441	C244	0.886600	0.205270	0.401540
C2451	C245	0.913500	0.203250	0.372240
C2461	C246	0.929900	0.248250	0.355180
C2471	C247	0.892100	0.424960	0.408750
C2481	C248	0.907300	0.380460	0.396030
C2491	C249	0.896500	0.462730	0.364440
C2501	C250	0.912100	0.419230	0.350120
C2511	C251	0.917400	0.377010	0.366060
C2521	C252	0.930700	0.329530	0.351970
C2531	C253	0.874700	0.093230	0.487140
C2541	C254	0.925200	0.106910	0.512150
C2551	C255	0.010500	0.056440	0.468060
C2561	C256	0.065300	0.068550	0.492380
C2571	C257	0.022800	0.094930	0.514630
C2581	C258	0.079300	0.108900	0.541110
C2591	C259	0.465100	0.054180	0.552940
C2601	C260	0.371200	0.070580	0.548080
C2611	C261	0.463500	0.083260	0.600120
C2621	C262	0.369700	0.100960	0.596810
C2631	C263	0.322400	0.094270	0.570520
C2641	C264	0.218600	0.109440	0.566900
C2651	C265	0.024600	0.200300	0.658530
C2661	C266	0.077300	0.178360	0.636200
C2671	C267	0.882400	0.192960	0.632610
C2681	C268	0.930500	0.171280	0.609370
C2691	C269	0.029800	0.164160	0.611040
C2701	C270	0.082400	0.141610	0.586380
C2711	C271	0.923600	0.189070	0.738720
C2721	C272	0.960600	0.181490	0.766510
C2731	C273	0.964000	0.269720	0.740170
C2741	C274	0.999900	0.265130	0.768220
C2751	C275	0.997900	0.220330	0.781830
C2761	C276	0.030900	0.215780	0.812390
C2771	C277	0.092800	0.382760	0.875640
C2781	C278	0.075800	0.341750	0.859380
C2791	C279	0.130200	0.337230	0.916310
C2801	C280	0.113400	0.294730	0.901540
C2811	C281	0.086500	0.296750	0.872240
C2821	C282	0.070100	0.251750	0.855180
C2831	C283	0.107900	0.075040	0.908750
C2841	C284	0.092700	0.119540	0.896030
C2851	C285	0.103500	0.037270	0.864440
C2861	C286	0.087900	0.080770	0.850120
C2871	C287	0.082600	0.122990	0.866060
C2881	C288	0.069300	0.170470	0.851970
I251	I25	0.814090	0.698850	0.309060
I261	I26	0.656030	0.834230	0.323460
I271	I27	0.574130	0.488070	0.600630
I281	I28	0.839360	0.563920	0.562560
I291	I29	0.778010	0.511520	0.463680
I301	I30	0.768310	0.581670	0.375610
I311	I31	0.185910	0.801150	0.809060
I321	I32	0.343970	0.665770	0.823460
I331	I33	0.425870	0.011930	0.100630
I341	I34	0.160640	0.936080	0.062560
I351	I35	0.221990	0.988480	0.963680
I361	I36	0.231690	0.918330	0.875610
I371	I37	0.314090	0.301150	0.190940
I381	I38	0.156030	0.165770	0.176540
I391	I39	0.074130	0.511930	0.899370
I401	I40	0.339360	0.436080	0.937440
I411	I41	0.278010	0.488480	0.036320
I421	I42	0.268310	0.418330	0.124390
I431	I43	0.685910	0.198850	0.690940
I441	I44	0.843970	0.334230	0.676540
I451	I45	0.925870	0.988070	0.399370
I461	I46	0.660640	0.063920	0.437440
I471	I47	0.721990	0.011520	0.536320
I481	I48	0.731690	0.081670	0.624390
N491	N49	0.583200	0.568990	0.534720
N501	N50	0.989200	0.559700	0.421280
N511	N51	0.571100	0.708030	0.343400
N521	N52	0.326600	0.597200	0.458020
N531	N53	0.322600	0.632210	0.410430
N541	N54	0.470300	0.631350	0.437620
N551	N55	0.575700	0.732370	0.274290
N561	N56	0.379500	0.880980	0.096240
N571	N57	0.386000	0.534200	0.106560
N581	N58	0.455600	0.757200	0.172840
N591	N59	0.416600	0.709560	0.131390
N601	N60	0.456600	0.671290	0.176380
N611	N61	0.416800	0.931010	0.034720
N621	N62	0.010800	0.940300	0.921280
N631	N63	0.428900	0.791970	0.843400
N641	N64	0.673400	0.902800	0.958020
N651	N65	0.677400	0.867790	0.910430
N661	N66	0.529700	0.868650	0.937620
N671	N67	0.424300	0.767630	0.774290
N681	N68	0.620500	0.619020	0.596240
N691	N69	0.614000	0.965800	0.606560
N701	N70	0.544400	0.742800	0.672840
N711	N71	0.583400	0.790440	0.631390
N721	N72	0.543400	0.828710	0.676380
N731	N73	0.083200	0.431010	0.965280
N741	N74	0.489200	0.440300	0.078720
N751	N75	0.071100	0.291970	0.156600
N761	N76	0.826600	0.402800	0.041980
N771	N77	0.822600	0.367790	0.089570
N781	N78	0.970300	0.368650	0.062380
N791	N79	0.075700	0.267630	0.225710
N801	N80	0.879500	0.119020	0.403760
N811	N81	0.886000	0.465800	0.393440
N821	N82	0.955600	0.242800	0.327160
N831	N83	0.916600	0.290440	0.368610
N841	N84	0.956600	0.328710	0.323620
N851	N85	0.916800	0.068990	0.465280
N861	N86	0.510800	0.059700	0.578720
N871	N87	0.928900	0.208030	0.656600
N881	N88	0.173400	0.097200	0.541980
N891	N89	0.177400	0.132210	0.589570
N901	N90	0.029700	0.131350	0.562380
N911	N91	0.924300	0.232370	0.725710
N921	N92	0.120500	0.380980	0.903760
N931	N93	0.114000	0.034200	0.893440
N941	N94	0.044400	0.257200	0.827160
N951	N95	0.083400	0.209560	0.868610
N961	N96	0.043400	0.171290	0.823620
