data_CIWYUD_freeONLY_PM
_symmetry_space_group_name_H-M	'P1'
_cell_length_a	11.138900
_cell_length_b	11.265200
_cell_length_c	11.413900
_cell_angle_alpha	76.380000
_cell_angle_beta	66.369000
_cell_angle_gamma	78.964000
_symmetry_Int_Tables_number 1

loop_
_symmetry_equiv_pos_as_xyz
'x,y,z'

loop_
_atom_site_label
_atom_site_type_symbol
_atom_site_fract_x
_atom_site_fract_y
_atom_site_fract_z
Co11	Co1	0.470580	0.429020	0.289810
Co21	Co2	0.606240	0.390830	0.499590
Co31	Co3	0.495220	0.358960	0.009240
Co41	Co4	0.529420	0.570980	0.710190
Co51	Co5	0.393760	0.609170	0.500410
Co61	Co6	0.504780	0.641040	0.990760
H11	H1	0.044900	0.417100	0.139500
H21	H2	0.077100	0.358600	0.491300
H31	H3	0.853400	0.338900	0.588100
H41	H4	0.324200	0.870100	0.588500
H51	H5	0.361400	0.072900	0.491900
H61	H6	0.528900	0.964900	0.142600
H71	H7	0.955100	0.582900	0.860500
H81	H8	0.922900	0.641400	0.508700
H91	H9	0.146600	0.661100	0.411900
H101	H10	0.675800	0.129900	0.411500
H111	H11	0.638600	0.927100	0.508100
H121	H12	0.471100	0.035100	0.857400
C11	C1	0.780700	0.414100	0.225800
C21	C2	0.873400	0.394700	0.296900
C31	C3	0.007400	0.402300	0.231700
C41	C4	0.086300	0.387700	0.304700
C51	C5	0.026600	0.366700	0.439100
C61	C6	0.892700	0.357700	0.496100
C71	C7	0.231300	0.400700	0.238900
C81	C8	0.366300	0.889800	0.496700
C91	C9	0.389100	0.010800	0.440000
C101	C10	0.452800	0.039600	0.306800
C111	C11	0.485400	0.169900	0.242400
C121	C12	0.487300	0.947200	0.234500
C131	C13	0.460400	0.827100	0.298100
C141	C14	0.489500	0.724000	0.226400
C151	C15	0.219300	0.585900	0.774200
C161	C16	0.126600	0.605300	0.703100
C171	C17	0.992600	0.597700	0.768300
C181	C18	0.913700	0.612300	0.695300
C191	C19	0.973400	0.633300	0.560900
C201	C20	0.107300	0.642300	0.503900
C211	C21	0.768700	0.599300	0.761100
C221	C22	0.633700	0.110200	0.503300
C231	C23	0.610900	0.989200	0.560000
C241	C24	0.547200	0.960400	0.693200
C251	C25	0.514600	0.830100	0.757600
C261	C26	0.512700	0.052800	0.765500
C271	C27	0.539600	0.172900	0.701900
C281	C28	0.510500	0.276000	0.773600
N11	N1	0.815900	0.374100	0.427500
N21	N2	0.401300	0.800500	0.427400
N31	N3	0.184100	0.625900	0.572500
N41	N4	0.598700	0.199500	0.572600
O11	O1	0.659500	0.405100	0.301200
O21	O2	0.821500	0.434200	0.107500
O31	O3	0.293000	0.360600	0.134800
O41	O4	0.276800	0.453200	0.295900
O51	O5	0.529000	0.192100	0.121200
O61	O6	0.463200	0.242600	0.317500
O71	O7	0.542500	0.742400	0.105100
O81	O8	0.454500	0.622800	0.298600
O91	O9	0.418300	0.424900	0.488300
O101	O10	0.549400	0.470500	0.094700
O111	O11	0.700200	0.326000	0.880600
O121	O12	0.340500	0.594900	0.698800
O131	O13	0.178500	0.565800	0.892500
O141	O14	0.707000	0.639400	0.865200
O151	O15	0.723200	0.546800	0.704100
O161	O16	0.471000	0.807900	0.878800
O171	O17	0.536800	0.757400	0.682500
O181	O18	0.457500	0.257600	0.894900
O191	O19	0.545500	0.377200	0.701400
O201	O20	0.581700	0.575100	0.511700
O211	O21	0.450600	0.529500	0.905300
O221	O22	0.299800	0.674000	0.119400
