data_CIZMIJ_freeONLY_PM
_symmetry_space_group_name_H-M	'P1'
_cell_length_a	7.548100
_cell_length_b	10.887800
_cell_length_c	19.046000
_cell_angle_alpha	79.948000
_cell_angle_beta	79.570000
_cell_angle_gamma	73.077000
_symmetry_Int_Tables_number 1

loop_
_symmetry_equiv_pos_as_xyz
'x,y,z'

loop_
_atom_site_label
_atom_site_type_symbol
_atom_site_fract_x
_atom_site_fract_y
_atom_site_fract_z
Zn11	Zn1	0.392810	0.784400	0.451640
Zn21	Zn2	0.716360	0.286640	0.967880
H11	H1	0.053300	0.557400	0.653300
H21	H2	0.394900	0.895900	0.187300
H31	H3	0.757900	0.941600	0.405600
H41	H4	0.229300	0.332700	0.183300
H51	H5	0.358200	0.246500	0.551000
H61	H6	0.452100	0.553000	0.022900
H71	H7	0.598000	0.176600	0.230200
H81	H8	0.667500	0.375700	0.273200
H91	H9	0.829400	0.597300	0.475600
H101	H10	0.458200	0.003600	0.855200
H111	H11	0.190700	0.465700	0.908700
H121	H12	0.113400	0.506000	0.241000
H131	H13	0.874400	0.194400	0.577600
H141	H14	0.793700	0.623600	0.056900
H151	H15	0.082400	0.566900	0.371700
H161	H16	0.929800	0.403200	0.072500
H171	H17	0.600100	0.709500	0.586000
H181	H18	0.217200	0.725400	0.053000
H191	H19	0.001500	0.955400	0.799900
H201	H20	0.281300	0.969600	0.055300
H211	H21	0.537200	0.037500	0.328800
H221	H22	0.291400	0.747900	0.754600
H231	H23	0.928200	0.973100	0.591800
H241	H24	0.362800	0.402600	0.727300
H251	H25	0.618500	0.855200	0.668700
H261	H26	0.493900	0.014100	0.731500
H271	H27	0.572600	0.038800	0.959200
H281	H28	0.136000	0.167200	0.980000
H291	H29	0.381600	0.595500	0.848900
H301	H30	0.617100	0.786700	0.301400
H311	H31	0.741200	0.015100	0.083900
H321	H32	0.517300	0.593600	0.257300
H331	H33	0.860400	0.890400	0.215800
H341	H34	0.564000	0.343300	0.818800
H351	H35	0.505200	0.477300	0.514200
H361	H36	0.331400	0.060900	0.512800
H371	H37	0.454800	0.193400	0.104600
H381	H38	0.949900	0.178200	0.783800
H391	H39	0.051200	0.743800	0.559300
H401	H40	0.772200	0.496500	0.593700
C11	C1	0.186100	0.598100	0.143100
C21	C2	0.711700	0.697100	0.779500
C31	C3	0.639300	0.634600	0.156500
C41	C4	0.398000	0.991100	0.541700
C51	C5	0.962700	0.944900	0.698600
C61	C6	0.011900	0.086600	0.280400
C71	C7	0.958900	0.615300	0.370300
C81	C8	0.552300	0.262400	0.841200
C91	C9	0.425800	0.480900	0.052200
C101	C10	0.457500	0.097000	0.706900
C111	C11	0.905500	0.657500	0.800800
C121	C12	0.978400	0.696000	0.240400
C131	C13	0.209600	0.701600	0.780900
C141	C14	0.817300	0.630500	0.427700
C151	C15	0.301700	0.359100	0.141600
C161	C16	0.158800	0.718500	0.100300
C171	C17	0.351600	0.341100	0.633600
C181	C18	0.425100	0.283400	0.098000
C191	C19	0.425200	0.114100	0.635700
C201	C20	0.547500	0.798600	0.581800
C211	C21	0.556800	0.878400	0.628300
C221	C22	0.973900	0.003900	0.756000
C231	C23	0.691500	0.425800	0.229500
C241	C24	0.699700	0.735600	0.332500
C251	C25	0.654600	0.053000	0.317900
C261	C26	0.969000	0.555100	0.854900
C271	C27	0.202400	0.115100	0.259700
C281	C28	0.900500	0.211400	0.679400
C291	C29	0.849900	0.354600	0.671000
C301	C30	0.549600	0.774900	0.145200
C311	C31	0.143100	0.562600	0.613300
C321	C32	0.690700	0.134200	0.258900
C331	C33	0.869000	0.154600	0.240900
C341	C34	0.028000	0.727200	0.764300
C351	C35	0.044000	0.826700	0.129200
C361	C36	0.929000	0.015200	0.630100
C371	C37	0.846900	0.471700	0.892000
C381	C38	0.945300	0.818000	0.198200
C391	C39	0.108700	0.935000	0.393300
C401	C40	0.491200	0.077100	0.860500
C411	C41	0.789000	0.991600	0.362800
C421	C42	0.375600	0.235300	0.599100
C431	C43	0.389700	0.521100	0.536700
C441	C44	0.095700	0.586400	0.212900
C451	C45	0.073200	0.112600	0.010900
C461	C46	0.812400	0.371100	0.175200
C471	C47	0.942800	0.136800	0.746000
C481	C48	0.148500	0.531800	0.872600
C491	C49	0.970000	0.004700	0.344000
C501	C50	0.154500	0.001900	0.051500
C511	C51	0.144900	0.666300	0.561500
C521	C52	0.766100	0.574400	0.100500
C531	C53	0.379900	0.329900	0.704800
C541	C54	0.264200	0.608700	0.835600
C551	C55	0.897900	0.146700	0.622000
C561	C56	0.558300	0.095900	0.916900
C571	C57	0.857800	0.029700	0.066800
C581	C58	0.434900	0.205200	0.741000
C591	C59	0.849300	0.443000	0.110000
C601	C60	0.603100	0.556900	0.220100
N11	N1	0.019700	0.948500	0.084800
N21	N2	0.453900	0.002500	0.602500
N31	N3	0.602300	0.210300	0.903100
N41	N4	0.652600	0.704500	0.401300
N51	N5	0.505500	0.358700	0.039700
N61	N6	0.301300	0.485700	0.113300
N71	N7	0.883700	0.683800	0.312300
N81	N8	0.446500	0.872200	0.527100
N91	N9	0.301200	0.640200	0.514400
N101	N10	0.480600	0.184800	0.812700
N111	N11	0.297300	0.469900	0.594500
N121	N12	0.882700	0.130600	0.022900
O11	O1	0.580200	0.845500	0.089900
O21	O2	0.841100	0.405000	0.729200
O31	O3	0.598600	0.791600	0.802100
O41	O4	0.222400	0.200700	0.290900
O51	O5	0.680700	0.632700	0.734000
O61	O6	0.056500	0.923300	0.459200
O71	O7	0.910900	0.238200	0.179700
O81	O8	0.438200	0.816700	0.203900
O91	O9	0.315700	0.060100	0.212600
O101	O10	0.676300	0.504000	0.888600
O111	O11	0.278700	0.888600	0.367100
O121	O12	0.922800	0.367200	0.928600
O131	O13	0.817300	0.418600	0.611900
O141	O14	0.971900	0.813100	0.704000
