data_cm0623918si20061006_115210_freeONLY_PM
_symmetry_space_group_name_H-M	'P1'
_cell_length_a	13.609000
_cell_length_b	13.617000
_cell_length_c	27.181000
_cell_angle_alpha	90.000000
_cell_angle_beta	90.000000
_cell_angle_gamma	92.463000
_symmetry_Int_Tables_number 1

loop_
_symmetry_equiv_pos_as_xyz
'x,y,z'

loop_
_atom_site_label
_atom_site_type_symbol
_atom_site_fract_x
_atom_site_fract_y
_atom_site_fract_z
Zn11	Zn1	0.330160	0.322160	0.694260
Zn21	Zn2	0.749730	0.206140	0.701870
Zn31	Zn3	0.669840	0.677840	0.305740
Zn41	Zn4	0.145240	0.274930	0.796300
Zn51	Zn5	0.169840	0.177840	0.194260
Zn61	Zn6	0.780360	0.109750	0.303860
Zn71	Zn7	0.750270	0.293860	0.201870
Zn81	Zn8	0.249730	0.706140	0.798130
Zn91	Zn9	0.354760	0.225070	0.296300
Zn101	Zn10	0.830160	0.822160	0.805740
Zn111	Zn11	0.645240	0.774930	0.703700
Zn121	Zn12	0.854760	0.725070	0.203700
Zn131	Zn13	0.719640	0.390250	0.803860
Zn141	Zn14	0.219640	0.890250	0.696140
Zn151	Zn15	0.250270	0.793860	0.298130
Zn161	Zn16	0.280360	0.609750	0.196140
H11	H1	0.672700	0.902200	0.332100
H21	H2	0.714600	0.147200	0.078100
H31	H3	0.048300	0.300000	0.972400
H41	H4	0.274000	0.999400	0.530100
H51	H5	0.283500	0.976600	0.445000
H61	H6	0.494500	0.402100	0.779700
H71	H7	0.620300	0.548200	0.735600
H81	H8	0.985100	0.663900	0.580000
H91	H9	0.304400	0.807100	0.092200
H101	H10	0.485100	0.163900	0.920000
H111	H11	0.511900	0.128500	0.003100
H121	H12	0.166700	0.536100	0.558600
H131	H13	0.176200	0.513300	0.473400
H141	H14	0.473500	0.789800	0.327800
H151	H15	0.334700	0.224300	0.894900
H161	H16	0.665300	0.775700	0.105100
H171	H17	0.804400	0.307100	0.407800
H181	H18	0.676200	0.013300	0.026600
H191	H19	0.611700	0.846500	0.939000
H201	H20	0.550600	0.111500	0.330900
H211	H21	0.050600	0.611500	0.169100
H221	H22	0.832900	0.054500	0.784400
H231	H23	0.488100	0.871500	0.996900
H241	H24	0.029200	0.809100	0.275900
H251	H25	0.973500	0.289800	0.172200
H261	H26	0.879700	0.951800	0.235600
H271	H27	0.783500	0.476600	0.055000
H281	H28	0.327300	0.097800	0.667900
H291	H29	0.451700	0.200000	0.472400
H301	H30	0.834700	0.724300	0.605100
H311	H31	0.388300	0.153500	0.061000
H321	H32	0.424900	0.235500	0.555500
H331	H33	0.994500	0.902100	0.720300
H341	H34	0.005500	0.097900	0.279700
H351	H35	0.988100	0.371500	0.503100
H361	H36	0.726000	0.000600	0.469900
H371	H37	0.667100	0.445500	0.284400
H381	H38	0.924900	0.735500	0.944500
H391	H39	0.214600	0.647200	0.421900
H401	H40	0.379700	0.451800	0.264400
H411	H41	0.526500	0.210200	0.672200
H421	H42	0.470800	0.690900	0.775900
H431	H43	0.666700	0.036100	0.941400
H441	H44	0.014900	0.336100	0.420000
H451	H45	0.111700	0.346500	0.561000
H461	H46	0.575100	0.764500	0.444500
H471	H47	0.644500	0.997200	0.677100
H481	H48	0.075100	0.264500	0.055500
H491	H49	0.165300	0.275700	0.394900
H501	H50	0.167100	0.945500	0.215600
H511	H51	0.011900	0.628500	0.496900
H521	H52	0.172700	0.402200	0.167900
H531	H53	0.970800	0.190900	0.724100
H541	H54	0.195600	0.692900	0.592200
H551	H55	0.888300	0.653500	0.439000
H561	H56	0.449400	0.888500	0.669100
H571	H57	0.695600	0.192900	0.907800
H581	H58	0.505500	0.597900	0.220300
H591	H59	0.120300	0.048200	0.764400
H601	H60	0.774000	0.499400	0.969900
H611	H61	0.332900	0.554500	0.715600
H621	H62	0.949400	0.388500	0.830900
H631	H63	0.514900	0.836100	0.080000
H641	H64	0.716500	0.023400	0.555000
H651	H65	0.833300	0.463900	0.441400
H661	H66	0.323800	0.986700	0.973400
H671	H67	0.951700	0.700000	0.027600
H681	H68	0.823800	0.486700	0.526600
H691	H69	0.355500	0.002800	0.322900
H701	H70	0.548300	0.800000	0.527600
H711	H71	0.144500	0.497200	0.822900
H721	H72	0.785400	0.352800	0.578100
H731	H73	0.285400	0.852800	0.921900
H741	H74	0.216500	0.523400	0.945000
H751	H75	0.827300	0.597800	0.832100
H761	H76	0.855500	0.502800	0.177100
H771	H77	0.529200	0.309100	0.224100
H781	H78	0.333300	0.963900	0.058600
H791	H79	0.226000	0.500600	0.030100
H801	H80	0.026500	0.710200	0.827800
C11	C1	0.845600	0.709900	0.571400
C21	C2	0.239800	0.879700	0.602200
C31	C3	0.476200	0.640800	0.243100
C41	C4	0.227900	0.749600	0.476500
C51	C5	0.829900	0.920500	0.255300
C61	C6	0.749300	0.170900	0.554100
C71	C7	0.374700	0.245600	0.531900
C81	C8	0.054800	0.762200	0.253900
C91	C9	0.523800	0.359200	0.756900
C101	C10	0.210700	0.656500	0.456500
C111	C11	0.317200	0.239400	0.448200
C121	C12	0.761200	0.322800	0.109500
C131	C13	0.445200	0.737800	0.753900
C141	C14	0.836000	0.719000	0.107700
C151	C15	0.064700	0.654100	0.196100
C161	C16	0.188000	0.489600	0.796000
C171	C17	0.699500	0.183600	0.942300
C181	C18	0.208000	0.191000	0.102800
C191	C19	0.767900	0.422200	0.034100
C201	C20	0.222300	0.763100	0.527100
C211	C21	0.125300	0.254400	0.031900
C221	C22	0.182800	0.260600	0.948200
C231	C23	0.934900	0.674100	0.556500
C241	C24	0.435300	0.845900	0.696100
C251	C25	0.227800	0.275200	0.463100
C261	C26	0.285300	0.281500	0.546800
C271	C27	0.760200	0.120300	0.397800
C281	C28	0.664000	0.781000	0.607700
C291	C29	0.300500	0.816400	0.057700
C301	C30	0.874700	0.745600	0.968100
C311	C31	0.272100	0.750400	0.976500
C321	C32	0.214700	0.218500	0.046800
C331	C33	0.539500	0.255200	0.698300
C341	C34	0.777700	0.236900	0.472900
C351	C35	0.877400	0.667900	0.472700
C361	C36	0.122600	0.332100	0.527300
C371	C37	0.739800	0.379700	0.897800
C381	C38	0.750700	0.329100	0.054100
C391	C39	0.260500	0.643700	0.047100
C401	C40	0.262300	0.935800	0.516500
C411	C41	0.279800	0.107500	0.692800
C421	C42	0.554800	0.262200	0.246100
C431	C43	0.727900	0.249600	0.023500
C441	C44	0.250700	0.829100	0.445900
C451	C45	0.260200	0.620300	0.102200
C461	C46	0.239500	0.856300	0.547100
C471	C47	0.237700	0.564200	0.016500
C481	C48	0.670100	0.579500	0.755300
C491	C49	0.935300	0.345900	0.803900
C501	C50	0.211900	0.296300	0.512400
C511	C51	0.890600	0.724600	0.017400
C521	C52	0.711900	0.796300	0.987600
C531	C53	0.232100	0.577800	0.965900
C541	C54	0.785300	0.781500	0.953200
C551	C55	0.317700	0.909500	0.037700
C561	C56	0.817200	0.739400	0.051800
C571	C57	0.292000	0.309000	0.602800
C581	C58	0.164000	0.281000	0.892300
C591	C59	0.788100	0.703700	0.487600
C601	C60	0.109400	0.275400	0.982600
C611	C61	0.272200	0.224800	0.963100
C621	C62	0.238800	0.677200	0.890500
C631	C63	0.762300	0.435800	0.983500
C641	C64	0.714700	0.718500	0.453200
C651	C65	0.209400	0.979700	0.238200
C661	C66	0.708000	0.691000	0.397200
C671	C67	0.790600	0.020300	0.761800
C681	C68	0.170100	0.079500	0.744700
C691	C69	0.682800	0.760600	0.551800
C701	C70	0.460500	0.744800	0.301700
C711	C71	0.187900	0.576900	0.487100
C721	C72	0.434900	0.174100	0.943500
C731	C73	0.737700	0.064200	0.483500
C741	C74	0.549100	0.847000	0.007100
C751	C75	0.261200	0.822800	0.390500
C761	C76	0.812100	0.423100	0.512900
C771	C77	0.760500	0.143700	0.452900
C781	C78	0.288100	0.203700	0.012400
C791	C79	0.792000	0.809000	0.897200
C801	C80	0.220200	0.392500	0.192800
C811	C81	0.312000	0.010400	0.296000
C821	C82	0.289300	0.843500	0.956500
C831	C83	0.738800	0.177200	0.609500
C841	C84	0.710700	0.156500	0.043500
C851	C85	0.336000	0.219000	0.392300
C861	C86	0.377400	0.167900	0.027300
C871	C87	0.065100	0.325900	0.443500
C881	C88	0.625300	0.754400	0.468100
C891	C89	0.688000	0.989600	0.704000
C901	C90	0.800500	0.316400	0.442300
C911	C91	0.023800	0.859200	0.743100
C921	C92	0.739500	0.356300	0.952900
C931	C93	0.654400	0.790100	0.071400
C941	C94	0.564700	0.154100	0.303900
C951	C95	0.039500	0.755200	0.801700
C961	C96	0.772100	0.250400	0.523500
C971	C97	0.450900	0.153000	0.992900
C981	C98	0.390600	0.224600	0.482600
C991	C99	0.772200	0.724800	0.536900
C1001	C100	0.789300	0.343500	0.543500
C1011	C101	0.312100	0.923100	0.987100
C1021	C102	0.182300	0.590500	0.537700
C1031	C103	0.277700	0.736900	0.027100
C1041	C104	0.049100	0.347000	0.492900
C1051	C105	0.812000	0.510400	0.204000
C1061	C106	0.960500	0.244800	0.198300
C1071	C107	0.817700	0.409500	0.462300
C1081	C108	0.945200	0.237800	0.746100
C1091	C109	0.329900	0.420500	0.244700
C1101	C110	0.154400	0.290100	0.428600
C1111	C111	0.976200	0.140800	0.256900
C1121	C112	0.727800	0.775200	0.036900
C1131	C113	0.950900	0.653000	0.507100
C1141	C114	0.565100	0.825900	0.056500
C1151	C115	0.267900	0.922200	0.465900
C1161	C116	0.622600	0.832100	0.972700
C1171	C117	0.682300	0.090500	0.962300
C1181	C118	0.779800	0.607500	0.807200
C1191	C119	0.199500	0.683600	0.557700
C1201	C120	0.687900	0.076900	0.012900
C1211	C121	0.720200	0.892500	0.307200
C1221	C122	0.345600	0.209900	0.928600
C1231	C123	0.732100	0.077800	0.534100
C1241	C124	0.709400	0.479700	0.261800
C1251	C125	0.249300	0.670900	0.945900
C1261	C126	0.290600	0.520300	0.738200
C1271	C127	0.722300	0.263100	0.972900
C1281	C128	0.609400	0.775400	0.517400
N11	N1	0.346700	0.833600	0.716100
N21	N2	0.125500	0.770700	0.779600
N31	N3	0.854300	0.260500	0.747200
N41	N4	0.282300	0.465800	0.212000
N51	N5	0.003200	0.291800	0.782000
N61	N6	0.195500	0.172000	0.748700
N71	N7	0.496800	0.208200	0.282000
N81	N8	0.717700	0.534200	0.788000
N91	N9	0.645700	0.239500	0.247200
N101	N10	0.227100	0.079000	0.237700
N111	N11	0.757700	0.437100	0.226600
N121	N12	0.996800	0.708200	0.218000
N131	N13	0.782300	0.965800	0.288000
N141	N14	0.242300	0.562900	0.773400
N151	N15	0.793200	0.595800	0.226700
N161	N16	0.235900	0.305400	0.214300
N171	N17	0.735900	0.805400	0.285700
N181	N18	0.742300	0.062900	0.726600
N191	N19	0.874500	0.229300	0.220400
N201	N20	0.615700	0.337300	0.758600
N211	N21	0.384300	0.662700	0.241400
N221	N22	0.772900	0.921000	0.762300
N231	N23	0.264100	0.194600	0.714300
N241	N24	0.503200	0.791800	0.718000
N251	N25	0.695500	0.672000	0.751300
N261	N26	0.206800	0.404200	0.773300
N271	N27	0.304500	0.328000	0.248700
N281	N28	0.706800	0.904200	0.726700
N291	N29	0.625500	0.270700	0.720400
N301	N30	0.217700	0.034200	0.712000
N311	N31	0.764100	0.694600	0.785700
N321	N32	0.145700	0.739500	0.252800
N331	N33	0.727100	0.579000	0.262300
N341	N34	0.973100	0.814000	0.781000
N351	N35	0.846700	0.333600	0.783900
N361	N36	0.026900	0.186000	0.219000
N371	N37	0.526900	0.686000	0.281000
N381	N38	0.804500	0.828000	0.251300
N391	N39	0.293200	0.095800	0.273300
N401	N40	0.115700	0.837300	0.741400
N411	N41	0.272900	0.421000	0.737700
N421	N42	0.354300	0.760500	0.752800
N431	N43	0.257700	0.937100	0.273400
N441	N44	0.153300	0.666400	0.216100
N451	N45	0.884300	0.162700	0.258600
N461	N46	0.653300	0.166400	0.283900
N471	N47	0.473100	0.314000	0.719000
N481	N48	0.374500	0.729300	0.279600
O11	O1	0.889400	0.638300	0.114800
O21	O2	0.195000	0.309000	0.618100
O31	O3	0.807400	0.440100	0.882000
O41	O4	0.177700	0.840900	0.629700
O51	O5	0.193400	0.782600	0.365200
O61	O6	0.806600	0.217400	0.634800
O71	O7	0.389400	0.138300	0.385200
O81	O8	0.338200	0.855900	0.373000
O91	O9	0.685500	0.727900	0.640100
O101	O10	0.305000	0.191000	0.118100
O111	O11	0.677700	0.340900	0.870300
O121	O12	0.695000	0.809000	0.881900
O131	O13	0.693400	0.282600	0.134800
O141	O14	0.110600	0.361700	0.885200
O151	O15	0.814500	0.772100	0.140100
O161	O16	0.322300	0.659100	0.129700
O171	O17	0.838200	0.355900	0.127000
O181	O18	0.192600	0.559900	0.118000
O191	O19	0.314500	0.272100	0.359900
O201	O20	0.644900	0.684200	0.374900
O211	O21	0.692600	0.059900	0.382000
O221	O22	0.185500	0.227900	0.859900
O231	O23	0.161800	0.644100	0.873000
O241	O24	0.805000	0.691000	0.381900
O251	O25	0.610600	0.861700	0.614800
O261	O26	0.144900	0.184200	0.125100
O271	O27	0.306600	0.717400	0.865200
O281	O28	0.307400	0.940100	0.618000
O291	O29	0.661800	0.144100	0.627000
O301	O30	0.855100	0.815800	0.874900
O311	O31	0.822300	0.159100	0.370300
O321	O32	0.355100	0.315800	0.625100
