data_cm503311x_alf400K_freeONLY_PM
_symmetry_space_group_name_H-M	'P1'
_cell_length_a	6.567700
_cell_length_b	16.398400
_cell_length_c	13.164000
_cell_angle_alpha	90.000000
_cell_angle_beta	90.000000
_cell_angle_gamma	90.000000
_symmetry_Int_Tables_number 1

loop_
_symmetry_equiv_pos_as_xyz
'x,y,z'

loop_
_atom_site_label
_atom_site_type_symbol
_atom_site_fract_x
_atom_site_fract_y
_atom_site_fract_z
O11	O1	0.169000	0.168180	0.839970
C11	C1	0.807100	0.026500	0.954300
O21	O2	0.669000	0.668180	0.339970
C21	C2	0.307100	0.526500	0.454300
O31	O3	0.831000	0.331820	0.839970
C31	C3	0.192900	0.473500	0.954300
O41	O4	0.331000	0.831820	0.339970
C41	C4	0.692900	0.973500	0.454300
O51	O5	0.831000	0.668180	0.160030
C51	C5	0.192900	0.526500	0.045700
O61	O6	0.331000	0.168180	0.660030
C61	C6	0.692900	0.026500	0.545700
O71	O7	0.169000	0.831820	0.160030
C71	C7	0.807100	0.973500	0.045700
O81	O8	0.669000	0.331820	0.660030
C81	C8	0.307100	0.473500	0.545700
O91	O9	0.831000	0.831820	0.160030
C91	C9	0.192900	0.973500	0.045700
O101	O10	0.331000	0.331820	0.660030
C101	C10	0.692900	0.473500	0.545700
O111	O11	0.169000	0.668180	0.160030
C111	C11	0.807100	0.526500	0.045700
O121	O12	0.669000	0.168180	0.660030
C121	C12	0.307100	0.026500	0.545700
O131	O13	0.169000	0.331820	0.839970
C131	C13	0.807100	0.473500	0.954300
O141	O14	0.669000	0.831820	0.339970
C141	C14	0.307100	0.973500	0.454300
O151	O15	0.831000	0.168180	0.839970
C151	C15	0.192900	0.026500	0.954300
O161	O16	0.331000	0.668180	0.339970
C161	C16	0.692900	0.526500	0.454300
Al11	Al1	0.250000	0.250000	0.750000
Al21	Al2	0.750000	0.250000	0.750000
Al31	Al3	0.750000	0.750000	0.250000
Al41	Al4	0.250000	0.750000	0.250000
F11	F1	0.000000	0.250000	0.693700
F21	F2	0.500000	0.750000	0.193700
F31	F3	0.000000	0.750000	0.306300
F41	F4	0.500000	0.250000	0.806300
C171	C17	0.000000	0.064100	0.949800
C181	C18	0.000000	0.138900	0.870500
C191	C19	0.500000	0.564100	0.449800
C201	C20	0.500000	0.638900	0.370500
C211	C21	0.000000	0.435900	0.949800
C221	C22	0.000000	0.361100	0.870500
C231	C23	0.500000	0.935900	0.449800
C241	C24	0.500000	0.861100	0.370500
C251	C25	0.000000	0.564100	0.050200
C261	C26	0.000000	0.638900	0.129500
C271	C27	0.500000	0.064100	0.550200
C281	C28	0.500000	0.138900	0.629500
C291	C29	0.000000	0.935900	0.050200
C301	C30	0.000000	0.861100	0.129500
C311	C31	0.500000	0.435900	0.550200
C321	C32	0.500000	0.361100	0.629500
