data_cm503311x_alf70K_freeONLY_PM
_symmetry_space_group_name_H-M	'P1'
_cell_length_a	6.553900
_cell_length_b	16.439000
_cell_length_c	13.137900
_cell_angle_alpha	90.000000
_cell_angle_beta	90.000000
_cell_angle_gamma	90.544100
_symmetry_Int_Tables_number 1

loop_
_symmetry_equiv_pos_as_xyz
'x,y,z'

loop_
_atom_site_label
_atom_site_type_symbol
_atom_site_fract_x
_atom_site_fract_y
_atom_site_fract_z
O11	O1	0.158700	0.174120	0.853000
O21	O2	0.818700	0.659150	0.165800
C11	C1	0.796900	0.024500	0.950500
C21	C2	0.003700	0.062600	0.945800
C31	C3	0.001400	0.136300	0.866800
C41	C4	0.193300	0.540100	0.024400
O31	O3	0.658700	0.674120	0.353000
O41	O4	0.318700	0.159150	0.665800
C51	C5	0.296900	0.524500	0.450500
C61	C6	0.503700	0.562600	0.445800
C71	C7	0.501400	0.636300	0.366800
C81	C8	0.693300	0.040100	0.524400
O51	O5	0.841300	0.325880	0.853000
O61	O6	0.181300	0.840850	0.165800
C91	C9	0.203100	0.475500	0.950500
C101	C10	0.996300	0.437400	0.945800
C111	C11	0.998600	0.363700	0.866800
C121	C12	0.806700	0.959900	0.024400
O71	O7	0.341300	0.825880	0.353000
O81	O8	0.681300	0.340850	0.665800
C131	C13	0.703100	0.975500	0.450500
C141	C14	0.496300	0.937400	0.445800
C151	C15	0.498600	0.863700	0.366800
C161	C16	0.306700	0.459900	0.524400
O91	O9	0.841300	0.825880	0.147000
O101	O10	0.181300	0.340850	0.834200
C171	C17	0.203100	0.975500	0.049500
C181	C18	0.996300	0.937400	0.054200
C191	C19	0.998600	0.863700	0.133200
C201	C20	0.806700	0.459900	0.975600
O111	O11	0.341300	0.325880	0.647000
O121	O12	0.681300	0.840850	0.334200
C211	C21	0.703100	0.475500	0.549500
C221	C22	0.496300	0.437400	0.554200
C231	C23	0.498600	0.363700	0.633200
C241	C24	0.306700	0.959900	0.475600
O131	O13	0.158700	0.674120	0.147000
O141	O14	0.818700	0.159150	0.834200
C251	C25	0.796900	0.524500	0.049500
C261	C26	0.003700	0.562600	0.054200
C271	C27	0.001400	0.636300	0.133200
C281	C28	0.193300	0.040100	0.975600
O151	O15	0.658700	0.174120	0.647000
O161	O16	0.318700	0.659150	0.334200
C291	C29	0.296900	0.024500	0.549500
C301	C30	0.503700	0.062600	0.554200
C311	C31	0.501400	0.136300	0.633200
C321	C32	0.693300	0.540100	0.475600
Al11	Al1	0.250000	0.250000	0.750000
Al21	Al2	0.750000	0.250000	0.750000
Al31	Al3	0.750000	0.750000	0.250000
Al41	Al4	0.250000	0.750000	0.250000
F11	F1	0.000000	0.250000	0.690600
F21	F2	0.500000	0.750000	0.190600
F31	F3	0.000000	0.750000	0.309400
F41	F4	0.500000	0.250000	0.809400
