data_cm503311x_alf450K_freeONLY_PM
_symmetry_space_group_name_H-M	'P1'
_cell_length_a	6.568100
_cell_length_b	16.392700
_cell_length_c	13.166700
_cell_angle_alpha	90.000000
_cell_angle_beta	90.000000
_cell_angle_gamma	90.000000
_symmetry_Int_Tables_number 1

loop_
_symmetry_equiv_pos_as_xyz
'x,y,z'

loop_
_atom_site_label
_atom_site_type_symbol
_atom_site_fract_x
_atom_site_fract_y
_atom_site_fract_z
O11	O1	0.165800	0.168820	0.839400
C11	C1	0.805100	0.026600	0.953800
O21	O2	0.665800	0.668820	0.339400
C21	C2	0.305100	0.526600	0.453800
O31	O3	0.834200	0.331180	0.839400
C31	C3	0.194900	0.473400	0.953800
O41	O4	0.334200	0.831180	0.339400
C41	C4	0.694900	0.973400	0.453800
O51	O5	0.834200	0.668820	0.160600
C51	C5	0.194900	0.526600	0.046200
O61	O6	0.334200	0.168820	0.660600
C61	C6	0.694900	0.026600	0.546200
O71	O7	0.165800	0.831180	0.160600
C71	C7	0.805100	0.973400	0.046200
O81	O8	0.665800	0.331180	0.660600
C81	C8	0.305100	0.473400	0.546200
O91	O9	0.834200	0.831180	0.160600
C91	C9	0.194900	0.973400	0.046200
O101	O10	0.334200	0.331180	0.660600
C101	C10	0.694900	0.473400	0.546200
O111	O11	0.165800	0.668820	0.160600
C111	C11	0.805100	0.526600	0.046200
O121	O12	0.665800	0.168820	0.660600
C121	C12	0.305100	0.026600	0.546200
O131	O13	0.165800	0.331180	0.839400
C131	C13	0.805100	0.473400	0.953800
O141	O14	0.665800	0.831180	0.339400
C141	C14	0.305100	0.973400	0.453800
O151	O15	0.834200	0.168820	0.839400
C151	C15	0.194900	0.026600	0.953800
O161	O16	0.334200	0.668820	0.339400
C161	C16	0.694900	0.526600	0.453800
Al11	Al1	0.250000	0.250000	0.750000
Al21	Al2	0.750000	0.250000	0.750000
Al31	Al3	0.750000	0.750000	0.250000
Al41	Al4	0.250000	0.750000	0.250000
F11	F1	0.000000	0.250000	0.691300
F21	F2	0.500000	0.750000	0.191300
F31	F3	0.000000	0.750000	0.308700
F41	F4	0.500000	0.250000	0.808700
C171	C17	0.000000	0.063100	0.950800
C181	C18	0.000000	0.136300	0.871700
C191	C19	0.500000	0.563100	0.450800
C201	C20	0.500000	0.636300	0.371700
C211	C21	0.000000	0.436900	0.950800
C221	C22	0.000000	0.363700	0.871700
C231	C23	0.500000	0.936900	0.450800
C241	C24	0.500000	0.863700	0.371700
C251	C25	0.000000	0.563100	0.049200
C261	C26	0.000000	0.636300	0.128300
C271	C27	0.500000	0.063100	0.549200
C281	C28	0.500000	0.136300	0.628300
C291	C29	0.000000	0.936900	0.049200
C301	C30	0.000000	0.863700	0.128300
C311	C31	0.500000	0.436900	0.549200
C321	C32	0.500000	0.363700	0.628300
