data_cm503311x_alf300K_freeONLY_PM
_symmetry_space_group_name_H-M	'P1'
_cell_length_a	6.567800
_cell_length_b	16.405500
_cell_length_c	13.168700
_cell_angle_alpha	90.000000
_cell_angle_beta	90.000000
_cell_angle_gamma	90.000000
_symmetry_Int_Tables_number 1

loop_
_symmetry_equiv_pos_as_xyz
'x,y,z'

loop_
_atom_site_label
_atom_site_type_symbol
_atom_site_fract_x
_atom_site_fract_y
_atom_site_fract_z
O11	O1	0.169400	0.168050	0.840150
C11	C1	0.806800	0.029800	0.959100
O21	O2	0.669400	0.668050	0.340150
C21	C2	0.306800	0.529800	0.459100
O31	O3	0.830600	0.331950	0.840150
C31	C3	0.193200	0.470200	0.959100
O41	O4	0.330600	0.831950	0.340150
C41	C4	0.693200	0.970200	0.459100
O51	O5	0.830600	0.668050	0.159850
C51	C5	0.193200	0.529800	0.040900
O61	O6	0.330600	0.168050	0.659850
C61	C6	0.693200	0.029800	0.540900
O71	O7	0.169400	0.831950	0.159850
C71	C7	0.806800	0.970200	0.040900
O81	O8	0.669400	0.331950	0.659850
C81	C8	0.306800	0.470200	0.540900
O91	O9	0.830600	0.831950	0.159850
C91	C9	0.193200	0.970200	0.040900
O101	O10	0.330600	0.331950	0.659850
C101	C10	0.693200	0.470200	0.540900
O111	O11	0.169400	0.668050	0.159850
C111	C11	0.806800	0.529800	0.040900
O121	O12	0.669400	0.168050	0.659850
C121	C12	0.306800	0.029800	0.540900
O131	O13	0.169400	0.331950	0.840150
C131	C13	0.806800	0.470200	0.959100
O141	O14	0.669400	0.831950	0.340150
C141	C14	0.306800	0.970200	0.459100
O151	O15	0.830600	0.168050	0.840150
C151	C15	0.193200	0.029800	0.959100
O161	O16	0.330600	0.668050	0.340150
C161	C16	0.693200	0.529800	0.459100
Al11	Al1	0.250000	0.250000	0.750000
Al21	Al2	0.750000	0.250000	0.750000
Al31	Al3	0.750000	0.750000	0.250000
Al41	Al4	0.250000	0.750000	0.250000
F11	F1	0.000000	0.250000	0.693900
F21	F2	0.500000	0.750000	0.193900
F31	F3	0.000000	0.750000	0.306100
F41	F4	0.500000	0.250000	0.806100
C171	C17	0.000000	0.064400	0.947900
C181	C18	0.000000	0.137600	0.869800
C191	C19	0.500000	0.564400	0.447900
C201	C20	0.500000	0.637600	0.369800
C211	C21	0.000000	0.435600	0.947900
C221	C22	0.000000	0.362400	0.869800
C231	C23	0.500000	0.935600	0.447900
C241	C24	0.500000	0.862400	0.369800
C251	C25	0.000000	0.564400	0.052100
C261	C26	0.000000	0.637600	0.130200
C271	C27	0.500000	0.064400	0.552100
C281	C28	0.500000	0.137600	0.630200
C291	C29	0.000000	0.935600	0.052100
C301	C30	0.000000	0.862400	0.130200
C311	C31	0.500000	0.435600	0.552100
C321	C32	0.500000	0.362400	0.630200
