data_cm503311x_aloh200K_freeONLY_PM
_symmetry_space_group_name_H-M	'P1'
_cell_length_a	6.630500
_cell_length_b	16.783200
_cell_length_c	12.761800
_cell_angle_alpha	90.000000
_cell_angle_beta	90.000000
_cell_angle_gamma	90.000000
_symmetry_Int_Tables_number 1

loop_
_symmetry_equiv_pos_as_xyz
'x,y,z'

loop_
_atom_site_label
_atom_site_type_symbol
_atom_site_fract_x
_atom_site_fract_y
_atom_site_fract_z
O11	O1	0.167830	0.167690	0.843080
C11	C1	0.808300	0.035080	0.968200
O21	O2	0.667830	0.667690	0.343080
C21	C2	0.308300	0.535080	0.468200
O31	O3	0.832170	0.332310	0.843080
C31	C3	0.191700	0.464920	0.968200
O41	O4	0.332170	0.832310	0.343080
C41	C4	0.691700	0.964920	0.468200
O51	O5	0.832170	0.667690	0.156920
C51	C5	0.191700	0.535080	0.031800
O61	O6	0.332170	0.167690	0.656920
C61	C6	0.691700	0.035080	0.531800
O71	O7	0.167830	0.832310	0.156920
C71	C7	0.808300	0.964920	0.031800
O81	O8	0.667830	0.332310	0.656920
C81	C8	0.308300	0.464920	0.531800
O91	O9	0.832170	0.832310	0.156920
C91	C9	0.191700	0.964920	0.031800
O101	O10	0.332170	0.332310	0.656920
C101	C10	0.691700	0.464920	0.531800
O111	O11	0.167830	0.667690	0.156920
C111	C11	0.808300	0.535080	0.031800
O121	O12	0.667830	0.167690	0.656920
C121	C12	0.308300	0.035080	0.531800
O131	O13	0.167830	0.332310	0.843080
C131	C13	0.808300	0.464920	0.968200
O141	O14	0.667830	0.832310	0.343080
C141	C14	0.308300	0.964920	0.468200
O151	O15	0.832170	0.167690	0.843080
C151	C15	0.191700	0.035080	0.968200
O161	O16	0.332170	0.667690	0.343080
C161	C16	0.691700	0.535080	0.468200
Al11	Al1	0.250000	0.250000	0.750000
Al21	Al2	0.750000	0.250000	0.750000
Al31	Al3	0.750000	0.750000	0.250000
Al41	Al4	0.250000	0.750000	0.250000
O171	O17	0.000000	0.250000	0.685000
O181	O18	0.500000	0.750000	0.185000
O191	O19	0.000000	0.750000	0.315000
O201	O20	0.500000	0.250000	0.815000
C171	C17	0.000000	0.062800	0.944400
C181	C18	0.000000	0.138350	0.870400
C191	C19	0.500000	0.562800	0.444400
C201	C20	0.500000	0.638350	0.370400
C211	C21	0.000000	0.437200	0.944400
C221	C22	0.000000	0.361650	0.870400
C231	C23	0.500000	0.937200	0.444400
C241	C24	0.500000	0.861650	0.370400
C251	C25	0.000000	0.562800	0.055600
C261	C26	0.000000	0.638350	0.129600
C271	C27	0.500000	0.062800	0.555600
C281	C28	0.500000	0.138350	0.629600
C291	C29	0.000000	0.937200	0.055600
C301	C30	0.000000	0.861650	0.129600
C311	C31	0.500000	0.437200	0.555600
C321	C32	0.500000	0.361650	0.629600
