data_cm501138g_si_002_freeONLY_PM
_symmetry_space_group_name_H-M	'P1'
_cell_length_a	18.576500
_cell_length_b	18.576500
_cell_length_c	18.576500
_cell_angle_alpha	60.000000
_cell_angle_beta	60.000000
_cell_angle_gamma	60.000000
_symmetry_Int_Tables_number 1

loop_
_symmetry_equiv_pos_as_xyz
'x,y,z'

loop_
_atom_site_label
_atom_site_type_symbol
_atom_site_fract_x
_atom_site_fract_y
_atom_site_fract_z
Cu11	Cu1	0.567020	0.432980	0.000000
Cu21	Cu2	0.000000	0.567020	0.432980
Cu31	Cu3	0.000000	0.432980	0.000000
Cu41	Cu4	0.567020	0.000000	0.000000
Cu51	Cu5	0.432980	0.000000	0.567020
Cu61	Cu6	0.000000	0.000000	0.432980
Cu71	Cu7	0.000000	0.567020	0.000000
Cu81	Cu8	0.000000	0.432980	0.567020
Cu91	Cu9	0.432980	0.567020	0.000000
Cu101	Cu10	0.000000	0.000000	0.567020
Cu111	Cu11	0.432980	0.000000	0.000000
Cu121	Cu12	0.567020	0.000000	0.432980
H11	H1	0.970400	0.271200	0.271200
H21	H2	0.512800	0.728800	0.728800
H31	H3	0.728800	0.728800	0.029600
H41	H4	0.487200	0.271200	0.970400
H51	H5	0.970400	0.271200	0.487200
H61	H6	0.728800	0.512800	0.029600
H71	H7	0.487200	0.271200	0.271200
H81	H8	0.728800	0.029600	0.512800
H91	H9	0.029600	0.512800	0.728800
H101	H10	0.728800	0.728800	0.512800
H111	H11	0.487200	0.970400	0.271200
H121	H12	0.728800	0.029600	0.728800
H131	H13	0.271200	0.271200	0.970400
H141	H14	0.029600	0.728800	0.512800
H151	H15	0.029600	0.728800	0.728800
H161	H16	0.271200	0.271200	0.487200
H171	H17	0.512800	0.029600	0.728800
H181	H18	0.512800	0.728800	0.029600
H191	H19	0.271200	0.487200	0.970400
H201	H20	0.271200	0.970400	0.487200
H211	H21	0.970400	0.487200	0.271200
H221	H22	0.728800	0.512800	0.728800
H231	H23	0.271200	0.970400	0.271200
H241	H24	0.271200	0.487200	0.271200
C11	C1	0.386290	0.386290	0.256570
C21	C2	0.299980	0.299980	0.429400
C31	C3	0.256570	0.386290	0.970850
C41	C4	0.430920	0.161900	0.430920
C51	C5	0.429400	0.299980	0.299980
C61	C6	0.386290	0.386290	0.970850
C71	C7	0.299980	0.970640	0.299980
C81	C8	0.023740	0.569080	0.838100
C91	C9	0.029360	0.700020	0.570600
C101	C10	0.700020	0.700020	0.570600
C111	C11	0.613710	0.743430	0.613710
C121	C12	0.430920	0.161900	0.976260
C131	C13	0.386290	0.256570	0.386290
C141	C14	0.299980	0.970640	0.429400
C151	C15	0.570600	0.700020	0.700020
C161	C16	0.386290	0.256570	0.970850
C171	C17	0.970850	0.386290	0.256570
C181	C18	0.569080	0.569080	0.023740
C191	C19	0.430920	0.976260	0.161900
C201	C20	0.299980	0.299980	0.970640
C211	C21	0.299980	0.429400	0.970640
C221	C22	0.029360	0.700020	0.700020
C231	C23	0.386290	0.970850	0.256570
C241	C24	0.700020	0.029360	0.570600
C251	C25	0.976260	0.430920	0.161900
C261	C26	0.570600	0.029360	0.700020
C271	C27	0.613710	0.613710	0.029150
C281	C28	0.569080	0.023740	0.569080
C291	C29	0.029360	0.570600	0.700020
C301	C30	0.970640	0.299980	0.429400
C311	C31	0.161900	0.976260	0.430920
C321	C32	0.430920	0.430920	0.976260
C331	C33	0.023740	0.838100	0.569080
C341	C34	0.743430	0.613710	0.613710
C351	C35	0.029150	0.613710	0.743430
C361	C36	0.430920	0.976260	0.430920
C371	C37	0.838100	0.569080	0.023740
C381	C38	0.743430	0.029150	0.613710
C391	C39	0.838100	0.569080	0.569080
C401	C40	0.569080	0.023740	0.838100
C411	C41	0.838100	0.023740	0.569080
C421	C42	0.570600	0.700020	0.029360
C431	C43	0.613710	0.613710	0.743430
C441	C44	0.299980	0.429400	0.299980
C451	C45	0.161900	0.430920	0.430920
C461	C46	0.976260	0.430920	0.430920
C471	C47	0.613710	0.743430	0.029150
C481	C48	0.569080	0.838100	0.023740
C491	C49	0.161900	0.430920	0.976260
C501	C50	0.430920	0.430920	0.161900
C511	C51	0.970850	0.386290	0.386290
C521	C52	0.029150	0.743430	0.613710
C531	C53	0.970850	0.256570	0.386290
C541	C54	0.700020	0.029360	0.700020
C551	C55	0.429400	0.970640	0.299980
C561	C56	0.613710	0.029150	0.743430
C571	C57	0.386290	0.970850	0.386290
C581	C58	0.700020	0.570600	0.700020
C591	C59	0.970640	0.429400	0.299980
C601	C60	0.256570	0.386290	0.386290
C611	C61	0.569080	0.569080	0.838100
C621	C62	0.429400	0.299980	0.970640
C631	C63	0.970640	0.299980	0.299980
C641	C64	0.029150	0.613710	0.613710
C651	C65	0.700020	0.700020	0.029360
C661	C66	0.613710	0.029150	0.613710
C671	C67	0.023740	0.569080	0.569080
C681	C68	0.256570	0.970850	0.386290
C691	C69	0.743430	0.613710	0.029150
C701	C70	0.569080	0.838100	0.569080
C711	C71	0.700020	0.570600	0.029360
C721	C72	0.976260	0.161900	0.430920
O11	O1	0.020590	0.612550	0.874890
O21	O2	0.491970	0.612550	0.874890
O31	O3	0.387450	0.125110	0.979410
O41	O4	0.508030	0.979410	0.125110
O51	O5	0.125110	0.508030	0.387450
O61	O6	0.979410	0.387450	0.125110
O71	O7	0.125110	0.387450	0.979410
O81	O8	0.125110	0.979410	0.387450
O91	O9	0.612550	0.491970	0.874890
O101	O10	0.020590	0.874890	0.612550
O111	O11	0.874890	0.020590	0.491970
O121	O12	0.125110	0.979410	0.508030
O131	O13	0.979410	0.125110	0.508030
O141	O14	0.020590	0.491970	0.874890
O151	O15	0.508030	0.387450	0.125110
O161	O16	0.491970	0.874890	0.612550
O171	O17	0.612550	0.874890	0.020590
O181	O18	0.508030	0.979410	0.387450
O191	O19	0.491970	0.020590	0.612550
O201	O20	0.979410	0.125110	0.387450
O211	O21	0.387450	0.508030	0.125110
O221	O22	0.491970	0.874890	0.020590
O231	O23	0.612550	0.020590	0.491970
O241	O24	0.387450	0.979410	0.125110
O251	O25	0.979410	0.508030	0.387450
O261	O26	0.020590	0.874890	0.491970
O271	O27	0.020590	0.491970	0.612550
O281	O28	0.125110	0.387450	0.508030
O291	O29	0.508030	0.125110	0.979410
O301	O30	0.508030	0.387450	0.979410
O311	O31	0.387450	0.125110	0.508030
O321	O32	0.387450	0.979410	0.508030
O331	O33	0.125110	0.508030	0.979410
O341	O34	0.874890	0.612550	0.020590
O351	O35	0.020590	0.612550	0.491970
O361	O36	0.874890	0.491970	0.612550
O371	O37	0.508030	0.125110	0.387450
O381	O38	0.491970	0.020590	0.874890
O391	O39	0.387450	0.508030	0.979410
O401	O40	0.874890	0.491970	0.020590
O411	O41	0.612550	0.491970	0.020590
O421	O42	0.979410	0.387450	0.508030
O431	O43	0.874890	0.612550	0.491970
O441	O44	0.874890	0.020590	0.612550
O451	O45	0.491970	0.612550	0.020590
O461	O46	0.979410	0.508030	0.125110
O471	O47	0.612550	0.020590	0.874890
O481	O48	0.612550	0.874890	0.491970
