data_cm503311x_aloh450K_freeONLY_PM
_symmetry_space_group_name_H-M	'P1'
_cell_length_a	6.628700
_cell_length_b	16.722400
_cell_length_c	12.840600
_cell_angle_alpha	90.000000
_cell_angle_beta	90.000000
_cell_angle_gamma	90.000000
_symmetry_Int_Tables_number 1

loop_
_symmetry_equiv_pos_as_xyz
'x,y,z'

loop_
_atom_site_label
_atom_site_type_symbol
_atom_site_fract_x
_atom_site_fract_y
_atom_site_fract_z
O11	O1	0.165240	0.168470	0.842740
C11	C1	0.809100	0.035820	0.967700
O21	O2	0.665240	0.668470	0.342740
C21	C2	0.309100	0.535820	0.467700
O31	O3	0.834760	0.331530	0.842740
C31	C3	0.190900	0.464180	0.967700
O41	O4	0.334760	0.831530	0.342740
C41	C4	0.690900	0.964180	0.467700
O51	O5	0.834760	0.668470	0.157260
C51	C5	0.190900	0.535820	0.032300
O61	O6	0.334760	0.168470	0.657260
C61	C6	0.690900	0.035820	0.532300
O71	O7	0.165240	0.831530	0.157260
C71	C7	0.809100	0.964180	0.032300
O81	O8	0.665240	0.331530	0.657260
C81	C8	0.309100	0.464180	0.532300
O91	O9	0.834760	0.831530	0.157260
C91	C9	0.190900	0.964180	0.032300
O101	O10	0.334760	0.331530	0.657260
C101	C10	0.690900	0.464180	0.532300
O111	O11	0.165240	0.668470	0.157260
C111	C11	0.809100	0.535820	0.032300
O121	O12	0.665240	0.168470	0.657260
C121	C12	0.309100	0.035820	0.532300
O131	O13	0.165240	0.331530	0.842740
C131	C13	0.809100	0.464180	0.967700
O141	O14	0.665240	0.831530	0.342740
C141	C14	0.309100	0.964180	0.467700
O151	O15	0.834760	0.168470	0.842740
C151	C15	0.190900	0.035820	0.967700
O161	O16	0.334760	0.668470	0.342740
C161	C16	0.690900	0.535820	0.467700
Al11	Al1	0.250000	0.250000	0.750000
Al21	Al2	0.750000	0.250000	0.750000
Al31	Al3	0.750000	0.750000	0.250000
Al41	Al4	0.250000	0.750000	0.250000
O171	O17	0.000000	0.250000	0.685400
O181	O18	0.500000	0.750000	0.185400
O191	O19	0.000000	0.750000	0.314600
O201	O20	0.500000	0.250000	0.814600
C171	C17	0.000000	0.062100	0.947400
C181	C18	0.000000	0.136300	0.872500
C191	C19	0.500000	0.562100	0.447400
C201	C20	0.500000	0.636300	0.372500
C211	C21	0.000000	0.437900	0.947400
C221	C22	0.000000	0.363700	0.872500
C231	C23	0.500000	0.937900	0.447400
C241	C24	0.500000	0.863700	0.372500
C251	C25	0.000000	0.562100	0.052600
C261	C26	0.000000	0.636300	0.127500
C271	C27	0.500000	0.062100	0.552600
C281	C28	0.500000	0.136300	0.627500
C291	C29	0.000000	0.937900	0.052600
C301	C30	0.000000	0.863700	0.127500
C311	C31	0.500000	0.437900	0.552600
C321	C32	0.500000	0.363700	0.627500
