data_cm503311x_aloh325K_freeONLY_PM
_symmetry_space_group_name_H-M	'P1'
_cell_length_a	6.629300
_cell_length_b	16.751500
_cell_length_c	12.801900
_cell_angle_alpha	90.000000
_cell_angle_beta	90.000000
_cell_angle_gamma	90.000000
_symmetry_Int_Tables_number 1

loop_
_symmetry_equiv_pos_as_xyz
'x,y,z'

loop_
_atom_site_label
_atom_site_type_symbol
_atom_site_fract_x
_atom_site_fract_y
_atom_site_fract_z
O11	O1	0.166060	0.167800	0.843800
C11	C1	0.807900	0.034560	0.966800
O21	O2	0.666060	0.667800	0.343800
C21	C2	0.307900	0.534560	0.466800
O31	O3	0.833940	0.332200	0.843800
C31	C3	0.192100	0.465440	0.966800
O41	O4	0.333940	0.832200	0.343800
C41	C4	0.692100	0.965440	0.466800
O51	O5	0.833940	0.667800	0.156200
C51	C5	0.192100	0.534560	0.033200
O61	O6	0.333940	0.167800	0.656200
C61	C6	0.692100	0.034560	0.533200
O71	O7	0.166060	0.832200	0.156200
C71	C7	0.807900	0.965440	0.033200
O81	O8	0.666060	0.332200	0.656200
C81	C8	0.307900	0.465440	0.533200
O91	O9	0.833940	0.832200	0.156200
C91	C9	0.192100	0.965440	0.033200
O101	O10	0.333940	0.332200	0.656200
C101	C10	0.692100	0.465440	0.533200
O111	O11	0.166060	0.667800	0.156200
C111	C11	0.807900	0.534560	0.033200
O121	O12	0.666060	0.167800	0.656200
C121	C12	0.307900	0.034560	0.533200
O131	O13	0.166060	0.332200	0.843800
C131	C13	0.807900	0.465440	0.966800
O141	O14	0.666060	0.832200	0.343800
C141	C14	0.307900	0.965440	0.466800
O151	O15	0.833940	0.167800	0.843800
C151	C15	0.192100	0.034560	0.966800
O161	O16	0.333940	0.667800	0.343800
C161	C16	0.692100	0.534560	0.466800
Al11	Al1	0.250000	0.250000	0.750000
Al21	Al2	0.750000	0.250000	0.750000
Al31	Al3	0.750000	0.750000	0.250000
Al41	Al4	0.250000	0.750000	0.250000
O171	O17	0.000000	0.250000	0.684500
O181	O18	0.500000	0.750000	0.184500
O191	O19	0.000000	0.750000	0.315500
O201	O20	0.500000	0.250000	0.815500
C171	C17	0.000000	0.062600	0.945700
C181	C18	0.000000	0.138600	0.870200
C191	C19	0.500000	0.562600	0.445700
C201	C20	0.500000	0.638600	0.370200
C211	C21	0.000000	0.437400	0.945700
C221	C22	0.000000	0.361400	0.870200
C231	C23	0.500000	0.937400	0.445700
C241	C24	0.500000	0.861400	0.370200
C251	C25	0.000000	0.562600	0.054300
C261	C26	0.000000	0.638600	0.129800
C271	C27	0.500000	0.062600	0.554300
C281	C28	0.500000	0.138600	0.629800
C291	C29	0.000000	0.937400	0.054300
C301	C30	0.000000	0.861400	0.129800
C311	C31	0.500000	0.437400	0.554300
C321	C32	0.500000	0.361400	0.629800
