data_cm503311x_aloh175K_freeONLY_PM
_symmetry_space_group_name_H-M	'P1'
_cell_length_a	6.630300
_cell_length_b	16.790200
_cell_length_c	12.753800
_cell_angle_alpha	90.000000
_cell_angle_beta	90.000000
_cell_angle_gamma	90.000000
_symmetry_Int_Tables_number 1

loop_
_symmetry_equiv_pos_as_xyz
'x,y,z'

loop_
_atom_site_label
_atom_site_type_symbol
_atom_site_fract_x
_atom_site_fract_y
_atom_site_fract_z
O11	O1	0.167560	0.168080	0.843510
C11	C1	0.807800	0.035650	0.969600
O21	O2	0.667560	0.668080	0.343510
C21	C2	0.307800	0.535650	0.469600
O31	O3	0.832440	0.331920	0.843510
C31	C3	0.192200	0.464350	0.969600
O41	O4	0.332440	0.831920	0.343510
C41	C4	0.692200	0.964350	0.469600
O51	O5	0.832440	0.668080	0.156490
C51	C5	0.192200	0.535650	0.030400
O61	O6	0.332440	0.168080	0.656490
C61	C6	0.692200	0.035650	0.530400
O71	O7	0.167560	0.831920	0.156490
C71	C7	0.807800	0.964350	0.030400
O81	O8	0.667560	0.331920	0.656490
C81	C8	0.307800	0.464350	0.530400
O91	O9	0.832440	0.831920	0.156490
C91	C9	0.192200	0.964350	0.030400
O101	O10	0.332440	0.331920	0.656490
C101	C10	0.692200	0.464350	0.530400
O111	O11	0.167560	0.668080	0.156490
C111	C11	0.807800	0.535650	0.030400
O121	O12	0.667560	0.168080	0.656490
C121	C12	0.307800	0.035650	0.530400
O131	O13	0.167560	0.331920	0.843510
C131	C13	0.807800	0.464350	0.969600
O141	O14	0.667560	0.831920	0.343510
C141	C14	0.307800	0.964350	0.469600
O151	O15	0.832440	0.168080	0.843510
C151	C15	0.192200	0.035650	0.969600
O161	O16	0.332440	0.668080	0.343510
C161	C16	0.692200	0.535650	0.469600
Al11	Al1	0.250000	0.250000	0.750000
Al21	Al2	0.750000	0.250000	0.750000
Al31	Al3	0.750000	0.750000	0.250000
Al41	Al4	0.250000	0.750000	0.250000
O171	O17	0.000000	0.250000	0.684600
O181	O18	0.500000	0.750000	0.184600
O191	O19	0.000000	0.750000	0.315400
O201	O20	0.500000	0.250000	0.815400
C171	C17	0.000000	0.062650	0.945000
C181	C18	0.000000	0.137560	0.871100
C191	C19	0.500000	0.562650	0.445000
C201	C20	0.500000	0.637560	0.371100
C211	C21	0.000000	0.437350	0.945000
C221	C22	0.000000	0.362440	0.871100
C231	C23	0.500000	0.937350	0.445000
C241	C24	0.500000	0.862440	0.371100
C251	C25	0.000000	0.562650	0.055000
C261	C26	0.000000	0.637560	0.128900
C271	C27	0.500000	0.062650	0.555000
C281	C28	0.500000	0.137560	0.628900
C291	C29	0.000000	0.937350	0.055000
C301	C30	0.000000	0.862440	0.128900
C311	C31	0.500000	0.437350	0.555000
C321	C32	0.500000	0.362440	0.628900
