data_cm503311x_aloh150K_freeONLY_PM
_symmetry_space_group_name_H-M	'P1'
_cell_length_a	6.630300
_cell_length_b	16.797300
_cell_length_c	12.746900
_cell_angle_alpha	90.000000
_cell_angle_beta	90.000000
_cell_angle_gamma	90.000000
_symmetry_Int_Tables_number 1

loop_
_symmetry_equiv_pos_as_xyz
'x,y,z'

loop_
_atom_site_label
_atom_site_type_symbol
_atom_site_fract_x
_atom_site_fract_y
_atom_site_fract_z
O11	O1	0.167930	0.167700	0.842620
C11	C1	0.808100	0.035150	0.969400
O21	O2	0.667930	0.667700	0.342620
C21	C2	0.308100	0.535150	0.469400
O31	O3	0.832070	0.332300	0.842620
C31	C3	0.191900	0.464850	0.969400
O41	O4	0.332070	0.832300	0.342620
C41	C4	0.691900	0.964850	0.469400
O51	O5	0.832070	0.667700	0.157380
C51	C5	0.191900	0.535150	0.030600
O61	O6	0.332070	0.167700	0.657380
C61	C6	0.691900	0.035150	0.530600
O71	O7	0.167930	0.832300	0.157380
C71	C7	0.808100	0.964850	0.030600
O81	O8	0.667930	0.332300	0.657380
C81	C8	0.308100	0.464850	0.530600
O91	O9	0.832070	0.832300	0.157380
C91	C9	0.191900	0.964850	0.030600
O101	O10	0.332070	0.332300	0.657380
C101	C10	0.691900	0.464850	0.530600
O111	O11	0.167930	0.667700	0.157380
C111	C11	0.808100	0.535150	0.030600
O121	O12	0.667930	0.167700	0.657380
C121	C12	0.308100	0.035150	0.530600
O131	O13	0.167930	0.332300	0.842620
C131	C13	0.808100	0.464850	0.969400
O141	O14	0.667930	0.832300	0.342620
C141	C14	0.308100	0.964850	0.469400
O151	O15	0.832070	0.167700	0.842620
C151	C15	0.191900	0.035150	0.969400
O161	O16	0.332070	0.667700	0.342620
C161	C16	0.691900	0.535150	0.469400
Al11	Al1	0.250000	0.250000	0.750000
Al21	Al2	0.750000	0.250000	0.750000
Al31	Al3	0.750000	0.750000	0.250000
Al41	Al4	0.250000	0.750000	0.250000
O171	O17	0.000000	0.250000	0.686100
O181	O18	0.500000	0.750000	0.186100
O191	O19	0.000000	0.750000	0.313900
O201	O20	0.500000	0.250000	0.813900
C171	C17	0.000000	0.063000	0.945100
C181	C18	0.000000	0.137750	0.871000
C191	C19	0.500000	0.563000	0.445100
C201	C20	0.500000	0.637750	0.371000
C211	C21	0.000000	0.437000	0.945100
C221	C22	0.000000	0.362250	0.871000
C231	C23	0.500000	0.937000	0.445100
C241	C24	0.500000	0.862250	0.371000
C251	C25	0.000000	0.563000	0.054900
C261	C26	0.000000	0.637750	0.129000
C271	C27	0.500000	0.063000	0.554900
C281	C28	0.500000	0.137750	0.629000
C291	C29	0.000000	0.937000	0.054900
C301	C30	0.000000	0.862250	0.129000
C311	C31	0.500000	0.437000	0.554900
C321	C32	0.500000	0.362250	0.629000
