data_COCMAJ_freeONLY_PM
_symmetry_space_group_name_H-M	'P1'
_cell_length_a	13.510000
_cell_length_b	27.370000
_cell_length_c	27.991000
_cell_angle_alpha	90.000000
_cell_angle_beta	90.000000
_cell_angle_gamma	90.000000
_symmetry_Int_Tables_number 1

loop_
_symmetry_equiv_pos_as_xyz
'x,y,z'

loop_
_atom_site_label
_atom_site_type_symbol
_atom_site_fract_x
_atom_site_fract_y
_atom_site_fract_z
Zn11	Zn1	0.384020	0.503700	0.041420
Zn21	Zn2	0.591910	0.463800	0.972950
Zn31	Zn3	0.260010	0.687000	0.744800
Zn41	Zn4	0.063820	0.764780	0.784830
Zn51	Zn5	0.115980	0.496300	0.541420
Zn61	Zn6	0.908090	0.536200	0.472950
Zn71	Zn7	0.239990	0.313000	0.244800
Zn81	Zn8	0.436180	0.235220	0.284830
Zn91	Zn9	0.615980	0.003700	0.458580
Zn101	Zn10	0.408090	0.963800	0.527050
Zn111	Zn11	0.739990	0.187000	0.755200
Zn121	Zn12	0.936180	0.264780	0.715170
Zn131	Zn13	0.884020	0.996300	0.958580
Zn141	Zn14	0.091910	0.036200	0.027050
Zn151	Zn15	0.760010	0.813000	0.255200
Zn161	Zn16	0.563820	0.735220	0.215170
H11	H1	0.023000	0.681000	0.907000
H21	H2	0.280400	0.611700	0.879000
H31	H3	0.131600	0.589000	0.002600
H41	H4	0.691100	0.374300	0.075400
H51	H5	0.433700	0.389700	0.145500
H61	H6	0.627600	0.282800	0.179600
H71	H7	0.745900	0.584700	0.990200
H81	H8	0.569200	0.622100	0.100100
H91	H9	0.840000	0.683600	0.084200
H101	H10	0.505600	0.206800	0.851100
H111	H11	0.648400	0.329800	0.892700
H121	H12	0.371900	0.298700	0.937800
H131	H13	0.294100	0.601000	0.087000
H141	H14	0.199700	0.567600	0.099300
H151	H15	0.214800	0.581400	0.181400
H161	H16	0.269600	0.630800	0.164100
H171	H17	0.417400	0.600700	0.177900
H181	H18	0.359300	0.564700	0.213600
H191	H19	0.380800	0.502700	0.166800
H201	H20	0.460700	0.535700	0.139400
H211	H21	0.650600	0.426700	0.863500
H221	H22	0.534800	0.436500	0.854900
H231	H23	0.695200	0.488600	0.812700
H241	H24	0.600300	0.465000	0.785700
H251	H25	0.583100	0.552900	0.809500
H261	H26	0.492300	0.517500	0.823000
H271	H27	0.523800	0.548400	0.896600
H281	H28	0.640700	0.554300	0.886000
H291	H29	0.787100	0.496700	0.027100
H301	H30	0.825900	0.441400	0.028500
H311	H31	0.968600	0.474700	0.009100
H321	H32	0.916600	0.522100	0.985300
H331	H33	0.958200	0.476100	0.919700
H341	H34	0.924400	0.426000	0.945700
H351	H35	0.788300	0.452600	0.901300
H361	H36	0.798600	0.506800	0.923100
H371	H37	0.233500	0.587700	0.676500
H381	H38	0.330500	0.616600	0.659400
H391	H39	0.316200	0.520400	0.672600
H401	H40	0.415900	0.550000	0.660100
H411	H41	0.376900	0.507100	0.743400
H421	H42	0.468500	0.543300	0.733300
H431	H43	0.394400	0.592800	0.783700
H441	H44	0.290600	0.564600	0.778900
H451	H45	0.080800	0.896600	0.761700
H461	H46	0.179000	0.864100	0.755400
H471	H47	0.182000	0.874400	0.677000
H481	H48	0.133900	0.925900	0.692900
H491	H49	0.040500	0.872400	0.636200
H501	H50	0.980800	0.900900	0.677500
H511	H51	0.029400	0.802600	0.672700
H521	H52	0.933800	0.827600	0.696600
H531	H53	0.477000	0.319000	0.407000
H541	H54	0.219600	0.388300	0.379000
H551	H55	0.368400	0.411000	0.502600
H561	H56	0.808900	0.625700	0.575400
H571	H57	0.066300	0.610300	0.645500
H581	H58	0.872400	0.717200	0.679600
H591	H59	0.754100	0.415300	0.490200
H601	H60	0.930800	0.377900	0.600100
H611	H61	0.660000	0.316400	0.584200
H621	H62	0.994400	0.793200	0.351100
H631	H63	0.851600	0.670200	0.392700
H641	H64	0.128100	0.701300	0.437800
H651	H65	0.205900	0.399000	0.587000
H661	H66	0.300300	0.432400	0.599300
H671	H67	0.285200	0.418600	0.681400
H681	H68	0.230400	0.369200	0.664100
H691	H69	0.082600	0.399300	0.677900
H701	H70	0.140700	0.435300	0.713600
H711	H71	0.119200	0.497300	0.666800
H721	H72	0.039300	0.464300	0.639400
H731	H73	0.849400	0.573300	0.363500
H741	H74	0.965200	0.563500	0.354900
H751	H75	0.804800	0.511400	0.312700
H761	H76	0.899700	0.535000	0.285700
H771	H77	0.916900	0.447100	0.309500
H781	H78	0.007700	0.482500	0.323000
H791	H79	0.976200	0.451600	0.396600
H801	H80	0.859300	0.445700	0.386000
H811	H81	0.712900	0.503300	0.527100
H821	H82	0.674100	0.558600	0.528500
H831	H83	0.531400	0.525300	0.509100
H841	H84	0.583400	0.477900	0.485300
H851	H85	0.541800	0.523900	0.419700
H861	H86	0.575600	0.574000	0.445700
H871	H87	0.711700	0.547400	0.401300
H881	H88	0.701400	0.493200	0.423100
H891	H89	0.266500	0.412300	0.176500
H901	H90	0.169500	0.383400	0.159400
H911	H91	0.183800	0.479600	0.172600
H921	H92	0.084100	0.450000	0.160100
H931	H93	0.123100	0.492900	0.243400
H941	H94	0.031500	0.456700	0.233300
H951	H95	0.105600	0.407200	0.283700
H961	H96	0.209400	0.435400	0.278900
H971	H97	0.419200	0.103400	0.261700
H981	H98	0.321000	0.135900	0.255400
H991	H99	0.318000	0.125600	0.177000
H1001	H100	0.366100	0.074100	0.192900
H1011	H101	0.459500	0.127600	0.136200
H1021	H102	0.519200	0.099100	0.177500
H1031	H103	0.470600	0.197400	0.172700
H1041	H104	0.566200	0.172400	0.196600
H1051	H105	0.977000	0.181000	0.593000
H1061	H106	0.719600	0.111700	0.621000
H1071	H107	0.868400	0.089000	0.497400
H1081	H108	0.308900	0.874300	0.424600
H1091	H109	0.566300	0.889700	0.354500
H1101	H110	0.372400	0.782800	0.320400
H1111	H111	0.254100	0.084700	0.509800
H1121	H112	0.430800	0.122100	0.399900
H1131	H113	0.160000	0.183600	0.415800
H1141	H114	0.494400	0.706800	0.648900
H1151	H115	0.351600	0.829800	0.607300
H1161	H116	0.628100	0.798700	0.562200
H1171	H117	0.705900	0.101000	0.413000
H1181	H118	0.800300	0.067600	0.400700
H1191	H119	0.785200	0.081400	0.318600
H1201	H120	0.730400	0.130800	0.335900
H1211	H121	0.582600	0.100700	0.322100
H1221	H122	0.640700	0.064700	0.286400
H1231	H123	0.619200	0.002700	0.333200
H1241	H124	0.539300	0.035700	0.360600
H1251	H125	0.349400	0.926700	0.636500
H1261	H126	0.465200	0.936500	0.645100
H1271	H127	0.304800	0.988600	0.687300
H1281	H128	0.399700	0.965000	0.714300
H1291	H129	0.416900	0.052900	0.690500
H1301	H130	0.507700	0.017500	0.677000
H1311	H131	0.476200	0.048400	0.603400
H1321	H132	0.359300	0.054300	0.614000
H1331	H133	0.212900	0.996700	0.472900
H1341	H134	0.174100	0.941400	0.471500
H1351	H135	0.031400	0.974700	0.490900
H1361	H136	0.083400	0.022100	0.514700
H1371	H137	0.041800	0.976100	0.580300
H1381	H138	0.075600	0.926000	0.554300
H1391	H139	0.211700	0.952600	0.598700
H1401	H140	0.201400	0.006800	0.576900
H1411	H141	0.766500	0.087700	0.823500
H1421	H142	0.669500	0.116600	0.840600
H1431	H143	0.683800	0.020400	0.827400
H1441	H144	0.584100	0.050000	0.839900
H1451	H145	0.623100	0.007100	0.756600
H1461	H146	0.531500	0.043300	0.766700
H1471	H147	0.605600	0.092800	0.716300
H1481	H148	0.709400	0.064600	0.721100
H1491	H149	0.919200	0.396600	0.738300
H1501	H150	0.821000	0.364100	0.744600
H1511	H151	0.818000	0.374400	0.823000
H1521	H152	0.866100	0.425900	0.807100
H1531	H153	0.959500	0.372400	0.863800
H1541	H154	0.019200	0.400900	0.822500
H1551	H155	0.970600	0.302600	0.827300
H1561	H156	0.066200	0.327600	0.803400
H1571	H157	0.523000	0.819000	0.093000
H1581	H158	0.780400	0.888300	0.121000
H1591	H159	0.631600	0.911000	0.997400
H1601	H160	0.191100	0.125700	0.924600
H1611	H161	0.933700	0.110300	0.854500
H1621	H162	0.127600	0.217200	0.820400
H1631	H163	0.245900	0.915300	0.009800
H1641	H164	0.069200	0.877900	0.899900
H1651	H165	0.340000	0.816400	0.915800
H1661	H166	0.005600	0.293200	0.148900
H1671	H167	0.148400	0.170200	0.107300
H1681	H168	0.871900	0.201300	0.062200
H1691	H169	0.794100	0.899000	0.913000
H1701	H170	0.699700	0.932400	0.900700
H1711	H171	0.714800	0.918600	0.818600
H1721	H172	0.769600	0.869200	0.835900
H1731	H173	0.917400	0.899300	0.822100
H1741	H174	0.859300	0.935300	0.786400
H1751	H175	0.880800	0.997300	0.833200
H1761	H176	0.960700	0.964300	0.860600
H1771	H177	0.150600	0.073300	0.136500
H1781	H178	0.034800	0.063500	0.145100
H1791	H179	0.195200	0.011400	0.187300
H1801	H180	0.100300	0.035000	0.214300
H1811	H181	0.083100	0.947100	0.190500
H1821	H182	0.992300	0.982500	0.177000
H1831	H183	0.023800	0.951600	0.103400
H1841	H184	0.140700	0.945700	0.114000
H1851	H185	0.287100	0.003300	0.972900
H1861	H186	0.325900	0.058600	0.971500
H1871	H187	0.468600	0.025300	0.990900
H1881	H188	0.416600	0.977900	0.014700
H1891	H189	0.458200	0.023900	0.080300
H1901	H190	0.424400	0.074000	0.054300
H1911	H191	0.288300	0.047400	0.098700
H1921	H192	0.298600	0.993200	0.076900
H1931	H193	0.733500	0.912300	0.323500
H1941	H194	0.830500	0.883400	0.340600
H1951	H195	0.816200	0.979600	0.327400
H1961	H196	0.915900	0.950000	0.339900
H1971	H197	0.876900	0.992900	0.256600
H1981	H198	0.968500	0.956700	0.266700
H1991	H199	0.894400	0.907200	0.216300
H2001	H200	0.790600	0.935400	0.221100
H2011	H201	0.580800	0.603400	0.238300
H2021	H202	0.679000	0.635900	0.244600
H2031	H203	0.682000	0.625600	0.323000
H2041	H204	0.633900	0.574100	0.307100
H2051	H205	0.540500	0.627600	0.363800
H2061	H206	0.480800	0.599100	0.322500
H2071	H207	0.529400	0.697400	0.327300
H2081	H208	0.433800	0.672400	0.303400
Pd11	Pd1	0.934920	0.637250	0.995680
Pd21	Pd2	0.799780	0.288680	0.114570
Pd31	Pd3	0.565080	0.362750	0.495680
Pd41	Pd4	0.700220	0.711320	0.614570
Pd51	Pd5	0.065080	0.137250	0.504320
Pd61	Pd6	0.200220	0.788680	0.385430
Pd71	Pd7	0.434920	0.862750	0.004320
Pd81	Pd8	0.299780	0.211320	0.885430
C11	C1	0.072600	0.658200	0.916100
C21	C2	0.152300	0.651200	0.885900
C31	C3	0.226000	0.618300	0.899500
C41	C4	0.218100	0.595500	0.943500
C51	C5	0.136000	0.604300	0.972300
C61	C6	0.156600	0.677300	0.838500
C71	C7	0.296300	0.559400	0.961300
C81	C8	0.646700	0.363500	0.099400
C91	C9	0.556400	0.388000	0.105900
C101	C10	0.494400	0.372900	0.140400
C111	C11	0.518500	0.332900	0.168500
C121	C12	0.609200	0.309900	0.160500
C131	C13	0.531200	0.430600	0.073500
C141	C14	0.452300	0.312400	0.206900
C151	C15	0.735000	0.603600	0.018200
C161	C16	0.647300	0.597800	0.042600
C171	C17	0.629600	0.625200	0.083000
C181	C18	0.702800	0.657900	0.098100
C191	C19	0.790000	0.662000	0.073100
C201	C20	0.690700	0.687000	0.143700
C211	C21	0.575700	0.559300	0.024600
C221	C22	0.506900	0.236500	0.868700
C231	C23	0.591900	0.266000	0.867600
C241	C24	0.592400	0.308800	0.893500
C251	C25	0.511000	0.320900	0.920800
C261	C26	0.428800	0.290200	0.919700
C271	C27	0.674500	0.253300	0.833000
C281	C28	0.504800	0.368600	0.947400
C291	C29	0.268300	0.575600	0.108900
C301	C30	0.271000	0.594600	0.162700
C311	C31	0.365400	0.575400	0.179900
C321	C32	0.390300	0.533600	0.148900
C331	C33	0.600100	0.452400	0.858600
C341	C34	0.624000	0.480900	0.815300
C351	C35	0.563000	0.524100	0.828700
C361	C36	0.581900	0.533200	0.881000
C371	C37	0.816300	0.470100	0.007500
C381	C38	0.913100	0.486200	0.988800
C391	C39	0.911200	0.461400	0.942700
C401	C40	0.807600	0.471600	0.930000
C411	C41	0.304000	0.594000	0.683800
C421	C42	0.360000	0.547700	0.682600
C431	C43	0.396000	0.540000	0.731800
C441	C44	0.347000	0.578600	0.760800
C451	C45	0.113600	0.871800	0.741400
C461	C46	0.125000	0.890000	0.693200
C471	C47	0.032000	0.876100	0.671200
C481	C48	0.006500	0.830100	0.692900
C491	C49	0.427400	0.341800	0.416100
C501	C50	0.347700	0.348800	0.385900
C511	C51	0.274000	0.381700	0.399500
C521	C52	0.281900	0.404500	0.443500
C531	C53	0.364000	0.395700	0.472300
C541	C54	0.343400	0.322700	0.338500
C551	C55	0.203700	0.440600	0.461300
C561	C56	0.853300	0.636500	0.599400
C571	C57	0.943600	0.612000	0.605900
C581	C58	0.005600	0.627100	0.640400
C591	C59	0.981500	0.667100	0.668500
C601	C60	0.890800	0.690100	0.660500
C611	C61	0.968800	0.569400	0.573500
C621	C62	0.047700	0.687600	0.706900
C631	C63	0.765000	0.396400	0.518200
C641	C64	0.852700	0.402200	0.542600
C651	C65	0.870400	0.374800	0.583000
C661	C66	0.797200	0.342100	0.598100
C671	C67	0.710000	0.338000	0.573100
C681	C68	0.809300	0.313000	0.643700
C691	C69	0.924300	0.440700	0.524600
C701	C70	0.993100	0.763500	0.368700
C711	C71	0.908100	0.734000	0.367600
C721	C72	0.907600	0.691200	0.393500
C731	C73	0.989000	0.679100	0.420800
C741	C74	0.071200	0.709800	0.419700
C751	C75	0.825500	0.746700	0.333000
C761	C76	0.995200	0.631400	0.447400
C771	C77	0.231700	0.424400	0.608900
C781	C78	0.229000	0.405400	0.662700
C791	C79	0.134600	0.424600	0.679900
C801	C80	0.109700	0.466400	0.648900
C811	C81	0.899900	0.547600	0.358600
C821	C82	0.876000	0.519100	0.315300
C831	C83	0.937000	0.475900	0.328700
C841	C84	0.918100	0.466800	0.381000
C851	C85	0.683700	0.529900	0.507500
C861	C86	0.586900	0.513800	0.488800
C871	C87	0.588800	0.538600	0.442700
C881	C88	0.692400	0.528400	0.430000
C891	C89	0.196000	0.406000	0.183800
C901	C90	0.140000	0.452300	0.182600
C911	C91	0.104000	0.460000	0.231800
C921	C92	0.153000	0.421400	0.260800
C931	C93	0.386400	0.128200	0.241400
C941	C94	0.375000	0.110000	0.193200
C951	C95	0.468000	0.123900	0.171200
C961	C96	0.493500	0.169900	0.192900
C971	C97	0.927400	0.158200	0.583900
C981	C98	0.847700	0.151200	0.614100
C991	C99	0.774000	0.118300	0.600500
C1001	C100	0.781900	0.095500	0.556500
C1011	C101	0.864000	0.104300	0.527700
C1021	C102	0.843400	0.177300	0.661500
C1031	C103	0.703700	0.059400	0.538700
C1041	C104	0.353300	0.863500	0.400600
C1051	C105	0.443600	0.888000	0.394100
C1061	C106	0.505600	0.872900	0.359600
C1071	C107	0.481500	0.832900	0.331500
C1081	C108	0.390800	0.809900	0.339500
C1091	C109	0.468800	0.930600	0.426500
C1101	C110	0.547700	0.812400	0.293100
C1111	C111	0.265000	0.103600	0.481800
C1121	C112	0.352700	0.097800	0.457400
C1131	C113	0.370400	0.125200	0.417000
C1141	C114	0.297200	0.157900	0.401900
C1151	C115	0.210000	0.162000	0.426900
C1161	C116	0.309300	0.187000	0.356300
C1171	C117	0.424300	0.059300	0.475400
C1181	C118	0.493100	0.736500	0.631300
C1191	C119	0.408100	0.766000	0.632400
C1201	C120	0.407600	0.808800	0.606500
C1211	C121	0.489000	0.820900	0.579200
C1221	C122	0.571200	0.790200	0.580300
C1231	C123	0.325500	0.753300	0.667000
C1241	C124	0.495200	0.868600	0.552600
C1251	C125	0.731700	0.075600	0.391100
C1261	C126	0.729000	0.094600	0.337300
C1271	C127	0.634600	0.075400	0.320100
C1281	C128	0.609700	0.033600	0.351100
C1291	C129	0.399900	0.952400	0.641400
C1301	C130	0.376000	0.980900	0.684700
C1311	C131	0.437000	0.024100	0.671300
C1321	C132	0.418100	0.033200	0.619000
C1331	C133	0.183700	0.970100	0.492500
C1341	C134	0.086900	0.986200	0.511200
C1351	C135	0.088800	0.961400	0.557300
C1361	C136	0.192400	0.971600	0.570000
C1371	C137	0.696000	0.094000	0.816200
C1381	C138	0.640000	0.047700	0.817400
C1391	C139	0.604000	0.040000	0.768200
C1401	C140	0.653000	0.078600	0.739200
C1411	C141	0.886400	0.371800	0.758600
C1421	C142	0.875000	0.390000	0.806800
C1431	C143	0.968000	0.376100	0.828800
C1441	C144	0.993500	0.330100	0.807100
C1451	C145	0.572600	0.841800	0.083900
C1461	C146	0.652300	0.848800	0.114100
C1471	C147	0.726000	0.881700	0.100500
C1481	C148	0.718100	0.904500	0.056500
C1491	C149	0.636000	0.895700	0.027700
C1501	C150	0.656600	0.822700	0.161500
C1511	C151	0.796300	0.940600	0.038700
C1521	C152	0.146700	0.136500	0.900600
C1531	C153	0.056400	0.112000	0.894100
C1541	C154	0.994400	0.127100	0.859600
C1551	C155	0.018500	0.167100	0.831500
C1561	C156	0.109200	0.190100	0.839500
C1571	C157	0.031200	0.069400	0.926500
C1581	C158	0.952300	0.187600	0.793100
C1591	C159	0.235000	0.896400	0.981800
C1601	C160	0.147300	0.902200	0.957400
C1611	C161	0.129600	0.874800	0.917000
C1621	C162	0.202800	0.842100	0.901900
C1631	C163	0.290000	0.838000	0.926900
C1641	C164	0.190700	0.813000	0.856300
C1651	C165	0.075700	0.940700	0.975400
C1661	C166	0.006900	0.263500	0.131300
C1671	C167	0.091900	0.234000	0.132400
C1681	C168	0.092400	0.191200	0.106500
C1691	C169	0.011000	0.179100	0.079200
C1701	C170	0.928800	0.209800	0.080300
C1711	C171	0.174500	0.246700	0.167000
C1721	C172	0.004800	0.131400	0.052600
C1731	C173	0.768300	0.924400	0.891100
C1741	C174	0.771000	0.905400	0.837300
C1751	C175	0.865400	0.924600	0.820100
C1761	C176	0.890300	0.966400	0.851100
C1771	C177	0.100100	0.047600	0.141400
C1781	C178	0.124000	0.019100	0.184700
C1791	C179	0.063000	0.975900	0.171300
C1801	C180	0.081900	0.966800	0.119000
C1811	C181	0.316300	0.029900	0.992500
C1821	C182	0.413100	0.013800	0.011200
C1831	C183	0.411200	0.038600	0.057300
C1841	C184	0.307600	0.028400	0.070000
C1851	C185	0.804000	0.906000	0.316200
C1861	C186	0.860000	0.952300	0.317400
C1871	C187	0.896000	0.960000	0.268200
C1881	C188	0.847000	0.921400	0.239200
C1891	C189	0.613600	0.628200	0.258600
C1901	C190	0.625000	0.610000	0.306800
C1911	C191	0.532000	0.623900	0.328800
C1921	C192	0.506500	0.669900	0.307100
N11	N1	0.061700	0.634500	0.957600
N21	N2	0.805800	0.635000	0.032100
N31	N3	0.670900	0.325600	0.126000
N41	N4	0.427500	0.249700	0.894400
N51	N5	0.438300	0.365500	0.457600
N61	N6	0.694200	0.365000	0.532100
N71	N7	0.829100	0.674400	0.626000
N81	N8	0.072500	0.750300	0.394400
N91	N9	0.938300	0.134500	0.542400
N101	N10	0.194200	0.135000	0.467900
N111	N11	0.329100	0.825600	0.374000
N121	N12	0.572500	0.749700	0.605600
N131	N13	0.561700	0.865500	0.042400
N141	N14	0.305800	0.865000	0.967900
N151	N15	0.170900	0.174400	0.874000
N161	N16	0.927500	0.250300	0.105600
Cl11	Cl1	0.847640	0.632180	0.924520
Cl21	Cl2	0.021730	0.640390	0.065910
Cl31	Cl3	0.883070	0.361100	0.105840
Cl41	Cl4	0.718100	0.216260	0.124520
Cl51	Cl5	0.652360	0.367820	0.424520
Cl61	Cl6	0.478270	0.359610	0.565910
Cl71	Cl7	0.616930	0.638900	0.605840
Cl81	Cl8	0.781900	0.783740	0.624520
Cl91	Cl9	0.152360	0.132180	0.575480
Cl101	Cl10	0.978270	0.140390	0.434090
Cl111	Cl11	0.116930	0.861100	0.394160
Cl121	Cl12	0.281900	0.716260	0.375480
Cl131	Cl13	0.347640	0.867820	0.075480
Cl141	Cl14	0.521730	0.859610	0.934090
Cl151	Cl15	0.383070	0.138900	0.894160
Cl161	Cl16	0.218100	0.283740	0.875480
O11	O1	0.087800	0.707100	0.831000
O21	O2	0.225200	0.664800	0.811110
O31	O3	0.293800	0.549800	0.004300
O41	O4	0.354300	0.543000	0.930900
O51	O5	0.451000	0.450900	0.080660
O61	O6	0.596900	0.442100	0.042840
O71	O7	0.368600	0.332700	0.211100
O81	O8	0.484900	0.276900	0.229700
O91	O9	0.606100	0.687800	0.162100
O101	O10	0.766400	0.708200	0.159000
O111	O11	0.497900	0.553800	0.047000
O121	O12	0.605500	0.535700	0.988830
O131	O13	0.673200	0.211000	0.816800
O141	O14	0.730700	0.287400	0.822500
O151	O15	0.421700	0.379400	0.965400
O161	O16	0.581600	0.393800	0.949400
O171	O17	0.328600	0.533300	0.106900
O181	O18	0.598700	0.484800	0.898400
O191	O19	0.749200	0.457700	0.969600
O201	O20	0.312400	0.615000	0.728900
O211	O21	0.404100	0.702600	0.775700
O221	O22	0.053500	0.828300	0.738500
O231	O23	0.919500	0.775200	0.804900
O241	O24	0.436400	0.472200	0.975570
O251	O25	0.211800	0.759000	0.760400
O261	O26	0.412200	0.292900	0.331000
O271	O27	0.274800	0.335200	0.311110
O281	O28	0.206200	0.450200	0.504300
O291	O29	0.145700	0.457000	0.430900
O301	O30	0.049000	0.549100	0.580660
O311	O31	0.903100	0.557900	0.542840
O321	O32	0.131400	0.667300	0.711100
O331	O33	0.015100	0.723100	0.729700
O341	O34	0.893900	0.312200	0.662100
O351	O35	0.733600	0.291800	0.659000
O361	O36	0.002100	0.446200	0.547000
O371	O37	0.894500	0.464300	0.488830
O381	O38	0.826800	0.789000	0.316800
O391	O39	0.769300	0.712600	0.322500
O401	O40	0.078300	0.620600	0.465400
O411	O41	0.918400	0.606200	0.449400
O421	O42	0.171400	0.466700	0.606900
O431	O43	0.901300	0.515200	0.398400
O441	O44	0.750800	0.542300	0.469600
O451	O45	0.187600	0.385000	0.228900
O461	O46	0.095900	0.297400	0.275700
O471	O47	0.446500	0.171700	0.238500
O481	O48	0.580500	0.224800	0.304900
O491	O49	0.063600	0.527800	0.475570
O501	O50	0.288200	0.241000	0.260400
O511	O51	0.912200	0.207100	0.669000
O521	O52	0.774800	0.164800	0.688890
O531	O53	0.706200	0.049800	0.495700
O541	O54	0.645700	0.043000	0.569100
O551	O55	0.549000	0.950900	0.419340
O561	O56	0.403100	0.942100	0.457160
O571	O57	0.631400	0.832700	0.288900
O581	O58	0.515100	0.776900	0.270300
O591	O59	0.393900	0.187800	0.337900
O601	O60	0.233600	0.208200	0.341000
O611	O61	0.502100	0.053800	0.453000
O621	O62	0.394500	0.035700	0.511170
O631	O63	0.326800	0.711000	0.683200
O641	O64	0.269300	0.787400	0.677500
O651	O65	0.578300	0.879400	0.534600
O661	O66	0.418400	0.893800	0.550600
O671	O67	0.671400	0.033300	0.393100
O681	O68	0.401300	0.984800	0.601600
O691	O69	0.250800	0.957700	0.530400
O701	O70	0.687600	0.115000	0.771100
O711	O71	0.595900	0.202600	0.724300
O721	O72	0.946500	0.328300	0.761500
O731	O73	0.080500	0.275200	0.695100
O741	O74	0.563600	0.972200	0.524430
O751	O75	0.788200	0.259000	0.739600
O761	O76	0.587800	0.792900	0.169000
O771	O77	0.725200	0.835200	0.188890
O781	O78	0.793800	0.950200	0.995700
O791	O79	0.854300	0.957000	0.069100
O801	O80	0.951000	0.049100	0.919340
O811	O81	0.096900	0.057900	0.957160
O821	O82	0.868600	0.167300	0.788900
O831	O83	0.984900	0.223100	0.770300
O841	O84	0.106100	0.812200	0.837900
O851	O85	0.266400	0.791800	0.841000
O861	O86	0.997900	0.946200	0.953000
O871	O87	0.105500	0.964300	0.011170
O881	O88	0.173200	0.289000	0.183200
O891	O89	0.230700	0.212600	0.177500
O901	O90	0.921700	0.120600	0.034600
O911	O91	0.081600	0.106200	0.050600
O921	O92	0.828600	0.966700	0.893100
O931	O93	0.098700	0.015200	0.101600
O941	O94	0.249200	0.042300	0.030400
O951	O95	0.812400	0.885000	0.271100
O961	O96	0.904100	0.797400	0.224300
O971	O97	0.553500	0.671700	0.261500
O981	O98	0.419500	0.724800	0.195100
O991	O99	0.936400	0.027800	0.024430
O1001	O100	0.711800	0.741000	0.239600
