data_CODNAM_freeONLY_PM
_symmetry_space_group_name_H-M	'P1'
_cell_length_a	8.331900
_cell_length_b	16.486200
_cell_length_c	15.267700
_cell_angle_alpha	90.000000
_cell_angle_beta	91.651000
_cell_angle_gamma	90.000000
_symmetry_Int_Tables_number 1

loop_
_symmetry_equiv_pos_as_xyz
'x,y,z'

loop_
_atom_site_label
_atom_site_type_symbol
_atom_site_fract_x
_atom_site_fract_y
_atom_site_fract_z
Zn11	Zn1	0.139050	0.142340	0.241960
Zn21	Zn2	0.359680	0.040240	0.611540
Zn31	Zn3	0.428480	0.060300	0.887430
P11	P1	0.311300	0.055490	0.404170
H11	H1	0.238700	0.986000	0.394100
P21	P2	0.152400	0.981710	0.770550
H21	H2	0.035000	0.027900	0.800300
P31	P3	0.547650	0.163330	0.735110
H31	H3	0.682500	0.105300	0.740600
P41	P4	0.269100	0.052730	0.067820
H41	H4	0.124200	0.038800	0.051600
O11	O1	0.628600	0.242900	0.722200
O21	O2	0.264600	0.106100	0.146700
O31	O3	0.241900	0.123800	0.351900
O41	O4	0.484900	0.043100	0.387800
O51	O5	0.272200	0.067800	0.498100
O61	O6	0.435600	0.144500	0.657400
O71	O7	0.461000	0.157900	0.820100
O81	O8	0.175700	0.013600	0.681700
O91	O9	0.077900	0.897400	0.771300
O101	O10	0.299100	0.980200	0.830100
O111	O11	0.355900	0.975000	0.080000
O121	O12	0.331400	0.103100	0.992600
Zn41	Zn4	0.360950	0.642340	0.258040
Zn51	Zn5	0.140320	0.540240	0.888460
Zn61	Zn6	0.071520	0.560300	0.612570
P51	P5	0.188700	0.555490	0.095830
H51	H5	0.261300	0.486000	0.105900
P61	P6	0.347600	0.481710	0.729450
H61	H6	0.465000	0.527900	0.699700
P71	P7	0.952350	0.663330	0.764890
H71	H7	0.817500	0.605300	0.759400
P81	P8	0.230900	0.552730	0.432180
H81	H8	0.375800	0.538800	0.448400
O131	O13	0.871400	0.742900	0.777800
O141	O14	0.235400	0.606100	0.353300
O151	O15	0.258100	0.623800	0.148100
O161	O16	0.015100	0.543100	0.112200
O171	O17	0.227800	0.567800	0.001900
O181	O18	0.064400	0.644500	0.842600
O191	O19	0.039000	0.657900	0.679900
O201	O20	0.324300	0.513600	0.818300
O211	O21	0.422100	0.397400	0.728700
O221	O22	0.200900	0.480200	0.669900
O231	O23	0.144100	0.475000	0.420000
O241	O24	0.168600	0.603100	0.507400
Zn71	Zn7	0.860950	0.857660	0.758040
Zn81	Zn8	0.640320	0.959760	0.388460
Zn91	Zn9	0.571520	0.939700	0.112570
P91	P9	0.688700	0.944510	0.595830
H91	H9	0.761300	0.014000	0.605900
P101	P10	0.847600	0.018290	0.229450
H101	H10	0.965000	0.972100	0.199700
P111	P11	0.452350	0.836670	0.264890
H111	H11	0.317500	0.894700	0.259400
P121	P12	0.730900	0.947270	0.932180
H121	H12	0.875800	0.961200	0.948400
O251	O25	0.371400	0.757100	0.277800
O261	O26	0.735400	0.893900	0.853300
O271	O27	0.758100	0.876200	0.648100
O281	O28	0.515100	0.956900	0.612200
O291	O29	0.727800	0.932200	0.501900
O301	O30	0.564400	0.855500	0.342600
O311	O31	0.539000	0.842100	0.179900
O321	O32	0.824300	0.986400	0.318300
O331	O33	0.922100	0.102600	0.228700
O341	O34	0.700900	0.019800	0.169900
O351	O35	0.644100	0.025000	0.920000
O361	O36	0.668600	0.896900	0.007400
Zn101	Zn10	0.639050	0.357660	0.741960
Zn111	Zn11	0.859680	0.459760	0.111540
Zn121	Zn12	0.928480	0.439700	0.387430
P131	P13	0.811300	0.444510	0.904170
H131	H13	0.738700	0.514000	0.894100
P141	P14	0.652400	0.518290	0.270550
H141	H14	0.535000	0.472100	0.300300
P151	P15	0.047650	0.336670	0.235110
H151	H15	0.182500	0.394700	0.240600
P161	P16	0.769100	0.447270	0.567820
H161	H16	0.624200	0.461200	0.551600
O371	O37	0.128600	0.257100	0.222200
O381	O38	0.764600	0.393900	0.646700
O391	O39	0.741900	0.376200	0.851900
O401	O40	0.984900	0.456900	0.887800
O411	O41	0.772200	0.432200	0.998100
O421	O42	0.935600	0.355500	0.157400
O431	O43	0.961000	0.342100	0.320100
O441	O44	0.675700	0.486400	0.181700
O451	O45	0.577900	0.602600	0.271300
O461	O46	0.799100	0.519800	0.330100
O471	O47	0.855900	0.525000	0.580000
O481	O48	0.831400	0.396900	0.492600
