data_CODRUJ_freeONLY_PM
_symmetry_space_group_name_H-M	'P1'
_cell_length_a	9.130400
_cell_length_b	9.130420
_cell_length_c	14.709900
_cell_angle_alpha	100.169000
_cell_angle_beta	100.169000
_cell_angle_gamma	115.539000
_symmetry_Int_Tables_number 1

loop_
_symmetry_equiv_pos_as_xyz
'x,y,z'

loop_
_atom_site_label
_atom_site_type_symbol
_atom_site_fract_x
_atom_site_fract_y
_atom_site_fract_z
Nd11	Nd1	0.740600	0.990600	0.981200
Nd21	Nd2	0.509400	0.759400	0.518800
Nd31	Nd3	0.259400	0.009400	0.018800
Nd41	Nd4	0.490600	0.240600	0.481200
H11	H1	0.302000	0.364000	0.926000
H21	H2	0.124000	0.562000	0.926000
H31	H3	0.136000	0.198000	0.574000
H41	H4	0.938000	0.376000	0.574000
H51	H5	0.698000	0.636000	0.074000
H61	H6	0.876000	0.438000	0.074000
H71	H7	0.864000	0.802000	0.426000
H81	H8	0.062000	0.624000	0.426000
C11	C1	0.060920	0.247920	0.941640
C21	C2	0.213710	0.394110	0.935020
C31	C3	0.380720	0.693720	0.941640
C41	C4	0.221310	0.540910	0.935020
C51	C5	0.252080	0.439080	0.558360
C61	C6	0.105890	0.286290	0.564980
C71	C7	0.806280	0.119280	0.558360
C81	C8	0.959090	0.278690	0.564980
C91	C9	0.939080	0.752080	0.058360
C101	C10	0.786290	0.605890	0.064980
C111	C11	0.619280	0.306280	0.058360
C121	C12	0.778690	0.459090	0.064980
C131	C13	0.747920	0.560920	0.441640
C141	C14	0.894110	0.713710	0.435020
C151	C15	0.193720	0.880720	0.441640
C161	C16	0.040910	0.721310	0.435020
C171	C17	0.675300	0.824700	0.750000
C181	C18	0.574700	0.925300	0.750000
C191	C19	0.324700	0.175300	0.250000
C201	C20	0.425300	0.074700	0.250000
O11	O1	0.762290	0.839070	0.829960
O21	O2	0.917360	0.239420	0.923980
O31	O3	0.666000	0.910600	0.129400
O41	O4	0.084310	0.134270	0.967380
O51	O5	0.567670	0.990890	0.829960
O61	O6	0.506620	0.684560	0.923980
O71	O7	0.963400	0.218800	0.129400
O81	O8	0.383070	0.833110	0.967380
O91	O9	0.660930	0.737710	0.670040
O101	O10	0.260580	0.582640	0.576020
O111	O11	0.589400	0.834000	0.370600
O121	O12	0.365730	0.415690	0.532620
O131	O13	0.509110	0.932330	0.670040
O141	O14	0.815440	0.993380	0.576020
O151	O15	0.281200	0.536600	0.370600
O161	O16	0.666890	0.116930	0.532620
O171	O17	0.237710	0.160930	0.170040
O181	O18	0.082640	0.760580	0.076020
O191	O19	0.334000	0.089400	0.870600
O201	O20	0.915690	0.865730	0.032620
O211	O21	0.432330	0.009110	0.170040
O221	O22	0.493380	0.315440	0.076020
O231	O23	0.036600	0.781200	0.870600
O241	O24	0.616930	0.166890	0.032620
O251	O25	0.339070	0.262290	0.329960
O261	O26	0.739420	0.417360	0.423980
O271	O27	0.410600	0.166000	0.629400
O281	O28	0.634270	0.584310	0.467380
O291	O29	0.490890	0.067670	0.329960
O301	O30	0.184560	0.006620	0.423980
O311	O31	0.718800	0.463400	0.629400
O321	O32	0.333110	0.883070	0.467380
