data_COGNAO_freeONLY_PM
_symmetry_space_group_name_H-M	'P1'
_cell_length_a	22.907900
_cell_length_b	22.907900
_cell_length_c	22.907900
_cell_angle_alpha	90.000000
_cell_angle_beta	90.000000
_cell_angle_gamma	90.000000
_symmetry_Int_Tables_number 1

loop_
_symmetry_equiv_pos_as_xyz
'x,y,z'

loop_
_atom_site_label
_atom_site_type_symbol
_atom_site_fract_x
_atom_site_fract_y
_atom_site_fract_z
Zn11	Zn1	0.773740	0.288200	0.675000
Zn21	Zn2	0.726260	0.711800	0.175000
Zn31	Zn3	0.226260	0.788200	0.825000
Zn41	Zn4	0.273740	0.211800	0.325000
Zn51	Zn5	0.675000	0.773740	0.288200
Zn61	Zn6	0.175000	0.726260	0.711800
Zn71	Zn7	0.825000	0.226260	0.788200
Zn81	Zn8	0.325000	0.273740	0.211800
Zn91	Zn9	0.288200	0.675000	0.773740
Zn101	Zn10	0.711800	0.175000	0.726260
Zn111	Zn11	0.788200	0.825000	0.226260
Zn121	Zn12	0.211800	0.325000	0.273740
P11	P1	0.640490	0.640490	0.640490
P21	P2	0.859510	0.359510	0.140490
P31	P3	0.359510	0.140490	0.859510
P41	P4	0.140490	0.859510	0.359510
P51	P5	0.648170	0.148170	0.351830
P61	P6	0.851830	0.851830	0.851830
P71	P7	0.351830	0.648170	0.148170
P81	P8	0.148170	0.351830	0.648170
H11	H1	0.571800	0.535400	0.660600
H21	H2	0.597200	0.436000	0.674300
H31	H3	0.765600	0.475300	0.651600
H41	H4	0.741600	0.574200	0.643300
H51	H5	0.655200	0.079000	0.459300
H61	H6	0.667500	0.104700	0.557400
H71	H7	0.702000	0.267700	0.508800
H81	H8	0.673500	0.247300	0.415100
H91	H9	0.928200	0.464600	0.160600
H101	H10	0.902800	0.564000	0.174300
H111	H11	0.734400	0.524700	0.151600
H121	H12	0.758400	0.425800	0.143300
H131	H13	0.844800	0.921000	0.959300
H141	H14	0.832500	0.895300	0.057400
H151	H15	0.798000	0.732300	0.008800
H161	H16	0.826500	0.752700	0.915100
H171	H17	0.428200	0.035400	0.839400
H181	H18	0.402800	0.936000	0.825700
H191	H19	0.234400	0.975300	0.848400
H201	H20	0.258400	0.074200	0.856700
H211	H21	0.344800	0.579000	0.040700
H221	H22	0.332500	0.604700	0.942600
H231	H23	0.298000	0.767700	0.991200
H241	H24	0.326500	0.747300	0.084900
H251	H25	0.071800	0.964600	0.339400
H261	H26	0.097200	0.064000	0.325700
H271	H27	0.265600	0.024700	0.348400
H281	H28	0.241600	0.925800	0.356700
H291	H29	0.155200	0.421000	0.540700
H301	H30	0.167500	0.395300	0.442600
H311	H31	0.202000	0.232300	0.491200
H321	H32	0.173500	0.252700	0.584900
H331	H33	0.660600	0.571800	0.535400
H341	H34	0.674300	0.597200	0.436000
H351	H35	0.651600	0.765600	0.475300
H361	H36	0.643300	0.741600	0.574200
H371	H37	0.459300	0.655200	0.079000
H381	H38	0.557400	0.667500	0.104700
H391	H39	0.508800	0.702000	0.267700
H401	H40	0.415100	0.673500	0.247300
H411	H41	0.160600	0.928200	0.464600
H421	H42	0.174300	0.902800	0.564000
H431	H43	0.151600	0.734400	0.524700
H441	H44	0.143300	0.758400	0.425800
H451	H45	0.959300	0.844800	0.921000
H461	H46	0.057400	0.832500	0.895300
H471	H47	0.008800	0.798000	0.732300
H481	H48	0.915100	0.826500	0.752700
H491	H49	0.839400	0.428200	0.035400
H501	H50	0.825700	0.402800	0.936000
H511	H51	0.848400	0.234400	0.975300
H521	H52	0.856700	0.258400	0.074200
H531	H53	0.040700	0.344800	0.579000
H541	H54	0.942600	0.332500	0.604700
H551	H55	0.991200	0.298000	0.767700
H561	H56	0.084900	0.326500	0.747300
H571	H57	0.339400	0.071800	0.964600
H581	H58	0.325700	0.097200	0.064000
H591	H59	0.348400	0.265600	0.024700
H601	H60	0.356700	0.241600	0.925800
H611	H61	0.540700	0.155200	0.421000
H621	H62	0.442600	0.167500	0.395300
H631	H63	0.491200	0.202000	0.232300
H641	H64	0.584900	0.173500	0.252700
H651	H65	0.535400	0.660600	0.571800
H661	H66	0.436000	0.674300	0.597200
H671	H67	0.475300	0.651600	0.765600
H681	H68	0.574200	0.643300	0.741600
H691	H69	0.079000	0.459300	0.655200
H701	H70	0.104700	0.557400	0.667500
H711	H71	0.267700	0.508800	0.702000
H721	H72	0.247300	0.415100	0.673500
H731	H73	0.464600	0.160600	0.928200
H741	H74	0.564000	0.174300	0.902800
H751	H75	0.524700	0.151600	0.734400
H761	H76	0.425800	0.143300	0.758400
H771	H77	0.921000	0.959300	0.844800
H781	H78	0.895300	0.057400	0.832500
H791	H79	0.732300	0.008800	0.798000
H801	H80	0.752700	0.915100	0.826500
H811	H81	0.035400	0.839400	0.428200
H821	H82	0.936000	0.825700	0.402800
H831	H83	0.975300	0.848400	0.234400
H841	H84	0.074200	0.856700	0.258400
H851	H85	0.579000	0.040700	0.344800
H861	H86	0.604700	0.942600	0.332500
H871	H87	0.767700	0.991200	0.298000
H881	H88	0.747300	0.084900	0.326500
H891	H89	0.964600	0.339400	0.071800
H901	H90	0.064000	0.325700	0.097200
H911	H91	0.024700	0.348400	0.265600
H921	H92	0.925800	0.356700	0.241600
H931	H93	0.421000	0.540700	0.155200
H941	H94	0.395300	0.442600	0.167500
H951	H95	0.232300	0.491200	0.202000
H961	H96	0.252700	0.584900	0.173500
H971	H97	0.726200	0.273800	0.773800
H981	H98	0.773800	0.726200	0.273800
H991	H99	0.273800	0.773800	0.726200
H1001	H100	0.226200	0.226200	0.226200
C11	C1	0.654800	0.563800	0.651400
C21	C2	0.611600	0.523600	0.659900
C31	C3	0.627000	0.464000	0.667800
C41	C4	0.683000	0.446400	0.666200
C51	C5	0.726000	0.487300	0.655100
C61	C6	0.711600	0.546200	0.649100
C71	C7	0.697700	0.382800	0.675900
C81	C8	0.662500	0.162100	0.428000
C91	C9	0.662200	0.118400	0.470000
C101	C10	0.672300	0.133400	0.527800
C111	C11	0.689100	0.188100	0.542700
C121	C12	0.690200	0.229100	0.499300
C131	C13	0.675100	0.217000	0.443300
C141	C14	0.707700	0.203900	0.603500
C151	C15	0.845200	0.436200	0.151400
C161	C16	0.888400	0.476400	0.159900
C171	C17	0.873000	0.536000	0.167800
C181	C18	0.817000	0.553600	0.166200
C191	C19	0.774000	0.512700	0.155100
C201	C20	0.788400	0.453800	0.149100
C211	C21	0.802300	0.617200	0.175900
C221	C22	0.837500	0.837900	0.928000
C231	C23	0.837800	0.881600	0.970000
C241	C24	0.827700	0.866600	0.027800
C251	C25	0.810900	0.811900	0.042700
C261	C26	0.809800	0.770900	0.999300
C271	C27	0.824900	0.783000	0.943300
C281	C28	0.792300	0.796100	0.103500
C291	C29	0.345200	0.063800	0.848600
C301	C30	0.388400	0.023600	0.840100
C311	C31	0.373000	0.964000	0.832200
C321	C32	0.317000	0.946400	0.833800
C331	C33	0.274000	0.987300	0.844900
C341	C34	0.288400	0.046200	0.850900
C351	C35	0.302300	0.882800	0.824100
C361	C36	0.337500	0.662100	0.072000
C371	C37	0.337800	0.618400	0.030000
C381	C38	0.327700	0.633400	0.972200
C391	C39	0.310900	0.688100	0.957300
C401	C40	0.309800	0.729100	0.000700
C411	C41	0.324900	0.717000	0.056700
C421	C42	0.292300	0.703900	0.896500
C431	C43	0.154800	0.936200	0.348600
C441	C44	0.111600	0.976400	0.340100
C451	C45	0.127000	0.036000	0.332200
C461	C46	0.183000	0.053600	0.333800
C471	C47	0.226000	0.012700	0.344900
C481	C48	0.211600	0.953800	0.350900
C491	C49	0.197700	0.117200	0.324100
C501	C50	0.162500	0.337900	0.572000
C511	C51	0.162200	0.381600	0.530000
C521	C52	0.172300	0.366600	0.472200
C531	C53	0.189100	0.311900	0.457300
C541	C54	0.190200	0.270900	0.500700
C551	C55	0.175100	0.283000	0.556700
C561	C56	0.207700	0.296100	0.396500
C571	C57	0.651400	0.654800	0.563800
C581	C58	0.659900	0.611600	0.523600
C591	C59	0.667800	0.627000	0.464000
C601	C60	0.666200	0.683000	0.446400
C611	C61	0.655100	0.726000	0.487300
C621	C62	0.649100	0.711600	0.546200
C631	C63	0.675900	0.697700	0.382800
C641	C64	0.428000	0.662500	0.162100
C651	C65	0.470000	0.662200	0.118400
C661	C66	0.527800	0.672300	0.133400
C671	C67	0.542700	0.689100	0.188100
C681	C68	0.499300	0.690200	0.229100
C691	C69	0.443300	0.675100	0.217000
C701	C70	0.603500	0.707700	0.203900
C711	C71	0.151400	0.845200	0.436200
C721	C72	0.159900	0.888400	0.476400
C731	C73	0.167800	0.873000	0.536000
C741	C74	0.166200	0.817000	0.553600
C751	C75	0.155100	0.774000	0.512700
C761	C76	0.149100	0.788400	0.453800
C771	C77	0.175900	0.802300	0.617200
C781	C78	0.928000	0.837500	0.837900
C791	C79	0.970000	0.837800	0.881600
C801	C80	0.027800	0.827700	0.866600
C811	C81	0.042700	0.810900	0.811900
C821	C82	0.999300	0.809800	0.770900
C831	C83	0.943300	0.824900	0.783000
C841	C84	0.103500	0.792300	0.796100
C851	C85	0.848600	0.345200	0.063800
C861	C86	0.840100	0.388400	0.023600
C871	C87	0.832200	0.373000	0.964000
C881	C88	0.833800	0.317000	0.946400
C891	C89	0.844900	0.274000	0.987300
C901	C90	0.850900	0.288400	0.046200
C911	C91	0.824100	0.302300	0.882800
C921	C92	0.072000	0.337500	0.662100
C931	C93	0.030000	0.337800	0.618400
C941	C94	0.972200	0.327700	0.633400
C951	C95	0.957300	0.310900	0.688100
C961	C96	0.000700	0.309800	0.729100
C971	C97	0.056700	0.324900	0.717000
C981	C98	0.896500	0.292300	0.703900
C991	C99	0.348600	0.154800	0.936200
C1001	C100	0.340100	0.111600	0.976400
C1011	C101	0.332200	0.127000	0.036000
C1021	C102	0.333800	0.183000	0.053600
C1031	C103	0.344900	0.226000	0.012700
C1041	C104	0.350900	0.211600	0.953800
C1051	C105	0.324100	0.197700	0.117200
C1061	C106	0.572000	0.162500	0.337900
C1071	C107	0.530000	0.162200	0.381600
C1081	C108	0.472200	0.172300	0.366600
C1091	C109	0.457300	0.189100	0.311900
C1101	C110	0.500700	0.190200	0.270900
C1111	C111	0.556700	0.175100	0.283000
C1121	C112	0.396500	0.207700	0.296100
C1131	C113	0.563800	0.651400	0.654800
C1141	C114	0.523600	0.659900	0.611600
C1151	C115	0.464000	0.667800	0.627000
C1161	C116	0.446400	0.666200	0.683000
C1171	C117	0.487300	0.655100	0.726000
C1181	C118	0.546200	0.649100	0.711600
C1191	C119	0.382800	0.675900	0.697700
C1201	C120	0.162100	0.428000	0.662500
C1211	C121	0.118400	0.470000	0.662200
C1221	C122	0.133400	0.527800	0.672300
C1231	C123	0.188100	0.542700	0.689100
C1241	C124	0.229100	0.499300	0.690200
C1251	C125	0.217000	0.443300	0.675100
C1261	C126	0.203900	0.603500	0.707700
C1271	C127	0.436200	0.151400	0.845200
C1281	C128	0.476400	0.159900	0.888400
C1291	C129	0.536000	0.167800	0.873000
C1301	C130	0.553600	0.166200	0.817000
C1311	C131	0.512700	0.155100	0.774000
C1321	C132	0.453800	0.149100	0.788400
C1331	C133	0.617200	0.175900	0.802300
C1341	C134	0.837900	0.928000	0.837500
C1351	C135	0.881600	0.970000	0.837800
C1361	C136	0.866600	0.027800	0.827700
C1371	C137	0.811900	0.042700	0.810900
C1381	C138	0.770900	0.999300	0.809800
C1391	C139	0.783000	0.943300	0.824900
C1401	C140	0.796100	0.103500	0.792300
C1411	C141	0.063800	0.848600	0.345200
C1421	C142	0.023600	0.840100	0.388400
C1431	C143	0.964000	0.832200	0.373000
C1441	C144	0.946400	0.833800	0.317000
C1451	C145	0.987300	0.844900	0.274000
C1461	C146	0.046200	0.850900	0.288400
C1471	C147	0.882800	0.824100	0.302300
C1481	C148	0.662100	0.072000	0.337500
C1491	C149	0.618400	0.030000	0.337800
C1501	C150	0.633400	0.972200	0.327700
C1511	C151	0.688100	0.957300	0.310900
C1521	C152	0.729100	0.000700	0.309800
C1531	C153	0.717000	0.056700	0.324900
C1541	C154	0.703900	0.896500	0.292300
C1551	C155	0.936200	0.348600	0.154800
C1561	C156	0.976400	0.340100	0.111600
C1571	C157	0.036000	0.332200	0.127000
C1581	C158	0.053600	0.333800	0.183000
C1591	C159	0.012700	0.344900	0.226000
C1601	C160	0.953800	0.350900	0.211600
C1611	C161	0.117200	0.324100	0.197700
C1621	C162	0.337900	0.572000	0.162500
C1631	C163	0.381600	0.530000	0.162200
C1641	C164	0.366600	0.472200	0.172300
C1651	C165	0.311900	0.457300	0.189100
C1661	C166	0.270900	0.500700	0.190200
C1671	C167	0.283000	0.556700	0.175100
C1681	C168	0.296100	0.396500	0.207700
O11	O1	0.751900	0.369600	0.674100
O21	O2	0.660200	0.346600	0.678900
O31	O3	0.734400	0.252900	0.608900
O41	O4	0.697900	0.165900	0.643100
O51	O5	0.748100	0.630400	0.174100
O61	O6	0.839800	0.653400	0.178900
O71	O7	0.765600	0.747100	0.108900
O81	O8	0.802100	0.834100	0.143100
O91	O9	0.248100	0.869600	0.825900
O101	O10	0.339800	0.846600	0.821100
O111	O11	0.265600	0.752900	0.891100
O121	O12	0.302100	0.665900	0.856900
O131	O13	0.251900	0.130400	0.325900
O141	O14	0.160200	0.153400	0.321100
O151	O15	0.234400	0.247100	0.391100
O161	O16	0.197900	0.334100	0.356900
O171	O17	0.674100	0.751900	0.369600
O181	O18	0.678900	0.660200	0.346600
O191	O19	0.608900	0.734400	0.252900
O201	O20	0.643100	0.697900	0.165900
O211	O21	0.174100	0.748100	0.630400
O221	O22	0.178900	0.839800	0.653400
O231	O23	0.108900	0.765600	0.747100
O241	O24	0.143100	0.802100	0.834100
O251	O25	0.825900	0.248100	0.869600
O261	O26	0.821100	0.339800	0.846600
O271	O27	0.891100	0.265600	0.752900
O281	O28	0.856900	0.302100	0.665900
O291	O29	0.325900	0.251900	0.130400
O301	O30	0.321100	0.160200	0.153400
O311	O31	0.391100	0.234400	0.247100
O321	O32	0.356900	0.197900	0.334100
O331	O33	0.369600	0.674100	0.751900
O341	O34	0.346600	0.678900	0.660200
O351	O35	0.252900	0.608900	0.734400
O361	O36	0.165900	0.643100	0.697900
O371	O37	0.630400	0.174100	0.748100
O381	O38	0.653400	0.178900	0.839800
O391	O39	0.747100	0.108900	0.765600
O401	O40	0.834100	0.143100	0.802100
O411	O41	0.869600	0.825900	0.248100
O421	O42	0.846600	0.821100	0.339800
O431	O43	0.752900	0.891100	0.265600
O441	O44	0.665900	0.856900	0.302100
O451	O45	0.130400	0.325900	0.251900
O461	O46	0.153400	0.321100	0.160200
O471	O47	0.247100	0.391100	0.234400
O481	O48	0.334100	0.356900	0.197900
O491	O49	0.678100	0.678100	0.678100
O501	O50	0.821900	0.321900	0.178100
O511	O51	0.321900	0.178100	0.821900
O521	O52	0.178100	0.821900	0.321900
O531	O53	0.686600	0.186600	0.313400
O541	O54	0.813400	0.813400	0.813400
O551	O55	0.313400	0.686600	0.186600
O561	O56	0.186600	0.313400	0.686600
O571	O57	0.751400	0.248600	0.748600
O581	O58	0.748600	0.751400	0.248600
O591	O59	0.248600	0.748600	0.751400
O601	O60	0.251400	0.251400	0.251400
Zn131	Zn13	0.226260	0.711800	0.325000
Zn141	Zn14	0.273740	0.288200	0.825000
Zn151	Zn15	0.773740	0.211800	0.175000
Zn161	Zn16	0.726260	0.788200	0.675000
Zn171	Zn17	0.325000	0.226260	0.711800
Zn181	Zn18	0.825000	0.273740	0.288200
Zn191	Zn19	0.175000	0.773740	0.211800
Zn201	Zn20	0.675000	0.726260	0.788200
Zn211	Zn21	0.711800	0.325000	0.226260
Zn221	Zn22	0.288200	0.825000	0.273740
Zn231	Zn23	0.211800	0.175000	0.773740
Zn241	Zn24	0.788200	0.675000	0.726260
P91	P9	0.359510	0.359510	0.359510
P101	P10	0.140490	0.640490	0.859510
P111	P11	0.640490	0.859510	0.140490
P121	P12	0.859510	0.140490	0.640490
P131	P13	0.351830	0.851830	0.648170
P141	P14	0.148170	0.148170	0.148170
P151	P15	0.648170	0.351830	0.851830
P161	P16	0.851830	0.648170	0.351830
H1011	H101	0.428200	0.464600	0.339400
H1021	H102	0.402800	0.564000	0.325700
H1031	H103	0.234400	0.524700	0.348400
H1041	H104	0.258400	0.425800	0.356700
H1051	H105	0.344800	0.921000	0.540700
H1061	H106	0.332500	0.895300	0.442600
H1071	H107	0.298000	0.732300	0.491200
H1081	H108	0.326500	0.752700	0.584900
H1091	H109	0.071800	0.535400	0.839400
H1101	H110	0.097200	0.436000	0.825700
H1111	H111	0.265600	0.475300	0.848400
H1121	H112	0.241600	0.574200	0.856700
H1131	H113	0.155200	0.079000	0.040700
H1141	H114	0.167500	0.104700	0.942600
H1151	H115	0.202000	0.267700	0.991200
H1161	H116	0.173500	0.247300	0.084900
H1171	H117	0.571800	0.964600	0.160600
H1181	H118	0.597200	0.064000	0.174300
H1191	H119	0.765600	0.024700	0.151600
H1201	H120	0.741600	0.925800	0.143300
H1211	H121	0.655200	0.421000	0.959300
H1221	H122	0.667500	0.395300	0.057400
H1231	H123	0.702000	0.232300	0.008800
H1241	H124	0.673500	0.252700	0.915100
H1251	H125	0.928200	0.035400	0.660600
H1261	H126	0.902800	0.936000	0.674300
H1271	H127	0.734400	0.975300	0.651600
H1281	H128	0.758400	0.074200	0.643300
H1291	H129	0.844800	0.579000	0.459300
H1301	H130	0.832500	0.604700	0.557400
H1311	H131	0.798000	0.767700	0.508800
H1321	H132	0.826500	0.747300	0.415100
H1331	H133	0.339400	0.428200	0.464600
H1341	H134	0.325700	0.402800	0.564000
H1351	H135	0.348400	0.234400	0.524700
H1361	H136	0.356700	0.258400	0.425800
H1371	H137	0.540700	0.344800	0.921000
H1381	H138	0.442600	0.332500	0.895300
H1391	H139	0.491200	0.298000	0.732300
H1401	H140	0.584900	0.326500	0.752700
H1411	H141	0.839400	0.071800	0.535400
H1421	H142	0.825700	0.097200	0.436000
H1431	H143	0.848400	0.265600	0.475300
H1441	H144	0.856700	0.241600	0.574200
H1451	H145	0.040700	0.155200	0.079000
H1461	H146	0.942600	0.167500	0.104700
H1471	H147	0.991200	0.202000	0.267700
H1481	H148	0.084900	0.173500	0.247300
H1491	H149	0.160600	0.571800	0.964600
H1501	H150	0.174300	0.597200	0.064000
H1511	H151	0.151600	0.765600	0.024700
H1521	H152	0.143300	0.741600	0.925800
H1531	H153	0.959300	0.655200	0.421000
H1541	H154	0.057400	0.667500	0.395300
H1551	H155	0.008800	0.702000	0.232300
H1561	H156	0.915100	0.673500	0.252700
H1571	H157	0.660600	0.928200	0.035400
H1581	H158	0.674300	0.902800	0.936000
H1591	H159	0.651600	0.734400	0.975300
H1601	H160	0.643300	0.758400	0.074200
H1611	H161	0.459300	0.844800	0.579000
H1621	H162	0.557400	0.832500	0.604700
H1631	H163	0.508800	0.798000	0.767700
H1641	H164	0.415100	0.826500	0.747300
H1651	H165	0.464600	0.339400	0.428200
H1661	H166	0.564000	0.325700	0.402800
H1671	H167	0.524700	0.348400	0.234400
H1681	H168	0.425800	0.356700	0.258400
H1691	H169	0.921000	0.540700	0.344800
H1701	H170	0.895300	0.442600	0.332500
H1711	H171	0.732300	0.491200	0.298000
H1721	H172	0.752700	0.584900	0.326500
H1731	H173	0.535400	0.839400	0.071800
H1741	H174	0.436000	0.825700	0.097200
H1751	H175	0.475300	0.848400	0.265600
H1761	H176	0.574200	0.856700	0.241600
H1771	H177	0.079000	0.040700	0.155200
H1781	H178	0.104700	0.942600	0.167500
H1791	H179	0.267700	0.991200	0.202000
H1801	H180	0.247300	0.084900	0.173500
H1811	H181	0.964600	0.160600	0.571800
H1821	H182	0.064000	0.174300	0.597200
H1831	H183	0.024700	0.151600	0.765600
H1841	H184	0.925800	0.143300	0.741600
H1851	H185	0.421000	0.959300	0.655200
H1861	H186	0.395300	0.057400	0.667500
H1871	H187	0.232300	0.008800	0.702000
H1881	H188	0.252700	0.915100	0.673500
H1891	H189	0.035400	0.660600	0.928200
H1901	H190	0.936000	0.674300	0.902800
H1911	H191	0.975300	0.651600	0.734400
H1921	H192	0.074200	0.643300	0.758400
H1931	H193	0.579000	0.459300	0.844800
H1941	H194	0.604700	0.557400	0.832500
H1951	H195	0.767700	0.508800	0.798000
H1961	H196	0.747300	0.415100	0.826500
H1971	H197	0.273800	0.726200	0.226200
H1981	H198	0.226200	0.273800	0.726200
H1991	H199	0.726200	0.226200	0.273800
H2001	H200	0.773800	0.773800	0.773800
C1691	C169	0.345200	0.436200	0.348600
C1701	C170	0.388400	0.476400	0.340100
C1711	C171	0.373000	0.536000	0.332200
C1721	C172	0.317000	0.553600	0.333800
C1731	C173	0.274000	0.512700	0.344900
C1741	C174	0.288400	0.453800	0.350900
C1751	C175	0.302300	0.617200	0.324100
C1761	C176	0.337500	0.837900	0.572000
C1771	C177	0.337800	0.881600	0.530000
C1781	C178	0.327700	0.866600	0.472200
C1791	C179	0.310900	0.811900	0.457300
C1801	C180	0.309800	0.770900	0.500700
C1811	C181	0.324900	0.783000	0.556700
C1821	C182	0.292300	0.796100	0.396500
C1831	C183	0.154800	0.563800	0.848600
C1841	C184	0.111600	0.523600	0.840100
C1851	C185	0.127000	0.464000	0.832200
C1861	C186	0.183000	0.446400	0.833800
C1871	C187	0.226000	0.487300	0.844900
C1881	C188	0.211600	0.546200	0.850900
C1891	C189	0.197700	0.382800	0.824100
C1901	C190	0.162500	0.162100	0.072000
C1911	C191	0.162200	0.118400	0.030000
C1921	C192	0.172300	0.133400	0.972200
C1931	C193	0.189100	0.188100	0.957300
C1941	C194	0.190200	0.229100	0.000700
C1951	C195	0.175100	0.217000	0.056700
C1961	C196	0.207700	0.203900	0.896500
C1971	C197	0.654800	0.936200	0.151400
C1981	C198	0.611600	0.976400	0.159900
C1991	C199	0.627000	0.036000	0.167800
C2001	C200	0.683000	0.053600	0.166200
C2011	C201	0.726000	0.012700	0.155100
C2021	C202	0.711600	0.953800	0.149100
C2031	C203	0.697700	0.117200	0.175900
C2041	C204	0.662500	0.337900	0.928000
C2051	C205	0.662200	0.381600	0.970000
C2061	C206	0.672300	0.366600	0.027800
C2071	C207	0.689100	0.311900	0.042700
C2081	C208	0.690200	0.270900	0.999300
C2091	C209	0.675100	0.283000	0.943300
C2101	C210	0.707700	0.296100	0.103500
C2111	C211	0.845200	0.063800	0.651400
C2121	C212	0.888400	0.023600	0.659900
C2131	C213	0.873000	0.964000	0.667800
C2141	C214	0.817000	0.946400	0.666200
C2151	C215	0.774000	0.987300	0.655100
C2161	C216	0.788400	0.046200	0.649100
C2171	C217	0.802300	0.882800	0.675900
C2181	C218	0.837500	0.662100	0.428000
C2191	C219	0.837800	0.618400	0.470000
C2201	C220	0.827700	0.633400	0.527800
C2211	C221	0.810900	0.688100	0.542700
C2221	C222	0.809800	0.729100	0.499300
C2231	C223	0.824900	0.717000	0.443300
C2241	C224	0.792300	0.703900	0.603500
C2251	C225	0.348600	0.345200	0.436200
C2261	C226	0.340100	0.388400	0.476400
C2271	C227	0.332200	0.373000	0.536000
C2281	C228	0.333800	0.317000	0.553600
C2291	C229	0.344900	0.274000	0.512700
C2301	C230	0.350900	0.288400	0.453800
C2311	C231	0.324100	0.302300	0.617200
C2321	C232	0.572000	0.337500	0.837900
C2331	C233	0.530000	0.337800	0.881600
C2341	C234	0.472200	0.327700	0.866600
C2351	C235	0.457300	0.310900	0.811900
C2361	C236	0.500700	0.309800	0.770900
C2371	C237	0.556700	0.324900	0.783000
C2381	C238	0.396500	0.292300	0.796100
C2391	C239	0.848600	0.154800	0.563800
C2401	C240	0.840100	0.111600	0.523600
C2411	C241	0.832200	0.127000	0.464000
C2421	C242	0.833800	0.183000	0.446400
C2431	C243	0.844900	0.226000	0.487300
C2441	C244	0.850900	0.211600	0.546200
C2451	C245	0.824100	0.197700	0.382800
C2461	C246	0.072000	0.162500	0.162100
C2471	C247	0.030000	0.162200	0.118400
C2481	C248	0.972200	0.172300	0.133400
C2491	C249	0.957300	0.189100	0.188100
C2501	C250	0.000700	0.190200	0.229100
C2511	C251	0.056700	0.175100	0.217000
C2521	C252	0.896500	0.207700	0.203900
C2531	C253	0.151400	0.654800	0.936200
C2541	C254	0.159900	0.611600	0.976400
C2551	C255	0.167800	0.627000	0.036000
C2561	C256	0.166200	0.683000	0.053600
C2571	C257	0.155100	0.726000	0.012700
C2581	C258	0.149100	0.711600	0.953800
C2591	C259	0.175900	0.697700	0.117200
C2601	C260	0.928000	0.662500	0.337900
C2611	C261	0.970000	0.662200	0.381600
C2621	C262	0.027800	0.672300	0.366600
C2631	C263	0.042700	0.689100	0.311900
C2641	C264	0.999300	0.690200	0.270900
C2651	C265	0.943300	0.675100	0.283000
C2661	C266	0.103500	0.707700	0.296100
C2671	C267	0.651400	0.845200	0.063800
C2681	C268	0.659900	0.888400	0.023600
C2691	C269	0.667800	0.873000	0.964000
C2701	C270	0.666200	0.817000	0.946400
C2711	C271	0.655100	0.774000	0.987300
C2721	C272	0.649100	0.788400	0.046200
C2731	C273	0.675900	0.802300	0.882800
C2741	C274	0.428000	0.837500	0.662100
C2751	C275	0.470000	0.837800	0.618400
C2761	C276	0.527800	0.827700	0.633400
C2771	C277	0.542700	0.810900	0.688100
C2781	C278	0.499300	0.809800	0.729100
C2791	C279	0.443300	0.824900	0.717000
C2801	C280	0.603500	0.792300	0.703900
C2811	C281	0.436200	0.348600	0.345200
C2821	C282	0.476400	0.340100	0.388400
C2831	C283	0.536000	0.332200	0.373000
C2841	C284	0.553600	0.333800	0.317000
C2851	C285	0.512700	0.344900	0.274000
C2861	C286	0.453800	0.350900	0.288400
C2871	C287	0.617200	0.324100	0.302300
C2881	C288	0.837900	0.572000	0.337500
C2891	C289	0.881600	0.530000	0.337800
C2901	C290	0.866600	0.472200	0.327700
C2911	C291	0.811900	0.457300	0.310900
C2921	C292	0.770900	0.500700	0.309800
C2931	C293	0.783000	0.556700	0.324900
C2941	C294	0.796100	0.396500	0.292300
C2951	C295	0.563800	0.848600	0.154800
C2961	C296	0.523600	0.840100	0.111600
C2971	C297	0.464000	0.832200	0.127000
C2981	C298	0.446400	0.833800	0.183000
C2991	C299	0.487300	0.844900	0.226000
C3001	C300	0.546200	0.850900	0.211600
C3011	C301	0.382800	0.824100	0.197700
C3021	C302	0.162100	0.072000	0.162500
C3031	C303	0.118400	0.030000	0.162200
C3041	C304	0.133400	0.972200	0.172300
C3051	C305	0.188100	0.957300	0.189100
C3061	C306	0.229100	0.000700	0.190200
C3071	C307	0.217000	0.056700	0.175100
C3081	C308	0.203900	0.896500	0.207700
C3091	C309	0.936200	0.151400	0.654800
C3101	C310	0.976400	0.159900	0.611600
C3111	C311	0.036000	0.167800	0.627000
C3121	C312	0.053600	0.166200	0.683000
C3131	C313	0.012700	0.155100	0.726000
C3141	C314	0.953800	0.149100	0.711600
C3151	C315	0.117200	0.175900	0.697700
C3161	C316	0.337900	0.928000	0.662500
C3171	C317	0.381600	0.970000	0.662200
C3181	C318	0.366600	0.027800	0.672300
C3191	C319	0.311900	0.042700	0.689100
C3201	C320	0.270900	0.999300	0.690200
C3211	C321	0.283000	0.943300	0.675100
C3221	C322	0.296100	0.103500	0.707700
C3231	C323	0.063800	0.651400	0.845200
C3241	C324	0.023600	0.659900	0.888400
C3251	C325	0.964000	0.667800	0.873000
C3261	C326	0.946400	0.666200	0.817000
C3271	C327	0.987300	0.655100	0.774000
C3281	C328	0.046200	0.649100	0.788400
C3291	C329	0.882800	0.675900	0.802300
C3301	C330	0.662100	0.428000	0.837500
C3311	C331	0.618400	0.470000	0.837800
C3321	C332	0.633400	0.527800	0.827700
C3331	C333	0.688100	0.542700	0.810900
C3341	C334	0.729100	0.499300	0.809800
C3351	C335	0.717000	0.443300	0.824900
C3361	C336	0.703900	0.603500	0.792300
O611	O61	0.248100	0.630400	0.325900
O621	O62	0.339800	0.653400	0.321100
O631	O63	0.265600	0.747100	0.391100
O641	O64	0.302100	0.834100	0.356900
O651	O65	0.251900	0.369600	0.825900
O661	O66	0.160200	0.346600	0.821100
O671	O67	0.234400	0.252900	0.891100
O681	O68	0.197900	0.165900	0.856900
O691	O69	0.751900	0.130400	0.174100
O701	O70	0.660200	0.153400	0.178900
O711	O71	0.734400	0.247100	0.108900
O721	O72	0.697900	0.334100	0.143100
O731	O73	0.748100	0.869600	0.674100
O741	O74	0.839800	0.846600	0.678900
O751	O75	0.765600	0.752900	0.608900
O761	O76	0.802100	0.665900	0.643100
O771	O77	0.325900	0.248100	0.630400
O781	O78	0.321100	0.339800	0.653400
O791	O79	0.391100	0.265600	0.747100
O801	O80	0.356900	0.302100	0.834100
O811	O81	0.825900	0.251900	0.369600
O821	O82	0.821100	0.160200	0.346600
O831	O83	0.891100	0.234400	0.252900
O841	O84	0.856900	0.197900	0.165900
O851	O85	0.174100	0.751900	0.130400
O861	O86	0.178900	0.660200	0.153400
O871	O87	0.108900	0.734400	0.247100
O881	O88	0.143100	0.697900	0.334100
O891	O89	0.674100	0.748100	0.869600
O901	O90	0.678900	0.839800	0.846600
O911	O91	0.608900	0.765600	0.752900
O921	O92	0.643100	0.802100	0.665900
O931	O93	0.630400	0.325900	0.248100
O941	O94	0.653400	0.321100	0.339800
O951	O95	0.747100	0.391100	0.265600
O961	O96	0.834100	0.356900	0.302100
O971	O97	0.369600	0.825900	0.251900
O981	O98	0.346600	0.821100	0.160200
O991	O99	0.252900	0.891100	0.234400
O1001	O100	0.165900	0.856900	0.197900
O1011	O101	0.130400	0.174100	0.751900
O1021	O102	0.153400	0.178900	0.660200
O1031	O103	0.247100	0.108900	0.734400
O1041	O104	0.334100	0.143100	0.697900
O1051	O105	0.869600	0.674100	0.748100
O1061	O106	0.846600	0.678900	0.839800
O1071	O107	0.752900	0.608900	0.765600
O1081	O108	0.665900	0.643100	0.802100
O1091	O109	0.321900	0.321900	0.321900
O1101	O110	0.178100	0.678100	0.821900
O1111	O111	0.678100	0.821900	0.178100
O1121	O112	0.821900	0.178100	0.678100
O1131	O113	0.313400	0.813400	0.686600
O1141	O114	0.186600	0.186600	0.186600
O1151	O115	0.686600	0.313400	0.813400
O1161	O116	0.813400	0.686600	0.313400
O1171	O117	0.248600	0.751400	0.251400
O1181	O118	0.251400	0.248600	0.751400
O1191	O119	0.751400	0.251400	0.248600
O1201	O120	0.748600	0.748600	0.748600
