data_COKFAK_freeONLY_PM
_symmetry_space_group_name_H-M	'P1'
_cell_length_a	8.779600
_cell_length_b	14.857000
_cell_length_c	21.621000
_cell_angle_alpha	72.212000
_cell_angle_beta	81.686000
_cell_angle_gamma	83.572000
_symmetry_Int_Tables_number 1

loop_
_symmetry_equiv_pos_as_xyz
'x,y,z'

loop_
_atom_site_label
_atom_site_type_symbol
_atom_site_fract_x
_atom_site_fract_y
_atom_site_fract_z
C11	C1	0.961900	0.800400	0.603200
H11	H1	0.996900	0.822000	0.634400
C21	C2	0.884400	0.795700	0.515200
H21	H2	0.854900	0.813600	0.473200
C31	C3	0.887800	0.706700	0.556600
H31	H3	0.861500	0.652900	0.548300
C41	C4	0.957400	0.630300	0.671500
H41	H4	0.002900	0.651900	0.702300
H51	H5	0.028300	0.581600	0.659800
C51	C5	0.806100	0.588200	0.704000
C61	C6	0.768600	0.502900	0.699900
H61	H6	0.839500	0.468800	0.677800
C71	C7	0.698500	0.637200	0.737200
H71	H7	0.721400	0.695300	0.740000
C81	C8	0.627100	0.466400	0.728100
H81	H8	0.605000	0.408200	0.725000
C91	C9	0.558300	0.602700	0.766000
H91	H9	0.489700	0.636700	0.789000
C101	C10	0.517900	0.517000	0.761200
C111	C11	0.363300	0.480800	0.789800
C121	C12	0.337900	0.385200	0.808500
H101	H10	0.420500	0.341800	0.803800
C131	C13	0.234900	0.543000	0.798300
H111	H11	0.247100	0.607700	0.786500
C141	C14	0.193400	0.352000	0.833800
H121	H12	0.180800	0.287400	0.845500
C151	C15	0.092700	0.511000	0.823400
H131	H13	0.010400	0.554400	0.828400
C161	C16	0.067500	0.414600	0.841900
C171	C17	0.906500	0.385100	0.869000
H141	H14	0.876000	0.402700	0.909000
H151	H15	0.835700	0.419500	0.837900
C181	C18	0.938100	0.214600	0.934800
H161	H16	0.976400	0.226200	0.969300
C191	C19	0.842800	0.237900	0.843700
H171	H17	0.804400	0.266900	0.803900
C201	C20	0.860200	0.144100	0.873800
H181	H18	0.834200	0.096600	0.858200
C211	C21	0.964700	0.060300	0.628100
H191	H19	0.864300	0.085800	0.622200
C221	C22	0.184800	0.983900	0.618900
H201	H20	0.265900	0.946300	0.604800
C231	C23	0.184700	0.022600	0.666500
H211	H21	0.265400	0.017000	0.691200
C241	C24	0.003700	0.136300	0.713500
H221	H22	0.044800	0.108900	0.755100
H231	H23	0.892200	0.144300	0.722200
C251	C25	0.067000	0.230900	0.679600
C261	C26	0.004700	0.294200	0.625600
H241	H24	0.917400	0.279000	0.612200
C271	C27	0.197700	0.256600	0.698000
H251	H25	0.242800	0.215400	0.733500
C281	C28	0.067300	0.377000	0.592100
H261	H26	0.022200	0.416900	0.556200
C291	C29	0.261400	0.340300	0.665600
H271	H27	0.346900	0.355200	0.680300
C301	C30	0.201700	0.404900	0.610400
C311	C31	0.273800	0.492900	0.573800
C321	C32	0.281900	0.526900	0.505200
H281	H28	0.238100	0.494100	0.482700
C331	C33	0.342200	0.544300	0.606000
H291	H29	0.338200	0.523500	0.651300
C341	C34	0.353400	0.607700	0.471200
H301	H30	0.356300	0.629400	0.425900
C351	C35	0.414400	0.624100	0.571600
H311	H31	0.459500	0.656800	0.593800
C361	C36	0.422000	0.658000	0.503300
C371	C37	0.505200	0.745800	0.465100
H321	H32	0.601700	0.743100	0.482800
H331	H33	0.530000	0.745600	0.420000
C381	C38	0.272600	0.849000	0.492300
H341	H34	0.209400	0.800400	0.515000
C391	C39	0.465300	0.917900	0.436900
H351	H35	0.561600	0.930300	0.413000
C401	C40	0.347300	0.986400	0.446900
H361	H36	0.351600	0.051800	0.431700
C411	C41	0.699600	0.921400	0.977700
H371	H37	0.731400	0.932900	0.933200
C421	C42	0.694400	0.910100	0.078600
H381	H38	0.723500	0.912900	0.117600
C431	C43	0.564000	0.876200	0.072500
H391	H39	0.486800	0.852400	0.106100
C441	C44	0.450400	0.852600	0.977100
H401	H40	0.460400	0.886400	0.930700
H411	H41	0.348200	0.869800	0.995800
C451	C45	0.464200	0.746900	0.985400
C461	C46	0.410000	0.715100	0.941100
H421	H42	0.362500	0.757300	0.906700
C471	C47	0.504500	0.680200	0.039500
H431	H43	0.525200	0.699400	0.074400
C481	C48	0.425000	0.618000	0.947400
H441	H44	0.387500	0.597500	0.916400
C491	C49	0.516600	0.584600	0.045500
H451	H45	0.542300	0.541700	0.084600
C501	C50	0.492500	0.551500	0.997000
N11	N1	0.931900	0.855800	0.545100
N21	N2	0.936400	0.710200	0.612500
N31	N3	0.922600	0.129700	0.931200
N41	N4	0.892500	0.282200	0.883200
N51	N5	0.044000	0.008300	0.593500
N61	N6	0.045000	0.072500	0.672900
N71	N7	0.229000	0.939400	0.482200
N81	N8	0.416100	0.834600	0.466800
N91	N9	0.779300	0.940400	0.017700
N101	N10	0.565500	0.883300	0.007600
O11	O1	0.945600	0.060700	0.078600
H461	H46	0.962000	0.125000	0.071000
H471	H47	0.866000	0.045000	0.114000
C511	C51	0.038100	0.199600	0.396800
H481	H48	0.003100	0.178000	0.365600
C521	C52	0.115600	0.204300	0.484800
H491	H49	0.145100	0.186400	0.526800
C531	C53	0.112200	0.293300	0.443400
H501	H50	0.138500	0.347100	0.451700
C541	C54	0.042600	0.369700	0.328500
H511	H51	0.997100	0.348100	0.297700
H521	H52	0.971700	0.418400	0.340200
C551	C55	0.193900	0.411800	0.296000
C561	C56	0.231400	0.497100	0.300100
H531	H53	0.160500	0.531200	0.322200
C571	C57	0.301500	0.362800	0.262800
H541	H54	0.278600	0.304700	0.260000
C581	C58	0.372900	0.533600	0.271900
H551	H55	0.395000	0.591800	0.275000
C591	C59	0.441700	0.397300	0.234000
H561	H56	0.510300	0.363300	0.211000
C601	C60	0.482100	0.483000	0.238800
C611	C61	0.636700	0.519200	0.210200
C621	C62	0.662100	0.614800	0.191500
H571	H57	0.579500	0.658200	0.196200
C631	C63	0.765100	0.457000	0.201700
H581	H58	0.752900	0.392300	0.213500
C641	C64	0.806600	0.648000	0.166200
H591	H59	0.819200	0.712600	0.154500
C651	C65	0.907300	0.489000	0.176600
H601	H60	0.989600	0.445600	0.171600
C661	C66	0.932500	0.585400	0.158100
C671	C67	0.093500	0.614900	0.131000
H611	H61	0.124000	0.597300	0.091000
H621	H62	0.164300	0.580500	0.162100
C681	C68	0.061900	0.785400	0.065200
H631	H63	0.023600	0.773800	0.030700
C691	C69	0.157200	0.762100	0.156300
H641	H64	0.195600	0.733100	0.196100
C701	C70	0.139800	0.855900	0.126200
H651	H65	0.165800	0.903400	0.141800
C711	C71	0.035300	0.939700	0.371900
H661	H66	0.135700	0.914200	0.377800
C721	C72	0.815200	0.016100	0.381100
H671	H67	0.734100	0.053700	0.395200
C731	C73	0.815300	0.977400	0.333500
H681	H68	0.734600	0.983000	0.308800
C741	C74	0.996300	0.863700	0.286500
H691	H69	0.955200	0.891100	0.244900
H701	H70	0.107800	0.855700	0.277800
C751	C75	0.933000	0.769100	0.320400
C761	C76	0.995300	0.705800	0.374400
H711	H71	0.082600	0.721000	0.387800
C771	C77	0.802300	0.743400	0.302000
H721	H72	0.757200	0.784600	0.266500
C781	C78	0.932700	0.623000	0.407900
H731	H73	0.977800	0.583100	0.443800
C791	C79	0.738600	0.659700	0.334400
H741	H74	0.653100	0.644800	0.319700
C801	C80	0.798300	0.595100	0.389600
C811	C81	0.726200	0.507100	0.426200
C821	C82	0.718100	0.473100	0.494800
H751	H75	0.761900	0.505900	0.517300
C831	C83	0.657800	0.455700	0.394000
H761	H76	0.661800	0.476500	0.348700
C841	C84	0.646600	0.392300	0.528800
H771	H77	0.643700	0.370600	0.574100
C851	C85	0.585600	0.375900	0.428400
H781	H78	0.540500	0.343200	0.406200
C861	C86	0.578000	0.342000	0.496700
C871	C87	0.494800	0.254200	0.534900
H791	H79	0.398300	0.256900	0.517200
H801	H80	0.470000	0.254400	0.580000
C881	C88	0.727400	0.151000	0.507700
H811	H81	0.790600	0.199600	0.485000
C891	C89	0.534700	0.082100	0.563100
H821	H82	0.438400	0.069700	0.587000
C901	C90	0.652700	0.013600	0.553100
H831	H83	0.648400	0.948200	0.568300
C911	C91	0.300400	0.078600	0.022300
H841	H84	0.268600	0.067100	0.066800
C921	C92	0.305600	0.089900	0.921400
H851	H85	0.276500	0.087100	0.882400
C931	C93	0.436000	0.123800	0.927500
H861	H86	0.513200	0.147600	0.893900
C941	C94	0.549600	0.147400	0.022900
H871	H87	0.539600	0.113600	0.069300
H881	H88	0.651800	0.130200	0.004200
C951	C95	0.535800	0.253100	0.014600
C961	C96	0.590000	0.284900	0.058900
H891	H89	0.637500	0.242700	0.093300
C971	C97	0.495500	0.319800	0.960500
H901	H90	0.474800	0.300600	0.925600
C981	C98	0.575000	0.382000	0.052600
H911	H91	0.612500	0.402500	0.083600
C991	C99	0.483400	0.415400	0.954500
H921	H92	0.457700	0.458300	0.915400
C1001	C100	0.507500	0.448500	0.003000
N111	N11	0.068100	0.144200	0.454900
N121	N12	0.063600	0.289800	0.387500
N131	N13	0.077400	0.870300	0.068800
N141	N14	0.107500	0.717800	0.116800
N151	N15	0.956000	0.991700	0.406500
N161	N16	0.955000	0.927500	0.327100
N171	N17	0.771000	0.060600	0.517800
N181	N18	0.583900	0.165400	0.533200
N191	N19	0.220700	0.059600	0.982300
N201	N20	0.434500	0.116700	0.992400
O21	O2	0.054400	0.939300	0.921400
H931	H93	0.038000	0.875000	0.929000
H941	H94	0.134000	0.955000	0.886000
Co11	Co1	0.000000	0.000000	0.500000
Co21	Co2	0.000000	0.000000	0.000000
