data_COKJOD_freeONLY_PM
_symmetry_space_group_name_H-M	'P1'
_cell_length_a	8.391100
_cell_length_b	10.551800
_cell_length_c	17.463200
_cell_angle_alpha	98.993000
_cell_angle_beta	97.112000
_cell_angle_gamma	100.424000
_symmetry_Int_Tables_number 1

loop_
_symmetry_equiv_pos_as_xyz
'x,y,z'

loop_
_atom_site_label
_atom_site_type_symbol
_atom_site_fract_x
_atom_site_fract_y
_atom_site_fract_z
Sm11	Sm1	0.521360	0.137860	0.296430
Sm21	Sm2	0.034630	0.190850	0.237470
C11	C1	0.025900	0.441700	0.195630
C21	C2	0.027600	0.571400	0.171400
C31	C3	0.122600	0.684800	0.217560
H11	H1	0.184000	0.680300	0.264800
C41	C4	0.127700	0.805500	0.194420
C51	C5	0.034700	0.811300	0.124300
H21	H2	0.035400	0.891800	0.108800
C61	C6	0.940300	0.697800	0.076900
H31	H3	0.879800	0.702100	0.029400
C71	C7	0.936600	0.578600	0.100800
H41	H4	0.872800	0.502700	0.069300
C81	C8	0.241300	0.922700	0.242360
C91	C9	0.839100	0.001700	0.358760
C101	C10	0.872500	0.906100	0.411110
C111	C11	0.998000	0.837800	0.402200
H51	H5	0.061800	0.850200	0.363000
C121	C12	0.027800	0.751800	0.451200
H61	H6	0.110100	0.704700	0.444000
C131	C13	0.937300	0.734400	0.511000
H71	H7	0.959500	0.676900	0.544300
C141	C14	0.812800	0.803300	0.521190
C151	C15	0.780200	0.887100	0.470420
H81	H8	0.694900	0.931400	0.476200
C161	C16	0.718700	0.791000	0.587470
C171	C17	0.688300	0.999900	0.136660
C181	C18	0.598400	0.905900	0.064960
C191	C19	0.434400	0.848500	0.062600
H91	H9	0.383700	0.865900	0.106400
C201	C20	0.346900	0.766400	0.996100
H101	H10	0.237800	0.727600	0.995200
C211	C21	0.420400	0.741200	0.930300
H111	H11	0.359800	0.687400	0.884900
C221	C22	0.583600	0.795500	0.931780
C231	C23	0.672600	0.879000	0.999470
H121	H12	0.782200	0.916800	0.000500
C241	C24	0.660600	0.770500	0.859780
C251	C25	0.785800	0.372300	0.337800
H131	H13	0.866900	0.448200	0.351200
O11	O1	0.124800	0.434900	0.256170
O21	O2	0.928600	0.342600	0.157650
O31	O3	0.358600	0.910100	0.290220
O41	O4	0.225400	0.037400	0.231060
O51	O5	0.837600	0.045500	0.140820
O61	O6	0.604700	0.028900	0.189830
O71	O7	0.813500	0.787500	0.868060
O81	O8	0.567400	0.732500	0.793430
O91	O9	0.710000	0.045700	0.364710
O101	O10	0.938900	0.031100	0.313740
O111	O11	0.589800	0.835000	0.585190
O121	O12	0.772100	0.739400	0.643590
O131	O13	0.816900	0.273900	0.298270
O141	O14	0.651400	0.374000	0.360170
Sm31	Sm3	0.478640	0.862140	0.703570
Sm41	Sm4	0.965370	0.809150	0.762530
C261	C26	0.974100	0.558300	0.804370
C271	C27	0.972400	0.428600	0.828600
C281	C28	0.877400	0.315200	0.782440
H141	H14	0.816000	0.319700	0.735200
C291	C29	0.872300	0.194500	0.805580
C301	C30	0.965300	0.188700	0.875700
H151	H15	0.964600	0.108200	0.891200
C311	C31	0.059700	0.302200	0.923100
H161	H16	0.120200	0.297900	0.970600
C321	C32	0.063400	0.421400	0.899200
H171	H17	0.127200	0.497300	0.930700
C331	C33	0.758700	0.077300	0.757640
C341	C34	0.160900	0.998300	0.641240
C351	C35	0.127500	0.093900	0.588890
C361	C36	0.002000	0.162200	0.597800
H181	H18	0.938200	0.149800	0.637000
C371	C37	0.972200	0.248200	0.548800
H191	H19	0.889900	0.295300	0.556000
C381	C38	0.062700	0.265600	0.489000
H201	H20	0.040500	0.323100	0.455700
C391	C39	0.187200	0.196700	0.478810
C401	C40	0.219800	0.112900	0.529580
H211	H21	0.305100	0.068600	0.523800
C411	C41	0.281300	0.209000	0.412530
C421	C42	0.311700	0.000100	0.863340
C431	C43	0.401600	0.094100	0.935040
C441	C44	0.565600	0.151500	0.937400
H221	H22	0.616300	0.134100	0.893600
C451	C45	0.653100	0.233600	0.003900
H231	H23	0.762200	0.272400	0.004800
C461	C46	0.579600	0.258800	0.069700
H241	H24	0.640200	0.312600	0.115100
C471	C47	0.416400	0.204500	0.068220
C481	C48	0.327400	0.121000	0.000530
H251	H25	0.217800	0.083200	0.999500
C491	C49	0.339400	0.229500	0.140220
C501	C50	0.214200	0.627700	0.662200
H261	H26	0.133100	0.551800	0.648800
O151	O15	0.875200	0.565100	0.743830
O161	O16	0.071400	0.657400	0.842350
O171	O17	0.641400	0.089900	0.709780
O181	O18	0.774600	0.962600	0.768940
O191	O19	0.162400	0.954500	0.859180
O201	O20	0.395300	0.971100	0.810170
O211	O21	0.186500	0.212500	0.131940
O221	O22	0.432600	0.267500	0.206570
O231	O23	0.290000	0.954300	0.635290
O241	O24	0.061100	0.968900	0.686260
O251	O25	0.410200	0.165000	0.414810
O261	O26	0.227900	0.260600	0.356410
O271	O27	0.183100	0.726100	0.701730
O281	O28	0.348600	0.626000	0.639830
