data_COKNAT_freeONLY_PM
_symmetry_space_group_name_H-M	'P1'
_cell_length_a	25.914000
_cell_length_b	25.914000
_cell_length_c	6.798600
_cell_angle_alpha	90.000000
_cell_angle_beta	90.000000
_cell_angle_gamma	120.000000
_symmetry_Int_Tables_number 1

loop_
_symmetry_equiv_pos_as_xyz
'x,y,z'

loop_
_atom_site_label
_atom_site_type_symbol
_atom_site_fract_x
_atom_site_fract_y
_atom_site_fract_z
Zn11	Zn1	0.383600	0.354600	0.143600
O11	O1	0.328100	0.296600	0.375100
O21	O2	0.300100	0.226700	0.611200
O31	O3	0.353700	0.274300	0.016600
C11	C1	0.315700	0.244800	0.433900
C21	C2	0.327000	0.206400	0.283700
C31	C3	0.343100	0.221200	0.091900
C41	C4	0.352500	0.184100	0.964400
H11	H1	0.360900	0.191000	0.835000
Zn21	Zn2	0.050270	0.687930	0.476930
O41	O4	0.994770	0.629930	0.708430
O51	O5	0.966770	0.560030	0.944530
O61	O6	0.020370	0.607630	0.349930
C51	C5	0.982370	0.578130	0.767230
C61	C6	0.993670	0.539730	0.617030
C71	C7	0.009770	0.554530	0.425230
C81	C8	0.019170	0.517430	0.297730
H21	H2	0.027570	0.524330	0.168330
Zn31	Zn3	0.716930	0.021270	0.810270
O71	O7	0.661430	0.963270	0.041770
O81	O8	0.633430	0.893370	0.277870
O91	O9	0.687030	0.940970	0.683270
C91	C9	0.649030	0.911470	0.100570
C101	C10	0.660330	0.873070	0.950370
C111	C11	0.676430	0.887870	0.758570
C121	C12	0.685830	0.850770	0.631070
H31	H3	0.694230	0.857670	0.501670
Zn41	Zn4	0.645400	0.029000	0.143600
O101	O10	0.703400	0.031500	0.375100
O111	O11	0.773300	0.073400	0.611200
O121	O12	0.725700	0.079400	0.016600
C131	C13	0.755200	0.070900	0.433900
C141	C14	0.793600	0.120600	0.283700
C151	C15	0.778800	0.121900	0.091900
C161	C16	0.815900	0.168400	0.964400
H41	H4	0.809000	0.169900	0.835000
Zn51	Zn5	0.312070	0.362330	0.476930
O131	O13	0.370070	0.364830	0.708430
O141	O14	0.439970	0.406730	0.944530
O151	O15	0.392370	0.412730	0.349930
C171	C17	0.421870	0.404230	0.767230
C181	C18	0.460270	0.453930	0.617030
C191	C19	0.445470	0.455230	0.425230
C201	C20	0.482570	0.501730	0.297730
H51	H5	0.475670	0.503230	0.168330
Zn61	Zn6	0.978730	0.695670	0.810270
O161	O16	0.036730	0.698170	0.041770
O171	O17	0.106630	0.740070	0.277870
O181	O18	0.059030	0.746070	0.683270
C211	C21	0.088530	0.737570	0.100570
C221	C22	0.126930	0.787270	0.950370
C231	C23	0.112130	0.788570	0.758570
C241	C24	0.149230	0.835070	0.631070
H61	H6	0.142330	0.836570	0.501670
Zn71	Zn7	0.971000	0.616400	0.143600
O191	O19	0.968500	0.671900	0.375100
O201	O20	0.926600	0.699900	0.611200
O211	O21	0.920600	0.646300	0.016600
C251	C25	0.929100	0.684300	0.433900
C261	C26	0.879400	0.673000	0.283700
C271	C27	0.878100	0.656900	0.091900
C281	C28	0.831600	0.647500	0.964400
H71	H7	0.830100	0.639100	0.835000
Zn81	Zn8	0.637670	0.949730	0.476930
O221	O22	0.635170	0.005230	0.708430
O231	O23	0.593270	0.033230	0.944530
O241	O24	0.587270	0.979630	0.349930
C291	C29	0.595770	0.017630	0.767230
C301	C30	0.546070	0.006330	0.617030
C311	C31	0.544770	0.990230	0.425230
C321	C32	0.498270	0.980830	0.297730
H81	H8	0.496770	0.972430	0.168330
Zn91	Zn9	0.304330	0.283070	0.810270
O251	O25	0.301830	0.338570	0.041770
O261	O26	0.259930	0.366570	0.277870
O271	O27	0.253930	0.312970	0.683270
C331	C33	0.262430	0.350970	0.100570
C341	C34	0.212730	0.339670	0.950370
C351	C35	0.211430	0.323570	0.758570
C361	C36	0.164930	0.314170	0.631070
H91	H9	0.163430	0.305770	0.501670
Zn101	Zn10	0.616400	0.645400	0.856400
O281	O28	0.671900	0.703400	0.624900
O291	O29	0.699900	0.773300	0.388800
O301	O30	0.646300	0.725700	0.983400
C371	C37	0.684300	0.755200	0.566100
C381	C38	0.673000	0.793600	0.716300
C391	C39	0.656900	0.778800	0.908100
C401	C40	0.647500	0.815900	0.035600
H101	H10	0.639100	0.809000	0.165000
Zn111	Zn11	0.283070	0.978730	0.189730
O311	O31	0.338570	0.036730	0.958230
O321	O32	0.366570	0.106630	0.722130
O331	O33	0.312970	0.059030	0.316730
C411	C41	0.350970	0.088530	0.899430
C421	C42	0.339670	0.126930	0.049630
C431	C43	0.323570	0.112130	0.241430
C441	C44	0.314170	0.149230	0.368930
H111	H11	0.305770	0.142330	0.498330
Zn121	Zn12	0.949730	0.312070	0.523070
O341	O34	0.005230	0.370070	0.291570
O351	O35	0.033230	0.439970	0.055470
O361	O36	0.979630	0.392370	0.650070
C451	C45	0.017630	0.421870	0.232770
C461	C46	0.006330	0.460270	0.382970
C471	C47	0.990230	0.445470	0.574770
C481	C48	0.980830	0.482570	0.702270
H121	H12	0.972430	0.475670	0.831670
Zn131	Zn13	0.354600	0.971000	0.856400
O371	O37	0.296600	0.968500	0.624900
O381	O38	0.226700	0.926600	0.388800
O391	O39	0.274300	0.920600	0.983400
C491	C49	0.244800	0.929100	0.566100
C501	C50	0.206400	0.879400	0.716300
C511	C51	0.221200	0.878100	0.908100
C521	C52	0.184100	0.831600	0.035600
H131	H13	0.191000	0.830100	0.165000
Zn141	Zn14	0.021270	0.304330	0.189730
O401	O40	0.963270	0.301830	0.958230
O411	O41	0.893370	0.259930	0.722130
O421	O42	0.940970	0.253930	0.316730
C531	C53	0.911470	0.262430	0.899430
C541	C54	0.873070	0.212730	0.049630
C551	C55	0.887870	0.211430	0.241430
C561	C56	0.850770	0.164930	0.368930
H141	H14	0.857670	0.163430	0.498330
Zn151	Zn15	0.687930	0.637670	0.523070
O431	O43	0.629930	0.635170	0.291570
O441	O44	0.560030	0.593270	0.055470
O451	O45	0.607630	0.587270	0.650070
C571	C57	0.578130	0.595770	0.232770
C581	C58	0.539730	0.546070	0.382970
C591	C59	0.554530	0.544770	0.574770
C601	C60	0.517430	0.498270	0.702270
H151	H15	0.524330	0.496770	0.831670
Zn161	Zn16	0.029000	0.383600	0.856400
O461	O46	0.031500	0.328100	0.624900
O471	O47	0.073400	0.300100	0.388800
O481	O48	0.079400	0.353700	0.983400
C611	C61	0.070900	0.315700	0.566100
C621	C62	0.120600	0.327000	0.716300
C631	C63	0.121900	0.343100	0.908100
C641	C64	0.168400	0.352500	0.035600
H161	H16	0.169900	0.360900	0.165000
Zn171	Zn17	0.695670	0.716930	0.189730
O491	O49	0.698170	0.661430	0.958230
O501	O50	0.740070	0.633430	0.722130
O511	O51	0.746070	0.687030	0.316730
C651	C65	0.737570	0.649030	0.899430
C661	C66	0.787270	0.660330	0.049630
C671	C67	0.788570	0.676430	0.241430
C681	C68	0.835070	0.685830	0.368930
H171	H17	0.836570	0.694230	0.498330
Zn181	Zn18	0.362330	0.050270	0.523070
O521	O52	0.364830	0.994770	0.291570
O531	O53	0.406730	0.966770	0.055470
O541	O54	0.412730	0.020370	0.650070
C691	C69	0.404230	0.982370	0.232770
C701	C70	0.453930	0.993670	0.382970
C711	C71	0.455230	0.009770	0.574770
C721	C72	0.501730	0.019170	0.702270
H181	H18	0.503230	0.027570	0.831670
