data_COKPUP_freeONLY_PM
_symmetry_space_group_name_H-M	'P1'
_cell_length_a	25.850400
_cell_length_b	25.850400
_cell_length_c	6.807200
_cell_angle_alpha	90.000000
_cell_angle_beta	90.000000
_cell_angle_gamma	120.000000
_symmetry_Int_Tables_number 1

loop_
_symmetry_equiv_pos_as_xyz
'x,y,z'

loop_
_atom_site_label
_atom_site_type_symbol
_atom_site_fract_x
_atom_site_fract_y
_atom_site_fract_z
Zn11	Zn1	0.381900	0.350900	0.145400
O11	O1	0.332500	0.295500	0.371900
O21	O2	0.355800	0.274200	0.009500
O31	O3	0.438700	0.409300	0.932800
C11	C1	0.316500	0.245200	0.429100
C21	C2	0.345600	0.221200	0.096600
C31	C3	0.326900	0.208100	0.287900
C41	C4	0.350300	0.181600	0.969500
H11	H1	0.363300	0.190500	0.845000
Zn21	Zn2	0.048570	0.684230	0.478730
O41	O4	0.999170	0.628830	0.705230
O51	O5	0.022470	0.607530	0.342830
O61	O6	0.105370	0.742630	0.266130
C51	C5	0.983170	0.578530	0.762430
C61	C6	0.012270	0.554530	0.429930
C71	C7	0.993570	0.541430	0.621230
C81	C8	0.016970	0.514930	0.302830
H21	H2	0.029970	0.523830	0.178330
Zn31	Zn3	0.715230	0.017570	0.812070
O71	O7	0.665830	0.962170	0.038570
O81	O8	0.689130	0.940870	0.676170
O91	O9	0.772030	0.075970	0.599470
C91	C9	0.649830	0.911870	0.095770
C101	C10	0.678930	0.887870	0.763270
C111	C11	0.660230	0.874770	0.954570
C121	C12	0.683630	0.848270	0.636170
H31	H3	0.696630	0.857170	0.511670
Zn41	Zn4	0.649100	0.031000	0.145400
O101	O10	0.704500	0.037000	0.371900
O111	O11	0.725800	0.081600	0.009500
O121	O12	0.590700	0.029400	0.932800
C131	C13	0.754800	0.071300	0.429100
C141	C14	0.778800	0.124400	0.096600
C151	C15	0.791900	0.118800	0.287900
C161	C16	0.818400	0.168700	0.969500
H41	H4	0.809500	0.172800	0.845000
Zn51	Zn5	0.315770	0.364330	0.478730
O131	O13	0.371170	0.370330	0.705230
O141	O14	0.392470	0.414930	0.342830
O151	O15	0.257370	0.362730	0.266130
C171	C17	0.421470	0.404630	0.762430
C181	C18	0.445470	0.457730	0.429930
C191	C19	0.458570	0.452130	0.621230
C201	C20	0.485070	0.502030	0.302830
H51	H5	0.476170	0.506130	0.178330
Zn61	Zn6	0.982430	0.697670	0.812070
O161	O16	0.037830	0.703670	0.038570
O171	O17	0.059130	0.748270	0.676170
O181	O18	0.924030	0.696070	0.599470
C211	C21	0.088130	0.737970	0.095770
C221	C22	0.112130	0.791070	0.763270
C231	C23	0.125230	0.785470	0.954570
C241	C24	0.151730	0.835370	0.636170
H61	H6	0.142830	0.839470	0.511670
Zn71	Zn7	0.969000	0.618100	0.145400
O191	O19	0.963000	0.667500	0.371900
O201	O20	0.918400	0.644200	0.009500
O211	O21	0.970600	0.561300	0.932800
C251	C25	0.928700	0.683500	0.429100
C261	C26	0.875600	0.654400	0.096600
C271	C27	0.881200	0.673100	0.287900
C281	C28	0.831300	0.649700	0.969500
H71	H7	0.827200	0.636700	0.845000
Zn81	Zn8	0.635670	0.951430	0.478730
O221	O22	0.629670	0.000830	0.705230
O231	O23	0.585070	0.977530	0.342830
O241	O24	0.637270	0.894630	0.266130
C291	C29	0.595370	0.016830	0.762430
C301	C30	0.542270	0.987730	0.429930
C311	C31	0.547870	0.006430	0.621230
C321	C32	0.497970	0.983030	0.302830
H81	H8	0.493870	0.970030	0.178330
Zn91	Zn9	0.302330	0.284770	0.812070
O251	O25	0.296330	0.334170	0.038570
O261	O26	0.251730	0.310870	0.676170
O271	O27	0.303930	0.227970	0.599470
C331	C33	0.262030	0.350170	0.095770
C341	C34	0.208930	0.321070	0.763270
C351	C35	0.214530	0.339770	0.954570
C361	C36	0.164630	0.316370	0.636170
H91	H9	0.160530	0.303370	0.511670
Zn101	Zn10	0.618100	0.649100	0.854600
O281	O28	0.667500	0.704500	0.628100
O291	O29	0.644200	0.725800	0.990500
O301	O30	0.561300	0.590700	0.067200
C371	C37	0.683500	0.754800	0.570900
C381	C38	0.654400	0.778800	0.903400
C391	C39	0.673100	0.791900	0.712100
C401	C40	0.649700	0.818400	0.030500
H101	H10	0.636700	0.809500	0.155000
Zn111	Zn11	0.284770	0.982430	0.187930
O311	O31	0.334170	0.037830	0.961430
O321	O32	0.310870	0.059130	0.323830
O331	O33	0.227970	0.924030	0.400530
C411	C41	0.350170	0.088130	0.904230
C421	C42	0.321070	0.112130	0.236730
C431	C43	0.339770	0.125230	0.045430
C441	C44	0.316370	0.151730	0.363830
H111	H11	0.303370	0.142830	0.488330
Zn121	Zn12	0.951430	0.315770	0.521270
O341	O34	0.000830	0.371170	0.294770
O351	O35	0.977530	0.392470	0.657170
O361	O36	0.894630	0.257370	0.733870
C451	C45	0.016830	0.421470	0.237570
C461	C46	0.987730	0.445470	0.570070
C471	C47	0.006430	0.458570	0.378770
C481	C48	0.983030	0.485070	0.697170
H121	H12	0.970030	0.476170	0.821670
Zn131	Zn13	0.350900	0.969000	0.854600
O371	O37	0.295500	0.963000	0.628100
O381	O38	0.274200	0.918400	0.990500
O391	O39	0.409300	0.970600	0.067200
C491	C49	0.245200	0.928700	0.570900
C501	C50	0.221200	0.875600	0.903400
C511	C51	0.208100	0.881200	0.712100
C521	C52	0.181600	0.831300	0.030500
H131	H13	0.190500	0.827200	0.155000
Zn141	Zn14	0.017570	0.302330	0.187930
O401	O40	0.962170	0.296330	0.961430
O411	O41	0.940870	0.251730	0.323830
O421	O42	0.075970	0.303930	0.400530
C531	C53	0.911870	0.262030	0.904230
C541	C54	0.887870	0.208930	0.236730
C551	C55	0.874770	0.214530	0.045430
C561	C56	0.848270	0.164630	0.363830
H141	H14	0.857170	0.160530	0.488330
Zn151	Zn15	0.684230	0.635670	0.521270
O431	O43	0.628830	0.629670	0.294770
O441	O44	0.607530	0.585070	0.657170
O451	O45	0.742630	0.637270	0.733870
C571	C57	0.578530	0.595370	0.237570
C581	C58	0.554530	0.542270	0.570070
C591	C59	0.541430	0.547870	0.378770
C601	C60	0.514930	0.497970	0.697170
H151	H15	0.523830	0.493870	0.821670
Zn161	Zn16	0.031000	0.381900	0.854600
O461	O46	0.037000	0.332500	0.628100
O471	O47	0.081600	0.355800	0.990500
O481	O48	0.029400	0.438700	0.067200
C611	C61	0.071300	0.316500	0.570900
C621	C62	0.124400	0.345600	0.903400
C631	C63	0.118800	0.326900	0.712100
C641	C64	0.168700	0.350300	0.030500
H161	H16	0.172800	0.363300	0.155000
Zn171	Zn17	0.697670	0.715230	0.187930
O491	O49	0.703670	0.665830	0.961430
O501	O50	0.748270	0.689130	0.323830
O511	O51	0.696070	0.772030	0.400530
C651	C65	0.737970	0.649830	0.904230
C661	C66	0.791070	0.678930	0.236730
C671	C67	0.785470	0.660230	0.045430
C681	C68	0.835370	0.683630	0.363830
H171	H17	0.839470	0.696630	0.488330
Zn181	Zn18	0.364330	0.048570	0.521270
O521	O52	0.370330	0.999170	0.294770
O531	O53	0.414930	0.022470	0.657170
O541	O54	0.362730	0.105370	0.733870
C691	C69	0.404630	0.983170	0.237570
C701	C70	0.457730	0.012270	0.570070
C711	C71	0.452130	0.993570	0.378770
C721	C72	0.502030	0.016970	0.697170
H181	H18	0.506130	0.029970	0.821670
