data_COKQIE_freeONLY_PM
_symmetry_space_group_name_H-M	'P1'
_cell_length_a	26.081800
_cell_length_b	26.081800
_cell_length_c	6.878300
_cell_angle_alpha	90.000000
_cell_angle_beta	90.000000
_cell_angle_gamma	120.000000
_symmetry_Int_Tables_number 1

loop_
_symmetry_equiv_pos_as_xyz
'x,y,z'

loop_
_atom_site_label
_atom_site_type_symbol
_atom_site_fract_x
_atom_site_fract_y
_atom_site_fract_z
Fe11	Fe1	0.386200	0.355700	0.134200
O11	O1	0.325600	0.296600	0.369700
O21	O2	0.357300	0.266800	0.009800
O31	O3	0.437300	0.407300	0.923700
C11	C1	0.320600	0.249400	0.420300
C21	C2	0.341000	0.216400	0.117200
C31	C3	0.315700	0.199400	0.300300
C41	C4	0.345100	0.181800	0.975500
H11	H1	0.361300	0.192800	0.838200
Fe21	Fe2	0.052870	0.689030	0.467530
O41	O4	0.992270	0.629930	0.703030
O51	O5	0.023970	0.600130	0.343130
O61	O6	0.103970	0.740630	0.257030
C51	C5	0.987270	0.582730	0.753630
C61	C6	0.007670	0.549730	0.450530
C71	C7	0.982370	0.532730	0.633630
C81	C8	0.011770	0.515130	0.308830
H21	H2	0.027970	0.526130	0.171530
Fe31	Fe3	0.719530	0.022370	0.800870
O71	O7	0.658930	0.963270	0.036370
O81	O8	0.690630	0.933470	0.676470
O91	O9	0.770630	0.073970	0.590370
C91	C9	0.653930	0.916070	0.086970
C101	C10	0.674330	0.883070	0.783870
C111	C11	0.649030	0.866070	0.966970
C121	C12	0.678430	0.848470	0.642170
H31	H3	0.694630	0.859470	0.504870
Fe41	Fe4	0.644300	0.030500	0.134200
O101	O10	0.703400	0.029000	0.369700
O111	O11	0.733200	0.090500	0.009800
O121	O12	0.592700	0.030000	0.923700
C131	C13	0.750600	0.071200	0.420300
C141	C14	0.783600	0.124600	0.117200
C151	C15	0.800600	0.116300	0.300300
C161	C16	0.818200	0.163300	0.975500
H41	H4	0.807200	0.168500	0.838200
Fe51	Fe5	0.310970	0.363830	0.467530
O131	O13	0.370070	0.362330	0.703030
O141	O14	0.399870	0.423830	0.343130
O151	O15	0.259370	0.363330	0.257030
C171	C17	0.417270	0.404530	0.753630
C181	C18	0.450270	0.457930	0.450530
C191	C19	0.467270	0.449630	0.633630
C201	C20	0.484870	0.496630	0.308830
H51	H5	0.473870	0.501830	0.171530
Fe61	Fe6	0.977630	0.697170	0.800870
O161	O16	0.036730	0.695670	0.036370
O171	O17	0.066530	0.757170	0.676470
O181	O18	0.926030	0.696670	0.590370
C211	C21	0.083930	0.737870	0.086970
C221	C22	0.116930	0.791270	0.783870
C231	C23	0.133930	0.782970	0.966970
C241	C24	0.151530	0.829970	0.642170
H61	H6	0.140530	0.835170	0.504870
Fe71	Fe7	0.969500	0.613800	0.134200
O191	O19	0.971000	0.674400	0.369700
O201	O20	0.909500	0.642700	0.009800
O211	O21	0.970000	0.562700	0.923700
C251	C25	0.928800	0.679400	0.420300
C261	C26	0.875400	0.659000	0.117200
C271	C27	0.883700	0.684300	0.300300
C281	C28	0.836700	0.654900	0.975500
H71	H7	0.831500	0.638700	0.838200
Fe81	Fe8	0.636170	0.947130	0.467530
O221	O22	0.637670	0.007730	0.703030
O231	O23	0.576170	0.976030	0.343130
O241	O24	0.636670	0.896030	0.257030
C291	C29	0.595470	0.012730	0.753630
C301	C30	0.542070	0.992330	0.450530
C311	C31	0.550370	0.017630	0.633630
C321	C32	0.503370	0.988230	0.308830
H81	H8	0.498170	0.972030	0.171530
Fe91	Fe9	0.302830	0.280470	0.800870
O251	O25	0.304330	0.341070	0.036370
O261	O26	0.242830	0.309370	0.676470
O271	O27	0.303330	0.229370	0.590370
C331	C33	0.262130	0.346070	0.086970
C341	C34	0.208730	0.325670	0.783870
C351	C35	0.217030	0.350970	0.966970
C361	C36	0.170030	0.321570	0.642170
H91	H9	0.164830	0.305370	0.504870
Fe101	Fe10	0.613800	0.644300	0.865800
O281	O28	0.674400	0.703400	0.630300
O291	O29	0.642700	0.733200	0.990200
O301	O30	0.562700	0.592700	0.076300
C371	C37	0.679400	0.750600	0.579700
C381	C38	0.659000	0.783600	0.882800
C391	C39	0.684300	0.800600	0.699700
C401	C40	0.654900	0.818200	0.024500
H101	H10	0.638700	0.807200	0.161800
Fe111	Fe11	0.280470	0.977630	0.199130
O311	O31	0.341070	0.036730	0.963630
O321	O32	0.309370	0.066530	0.323530
O331	O33	0.229370	0.926030	0.409630
C411	C41	0.346070	0.083930	0.913030
C421	C42	0.325670	0.116930	0.216130
C431	C43	0.350970	0.133930	0.033030
C441	C44	0.321570	0.151530	0.357830
H111	H11	0.305370	0.140530	0.495130
Fe121	Fe12	0.947130	0.310970	0.532470
O341	O34	0.007730	0.370070	0.296970
O351	O35	0.976030	0.399870	0.656870
O361	O36	0.896030	0.259370	0.742970
C451	C45	0.012730	0.417270	0.246370
C461	C46	0.992330	0.450270	0.549470
C471	C47	0.017630	0.467270	0.366370
C481	C48	0.988230	0.484870	0.691170
H121	H12	0.972030	0.473870	0.828470
Fe131	Fe13	0.355700	0.969500	0.865800
O371	O37	0.296600	0.971000	0.630300
O381	O38	0.266800	0.909500	0.990200
O391	O39	0.407300	0.970000	0.076300
C491	C49	0.249400	0.928800	0.579700
C501	C50	0.216400	0.875400	0.882800
C511	C51	0.199400	0.883700	0.699700
C521	C52	0.181800	0.836700	0.024500
H131	H13	0.192800	0.831500	0.161800
Fe141	Fe14	0.022370	0.302830	0.199130
O401	O40	0.963270	0.304330	0.963630
O411	O41	0.933470	0.242830	0.323530
O421	O42	0.073970	0.303330	0.409630
C531	C53	0.916070	0.262130	0.913030
C541	C54	0.883070	0.208730	0.216130
C551	C55	0.866070	0.217030	0.033030
C561	C56	0.848470	0.170030	0.357830
H141	H14	0.859470	0.164830	0.495130
Fe151	Fe15	0.689030	0.636170	0.532470
O431	O43	0.629930	0.637670	0.296970
O441	O44	0.600130	0.576170	0.656870
O451	O45	0.740630	0.636670	0.742970
C571	C57	0.582730	0.595470	0.246370
C581	C58	0.549730	0.542070	0.549470
C591	C59	0.532730	0.550370	0.366370
C601	C60	0.515130	0.503370	0.691170
H151	H15	0.526130	0.498170	0.828470
Fe161	Fe16	0.030500	0.386200	0.865800
O461	O46	0.029000	0.325600	0.630300
O471	O47	0.090500	0.357300	0.990200
O481	O48	0.030000	0.437300	0.076300
C611	C61	0.071200	0.320600	0.579700
C621	C62	0.124600	0.341000	0.882800
C631	C63	0.116300	0.315700	0.699700
C641	C64	0.163300	0.345100	0.024500
H161	H16	0.168500	0.361300	0.161800
Fe171	Fe17	0.697170	0.719530	0.199130
O491	O49	0.695670	0.658930	0.963630
O501	O50	0.757170	0.690630	0.323530
O511	O51	0.696670	0.770630	0.409630
C651	C65	0.737870	0.653930	0.913030
C661	C66	0.791270	0.674330	0.216130
C671	C67	0.782970	0.649030	0.033030
C681	C68	0.829970	0.678430	0.357830
H171	H17	0.835170	0.694630	0.495130
Fe181	Fe18	0.363830	0.052870	0.532470
O521	O52	0.362330	0.992270	0.296970
O531	O53	0.423830	0.023970	0.656870
O541	O54	0.363330	0.103970	0.742970
C691	C69	0.404530	0.987270	0.246370
C701	C70	0.457930	0.007670	0.549470
C711	C71	0.449630	0.982370	0.366370
C721	C72	0.496630	0.011770	0.691170
H181	H18	0.501830	0.027970	0.828470
