data_COQJAV_freeONLY_PM
_symmetry_space_group_name_H-M	'P1'
_cell_length_a	16.929300
_cell_length_b	18.469400
_cell_length_c	28.346000
_cell_angle_alpha	90.000000
_cell_angle_beta	100.629000
_cell_angle_gamma	90.000000
_symmetry_Int_Tables_number 1

loop_
_symmetry_equiv_pos_as_xyz
'x,y,z'

loop_
_atom_site_label
_atom_site_type_symbol
_atom_site_fract_x
_atom_site_fract_y
_atom_site_fract_z
Mn11	Mn1	0.217460	0.380040	0.088290
O11	O1	0.800000	0.795000	0.072150
O21	O2	0.786000	0.787700	0.147530
O31	O3	0.614300	0.817200	0.081100
O41	O4	0.638500	0.744400	0.022410
O51	O5	0.201200	0.437100	0.024370
O61	O6	0.234400	0.358000	0.971350
N11	N1	0.188000	0.496200	0.169400
N21	N2	0.062100	0.703000	0.778200
N31	N3	0.326200	0.484600	0.162700
N41	N4	0.326900	0.443700	0.122500
N51	N5	0.156200	0.466200	0.125500
N61	N6	0.139600	0.714400	0.773500
C11	C1	0.378900	0.475700	0.098800
C21	C2	0.397700	0.446300	0.053500
H11	H1	0.452400	0.426800	0.059400
H21	H2	0.393600	0.485100	0.029500
H31	H3	0.359500	0.407700	0.041500
C31	C3	0.039800	0.489400	0.061700
H41	H4	0.061000	0.513800	0.035900
H51	H5	0.984700	0.505900	0.061600
H61	H6	0.039800	0.436900	0.056500
H71	H7	0.975700	0.777900	0.771700
C41	C4	0.211800	0.419100	0.983200
C51	C5	0.821600	0.769500	0.114400
C61	C6	0.017400	0.616300	0.137100
C71	C7	0.082300	0.561500	0.142400
C81	C8	0.571600	0.629800	0.067900
H81	H8	0.613900	0.616500	0.051800
C91	C9	0.409500	0.540700	0.123100
C101	C10	0.056200	0.653700	0.813200
C111	C11	0.606100	0.758400	0.057600
C121	C12	0.490400	0.720800	0.096300
H91	H9	0.478700	0.770300	0.100800
C131	C13	0.145500	0.553200	0.180100
C141	C14	0.935800	0.705100	0.087300
H101	H10	0.924100	0.730900	0.057800
C151	C15	0.266500	0.468300	0.191800
H111	H11	0.282800	0.490300	0.223900
H121	H12	0.263100	0.415300	0.195900
C161	C16	0.133700	0.631800	0.832100
C171	C17	0.460900	0.596000	0.106800
C181	C18	0.973100	0.629100	0.172900
H131	H13	0.985600	0.603300	0.202300
C191	C19	0.091800	0.507200	0.109300
C201	C20	0.526200	0.576300	0.085500
H141	H14	0.539600	0.526700	0.083000
C211	C21	0.203500	0.459600	0.898300
H151	H15	0.220800	0.412700	0.891000
C221	C22	0.157600	0.578500	0.871300
C231	C23	0.554500	0.702700	0.074100
C241	C24	0.197100	0.475700	0.944200
C251	C25	0.183300	0.671200	0.806300
C261	C26	0.997700	0.655500	0.094400
H161	H16	0.027800	0.647800	0.069700
C271	C27	0.910600	0.679400	0.166200
H171	H17	0.881400	0.687700	0.191300
C281	C28	0.890100	0.718100	0.122500
C291	C29	0.374600	0.544400	0.163500
C301	C30	0.173200	0.544500	0.954600
H181	H18	0.169700	0.557000	0.986600
C311	C31	0.185400	0.510600	0.861700
H191	H19	0.192100	0.498700	0.830000
C321	C32	0.977600	0.628200	0.823200
H201	H20	0.942300	0.669900	0.824600
H211	H21	0.986100	0.602500	0.853900
H221	H22	0.952600	0.595400	0.797500
C331	C33	0.443900	0.668300	0.111600
H231	H23	0.399400	0.681900	0.125700
C341	C34	0.154200	0.596000	0.918000
H241	H24	0.138700	0.643400	0.925500
C351	C35	0.273800	0.667700	0.811800
H251	H25	0.291400	0.699800	0.788300
H261	H26	0.290100	0.617900	0.806600
H271	H27	0.298400	0.683100	0.844300
C361	C36	0.386700	0.597300	0.204200
H281	H28	0.440400	0.618800	0.207600
H291	H29	0.381600	0.572300	0.233900
H301	H30	0.346000	0.635500	0.197600
C371	C37	0.167700	0.595100	0.225800
H311	H31	0.163400	0.563700	0.253100
H321	H32	0.131100	0.636400	0.225300
H331	H33	0.223000	0.612700	0.229000
Mn21	Mn2	0.717460	0.880040	0.088290
O71	O7	0.300000	0.295000	0.072150
O81	O8	0.286000	0.287700	0.147530
O91	O9	0.114300	0.317200	0.081100
O101	O10	0.138500	0.244400	0.022410
O111	O11	0.701200	0.937100	0.024370
O121	O12	0.734400	0.858000	0.971350
N71	N7	0.688000	0.996200	0.169400
N81	N8	0.562100	0.203000	0.778200
N91	N9	0.826200	0.984600	0.162700
N101	N10	0.826900	0.943700	0.122500
N111	N11	0.656200	0.966200	0.125500
N121	N12	0.639600	0.214400	0.773500
C381	C38	0.878900	0.975700	0.098800
C391	C39	0.897700	0.946300	0.053500
H341	H34	0.952400	0.926800	0.059400
H351	H35	0.893600	0.985100	0.029500
H361	H36	0.859500	0.907700	0.041500
C401	C40	0.539800	0.989400	0.061700
H371	H37	0.561000	0.013800	0.035900
H381	H38	0.484700	0.005900	0.061600
H391	H39	0.539800	0.936900	0.056500
H401	H40	0.475700	0.277900	0.771700
C411	C41	0.711800	0.919100	0.983200
C421	C42	0.321600	0.269500	0.114400
C431	C43	0.517400	0.116300	0.137100
C441	C44	0.582300	0.061500	0.142400
C451	C45	0.071600	0.129800	0.067900
H411	H41	0.113900	0.116500	0.051800
C461	C46	0.909500	0.040700	0.123100
C471	C47	0.556200	0.153700	0.813200
C481	C48	0.106100	0.258400	0.057600
C491	C49	0.990400	0.220800	0.096300
H421	H42	0.978700	0.270300	0.100800
C501	C50	0.645500	0.053200	0.180100
C511	C51	0.435800	0.205100	0.087300
H431	H43	0.424100	0.230900	0.057800
C521	C52	0.766500	0.968300	0.191800
H441	H44	0.782800	0.990300	0.223900
H451	H45	0.763100	0.915300	0.195900
C531	C53	0.633700	0.131800	0.832100
C541	C54	0.960900	0.096000	0.106800
C551	C55	0.473100	0.129100	0.172900
H461	H46	0.485600	0.103300	0.202300
C561	C56	0.591800	0.007200	0.109300
C571	C57	0.026200	0.076300	0.085500
H471	H47	0.039600	0.026700	0.083000
C581	C58	0.703500	0.959600	0.898300
H481	H48	0.720800	0.912700	0.891000
C591	C59	0.657600	0.078500	0.871300
C601	C60	0.054500	0.202700	0.074100
C611	C61	0.697100	0.975700	0.944200
C621	C62	0.683300	0.171200	0.806300
C631	C63	0.497700	0.155500	0.094400
H491	H49	0.527800	0.147800	0.069700
C641	C64	0.410600	0.179400	0.166200
H501	H50	0.381400	0.187700	0.191300
C651	C65	0.390100	0.218100	0.122500
C661	C66	0.874600	0.044400	0.163500
C671	C67	0.673200	0.044500	0.954600
H511	H51	0.669700	0.057000	0.986600
C681	C68	0.685400	0.010600	0.861700
H521	H52	0.692100	0.998700	0.830000
C691	C69	0.477600	0.128200	0.823200
H531	H53	0.442300	0.169900	0.824600
H541	H54	0.486100	0.102500	0.853900
H551	H55	0.452600	0.095400	0.797500
C701	C70	0.943900	0.168300	0.111600
H561	H56	0.899400	0.181900	0.125700
C711	C71	0.654200	0.096000	0.918000
H571	H57	0.638700	0.143400	0.925500
C721	C72	0.773800	0.167700	0.811800
H581	H58	0.791400	0.199800	0.788300
H591	H59	0.790100	0.117900	0.806600
H601	H60	0.798400	0.183100	0.844300
C731	C73	0.886700	0.097300	0.204200
H611	H61	0.940400	0.118800	0.207600
H621	H62	0.881600	0.072300	0.233900
H631	H63	0.846000	0.135500	0.197600
C741	C74	0.667700	0.095100	0.225800
H641	H64	0.663400	0.063700	0.253100
H651	H65	0.631100	0.136400	0.225300
H661	H66	0.723000	0.112700	0.229000
Mn31	Mn3	0.782540	0.380040	0.411710
O131	O13	0.200000	0.795000	0.427850
O141	O14	0.214000	0.787700	0.352470
O151	O15	0.385700	0.817200	0.418900
O161	O16	0.361500	0.744400	0.477590
O171	O17	0.798800	0.437100	0.475630
O181	O18	0.765600	0.358000	0.528650
N131	N13	0.812000	0.496200	0.330600
N141	N14	0.937900	0.703000	0.721800
N151	N15	0.673800	0.484600	0.337300
N161	N16	0.673100	0.443700	0.377500
N171	N17	0.843800	0.466200	0.374500
N181	N18	0.860400	0.714400	0.726500
C751	C75	0.621100	0.475700	0.401200
C761	C76	0.602300	0.446300	0.446500
H671	H67	0.547600	0.426800	0.440600
H681	H68	0.606400	0.485100	0.470500
H691	H69	0.640500	0.407700	0.458500
C771	C77	0.960200	0.489400	0.438300
H701	H70	0.939000	0.513800	0.464100
H711	H71	0.015300	0.505900	0.438400
H721	H72	0.960200	0.436900	0.443500
H731	H73	0.024300	0.777900	0.728300
C781	C78	0.788200	0.419100	0.516800
C791	C79	0.178400	0.769500	0.385600
C801	C80	0.982600	0.616300	0.362900
C811	C81	0.917700	0.561500	0.357600
C821	C82	0.428400	0.629800	0.432100
H741	H74	0.386100	0.616500	0.448200
C831	C83	0.590500	0.540700	0.376900
C841	C84	0.943800	0.653700	0.686800
C851	C85	0.393900	0.758400	0.442400
C861	C86	0.509600	0.720800	0.403700
H751	H75	0.521300	0.770300	0.399200
C871	C87	0.854500	0.553200	0.319900
C881	C88	0.064200	0.705100	0.412700
H761	H76	0.075900	0.730900	0.442200
C891	C89	0.733500	0.468300	0.308200
H771	H77	0.717200	0.490300	0.276100
H781	H78	0.736900	0.415300	0.304100
C901	C90	0.866300	0.631800	0.667900
C911	C91	0.539100	0.596000	0.393200
C921	C92	0.026900	0.629100	0.327100
H791	H79	0.014400	0.603300	0.297700
C931	C93	0.908200	0.507200	0.390700
C941	C94	0.473800	0.576300	0.414500
H801	H80	0.460400	0.526700	0.417000
C951	C95	0.796500	0.459600	0.601700
H811	H81	0.779200	0.412700	0.609000
C961	C96	0.842400	0.578500	0.628700
C971	C97	0.445500	0.702700	0.425900
C981	C98	0.802900	0.475700	0.555800
C991	C99	0.816700	0.671200	0.693700
C1001	C100	0.002300	0.655500	0.405600
H821	H82	0.972200	0.647800	0.430300
C1011	C101	0.089400	0.679400	0.333800
H831	H83	0.118600	0.687700	0.308700
C1021	C102	0.109900	0.718100	0.377500
C1031	C103	0.625400	0.544400	0.336500
C1041	C104	0.826800	0.544500	0.545400
H841	H84	0.830300	0.557000	0.513400
C1051	C105	0.814600	0.510600	0.638300
H851	H85	0.807900	0.498700	0.670000
C1061	C106	0.022400	0.628200	0.676800
H861	H86	0.057700	0.669900	0.675400
H871	H87	0.013900	0.602500	0.646100
H881	H88	0.047400	0.595400	0.702500
C1071	C107	0.556100	0.668300	0.388400
H891	H89	0.600600	0.681900	0.374300
C1081	C108	0.845800	0.596000	0.582000
H901	H90	0.861300	0.643400	0.574500
C1091	C109	0.726200	0.667700	0.688200
H911	H91	0.708600	0.699800	0.711700
H921	H92	0.709900	0.617900	0.693400
H931	H93	0.701600	0.683100	0.655700
C1101	C110	0.613300	0.597300	0.295800
H941	H94	0.559600	0.618800	0.292400
H951	H95	0.618400	0.572300	0.266100
H961	H96	0.654000	0.635500	0.302400
C1111	C111	0.832300	0.595100	0.274200
H971	H97	0.836600	0.563700	0.246900
H981	H98	0.868900	0.636400	0.274700
H991	H99	0.777000	0.612700	0.271000
Mn41	Mn4	0.282540	0.880040	0.411710
O191	O19	0.700000	0.295000	0.427850
O201	O20	0.714000	0.287700	0.352470
O211	O21	0.885700	0.317200	0.418900
O221	O22	0.861500	0.244400	0.477590
O231	O23	0.298800	0.937100	0.475630
O241	O24	0.265600	0.858000	0.528650
N191	N19	0.312000	0.996200	0.330600
N201	N20	0.437900	0.203000	0.721800
N211	N21	0.173800	0.984600	0.337300
N221	N22	0.173100	0.943700	0.377500
N231	N23	0.343800	0.966200	0.374500
N241	N24	0.360400	0.214400	0.726500
C1121	C112	0.121100	0.975700	0.401200
C1131	C113	0.102300	0.946300	0.446500
H1001	H100	0.047600	0.926800	0.440600
H1011	H101	0.106400	0.985100	0.470500
H1021	H102	0.140500	0.907700	0.458500
C1141	C114	0.460200	0.989400	0.438300
H1031	H103	0.439000	0.013800	0.464100
H1041	H104	0.515300	0.005900	0.438400
H1051	H105	0.460200	0.936900	0.443500
H1061	H106	0.524300	0.277900	0.728300
C1151	C115	0.288200	0.919100	0.516800
C1161	C116	0.678400	0.269500	0.385600
C1171	C117	0.482600	0.116300	0.362900
C1181	C118	0.417700	0.061500	0.357600
C1191	C119	0.928400	0.129800	0.432100
H1071	H107	0.886100	0.116500	0.448200
C1201	C120	0.090500	0.040700	0.376900
C1211	C121	0.443800	0.153700	0.686800
C1221	C122	0.893900	0.258400	0.442400
C1231	C123	0.009600	0.220800	0.403700
H1081	H108	0.021300	0.270300	0.399200
C1241	C124	0.354500	0.053200	0.319900
C1251	C125	0.564200	0.205100	0.412700
H1091	H109	0.575900	0.230900	0.442200
C1261	C126	0.233500	0.968300	0.308200
H1101	H110	0.217200	0.990300	0.276100
H1111	H111	0.236900	0.915300	0.304100
C1271	C127	0.366300	0.131800	0.667900
C1281	C128	0.039100	0.096000	0.393200
C1291	C129	0.526900	0.129100	0.327100
H1121	H112	0.514400	0.103300	0.297700
C1301	C130	0.408200	0.007200	0.390700
C1311	C131	0.973800	0.076300	0.414500
H1131	H113	0.960400	0.026700	0.417000
C1321	C132	0.296500	0.959600	0.601700
H1141	H114	0.279200	0.912700	0.609000
C1331	C133	0.342400	0.078500	0.628700
C1341	C134	0.945500	0.202700	0.425900
C1351	C135	0.302900	0.975700	0.555800
C1361	C136	0.316700	0.171200	0.693700
C1371	C137	0.502300	0.155500	0.405600
H1151	H115	0.472200	0.147800	0.430300
C1381	C138	0.589400	0.179400	0.333800
H1161	H116	0.618600	0.187700	0.308700
C1391	C139	0.609900	0.218100	0.377500
C1401	C140	0.125400	0.044400	0.336500
C1411	C141	0.326800	0.044500	0.545400
H1171	H117	0.330300	0.057000	0.513400
C1421	C142	0.314600	0.010600	0.638300
H1181	H118	0.307900	0.998700	0.670000
C1431	C143	0.522400	0.128200	0.676800
H1191	H119	0.557700	0.169900	0.675400
H1201	H120	0.513900	0.102500	0.646100
H1211	H121	0.547400	0.095400	0.702500
C1441	C144	0.056100	0.168300	0.388400
H1221	H122	0.100600	0.181900	0.374300
C1451	C145	0.345800	0.096000	0.582000
H1231	H123	0.361300	0.143400	0.574500
C1461	C146	0.226200	0.167700	0.688200
H1241	H124	0.208600	0.199800	0.711700
H1251	H125	0.209900	0.117900	0.693400
H1261	H126	0.201600	0.183100	0.655700
C1471	C147	0.113300	0.097300	0.295800
H1271	H127	0.059600	0.118800	0.292400
H1281	H128	0.118400	0.072300	0.266100
H1291	H129	0.154000	0.135500	0.302400
C1481	C148	0.332300	0.095100	0.274200
H1301	H130	0.336600	0.063700	0.246900
H1311	H131	0.368900	0.136400	0.274700
H1321	H132	0.277000	0.112700	0.271000
Mn51	Mn5	0.782540	0.619960	0.911710
O251	O25	0.200000	0.205000	0.927850
O261	O26	0.214000	0.212300	0.852470
O271	O27	0.385700	0.182800	0.918900
O281	O28	0.361500	0.255600	0.977590
O291	O29	0.798800	0.562900	0.975630
O301	O30	0.765600	0.642000	0.028650
N251	N25	0.812000	0.503800	0.830600
N261	N26	0.937900	0.297000	0.221800
N271	N27	0.673800	0.515400	0.837300
N281	N28	0.673100	0.556300	0.877500
N291	N29	0.843800	0.533800	0.874500
N301	N30	0.860400	0.285600	0.226500
C1491	C149	0.621100	0.524300	0.901200
C1501	C150	0.602300	0.553700	0.946500
H1331	H133	0.547600	0.573200	0.940600
H1341	H134	0.606400	0.514900	0.970500
H1351	H135	0.640500	0.592300	0.958500
C1511	C151	0.960200	0.510600	0.938300
H1361	H136	0.939000	0.486200	0.964100
H1371	H137	0.015300	0.494100	0.938400
H1381	H138	0.960200	0.563100	0.943500
H1391	H139	0.024300	0.222100	0.228300
C1521	C152	0.788200	0.580900	0.016800
C1531	C153	0.178400	0.230500	0.885600
C1541	C154	0.982600	0.383700	0.862900
C1551	C155	0.917700	0.438500	0.857600
C1561	C156	0.428400	0.370200	0.932100
H1401	H140	0.386100	0.383500	0.948200
C1571	C157	0.590500	0.459300	0.876900
C1581	C158	0.943800	0.346300	0.186800
C1591	C159	0.393900	0.241600	0.942400
C1601	C160	0.509600	0.279200	0.903700
H1411	H141	0.521300	0.229700	0.899200
C1611	C161	0.854500	0.446800	0.819900
C1621	C162	0.064200	0.294900	0.912700
H1421	H142	0.075900	0.269100	0.942200
C1631	C163	0.733500	0.531700	0.808200
H1431	H143	0.717200	0.509700	0.776100
H1441	H144	0.736900	0.584700	0.804100
C1641	C164	0.866300	0.368200	0.167900
C1651	C165	0.539100	0.404000	0.893200
C1661	C166	0.026900	0.370900	0.827100
H1451	H145	0.014400	0.396700	0.797700
C1671	C167	0.908200	0.492800	0.890700
C1681	C168	0.473800	0.423700	0.914500
H1461	H146	0.460400	0.473300	0.917000
C1691	C169	0.796500	0.540400	0.101700
H1471	H147	0.779200	0.587300	0.109000
C1701	C170	0.842400	0.421500	0.128700
C1711	C171	0.445500	0.297300	0.925900
C1721	C172	0.802900	0.524300	0.055800
C1731	C173	0.816700	0.328800	0.193700
C1741	C174	0.002300	0.344500	0.905600
H1481	H148	0.972200	0.352200	0.930300
C1751	C175	0.089400	0.320600	0.833800
H1491	H149	0.118600	0.312300	0.808700
C1761	C176	0.109900	0.281900	0.877500
C1771	C177	0.625400	0.455600	0.836500
C1781	C178	0.826800	0.455500	0.045400
H1501	H150	0.830300	0.443000	0.013400
C1791	C179	0.814600	0.489400	0.138300
H1511	H151	0.807900	0.501300	0.170000
C1801	C180	0.022400	0.371800	0.176800
H1521	H152	0.057700	0.330100	0.175400
H1531	H153	0.013900	0.397500	0.146100
H1541	H154	0.047400	0.404600	0.202500
C1811	C181	0.556100	0.331700	0.888400
H1551	H155	0.600600	0.318100	0.874300
C1821	C182	0.845800	0.404000	0.082000
H1561	H156	0.861300	0.356600	0.074500
C1831	C183	0.726200	0.332300	0.188200
H1571	H157	0.708600	0.300200	0.211700
H1581	H158	0.709900	0.382100	0.193400
H1591	H159	0.701600	0.316900	0.155700
C1841	C184	0.613300	0.402700	0.795800
H1601	H160	0.559600	0.381200	0.792400
H1611	H161	0.618400	0.427700	0.766100
H1621	H162	0.654000	0.364500	0.802400
C1851	C185	0.832300	0.404900	0.774200
H1631	H163	0.836600	0.436300	0.746900
H1641	H164	0.868900	0.363600	0.774700
H1651	H165	0.777000	0.387300	0.771000
Mn61	Mn6	0.282540	0.119960	0.911710
O311	O31	0.700000	0.705000	0.927850
O321	O32	0.714000	0.712300	0.852470
O331	O33	0.885700	0.682800	0.918900
O341	O34	0.861500	0.755600	0.977590
O351	O35	0.298800	0.062900	0.975630
O361	O36	0.265600	0.142000	0.028650
N311	N31	0.312000	0.003800	0.830600
N321	N32	0.437900	0.797000	0.221800
N331	N33	0.173800	0.015400	0.837300
N341	N34	0.173100	0.056300	0.877500
N351	N35	0.343800	0.033800	0.874500
N361	N36	0.360400	0.785600	0.226500
C1861	C186	0.121100	0.024300	0.901200
C1871	C187	0.102300	0.053700	0.946500
H1661	H166	0.047600	0.073200	0.940600
H1671	H167	0.106400	0.014900	0.970500
H1681	H168	0.140500	0.092300	0.958500
C1881	C188	0.460200	0.010600	0.938300
H1691	H169	0.439000	0.986200	0.964100
H1701	H170	0.515300	0.994100	0.938400
H1711	H171	0.460200	0.063100	0.943500
H1721	H172	0.524300	0.722100	0.228300
C1891	C189	0.288200	0.080900	0.016800
C1901	C190	0.678400	0.730500	0.885600
C1911	C191	0.482600	0.883700	0.862900
C1921	C192	0.417700	0.938500	0.857600
C1931	C193	0.928400	0.870200	0.932100
H1731	H173	0.886100	0.883500	0.948200
C1941	C194	0.090500	0.959300	0.876900
C1951	C195	0.443800	0.846300	0.186800
C1961	C196	0.893900	0.741600	0.942400
C1971	C197	0.009600	0.779200	0.903700
H1741	H174	0.021300	0.729700	0.899200
C1981	C198	0.354500	0.946800	0.819900
C1991	C199	0.564200	0.794900	0.912700
H1751	H175	0.575900	0.769100	0.942200
C2001	C200	0.233500	0.031700	0.808200
H1761	H176	0.217200	0.009700	0.776100
H1771	H177	0.236900	0.084700	0.804100
C2011	C201	0.366300	0.868200	0.167900
C2021	C202	0.039100	0.904000	0.893200
C2031	C203	0.526900	0.870900	0.827100
H1781	H178	0.514400	0.896700	0.797700
C2041	C204	0.408200	0.992800	0.890700
C2051	C205	0.973800	0.923700	0.914500
H1791	H179	0.960400	0.973300	0.917000
C2061	C206	0.296500	0.040400	0.101700
H1801	H180	0.279200	0.087300	0.109000
C2071	C207	0.342400	0.921500	0.128700
C2081	C208	0.945500	0.797300	0.925900
C2091	C209	0.302900	0.024300	0.055800
C2101	C210	0.316700	0.828800	0.193700
C2111	C211	0.502300	0.844500	0.905600
H1811	H181	0.472200	0.852200	0.930300
C2121	C212	0.589400	0.820600	0.833800
H1821	H182	0.618600	0.812300	0.808700
C2131	C213	0.609900	0.781900	0.877500
C2141	C214	0.125400	0.955600	0.836500
C2151	C215	0.326800	0.955500	0.045400
H1831	H183	0.330300	0.943000	0.013400
C2161	C216	0.314600	0.989400	0.138300
H1841	H184	0.307900	0.001300	0.170000
C2171	C217	0.522400	0.871800	0.176800
H1851	H185	0.557700	0.830100	0.175400
H1861	H186	0.513900	0.897500	0.146100
H1871	H187	0.547400	0.904600	0.202500
C2181	C218	0.056100	0.831700	0.888400
H1881	H188	0.100600	0.818100	0.874300
C2191	C219	0.345800	0.904000	0.082000
H1891	H189	0.361300	0.856600	0.074500
C2201	C220	0.226200	0.832300	0.188200
H1901	H190	0.208600	0.800200	0.211700
H1911	H191	0.209900	0.882100	0.193400
H1921	H192	0.201600	0.816900	0.155700
C2211	C221	0.113300	0.902700	0.795800
H1931	H193	0.059600	0.881200	0.792400
H1941	H194	0.118400	0.927700	0.766100
H1951	H195	0.154000	0.864500	0.802400
C2221	C222	0.332300	0.904900	0.774200
H1961	H196	0.336600	0.936300	0.746900
H1971	H197	0.368900	0.863600	0.774700
H1981	H198	0.277000	0.887300	0.771000
Mn71	Mn7	0.217460	0.619960	0.588290
O371	O37	0.800000	0.205000	0.572150
O381	O38	0.786000	0.212300	0.647530
O391	O39	0.614300	0.182800	0.581100
O401	O40	0.638500	0.255600	0.522410
O411	O41	0.201200	0.562900	0.524370
O421	O42	0.234400	0.642000	0.471350
N371	N37	0.188000	0.503800	0.669400
N381	N38	0.062100	0.297000	0.278200
N391	N39	0.326200	0.515400	0.662700
N401	N40	0.326900	0.556300	0.622500
N411	N41	0.156200	0.533800	0.625500
N421	N42	0.139600	0.285600	0.273500
C2231	C223	0.378900	0.524300	0.598800
C2241	C224	0.397700	0.553700	0.553500
H1991	H199	0.452400	0.573200	0.559400
H2001	H200	0.393600	0.514900	0.529500
H2011	H201	0.359500	0.592300	0.541500
C2251	C225	0.039800	0.510600	0.561700
H2021	H202	0.061000	0.486200	0.535900
H2031	H203	0.984700	0.494100	0.561600
H2041	H204	0.039800	0.563100	0.556500
H2051	H205	0.975700	0.222100	0.271700
C2261	C226	0.211800	0.580900	0.483200
C2271	C227	0.821600	0.230500	0.614400
C2281	C228	0.017400	0.383700	0.637100
C2291	C229	0.082300	0.438500	0.642400
C2301	C230	0.571600	0.370200	0.567900
H2061	H206	0.613900	0.383500	0.551800
C2311	C231	0.409500	0.459300	0.623100
C2321	C232	0.056200	0.346300	0.313200
C2331	C233	0.606100	0.241600	0.557600
C2341	C234	0.490400	0.279200	0.596300
H2071	H207	0.478700	0.229700	0.600800
C2351	C235	0.145500	0.446800	0.680100
C2361	C236	0.935800	0.294900	0.587300
H2081	H208	0.924100	0.269100	0.557800
C2371	C237	0.266500	0.531700	0.691800
H2091	H209	0.282800	0.509700	0.723900
H2101	H210	0.263100	0.584700	0.695900
C2381	C238	0.133700	0.368200	0.332100
C2391	C239	0.460900	0.404000	0.606800
C2401	C240	0.973100	0.370900	0.672900
H2111	H211	0.985600	0.396700	0.702300
C2411	C241	0.091800	0.492800	0.609300
C2421	C242	0.526200	0.423700	0.585500
H2121	H212	0.539600	0.473300	0.583000
C2431	C243	0.203500	0.540400	0.398300
H2131	H213	0.220800	0.587300	0.391000
C2441	C244	0.157600	0.421500	0.371300
C2451	C245	0.554500	0.297300	0.574100
C2461	C246	0.197100	0.524300	0.444200
C2471	C247	0.183300	0.328800	0.306300
C2481	C248	0.997700	0.344500	0.594400
H2141	H214	0.027800	0.352200	0.569700
C2491	C249	0.910600	0.320600	0.666200
H2151	H215	0.881400	0.312300	0.691300
C2501	C250	0.890100	0.281900	0.622500
C2511	C251	0.374600	0.455600	0.663500
C2521	C252	0.173200	0.455500	0.454600
H2161	H216	0.169700	0.443000	0.486600
C2531	C253	0.185400	0.489400	0.361700
H2171	H217	0.192100	0.501300	0.330000
C2541	C254	0.977600	0.371800	0.323200
H2181	H218	0.942300	0.330100	0.324600
H2191	H219	0.986100	0.397500	0.353900
H2201	H220	0.952600	0.404600	0.297500
C2551	C255	0.443900	0.331700	0.611600
H2211	H221	0.399400	0.318100	0.625700
C2561	C256	0.154200	0.404000	0.418000
H2221	H222	0.138700	0.356600	0.425500
C2571	C257	0.273800	0.332300	0.311800
H2231	H223	0.291400	0.300200	0.288300
H2241	H224	0.290100	0.382100	0.306600
H2251	H225	0.298400	0.316900	0.344300
C2581	C258	0.386700	0.402700	0.704200
H2261	H226	0.440400	0.381200	0.707600
H2271	H227	0.381600	0.427700	0.733900
H2281	H228	0.346000	0.364500	0.697600
C2591	C259	0.167700	0.404900	0.725800
H2291	H229	0.163400	0.436300	0.753100
H2301	H230	0.131100	0.363600	0.725300
H2311	H231	0.223000	0.387300	0.729000
Mn81	Mn8	0.717460	0.119960	0.588290
O431	O43	0.300000	0.705000	0.572150
O441	O44	0.286000	0.712300	0.647530
O451	O45	0.114300	0.682800	0.581100
O461	O46	0.138500	0.755600	0.522410
O471	O47	0.701200	0.062900	0.524370
O481	O48	0.734400	0.142000	0.471350
N431	N43	0.688000	0.003800	0.669400
N441	N44	0.562100	0.797000	0.278200
N451	N45	0.826200	0.015400	0.662700
N461	N46	0.826900	0.056300	0.622500
N471	N47	0.656200	0.033800	0.625500
N481	N48	0.639600	0.785600	0.273500
C2601	C260	0.878900	0.024300	0.598800
C2611	C261	0.897700	0.053700	0.553500
H2321	H232	0.952400	0.073200	0.559400
H2331	H233	0.893600	0.014900	0.529500
H2341	H234	0.859500	0.092300	0.541500
C2621	C262	0.539800	0.010600	0.561700
H2351	H235	0.561000	0.986200	0.535900
H2361	H236	0.484700	0.994100	0.561600
H2371	H237	0.539800	0.063100	0.556500
H2381	H238	0.475700	0.722100	0.271700
C2631	C263	0.711800	0.080900	0.483200
C2641	C264	0.321600	0.730500	0.614400
C2651	C265	0.517400	0.883700	0.637100
C2661	C266	0.582300	0.938500	0.642400
C2671	C267	0.071600	0.870200	0.567900
H2391	H239	0.113900	0.883500	0.551800
C2681	C268	0.909500	0.959300	0.623100
C2691	C269	0.556200	0.846300	0.313200
C2701	C270	0.106100	0.741600	0.557600
C2711	C271	0.990400	0.779200	0.596300
H2401	H240	0.978700	0.729700	0.600800
C2721	C272	0.645500	0.946800	0.680100
C2731	C273	0.435800	0.794900	0.587300
H2411	H241	0.424100	0.769100	0.557800
C2741	C274	0.766500	0.031700	0.691800
H2421	H242	0.782800	0.009700	0.723900
H2431	H243	0.763100	0.084700	0.695900
C2751	C275	0.633700	0.868200	0.332100
C2761	C276	0.960900	0.904000	0.606800
C2771	C277	0.473100	0.870900	0.672900
H2441	H244	0.485600	0.896700	0.702300
C2781	C278	0.591800	0.992800	0.609300
C2791	C279	0.026200	0.923700	0.585500
H2451	H245	0.039600	0.973300	0.583000
C2801	C280	0.703500	0.040400	0.398300
H2461	H246	0.720800	0.087300	0.391000
C2811	C281	0.657600	0.921500	0.371300
C2821	C282	0.054500	0.797300	0.574100
C2831	C283	0.697100	0.024300	0.444200
C2841	C284	0.683300	0.828800	0.306300
C2851	C285	0.497700	0.844500	0.594400
H2471	H247	0.527800	0.852200	0.569700
C2861	C286	0.410600	0.820600	0.666200
H2481	H248	0.381400	0.812300	0.691300
C2871	C287	0.390100	0.781900	0.622500
C2881	C288	0.874600	0.955600	0.663500
C2891	C289	0.673200	0.955500	0.454600
H2491	H249	0.669700	0.943000	0.486600
C2901	C290	0.685400	0.989400	0.361700
H2501	H250	0.692100	0.001300	0.330000
C2911	C291	0.477600	0.871800	0.323200
H2511	H251	0.442300	0.830100	0.324600
H2521	H252	0.486100	0.897500	0.353900
H2531	H253	0.452600	0.904600	0.297500
C2921	C292	0.943900	0.831700	0.611600
H2541	H254	0.899400	0.818100	0.625700
C2931	C293	0.654200	0.904000	0.418000
H2551	H255	0.638700	0.856600	0.425500
C2941	C294	0.773800	0.832300	0.311800
H2561	H256	0.791400	0.800200	0.288300
H2571	H257	0.790100	0.882100	0.306600
H2581	H258	0.798400	0.816900	0.344300
C2951	C295	0.886700	0.902700	0.704200
H2591	H259	0.940400	0.881200	0.707600
H2601	H260	0.881600	0.927700	0.733900
H2611	H261	0.846000	0.864500	0.697600
C2961	C296	0.667700	0.904900	0.725800
H2621	H262	0.663400	0.936300	0.753100
H2631	H263	0.631100	0.863600	0.725300
H2641	H264	0.723000	0.887300	0.729000
Mn91	Mn9	0.250000	0.250000	0.000000
Mn101	Mn10	0.750000	0.250000	0.500000
Mn111	Mn11	0.750000	0.750000	0.000000
Mn121	Mn12	0.250000	0.750000	0.500000
C2971	C297	0.000000	0.746300	0.750000
C2981	C298	0.500000	0.246300	0.750000
C2991	C299	0.000000	0.253700	0.250000
C3001	C300	0.500000	0.753700	0.250000
