data_COWMUX_freeONLY_PM
_symmetry_space_group_name_H-M	'P1'
_cell_length_a	9.543000
_cell_length_b	13.821500
_cell_length_c	15.299300
_cell_angle_alpha	90.000000
_cell_angle_beta	93.388000
_cell_angle_gamma	90.000000
_symmetry_Int_Tables_number 1

loop_
_symmetry_equiv_pos_as_xyz
'x,y,z'

loop_
_atom_site_label
_atom_site_type_symbol
_atom_site_fract_x
_atom_site_fract_y
_atom_site_fract_z
Tm11	Tm1	0.543230	0.111370	0.914440
Tm21	Tm2	0.956770	0.611370	0.585560
Tm31	Tm3	0.456770	0.888630	0.085560
Tm41	Tm4	0.043230	0.388630	0.414440
H11	H1	0.892400	0.908400	0.740100
H21	H2	0.806900	0.836500	0.796300
H31	H3	0.906900	0.903000	0.924900
H41	H4	0.052100	0.037500	0.928900
H51	H5	0.053200	0.036500	0.826400
H61	H6	0.162600	0.888100	0.936700
H71	H7	0.169200	0.893800	0.752200
H81	H8	0.237000	0.811800	0.811700
H91	H9	0.015100	0.764900	0.854600
H101	H10	0.501800	0.317000	0.017600
H111	H11	0.853400	0.337100	0.033800
H121	H12	0.845300	0.450300	0.036900
H131	H13	0.849100	0.390500	0.124000
H141	H14	0.499500	0.457300	0.094900
H151	H15	0.630100	0.465400	0.161600
H161	H16	0.625300	0.525000	0.074400
H171	H17	0.607600	0.408400	0.759900
H181	H18	0.693100	0.336500	0.703700
H191	H19	0.593100	0.403000	0.575100
H201	H20	0.447900	0.537500	0.571100
H211	H21	0.446800	0.536500	0.673600
H221	H22	0.337400	0.388100	0.563300
H231	H23	0.330800	0.393800	0.747800
H241	H24	0.263000	0.311800	0.688300
H251	H25	0.484900	0.264900	0.645400
H261	H26	0.998200	0.817000	0.482400
H271	H27	0.646600	0.837100	0.466200
H281	H28	0.654700	0.950300	0.463100
H291	H29	0.650900	0.890500	0.376000
H301	H30	0.000500	0.957300	0.405100
H311	H31	0.869900	0.965400	0.338400
H321	H32	0.874700	0.025000	0.425600
H331	H33	0.107600	0.091600	0.259900
H341	H34	0.193100	0.163500	0.203700
H351	H35	0.093100	0.097000	0.075100
H361	H36	0.947900	0.962500	0.071100
H371	H37	0.946800	0.963500	0.173600
H381	H38	0.837400	0.111900	0.063300
H391	H39	0.830800	0.106200	0.247800
H401	H40	0.763000	0.188200	0.188300
H411	H41	0.984900	0.235100	0.145400
H421	H42	0.498200	0.683000	0.982400
H431	H43	0.146600	0.662900	0.966200
H441	H44	0.154700	0.549700	0.963100
H451	H45	0.150900	0.609500	0.876000
H461	H46	0.500500	0.542700	0.905100
H471	H47	0.369900	0.534600	0.838400
H481	H48	0.374700	0.475000	0.925600
H491	H49	0.392400	0.591600	0.240100
H501	H50	0.306900	0.663500	0.296300
H511	H51	0.406900	0.597000	0.424900
H521	H52	0.552100	0.462500	0.428900
H531	H53	0.553200	0.463500	0.326400
H541	H54	0.662600	0.611900	0.436700
H551	H55	0.669200	0.606200	0.252200
H561	H56	0.737000	0.688200	0.311700
H571	H57	0.515100	0.735100	0.354600
H581	H58	0.001800	0.183000	0.517600
H591	H59	0.353400	0.162900	0.533800
H601	H60	0.345300	0.049700	0.536900
H611	H61	0.349100	0.109500	0.624000
H621	H62	0.999500	0.042700	0.594900
H631	H63	0.130100	0.034600	0.661600
H641	H64	0.125300	0.975000	0.574400
C11	C1	0.893800	0.872800	0.794800
C21	C2	0.906400	0.943500	0.872300
C31	C3	0.046800	0.995900	0.877700
C41	C4	0.168600	0.926500	0.883200
C51	C5	0.160100	0.857600	0.805900
C61	C6	0.020200	0.802800	0.800700
C71	C7	0.781100	0.008500	0.877200
C81	C8	0.307600	0.979700	0.888900
C91	C9	0.003300	0.733400	0.723700
C101	C10	0.599000	0.315600	0.018000
C111	C11	0.816000	0.391000	0.064000
C121	C12	0.600000	0.465000	0.101000
C131	C13	0.606200	0.372800	0.705200
C141	C14	0.593600	0.443500	0.627700
C151	C15	0.453200	0.495900	0.622300
C161	C16	0.331400	0.426500	0.616800
C171	C17	0.339900	0.357600	0.694100
C181	C18	0.479800	0.302800	0.699300
C191	C19	0.718900	0.508500	0.622800
C201	C20	0.192400	0.479700	0.611100
C211	C21	0.496700	0.233400	0.776300
C221	C22	0.901000	0.815600	0.482000
C231	C23	0.684000	0.891000	0.436000
C241	C24	0.900000	0.965000	0.399000
C251	C25	0.106200	0.127200	0.205200
C261	C26	0.093600	0.056500	0.127700
C271	C27	0.953200	0.004100	0.122300
C281	C28	0.831400	0.073500	0.116800
C291	C29	0.839900	0.142400	0.194100
C301	C30	0.979800	0.197200	0.199300
C311	C31	0.218900	0.991500	0.122800
C321	C32	0.692400	0.020300	0.111100
C331	C33	0.996700	0.266600	0.276300
C341	C34	0.401000	0.684400	0.982000
C351	C35	0.184000	0.609000	0.936000
C361	C36	0.400000	0.535000	0.899000
C371	C37	0.393800	0.627200	0.294800
C381	C38	0.406400	0.556500	0.372300
C391	C39	0.546800	0.504100	0.377700
C401	C40	0.668600	0.573500	0.383200
C411	C41	0.660100	0.642400	0.305900
C421	C42	0.520200	0.697200	0.300700
C431	C43	0.281100	0.491500	0.377200
C441	C44	0.807600	0.520300	0.388900
C451	C45	0.503300	0.766600	0.223700
C461	C46	0.099000	0.184400	0.518000
C471	C47	0.316000	0.109000	0.564000
C481	C48	0.100000	0.035000	0.601000
N11	N1	0.665000	0.386300	0.057700
N21	N2	0.835000	0.886300	0.442300
N31	N3	0.335000	0.613700	0.942300
N41	N4	0.165000	0.113700	0.557700
O11	O1	0.373900	0.164100	0.009200
O21	O2	0.659400	0.971600	0.865300
O31	O3	0.793600	0.095300	0.898600
O41	O4	0.920600	0.663100	0.730100
O51	O5	0.066900	0.747200	0.656300
O61	O6	0.337700	0.043600	0.836200
O71	O7	0.394200	0.961500	0.952800
O81	O8	0.650300	0.248700	0.981800
O91	O9	0.126100	0.664100	0.490800
O101	O10	0.840600	0.471600	0.634700
O111	O11	0.706400	0.595300	0.601400
O121	O12	0.579400	0.163100	0.769900
O131	O13	0.433100	0.247200	0.843700
O141	O14	0.162300	0.543600	0.663800
O151	O15	0.105800	0.461500	0.547200
O161	O16	0.849700	0.748700	0.518200
O171	O17	0.626100	0.835900	0.990800
O181	O18	0.340600	0.028400	0.134700
O191	O19	0.206400	0.904700	0.101400
O201	O20	0.079400	0.336900	0.269900
O211	O21	0.933100	0.252800	0.343700
O221	O22	0.662300	0.956400	0.163800
O231	O23	0.605800	0.038500	0.047200
O241	O24	0.349700	0.751300	0.018200
O251	O25	0.873900	0.335900	0.509200
O261	O26	0.159400	0.528400	0.365300
O271	O27	0.293600	0.404700	0.398600
O281	O28	0.420600	0.836900	0.230100
O291	O29	0.566900	0.752800	0.156300
O301	O30	0.837700	0.456400	0.336200
O311	O31	0.894200	0.538500	0.452800
O321	O32	0.150300	0.251300	0.481800
