data_COXHED_freeONLY_PM
_symmetry_space_group_name_H-M	'P1'
_cell_length_a	15.451900
_cell_length_b	15.451900
_cell_length_c	15.451900
_cell_angle_alpha	90.000000
_cell_angle_beta	90.000000
_cell_angle_gamma	90.000000
_symmetry_Int_Tables_number 1

loop_
_symmetry_equiv_pos_as_xyz
'x,y,z'

loop_
_atom_site_label
_atom_site_type_symbol
_atom_site_fract_x
_atom_site_fract_y
_atom_site_fract_z
O11	O1	0.124100	0.010380	0.361660
O21	O2	0.624100	0.510380	0.861660
O31	O3	0.375900	0.989620	0.861660
O41	O4	0.875900	0.489620	0.361660
O51	O5	0.875900	0.510380	0.138340
O61	O6	0.375900	0.010380	0.638340
O71	O7	0.624100	0.489620	0.638340
O81	O8	0.124100	0.989620	0.138340
O91	O9	0.361660	0.124100	0.010380
O101	O10	0.861660	0.624100	0.510380
O111	O11	0.861660	0.375900	0.989620
O121	O12	0.361660	0.875900	0.489620
O131	O13	0.138340	0.875900	0.510380
O141	O14	0.638340	0.375900	0.010380
O151	O15	0.638340	0.624100	0.489620
O161	O16	0.138340	0.124100	0.989620
O171	O17	0.010380	0.361660	0.124100
O181	O18	0.510380	0.861660	0.624100
O191	O19	0.989620	0.861660	0.375900
O201	O20	0.489620	0.361660	0.875900
O211	O21	0.510380	0.138340	0.875900
O221	O22	0.010380	0.638340	0.375900
O231	O23	0.489620	0.638340	0.624100
O241	O24	0.989620	0.138340	0.124100
O251	O25	0.760380	0.374100	0.888340
O261	O26	0.260380	0.874100	0.388340
O271	O27	0.739620	0.625900	0.388340
O281	O28	0.239620	0.125900	0.888340
O291	O29	0.260380	0.125900	0.111660
O301	O30	0.760380	0.625900	0.611660
O311	O31	0.239620	0.874100	0.611660
O321	O32	0.739620	0.374100	0.111660
O331	O33	0.874100	0.611660	0.239620
O341	O34	0.374100	0.111660	0.739620
O351	O35	0.125900	0.111660	0.260380
O361	O36	0.625900	0.611660	0.760380
O371	O37	0.625900	0.388340	0.739620
O381	O38	0.125900	0.888340	0.239620
O391	O39	0.374100	0.888340	0.760380
O401	O40	0.874100	0.388340	0.260380
O411	O41	0.111660	0.260380	0.125900
O421	O42	0.611660	0.760380	0.625900
O431	O43	0.611660	0.239620	0.874100
O441	O44	0.111660	0.739620	0.374100
O451	O45	0.888340	0.760380	0.374100
O461	O46	0.388340	0.260380	0.874100
O471	O47	0.388340	0.739620	0.625900
O481	O48	0.888340	0.239620	0.125900
Co11	Co1	0.125000	0.875000	0.375000
Co21	Co2	0.375000	0.125000	0.875000
Co31	Co3	0.875000	0.375000	0.125000
Co41	Co4	0.375000	0.875000	0.625000
Co51	Co5	0.625000	0.625000	0.625000
Co61	Co6	0.875000	0.625000	0.375000
Co71	Co7	0.625000	0.375000	0.875000
Co81	Co8	0.125000	0.125000	0.125000
C11	C1	0.125000	0.035890	0.285890
C21	C2	0.625000	0.535890	0.785890
C31	C3	0.375000	0.964110	0.785890
C41	C4	0.875000	0.464110	0.285890
C51	C5	0.875000	0.535890	0.214110
C61	C6	0.375000	0.035890	0.714110
C71	C7	0.625000	0.464110	0.714110
C81	C8	0.125000	0.964110	0.214110
C91	C9	0.285890	0.125000	0.035890
C101	C10	0.785890	0.625000	0.535890
C111	C11	0.785890	0.375000	0.964110
C121	C12	0.285890	0.875000	0.464110
C131	C13	0.214110	0.875000	0.535890
C141	C14	0.714110	0.375000	0.035890
C151	C15	0.714110	0.625000	0.464110
C161	C16	0.214110	0.125000	0.964110
C171	C17	0.035890	0.285890	0.125000
C181	C18	0.535890	0.785890	0.625000
C191	C19	0.964110	0.785890	0.375000
C201	C20	0.464110	0.285890	0.875000
C211	C21	0.535890	0.214110	0.875000
C221	C22	0.035890	0.714110	0.375000
C231	C23	0.464110	0.714110	0.625000
C241	C24	0.964110	0.214110	0.125000
