data_CUBKUF_freeONLY_PM
_symmetry_space_group_name_H-M	'P1'
_cell_length_a	12.488200
_cell_length_b	13.195100
_cell_length_c	19.756000
_cell_angle_alpha	78.959000
_cell_angle_beta	84.553000
_cell_angle_gamma	63.869000
_symmetry_Int_Tables_number 1

loop_
_symmetry_equiv_pos_as_xyz
'x,y,z'

loop_
_atom_site_label
_atom_site_type_symbol
_atom_site_fract_x
_atom_site_fract_y
_atom_site_fract_z
Cu11	Cu1	0.580120	0.560200	0.209130
Cu21	Cu2	0.255650	0.773570	0.248820
Cu31	Cu3	0.935670	0.991480	0.291750
N11	N1	0.439200	0.551800	0.175400
N21	N2	0.321300	0.627500	0.181100
N31	N3	0.332900	0.493900	0.125600
N41	N4	0.673900	0.501800	0.124600
N51	N5	0.775800	0.399400	0.129900
N61	N6	0.237300	0.506300	0.975800
N71	N7	0.373400	0.828700	0.198800
N81	N8	0.483200	0.760600	0.171100
N91	N9	0.456500	0.940300	0.150700
N101	N10	0.795100	0.995600	0.250000
N111	N11	0.809400	0.896900	0.227400
N121	N12	0.623500	0.025300	0.215300
N131	N13	0.498800	0.596700	0.303400
N141	N14	0.381400	0.667800	0.317100
N151	N15	0.472200	0.592200	0.414800
N161	N16	0.132200	0.891300	0.183600
N171	N17	0.020300	0.971900	0.197400
N181	N18	0.051400	0.994000	0.085900
N191	N19	0.134500	0.721700	0.301600
N201	N20	0.019800	0.796700	0.317900
N211	N21	0.038400	0.621000	0.348900
N221	N22	0.728800	0.559100	0.239300
N231	N23	0.767500	0.640200	0.205800
N241	N24	0.901400	0.517100	0.282200
N251	N25	0.189800	0.925700	0.319000
N261	N26	0.072700	0.993600	0.333900
N271	N27	0.184300	0.045500	0.383200
N281	N28	0.836700	0.028200	0.379000
N291	N29	0.733000	0.128500	0.378800
N301	N30	0.265000	0.996100	0.529100
C11	C1	0.299300	0.415600	0.098300
C21	C2	0.199700	0.472400	0.046400
C31	C3	0.259800	0.591600	0.150600
C41	C4	0.443700	0.472000	0.142600
C51	C5	0.827800	0.398500	0.069700
C61	C6	0.667800	0.556500	0.060900
C71	C7	0.474800	0.044600	0.131900
C81	C8	0.496300	0.082300	0.195000
C91	C9	0.359900	0.935000	0.185100
C101	C10	0.529100	0.831100	0.142400
C111	C11	0.704700	0.916700	0.208200
C121	C12	0.684300	0.068300	0.242300
C131	C13	0.495700	0.559900	0.488500
C141	C14	0.368000	0.663300	0.383500
C151	C15	0.551300	0.554000	0.363100
C161	C16	0.032200	0.030700	0.012600
C171	C17	0.972500	0.031700	0.138100
C181	C18	0.148500	0.906200	0.116800
C191	C19	0.010200	0.524700	0.379200
C201	C20	0.008400	0.458000	0.324600
C211	C21	0.965300	0.733700	0.346000
C221	C22	0.142600	0.618000	0.321000
C231	C23	0.870700	0.612000	0.232200
C241	C24	0.811600	0.485600	0.283200
C251	C25	0.219800	0.119200	0.413600
C261	C26	0.311100	0.051800	0.470400
C271	C27	0.071500	0.063800	0.372000
C281	C28	0.255000	0.959400	0.348600
C291	C29	0.673200	0.110200	0.434700
C301	C30	0.835400	0.954900	0.433900
H11	H1	0.275200	0.370600	0.137500
H21	H2	0.370700	0.361200	0.076400
H31	H3	0.164100	0.419100	0.044800
H41	H4	0.136900	0.541400	0.062500
H51	H5	0.403700	0.106600	0.107500
H61	H6	0.544200	0.030300	0.100000
H71	H7	0.469700	0.166300	0.185500
H81	H8	0.447600	0.065100	0.233900
H91	H9	0.430400	0.614500	0.514000
H101	H10	0.571300	0.561500	0.498100
H111	H11	0.109700	0.012500	0.988200
H121	H12	0.983400	0.114500	0.002700
H131	H13	0.931300	0.554200	0.402500
H141	H14	0.070400	0.472600	0.414300
H151	H15	0.079500	0.444300	0.294300
H161	H16	0.013400	0.382500	0.347700
H171	H17	0.253900	0.159500	0.377000
H181	H18	0.148300	0.177800	0.432900
H191	H19	0.336500	0.104300	0.486600
H201	H20	0.382200	0.992800	0.451100
H211	H21	0.175400	0.628400	0.146400
H221	H22	0.514600	0.408500	0.132400
H231	H23	0.901700	0.339100	0.058900
H241	H24	0.606000	0.628900	0.043500
H251	H25	0.291900	0.999000	0.197500
H261	H26	0.603700	0.808500	0.118700
H271	H27	0.686700	0.863100	0.191500
H281	H28	0.651000	0.142500	0.254500
H291	H29	0.295500	0.704200	0.406500
H301	H30	0.633400	0.503200	0.369500
H311	H31	0.894400	0.092300	0.132400
H321	H32	0.218700	0.861600	0.093300
H331	H33	0.885000	0.763200	0.362100
H341	H34	0.212300	0.549900	0.316000
H351	H35	0.918300	0.652200	0.218400
H361	H36	0.808900	0.419900	0.311500
H371	H37	0.001600	0.120000	0.389600
H381	H38	0.339600	0.928000	0.346300
H391	H39	0.597200	0.164100	0.447800
H401	H40	0.895700	0.879100	0.445800
Cu41	Cu4	0.419880	0.439800	0.790870
Cu51	Cu5	0.744350	0.226430	0.751180
Cu61	Cu6	0.064330	0.008520	0.708250
N311	N31	0.560800	0.448200	0.824600
N321	N32	0.678700	0.372500	0.818900
N331	N33	0.667100	0.506100	0.874400
N341	N34	0.326100	0.498200	0.875400
N351	N35	0.224200	0.600600	0.870100
N361	N36	0.762700	0.493700	0.024200
N371	N37	0.626600	0.171300	0.801200
N381	N38	0.516800	0.239400	0.828900
N391	N39	0.543500	0.059700	0.849300
N401	N40	0.204900	0.004400	0.750000
N411	N41	0.190600	0.103100	0.772600
N421	N42	0.376500	0.974700	0.784700
N431	N43	0.501200	0.403300	0.696600
N441	N44	0.618600	0.332200	0.682900
N451	N45	0.527800	0.407800	0.585200
N461	N46	0.867800	0.108700	0.816400
N471	N47	0.979700	0.028100	0.802600
N481	N48	0.948600	0.006000	0.914100
N491	N49	0.865500	0.278300	0.698400
N501	N50	0.980200	0.203300	0.682100
N511	N51	0.961600	0.379000	0.651100
N521	N52	0.271200	0.440900	0.760700
N531	N53	0.232500	0.359800	0.794200
N541	N54	0.098600	0.482900	0.717800
N551	N55	0.810200	0.074300	0.681000
N561	N56	0.927300	0.006400	0.666100
N571	N57	0.815700	0.954500	0.616800
N581	N58	0.163300	0.971800	0.621000
N591	N59	0.267000	0.871500	0.621200
N601	N60	0.735000	0.003900	0.470900
C311	C31	0.700700	0.584400	0.901700
C321	C32	0.800300	0.527600	0.953600
C331	C33	0.740200	0.408400	0.849400
C341	C34	0.556300	0.528000	0.857400
C351	C35	0.172200	0.601500	0.930300
C361	C36	0.332200	0.443500	0.939100
C371	C37	0.525200	0.955400	0.868100
C381	C38	0.503700	0.917700	0.805000
C391	C39	0.640100	0.065000	0.814900
C401	C40	0.470900	0.168900	0.857600
C411	C41	0.295300	0.083300	0.791800
C421	C42	0.315700	0.931700	0.757700
C431	C43	0.504300	0.440100	0.511500
C441	C44	0.632000	0.336700	0.616500
C451	C45	0.448700	0.446000	0.636900
C461	C46	0.967800	0.969300	0.987400
C471	C47	0.027500	0.968300	0.861900
C481	C48	0.851500	0.093800	0.883200
C491	C49	0.989800	0.475300	0.620800
C501	C50	0.991600	0.542000	0.675400
C511	C51	0.034700	0.266300	0.654000
C521	C52	0.857400	0.382000	0.679000
C531	C53	0.129300	0.388000	0.767800
C541	C54	0.188400	0.514400	0.716800
C551	C55	0.780200	0.880800	0.586400
C561	C56	0.688900	0.948200	0.529600
C571	C57	0.928500	0.936200	0.628000
C581	C58	0.745000	0.040600	0.651400
C591	C59	0.326800	0.889800	0.565300
C601	C60	0.164600	0.045100	0.566100
H411	H41	0.724800	0.629400	0.862500
H421	H42	0.629300	0.638800	0.923600
H431	H43	0.835900	0.580900	0.955200
H441	H44	0.863100	0.458600	0.937500
H451	H45	0.596300	0.893400	0.892500
H461	H46	0.455800	0.969700	0.900000
H471	H47	0.530300	0.833700	0.814500
H481	H48	0.552400	0.934900	0.766100
H491	H49	0.569600	0.385500	0.486000
H501	H50	0.428700	0.438500	0.501900
H511	H51	0.890300	0.987500	0.011800
H521	H52	0.016600	0.885500	0.997300
H531	H53	0.068700	0.445800	0.597500
H541	H54	0.929600	0.527400	0.585700
H551	H55	0.920500	0.555700	0.705700
H561	H56	0.986600	0.617500	0.652300
H571	H57	0.746100	0.840500	0.623000
H581	H58	0.851700	0.822200	0.567100
H591	H59	0.663500	0.895700	0.513400
H601	H60	0.617800	0.007200	0.548900
H611	H61	0.824600	0.371600	0.853600
H621	H62	0.485400	0.591500	0.867600
H631	H63	0.098300	0.660900	0.941100
H641	H64	0.394000	0.371100	0.956500
H651	H65	0.708100	0.001000	0.802500
H661	H66	0.396300	0.191500	0.881300
H671	H67	0.313300	0.136900	0.808500
H681	H68	0.349000	0.857500	0.745500
H691	H69	0.704500	0.295800	0.593500
H701	H70	0.366600	0.496800	0.630500
H711	H71	0.105600	0.907700	0.867600
H721	H72	0.781300	0.138400	0.906700
H731	H73	0.115000	0.236800	0.637900
H741	H74	0.787700	0.450100	0.684000
H751	H75	0.081700	0.347800	0.781600
H761	H76	0.191100	0.580100	0.688500
H771	H77	0.998400	0.880000	0.610400
H781	H78	0.660400	0.072000	0.653700
H791	H79	0.402800	0.835900	0.552200
H801	H80	0.104300	0.120900	0.554200
