data_CUFDUD_freeONLY_PM
_symmetry_space_group_name_H-M	'P1'
_cell_length_a	29.145300
_cell_length_b	29.145300
_cell_length_c	16.991000
_cell_angle_alpha	90.000000
_cell_angle_beta	90.000000
_cell_angle_gamma	120.000000
_symmetry_Int_Tables_number 1

loop_
_symmetry_equiv_pos_as_xyz
'x,y,z'

loop_
_atom_site_label
_atom_site_type_symbol
_atom_site_fract_x
_atom_site_fract_y
_atom_site_fract_z
In11	In1	0.530980	0.842930	0.386510
C11	C1	0.598930	0.792160	0.218900
O11	O1	0.591750	0.827980	0.341110
O21	O2	0.445670	0.803740	0.366700
O31	O3	0.600220	0.709990	0.977080
O41	O4	0.749340	0.774320	0.158800
O51	O5	0.477350	0.749810	0.380570
O61	O6	0.533410	0.815880	0.248410
O71	O7	0.526940	0.708170	0.010400
C21	C2	0.647100	0.751930	0.123000
H11	H1	0.662800	0.737700	0.091300
C31	C3	0.438960	0.757260	0.370000
C41	C4	0.648750	0.799940	0.239000
H21	H2	0.665200	0.817900	0.285000
C51	C5	0.673840	0.780830	0.190300
C61	C6	0.573860	0.764470	0.151000
H31	H3	0.540700	0.759500	0.137700
C71	C7	0.384240	0.710510	0.364000
O81	O8	0.753230	0.818690	0.266050
C81	C8	0.573740	0.718600	0.026100
C91	C9	0.572370	0.813070	0.271800
C101	C10	0.728260	0.791640	0.207500
C111	C11	0.597920	0.744270	0.103100
C121	C12	0.377290	0.659430	0.364300
H41	H4	0.406500	0.654700	0.364600
In21	In2	0.197650	0.176260	0.719850
C131	C13	0.265600	0.125490	0.552230
O91	O9	0.258420	0.161310	0.674440
O101	O10	0.112340	0.137070	0.700030
O111	O11	0.266890	0.043320	0.310410
O121	O12	0.416010	0.107650	0.492130
O131	O13	0.144020	0.083140	0.713900
O141	O14	0.200080	0.149210	0.581740
O151	O15	0.193610	0.041500	0.343730
C141	C14	0.313770	0.085260	0.456330
H51	H5	0.329470	0.071030	0.424630
C151	C15	0.105630	0.090590	0.703330
C161	C16	0.315420	0.133270	0.572330
H61	H6	0.331870	0.151230	0.618330
C171	C17	0.340510	0.114160	0.523630
C181	C18	0.240530	0.097800	0.484330
H71	H7	0.207370	0.092830	0.471030
C191	C19	0.050910	0.043840	0.697330
O161	O16	0.419900	0.152020	0.599380
C201	C20	0.240410	0.051930	0.359430
C211	C21	0.239040	0.146400	0.605130
C221	C22	0.394930	0.124970	0.540830
C231	C23	0.264590	0.077600	0.436430
C241	C24	0.043960	0.992760	0.697630
H81	H8	0.073170	0.988030	0.697930
In31	In3	0.864310	0.509600	0.053180
C251	C25	0.932260	0.458830	0.885570
O171	O17	0.925080	0.494650	0.007780
O181	O18	0.779000	0.470410	0.033370
O191	O19	0.933550	0.376660	0.643750
O201	O20	0.082670	0.440990	0.825470
O211	O21	0.810680	0.416480	0.047240
O221	O22	0.866740	0.482550	0.915080
O231	O23	0.860270	0.374840	0.677070
C261	C26	0.980430	0.418600	0.789670
H91	H9	0.996130	0.404370	0.757970
C271	C27	0.772290	0.423930	0.036670
C281	C28	0.982080	0.466610	0.905670
H101	H10	0.998530	0.484570	0.951670
C291	C29	0.007170	0.447500	0.856970
C301	C30	0.907190	0.431140	0.817670
H111	H11	0.874030	0.426170	0.804370
C311	C31	0.717570	0.377180	0.030670
O241	O24	0.086560	0.485360	0.932720
C321	C32	0.907070	0.385270	0.692770
C331	C33	0.905700	0.479740	0.938470
C341	C34	0.061590	0.458310	0.874170
C351	C35	0.931250	0.410940	0.769770
C361	C36	0.710620	0.326100	0.030970
H121	H12	0.739830	0.321370	0.031270
In41	In4	0.157070	0.688050	0.386510
C371	C37	0.207840	0.806770	0.218900
O251	O25	0.172020	0.763770	0.341110
O261	O26	0.196260	0.641930	0.366700
O271	O27	0.290010	0.890230	0.977080
O281	O28	0.225680	0.975020	0.158800
O291	O29	0.250190	0.727540	0.380570
O301	O30	0.184120	0.717530	0.248410
O311	O31	0.291830	0.818770	0.010400
C381	C38	0.248070	0.895170	0.123000
H131	H13	0.262300	0.925100	0.091300
C391	C39	0.242740	0.681700	0.370000
C401	C40	0.200060	0.848810	0.239000
H141	H14	0.182100	0.847300	0.285000
C411	C41	0.219170	0.893010	0.190300
C421	C42	0.235530	0.809390	0.151000
H151	H15	0.240500	0.781200	0.137700
C431	C43	0.289490	0.673730	0.364000
O321	O32	0.181310	0.934540	0.266050
C441	C44	0.281400	0.855140	0.026100
C451	C45	0.186930	0.759300	0.271800
C461	C46	0.208360	0.936620	0.207500
C471	C47	0.255730	0.853650	0.103100
C481	C48	0.340570	0.717860	0.364300
H161	H16	0.345300	0.751800	0.364600
In51	In5	0.823740	0.021380	0.719850
C491	C49	0.874510	0.140100	0.552230
O331	O33	0.838690	0.097100	0.674440
O341	O34	0.862930	0.975260	0.700030
O351	O35	0.956680	0.223560	0.310410
O361	O36	0.892350	0.308350	0.492130
O371	O37	0.916860	0.060870	0.713900
O381	O38	0.850790	0.050860	0.581740
O391	O39	0.958500	0.152100	0.343730
C501	C50	0.914740	0.228500	0.456330
H171	H17	0.928970	0.258430	0.424630
C511	C51	0.909410	0.015030	0.703330
C521	C52	0.866730	0.182140	0.572330
H181	H18	0.848770	0.180630	0.618330
C531	C53	0.885840	0.226340	0.523630
C541	C54	0.902200	0.142720	0.484330
H191	H19	0.907170	0.114530	0.471030
C551	C55	0.956160	0.007060	0.697330
O401	O40	0.847980	0.267870	0.599380
C561	C56	0.948070	0.188470	0.359430
C571	C57	0.853600	0.092630	0.605130
C581	C58	0.875030	0.269950	0.540830
C591	C59	0.922400	0.186980	0.436430
C601	C60	0.007240	0.051190	0.697630
H201	H20	0.011970	0.085130	0.697930
In61	In6	0.490400	0.354720	0.053180
C611	C61	0.541170	0.473440	0.885570
O411	O41	0.505350	0.430440	0.007780
O421	O42	0.529590	0.308600	0.033370
O431	O43	0.623340	0.556900	0.643750
O441	O44	0.559010	0.641690	0.825470
O451	O45	0.583520	0.394210	0.047240
O461	O46	0.517450	0.384200	0.915080
O471	O47	0.625160	0.485440	0.677070
C621	C62	0.581400	0.561840	0.789670
H211	H21	0.595630	0.591770	0.757970
C631	C63	0.576070	0.348370	0.036670
C641	C64	0.533390	0.515480	0.905670
H221	H22	0.515430	0.513970	0.951670
C651	C65	0.552500	0.559680	0.856970
C661	C66	0.568860	0.476060	0.817670
H231	H23	0.573830	0.447870	0.804370
C671	C67	0.622820	0.340400	0.030670
O481	O48	0.514640	0.601210	0.932720
C681	C68	0.614730	0.521810	0.692770
C691	C69	0.520260	0.425970	0.938470
C701	C70	0.541690	0.603290	0.874170
C711	C71	0.589060	0.520320	0.769770
C721	C72	0.673900	0.384530	0.030970
H241	H24	0.678630	0.418470	0.031270
In71	In7	0.311950	0.469020	0.386510
C731	C73	0.193230	0.401070	0.218900
O491	O49	0.236230	0.408250	0.341110
O501	O50	0.358070	0.554330	0.366700
O511	O51	0.109770	0.399780	0.977080
O521	O52	0.024980	0.250660	0.158800
O531	O53	0.272460	0.522650	0.380570
O541	O54	0.282470	0.466590	0.248410
O551	O55	0.181230	0.473060	0.010400
C741	C74	0.104830	0.352900	0.123000
H251	H25	0.074900	0.337200	0.091300
C751	C75	0.318300	0.561040	0.370000
C761	C76	0.151190	0.351250	0.239000
H261	H26	0.152700	0.334800	0.285000
C771	C77	0.106990	0.326160	0.190300
C781	C78	0.190610	0.426140	0.151000
H271	H27	0.218800	0.459300	0.137700
C791	C79	0.326270	0.615760	0.364000
O561	O56	0.065460	0.246770	0.266050
C801	C80	0.144860	0.426260	0.026100
C811	C81	0.240700	0.427630	0.271800
C821	C82	0.063380	0.271740	0.207500
C831	C83	0.146350	0.402080	0.103100
C841	C84	0.282140	0.622710	0.364300
H281	H28	0.248200	0.593500	0.364600
In81	In8	0.978620	0.802350	0.719850
C851	C85	0.859900	0.734400	0.552230
O571	O57	0.902900	0.741580	0.674440
O581	O58	0.024740	0.887660	0.700030
O591	O59	0.776440	0.733110	0.310410
O601	O60	0.691650	0.583990	0.492130
O611	O61	0.939130	0.855980	0.713900
O621	O62	0.949140	0.799920	0.581740
O631	O63	0.847900	0.806390	0.343730
C861	C86	0.771500	0.686230	0.456330
H291	H29	0.741570	0.670530	0.424630
C871	C87	0.984970	0.894370	0.703330
C881	C88	0.817860	0.684580	0.572330
H301	H30	0.819370	0.668130	0.618330
C891	C89	0.773660	0.659490	0.523630
C901	C90	0.857280	0.759470	0.484330
H311	H31	0.885470	0.792630	0.471030
C911	C91	0.992940	0.949090	0.697330
O641	O64	0.732130	0.580100	0.599380
C921	C92	0.811530	0.759590	0.359430
C931	C93	0.907370	0.760960	0.605130
C941	C94	0.730050	0.605070	0.540830
C951	C95	0.813020	0.735410	0.436430
C961	C96	0.948810	0.956040	0.697630
H321	H32	0.914870	0.926830	0.697930
In91	In9	0.645280	0.135690	0.053180
C971	C97	0.526560	0.067740	0.885570
O651	O65	0.569560	0.074920	0.007780
O661	O66	0.691400	0.221000	0.033370
O671	O67	0.443100	0.066450	0.643750
O681	O68	0.358310	0.917330	0.825470
O691	O69	0.605790	0.189320	0.047240
O701	O70	0.615800	0.133260	0.915080
O711	O71	0.514560	0.139730	0.677070
C981	C98	0.438160	0.019570	0.789670
H331	H33	0.408230	0.003870	0.757970
C991	C99	0.651630	0.227710	0.036670
C1001	C100	0.484520	0.017920	0.905670
H341	H34	0.486030	0.001470	0.951670
C1011	C101	0.440320	0.992830	0.856970
C1021	C102	0.523940	0.092810	0.817670
H351	H35	0.552130	0.125970	0.804370
C1031	C103	0.659600	0.282430	0.030670
O721	O72	0.398790	0.913440	0.932720
C1041	C104	0.478190	0.092930	0.692770
C1051	C105	0.574030	0.094300	0.938470
C1061	C106	0.396710	0.938410	0.874170
C1071	C107	0.479680	0.068750	0.769770
C1081	C108	0.615470	0.289380	0.030970
H361	H36	0.581530	0.260170	0.031270
In101	In10	0.157070	0.469020	0.886510
C1091	C109	0.207840	0.401070	0.718900
O731	O73	0.172020	0.408250	0.841110
O741	O74	0.196260	0.554330	0.866700
O751	O75	0.290010	0.399780	0.477080
O761	O76	0.225680	0.250660	0.658800
O771	O77	0.250190	0.522650	0.880570
O781	O78	0.184120	0.466590	0.748410
O791	O79	0.291830	0.473060	0.510400
C1101	C110	0.248070	0.352900	0.623000
H371	H37	0.262300	0.337200	0.591300
C1111	C111	0.242740	0.561040	0.870000
C1121	C112	0.200060	0.351250	0.739000
H381	H38	0.182100	0.334800	0.785000
C1131	C113	0.219170	0.326160	0.690300
C1141	C114	0.235530	0.426140	0.651000
H391	H39	0.240500	0.459300	0.637700
C1151	C115	0.289490	0.615760	0.864000
O801	O80	0.181310	0.246770	0.766050
C1161	C116	0.281400	0.426260	0.526100
C1171	C117	0.186930	0.427630	0.771800
C1181	C118	0.208360	0.271740	0.707500
C1191	C119	0.255730	0.402080	0.603100
C1201	C120	0.340570	0.622710	0.864300
H401	H40	0.345300	0.593500	0.864600
In111	In11	0.823740	0.802350	0.219850
C1211	C121	0.874510	0.734400	0.052230
O811	O81	0.838690	0.741580	0.174440
O821	O82	0.862930	0.887660	0.200030
O831	O83	0.956680	0.733110	0.810410
O841	O84	0.892350	0.583990	0.992130
O851	O85	0.916860	0.855980	0.213900
O861	O86	0.850790	0.799920	0.081740
O871	O87	0.958500	0.806390	0.843730
C1221	C122	0.914740	0.686230	0.956330
H411	H41	0.928970	0.670530	0.924630
C1231	C123	0.909410	0.894370	0.203330
C1241	C124	0.866730	0.684580	0.072330
H421	H42	0.848770	0.668130	0.118330
C1251	C125	0.885840	0.659490	0.023630
C1261	C126	0.902200	0.759470	0.984330
H431	H43	0.907170	0.792630	0.971030
C1271	C127	0.956160	0.949090	0.197330
O881	O88	0.847980	0.580100	0.099380
C1281	C128	0.948070	0.759590	0.859430
C1291	C129	0.853600	0.760960	0.105130
C1301	C130	0.875030	0.605070	0.040830
C1311	C131	0.922400	0.735410	0.936430
C1321	C132	0.007240	0.956040	0.197630
H441	H44	0.011970	0.926830	0.197930
In121	In12	0.490400	0.135690	0.553180
C1331	C133	0.541170	0.067740	0.385570
O891	O89	0.505350	0.074920	0.507780
O901	O90	0.529590	0.221000	0.533370
O911	O91	0.623340	0.066450	0.143750
O921	O92	0.559010	0.917330	0.325470
O931	O93	0.583520	0.189320	0.547240
O941	O94	0.517450	0.133260	0.415080
O951	O95	0.625160	0.139730	0.177070
C1341	C134	0.581400	0.019570	0.289670
H451	H45	0.595630	0.003870	0.257970
C1351	C135	0.576070	0.227710	0.536670
C1361	C136	0.533390	0.017920	0.405670
H461	H46	0.515430	0.001470	0.451670
C1371	C137	0.552500	0.992830	0.356970
C1381	C138	0.568860	0.092810	0.317670
H471	H47	0.573830	0.125970	0.304370
C1391	C139	0.622820	0.282430	0.530670
O961	O96	0.514640	0.913440	0.432720
C1401	C140	0.614730	0.092930	0.192770
C1411	C141	0.520260	0.094300	0.438470
C1421	C142	0.541690	0.938410	0.374170
C1431	C143	0.589060	0.068750	0.269770
C1441	C144	0.673900	0.289380	0.530970
H481	H48	0.678630	0.260170	0.531270
In131	In13	0.311950	0.842930	0.886510
C1451	C145	0.193230	0.792160	0.718900
O971	O97	0.236230	0.827980	0.841110
O981	O98	0.358070	0.803740	0.866700
O991	O99	0.109770	0.709990	0.477080
O1001	O100	0.024980	0.774320	0.658800
O1011	O101	0.272460	0.749810	0.880570
O1021	O102	0.282470	0.815880	0.748410
O1031	O103	0.181230	0.708170	0.510400
C1461	C146	0.104830	0.751930	0.623000
H491	H49	0.074900	0.737700	0.591300
C1471	C147	0.318300	0.757260	0.870000
C1481	C148	0.151190	0.799940	0.739000
H501	H50	0.152700	0.817900	0.785000
C1491	C149	0.106990	0.780830	0.690300
C1501	C150	0.190610	0.764470	0.651000
H511	H51	0.218800	0.759500	0.637700
C1511	C151	0.326270	0.710510	0.864000
O1041	O104	0.065460	0.818690	0.766050
C1521	C152	0.144860	0.718600	0.526100
C1531	C153	0.240700	0.813070	0.771800
C1541	C154	0.063380	0.791640	0.707500
C1551	C155	0.146350	0.744270	0.603100
C1561	C156	0.282140	0.659430	0.864300
H521	H52	0.248200	0.654700	0.864600
In141	In14	0.978620	0.176260	0.219850
C1571	C157	0.859900	0.125490	0.052230
O1051	O105	0.902900	0.161310	0.174440
O1061	O106	0.024740	0.137070	0.200030
O1071	O107	0.776440	0.043320	0.810410
O1081	O108	0.691650	0.107650	0.992130
O1091	O109	0.939130	0.083140	0.213900
O1101	O110	0.949140	0.149210	0.081740
O1111	O111	0.847900	0.041500	0.843730
C1581	C158	0.771500	0.085260	0.956330
H531	H53	0.741570	0.071030	0.924630
C1591	C159	0.984970	0.090590	0.203330
C1601	C160	0.817860	0.133270	0.072330
H541	H54	0.819370	0.151230	0.118330
C1611	C161	0.773660	0.114160	0.023630
C1621	C162	0.857280	0.097800	0.984330
H551	H55	0.885470	0.092830	0.971030
C1631	C163	0.992940	0.043840	0.197330
O1121	O112	0.732130	0.152020	0.099380
C1641	C164	0.811530	0.051930	0.859430
C1651	C165	0.907370	0.146400	0.105130
C1661	C166	0.730050	0.124970	0.040830
C1671	C167	0.813020	0.077600	0.936430
C1681	C168	0.948810	0.992760	0.197630
H561	H56	0.914870	0.988030	0.197930
In151	In15	0.645280	0.509600	0.553180
C1691	C169	0.526560	0.458830	0.385570
O1131	O113	0.569560	0.494650	0.507780
O1141	O114	0.691400	0.470410	0.533370
O1151	O115	0.443100	0.376660	0.143750
O1161	O116	0.358310	0.440990	0.325470
O1171	O117	0.605790	0.416480	0.547240
O1181	O118	0.615800	0.482550	0.415080
O1191	O119	0.514560	0.374840	0.177070
C1701	C170	0.438160	0.418600	0.289670
H571	H57	0.408230	0.404370	0.257970
C1711	C171	0.651630	0.423930	0.536670
C1721	C172	0.484520	0.466610	0.405670
H581	H58	0.486030	0.484570	0.451670
C1731	C173	0.440320	0.447500	0.356970
C1741	C174	0.523940	0.431140	0.317670
H591	H59	0.552130	0.426170	0.304370
C1751	C175	0.659600	0.377180	0.530670
O1201	O120	0.398790	0.485360	0.432720
C1761	C176	0.478190	0.385270	0.192770
C1771	C177	0.574030	0.479740	0.438470
C1781	C178	0.396710	0.458310	0.374170
C1791	C179	0.479680	0.410940	0.269770
C1801	C180	0.615470	0.326100	0.530970
H601	H60	0.581530	0.321370	0.531270
In161	In16	0.530980	0.688050	0.886510
C1811	C181	0.598930	0.806770	0.718900
O1211	O121	0.591750	0.763770	0.841110
O1221	O122	0.445670	0.641930	0.866700
O1231	O123	0.600220	0.890230	0.477080
O1241	O124	0.749340	0.975020	0.658800
O1251	O125	0.477350	0.727540	0.880570
O1261	O126	0.533410	0.717530	0.748410
O1271	O127	0.526940	0.818770	0.510400
C1821	C182	0.647100	0.895170	0.623000
H611	H61	0.662800	0.925100	0.591300
C1831	C183	0.438960	0.681700	0.870000
C1841	C184	0.648750	0.848810	0.739000
H621	H62	0.665200	0.847300	0.785000
C1851	C185	0.673840	0.893010	0.690300
C1861	C186	0.573860	0.809390	0.651000
H631	H63	0.540700	0.781200	0.637700
C1871	C187	0.384240	0.673730	0.864000
O1281	O128	0.753230	0.934540	0.766050
C1881	C188	0.573740	0.855140	0.526100
C1891	C189	0.572370	0.759300	0.771800
C1901	C190	0.728260	0.936620	0.707500
C1911	C191	0.597920	0.853650	0.603100
C1921	C192	0.377290	0.717860	0.864300
H641	H64	0.406500	0.751800	0.864600
In171	In17	0.197650	0.021380	0.219850
C1931	C193	0.265600	0.140100	0.052230
O1291	O129	0.258420	0.097100	0.174440
O1301	O130	0.112340	0.975260	0.200030
O1311	O131	0.266890	0.223560	0.810410
O1321	O132	0.416010	0.308350	0.992130
O1331	O133	0.144020	0.060870	0.213900
O1341	O134	0.200080	0.050860	0.081740
O1351	O135	0.193610	0.152100	0.843730
C1941	C194	0.313770	0.228500	0.956330
H651	H65	0.329470	0.258430	0.924630
C1951	C195	0.105630	0.015030	0.203330
C1961	C196	0.315420	0.182140	0.072330
H661	H66	0.331870	0.180630	0.118330
C1971	C197	0.340510	0.226340	0.023630
C1981	C198	0.240530	0.142720	0.984330
H671	H67	0.207370	0.114530	0.971030
C1991	C199	0.050910	0.007060	0.197330
O1361	O136	0.419900	0.267870	0.099380
C2001	C200	0.240410	0.188470	0.859430
C2011	C201	0.239040	0.092630	0.105130
C2021	C202	0.394930	0.269950	0.040830
C2031	C203	0.264590	0.186980	0.936430
C2041	C204	0.043960	0.051190	0.197630
H681	H68	0.073170	0.085130	0.197930
In181	In18	0.864310	0.354720	0.553180
C2051	C205	0.932260	0.473440	0.385570
O1371	O137	0.925080	0.430440	0.507780
O1381	O138	0.779000	0.308600	0.533370
O1391	O139	0.933550	0.556900	0.143750
O1401	O140	0.082670	0.641690	0.325470
O1411	O141	0.810680	0.394210	0.547240
O1421	O142	0.866740	0.384200	0.415080
O1431	O143	0.860270	0.485440	0.177070
C2061	C206	0.980430	0.561840	0.289670
H691	H69	0.996130	0.591770	0.257970
C2071	C207	0.772290	0.348370	0.536670
C2081	C208	0.982080	0.515480	0.405670
H701	H70	0.998530	0.513970	0.451670
C2091	C209	0.007170	0.559680	0.356970
C2101	C210	0.907190	0.476060	0.317670
H711	H71	0.874030	0.447870	0.304370
C2111	C211	0.717570	0.340400	0.530670
O1441	O144	0.086560	0.601210	0.432720
C2121	C212	0.907070	0.521810	0.192770
C2131	C213	0.905700	0.425970	0.438470
C2141	C214	0.061590	0.603290	0.374170
C2151	C215	0.931250	0.520320	0.269770
C2161	C216	0.710620	0.384530	0.530970
H721	H72	0.739830	0.418470	0.531270
