data_CUFFAL_freeONLY_PM
_symmetry_space_group_name_H-M	'P1'
_cell_length_a	29.155000
_cell_length_b	29.155000
_cell_length_c	17.367000
_cell_angle_alpha	90.000000
_cell_angle_beta	90.000000
_cell_angle_gamma	120.000000
_symmetry_Int_Tables_number 1

loop_
_symmetry_equiv_pos_as_xyz
'x,y,z'

loop_
_atom_site_label
_atom_site_type_symbol
_atom_site_fract_x
_atom_site_fract_y
_atom_site_fract_z
In11	In1	0.693530	0.159600	0.114510
O11	O1	0.722800	0.190400	0.251100
O21	O2	0.766700	0.173000	0.165300
O31	O3	0.643400	0.088300	0.177800
O41	O4	0.606500	0.088100	0.065400
O51	O5	0.718000	0.111900	0.027500
O61	O6	0.715700	0.183000	0.993600
O71	O7	0.731500	0.253100	0.119600
O81	O8	0.645500	0.197800	0.127700
C11	C1	0.808800	0.207000	0.286700
C21	C2	0.851300	0.200400	0.264300
H11	H1	0.851500	0.186600	0.216100
C31	C3	0.893600	0.214600	0.315400
C41	C4	0.895300	0.241000	0.383100
H21	H2	0.924700	0.253600	0.415100
C51	C5	0.853400	0.248600	0.403400
C61	C6	0.809000	0.229300	0.352500
H31	H3	0.779900	0.232600	0.366200
C71	C7	0.761800	0.188500	0.230000
C81	C8	0.605200	0.064900	0.128600
C91	C9	0.727000	0.147000	0.978100
C101	C10	0.623300	0.281300	0.127800
H41	H4	0.594600	0.247000	0.128800
C111	C11	0.674600	0.289900	0.127000
C121	C12	0.685100	0.244600	0.126200
In21	In2	0.360200	0.492930	0.447840
O91	O9	0.389470	0.523730	0.584430
O101	O10	0.433370	0.506330	0.498630
O111	O11	0.310070	0.421630	0.511130
O121	O12	0.273170	0.421430	0.398730
O131	O13	0.384670	0.445230	0.360830
O141	O14	0.382370	0.516330	0.326930
O151	O15	0.398170	0.586430	0.452930
O161	O16	0.312170	0.531130	0.461030
C131	C13	0.475470	0.540330	0.620030
C141	C14	0.517970	0.533730	0.597630
H51	H5	0.518170	0.519930	0.549430
C151	C15	0.560270	0.547930	0.648730
C161	C16	0.561970	0.574330	0.716430
H61	H6	0.591370	0.586930	0.748430
C171	C17	0.520070	0.581930	0.736730
C181	C18	0.475670	0.562630	0.685830
H71	H7	0.446570	0.565930	0.699530
C191	C19	0.428470	0.521830	0.563330
C201	C20	0.271870	0.398230	0.461930
C211	C21	0.393670	0.480330	0.311430
C221	C22	0.289970	0.614630	0.461130
H81	H8	0.261270	0.580330	0.462130
C231	C23	0.341270	0.623230	0.460330
C241	C24	0.351770	0.577930	0.459530
In31	In3	0.026860	0.826270	0.781180
O171	O17	0.056130	0.857070	0.917770
O181	O18	0.100030	0.839670	0.831970
O191	O19	0.976730	0.754970	0.844470
O201	O20	0.939830	0.754770	0.732070
O211	O21	0.051330	0.778570	0.694170
O221	O22	0.049030	0.849670	0.660270
O231	O23	0.064830	0.919770	0.786270
O241	O24	0.978830	0.864470	0.794370
C251	C25	0.142130	0.873670	0.953370
C261	C26	0.184630	0.867070	0.930970
H91	H9	0.184830	0.853270	0.882770
C271	C27	0.226930	0.881270	0.982070
C281	C28	0.228630	0.907670	0.049770
H101	H10	0.258030	0.920270	0.081770
C291	C29	0.186730	0.915270	0.070070
C301	C30	0.142330	0.895970	0.019170
H111	H11	0.113230	0.899270	0.032870
C311	C31	0.095130	0.855170	0.896670
C321	C32	0.938530	0.731570	0.795270
C331	C33	0.060330	0.813670	0.644770
C341	C34	0.956630	0.947970	0.794470
H121	H12	0.927930	0.913670	0.795470
C351	C35	0.007930	0.956570	0.793670
C361	C36	0.018430	0.911270	0.792870
In41	In4	0.840400	0.533930	0.114510
O251	O25	0.809600	0.532400	0.251100
O261	O26	0.827000	0.593700	0.165300
O271	O27	0.911700	0.555100	0.177800
O281	O28	0.911900	0.518400	0.065400
O291	O29	0.888100	0.606100	0.027500
O301	O30	0.817000	0.532700	0.993600
O311	O31	0.746900	0.478400	0.119600
O321	O32	0.802200	0.447700	0.127700
C371	C37	0.793000	0.601800	0.286700
C381	C38	0.799600	0.650900	0.264300
H131	H13	0.813400	0.664900	0.216100
C391	C39	0.785400	0.679000	0.315400
C401	C40	0.759000	0.654300	0.383100
H141	H14	0.746400	0.671100	0.415100
C411	C41	0.751400	0.604800	0.403400
C421	C42	0.770700	0.579700	0.352500
H151	H15	0.767400	0.547300	0.366200
C431	C43	0.811500	0.573300	0.230000
C441	C44	0.935100	0.540300	0.128600
C451	C45	0.853000	0.580000	0.978100
C461	C46	0.718700	0.342000	0.127800
H161	H16	0.753000	0.347600	0.128800
C471	C47	0.710100	0.384700	0.127000
C481	C48	0.755400	0.440500	0.126200
In51	In5	0.507070	0.867260	0.447840
O331	O33	0.476270	0.865730	0.584430
O341	O34	0.493670	0.927030	0.498630
O351	O35	0.578370	0.888430	0.511130
O361	O36	0.578570	0.851730	0.398730
O371	O37	0.554770	0.939430	0.360830
O381	O38	0.483670	0.866030	0.326930
O391	O39	0.413570	0.811730	0.452930
O401	O40	0.468870	0.781030	0.461030
C491	C49	0.459670	0.935130	0.620030
C501	C50	0.466270	0.984230	0.597630
H171	H17	0.480070	0.998230	0.549430
C511	C51	0.452070	0.012330	0.648730
C521	C52	0.425670	0.987630	0.716430
H181	H18	0.413070	0.004430	0.748430
C531	C53	0.418070	0.938130	0.736730
C541	C54	0.437370	0.913030	0.685830
H191	H19	0.434070	0.880630	0.699530
C551	C55	0.478170	0.906630	0.563330
C561	C56	0.601770	0.873630	0.461930
C571	C57	0.519670	0.913330	0.311430
C581	C58	0.385370	0.675330	0.461130
H201	H20	0.419670	0.680930	0.462130
C591	C59	0.376770	0.718030	0.460330
C601	C60	0.422070	0.773830	0.459530
In61	In6	0.173730	0.200600	0.781180
O411	O41	0.142930	0.199070	0.917770
O421	O42	0.160330	0.260370	0.831970
O431	O43	0.245030	0.221770	0.844470
O441	O44	0.245230	0.185070	0.732070
O451	O45	0.221430	0.272770	0.694170
O461	O46	0.150330	0.199370	0.660270
O471	O47	0.080230	0.145070	0.786270
O481	O48	0.135530	0.114370	0.794370
C611	C61	0.126330	0.268470	0.953370
C621	C62	0.132930	0.317570	0.930970
H211	H21	0.146730	0.331570	0.882770
C631	C63	0.118730	0.345670	0.982070
C641	C64	0.092330	0.320970	0.049770
H221	H22	0.079730	0.337770	0.081770
C651	C65	0.084730	0.271470	0.070070
C661	C66	0.104030	0.246370	0.019170
H231	H23	0.100730	0.213970	0.032870
C671	C67	0.144830	0.239970	0.896670
C681	C68	0.268430	0.206970	0.795270
C691	C69	0.186330	0.246670	0.644770
C701	C70	0.052030	0.008670	0.794470
H241	H24	0.086330	0.014270	0.795470
C711	C71	0.043430	0.051370	0.793670
C721	C72	0.088730	0.107170	0.792870
In71	In7	0.466070	0.306470	0.114510
O491	O49	0.467600	0.277200	0.251100
O501	O50	0.406300	0.233300	0.165300
O511	O51	0.444900	0.356600	0.177800
O521	O52	0.481600	0.393500	0.065400
O531	O53	0.393900	0.282000	0.027500
O541	O54	0.467300	0.284300	0.993600
O551	O55	0.521600	0.268500	0.119600
O561	O56	0.552300	0.354500	0.127700
C731	C73	0.398200	0.191200	0.286700
C741	C74	0.349100	0.148700	0.264300
H251	H25	0.335100	0.148500	0.216100
C751	C75	0.321000	0.106400	0.315400
C761	C76	0.345700	0.104700	0.383100
H261	H26	0.328900	0.075300	0.415100
C771	C77	0.395200	0.146600	0.403400
C781	C78	0.420300	0.191000	0.352500
H271	H27	0.452700	0.220100	0.366200
C791	C79	0.426700	0.238200	0.230000
C801	C80	0.459700	0.394800	0.128600
C811	C81	0.420000	0.273000	0.978100
C821	C82	0.658000	0.376700	0.127800
H281	H28	0.652400	0.405400	0.128800
C831	C83	0.615300	0.325400	0.127000
C841	C84	0.559500	0.314900	0.126200
In81	In8	0.132740	0.639800	0.447840
O571	O57	0.134270	0.610530	0.584430
O581	O58	0.072970	0.566630	0.498630
O591	O59	0.111570	0.689930	0.511130
O601	O60	0.148270	0.726830	0.398730
O611	O61	0.060570	0.615330	0.360830
O621	O62	0.133970	0.617630	0.326930
O631	O63	0.188270	0.601830	0.452930
O641	O64	0.218970	0.687830	0.461030
C851	C85	0.064870	0.524530	0.620030
C861	C86	0.015770	0.482030	0.597630
H291	H29	0.001770	0.481830	0.549430
C871	C87	0.987670	0.439730	0.648730
C881	C88	0.012370	0.438030	0.716430
H301	H30	0.995570	0.408630	0.748430
C891	C89	0.061870	0.479930	0.736730
C901	C90	0.086970	0.524330	0.685830
H311	H31	0.119370	0.553430	0.699530
C911	C91	0.093370	0.571530	0.563330
C921	C92	0.126370	0.728130	0.461930
C931	C93	0.086670	0.606330	0.311430
C941	C94	0.324670	0.710030	0.461130
H321	H32	0.319070	0.738730	0.462130
C951	C95	0.281970	0.658730	0.460330
C961	C96	0.226170	0.648230	0.459530
In91	In9	0.799400	0.973140	0.781180
O651	O65	0.800930	0.943870	0.917770
O661	O66	0.739630	0.899970	0.831970
O671	O67	0.778230	0.023270	0.844470
O681	O68	0.814930	0.060170	0.732070
O691	O69	0.727230	0.948670	0.694170
O701	O70	0.800630	0.950970	0.660270
O711	O71	0.854930	0.935170	0.786270
O721	O72	0.885630	0.021170	0.794370
C971	C97	0.731530	0.857870	0.953370
C981	C98	0.682430	0.815370	0.930970
H331	H33	0.668430	0.815170	0.882770
C991	C99	0.654330	0.773070	0.982070
C1001	C100	0.679030	0.771370	0.049770
H341	H34	0.662230	0.741970	0.081770
C1011	C101	0.728530	0.813270	0.070070
C1021	C102	0.753630	0.857670	0.019170
H351	H35	0.786030	0.886770	0.032870
C1031	C103	0.760030	0.904870	0.896670
C1041	C104	0.793030	0.061470	0.795270
C1051	C105	0.753330	0.939670	0.644770
C1061	C106	0.991330	0.043370	0.794470
H361	H36	0.985730	0.072070	0.795470
C1071	C107	0.948630	0.992070	0.793670
C1081	C108	0.892830	0.981570	0.792870
In101	In10	0.840400	0.306470	0.614510
O731	O73	0.809600	0.277200	0.751100
O741	O74	0.827000	0.233300	0.665300
O751	O75	0.911700	0.356600	0.677800
O761	O76	0.911900	0.393500	0.565400
O771	O77	0.888100	0.282000	0.527500
O781	O78	0.817000	0.284300	0.493600
O791	O79	0.746900	0.268500	0.619600
O801	O80	0.802200	0.354500	0.627700
C1091	C109	0.793000	0.191200	0.786700
C1101	C110	0.799600	0.148700	0.764300
H371	H37	0.813400	0.148500	0.716100
C1111	C111	0.785400	0.106400	0.815400
C1121	C112	0.759000	0.104700	0.883100
H381	H38	0.746400	0.075300	0.915100
C1131	C113	0.751400	0.146600	0.903400
C1141	C114	0.770700	0.191000	0.852500
H391	H39	0.767400	0.220100	0.866200
C1151	C115	0.811500	0.238200	0.730000
C1161	C116	0.935100	0.394800	0.628600
C1171	C117	0.853000	0.273000	0.478100
C1181	C118	0.718700	0.376700	0.627800
H401	H40	0.753000	0.405400	0.628800
C1191	C119	0.710100	0.325400	0.627000
C1201	C120	0.755400	0.314900	0.626200
In111	In11	0.507070	0.639800	0.947840
O811	O81	0.476270	0.610530	0.084430
O821	O82	0.493670	0.566630	0.998630
O831	O83	0.578370	0.689930	0.011130
O841	O84	0.578570	0.726830	0.898730
O851	O85	0.554770	0.615330	0.860830
O861	O86	0.483670	0.617630	0.826930
O871	O87	0.413570	0.601830	0.952930
O881	O88	0.468870	0.687830	0.961030
C1211	C121	0.459670	0.524530	0.120030
C1221	C122	0.466270	0.482030	0.097630
H411	H41	0.480070	0.481830	0.049430
C1231	C123	0.452070	0.439730	0.148730
C1241	C124	0.425670	0.438030	0.216430
H421	H42	0.413070	0.408630	0.248430
C1251	C125	0.418070	0.479930	0.236730
C1261	C126	0.437370	0.524330	0.185830
H431	H43	0.434070	0.553430	0.199530
C1271	C127	0.478170	0.571530	0.063330
C1281	C128	0.601770	0.728130	0.961930
C1291	C129	0.519670	0.606330	0.811430
C1301	C130	0.385370	0.710030	0.961130
H441	H44	0.419670	0.738730	0.962130
C1311	C131	0.376770	0.658730	0.960330
C1321	C132	0.422070	0.648230	0.959530
In121	In12	0.173730	0.973140	0.281180
O891	O89	0.142930	0.943870	0.417770
O901	O90	0.160330	0.899970	0.331970
O911	O91	0.245030	0.023270	0.344470
O921	O92	0.245230	0.060170	0.232070
O931	O93	0.221430	0.948670	0.194170
O941	O94	0.150330	0.950970	0.160270
O951	O95	0.080230	0.935170	0.286270
O961	O96	0.135530	0.021170	0.294370
C1331	C133	0.126330	0.857870	0.453370
C1341	C134	0.132930	0.815370	0.430970
H451	H45	0.146730	0.815170	0.382770
C1351	C135	0.118730	0.773070	0.482070
C1361	C136	0.092330	0.771370	0.549770
H461	H46	0.079730	0.741970	0.581770
C1371	C137	0.084730	0.813270	0.570070
C1381	C138	0.104030	0.857670	0.519170
H471	H47	0.100730	0.886770	0.532870
C1391	C139	0.144830	0.904870	0.396670
C1401	C140	0.268430	0.061470	0.295270
C1411	C141	0.186330	0.939670	0.144770
C1421	C142	0.052030	0.043370	0.294470
H481	H48	0.086330	0.072070	0.295470
C1431	C143	0.043430	0.992070	0.293670
C1441	C144	0.088730	0.981570	0.292870
In131	In13	0.466070	0.159600	0.614510
O971	O97	0.467600	0.190400	0.751100
O981	O98	0.406300	0.173000	0.665300
O991	O99	0.444900	0.088300	0.677800
O1001	O100	0.481600	0.088100	0.565400
O1011	O101	0.393900	0.111900	0.527500
O1021	O102	0.467300	0.183000	0.493600
O1031	O103	0.521600	0.253100	0.619600
O1041	O104	0.552300	0.197800	0.627700
C1451	C145	0.398200	0.207000	0.786700
C1461	C146	0.349100	0.200400	0.764300
H491	H49	0.335100	0.186600	0.716100
C1471	C147	0.321000	0.214600	0.815400
C1481	C148	0.345700	0.241000	0.883100
H501	H50	0.328900	0.253600	0.915100
C1491	C149	0.395200	0.248600	0.903400
C1501	C150	0.420300	0.229300	0.852500
H511	H51	0.452700	0.232600	0.866200
C1511	C151	0.426700	0.188500	0.730000
C1521	C152	0.459700	0.064900	0.628600
C1531	C153	0.420000	0.147000	0.478100
C1541	C154	0.658000	0.281300	0.627800
H521	H52	0.652400	0.247000	0.628800
C1551	C155	0.615300	0.289900	0.627000
C1561	C156	0.559500	0.244600	0.626200
In141	In14	0.132740	0.492930	0.947840
O1051	O105	0.134270	0.523730	0.084430
O1061	O106	0.072970	0.506330	0.998630
O1071	O107	0.111570	0.421630	0.011130
O1081	O108	0.148270	0.421430	0.898730
O1091	O109	0.060570	0.445230	0.860830
O1101	O110	0.133970	0.516330	0.826930
O1111	O111	0.188270	0.586430	0.952930
O1121	O112	0.218970	0.531130	0.961030
C1571	C157	0.064870	0.540330	0.120030
C1581	C158	0.015770	0.533730	0.097630
H531	H53	0.001770	0.519930	0.049430
C1591	C159	0.987670	0.547930	0.148730
C1601	C160	0.012370	0.574330	0.216430
H541	H54	0.995570	0.586930	0.248430
C1611	C161	0.061870	0.581930	0.236730
C1621	C162	0.086970	0.562630	0.185830
H551	H55	0.119370	0.565930	0.199530
C1631	C163	0.093370	0.521830	0.063330
C1641	C164	0.126370	0.398230	0.961930
C1651	C165	0.086670	0.480330	0.811430
C1661	C166	0.324670	0.614630	0.961130
H561	H56	0.319070	0.580330	0.962130
C1671	C167	0.281970	0.623230	0.960330
C1681	C168	0.226170	0.577930	0.959530
In151	In15	0.799400	0.826270	0.281180
O1131	O113	0.800930	0.857070	0.417770
O1141	O114	0.739630	0.839670	0.331970
O1151	O115	0.778230	0.754970	0.344470
O1161	O116	0.814930	0.754770	0.232070
O1171	O117	0.727230	0.778570	0.194170
O1181	O118	0.800630	0.849670	0.160270
O1191	O119	0.854930	0.919770	0.286270
O1201	O120	0.885630	0.864470	0.294370
C1691	C169	0.731530	0.873670	0.453370
C1701	C170	0.682430	0.867070	0.430970
H571	H57	0.668430	0.853270	0.382770
C1711	C171	0.654330	0.881270	0.482070
C1721	C172	0.679030	0.907670	0.549770
H581	H58	0.662230	0.920270	0.581770
C1731	C173	0.728530	0.915270	0.570070
C1741	C174	0.753630	0.895970	0.519170
H591	H59	0.786030	0.899270	0.532870
C1751	C175	0.760030	0.855170	0.396670
C1761	C176	0.793030	0.731570	0.295270
C1771	C177	0.753330	0.813670	0.144770
C1781	C178	0.991330	0.947970	0.294470
H601	H60	0.985730	0.913670	0.295470
C1791	C179	0.948630	0.956570	0.293670
C1801	C180	0.892830	0.911270	0.292870
In161	In16	0.693530	0.533930	0.614510
O1211	O121	0.722800	0.532400	0.751100
O1221	O122	0.766700	0.593700	0.665300
O1231	O123	0.643400	0.555100	0.677800
O1241	O124	0.606500	0.518400	0.565400
O1251	O125	0.718000	0.606100	0.527500
O1261	O126	0.715700	0.532700	0.493600
O1271	O127	0.731500	0.478400	0.619600
O1281	O128	0.645500	0.447700	0.627700
C1811	C181	0.808800	0.601800	0.786700
C1821	C182	0.851300	0.650900	0.764300
H611	H61	0.851500	0.664900	0.716100
C1831	C183	0.893600	0.679000	0.815400
C1841	C184	0.895300	0.654300	0.883100
H621	H62	0.924700	0.671100	0.915100
C1851	C185	0.853400	0.604800	0.903400
C1861	C186	0.809000	0.579700	0.852500
H631	H63	0.779900	0.547300	0.866200
C1871	C187	0.761800	0.573300	0.730000
C1881	C188	0.605200	0.540300	0.628600
C1891	C189	0.727000	0.580000	0.478100
C1901	C190	0.623300	0.342000	0.627800
H641	H64	0.594600	0.347600	0.628800
C1911	C191	0.674600	0.384700	0.627000
C1921	C192	0.685100	0.440500	0.626200
In171	In17	0.360200	0.867260	0.947840
O1291	O129	0.389470	0.865730	0.084430
O1301	O130	0.433370	0.927030	0.998630
O1311	O131	0.310070	0.888430	0.011130
O1321	O132	0.273170	0.851730	0.898730
O1331	O133	0.384670	0.939430	0.860830
O1341	O134	0.382370	0.866030	0.826930
O1351	O135	0.398170	0.811730	0.952930
O1361	O136	0.312170	0.781030	0.961030
C1931	C193	0.475470	0.935130	0.120030
C1941	C194	0.517970	0.984230	0.097630
H651	H65	0.518170	0.998230	0.049430
C1951	C195	0.560270	0.012330	0.148730
C1961	C196	0.561970	0.987630	0.216430
H661	H66	0.591370	0.004430	0.248430
C1971	C197	0.520070	0.938130	0.236730
C1981	C198	0.475670	0.913030	0.185830
H671	H67	0.446570	0.880630	0.199530
C1991	C199	0.428470	0.906630	0.063330
C2001	C200	0.271870	0.873630	0.961930
C2011	C201	0.393670	0.913330	0.811430
C2021	C202	0.289970	0.675330	0.961130
H681	H68	0.261270	0.680930	0.962130
C2031	C203	0.341270	0.718030	0.960330
C2041	C204	0.351770	0.773830	0.959530
In181	In18	0.026860	0.200600	0.281180
O1371	O137	0.056130	0.199070	0.417770
O1381	O138	0.100030	0.260370	0.331970
O1391	O139	0.976730	0.221770	0.344470
O1401	O140	0.939830	0.185070	0.232070
O1411	O141	0.051330	0.272770	0.194170
O1421	O142	0.049030	0.199370	0.160270
O1431	O143	0.064830	0.145070	0.286270
O1441	O144	0.978830	0.114370	0.294370
C2051	C205	0.142130	0.268470	0.453370
C2061	C206	0.184630	0.317570	0.430970
H691	H69	0.184830	0.331570	0.382770
C2071	C207	0.226930	0.345670	0.482070
C2081	C208	0.228630	0.320970	0.549770
H701	H70	0.258030	0.337770	0.581770
C2091	C209	0.186730	0.271470	0.570070
C2101	C210	0.142330	0.246370	0.519170
H711	H71	0.113230	0.213970	0.532870
C2111	C211	0.095130	0.239970	0.396670
C2121	C212	0.938530	0.206970	0.295270
C2131	C213	0.060330	0.246670	0.144770
C2141	C214	0.956630	0.008670	0.294470
H721	H72	0.927930	0.014270	0.295470
C2151	C215	0.007930	0.051370	0.293670
C2161	C216	0.018430	0.107170	0.292870
