data_CUGFAN01_freeONLY_PM
_symmetry_space_group_name_H-M	'P1'
_cell_length_a	8.864900
_cell_length_b	10.556500
_cell_length_c	10.631000
_cell_angle_alpha	99.986000
_cell_angle_beta	110.233000
_cell_angle_gamma	97.819000
_symmetry_Int_Tables_number 1

loop_
_symmetry_equiv_pos_as_xyz
'x,y,z'

loop_
_atom_site_label
_atom_site_type_symbol
_atom_site_fract_x
_atom_site_fract_y
_atom_site_fract_z
Zn11	Zn1	0.797700	0.321940	0.248780
O11	O1	0.809900	0.395100	0.455300
O21	O2	0.947100	0.564400	0.637800
N11	N1	0.187700	0.293200	0.826500
N21	N2	0.286300	0.189800	0.026800
N31	N3	0.547400	0.236900	0.174200
N41	N4	0.093300	0.050100	0.797600
N51	N5	0.992500	0.219700	0.934700
C11	C1	0.437300	0.267800	0.070300
H11	H1	0.461300	0.336300	0.031100
C21	C2	0.301700	0.102300	0.111900
H21	H2	0.218400	0.036300	0.108600
C31	C3	0.174900	0.420300	0.851000
H31	H3	0.118900	0.453900	0.904300
C41	C4	0.929600	0.488100	0.526900
C51	C5	0.987600	0.246300	0.063000
H41	H4	0.072600	0.241800	0.142300
C61	C6	0.191700	0.962600	0.806000
H51	H5	0.296700	0.978000	0.873600
C71	C7	0.758400	0.274900	0.928000
H61	H6	0.654000	0.293300	0.895800
C81	C8	0.462100	0.131400	0.201100
H71	H7	0.507100	0.087500	0.269200
C91	C9	0.844100	0.239500	0.848300
H81	H8	0.809600	0.230300	0.753500
C101	C10	0.318500	0.405700	0.724400
H91	H9	0.380200	0.427700	0.673300
C111	C11	0.280500	0.283900	0.745600
H101	H10	0.311300	0.208500	0.711900
C121	C12	0.972400	0.870500	0.630600
H111	H11	0.896200	0.810000	0.552400
C131	C13	0.950800	0.989300	0.684900
H121	H12	0.857300	0.023700	0.652300
B11	B1	0.137400	0.187800	0.896100
N61	N6	0.124100	0.853300	0.708800
N71	N7	0.849300	0.279300	0.062800
N81	N8	0.250300	0.491900	0.791400
Zn21	Zn2	0.202300	0.678060	0.751220
O31	O3	0.190100	0.604900	0.544700
O41	O4	0.052900	0.435600	0.362200
N91	N9	0.812300	0.706800	0.173500
N101	N10	0.713700	0.810200	0.973200
N111	N11	0.452600	0.763100	0.825800
N121	N12	0.906700	0.949900	0.202400
N131	N13	0.007500	0.780300	0.065300
C141	C14	0.562700	0.732200	0.929700
H131	H13	0.538700	0.663700	0.968900
C151	C15	0.698300	0.897700	0.888100
H141	H14	0.781600	0.963700	0.891400
C161	C16	0.825100	0.579700	0.149000
H151	H15	0.881100	0.546100	0.095700
C171	C17	0.070400	0.511900	0.473100
C181	C18	0.012400	0.753700	0.937000
H161	H16	0.927400	0.758200	0.857700
C191	C19	0.808300	0.037400	0.194000
H171	H17	0.703300	0.022000	0.126400
C201	C20	0.241600	0.725100	0.072000
H181	H18	0.346000	0.706700	0.104200
C211	C21	0.537900	0.868600	0.798900
H191	H19	0.492900	0.912500	0.730800
C221	C22	0.155900	0.760500	0.151700
H201	H20	0.190400	0.769700	0.246500
C231	C23	0.681500	0.594300	0.275600
H211	H21	0.619800	0.572300	0.326700
C241	C24	0.719500	0.716100	0.254400
H221	H22	0.688700	0.791500	0.288100
C251	C25	0.027600	0.129500	0.369400
H231	H23	0.103800	0.190000	0.447600
C261	C26	0.049200	0.010700	0.315100
H241	H24	0.142700	0.976300	0.347700
B21	B2	0.862600	0.812200	0.103900
N141	N14	0.875900	0.146700	0.291200
N151	N15	0.150700	0.720700	0.937200
N161	N16	0.749700	0.508100	0.208600
