data_CUGQEC_freeONLY_PM
_symmetry_space_group_name_H-M	'P1'
_cell_length_a	10.876700
_cell_length_b	12.698000
_cell_length_c	14.373000
_cell_angle_alpha	113.644000
_cell_angle_beta	92.071000
_cell_angle_gamma	114.579000
_symmetry_Int_Tables_number 1

loop_
_symmetry_equiv_pos_as_xyz
'x,y,z'

loop_
_atom_site_label
_atom_site_type_symbol
_atom_site_fract_x
_atom_site_fract_y
_atom_site_fract_z
Cu11	Cu1	0.501540	0.444680	0.251330
N11	N1	0.600500	0.631800	0.280500
Mo11	Mo1	0.819480	0.391630	0.153770
O11	O1	0.783700	0.649800	0.567900
C11	C1	0.922500	0.867100	0.962800
H11	H1	0.870000	0.777500	0.937400
O21	O2	0.506400	0.485400	0.395900
Mo21	Mo2	0.166370	0.568850	0.233950
N21	N2	0.413900	0.253400	0.205100
Cu21	Cu2	0.606800	0.502800	0.506000
O31	O3	0.135400	0.881100	0.245700
C21	C2	0.353800	0.042500	0.068100
H21	H2	0.364000	0.992300	0.003800
O41	O4	0.636300	0.367300	0.473200
Mo31	Mo3	0.655810	0.315660	0.917240
O51	O5	0.390700	0.401600	0.114500
O61	O6	0.696000	0.429800	0.205400
C31	C3	0.029900	0.907800	0.424800
H31	H3	0.051200	0.847100	0.376100
O71	O7	0.849000	0.720000	0.082700
C41	C4	0.001700	0.915400	0.902900
H41	H4	0.003000	0.858300	0.837900
N31	N3	0.840900	0.909800	0.127000
O81	O8	0.979800	0.546500	0.244700
C51	C5	0.069600	0.028100	0.427300
N41	N4	0.145600	0.069700	0.359200
O91	O9	0.569700	0.166700	0.812600
C61	C6	0.813800	0.801000	0.138900
O101	O10	0.532500	0.352400	0.968400
C71	C7	0.273800	0.985500	0.120700
H51	H5	0.226800	0.895200	0.092500
O111	O11	0.830200	0.286900	0.193300
C81	C8	0.419900	0.175900	0.110900
H61	H6	0.471400	0.214400	0.072700
O121	O12	0.007100	0.403600	0.076300
C91	C9	0.958200	0.880400	0.496300
H71	H7	0.927600	0.798700	0.493300
O131	O13	0.174800	0.457300	0.267200
C101	C10	0.920200	0.950800	0.061000
C111	C11	0.175900	0.996900	0.275200
O141	O14	0.297300	0.569300	0.146100
C121	C12	0.739000	0.783600	0.218600
O151	O15	0.260600	0.719500	0.341000
C131	C13	0.594700	0.728700	0.359200
H81	H8	0.542000	0.709900	0.405300
O161	O16	0.864600	0.345100	0.875600
C141	C14	0.731900	0.882800	0.302800
H91	H9	0.773200	0.967300	0.310700
O171	O17	0.714700	0.265800	0.012600
C151	C15	0.261800	0.062000	0.217000
O181	O18	0.835200	0.495800	0.052800
C161	C16	0.669500	0.658600	0.209800
H101	H10	0.670600	0.590300	0.152600
C171	C17	0.661200	0.853400	0.375900
H111	H11	0.660200	0.919300	0.435300
C181	C18	0.336300	0.195000	0.257200
H121	H12	0.332600	0.246800	0.323500
Cu31	Cu3	0.498460	0.555320	0.748670
N51	N5	0.399500	0.368200	0.719500
Mo41	Mo4	0.180520	0.608370	0.846230
O191	O19	0.216300	0.350200	0.432100
C191	C19	0.077500	0.132900	0.037200
H131	H13	0.130000	0.222500	0.062600
O201	O20	0.493600	0.514600	0.604100
Mo51	Mo5	0.833630	0.431150	0.766050
N61	N6	0.586100	0.746600	0.794900
Cu41	Cu4	0.393200	0.497200	0.494000
O211	O21	0.864600	0.118900	0.754300
C201	C20	0.646200	0.957500	0.931900
H141	H14	0.636000	0.007700	0.996200
O221	O22	0.363700	0.632700	0.526800
Mo61	Mo6	0.344190	0.684340	0.082760
O231	O23	0.609300	0.598400	0.885500
O241	O24	0.304000	0.570200	0.794600
C211	C21	0.970100	0.092200	0.575200
H151	H15	0.948800	0.152900	0.623900
O251	O25	0.151000	0.280000	0.917300
C221	C22	0.998300	0.084600	0.097100
H161	H16	0.997000	0.141700	0.162100
N71	N7	0.159100	0.090200	0.873000
O261	O26	0.020200	0.453500	0.755300
C231	C23	0.930400	0.971900	0.572700
N81	N8	0.854400	0.930300	0.640800
O271	O27	0.430300	0.833300	0.187400
C241	C24	0.186200	0.199000	0.861100
O281	O28	0.467500	0.647600	0.031600
C251	C25	0.726200	0.014500	0.879300
H171	H17	0.773200	0.104800	0.907500
O291	O29	0.169800	0.713100	0.806700
C261	C26	0.580100	0.824100	0.889100
H181	H18	0.528600	0.785600	0.927300
O301	O30	0.992900	0.596400	0.923700
C271	C27	0.041800	0.119600	0.503700
H191	H19	0.072400	0.201300	0.506700
O311	O31	0.825200	0.542700	0.732800
C281	C28	0.079800	0.049200	0.939000
C291	C29	0.824100	0.003100	0.724800
O321	O32	0.702700	0.430700	0.853900
C301	C30	0.261000	0.216400	0.781400
O331	O33	0.739400	0.280500	0.659000
C311	C31	0.405300	0.271300	0.640800
H201	H20	0.458000	0.290100	0.594700
O341	O34	0.135400	0.654900	0.124400
C321	C32	0.268100	0.117200	0.697200
H211	H21	0.226800	0.032700	0.689300
O351	O35	0.285300	0.734200	0.987400
C331	C33	0.738200	0.938000	0.783000
O361	O36	0.164800	0.504200	0.947200
C341	C34	0.330500	0.341400	0.790200
H221	H22	0.329400	0.409700	0.847400
C351	C35	0.338800	0.146600	0.624100
H231	H23	0.339800	0.080700	0.564700
C361	C36	0.663700	0.805000	0.742800
H241	H24	0.667400	0.753200	0.676500
Cr11	Cr1	0.000000	0.500000	0.000000
