data_CUKYAJ_freeONLY_PM
_symmetry_space_group_name_H-M	'P1'
_cell_length_a	10.562100
_cell_length_b	10.562100
_cell_length_c	14.802000
_cell_angle_alpha	90.596800
_cell_angle_beta	90.596800
_cell_angle_gamma	105.761000
_symmetry_Int_Tables_number 1

loop_
_symmetry_equiv_pos_as_xyz
'x,y,z'

loop_
_atom_site_label
_atom_site_type_symbol
_atom_site_fract_x
_atom_site_fract_y
_atom_site_fract_z
Dy11	Dy1	0.823570	0.426730	0.442910
Dy21	Dy2	0.573270	0.176430	0.057090
Dy31	Dy3	0.176430	0.573270	0.557090
Dy41	Dy4	0.426730	0.823570	0.942910
H11	H1	0.947000	0.353400	0.745600
H21	H2	0.939000	0.209200	0.713600
H31	H3	0.861100	0.793300	0.699900
H41	H4	0.887700	0.675300	0.752800
H51	H5	0.656400	0.802000	0.670100
H61	H6	0.539900	0.674100	0.659900
H71	H7	0.646600	0.053000	0.754400
H81	H8	0.790800	0.061000	0.786400
H91	H9	0.206700	0.138900	0.800100
H101	H10	0.324700	0.112300	0.747200
H111	H11	0.198000	0.343600	0.829900
H121	H12	0.325900	0.460100	0.840100
H131	H13	0.053000	0.646600	0.254400
H141	H14	0.061000	0.790800	0.286400
H151	H15	0.138900	0.206700	0.300100
H161	H16	0.112300	0.324700	0.247200
H171	H17	0.343600	0.198000	0.329900
H181	H18	0.460100	0.325900	0.340100
H191	H19	0.353400	0.947000	0.245600
H201	H20	0.209200	0.939000	0.213600
H211	H21	0.793300	0.861100	0.199900
H221	H22	0.675300	0.887700	0.252800
H231	H23	0.802000	0.656400	0.170100
H241	H24	0.674100	0.539900	0.159900
C11	C1	0.655000	0.513600	0.731500
C21	C2	0.894800	0.278400	0.711100
C31	C3	0.882700	0.318500	0.611400
C41	C4	0.842800	0.698200	0.700600
C51	C5	0.898000	0.653200	0.616500
C61	C6	0.611300	0.720900	0.699600
C71	C7	0.554100	0.754700	0.786000
C81	C8	0.486400	0.345000	0.768500
C91	C9	0.721600	0.105200	0.788900
C101	C10	0.681500	0.117300	0.888600
C111	C11	0.301800	0.157200	0.799400
C121	C12	0.346800	0.102000	0.883500
C131	C13	0.279100	0.388700	0.800400
C141	C14	0.245300	0.445900	0.714000
C151	C15	0.345000	0.486400	0.268500
C161	C16	0.105200	0.721600	0.288900
C171	C17	0.117300	0.681500	0.388600
C181	C18	0.157200	0.301800	0.299400
C191	C19	0.102000	0.346800	0.383500
C201	C20	0.388700	0.279100	0.300400
C211	C21	0.445900	0.245300	0.214000
C221	C22	0.513600	0.655000	0.231500
C231	C23	0.278400	0.894800	0.211100
C241	C24	0.318500	0.882700	0.111400
C251	C25	0.698200	0.842800	0.200600
C261	C26	0.653200	0.898000	0.116500
C271	C27	0.720900	0.611300	0.199600
C281	C28	0.754700	0.554100	0.286000
C291	C29	0.687300	0.312700	0.750000
C301	C30	0.312700	0.687300	0.250000
N11	N1	0.742000	0.440400	0.730800
N21	N2	0.702100	0.641900	0.710500
N31	N3	0.559600	0.258000	0.769200
N41	N4	0.358100	0.297900	0.789500
N51	N5	0.258000	0.559600	0.269200
N61	N6	0.297900	0.358100	0.289500
N71	N7	0.440400	0.742000	0.230800
N81	N8	0.641900	0.702100	0.210500
N91	N9	0.527500	0.472500	0.750000
N101	N10	0.766900	0.233100	0.750000
N111	N11	0.472500	0.527500	0.250000
N121	N12	0.233100	0.766900	0.250000
O11	O1	0.975300	0.409100	0.580100
O21	O2	0.787900	0.260500	0.565100
O31	O3	0.023500	0.682100	0.615100
O41	O4	0.823600	0.594200	0.554300
O51	O5	0.451500	0.795300	0.779200
O61	O6	0.604000	0.749400	0.860700
O71	O7	0.597800	0.415600	0.497000
O81	O8	0.679600	0.222000	0.380500
O91	O9	0.590900	0.024700	0.919900
O101	O10	0.739500	0.212100	0.934900
O111	O11	0.317900	0.976500	0.884900
O121	O12	0.405800	0.176400	0.945700
O131	O13	0.204700	0.548500	0.720800
O141	O14	0.250600	0.396000	0.639300
O151	O15	0.584400	0.402200	0.003000
O161	O16	0.778000	0.320400	0.119500
O171	O17	0.024700	0.590900	0.419900
O181	O18	0.212100	0.739500	0.434900
O191	O19	0.976500	0.317900	0.384900
O201	O20	0.176400	0.405800	0.445700
O211	O21	0.548500	0.204700	0.220800
O221	O22	0.396000	0.250600	0.139300
O231	O23	0.402200	0.584400	0.503000
O241	O24	0.320400	0.778000	0.619500
O251	O25	0.409100	0.975300	0.080100
O261	O26	0.260500	0.787900	0.065100
O271	O27	0.682100	0.023500	0.115100
O281	O28	0.594200	0.823600	0.054300
O291	O29	0.795300	0.451500	0.279200
O301	O30	0.749400	0.604000	0.360700
O311	O31	0.415600	0.597800	0.997000
O321	O32	0.222000	0.679600	0.880500
