data_CUKZOY_freeONLY_PM
_symmetry_space_group_name_H-M	'P1'
_cell_length_a	13.022000
_cell_length_b	18.755000
_cell_length_c	13.403000
_cell_angle_alpha	90.000000
_cell_angle_beta	107.720000
_cell_angle_gamma	90.000000
_symmetry_Int_Tables_number 1

loop_
_symmetry_equiv_pos_as_xyz
'x,y,z'

loop_
_atom_site_label
_atom_site_type_symbol
_atom_site_fract_x
_atom_site_fract_y
_atom_site_fract_z
Ag11	Ag1	0.002130	0.015810	0.880260
C11	C1	0.242900	0.037200	0.712700
H11	H1	0.257800	0.993900	0.686500
C21	C2	0.159400	0.130200	0.742900
H21	H2	0.104700	0.162500	0.741000
C31	C3	0.263300	0.137600	0.800600
H31	H3	0.293700	0.175400	0.844500
C41	C4	0.431000	0.060500	0.831600
H41	H4	0.445200	0.056800	0.906800
H51	H5	0.447900	0.015000	0.806000
C51	C5	0.500800	0.117500	0.807900
H61	H6	0.523500	0.163600	0.675400
H71	H7	0.425700	0.110700	0.647600
C61	C6	0.857100	0.889700	0.628800
H81	H8	0.919500	0.863600	0.659300
C71	C7	0.749100	0.974100	0.555500
H91	H9	0.723200	0.017900	0.525800
C81	C8	0.687600	0.918500	0.565500
H101	H10	0.612600	0.916900	0.544600
C91	C9	0.728800	0.791200	0.626200
H111	H11	0.788000	0.768700	0.678800
H121	H12	0.666100	0.790200	0.650900
C101	C10	0.704400	0.749400	0.523900
H131	H13	0.859700	0.731000	0.526000
H141	H14	0.810900	0.799800	0.463000
N11	N1	0.146400	0.067700	0.687300
N21	N2	0.315600	0.077500	0.781100
N31	N3	0.856000	0.956000	0.596000
N41	N4	0.756700	0.864800	0.612400
Ag21	Ag2	0.502130	0.515810	0.880260
C111	C11	0.742900	0.537200	0.712700
H151	H15	0.757800	0.493900	0.686500
C121	C12	0.659400	0.630200	0.742900
H161	H16	0.604700	0.662500	0.741000
C131	C13	0.763300	0.637600	0.800600
H171	H17	0.793700	0.675400	0.844500
C141	C14	0.931000	0.560500	0.831600
H181	H18	0.945200	0.556800	0.906800
H191	H19	0.947900	0.515000	0.806000
C151	C15	0.000800	0.617500	0.807900
H201	H20	0.023500	0.663600	0.675400
H211	H21	0.925700	0.610700	0.647600
C161	C16	0.357100	0.389700	0.628800
H221	H22	0.419500	0.363600	0.659300
C171	C17	0.249100	0.474100	0.555500
H231	H23	0.223200	0.517900	0.525800
C181	C18	0.187600	0.418500	0.565500
H241	H24	0.112600	0.416900	0.544600
C191	C19	0.228800	0.291200	0.626200
H251	H25	0.288000	0.268700	0.678800
H261	H26	0.166100	0.290200	0.650900
C201	C20	0.204400	0.249400	0.523900
H271	H27	0.359700	0.231000	0.526000
H281	H28	0.310900	0.299800	0.463000
N51	N5	0.646400	0.567700	0.687300
N61	N6	0.815600	0.577500	0.781100
N71	N7	0.356000	0.456000	0.596000
N81	N8	0.256700	0.364800	0.612400
Ag31	Ag3	0.997870	0.015810	0.619740
C211	C21	0.757100	0.037200	0.787300
H291	H29	0.742200	0.993900	0.813500
C221	C22	0.840600	0.130200	0.757100
H301	H30	0.895300	0.162500	0.759000
C231	C23	0.736700	0.137600	0.699400
H311	H31	0.706300	0.175400	0.655500
C241	C24	0.569000	0.060500	0.668400
H321	H32	0.554800	0.056800	0.593200
H331	H33	0.552100	0.015000	0.694000
C251	C25	0.499200	0.117500	0.692100
H341	H34	0.476500	0.163600	0.824600
H351	H35	0.574300	0.110700	0.852400
C261	C26	0.142900	0.889700	0.871200
H361	H36	0.080500	0.863600	0.840700
C271	C27	0.250900	0.974100	0.944500
H371	H37	0.276800	0.017900	0.974200
C281	C28	0.312400	0.918500	0.934500
H381	H38	0.387400	0.916900	0.955400
C291	C29	0.271200	0.791200	0.873800
H391	H39	0.212000	0.768700	0.821200
H401	H40	0.333900	0.790200	0.849100
C301	C30	0.295600	0.749400	0.976100
H411	H41	0.140300	0.731000	0.974000
H421	H42	0.189100	0.799800	0.037000
N91	N9	0.853600	0.067700	0.812700
N101	N10	0.684400	0.077500	0.718900
N111	N11	0.144000	0.956000	0.904000
N121	N12	0.243300	0.864800	0.887600
Ag41	Ag4	0.497870	0.515810	0.619740
C311	C31	0.257100	0.537200	0.787300
H431	H43	0.242200	0.493900	0.813500
C321	C32	0.340600	0.630200	0.757100
H441	H44	0.395300	0.662500	0.759000
C331	C33	0.236700	0.637600	0.699400
H451	H45	0.206300	0.675400	0.655500
C341	C34	0.069000	0.560500	0.668400
H461	H46	0.054800	0.556800	0.593200
H471	H47	0.052100	0.515000	0.694000
C351	C35	0.999200	0.617500	0.692100
H481	H48	0.976500	0.663600	0.824600
H491	H49	0.074300	0.610700	0.852400
C361	C36	0.642900	0.389700	0.871200
H501	H50	0.580500	0.363600	0.840700
C371	C37	0.750900	0.474100	0.944500
H511	H51	0.776800	0.517900	0.974200
C381	C38	0.812400	0.418500	0.934500
H521	H52	0.887400	0.416900	0.955400
C391	C39	0.771200	0.291200	0.873800
H531	H53	0.712000	0.268700	0.821200
H541	H54	0.833900	0.290200	0.849100
C401	C40	0.795600	0.249400	0.976100
H551	H55	0.640300	0.231000	0.974000
H561	H56	0.689100	0.299800	0.037000
N131	N13	0.353600	0.567700	0.812700
N141	N14	0.184400	0.577500	0.718900
N151	N15	0.644000	0.456000	0.904000
N161	N16	0.743300	0.364800	0.887600
Ag51	Ag5	0.997870	0.984190	0.119740
C411	C41	0.757100	0.962800	0.287300
H571	H57	0.742200	0.006100	0.313500
C421	C42	0.840600	0.869800	0.257100
H581	H58	0.895300	0.837500	0.259000
C431	C43	0.736700	0.862400	0.199400
H591	H59	0.706300	0.824600	0.155500
C441	C44	0.569000	0.939500	0.168400
H601	H60	0.554800	0.943200	0.093200
H611	H61	0.552100	0.985000	0.194000
C451	C45	0.499200	0.882500	0.192100
H621	H62	0.476500	0.836400	0.324600
H631	H63	0.574300	0.889300	0.352400
C461	C46	0.142900	0.110300	0.371200
H641	H64	0.080500	0.136400	0.340700
C471	C47	0.250900	0.025900	0.444500
H651	H65	0.276800	0.982100	0.474200
C481	C48	0.312400	0.081500	0.434500
H661	H66	0.387400	0.083100	0.455400
C491	C49	0.271200	0.208800	0.373800
H671	H67	0.212000	0.231300	0.321200
H681	H68	0.333900	0.209800	0.349100
C501	C50	0.295600	0.250600	0.476100
H691	H69	0.140300	0.269000	0.474000
H701	H70	0.189100	0.200200	0.537000
N171	N17	0.853600	0.932300	0.312700
N181	N18	0.684400	0.922500	0.218900
N191	N19	0.144000	0.044000	0.404000
N201	N20	0.243300	0.135200	0.387600
Ag61	Ag6	0.497870	0.484190	0.119740
C511	C51	0.257100	0.462800	0.287300
H711	H71	0.242200	0.506100	0.313500
C521	C52	0.340600	0.369800	0.257100
H721	H72	0.395300	0.337500	0.259000
C531	C53	0.236700	0.362400	0.199400
H731	H73	0.206300	0.324600	0.155500
C541	C54	0.069000	0.439500	0.168400
H741	H74	0.054800	0.443200	0.093200
H751	H75	0.052100	0.485000	0.194000
C551	C55	0.999200	0.382500	0.192100
H761	H76	0.976500	0.336400	0.324600
H771	H77	0.074300	0.389300	0.352400
C561	C56	0.642900	0.610300	0.371200
H781	H78	0.580500	0.636400	0.340700
C571	C57	0.750900	0.525900	0.444500
H791	H79	0.776800	0.482100	0.474200
C581	C58	0.812400	0.581500	0.434500
H801	H80	0.887400	0.583100	0.455400
C591	C59	0.771200	0.708800	0.373800
H811	H81	0.712000	0.731300	0.321200
H821	H82	0.833900	0.709800	0.349100
C601	C60	0.795600	0.750600	0.476100
H831	H83	0.640300	0.769000	0.474000
H841	H84	0.689100	0.700200	0.537000
N211	N21	0.353600	0.432300	0.312700
N221	N22	0.184400	0.422500	0.218900
N231	N23	0.644000	0.544000	0.404000
N241	N24	0.743300	0.635200	0.387600
Ag71	Ag7	0.002130	0.984190	0.380260
C611	C61	0.242900	0.962800	0.212700
H851	H85	0.257800	0.006100	0.186500
C621	C62	0.159400	0.869800	0.242900
H861	H86	0.104700	0.837500	0.241000
C631	C63	0.263300	0.862400	0.300600
H871	H87	0.293700	0.824600	0.344500
C641	C64	0.431000	0.939500	0.331600
H881	H88	0.445200	0.943200	0.406800
H891	H89	0.447900	0.985000	0.306000
C651	C65	0.500800	0.882500	0.307900
H901	H90	0.523500	0.836400	0.175400
H911	H91	0.425700	0.889300	0.147600
C661	C66	0.857100	0.110300	0.128800
H921	H92	0.919500	0.136400	0.159300
C671	C67	0.749100	0.025900	0.055500
H931	H93	0.723200	0.982100	0.025800
C681	C68	0.687600	0.081500	0.065500
H941	H94	0.612600	0.083100	0.044600
C691	C69	0.728800	0.208800	0.126200
H951	H95	0.788000	0.231300	0.178800
H961	H96	0.666100	0.209800	0.150900
C701	C70	0.704400	0.250600	0.023900
H971	H97	0.859700	0.269000	0.026000
H981	H98	0.810900	0.200200	0.963000
N251	N25	0.146400	0.932300	0.187300
N261	N26	0.315600	0.922500	0.281100
N271	N27	0.856000	0.044000	0.096000
N281	N28	0.756700	0.135200	0.112400
Ag81	Ag8	0.502130	0.484190	0.380260
C711	C71	0.742900	0.462800	0.212700
H991	H99	0.757800	0.506100	0.186500
C721	C72	0.659400	0.369800	0.242900
H1001	H100	0.604700	0.337500	0.241000
C731	C73	0.763300	0.362400	0.300600
H1011	H101	0.793700	0.324600	0.344500
C741	C74	0.931000	0.439500	0.331600
H1021	H102	0.945200	0.443200	0.406800
H1031	H103	0.947900	0.485000	0.306000
C751	C75	0.000800	0.382500	0.307900
H1041	H104	0.023500	0.336400	0.175400
H1051	H105	0.925700	0.389300	0.147600
C761	C76	0.357100	0.610300	0.128800
H1061	H106	0.419500	0.636400	0.159300
C771	C77	0.249100	0.525900	0.055500
H1071	H107	0.223200	0.482100	0.025800
C781	C78	0.187600	0.581500	0.065500
H1081	H108	0.112600	0.583100	0.044600
C791	C79	0.228800	0.708800	0.126200
H1091	H109	0.288000	0.731300	0.178800
H1101	H110	0.166100	0.709800	0.150900
C801	C80	0.204400	0.750600	0.023900
H1111	H111	0.359700	0.769000	0.026000
H1121	H112	0.310900	0.700200	0.963000
N291	N29	0.646400	0.432300	0.187300
N301	N30	0.815600	0.422500	0.281100
N311	N31	0.356000	0.544000	0.096000
N321	N32	0.256700	0.635200	0.112400
