data_CUMDEU_freeONLY_PM
_symmetry_space_group_name_H-M	'P1'
_cell_length_a	22.915000
_cell_length_b	14.280200
_cell_length_c	5.645100
_cell_angle_alpha	90.000000
_cell_angle_beta	102.801000
_cell_angle_gamma	90.000000
_symmetry_Int_Tables_number 1

loop_
_symmetry_equiv_pos_as_xyz
'x,y,z'

loop_
_atom_site_label
_atom_site_type_symbol
_atom_site_fract_x
_atom_site_fract_y
_atom_site_fract_z
P11	P1	0.584330	0.132200	0.273600
O11	O1	0.551400	0.038100	0.159600
O21	O2	0.567100	0.199800	0.032800
O31	O3	0.561300	0.161900	0.502700
C11	C1	0.666400	0.103000	0.360500
C21	C2	0.764600	0.152880	0.468200
C31	C3	0.778300	0.091900	0.703000
C41	C4	0.695440	0.278000	0.336500
C51	C5	0.647300	0.355000	0.337000
N11	N1	0.701450	0.185800	0.479900
P21	P2	0.084330	0.632200	0.273600
O41	O4	0.051400	0.538100	0.159600
O51	O5	0.067100	0.699800	0.032800
O61	O6	0.061300	0.661900	0.502700
C61	C6	0.166400	0.603000	0.360500
C71	C7	0.264600	0.652880	0.468200
C81	C8	0.278300	0.591900	0.703000
C91	C9	0.195440	0.778000	0.336500
C101	C10	0.147300	0.855000	0.337000
N21	N2	0.201450	0.685800	0.479900
P31	P3	0.415670	0.132200	0.226400
O71	O7	0.448600	0.038100	0.340400
O81	O8	0.432900	0.199800	0.467200
O91	O9	0.438700	0.161900	0.997300
C111	C11	0.333600	0.103000	0.139500
C121	C12	0.235400	0.152880	0.031800
C131	C13	0.221700	0.091900	0.797000
C141	C14	0.304560	0.278000	0.163500
C151	C15	0.352700	0.355000	0.163000
N31	N3	0.298550	0.185800	0.020100
P41	P4	0.915670	0.632200	0.226400
O101	O10	0.948600	0.538100	0.340400
O111	O11	0.932900	0.699800	0.467200
O121	O12	0.938700	0.661900	0.997300
C161	C16	0.833600	0.603000	0.139500
C171	C17	0.735400	0.652880	0.031800
C181	C18	0.721700	0.591900	0.797000
C191	C19	0.804560	0.778000	0.163500
C201	C20	0.852700	0.855000	0.163000
N41	N4	0.798550	0.685800	0.020100
P51	P5	0.415670	0.867800	0.726400
O131	O13	0.448600	0.961900	0.840400
O141	O14	0.432900	0.800200	0.967200
O151	O15	0.438700	0.838100	0.497300
C211	C21	0.333600	0.897000	0.639500
C221	C22	0.235400	0.847120	0.531800
C231	C23	0.221700	0.908100	0.297000
C241	C24	0.304560	0.722000	0.663500
C251	C25	0.352700	0.645000	0.663000
N51	N5	0.298550	0.814200	0.520100
P61	P6	0.915670	0.367800	0.726400
O161	O16	0.948600	0.461900	0.840400
O171	O17	0.932900	0.300200	0.967200
O181	O18	0.938700	0.338100	0.497300
C261	C26	0.833600	0.397000	0.639500
C271	C27	0.735400	0.347120	0.531800
C281	C28	0.721700	0.408100	0.297000
C291	C29	0.804560	0.222000	0.663500
C301	C30	0.852700	0.145000	0.663000
N61	N6	0.798550	0.314200	0.520100
P71	P7	0.584330	0.867800	0.773600
O191	O19	0.551400	0.961900	0.659600
O201	O20	0.567100	0.800200	0.532800
O211	O21	0.561300	0.838100	0.002700
C311	C31	0.666400	0.897000	0.860500
C321	C32	0.764600	0.847120	0.968200
C331	C33	0.778300	0.908100	0.203000
C341	C34	0.695440	0.722000	0.836500
C351	C35	0.647300	0.645000	0.837000
N71	N7	0.701450	0.814200	0.979900
P81	P8	0.084330	0.367800	0.773600
O221	O22	0.051400	0.461900	0.659600
O231	O23	0.067100	0.300200	0.532800
O241	O24	0.061300	0.338100	0.002700
C361	C36	0.166400	0.397000	0.860500
C371	C37	0.264600	0.347120	0.968200
C381	C38	0.278300	0.408100	0.203000
C391	C39	0.195440	0.222000	0.836500
C401	C40	0.147300	0.145000	0.837000
N81	N8	0.201450	0.314200	0.979900
Ce11	Ce1	0.500000	0.103050	0.750000
Ce21	Ce2	0.000000	0.603050	0.750000
Ce31	Ce3	0.500000	0.896950	0.250000
Ce41	Ce4	0.000000	0.396950	0.250000
