data_CUMDUK_freeONLY_PM
_symmetry_space_group_name_H-M	'P1'
_cell_length_a	18.450000
_cell_length_b	20.710000
_cell_length_c	14.174000
_cell_angle_alpha	90.000000
_cell_angle_beta	90.000000
_cell_angle_gamma	90.000000
_symmetry_Int_Tables_number 1

loop_
_symmetry_equiv_pos_as_xyz
'x,y,z'

loop_
_atom_site_label
_atom_site_type_symbol
_atom_site_fract_x
_atom_site_fract_y
_atom_site_fract_z
Mo11	Mo1	0.161420	0.730270	0.095520
Mo21	Mo2	0.245890	0.833600	0.092570
Mo31	Mo3	0.736230	0.179170	0.099830
Mo41	Mo4	0.824940	0.280030	0.099920
S11	S1	0.166570	0.807800	0.214060
S21	S2	0.809380	0.209440	0.226250
Na11	Na1	0.996690	0.501150	0.258500
O11	O1	0.210500	0.567500	0.799900
H11	H1	0.196900	0.538600	0.762200
O21	O2	0.093000	0.572100	0.833600
O31	O3	0.990400	0.605700	0.150800
O41	O4	0.074300	0.681500	0.164300
O51	O5	0.987500	0.787500	0.922300
O61	O6	0.063700	0.776400	0.041900
O71	O7	0.219200	0.670900	0.126200
O81	O8	0.212100	0.774970	0.997100
O91	O9	0.325700	0.801700	0.122000
O101	O10	0.167700	0.899900	0.026400
O111	O11	0.134200	0.949800	0.894500
O121	O12	0.267700	0.924500	0.158000
O131	O13	0.332900	0.013300	0.147500
O141	O14	0.425800	0.833900	0.787800
H21	H2	0.451800	0.852700	0.747700
O151	O15	0.415700	0.933200	0.846500
O161	O16	0.568800	0.171800	0.786700
H31	H3	0.540400	0.152600	0.749700
O171	O17	0.597300	0.072200	0.831900
O181	O18	0.646600	0.999800	0.153800
O191	O19	0.705000	0.092910	0.170300
O201	O20	0.865900	0.053200	0.935900
O211	O21	0.818000	0.107780	0.055400
O221	O22	0.654800	0.214600	0.115900
O231	O23	0.778770	0.230910	0.002000
O241	O24	0.766800	0.341530	0.116700
O251	O25	0.923400	0.227090	0.057800
O261	O26	0.995500	0.200100	0.940000
O271	O27	0.910700	0.327800	0.170800
O281	O28	0.002300	0.396600	0.156700
O291	O29	0.801100	0.440700	0.796100
H41	H4	0.819400	0.463800	0.753600
O301	O30	0.917100	0.421100	0.829300
N11	N1	0.688100	0.120900	0.977500
N21	N2	0.878200	0.335900	0.977600
N31	N3	0.118300	0.665300	0.977800
N41	N4	0.306800	0.887200	0.974500
C11	C1	0.154800	0.588000	0.848700
C21	C2	0.179200	0.634200	0.925200
H51	H5	0.210000	0.610400	0.970600
H61	H6	0.209400	0.668400	0.896200
C31	C3	0.073200	0.616700	0.025600
H71	H7	0.102500	0.577100	0.034900
H81	H8	0.032200	0.605300	0.983500
C41	C4	0.043200	0.637000	0.118800
C51	C5	0.077100	0.706500	0.911600
H91	H9	0.041200	0.679600	0.877600
H101	H10	0.110700	0.724900	0.864300
C61	C6	0.038400	0.760400	0.961500
C71	C7	0.401900	0.875600	0.848400
C81	C8	0.356600	0.843800	0.923700
H111	H11	0.327700	0.809000	0.894100
H121	H12	0.389500	0.823400	0.970100
C91	C9	0.312900	0.960100	0.117400
C101	C10	0.346700	0.938800	0.025500
H131	H13	0.350600	0.976900	0.983500
H141	H14	0.396500	0.923400	0.038400
C111	C11	0.179100	0.921800	0.944900
C121	C12	0.254000	0.914300	0.906200
H151	H15	0.252000	0.885800	0.850200
H161	H16	0.271600	0.957100	0.885000
C131	C13	0.600500	0.129600	0.841700
C141	C14	0.640600	0.163800	0.922100
H171	H17	0.670200	0.199100	0.895100
H181	H18	0.604500	0.183600	0.964900
C151	C15	0.668600	0.052000	0.123000
C161	C16	0.645800	0.068600	0.023200
H191	H19	0.649700	0.029300	0.983900
H201	H20	0.594100	0.081500	0.024200
C171	C17	0.815500	0.083000	0.972300
C181	C18	0.747100	0.097200	0.917500
H211	H21	0.757900	0.129900	0.868500
H221	H22	0.731100	0.057300	0.885100
C191	C19	0.853300	0.412600	0.845100
C201	C20	0.822500	0.370400	0.922600
H231	H23	0.793700	0.397700	0.966000
H241	H24	0.789300	0.338300	0.894000
C211	C21	0.949300	0.367300	0.123700
C221	C22	0.930500	0.381200	0.023100
H251	H25	0.910000	0.425400	0.019600
H261	H26	0.975800	0.381100	0.985700
C231	C23	0.949100	0.234500	0.974400
C241	C24	0.914800	0.287700	0.917200
H271	H27	0.952600	0.309500	0.879200
H281	H28	0.879000	0.268700	0.873100
Mo51	Mo5	0.838580	0.269730	0.595520
Mo61	Mo6	0.754110	0.166400	0.592570
Mo71	Mo7	0.263770	0.820830	0.599830
Mo81	Mo8	0.175060	0.719970	0.599920
S31	S3	0.833430	0.192200	0.714060
S41	S4	0.190620	0.790560	0.726250
Na21	Na2	0.003310	0.498850	0.758500
O311	O31	0.789500	0.432500	0.299900
H291	H29	0.803100	0.461400	0.262200
O321	O32	0.907000	0.427900	0.333600
O331	O33	0.009600	0.394300	0.650800
O341	O34	0.925700	0.318500	0.664300
O351	O35	0.012500	0.212500	0.422300
O361	O36	0.936300	0.223600	0.541900
O371	O37	0.780800	0.329100	0.626200
O381	O38	0.787900	0.225030	0.497100
O391	O39	0.674300	0.198300	0.622000
O401	O40	0.832300	0.100100	0.526400
O411	O41	0.865800	0.050200	0.394500
O421	O42	0.732300	0.075500	0.658000
O431	O43	0.667100	0.986700	0.647500
O441	O44	0.574200	0.166100	0.287800
H301	H30	0.548200	0.147300	0.247700
O451	O45	0.584300	0.066800	0.346500
O461	O46	0.431200	0.828200	0.286700
H311	H31	0.459600	0.847400	0.249700
O471	O47	0.402700	0.927800	0.331900
O481	O48	0.353400	0.000200	0.653800
O491	O49	0.295000	0.907090	0.670300
O501	O50	0.134100	0.946800	0.435900
O511	O51	0.182000	0.892220	0.555400
O521	O52	0.345200	0.785400	0.615900
O531	O53	0.221230	0.769090	0.502000
O541	O54	0.233200	0.658470	0.616700
O551	O55	0.076600	0.772910	0.557800
O561	O56	0.004500	0.799900	0.440000
O571	O57	0.089300	0.672200	0.670800
O581	O58	0.997700	0.603400	0.656700
O591	O59	0.198900	0.559300	0.296100
H321	H32	0.180600	0.536200	0.253600
O601	O60	0.082900	0.578900	0.329300
N51	N5	0.311900	0.879100	0.477500
N61	N6	0.121800	0.664100	0.477600
N71	N7	0.881700	0.334700	0.477800
N81	N8	0.693200	0.112800	0.474500
C251	C25	0.845200	0.412000	0.348700
C261	C26	0.820800	0.365800	0.425200
H331	H33	0.790000	0.389600	0.470600
H341	H34	0.790600	0.331600	0.396200
C271	C27	0.926800	0.383300	0.525600
H351	H35	0.897500	0.422900	0.534900
H361	H36	0.967800	0.394700	0.483500
C281	C28	0.956800	0.363000	0.618800
C291	C29	0.922900	0.293500	0.411600
H371	H37	0.958800	0.320400	0.377600
H381	H38	0.889300	0.275100	0.364300
C301	C30	0.961600	0.239600	0.461500
C311	C31	0.598100	0.124400	0.348400
C321	C32	0.643400	0.156200	0.423700
H391	H39	0.672300	0.191000	0.394100
H401	H40	0.610500	0.176600	0.470100
C331	C33	0.687100	0.039900	0.617400
C341	C34	0.653300	0.061200	0.525500
H411	H41	0.649400	0.023100	0.483500
H421	H42	0.603500	0.076600	0.538400
C351	C35	0.820900	0.078200	0.444900
C361	C36	0.746000	0.085700	0.406200
H431	H43	0.748000	0.114200	0.350200
H441	H44	0.728400	0.042900	0.385000
C371	C37	0.399500	0.870400	0.341700
C381	C38	0.359400	0.836200	0.422100
H451	H45	0.329800	0.800900	0.395100
H461	H46	0.395500	0.816400	0.464900
C391	C39	0.331400	0.948000	0.623000
C401	C40	0.354200	0.931400	0.523200
H471	H47	0.350300	0.970700	0.483900
H481	H48	0.405900	0.918500	0.524200
C411	C41	0.184500	0.917000	0.472300
C421	C42	0.252900	0.902800	0.417500
H491	H49	0.242100	0.870100	0.368500
H501	H50	0.268900	0.942700	0.385100
C431	C43	0.146700	0.587400	0.345100
C441	C44	0.177500	0.629600	0.422600
H511	H51	0.206300	0.602300	0.466000
H521	H52	0.210700	0.661700	0.394000
C451	C45	0.050700	0.632700	0.623700
C461	C46	0.069500	0.618800	0.523100
H531	H53	0.090000	0.574600	0.519600
H541	H54	0.024200	0.618900	0.485700
C471	C47	0.050900	0.765500	0.474400
C481	C48	0.085200	0.712300	0.417200
H551	H55	0.047400	0.690500	0.379200
H561	H56	0.121000	0.731300	0.373100
Mo91	Mo9	0.661420	0.769730	0.095520
Mo101	Mo10	0.745890	0.666400	0.092570
Mo111	Mo11	0.236230	0.320830	0.099830
Mo121	Mo12	0.324940	0.219970	0.099920
S51	S5	0.666570	0.692200	0.214060
S61	S6	0.309380	0.290560	0.226250
Na31	Na3	0.496690	0.998850	0.258500
O611	O61	0.710500	0.932500	0.799900
H571	H57	0.696900	0.961400	0.762200
O621	O62	0.593000	0.927900	0.833600
O631	O63	0.490400	0.894300	0.150800
O641	O64	0.574300	0.818500	0.164300
O651	O65	0.487500	0.712500	0.922300
O661	O66	0.563700	0.723600	0.041900
O671	O67	0.719200	0.829100	0.126200
O681	O68	0.712100	0.725030	0.997100
O691	O69	0.825700	0.698300	0.122000
O701	O70	0.667700	0.600100	0.026400
O711	O71	0.634200	0.550200	0.894500
O721	O72	0.767700	0.575500	0.158000
O731	O73	0.832900	0.486700	0.147500
O741	O74	0.925800	0.666100	0.787800
H581	H58	0.951800	0.647300	0.747700
O751	O75	0.915700	0.566800	0.846500
O761	O76	0.068800	0.328200	0.786700
H591	H59	0.040400	0.347400	0.749700
O771	O77	0.097300	0.427800	0.831900
O781	O78	0.146600	0.500200	0.153800
O791	O79	0.205000	0.407090	0.170300
O801	O80	0.365900	0.446800	0.935900
O811	O81	0.318000	0.392220	0.055400
O821	O82	0.154800	0.285400	0.115900
O831	O83	0.278770	0.269090	0.002000
O841	O84	0.266800	0.158470	0.116700
O851	O85	0.423400	0.272910	0.057800
O861	O86	0.495500	0.299900	0.940000
O871	O87	0.410700	0.172200	0.170800
O881	O88	0.502300	0.103400	0.156700
O891	O89	0.301100	0.059300	0.796100
H601	H60	0.319400	0.036200	0.753600
O901	O90	0.417100	0.078900	0.829300
N91	N9	0.188100	0.379100	0.977500
N101	N10	0.378200	0.164100	0.977600
N111	N11	0.618300	0.834700	0.977800
N121	N12	0.806800	0.612800	0.974500
C491	C49	0.654800	0.912000	0.848700
C501	C50	0.679200	0.865800	0.925200
H611	H61	0.710000	0.889600	0.970600
H621	H62	0.709400	0.831600	0.896200
C511	C51	0.573200	0.883300	0.025600
H631	H63	0.602500	0.922900	0.034900
H641	H64	0.532200	0.894700	0.983500
C521	C52	0.543200	0.863000	0.118800
C531	C53	0.577100	0.793500	0.911600
H651	H65	0.541200	0.820400	0.877600
H661	H66	0.610700	0.775100	0.864300
C541	C54	0.538400	0.739600	0.961500
C551	C55	0.901900	0.624400	0.848400
C561	C56	0.856600	0.656200	0.923700
H671	H67	0.827700	0.691000	0.894100
H681	H68	0.889500	0.676600	0.970100
C571	C57	0.812900	0.539900	0.117400
C581	C58	0.846700	0.561200	0.025500
H691	H69	0.850600	0.523100	0.983500
H701	H70	0.896500	0.576600	0.038400
C591	C59	0.679100	0.578200	0.944900
C601	C60	0.754000	0.585700	0.906200
H711	H71	0.752000	0.614200	0.850200
H721	H72	0.771600	0.542900	0.885000
C611	C61	0.100500	0.370400	0.841700
C621	C62	0.140600	0.336200	0.922100
H731	H73	0.170200	0.300900	0.895100
H741	H74	0.104500	0.316400	0.964900
C631	C63	0.168600	0.448000	0.123000
C641	C64	0.145800	0.431400	0.023200
H751	H75	0.149700	0.470700	0.983900
H761	H76	0.094100	0.418500	0.024200
C651	C65	0.315500	0.417000	0.972300
C661	C66	0.247100	0.402800	0.917500
H771	H77	0.257900	0.370100	0.868500
H781	H78	0.231100	0.442700	0.885100
C671	C67	0.353300	0.087400	0.845100
C681	C68	0.322500	0.129600	0.922600
H791	H79	0.293700	0.102300	0.966000
H801	H80	0.289300	0.161700	0.894000
C691	C69	0.449300	0.132700	0.123700
C701	C70	0.430500	0.118800	0.023100
H811	H81	0.410000	0.074600	0.019600
H821	H82	0.475800	0.118900	0.985700
C711	C71	0.449100	0.265500	0.974400
C721	C72	0.414800	0.212300	0.917200
H831	H83	0.452600	0.190500	0.879200
H841	H84	0.379000	0.231300	0.873100
Mo131	Mo13	0.338580	0.230270	0.595520
Mo141	Mo14	0.254110	0.333600	0.592570
Mo151	Mo15	0.763770	0.679170	0.599830
Mo161	Mo16	0.675060	0.780030	0.599920
S71	S7	0.333430	0.307800	0.714060
S81	S8	0.690620	0.709440	0.726250
Na41	Na4	0.503310	0.001150	0.758500
O911	O91	0.289500	0.067500	0.299900
H851	H85	0.303100	0.038600	0.262200
O921	O92	0.407000	0.072100	0.333600
O931	O93	0.509600	0.105700	0.650800
O941	O94	0.425700	0.181500	0.664300
O951	O95	0.512500	0.287500	0.422300
O961	O96	0.436300	0.276400	0.541900
O971	O97	0.280800	0.170900	0.626200
O981	O98	0.287900	0.274970	0.497100
O991	O99	0.174300	0.301700	0.622000
O1001	O100	0.332300	0.399900	0.526400
O1011	O101	0.365800	0.449800	0.394500
O1021	O102	0.232300	0.424500	0.658000
O1031	O103	0.167100	0.513300	0.647500
O1041	O104	0.074200	0.333900	0.287800
H861	H86	0.048200	0.352700	0.247700
O1051	O105	0.084300	0.433200	0.346500
O1061	O106	0.931200	0.671800	0.286700
H871	H87	0.959600	0.652600	0.249700
O1071	O107	0.902700	0.572200	0.331900
O1081	O108	0.853400	0.499800	0.653800
O1091	O109	0.795000	0.592910	0.670300
O1101	O110	0.634100	0.553200	0.435900
O1111	O111	0.682000	0.607780	0.555400
O1121	O112	0.845200	0.714600	0.615900
O1131	O113	0.721230	0.730910	0.502000
O1141	O114	0.733200	0.841530	0.616700
O1151	O115	0.576600	0.727090	0.557800
O1161	O116	0.504500	0.700100	0.440000
O1171	O117	0.589300	0.827800	0.670800
O1181	O118	0.497700	0.896600	0.656700
O1191	O119	0.698900	0.940700	0.296100
H881	H88	0.680600	0.963800	0.253600
O1201	O120	0.582900	0.921100	0.329300
N131	N13	0.811900	0.620900	0.477500
N141	N14	0.621800	0.835900	0.477600
N151	N15	0.381700	0.165300	0.477800
N161	N16	0.193200	0.387200	0.474500
C731	C73	0.345200	0.088000	0.348700
C741	C74	0.320800	0.134200	0.425200
H891	H89	0.290000	0.110400	0.470600
H901	H90	0.290600	0.168400	0.396200
C751	C75	0.426800	0.116700	0.525600
H911	H91	0.397500	0.077100	0.534900
H921	H92	0.467800	0.105300	0.483500
C761	C76	0.456800	0.137000	0.618800
C771	C77	0.422900	0.206500	0.411600
H931	H93	0.458800	0.179600	0.377600
H941	H94	0.389300	0.224900	0.364300
C781	C78	0.461600	0.260400	0.461500
C791	C79	0.098100	0.375600	0.348400
C801	C80	0.143400	0.343800	0.423700
H951	H95	0.172300	0.309000	0.394100
H961	H96	0.110500	0.323400	0.470100
C811	C81	0.187100	0.460100	0.617400
C821	C82	0.153300	0.438800	0.525500
H971	H97	0.149400	0.476900	0.483500
H981	H98	0.103500	0.423400	0.538400
C831	C83	0.320900	0.421800	0.444900
C841	C84	0.246000	0.414300	0.406200
H991	H99	0.248000	0.385800	0.350200
H1001	H100	0.228400	0.457100	0.385000
C851	C85	0.899500	0.629600	0.341700
C861	C86	0.859400	0.663800	0.422100
H1011	H101	0.829800	0.699100	0.395100
H1021	H102	0.895500	0.683600	0.464900
C871	C87	0.831400	0.552000	0.623000
C881	C88	0.854200	0.568600	0.523200
H1031	H103	0.850300	0.529300	0.483900
H1041	H104	0.905900	0.581500	0.524200
C891	C89	0.684500	0.583000	0.472300
C901	C90	0.752900	0.597200	0.417500
H1051	H105	0.742100	0.629900	0.368500
H1061	H106	0.768900	0.557300	0.385100
C911	C91	0.646700	0.912600	0.345100
C921	C92	0.677500	0.870400	0.422600
H1071	H107	0.706300	0.897700	0.466000
H1081	H108	0.710700	0.838300	0.394000
C931	C93	0.550700	0.867300	0.623700
C941	C94	0.569500	0.881200	0.523100
H1091	H109	0.590000	0.925400	0.519600
H1101	H110	0.524200	0.881100	0.485700
C951	C95	0.550900	0.734500	0.474400
C961	C96	0.585200	0.787700	0.417200
H1111	H111	0.547400	0.809500	0.379200
H1121	H112	0.621000	0.768700	0.373100
