data_CUMKIG_freeONLY_PM
_symmetry_space_group_name_H-M	'P1'
_cell_length_a	9.307800
_cell_length_b	9.993800
_cell_length_c	13.264700
_cell_angle_alpha	78.154000
_cell_angle_beta	73.742000
_cell_angle_gamma	82.751000
_symmetry_Int_Tables_number 1

loop_
_symmetry_equiv_pos_as_xyz
'x,y,z'

loop_
_atom_site_label
_atom_site_type_symbol
_atom_site_fract_x
_atom_site_fract_y
_atom_site_fract_z
C11	C1	0.177300	0.305800	0.651400
H11	H1	0.265900	0.305300	0.597200
C21	C2	0.166400	0.261600	0.756400
H21	H2	0.244700	0.227100	0.787400
C31	C3	0.946000	0.330600	0.733000
H31	H3	0.842700	0.350100	0.747600
C41	C4	0.955300	0.259500	0.924400
H41	H4	0.004100	0.178600	0.958900
H51	H5	0.849100	0.246200	0.941500
C51	C5	0.976700	0.383000	0.965100
C61	C6	0.887500	0.503500	0.951300
H61	H6	0.810500	0.506600	0.918600
C71	C7	0.090100	0.381900	0.015200
H71	H7	0.151400	0.302200	0.026000
C81	C8	0.358900	0.512400	0.416100
H81	H8	0.360100	0.572000	0.461300
C91	C9	0.481100	0.465100	0.345200
H91	H9	0.579900	0.485200	0.333700
C101	C10	0.282700	0.380600	0.336200
H101	H10	0.221600	0.330400	0.315500
C111	C11	0.518100	0.323400	0.201000
H111	H11	0.480800	0.235700	0.204400
H121	H12	0.622500	0.307300	0.202400
C121	C12	0.506700	0.417200	0.097500
C131	C13	0.496400	0.559300	0.085400
H131	H13	0.493100	0.599900	0.143200
C141	C14	0.508900	0.358900	0.011500
H141	H14	0.514000	0.264100	0.018600
C151	C15	0.081100	0.647200	0.666800
H151	H15	0.063400	0.571900	0.721800
C161	C16	0.118700	0.769100	0.675500
H161	H16	0.131600	0.793600	0.736100
C171	C17	0.106600	0.774500	0.513400
H171	H17	0.110800	0.805900	0.441700
C181	C18	0.178900	0.992100	0.545300
H181	H18	0.129400	0.042900	0.602000
H191	H19	0.146600	0.035800	0.482100
C191	C19	0.345400	0.997000	0.522400
C201	C20	0.411800	0.999100	0.602500
H201	H20	0.353000	0.998200	0.672000
C211	C21	0.434300	0.997500	0.420000
H211	H21	0.390400	0.995500	0.365500
N11	N1	0.037800	0.351700	0.636700
N21	N2	0.019300	0.277500	0.807800
N31	N3	0.233600	0.458400	0.410400
N41	N4	0.431300	0.383100	0.294700
N51	N5	0.072800	0.650100	0.564800
N61	N6	0.133800	0.849400	0.577200
C221	C22	0.822700	0.694200	0.348600
H221	H22	0.734100	0.694700	0.402800
C231	C23	0.833600	0.738400	0.243600
H231	H23	0.755300	0.772900	0.212600
C241	C24	0.054000	0.669400	0.267000
H241	H24	0.157300	0.649900	0.252400
C251	C25	0.044700	0.740500	0.075600
H251	H25	0.995900	0.821400	0.041100
H261	H26	0.150900	0.753800	0.058500
C261	C26	0.023300	0.617000	0.034900
C271	C27	0.112500	0.496500	0.048700
H271	H27	0.189500	0.493400	0.081400
C281	C28	0.909900	0.618100	0.984800
H281	H28	0.848600	0.697800	0.974000
C291	C29	0.641100	0.487600	0.583900
H291	H29	0.639900	0.428000	0.538700
C301	C30	0.518900	0.534900	0.654800
H301	H30	0.420100	0.514800	0.666300
C311	C31	0.717300	0.619400	0.663800
H311	H31	0.778400	0.669600	0.684500
C321	C32	0.481900	0.676600	0.799000
H321	H32	0.519200	0.764300	0.795600
H331	H33	0.377500	0.692700	0.797600
C331	C33	0.493300	0.582800	0.902500
C341	C34	0.503600	0.440700	0.914600
H341	H34	0.506900	0.400100	0.856800
C351	C35	0.491100	0.641100	0.988500
H351	H35	0.486000	0.735900	0.981400
C361	C36	0.918900	0.352800	0.333200
H361	H36	0.936600	0.428100	0.278200
C371	C37	0.881300	0.230900	0.324500
H371	H37	0.868400	0.206400	0.263900
C381	C38	0.893400	0.225500	0.486600
H381	H38	0.889200	0.194100	0.558300
C391	C39	0.821100	0.007900	0.454700
H391	H39	0.870600	0.957100	0.398000
H401	H40	0.853400	0.964200	0.517900
C401	C40	0.654600	0.003000	0.477600
C411	C41	0.588200	0.000900	0.397500
H411	H41	0.647000	0.001800	0.328000
C421	C42	0.565700	0.002500	0.580000
H421	H42	0.609600	0.004500	0.634500
N71	N7	0.962200	0.648300	0.363300
N81	N8	0.980700	0.722500	0.192200
N91	N9	0.766400	0.541600	0.589600
N101	N10	0.568700	0.616900	0.705300
N111	N11	0.927200	0.349900	0.435200
N121	N12	0.866200	0.150600	0.422800
Co11	Co1	0.000000	0.500000	0.500000
