data_CUNQUZ_freeONLY_PM
_symmetry_space_group_name_H-M	'P1'
_cell_length_a	5.633900
_cell_length_b	15.942800
_cell_length_c	9.618300
_cell_angle_alpha	90.000000
_cell_angle_beta	91.115600
_cell_angle_gamma	90.000000
_symmetry_Int_Tables_number 1

loop_
_symmetry_equiv_pos_as_xyz
'x,y,z'

loop_
_atom_site_label
_atom_site_type_symbol
_atom_site_fract_x
_atom_site_fract_y
_atom_site_fract_z
Cd11	Cd1	0.298080	0.331750	0.937410
P11	P1	0.307500	0.196030	0.650100
O11	O1	0.363800	0.226200	0.797300
O21	O2	0.492100	0.224400	0.548400
O31	O3	0.056200	0.219600	0.607400
O41	O4	0.313100	0.096300	0.657900
H11	H1	0.448000	0.079600	0.643400
O51	O5	0.575900	0.428800	0.868400
O61	O6	0.745700	0.549700	0.928000
O71	O7	0.014100	0.372600	0.761600
H21	H2	0.884400	0.386400	0.799300
H31	H3	0.989600	0.331700	0.706600
C11	C1	0.592400	0.493900	0.941100
Cd21	Cd2	0.201920	0.831750	0.562590
P21	P2	0.192500	0.696030	0.849900
O81	O8	0.136200	0.726200	0.702700
O91	O9	0.007900	0.724400	0.951600
O101	O10	0.443800	0.719600	0.892600
O111	O11	0.186900	0.596300	0.842100
H41	H4	0.052000	0.579600	0.856600
O121	O12	0.924100	0.928800	0.631600
O131	O13	0.754300	0.049700	0.572000
O141	O14	0.485900	0.872600	0.738400
H51	H5	0.615600	0.886400	0.700700
H61	H6	0.510400	0.831700	0.793400
C21	C2	0.907600	0.993900	0.558900
Cd31	Cd3	0.701920	0.668250	0.062590
P31	P3	0.692500	0.803970	0.349900
O151	O15	0.636200	0.773800	0.202700
O161	O16	0.507900	0.775600	0.451600
O171	O17	0.943800	0.780400	0.392600
O181	O18	0.686900	0.903700	0.342100
H71	H7	0.552000	0.920400	0.356600
O191	O19	0.424100	0.571200	0.131600
O201	O20	0.254300	0.450300	0.072000
O211	O21	0.985900	0.627400	0.238400
H81	H8	0.115600	0.613600	0.200700
H91	H9	0.010400	0.668300	0.293400
C31	C3	0.407600	0.506100	0.058900
Cd41	Cd4	0.798080	0.168250	0.437410
P41	P4	0.807500	0.303970	0.150100
O221	O22	0.863800	0.273800	0.297300
O231	O23	0.992100	0.275600	0.048400
O241	O24	0.556200	0.280400	0.107400
O251	O25	0.813100	0.403700	0.157900
H101	H10	0.948000	0.420400	0.143400
O261	O26	0.075900	0.071200	0.368400
O271	O27	0.245700	0.950300	0.428000
O281	O28	0.514100	0.127400	0.261600
H111	H11	0.384400	0.113600	0.299300
H121	H12	0.489600	0.168300	0.206600
C41	C4	0.092400	0.006100	0.441100
