data_CUNWEO_freeONLY_PM
_symmetry_space_group_name_H-M	'P1'
_cell_length_a	8.393000
_cell_length_b	18.742100
_cell_length_c	22.235100
_cell_angle_alpha	90.000000
_cell_angle_beta	90.000000
_cell_angle_gamma	94.031000
_symmetry_Int_Tables_number 1

loop_
_symmetry_equiv_pos_as_xyz
'x,y,z'

loop_
_atom_site_label
_atom_site_type_symbol
_atom_site_fract_x
_atom_site_fract_y
_atom_site_fract_z
Cd11	Cd1	0.684240	0.012880	0.443040
Cd21	Cd2	0.315760	0.487120	0.943040
Cd31	Cd3	0.315760	0.987120	0.556960
Cd41	Cd4	0.684240	0.512880	0.056960
H11	H1	0.058000	0.167200	0.453300
H21	H2	0.999200	0.253400	0.380200
H31	H3	0.487300	0.142800	0.374200
H41	H4	0.415300	0.505100	0.158900
H51	H5	0.305500	0.433800	0.236000
H61	H6	0.549600	0.272200	0.167800
H71	H7	0.655500	0.351500	0.096400
H81	H8	0.132000	0.026000	0.305800
H91	H9	0.293700	0.068800	0.224200
H101	H10	0.797900	0.164800	0.264900
H111	H11	0.317600	0.319100	0.959900
H121	H12	0.252100	0.226700	0.026700
H131	H13	0.037100	0.369700	0.131400
H141	H14	0.109600	0.454700	0.061400
H151	H15	0.942000	0.332800	0.953300
H161	H16	0.000800	0.246600	0.880200
H171	H17	0.512700	0.357200	0.874200
H181	H18	0.584700	0.994900	0.658900
H191	H19	0.694500	0.066200	0.736000
H201	H20	0.450400	0.227800	0.667800
H211	H21	0.344500	0.148500	0.596400
H221	H22	0.868000	0.474000	0.805800
H231	H23	0.706300	0.431200	0.724200
H241	H24	0.202100	0.335200	0.764900
H251	H25	0.682400	0.180900	0.459900
H261	H26	0.747900	0.273300	0.526700
H271	H27	0.962900	0.130300	0.631400
H281	H28	0.890400	0.045300	0.561400
H291	H29	0.942000	0.832800	0.546700
H301	H30	0.000800	0.746600	0.619800
H311	H31	0.512700	0.857200	0.625800
H321	H32	0.584700	0.494900	0.841100
H331	H33	0.694500	0.566200	0.764000
H341	H34	0.450400	0.727800	0.832200
H351	H35	0.344500	0.648500	0.903600
H361	H36	0.868000	0.974000	0.694200
H371	H37	0.706300	0.931200	0.775800
H381	H38	0.202100	0.835200	0.735100
H391	H39	0.682400	0.680900	0.040100
H401	H40	0.747900	0.773300	0.973300
H411	H41	0.962900	0.630300	0.868600
H421	H42	0.890400	0.545300	0.938600
H431	H43	0.058000	0.667200	0.046700
H441	H44	0.999200	0.753400	0.119800
H451	H45	0.487300	0.642800	0.125800
H461	H46	0.415300	0.005100	0.341100
H471	H47	0.305500	0.933800	0.264000
H481	H48	0.549600	0.772200	0.332200
H491	H49	0.655500	0.851500	0.403600
H501	H50	0.132000	0.526000	0.194200
H511	H51	0.293700	0.568800	0.275800
H521	H52	0.797900	0.664800	0.235100
H531	H53	0.317600	0.819100	0.540100
H541	H54	0.252100	0.726700	0.473300
H551	H55	0.037100	0.869700	0.368600
H561	H56	0.109600	0.954700	0.438600
C11	C1	0.306400	0.090200	0.465800
C21	C2	0.275400	0.147000	0.419900
C31	C3	0.132900	0.179800	0.422400
C41	C4	0.098100	0.231700	0.379600
C51	C5	0.211000	0.249700	0.337300
C61	C6	0.353900	0.218000	0.336000
C71	C7	0.389600	0.165300	0.376200
C81	C8	0.451400	0.248300	0.285700
C91	C9	0.209900	0.301800	0.286500
C101	C10	0.443800	0.457000	0.161600
C111	C11	0.376400	0.415300	0.207600
C121	C12	0.417700	0.344700	0.210100
C131	C13	0.521300	0.320400	0.167600
C141	C14	0.582100	0.367900	0.124900
C151	C15	0.856800	0.064000	0.346700
C161	C16	0.953800	0.091400	0.293400
C171	C17	0.097700	0.063300	0.281100
C181	C18	0.195200	0.088500	0.233100
C191	C19	0.139000	0.144100	0.199300
C201	C20	0.994100	0.171200	0.211800
C211	C21	0.898400	0.146100	0.257500
C221	C22	0.216300	0.183300	0.148200
C231	C23	0.970400	0.229800	0.167500
C241	C24	0.262000	0.329300	0.995700
C251	C25	0.223700	0.273800	0.035200
C261	C26	0.142500	0.288900	0.087900
C271	C27	0.097000	0.357800	0.097000
C281	C28	0.141300	0.407600	0.054800
C291	C29	0.693600	0.409800	0.965800
C301	C30	0.724600	0.353000	0.919900
C311	C31	0.867100	0.320200	0.922400
C321	C32	0.901900	0.268300	0.879600
C331	C33	0.789000	0.250300	0.837300
C341	C34	0.646100	0.282000	0.836000
C351	C35	0.610400	0.334700	0.876200
C361	C36	0.548600	0.251700	0.785700
C371	C37	0.790100	0.198200	0.786500
C381	C38	0.556200	0.043000	0.661600
C391	C39	0.623600	0.084700	0.707600
C401	C40	0.582300	0.155300	0.710100
C411	C41	0.478700	0.179600	0.667600
C421	C42	0.417900	0.132100	0.624900
C431	C43	0.143200	0.436000	0.846700
C441	C44	0.046200	0.408600	0.793400
C451	C45	0.902300	0.436700	0.781100
C461	C46	0.804800	0.411500	0.733100
C471	C47	0.861000	0.355900	0.699300
C481	C48	0.005900	0.328800	0.711800
C491	C49	0.101600	0.353900	0.757500
C501	C50	0.783700	0.316700	0.648200
C511	C51	0.029600	0.270200	0.667500
C521	C52	0.738000	0.170700	0.495700
C531	C53	0.776300	0.226200	0.535200
C541	C54	0.857500	0.211100	0.587900
C551	C55	0.903000	0.142200	0.597000
C561	C56	0.858700	0.092400	0.554800
C571	C57	0.693600	0.909800	0.534200
C581	C58	0.724600	0.853000	0.580100
C591	C59	0.867100	0.820200	0.577600
C601	C60	0.901900	0.768300	0.620400
C611	C61	0.789000	0.750300	0.662700
C621	C62	0.646100	0.782000	0.664000
C631	C63	0.610400	0.834700	0.623800
C641	C64	0.548600	0.751700	0.714300
C651	C65	0.790100	0.698200	0.713500
C661	C66	0.556200	0.543000	0.838400
C671	C67	0.623600	0.584700	0.792400
C681	C68	0.582300	0.655300	0.789900
C691	C69	0.478700	0.679600	0.832400
C701	C70	0.417900	0.632100	0.875100
C711	C71	0.143200	0.936000	0.653300
C721	C72	0.046200	0.908600	0.706600
C731	C73	0.902300	0.936700	0.718900
C741	C74	0.804800	0.911500	0.766900
C751	C75	0.861000	0.855900	0.800700
C761	C76	0.005900	0.828800	0.788200
C771	C77	0.101600	0.853900	0.742500
C781	C78	0.783700	0.816700	0.851800
C791	C79	0.029600	0.770200	0.832500
C801	C80	0.738000	0.670700	0.004300
C811	C81	0.776300	0.726200	0.964800
C821	C82	0.857500	0.711100	0.912100
C831	C83	0.903000	0.642200	0.903000
C841	C84	0.858700	0.592400	0.945200
C851	C85	0.306400	0.590200	0.034200
C861	C86	0.275400	0.647000	0.080100
C871	C87	0.132900	0.679800	0.077600
C881	C88	0.098100	0.731700	0.120400
C891	C89	0.211000	0.749700	0.162700
C901	C90	0.353900	0.718000	0.164000
C911	C91	0.389600	0.665300	0.123800
C921	C92	0.451400	0.748300	0.214300
C931	C93	0.209900	0.801800	0.213500
C941	C94	0.443800	0.957000	0.338400
C951	C95	0.376400	0.915300	0.292400
C961	C96	0.417700	0.844700	0.289900
C971	C97	0.521300	0.820400	0.332400
C981	C98	0.582100	0.867900	0.375100
C991	C99	0.856800	0.564000	0.153300
C1001	C100	0.953800	0.591400	0.206600
C1011	C101	0.097700	0.563300	0.218900
C1021	C102	0.195200	0.588500	0.266900
C1031	C103	0.139000	0.644100	0.300700
C1041	C104	0.994100	0.671200	0.288200
C1051	C105	0.898400	0.646100	0.242500
C1061	C106	0.216300	0.683300	0.351800
C1071	C107	0.970400	0.729800	0.332500
C1081	C108	0.262000	0.829300	0.504300
C1091	C109	0.223700	0.773800	0.464800
C1101	C110	0.142500	0.788900	0.412100
C1111	C111	0.097000	0.857800	0.403000
C1121	C112	0.141300	0.907600	0.445200
N11	N1	0.544500	0.435100	0.121300
N21	N2	0.359100	0.299100	0.257200
N31	N3	0.110200	0.235600	0.131800
N41	N4	0.224600	0.397100	0.005300
N51	N5	0.455500	0.064900	0.621300
N61	N6	0.640900	0.200900	0.757200
N71	N7	0.889800	0.264400	0.631800
N81	N8	0.775400	0.102900	0.505300
N91	N9	0.455500	0.564900	0.878700
N101	N10	0.640900	0.700900	0.742800
N111	N11	0.889800	0.764400	0.868200
N121	N12	0.775400	0.602900	0.994700
N131	N13	0.544500	0.935100	0.378700
N141	N14	0.359100	0.799100	0.242800
N151	N15	0.110200	0.735600	0.368200
N161	N16	0.224600	0.897100	0.494700
O11	O1	0.429400	0.056200	0.459850
O21	O2	0.206700	0.078500	0.506700
O31	O3	0.106300	0.338800	0.270200
O41	O4	0.584900	0.235800	0.271300
O51	O5	0.728100	0.091600	0.359220
O61	O6	0.909700	0.013700	0.376900
O71	O7	0.856000	0.263800	0.160500
O81	O8	0.342700	0.174600	0.124000
O91	O9	0.570600	0.443800	0.959850
O101	O10	0.793300	0.421500	0.006700
O111	O11	0.893700	0.161200	0.770200
O121	O12	0.415100	0.264200	0.771300
O131	O13	0.271900	0.408400	0.859220
O141	O14	0.090300	0.486300	0.876900
O151	O15	0.144000	0.236200	0.660500
O161	O16	0.657300	0.325400	0.624000
O171	O17	0.570600	0.943800	0.540150
O181	O18	0.793300	0.921500	0.493300
O191	O19	0.893700	0.661200	0.729800
O201	O20	0.415100	0.764200	0.728700
O211	O21	0.271900	0.908400	0.640780
O221	O22	0.090300	0.986300	0.623100
O231	O23	0.144000	0.736200	0.839500
O241	O24	0.657300	0.825400	0.876000
O251	O25	0.429400	0.556200	0.040150
O261	O26	0.206700	0.578500	0.993300
O271	O27	0.106300	0.838800	0.229800
O281	O28	0.584900	0.735800	0.228700
O291	O29	0.728100	0.591600	0.140780
O301	O30	0.909700	0.513700	0.123100
O311	O31	0.856000	0.763800	0.339500
O321	O32	0.342700	0.674600	0.376000
