data_CUQDOH_freeONLY_PM
_symmetry_space_group_name_H-M	'P1'
_cell_length_a	37.951000
_cell_length_b	8.047000
_cell_length_c	20.882000
_cell_angle_alpha	90.000000
_cell_angle_beta	93.720000
_cell_angle_gamma	90.000000
_symmetry_Int_Tables_number 1

loop_
_symmetry_equiv_pos_as_xyz
'x,y,z'

loop_
_atom_site_label
_atom_site_type_symbol
_atom_site_fract_x
_atom_site_fract_y
_atom_site_fract_z
C11	C1	0.670500	0.550000	0.185000
C21	C2	0.704900	0.487000	0.185800
C31	C3	0.724700	0.502000	0.134200
C41	C4	0.712300	0.584000	0.079300
C51	C5	0.677900	0.653200	0.078300
C61	C6	0.657100	0.637200	0.131000
C71	C7	0.656800	0.068000	0.025200
C81	C8	0.645700	0.207000	0.056100
C91	C9	0.626200	0.193000	0.110800
C101	C10	0.617700	0.039000	0.133600
C111	C11	0.628500	0.896100	0.102600
C121	C12	0.648100	0.911800	0.048400
C131	C13	0.612100	0.589000	0.948000
C141	C14	0.579200	0.508000	0.942900
C151	C15	0.559000	0.493000	0.997200
C161	C16	0.571800	0.556700	0.056300
C171	C17	0.604000	0.634800	0.061000
C181	C18	0.624200	0.652500	0.007500
C191	C19	0.621100	0.717600	0.121100
C201	C20	0.658800	0.745600	0.021800
C211	C21	0.539300	0.045800	0.918500
C221	C22	0.555500	0.971000	0.974600
C231	C23	0.540300	0.978000	0.029200
C241	C24	0.507600	0.057000	0.035200
C251	C25	0.490900	0.128300	0.981500
C261	C26	0.507000	0.126500	0.923000
C271	C27	0.486500	0.535000	0.864500
C281	C28	0.478200	0.684000	0.893100
C291	C29	0.462600	0.684000	0.950100
C301	C30	0.453100	0.535000	0.981000
C311	C31	0.461400	0.387800	0.951800
C321	C32	0.477700	0.385000	0.894300
C331	C33	0.434900	0.036000	0.812500
C341	C34	0.402200	0.955000	0.819400
C351	C35	0.386100	0.959000	0.876900
C361	C36	0.401800	0.044100	0.928800
C371	C37	0.433700	0.121300	0.923500
C381	C38	0.449500	0.122400	0.866000
C391	C39	0.455300	0.213700	0.976500
C401	C40	0.484700	0.210900	0.870100
C411	C41	0.375600	0.562000	0.717800
C421	C42	0.398600	0.489000	0.765200
C431	C43	0.388400	0.474000	0.826300
C441	C44	0.355200	0.537200	0.842800
C451	C45	0.333600	0.611200	0.796800
C461	C46	0.343600	0.624600	0.733900
C471	C47	0.316400	0.038000	0.694300
C481	C48	0.310300	0.184100	0.731400
C491	C49	0.300100	0.169000	0.793500
C501	C50	0.295400	0.011000	0.819400
C511	C51	0.301100	0.871700	0.784000
C521	C52	0.311400	0.884400	0.721000
C531	C53	0.261700	0.555000	0.642900
C541	C54	0.231300	0.470000	0.657300
C551	C55	0.220800	0.453000	0.719700
C561	C56	0.241600	0.519200	0.771800
C571	C57	0.272100	0.608100	0.756800
C581	C58	0.281900	0.622700	0.693900
C591	C59	0.297500	0.692300	0.806200
C601	C60	0.316400	0.715200	0.689500
Ag11	Ag1	0.697500	0.761680	0.254300
Ag21	Ag2	0.594600	0.219840	0.977400
Ag31	Ag3	0.373600	0.194130	0.767600
Cl11	Cl1	0.705000	0.540200	0.389200
Cl21	Cl2	0.628900	0.062100	0.829300
Cl31	Cl3	0.409600	0.050500	0.622500
O11	O1	0.723600	0.658000	0.355500
O21	O2	0.676700	0.476000	0.341900
O31	O3	0.687800	0.603000	0.442500
O41	O4	0.727800	0.411000	0.409000
O51	O5	0.618200	0.181000	0.873600
O61	O6	0.665200	0.992000	0.857000
O71	O7	0.604700	0.946000	0.811000
O81	O8	0.640000	0.125000	0.774900
O91	O9	0.398500	0.179000	0.662500
O101	O10	0.433700	0.948000	0.654000
O111	O11	0.381500	0.963000	0.593000
O121	O12	0.426800	0.111000	0.573600
H11	H1	0.656000	0.532400	0.220500
H21	H2	0.714500	0.428600	0.223700
H31	H3	0.748000	0.461800	0.136600
H41	H4	0.726500	0.589800	0.041300
H51	H5	0.670600	0.076600	0.987800
H61	H6	0.651300	0.316300	0.041000
H71	H7	0.618500	0.291100	0.131200
H81	H8	0.603700	0.028400	0.170100
H91	H9	0.626200	0.602200	0.910300
H101	H10	0.570300	0.461100	0.901700
H111	H11	0.535700	0.439500	0.992700
H121	H12	0.558100	0.547300	0.093700
H131	H13	0.607200	0.708800	0.157300
H141	H14	0.672700	0.755700	0.985000
H151	H15	0.549900	0.038600	0.877900
H161	H16	0.577600	0.913600	0.971700
H171	H17	0.551700	0.923700	0.066500
H181	H18	0.496000	0.057000	0.074700
H191	H19	0.498500	0.533900	0.824600
H201	H20	0.483000	0.787900	0.873400
H211	H21	0.457000	0.788100	0.968100
H221	H22	0.441600	0.536300	0.020300
H231	H23	0.446200	0.033100	0.771800
H241	H24	0.391400	0.895400	0.782800
H251	H25	0.363600	0.904500	0.880200
H261	H26	0.390400	0.048500	0.968400
H271	H27	0.444200	0.214900	0.016200
H281	H28	0.495700	0.211500	0.829600
H291	H29	0.382100	0.566500	0.673000
H301	H30	0.421900	0.451700	0.755100
H311	H31	0.403700	0.420000	0.858500
H321	H32	0.347900	0.526700	0.885600
H331	H33	0.324200	0.048000	0.651200
H341	H34	0.312800	0.291300	0.713000
H351	H35	0.296500	0.264200	0.818700
H361	H36	0.287800	0.001700	0.862300
H371	H37	0.268900	0.561200	0.598200
H381	H38	0.216200	0.421800	0.623000
H391	H39	0.199000	0.397100	0.726400
H401	H40	0.235100	0.504600	0.815300
H411	H41	0.290500	0.681900	0.849500
H421	H42	0.323600	0.724300	0.645800
C611	C61	0.170500	0.050000	0.185000
C621	C62	0.204900	0.987000	0.185800
C631	C63	0.224700	0.002000	0.134200
C641	C64	0.212300	0.084000	0.079300
C651	C65	0.177900	0.153200	0.078300
C661	C66	0.157100	0.137200	0.131000
C671	C67	0.156800	0.568000	0.025200
C681	C68	0.145700	0.707000	0.056100
C691	C69	0.126200	0.693000	0.110800
C701	C70	0.117700	0.539000	0.133600
C711	C71	0.128500	0.396100	0.102600
C721	C72	0.148100	0.411800	0.048400
C731	C73	0.112100	0.089000	0.948000
C741	C74	0.079200	0.008000	0.942900
C751	C75	0.059000	0.993000	0.997200
C761	C76	0.071800	0.056700	0.056300
C771	C77	0.104000	0.134800	0.061000
C781	C78	0.124200	0.152500	0.007500
C791	C79	0.121100	0.217600	0.121100
C801	C80	0.158800	0.245600	0.021800
C811	C81	0.039300	0.545800	0.918500
C821	C82	0.055500	0.471000	0.974600
C831	C83	0.040300	0.478000	0.029200
C841	C84	0.007600	0.557000	0.035200
C851	C85	0.990900	0.628300	0.981500
C861	C86	0.007000	0.626500	0.923000
C871	C87	0.986500	0.035000	0.864500
C881	C88	0.978200	0.184000	0.893100
C891	C89	0.962600	0.184000	0.950100
C901	C90	0.953100	0.035000	0.981000
C911	C91	0.961400	0.887800	0.951800
C921	C92	0.977700	0.885000	0.894300
C931	C93	0.934900	0.536000	0.812500
C941	C94	0.902200	0.455000	0.819400
C951	C95	0.886100	0.459000	0.876900
C961	C96	0.901800	0.544100	0.928800
C971	C97	0.933700	0.621300	0.923500
C981	C98	0.949500	0.622400	0.866000
C991	C99	0.955300	0.713700	0.976500
C1001	C100	0.984700	0.710900	0.870100
C1011	C101	0.875600	0.062000	0.717800
C1021	C102	0.898600	0.989000	0.765200
C1031	C103	0.888400	0.974000	0.826300
C1041	C104	0.855200	0.037200	0.842800
C1051	C105	0.833600	0.111200	0.796800
C1061	C106	0.843600	0.124600	0.733900
C1071	C107	0.816400	0.538000	0.694300
C1081	C108	0.810300	0.684100	0.731400
C1091	C109	0.800100	0.669000	0.793500
C1101	C110	0.795400	0.511000	0.819400
C1111	C111	0.801100	0.371700	0.784000
C1121	C112	0.811400	0.384400	0.721000
C1131	C113	0.761700	0.055000	0.642900
C1141	C114	0.731300	0.970000	0.657300
C1151	C115	0.720800	0.953000	0.719700
C1161	C116	0.741600	0.019200	0.771800
C1171	C117	0.772100	0.108100	0.756800
C1181	C118	0.781900	0.122700	0.693900
C1191	C119	0.797500	0.192300	0.806200
C1201	C120	0.816400	0.215200	0.689500
Ag41	Ag4	0.197500	0.261680	0.254300
Ag51	Ag5	0.094600	0.719840	0.977400
Ag61	Ag6	0.873600	0.694130	0.767600
Cl41	Cl4	0.205000	0.040200	0.389200
Cl51	Cl5	0.128900	0.562100	0.829300
Cl61	Cl6	0.909600	0.550500	0.622500
O131	O13	0.223600	0.158000	0.355500
O141	O14	0.176700	0.976000	0.341900
O151	O15	0.187800	0.103000	0.442500
O161	O16	0.227800	0.911000	0.409000
O171	O17	0.118200	0.681000	0.873600
O181	O18	0.165200	0.492000	0.857000
O191	O19	0.104700	0.446000	0.811000
O201	O20	0.140000	0.625000	0.774900
O211	O21	0.898500	0.679000	0.662500
O221	O22	0.933700	0.448000	0.654000
O231	O23	0.881500	0.463000	0.593000
O241	O24	0.926800	0.611000	0.573600
H431	H43	0.156000	0.032400	0.220500
H441	H44	0.214500	0.928600	0.223700
H451	H45	0.248000	0.961800	0.136600
H461	H46	0.226500	0.089800	0.041300
H471	H47	0.170600	0.576600	0.987800
H481	H48	0.151300	0.816300	0.041000
H491	H49	0.118500	0.791100	0.131200
H501	H50	0.103700	0.528400	0.170100
H511	H51	0.126200	0.102200	0.910300
H521	H52	0.070300	0.961100	0.901700
H531	H53	0.035700	0.939500	0.992700
H541	H54	0.058100	0.047300	0.093700
H551	H55	0.107200	0.208800	0.157300
H561	H56	0.172700	0.255700	0.985000
H571	H57	0.049900	0.538600	0.877900
H581	H58	0.077600	0.413600	0.971700
H591	H59	0.051700	0.423700	0.066500
H601	H60	0.996000	0.557000	0.074700
H611	H61	0.998500	0.033900	0.824600
H621	H62	0.983000	0.287900	0.873400
H631	H63	0.957000	0.288100	0.968100
H641	H64	0.941600	0.036300	0.020300
H651	H65	0.946200	0.533100	0.771800
H661	H66	0.891400	0.395400	0.782800
H671	H67	0.863600	0.404500	0.880200
H681	H68	0.890400	0.548500	0.968400
H691	H69	0.944200	0.714900	0.016200
H701	H70	0.995700	0.711500	0.829600
H711	H71	0.882100	0.066500	0.673000
H721	H72	0.921900	0.951700	0.755100
H731	H73	0.903700	0.920000	0.858500
H741	H74	0.847900	0.026700	0.885600
H751	H75	0.824200	0.548000	0.651200
H761	H76	0.812800	0.791300	0.713000
H771	H77	0.796500	0.764200	0.818700
H781	H78	0.787800	0.501700	0.862300
H791	H79	0.768900	0.061200	0.598200
H801	H80	0.716200	0.921800	0.623000
H811	H81	0.699000	0.897100	0.726400
H821	H82	0.735100	0.004600	0.815300
H831	H83	0.790500	0.181900	0.849500
H841	H84	0.823600	0.224300	0.645800
C1211	C121	0.670500	0.450000	0.685000
C1221	C122	0.704900	0.513000	0.685800
C1231	C123	0.724700	0.498000	0.634200
C1241	C124	0.712300	0.416000	0.579300
C1251	C125	0.677900	0.346800	0.578300
C1261	C126	0.657100	0.362800	0.631000
C1271	C127	0.656800	0.932000	0.525200
C1281	C128	0.645700	0.793000	0.556100
C1291	C129	0.626200	0.807000	0.610800
C1301	C130	0.617700	0.961000	0.633600
C1311	C131	0.628500	0.103900	0.602600
C1321	C132	0.648100	0.088200	0.548400
C1331	C133	0.612100	0.411000	0.448000
C1341	C134	0.579200	0.492000	0.442900
C1351	C135	0.559000	0.507000	0.497200
C1361	C136	0.571800	0.443300	0.556300
C1371	C137	0.604000	0.365200	0.561000
C1381	C138	0.624200	0.347500	0.507500
C1391	C139	0.621100	0.282400	0.621100
C1401	C140	0.658800	0.254400	0.521800
C1411	C141	0.539300	0.954200	0.418500
C1421	C142	0.555500	0.029000	0.474600
C1431	C143	0.540300	0.022000	0.529200
C1441	C144	0.507600	0.943000	0.535200
C1451	C145	0.490900	0.871700	0.481500
C1461	C146	0.507000	0.873500	0.423000
C1471	C147	0.486500	0.465000	0.364500
C1481	C148	0.478200	0.316000	0.393100
C1491	C149	0.462600	0.316000	0.450100
C1501	C150	0.453100	0.465000	0.481000
C1511	C151	0.461400	0.612200	0.451800
C1521	C152	0.477700	0.615000	0.394300
C1531	C153	0.434900	0.964000	0.312500
C1541	C154	0.402200	0.045000	0.319400
C1551	C155	0.386100	0.041000	0.376900
C1561	C156	0.401800	0.955900	0.428800
C1571	C157	0.433700	0.878700	0.423500
C1581	C158	0.449500	0.877600	0.366000
C1591	C159	0.455300	0.786300	0.476500
C1601	C160	0.484700	0.789100	0.370100
C1611	C161	0.375600	0.438000	0.217800
C1621	C162	0.398600	0.511000	0.265200
C1631	C163	0.388400	0.526000	0.326300
C1641	C164	0.355200	0.462800	0.342800
C1651	C165	0.333600	0.388800	0.296800
C1661	C166	0.343600	0.375400	0.233900
C1671	C167	0.316400	0.962000	0.194300
C1681	C168	0.310300	0.815900	0.231400
C1691	C169	0.300100	0.831000	0.293500
C1701	C170	0.295400	0.989000	0.319400
C1711	C171	0.301100	0.128300	0.284000
C1721	C172	0.311400	0.115600	0.221000
C1731	C173	0.261700	0.445000	0.142900
C1741	C174	0.231300	0.530000	0.157300
C1751	C175	0.220800	0.547000	0.219700
C1761	C176	0.241600	0.480800	0.271800
C1771	C177	0.272100	0.391900	0.256800
C1781	C178	0.281900	0.377300	0.193900
C1791	C179	0.297500	0.307700	0.306200
C1801	C180	0.316400	0.284800	0.189500
Ag71	Ag7	0.697500	0.238320	0.754300
Ag81	Ag8	0.594600	0.780160	0.477400
Ag91	Ag9	0.373600	0.805870	0.267600
Cl71	Cl7	0.705000	0.459800	0.889200
Cl81	Cl8	0.628900	0.937900	0.329300
Cl91	Cl9	0.409600	0.949500	0.122500
O251	O25	0.723600	0.342000	0.855500
O261	O26	0.676700	0.524000	0.841900
O271	O27	0.687800	0.397000	0.942500
O281	O28	0.727800	0.589000	0.909000
O291	O29	0.618200	0.819000	0.373600
O301	O30	0.665200	0.008000	0.357000
O311	O31	0.604700	0.054000	0.311000
O321	O32	0.640000	0.875000	0.274900
O331	O33	0.398500	0.821000	0.162500
O341	O34	0.433700	0.052000	0.154000
O351	O35	0.381500	0.037000	0.093000
O361	O36	0.426800	0.889000	0.073600
H851	H85	0.656000	0.467600	0.720500
H861	H86	0.714500	0.571400	0.723700
H871	H87	0.748000	0.538200	0.636600
H881	H88	0.726500	0.410200	0.541300
H891	H89	0.670600	0.923400	0.487800
H901	H90	0.651300	0.683700	0.541000
H911	H91	0.618500	0.708900	0.631200
H921	H92	0.603700	0.971600	0.670100
H931	H93	0.626200	0.397800	0.410300
H941	H94	0.570300	0.538900	0.401700
H951	H95	0.535700	0.560500	0.492700
H961	H96	0.558100	0.452700	0.593700
H971	H97	0.607200	0.291200	0.657300
H981	H98	0.672700	0.244300	0.485000
H991	H99	0.549900	0.961400	0.377900
H1001	H100	0.577600	0.086400	0.471700
H1011	H101	0.551700	0.076300	0.566500
H1021	H102	0.496000	0.943000	0.574700
H1031	H103	0.498500	0.466100	0.324600
H1041	H104	0.483000	0.212100	0.373400
H1051	H105	0.457000	0.211900	0.468100
H1061	H106	0.441600	0.463700	0.520300
H1071	H107	0.446200	0.966900	0.271800
H1081	H108	0.391400	0.104600	0.282800
H1091	H109	0.363600	0.095500	0.380200
H1101	H110	0.390400	0.951500	0.468400
H1111	H111	0.444200	0.785100	0.516200
H1121	H112	0.495700	0.788500	0.329600
H1131	H113	0.382100	0.433500	0.173000
H1141	H114	0.421900	0.548300	0.255100
H1151	H115	0.403700	0.580000	0.358500
H1161	H116	0.347900	0.473300	0.385600
H1171	H117	0.324200	0.952000	0.151200
H1181	H118	0.312800	0.708700	0.213000
H1191	H119	0.296500	0.735800	0.318700
H1201	H120	0.287800	0.998300	0.362300
H1211	H121	0.268900	0.438800	0.098200
H1221	H122	0.216200	0.578200	0.123000
H1231	H123	0.199000	0.602900	0.226400
H1241	H124	0.235100	0.495400	0.315300
H1251	H125	0.290500	0.318100	0.349500
H1261	H126	0.323600	0.275700	0.145800
C1811	C181	0.170500	0.950000	0.685000
C1821	C182	0.204900	0.013000	0.685800
C1831	C183	0.224700	0.998000	0.634200
C1841	C184	0.212300	0.916000	0.579300
C1851	C185	0.177900	0.846800	0.578300
C1861	C186	0.157100	0.862800	0.631000
C1871	C187	0.156800	0.432000	0.525200
C1881	C188	0.145700	0.293000	0.556100
C1891	C189	0.126200	0.307000	0.610800
C1901	C190	0.117700	0.461000	0.633600
C1911	C191	0.128500	0.603900	0.602600
C1921	C192	0.148100	0.588200	0.548400
C1931	C193	0.112100	0.911000	0.448000
C1941	C194	0.079200	0.992000	0.442900
C1951	C195	0.059000	0.007000	0.497200
C1961	C196	0.071800	0.943300	0.556300
C1971	C197	0.104000	0.865200	0.561000
C1981	C198	0.124200	0.847500	0.507500
C1991	C199	0.121100	0.782400	0.621100
C2001	C200	0.158800	0.754400	0.521800
C2011	C201	0.039300	0.454200	0.418500
C2021	C202	0.055500	0.529000	0.474600
C2031	C203	0.040300	0.522000	0.529200
C2041	C204	0.007600	0.443000	0.535200
C2051	C205	0.990900	0.371700	0.481500
C2061	C206	0.007000	0.373500	0.423000
C2071	C207	0.986500	0.965000	0.364500
C2081	C208	0.978200	0.816000	0.393100
C2091	C209	0.962600	0.816000	0.450100
C2101	C210	0.953100	0.965000	0.481000
C2111	C211	0.961400	0.112200	0.451800
C2121	C212	0.977700	0.115000	0.394300
C2131	C213	0.934900	0.464000	0.312500
C2141	C214	0.902200	0.545000	0.319400
C2151	C215	0.886100	0.541000	0.376900
C2161	C216	0.901800	0.455900	0.428800
C2171	C217	0.933700	0.378700	0.423500
C2181	C218	0.949500	0.377600	0.366000
C2191	C219	0.955300	0.286300	0.476500
C2201	C220	0.984700	0.289100	0.370100
C2211	C221	0.875600	0.938000	0.217800
C2221	C222	0.898600	0.011000	0.265200
C2231	C223	0.888400	0.026000	0.326300
C2241	C224	0.855200	0.962800	0.342800
C2251	C225	0.833600	0.888800	0.296800
C2261	C226	0.843600	0.875400	0.233900
C2271	C227	0.816400	0.462000	0.194300
C2281	C228	0.810300	0.315900	0.231400
C2291	C229	0.800100	0.331000	0.293500
C2301	C230	0.795400	0.489000	0.319400
C2311	C231	0.801100	0.628300	0.284000
C2321	C232	0.811400	0.615600	0.221000
C2331	C233	0.761700	0.945000	0.142900
C2341	C234	0.731300	0.030000	0.157300
C2351	C235	0.720800	0.047000	0.219700
C2361	C236	0.741600	0.980800	0.271800
C2371	C237	0.772100	0.891900	0.256800
C2381	C238	0.781900	0.877300	0.193900
C2391	C239	0.797500	0.807700	0.306200
C2401	C240	0.816400	0.784800	0.189500
Ag101	Ag10	0.197500	0.738320	0.754300
Ag111	Ag11	0.094600	0.280160	0.477400
Ag121	Ag12	0.873600	0.305870	0.267600
Cl101	Cl10	0.205000	0.959800	0.889200
Cl111	Cl11	0.128900	0.437900	0.329300
Cl121	Cl12	0.909600	0.449500	0.122500
O371	O37	0.223600	0.842000	0.855500
O381	O38	0.176700	0.024000	0.841900
O391	O39	0.187800	0.897000	0.942500
O401	O40	0.227800	0.089000	0.909000
O411	O41	0.118200	0.319000	0.373600
O421	O42	0.165200	0.508000	0.357000
O431	O43	0.104700	0.554000	0.311000
O441	O44	0.140000	0.375000	0.274900
O451	O45	0.898500	0.321000	0.162500
O461	O46	0.933700	0.552000	0.154000
O471	O47	0.881500	0.537000	0.093000
O481	O48	0.926800	0.389000	0.073600
H1271	H127	0.156000	0.967600	0.720500
H1281	H128	0.214500	0.071400	0.723700
H1291	H129	0.248000	0.038200	0.636600
H1301	H130	0.226500	0.910200	0.541300
H1311	H131	0.170600	0.423400	0.487800
H1321	H132	0.151300	0.183700	0.541000
H1331	H133	0.118500	0.208900	0.631200
H1341	H134	0.103700	0.471600	0.670100
H1351	H135	0.126200	0.897800	0.410300
H1361	H136	0.070300	0.038900	0.401700
H1371	H137	0.035700	0.060500	0.492700
H1381	H138	0.058100	0.952700	0.593700
H1391	H139	0.107200	0.791200	0.657300
H1401	H140	0.172700	0.744300	0.485000
H1411	H141	0.049900	0.461400	0.377900
H1421	H142	0.077600	0.586400	0.471700
H1431	H143	0.051700	0.576300	0.566500
H1441	H144	0.996000	0.443000	0.574700
H1451	H145	0.998500	0.966100	0.324600
H1461	H146	0.983000	0.712100	0.373400
H1471	H147	0.957000	0.711900	0.468100
H1481	H148	0.941600	0.963700	0.520300
H1491	H149	0.946200	0.466900	0.271800
H1501	H150	0.891400	0.604600	0.282800
H1511	H151	0.863600	0.595500	0.380200
H1521	H152	0.890400	0.451500	0.468400
H1531	H153	0.944200	0.285100	0.516200
H1541	H154	0.995700	0.288500	0.329600
H1551	H155	0.882100	0.933500	0.173000
H1561	H156	0.921900	0.048300	0.255100
H1571	H157	0.903700	0.080000	0.358500
H1581	H158	0.847900	0.973300	0.385600
H1591	H159	0.824200	0.452000	0.151200
H1601	H160	0.812800	0.208700	0.213000
H1611	H161	0.796500	0.235800	0.318700
H1621	H162	0.787800	0.498300	0.362300
H1631	H163	0.768900	0.938800	0.098200
H1641	H164	0.716200	0.078200	0.123000
H1651	H165	0.699000	0.102900	0.226400
H1661	H166	0.735100	0.995400	0.315300
H1671	H167	0.790500	0.818100	0.349500
H1681	H168	0.823600	0.775700	0.145800
