data_CUQKOQ_freeONLY_PM
_symmetry_space_group_name_H-M	'P1'
_cell_length_a	9.766900
_cell_length_b	19.132100
_cell_length_c	19.139000
_cell_angle_alpha	90.000000
_cell_angle_beta	90.000000
_cell_angle_gamma	90.000000
_symmetry_Int_Tables_number 1

loop_
_symmetry_equiv_pos_as_xyz
'x,y,z'

loop_
_atom_site_label
_atom_site_type_symbol
_atom_site_fract_x
_atom_site_fract_y
_atom_site_fract_z
U11	U1	0.984890	0.234780	0.249130
U21	U2	0.289290	0.003140	0.741850
P11	P1	0.072500	0.107820	0.113750
P21	P2	0.376600	0.124440	0.871580
P31	P3	0.413100	0.127490	0.619740
P41	P4	0.111700	0.109010	0.377790
O11	O1	0.987900	0.051100	0.078900
O21	O2	0.191900	0.077300	0.154400
O31	O3	0.984900	0.155500	0.159500
O41	O4	0.455700	0.179600	0.832300
O51	O5	0.473000	0.073100	0.906100
H11	H1	0.444000	0.033200	0.900600
O61	O6	0.269600	0.089600	0.823800
O71	O7	0.481800	0.181400	0.665600
O81	O8	0.301600	0.086100	0.655700
O91	O9	0.524400	0.079600	0.590000
H21	H2	0.504000	0.038700	0.597400
O101	O10	0.218800	0.077200	0.330300
O111	O11	0.012400	0.155200	0.338100
O121	O12	0.038200	0.053400	0.420200
O131	O13	0.805600	0.225000	0.255900
O141	O14	0.165100	0.242800	0.243200
O151	O15	0.108100	0.000900	0.734300
O161	O16	0.470000	0.005600	0.748300
C11	C1	0.147400	0.160900	0.045900
C21	C2	0.216800	0.128500	0.991100
H31	H3	0.219300	0.079900	0.988700
C31	C3	0.283000	0.168200	0.939500
C41	C4	0.275800	0.239500	0.943700
H41	H4	0.318400	0.266500	0.909600
C51	C5	0.206100	0.272900	0.998000
H51	H5	0.201500	0.321400	0.999800
C61	C6	0.143700	0.232400	0.049500
H61	H6	0.099200	0.254200	0.086600
C71	C7	0.334300	0.170200	0.546200
C81	C8	0.262300	0.131900	0.498200
H71	H7	0.254100	0.083900	0.504700
C91	C9	0.201500	0.162200	0.440800
C101	C10	0.215200	0.235600	0.432400
H81	H8	0.176100	0.257600	0.393900
C111	C11	0.285100	0.273800	0.480200
H91	H9	0.293300	0.321900	0.474100
C121	C12	0.344400	0.242700	0.537800
H101	H10	0.390600	0.269600	0.570700
U31	U3	0.515110	0.765220	0.749130
U41	U4	0.210710	0.996860	0.241850
P51	P5	0.427500	0.892180	0.613750
P61	P6	0.123400	0.875560	0.371580
P71	P7	0.086900	0.872510	0.119740
P81	P8	0.388300	0.890990	0.877790
O171	O17	0.512100	0.948900	0.578900
O181	O18	0.308100	0.922700	0.654400
O191	O19	0.515100	0.844500	0.659500
O201	O20	0.044300	0.820400	0.332300
O211	O21	0.027000	0.926900	0.406100
H111	H11	0.056000	0.966800	0.400600
O221	O22	0.230400	0.910400	0.323800
O231	O23	0.018200	0.818600	0.165600
O241	O24	0.198400	0.913900	0.155700
O251	O25	0.975600	0.920400	0.090000
H121	H12	0.996000	0.961300	0.097400
O261	O26	0.281200	0.922800	0.830300
O271	O27	0.487600	0.844800	0.838100
O281	O28	0.461800	0.946600	0.920200
O291	O29	0.694400	0.775000	0.755900
O301	O30	0.334900	0.757200	0.743200
O311	O31	0.391900	0.999100	0.234300
O321	O32	0.030000	0.994400	0.248300
C131	C13	0.352600	0.839100	0.545900
C141	C14	0.283200	0.871500	0.491100
H131	H13	0.280700	0.920100	0.488700
C151	C15	0.217000	0.831800	0.439500
C161	C16	0.224200	0.760500	0.443700
H141	H14	0.181600	0.733500	0.409600
C171	C17	0.293900	0.727100	0.498000
H151	H15	0.298500	0.678600	0.499800
C181	C18	0.356300	0.767600	0.549500
H161	H16	0.400800	0.745800	0.586600
C191	C19	0.165700	0.829800	0.046200
C201	C20	0.237700	0.868100	0.998200
H171	H17	0.245900	0.916100	0.004700
C211	C21	0.298500	0.837800	0.940800
C221	C22	0.284800	0.764400	0.932400
H181	H18	0.323900	0.742400	0.893900
C231	C23	0.214900	0.726200	0.980200
H191	H19	0.206700	0.678100	0.974100
C241	C24	0.155600	0.757300	0.037800
H201	H20	0.109400	0.730400	0.070700
U51	U5	0.015110	0.734780	0.250870
U61	U6	0.710710	0.503140	0.758150
P91	P9	0.927500	0.607820	0.386250
P101	P10	0.623400	0.624440	0.628420
P111	P11	0.586900	0.627490	0.880260
P121	P12	0.888300	0.609010	0.122210
O331	O33	0.012100	0.551100	0.421100
O341	O34	0.808100	0.577300	0.345600
O351	O35	0.015100	0.655500	0.340500
O361	O36	0.544300	0.679600	0.667700
O371	O37	0.527000	0.573100	0.593900
H211	H21	0.556000	0.533200	0.599400
O381	O38	0.730400	0.589600	0.676200
O391	O39	0.518200	0.681400	0.834400
O401	O40	0.698400	0.586100	0.844300
O411	O41	0.475600	0.579600	0.910000
H221	H22	0.496000	0.538700	0.902600
O421	O42	0.781200	0.577200	0.169700
O431	O43	0.987600	0.655200	0.161900
O441	O44	0.961800	0.553400	0.079800
O451	O45	0.194400	0.725000	0.244100
O461	O46	0.834900	0.742800	0.256800
O471	O47	0.891900	0.500900	0.765700
O481	O48	0.530000	0.505600	0.751700
C251	C25	0.852600	0.660900	0.454100
C261	C26	0.783200	0.628500	0.508900
H231	H23	0.780700	0.579900	0.511300
C271	C27	0.717000	0.668200	0.560500
C281	C28	0.724200	0.739500	0.556300
H241	H24	0.681600	0.766500	0.590400
C291	C29	0.793900	0.772900	0.502000
H251	H25	0.798500	0.821400	0.500200
C301	C30	0.856300	0.732400	0.450500
H261	H26	0.900800	0.754200	0.413400
C311	C31	0.665700	0.670200	0.953800
C321	C32	0.737700	0.631900	0.001800
H271	H27	0.745900	0.583900	0.995300
C331	C33	0.798500	0.662200	0.059200
C341	C34	0.784800	0.735600	0.067600
H281	H28	0.823900	0.757600	0.106100
C351	C35	0.714900	0.773800	0.019800
H291	H29	0.706700	0.821900	0.025900
C361	C36	0.655600	0.742700	0.962200
H301	H30	0.609400	0.769600	0.929300
U71	U7	0.484890	0.265220	0.750870
U81	U8	0.789290	0.496860	0.258150
P131	P13	0.572500	0.392180	0.886250
P141	P14	0.876600	0.375560	0.128420
P151	P15	0.913100	0.372510	0.380260
P161	P16	0.611700	0.390990	0.622210
O491	O49	0.487900	0.448900	0.921100
O501	O50	0.691900	0.422700	0.845600
O511	O51	0.484900	0.344500	0.840500
O521	O52	0.955700	0.320400	0.167700
O531	O53	0.973000	0.426900	0.093900
H311	H31	0.944000	0.466800	0.099400
O541	O54	0.769600	0.410400	0.176200
O551	O55	0.981800	0.318600	0.334400
O561	O56	0.801600	0.413900	0.344300
O571	O57	0.024400	0.420400	0.410000
H321	H32	0.004000	0.461300	0.402600
O581	O58	0.718800	0.422800	0.669700
O591	O59	0.512400	0.344800	0.661900
O601	O60	0.538200	0.446600	0.579800
O611	O61	0.305600	0.275000	0.744100
O621	O62	0.665100	0.257200	0.756800
O631	O63	0.608100	0.499100	0.265700
O641	O64	0.970000	0.494400	0.251700
C371	C37	0.647400	0.339100	0.954100
C381	C38	0.716800	0.371500	0.008900
H331	H33	0.719300	0.420100	0.011300
C391	C39	0.783000	0.331800	0.060500
C401	C40	0.775800	0.260500	0.056300
H341	H34	0.818400	0.233500	0.090400
C411	C41	0.706100	0.227100	0.002000
H351	H35	0.701500	0.178600	0.000200
C421	C42	0.643700	0.267600	0.950500
H361	H36	0.599200	0.245800	0.913400
C431	C43	0.834300	0.329800	0.453800
C441	C44	0.762300	0.368100	0.501800
H371	H37	0.754100	0.416100	0.495300
C451	C45	0.701500	0.337800	0.559200
C461	C46	0.715200	0.264400	0.567600
H381	H38	0.676100	0.242400	0.606100
C471	C47	0.785100	0.226200	0.519800
H391	H39	0.793300	0.178100	0.525900
C481	C48	0.844400	0.257300	0.462200
H401	H40	0.890600	0.230400	0.429300
