data_CURBOH_freeONLY_PM
_symmetry_space_group_name_H-M	'P1'
_cell_length_a	14.830000
_cell_length_b	18.761500
_cell_length_c	33.920000
_cell_angle_alpha	105.077000
_cell_angle_beta	90.000000
_cell_angle_gamma	113.280000
_symmetry_Int_Tables_number 1

loop_
_symmetry_equiv_pos_as_xyz
'x,y,z'

loop_
_atom_site_label
_atom_site_type_symbol
_atom_site_fract_x
_atom_site_fract_y
_atom_site_fract_z
Zn11	Zn1	0.033580	0.231040	0.563690
Zn21	Zn2	0.971680	0.658020	0.732620
Zn31	Zn3	0.261620	0.753280	0.924980
Zn41	Zn4	0.197460	0.231040	0.063690
Zn51	Zn5	0.686340	0.658020	0.232620
Zn61	Zn6	0.491660	0.753280	0.424980
H11	H1	0.249600	0.301200	0.585700
H21	H2	0.373500	0.407400	0.631900
H31	H3	0.169600	0.469800	0.688500
H41	H4	0.050800	0.363400	0.640700
H51	H5	0.837100	0.718600	0.779700
H61	H6	0.672000	0.697000	0.777000
H71	H7	0.616900	0.532000	0.668100
H81	H8	0.788400	0.560600	0.672600
H91	H9	0.173200	0.660000	0.838700
H101	H10	0.217600	0.591000	0.777900
H111	H11	0.502400	0.724800	0.823900
H121	H12	0.450800	0.775600	0.884100
H131	H13	0.354800	0.675600	0.970000
H141	H14	0.487700	0.708200	0.015400
H151	H15	0.592500	0.941200	0.006900
H161	H16	0.441800	0.890200	0.958600
H171	H17	0.114300	0.118800	0.112200
H181	H18	0.968200	0.016200	0.119900
H191	H19	0.859100	0.007200	0.008900
H201	H20	0.999800	0.119000	0.009500
H211	H21	0.596700	0.621200	0.143900
H221	H22	0.613000	0.678200	0.092000
H231	H23	0.826700	0.879600	0.165500
H241	H24	0.793900	0.823800	0.216500
H251	H25	0.051600	0.301200	0.085700
H261	H26	0.033900	0.407400	0.131900
H271	H27	0.300200	0.469800	0.188500
H281	H28	0.312600	0.363400	0.140700
H291	H29	0.881500	0.718600	0.279700
H301	H30	0.025000	0.697000	0.277000
H311	H31	0.915100	0.532000	0.168100
H321	H32	0.772200	0.560600	0.172600
H331	H33	0.486800	0.660000	0.338700
H341	H34	0.373400	0.591000	0.277900
H351	H35	0.222400	0.724800	0.323900
H361	H36	0.324800	0.775600	0.384100
H371	H37	0.320800	0.675600	0.470000
H381	H38	0.220500	0.708200	0.515400
H391	H39	0.348700	0.941200	0.506900
H401	H40	0.448400	0.890200	0.458600
H411	H41	0.004500	0.118800	0.612200
H421	H42	0.048000	0.016200	0.619900
H431	H43	0.148100	0.007200	0.508900
H441	H44	0.119200	0.119000	0.509500
H451	H45	0.024500	0.621200	0.643900
H461	H46	0.065200	0.678200	0.592000
H471	H47	0.052900	0.879600	0.665500
H481	H48	0.029900	0.823800	0.716500
C11	C1	0.232100	0.336400	0.606800
C21	C2	0.306800	0.399600	0.634700
C31	C3	0.285800	0.451400	0.666300
C41	C4	0.189000	0.436000	0.667400
C51	C5	0.118200	0.372600	0.638700
C61	C6	0.358100	0.513400	0.697400
C71	C7	0.791500	0.678000	0.757400
C81	C8	0.693000	0.665400	0.755500
C91	C9	0.624900	0.608800	0.723600
C101	C10	0.659900	0.569400	0.691900
C111	C11	0.762900	0.585800	0.695100
C121	C12	0.517700	0.591200	0.723700
C131	C13	0.240600	0.669400	0.836700
C141	C14	0.267400	0.631400	0.799000
C151	C15	0.365500	0.653600	0.793600
C161	C16	0.433800	0.708000	0.826300
C171	C17	0.402000	0.737600	0.862100
C181	C18	0.399200	0.613600	0.757300
C191	C19	0.402900	0.729800	0.978100
C201	C20	0.482100	0.748000	0.004200
C211	C21	0.557100	0.828200	0.014600
C221	C22	0.545900	0.886400	0.999700
C231	C23	0.453300	0.854600	0.971400
C241	C24	0.646900	0.850800	0.042200
C251	C25	0.059000	0.098600	0.092100
C261	C26	0.973800	0.035400	0.096300
C271	C27	0.897100	0.001600	0.064600
C281	C28	0.908800	0.031400	0.031700
C291	C29	0.993800	0.097200	0.032100
C301	C30	0.805400	0.933000	0.065900
C311	C31	0.644600	0.675000	0.148200
C321	C32	0.651000	0.708000	0.118000
C331	C33	0.718800	0.792000	0.126400
C341	C34	0.774900	0.827400	0.161100
C351	C35	0.760800	0.791600	0.189900
C361	C36	0.718700	0.834000	0.095100
C371	C37	0.104300	0.336400	0.106800
C381	C38	0.092800	0.399600	0.134700
C391	C39	0.165600	0.451400	0.166300
C401	C40	0.247000	0.436000	0.167400
C411	C41	0.254400	0.372600	0.138700
C421	C42	0.155300	0.513400	0.197400
C431	C43	0.886500	0.678000	0.257400
C441	C44	0.972400	0.665400	0.255500
C451	C45	0.983900	0.608800	0.223600
C461	C46	0.909500	0.569400	0.191900
C471	C47	0.822900	0.585800	0.195100
C481	C48	0.073500	0.591200	0.223700
C491	C49	0.428800	0.669400	0.336700
C501	C50	0.364000	0.631400	0.299000
C511	C51	0.288100	0.653600	0.293600
C521	C52	0.274200	0.708000	0.326300
C531	C53	0.335600	0.737600	0.362100
C541	C54	0.214400	0.613600	0.257300
C551	C55	0.326900	0.729800	0.478100
C561	C56	0.265900	0.748000	0.504200
C571	C57	0.271100	0.828200	0.514600
C581	C58	0.340500	0.886400	0.499700
C591	C59	0.401300	0.854600	0.471400
C601	C60	0.203900	0.850800	0.542200
C611	C61	0.039600	0.098600	0.592100
C621	C62	0.061600	0.035400	0.596300
C631	C63	0.104500	0.001600	0.564600
C641	C64	0.122600	0.031400	0.531700
C651	C65	0.103400	0.097200	0.532100
C661	C66	0.127600	0.933000	0.565900
C671	C67	0.030400	0.675000	0.648200
C681	C68	0.057000	0.708000	0.618000
C691	C69	0.073200	0.792000	0.626400
C701	C70	0.052500	0.827400	0.661100
C711	C71	0.030800	0.791600	0.689900
C721	C72	0.115300	0.834000	0.595100
I11	I1	0.071950	0.269040	0.497210
I21	I2	0.869700	0.202520	0.592860
I31	I3	0.002910	0.531320	0.710000
I41	I4	0.049340	0.757620	0.802610
I51	I5	0.123130	0.628000	0.938120
I61	I6	0.240330	0.875660	0.924410
I71	I7	0.197090	0.269040	0.997210
I81	I8	0.332820	0.202520	0.092860
I91	I9	0.528410	0.531320	0.210000
I101	I10	0.708280	0.757620	0.302610
I111	I11	0.504870	0.628000	0.438120
I121	I12	0.635330	0.875660	0.424410
N11	N1	0.139900	0.322600	0.607700
N21	N2	0.822800	0.634200	0.728300
N31	N3	0.306300	0.716600	0.868500
N41	N4	0.458300	0.531000	0.692400
N51	N5	0.493300	0.636800	0.755500
N61	N6	0.329700	0.555200	0.729400
N71	N7	0.388700	0.781800	0.963400
N81	N8	0.068100	0.132200	0.062100
N91	N9	0.702000	0.712400	0.185600
N101	N10	0.728600	0.912800	0.039000
N111	N11	0.806700	0.898200	0.095900
N121	N12	0.639800	0.809400	0.068900
N131	N13	0.182700	0.322600	0.107700
N141	N14	0.811400	0.634200	0.228300
N151	N15	0.410300	0.716600	0.368500
N161	N16	0.072700	0.531000	0.192400
N171	N17	0.143500	0.636800	0.255500
N181	N18	0.225500	0.555200	0.229400
N191	N19	0.393100	0.781800	0.463400
N201	N20	0.064100	0.132200	0.562100
N211	N21	0.010400	0.712400	0.685600
N221	N22	0.184200	0.912800	0.539000
N231	N23	0.091500	0.898200	0.595900
N241	N24	0.169600	0.809400	0.568900
Zn71	Zn7	0.802540	0.768960	0.936310
Zn81	Zn8	0.313660	0.341980	0.767380
Zn91	Zn9	0.508340	0.246720	0.575020
Zn101	Zn10	0.966420	0.768960	0.436310
Zn111	Zn11	0.028320	0.341980	0.267380
Zn121	Zn12	0.738380	0.246720	0.075020
H491	H49	0.948400	0.698800	0.914300
H501	H50	0.966100	0.592600	0.868100
H511	H51	0.699800	0.530200	0.811500
H521	H52	0.687400	0.636600	0.859300
H531	H53	0.118500	0.281400	0.720300
H541	H54	0.975000	0.303000	0.723000
H551	H55	0.084900	0.468000	0.831900
H561	H56	0.227800	0.439400	0.827400
H571	H57	0.513200	0.340000	0.661300
H581	H58	0.626600	0.409000	0.722100
H591	H59	0.777600	0.275200	0.676100
H601	H60	0.675200	0.224400	0.615900
H611	H61	0.679200	0.324400	0.530000
H621	H62	0.779500	0.291800	0.484600
H631	H63	0.651300	0.058800	0.493100
H641	H64	0.551600	0.109800	0.541400
H651	H65	0.995500	0.881200	0.387800
H661	H66	0.952000	0.983800	0.380100
H671	H67	0.851900	0.992800	0.491100
H681	H68	0.880800	0.881000	0.490500
H691	H69	0.975500	0.378800	0.356100
H701	H70	0.934800	0.321800	0.408000
H711	H71	0.947100	0.120400	0.334500
H721	H72	0.970100	0.176200	0.283500
H731	H73	0.750400	0.698800	0.414300
H741	H74	0.626500	0.592600	0.368100
H751	H75	0.830400	0.530200	0.311500
H761	H76	0.949200	0.636600	0.359300
H771	H77	0.162900	0.281400	0.220300
H781	H78	0.328000	0.303000	0.223000
H791	H79	0.383100	0.468000	0.331900
H801	H80	0.211600	0.439400	0.327400
H811	H81	0.826800	0.340000	0.161300
H821	H82	0.782400	0.409000	0.222100
H831	H83	0.497600	0.275200	0.176100
H841	H84	0.549200	0.224400	0.115900
H851	H85	0.645200	0.324400	0.030000
H861	H86	0.512300	0.291800	0.984600
H871	H87	0.407500	0.058800	0.993100
H881	H88	0.558200	0.109800	0.041400
H891	H89	0.885700	0.881200	0.887800
H901	H90	0.031800	0.983800	0.880100
H911	H91	0.140900	0.992800	0.991100
H921	H92	0.000200	0.881000	0.990500
H931	H93	0.403300	0.378800	0.856100
H941	H94	0.387000	0.321800	0.908000
H951	H95	0.173300	0.120400	0.834500
H961	H96	0.206100	0.176200	0.783500
C731	C73	0.895700	0.663600	0.893200
C741	C74	0.907200	0.600400	0.865300
C751	C75	0.834400	0.548600	0.833700
C761	C76	0.753000	0.564000	0.832600
C771	C77	0.745600	0.627400	0.861300
C781	C78	0.844700	0.486600	0.802600
C791	C79	0.113500	0.322000	0.742600
C801	C80	0.027600	0.334600	0.744500
C811	C81	0.016100	0.391200	0.776400
C821	C82	0.090500	0.430600	0.808100
C831	C83	0.177100	0.414200	0.804900
C841	C84	0.926500	0.408800	0.776300
C851	C85	0.571200	0.330600	0.663300
C861	C86	0.636000	0.368600	0.701000
C871	C87	0.711900	0.346400	0.706400
C881	C88	0.725800	0.292000	0.673700
C891	C89	0.664400	0.262400	0.637900
C901	C90	0.785600	0.386400	0.742700
C911	C91	0.673100	0.270200	0.521900
C921	C92	0.734100	0.252000	0.495800
C931	C93	0.728900	0.171800	0.485400
C941	C94	0.659500	0.113600	0.500300
C951	C95	0.598700	0.145400	0.528600
C961	C96	0.796100	0.149200	0.457800
C971	C97	0.960400	0.901400	0.407900
C981	C98	0.938400	0.964600	0.403700
C991	C99	0.895500	0.998400	0.435400
C1001	C100	0.877400	0.968600	0.468300
C1011	C101	0.896600	0.902800	0.467900
C1021	C102	0.872400	0.067000	0.434100
C1031	C103	0.969600	0.325000	0.351800
C1041	C104	0.943000	0.292000	0.382000
C1051	C105	0.926800	0.208000	0.373600
C1061	C106	0.947500	0.172600	0.338900
C1071	C107	0.969200	0.208400	0.310100
C1081	C108	0.884700	0.166000	0.404900
C1091	C109	0.767900	0.663600	0.393200
C1101	C110	0.693200	0.600400	0.365300
C1111	C111	0.714200	0.548600	0.333700
C1121	C112	0.811000	0.564000	0.332600
C1131	C113	0.881800	0.627400	0.361300
C1141	C114	0.641900	0.486600	0.302600
C1151	C115	0.208500	0.322000	0.242600
C1161	C116	0.307000	0.334600	0.244500
C1171	C117	0.375100	0.391200	0.276400
C1181	C118	0.340100	0.430600	0.308100
C1191	C119	0.237100	0.414200	0.304900
C1201	C120	0.482300	0.408800	0.276300
C1211	C121	0.759400	0.330600	0.163300
C1221	C122	0.732600	0.368600	0.201000
C1231	C123	0.634500	0.346400	0.206400
C1241	C124	0.566200	0.292000	0.173700
C1251	C125	0.598000	0.262400	0.137900
C1261	C126	0.600800	0.386400	0.242700
C1271	C127	0.597100	0.270200	0.021900
C1281	C128	0.517900	0.252000	0.995800
C1291	C129	0.442900	0.171800	0.985400
C1301	C130	0.454100	0.113600	0.000300
C1311	C131	0.546700	0.145400	0.028600
C1321	C132	0.353100	0.149200	0.957800
C1331	C133	0.941000	0.901400	0.907900
C1341	C134	0.026200	0.964600	0.903700
C1351	C135	0.102900	0.998400	0.935400
C1361	C136	0.091200	0.968600	0.968300
C1371	C137	0.006200	0.902800	0.967900
C1381	C138	0.194600	0.067000	0.934100
C1391	C139	0.355400	0.325000	0.851800
C1401	C140	0.349000	0.292000	0.882000
C1411	C141	0.281200	0.208000	0.873600
C1421	C142	0.225100	0.172600	0.838900
C1431	C143	0.239200	0.208400	0.810100
C1441	C144	0.281300	0.166000	0.904900
I131	I13	0.802910	0.730960	0.002790
I141	I14	0.667180	0.797480	0.907140
I151	I15	0.471590	0.468680	0.790000
I161	I16	0.291720	0.242380	0.697390
I171	I17	0.495130	0.372000	0.561880
I181	I18	0.364670	0.124340	0.575590
I191	I19	0.928050	0.730960	0.502790
I201	I20	0.130300	0.797480	0.407140
I211	I21	0.997090	0.468680	0.290000
I221	I22	0.950660	0.242380	0.197390
I231	I23	0.876870	0.372000	0.061880
I241	I24	0.759670	0.124340	0.075590
N251	N25	0.817300	0.677400	0.892300
N261	N26	0.188600	0.365800	0.771700
N271	N27	0.589700	0.283400	0.631500
N281	N28	0.927300	0.469000	0.807600
N291	N29	0.856500	0.363200	0.744500
N301	N30	0.774500	0.444800	0.770600
N311	N31	0.606900	0.218200	0.536600
N321	N32	0.935900	0.867800	0.437900
N331	N33	0.989600	0.287600	0.314400
N341	N34	0.815800	0.087200	0.461000
N351	N35	0.908500	0.101800	0.404100
N361	N36	0.830400	0.190600	0.431100
N371	N37	0.860100	0.677400	0.392300
N381	N38	0.177200	0.365800	0.271700
N391	N39	0.693700	0.283400	0.131500
N401	N40	0.541700	0.469000	0.307600
N411	N41	0.506700	0.363200	0.244500
N421	N42	0.670300	0.444800	0.270600
N431	N43	0.611300	0.218200	0.036600
N441	N44	0.931900	0.867800	0.937900
N451	N45	0.298000	0.287600	0.814400
N461	N46	0.271400	0.087200	0.961000
N471	N47	0.193300	0.101800	0.904100
N481	N48	0.360200	0.190600	0.931100
