data_CURYOE01_freeONLY_PM
_symmetry_space_group_name_H-M	'P1'
_cell_length_a	26.951700
_cell_length_b	26.951700
_cell_length_c	13.236900
_cell_angle_alpha	90.000000
_cell_angle_beta	90.000000
_cell_angle_gamma	120.000000
_symmetry_Int_Tables_number 1

loop_
_symmetry_equiv_pos_as_xyz
'x,y,z'

loop_
_atom_site_label
_atom_site_type_symbol
_atom_site_fract_x
_atom_site_fract_y
_atom_site_fract_z
N11	N1	0.458920	0.402900	0.061900
C11	C1	0.449100	0.361430	0.996200
H11	H1	0.465300	0.372100	0.930400
C21	C2	0.416800	0.303730	0.018900
H21	H2	0.411500	0.275800	0.969900
C31	C3	0.392160	0.286940	0.113600
C41	C4	0.402700	0.329900	0.182100
H31	H3	0.387000	0.320500	0.248300
C51	C5	0.436100	0.386800	0.153600
H41	H4	0.443100	0.415700	0.201900
C61	C6	0.359070	0.224840	0.140500
N21	N2	0.125590	0.736230	0.395230
C71	C7	0.115770	0.694760	0.329530
H51	H5	0.131970	0.705430	0.263730
C81	C8	0.083470	0.637060	0.352230
H61	H6	0.078170	0.609130	0.303230
C91	C9	0.058830	0.620270	0.446930
C101	C10	0.069370	0.663230	0.515430
H71	H7	0.053670	0.653830	0.581630
C111	C11	0.102770	0.720130	0.486930
H81	H8	0.109770	0.749030	0.535230
C121	C12	0.025740	0.558170	0.473830
N31	N3	0.792250	0.069570	0.728570
C131	C13	0.782430	0.028100	0.662870
H91	H9	0.798630	0.038770	0.597070
C141	C14	0.750130	0.970400	0.685570
H101	H10	0.744830	0.942470	0.636570
C151	C15	0.725490	0.953610	0.780270
C161	C16	0.736030	0.996570	0.848770
H111	H11	0.720330	0.987170	0.914970
C171	C17	0.769430	0.053470	0.820270
H121	H12	0.776430	0.082370	0.868570
C181	C18	0.692400	0.891510	0.807170
N41	N4	0.597100	0.056020	0.061900
C191	C19	0.638570	0.087670	0.996200
H131	H13	0.627900	0.093200	0.930400
C201	C20	0.696270	0.113070	0.018900
H141	H14	0.724200	0.135700	0.969900
C211	C21	0.713060	0.105220	0.113600
C221	C22	0.670100	0.072800	0.182100
H151	H15	0.679500	0.066500	0.248300
C231	C23	0.613200	0.049300	0.153600
H161	H16	0.584300	0.027400	0.201900
C241	C24	0.775160	0.134230	0.140500
N51	N5	0.263770	0.389350	0.395230
C251	C25	0.305240	0.421000	0.329530
H171	H17	0.294570	0.426530	0.263730
C261	C26	0.362940	0.446400	0.352230
H181	H18	0.390870	0.469030	0.303230
C271	C27	0.379730	0.438550	0.446930
C281	C28	0.336770	0.406130	0.515430
H191	H19	0.346170	0.399830	0.581630
C291	C29	0.279870	0.382630	0.486930
H201	H20	0.250970	0.360730	0.535230
C301	C30	0.441830	0.467560	0.473830
N61	N6	0.930430	0.722690	0.728570
C311	C31	0.971900	0.754340	0.662870
H211	H21	0.961230	0.759870	0.597070
C321	C32	0.029600	0.779740	0.685570
H221	H22	0.057530	0.802370	0.636570
C331	C33	0.046390	0.771890	0.780270
C341	C34	0.003430	0.739470	0.848770
H231	H23	0.012830	0.733170	0.914970
C351	C35	0.946530	0.715970	0.820270
H241	H24	0.917630	0.694070	0.868570
C361	C36	0.108490	0.800900	0.807170
N71	N7	0.943980	0.541080	0.061900
C371	C37	0.912330	0.550900	0.996200
H251	H25	0.906800	0.534700	0.930400
C381	C38	0.886930	0.583200	0.018900
H261	H26	0.864300	0.588500	0.969900
C391	C39	0.894780	0.607840	0.113600
C401	C40	0.927200	0.597300	0.182100
H271	H27	0.933500	0.613000	0.248300
C411	C41	0.950700	0.563900	0.153600
H281	H28	0.972600	0.556900	0.201900
C421	C42	0.865770	0.640930	0.140500
N81	N8	0.610650	0.874410	0.395230
C431	C43	0.579000	0.884230	0.329530
H291	H29	0.573470	0.868030	0.263730
C441	C44	0.553600	0.916530	0.352230
H301	H30	0.530970	0.921830	0.303230
C451	C45	0.561450	0.941170	0.446930
C461	C46	0.593870	0.930630	0.515430
H311	H31	0.600170	0.946330	0.581630
C471	C47	0.617370	0.897230	0.486930
H321	H32	0.639270	0.890230	0.535230
C481	C48	0.532440	0.974260	0.473830
N91	N9	0.277310	0.207750	0.728570
C491	C49	0.245660	0.217570	0.662870
H331	H33	0.240130	0.201370	0.597070
C501	C50	0.220260	0.249870	0.685570
H341	H34	0.197630	0.255170	0.636570
C511	C51	0.228110	0.274510	0.780270
C521	C52	0.260530	0.263970	0.848770
H351	H35	0.266830	0.279670	0.914970
C531	C53	0.284030	0.230570	0.820270
H361	H36	0.305930	0.223570	0.868570
C541	C54	0.199100	0.307600	0.807170
N101	N10	0.402900	0.458920	0.938100
C551	C55	0.361430	0.449100	0.003800
H371	H37	0.372100	0.465300	0.069600
C561	C56	0.303730	0.416800	0.981100
H381	H38	0.275800	0.411500	0.030100
C571	C57	0.286940	0.392160	0.886400
C581	C58	0.329900	0.402700	0.817900
H391	H39	0.320500	0.387000	0.751700
C591	C59	0.386800	0.436100	0.846400
H401	H40	0.415700	0.443100	0.798100
C601	C60	0.224840	0.359070	0.859500
N111	N11	0.069570	0.792250	0.271430
C611	C61	0.028100	0.782430	0.337130
H411	H41	0.038770	0.798630	0.402930
C621	C62	0.970400	0.750130	0.314430
H421	H42	0.942470	0.744830	0.363430
C631	C63	0.953610	0.725490	0.219730
C641	C64	0.996570	0.736030	0.151230
H431	H43	0.987170	0.720330	0.085030
C651	C65	0.053470	0.769430	0.179730
H441	H44	0.082370	0.776430	0.131430
C661	C66	0.891510	0.692400	0.192830
N121	N12	0.736230	0.125590	0.604770
C671	C67	0.694760	0.115770	0.670470
H451	H45	0.705430	0.131970	0.736270
C681	C68	0.637060	0.083470	0.647770
H461	H46	0.609130	0.078170	0.696770
C691	C69	0.620270	0.058830	0.553070
C701	C70	0.663230	0.069370	0.484570
H471	H47	0.653830	0.053670	0.418370
C711	C71	0.720130	0.102770	0.513070
H481	H48	0.749030	0.109770	0.464770
C721	C72	0.558170	0.025740	0.526170
N131	N13	0.056020	0.597100	0.938100
C731	C73	0.087670	0.638570	0.003800
H491	H49	0.093200	0.627900	0.069600
C741	C74	0.113070	0.696270	0.981100
H501	H50	0.135700	0.724200	0.030100
C751	C75	0.105220	0.713060	0.886400
C761	C76	0.072800	0.670100	0.817900
H511	H51	0.066500	0.679500	0.751700
C771	C77	0.049300	0.613200	0.846400
H521	H52	0.027400	0.584300	0.798100
C781	C78	0.134230	0.775160	0.859500
N141	N14	0.722690	0.930430	0.271430
C791	C79	0.754340	0.971900	0.337130
H531	H53	0.759870	0.961230	0.402930
C801	C80	0.779740	0.029600	0.314430
H541	H54	0.802370	0.057530	0.363430
C811	C81	0.771890	0.046390	0.219730
C821	C82	0.739470	0.003430	0.151230
H551	H55	0.733170	0.012830	0.085030
C831	C83	0.715970	0.946530	0.179730
H561	H56	0.694070	0.917630	0.131430
C841	C84	0.800900	0.108490	0.192830
N151	N15	0.389350	0.263770	0.604770
C851	C85	0.421000	0.305240	0.670470
H571	H57	0.426530	0.294570	0.736270
C861	C86	0.446400	0.362940	0.647770
H581	H58	0.469030	0.390870	0.696770
C871	C87	0.438550	0.379730	0.553070
C881	C88	0.406130	0.336770	0.484570
H591	H59	0.399830	0.346170	0.418370
C891	C89	0.382630	0.279870	0.513070
H601	H60	0.360730	0.250970	0.464770
C901	C90	0.467560	0.441830	0.526170
N161	N16	0.541080	0.943980	0.938100
C911	C91	0.550900	0.912330	0.003800
H611	H61	0.534700	0.906800	0.069600
C921	C92	0.583200	0.886930	0.981100
H621	H62	0.588500	0.864300	0.030100
C931	C93	0.607840	0.894780	0.886400
C941	C94	0.597300	0.927200	0.817900
H631	H63	0.613000	0.933500	0.751700
C951	C95	0.563900	0.950700	0.846400
H641	H64	0.556900	0.972600	0.798100
C961	C96	0.640930	0.865770	0.859500
N171	N17	0.207750	0.277310	0.271430
C971	C97	0.217570	0.245660	0.337130
H651	H65	0.201370	0.240130	0.402930
C981	C98	0.249870	0.220260	0.314430
H661	H66	0.255170	0.197630	0.363430
C991	C99	0.274510	0.228110	0.219730
C1001	C100	0.263970	0.260530	0.151230
H671	H67	0.279670	0.266830	0.085030
C1011	C101	0.230570	0.284030	0.179730
H681	H68	0.223570	0.305930	0.131430
C1021	C102	0.307600	0.199100	0.192830
N181	N18	0.874410	0.610650	0.604770
C1031	C103	0.884230	0.579000	0.670470
H691	H69	0.868030	0.573470	0.736270
C1041	C104	0.916530	0.553600	0.647770
H701	H70	0.921830	0.530970	0.696770
C1051	C105	0.941170	0.561450	0.553070
C1061	C106	0.930630	0.593870	0.484570
H711	H71	0.946330	0.600170	0.418370
C1071	C107	0.897230	0.617370	0.513070
H721	H72	0.890230	0.639270	0.464770
C1081	C108	0.974260	0.532440	0.526170
N191	N19	0.541080	0.597100	0.938100
C1091	C109	0.550900	0.638570	0.003800
H731	H73	0.534700	0.627900	0.069600
C1101	C110	0.583200	0.696270	0.981100
H741	H74	0.588500	0.724200	0.030100
C1111	C111	0.607840	0.713060	0.886400
C1121	C112	0.597300	0.670100	0.817900
H751	H75	0.613000	0.679500	0.751700
C1131	C113	0.563900	0.613200	0.846400
H761	H76	0.556900	0.584300	0.798100
C1141	C114	0.640930	0.775160	0.859500
N201	N20	0.207750	0.930430	0.271430
C1151	C115	0.217570	0.971900	0.337130
H771	H77	0.201370	0.961230	0.402930
C1161	C116	0.249870	0.029600	0.314430
H781	H78	0.255170	0.057530	0.363430
C1171	C117	0.274510	0.046390	0.219730
C1181	C118	0.263970	0.003430	0.151230
H791	H79	0.279670	0.012830	0.085030
C1191	C119	0.230570	0.946530	0.179730
H801	H80	0.223570	0.917630	0.131430
C1201	C120	0.307600	0.108490	0.192830
N211	N21	0.874410	0.263770	0.604770
C1211	C121	0.884230	0.305240	0.670470
H811	H81	0.868030	0.294570	0.736270
C1221	C122	0.916530	0.362940	0.647770
H821	H82	0.921830	0.390870	0.696770
C1231	C123	0.941170	0.379730	0.553070
C1241	C124	0.930630	0.336770	0.484570
H831	H83	0.946330	0.346170	0.418370
C1251	C125	0.897230	0.279870	0.513070
H841	H84	0.890230	0.250970	0.464770
C1261	C126	0.974260	0.441830	0.526170
N221	N22	0.402900	0.943980	0.938100
C1271	C127	0.361430	0.912330	0.003800
H851	H85	0.372100	0.906800	0.069600
C1281	C128	0.303730	0.886930	0.981100
H861	H86	0.275800	0.864300	0.030100
C1291	C129	0.286940	0.894780	0.886400
C1301	C130	0.329900	0.927200	0.817900
H871	H87	0.320500	0.933500	0.751700
C1311	C131	0.386800	0.950700	0.846400
H881	H88	0.415700	0.972600	0.798100
C1321	C132	0.224840	0.865770	0.859500
N231	N23	0.069570	0.277310	0.271430
C1331	C133	0.028100	0.245660	0.337130
H891	H89	0.038770	0.240130	0.402930
C1341	C134	0.970400	0.220260	0.314430
H901	H90	0.942470	0.197630	0.363430
C1351	C135	0.953610	0.228110	0.219730
C1361	C136	0.996570	0.260530	0.151230
H911	H91	0.987170	0.266830	0.085030
C1371	C137	0.053470	0.284030	0.179730
H921	H92	0.082370	0.305930	0.131430
C1381	C138	0.891510	0.199100	0.192830
N241	N24	0.736230	0.610650	0.604770
C1391	C139	0.694760	0.579000	0.670470
H931	H93	0.705430	0.573470	0.736270
C1401	C140	0.637060	0.553600	0.647770
H941	H94	0.609130	0.530970	0.696770
C1411	C141	0.620270	0.561450	0.553070
C1421	C142	0.663230	0.593870	0.484570
H951	H95	0.653830	0.600170	0.418370
C1431	C143	0.720130	0.617370	0.513070
H961	H96	0.749030	0.639270	0.464770
C1441	C144	0.558170	0.532440	0.526170
N251	N25	0.056020	0.458920	0.938100
C1451	C145	0.087670	0.449100	0.003800
H971	H97	0.093200	0.465300	0.069600
C1461	C146	0.113070	0.416800	0.981100
H981	H98	0.135700	0.411500	0.030100
C1471	C147	0.105220	0.392160	0.886400
C1481	C148	0.072800	0.402700	0.817900
H991	H99	0.066500	0.387000	0.751700
C1491	C149	0.049300	0.436100	0.846400
H1001	H100	0.027400	0.443100	0.798100
C1501	C150	0.134230	0.359070	0.859500
N261	N26	0.722690	0.792250	0.271430
C1511	C151	0.754340	0.782430	0.337130
H1011	H101	0.759870	0.798630	0.402930
C1521	C152	0.779740	0.750130	0.314430
H1021	H102	0.802370	0.744830	0.363430
C1531	C153	0.771890	0.725490	0.219730
C1541	C154	0.739470	0.736030	0.151230
H1031	H103	0.733170	0.720330	0.085030
C1551	C155	0.715970	0.769430	0.179730
H1041	H104	0.694070	0.776430	0.131430
C1561	C156	0.800900	0.692400	0.192830
N271	N27	0.389350	0.125590	0.604770
C1571	C157	0.421000	0.115770	0.670470
H1051	H105	0.426530	0.131970	0.736270
C1581	C158	0.446400	0.083470	0.647770
H1061	H106	0.469030	0.078170	0.696770
C1591	C159	0.438550	0.058830	0.553070
C1601	C160	0.406130	0.069370	0.484570
H1071	H107	0.399830	0.053670	0.418370
C1611	C161	0.382630	0.102770	0.513070
H1081	H108	0.360730	0.109770	0.464770
C1621	C162	0.467560	0.025740	0.526170
N281	N28	0.597100	0.541080	0.061900
C1631	C163	0.638570	0.550900	0.996200
H1091	H109	0.627900	0.534700	0.930400
C1641	C164	0.696270	0.583200	0.018900
H1101	H110	0.724200	0.588500	0.969900
C1651	C165	0.713060	0.607840	0.113600
C1661	C166	0.670100	0.597300	0.182100
H1111	H111	0.679500	0.613000	0.248300
C1671	C167	0.613200	0.563900	0.153600
H1121	H112	0.584300	0.556900	0.201900
C1681	C168	0.775160	0.640930	0.140500
N291	N29	0.263770	0.874410	0.395230
C1691	C169	0.305240	0.884230	0.329530
H1131	H113	0.294570	0.868030	0.263730
C1701	C170	0.362940	0.916530	0.352230
H1141	H114	0.390870	0.921830	0.303230
C1711	C171	0.379730	0.941170	0.446930
C1721	C172	0.336770	0.930630	0.515430
H1151	H115	0.346170	0.946330	0.581630
C1731	C173	0.279870	0.897230	0.486930
H1161	H116	0.250970	0.890230	0.535230
C1741	C174	0.441830	0.974260	0.473830
N301	N30	0.930430	0.207750	0.728570
C1751	C175	0.971900	0.217570	0.662870
H1171	H117	0.961230	0.201370	0.597070
C1761	C176	0.029600	0.249870	0.685570
H1181	H118	0.057530	0.255170	0.636570
C1771	C177	0.046390	0.274510	0.780270
C1781	C178	0.003430	0.263970	0.848770
H1191	H119	0.012830	0.279670	0.914970
C1791	C179	0.946530	0.230570	0.820270
H1201	H120	0.917630	0.223570	0.868570
C1801	C180	0.108490	0.307600	0.807170
N311	N31	0.943980	0.402900	0.061900
C1811	C181	0.912330	0.361430	0.996200
H1211	H121	0.906800	0.372100	0.930400
C1821	C182	0.886930	0.303730	0.018900
H1221	H122	0.864300	0.275800	0.969900
C1831	C183	0.894780	0.286940	0.113600
C1841	C184	0.927200	0.329900	0.182100
H1231	H123	0.933500	0.320500	0.248300
C1851	C185	0.950700	0.386800	0.153600
H1241	H124	0.972600	0.415700	0.201900
C1861	C186	0.865770	0.224840	0.140500
N321	N32	0.610650	0.736230	0.395230
C1871	C187	0.579000	0.694760	0.329530
H1251	H125	0.573470	0.705430	0.263730
C1881	C188	0.553600	0.637060	0.352230
H1261	H126	0.530970	0.609130	0.303230
C1891	C189	0.561450	0.620270	0.446930
C1901	C190	0.593870	0.663230	0.515430
H1271	H127	0.600170	0.653830	0.581630
C1911	C191	0.617370	0.720130	0.486930
H1281	H128	0.639270	0.749030	0.535230
C1921	C192	0.532440	0.558170	0.473830
N331	N33	0.277310	0.069570	0.728570
C1931	C193	0.245660	0.028100	0.662870
H1291	H129	0.240130	0.038770	0.597070
C1941	C194	0.220260	0.970400	0.685570
H1301	H130	0.197630	0.942470	0.636570
C1951	C195	0.228110	0.953610	0.780270
C1961	C196	0.260530	0.996570	0.848770
H1311	H131	0.266830	0.987170	0.914970
C1971	C197	0.284030	0.053470	0.820270
H1321	H132	0.305930	0.082370	0.868570
C1981	C198	0.199100	0.891510	0.807170
N341	N34	0.458920	0.056020	0.061900
C1991	C199	0.449100	0.087670	0.996200
H1331	H133	0.465300	0.093200	0.930400
C2001	C200	0.416800	0.113070	0.018900
H1341	H134	0.411500	0.135700	0.969900
C2011	C201	0.392160	0.105220	0.113600
C2021	C202	0.402700	0.072800	0.182100
H1351	H135	0.387000	0.066500	0.248300
C2031	C203	0.436100	0.049300	0.153600
H1361	H136	0.443100	0.027400	0.201900
C2041	C204	0.359070	0.134230	0.140500
N351	N35	0.125590	0.389350	0.395230
C2051	C205	0.115770	0.421000	0.329530
H1371	H137	0.131970	0.426530	0.263730
C2061	C206	0.083470	0.446400	0.352230
H1381	H138	0.078170	0.469030	0.303230
C2071	C207	0.058830	0.438550	0.446930
C2081	C208	0.069370	0.406130	0.515430
H1391	H139	0.053670	0.399830	0.581630
C2091	C209	0.102770	0.382630	0.486930
H1401	H140	0.109770	0.360730	0.535230
C2101	C210	0.025740	0.467560	0.473830
N361	N36	0.792250	0.722690	0.728570
C2111	C211	0.782430	0.754340	0.662870
H1411	H141	0.798630	0.759870	0.597070
C2121	C212	0.750130	0.779740	0.685570
H1421	H142	0.744830	0.802370	0.636570
C2131	C213	0.725490	0.771890	0.780270
C2141	C214	0.736030	0.739470	0.848770
H1431	H143	0.720330	0.733170	0.914970
C2151	C215	0.769430	0.715970	0.820270
H1441	H144	0.776430	0.694070	0.868570
C2161	C216	0.692400	0.800900	0.807170
Cd11	Cd1	0.500000	0.500000	0.000000
Cd21	Cd2	0.166670	0.833330	0.333330
Cd31	Cd3	0.833330	0.166670	0.666670
Cd41	Cd4	0.500000	0.000000	0.000000
Cd51	Cd5	0.166670	0.333330	0.333330
Cd61	Cd6	0.833330	0.666670	0.666670
Cd71	Cd7	0.000000	0.500000	0.000000
Cd81	Cd8	0.666670	0.833330	0.333330
Cd91	Cd9	0.333330	0.166670	0.666670
Cl11	Cl1	0.471750	0.528250	0.165890
Cl21	Cl2	0.138410	0.861590	0.499220
Cl31	Cl3	0.805080	0.194920	0.832560
Cl41	Cl4	0.471750	0.943490	0.165890
Cl51	Cl5	0.138410	0.276820	0.499220
Cl61	Cl6	0.805080	0.610160	0.832560
Cl71	Cl7	0.056510	0.528250	0.165890
Cl81	Cl8	0.723180	0.861590	0.499220
Cl91	Cl9	0.389840	0.194920	0.832560
Cl101	Cl10	0.528260	0.471750	0.834110
Cl111	Cl11	0.194920	0.805080	0.167440
Cl121	Cl12	0.861590	0.138410	0.500780
Cl131	Cl13	0.943490	0.471740	0.834110
Cl141	Cl14	0.610160	0.805080	0.167440
Cl151	Cl15	0.276820	0.138410	0.500780
Cl161	Cl16	0.528250	0.056510	0.834110
Cl171	Cl17	0.194920	0.389840	0.167440
Cl181	Cl18	0.861590	0.723180	0.500780
C2171	C217	0.384020	0.192010	0.115200
H1451	H145	0.419400	0.209700	0.079500
C2181	C218	0.050690	0.525340	0.448530
H1461	H146	0.086070	0.543030	0.412830
C2191	C219	0.717350	0.858680	0.781870
H1471	H147	0.752730	0.876370	0.746170
C2201	C220	0.807990	0.192010	0.115200
H1481	H148	0.790300	0.209700	0.079500
C2211	C221	0.474660	0.525340	0.448530
H1491	H149	0.456970	0.543030	0.412830
C2221	C222	0.141320	0.858680	0.781870
H1501	H150	0.123630	0.876370	0.746170
C2231	C223	0.807990	0.615980	0.115200
H1511	H151	0.790300	0.580600	0.079500
C2241	C224	0.474660	0.949310	0.448530
H1521	H152	0.456970	0.913930	0.412830
C2251	C225	0.141320	0.282650	0.781870
H1531	H153	0.123630	0.247270	0.746170
C2261	C226	0.192010	0.384020	0.884800
H1541	H154	0.209700	0.419400	0.920500
C2271	C227	0.858680	0.717350	0.218130
H1551	H155	0.876370	0.752730	0.253830
C2281	C228	0.525340	0.050690	0.551470
H1561	H156	0.543030	0.086070	0.587170
C2291	C229	0.192010	0.807990	0.884800
H1571	H157	0.209700	0.790300	0.920500
C2301	C230	0.858680	0.141320	0.218130
H1581	H158	0.876370	0.123630	0.253830
C2311	C231	0.525340	0.474660	0.551470
H1591	H159	0.543030	0.456970	0.587170
C2321	C232	0.615980	0.807990	0.884800
H1601	H160	0.580600	0.790300	0.920500
C2331	C233	0.282650	0.141320	0.218130
H1611	H161	0.247270	0.123630	0.253830
C2341	C234	0.949310	0.474660	0.551470
H1621	H162	0.913930	0.456970	0.587170
