data_CUSYIA_freeONLY_PM
_symmetry_space_group_name_H-M	'P1'
_cell_length_a	12.739200
_cell_length_b	21.714000
_cell_length_c	17.819600
_cell_angle_alpha	90.000000
_cell_angle_beta	101.864000
_cell_angle_gamma	90.000000
_symmetry_Int_Tables_number 1

loop_
_symmetry_equiv_pos_as_xyz
'x,y,z'

loop_
_atom_site_label
_atom_site_type_symbol
_atom_site_fract_x
_atom_site_fract_y
_atom_site_fract_z
C11	C1	0.938100	0.084600	0.308900
C21	C2	0.003200	0.036600	0.344900
C31	C3	0.063000	0.003800	0.300900
C41	C4	0.003000	0.019000	0.424000
C51	C5	0.933900	0.046300	0.465300
H11	H1	0.887200	0.078200	0.442100
C61	C6	0.068400	0.971800	0.460800
H21	H2	0.116000	0.951600	0.434200
C71	C7	0.719900	0.118000	0.061000
C81	C8	0.686300	0.076600	0.001000
C91	C9	0.743100	0.073400	0.941700
C101	C10	0.592300	0.037700	0.000300
C111	C11	0.560200	0.992300	0.944900
H31	H3	0.600600	0.986200	0.906300
C121	C12	0.528300	0.044000	0.055100
H41	H4	0.546800	0.074600	0.093800
C131	C13	0.620900	0.236600	0.297700
C141	C14	0.550700	0.260400	0.341400
C151	C15	0.475000	0.305300	0.308200
C161	C16	0.552200	0.241400	0.420000
C171	C17	0.619600	0.194600	0.456600
H51	H5	0.668400	0.175100	0.430400
C181	C18	0.615600	0.176200	0.530600
H61	H6	0.663300	0.145000	0.554400
C191	C19	0.544100	0.202100	0.571000
C201	C20	0.476800	0.248200	0.534500
H71	H7	0.426400	0.266600	0.560300
C211	C21	0.481800	0.268000	0.461100
H81	H8	0.436000	0.300400	0.438300
C221	C22	0.538700	0.184300	0.650000
C231	C23	0.608500	0.140600	0.690300
C241	C24	0.466500	0.215700	0.685400
Cu11	Cu1	0.797010	0.188030	0.215610
Cu21	Cu2	0.186290	0.916080	0.212220
N11	N1	0.883800	0.123700	0.279600
N21	N2	0.113900	0.976270	0.266000
N31	N3	0.745100	0.151200	0.112400
N41	N4	0.785800	0.069940	0.891200
N51	N5	0.681200	0.216640	0.263600
N61	N6	0.408800	0.341500	0.287800
N71	N7	0.668100	0.104700	0.722000
N81	N8	0.404900	0.245690	0.707700
C251	C25	0.561900	0.584600	0.191100
C261	C26	0.496800	0.536600	0.155100
C271	C27	0.437000	0.503800	0.199100
C281	C28	0.497000	0.519000	0.076000
C291	C29	0.566100	0.546300	0.034700
H91	H9	0.612800	0.578200	0.057900
C301	C30	0.431600	0.471800	0.039200
H101	H10	0.384000	0.451600	0.065800
C311	C31	0.780100	0.618000	0.439000
C321	C32	0.813700	0.576600	0.499000
C331	C33	0.756900	0.573400	0.558300
C341	C34	0.907700	0.537700	0.499700
C351	C35	0.939800	0.492300	0.555100
H111	H11	0.899400	0.486200	0.593700
C361	C36	0.971700	0.544000	0.444900
H121	H12	0.953200	0.574600	0.406200
C371	C37	0.879100	0.736600	0.202300
C381	C38	0.949300	0.760400	0.158600
C391	C39	0.025000	0.805300	0.191800
C401	C40	0.947800	0.741400	0.080000
C411	C41	0.880400	0.694600	0.043400
H131	H13	0.831600	0.675100	0.069600
C421	C42	0.884400	0.676200	0.969400
H141	H14	0.836700	0.645000	0.945600
C431	C43	0.955900	0.702100	0.929000
C441	C44	0.023200	0.748200	0.965500
H151	H15	0.073600	0.766600	0.939700
C451	C45	0.018200	0.768000	0.038900
H161	H16	0.064000	0.800400	0.061700
C461	C46	0.961300	0.684300	0.850000
C471	C47	0.891500	0.640600	0.809700
C481	C48	0.033500	0.715700	0.814600
Cu31	Cu3	0.702990	0.688030	0.284390
Cu41	Cu4	0.313710	0.416080	0.287780
N91	N9	0.616200	0.623700	0.220400
N101	N10	0.386100	0.476270	0.234000
N111	N11	0.754900	0.651200	0.387600
N121	N12	0.714200	0.569940	0.608800
N131	N13	0.818800	0.716640	0.236400
N141	N14	0.091200	0.841500	0.212200
N151	N15	0.831900	0.604700	0.778000
N161	N16	0.095100	0.745690	0.792300
C491	C49	0.061900	0.915400	0.691100
C501	C50	0.996800	0.963400	0.655100
C511	C51	0.937000	0.996200	0.699100
C521	C52	0.997000	0.981000	0.576000
C531	C53	0.066100	0.953700	0.534700
H171	H17	0.112800	0.921800	0.557900
C541	C54	0.931600	0.028200	0.539200
H181	H18	0.884000	0.048400	0.565800
C551	C55	0.280100	0.882000	0.939000
C561	C56	0.313700	0.923400	0.999000
C571	C57	0.256900	0.926600	0.058300
C581	C58	0.407700	0.962300	0.999700
C591	C59	0.439800	0.007700	0.055100
H191	H19	0.399400	0.013800	0.093700
C601	C60	0.471700	0.956000	0.944900
H201	H20	0.453200	0.925400	0.906200
C611	C61	0.379100	0.763400	0.702300
C621	C62	0.449300	0.739600	0.658600
C631	C63	0.525000	0.694700	0.691800
C641	C64	0.447800	0.758600	0.580000
C651	C65	0.380400	0.805400	0.543400
H211	H21	0.331600	0.824900	0.569600
C661	C66	0.384400	0.823800	0.469400
H221	H22	0.336700	0.855000	0.445600
C671	C67	0.455900	0.797900	0.429000
C681	C68	0.523200	0.751800	0.465500
H231	H23	0.573600	0.733400	0.439700
C691	C69	0.518200	0.732000	0.538900
H241	H24	0.564000	0.699600	0.561700
C701	C70	0.461300	0.815700	0.350000
C711	C71	0.391500	0.859400	0.309700
C721	C72	0.533500	0.784300	0.314600
Cu51	Cu5	0.202990	0.811970	0.784390
Cu61	Cu6	0.813710	0.083920	0.787780
N171	N17	0.116200	0.876300	0.720400
N181	N18	0.886100	0.023730	0.734000
N191	N19	0.254900	0.848800	0.887600
N201	N20	0.214200	0.930060	0.108800
N211	N21	0.318800	0.783360	0.736400
N221	N22	0.591200	0.658500	0.712200
N231	N23	0.331900	0.895300	0.278000
N241	N24	0.595100	0.754310	0.292300
C731	C73	0.438100	0.415400	0.808900
C741	C74	0.503200	0.463400	0.844900
C751	C75	0.563000	0.496200	0.800900
C761	C76	0.503000	0.481000	0.924000
C771	C77	0.433900	0.453700	0.965300
H251	H25	0.387200	0.421800	0.942100
C781	C78	0.568400	0.528200	0.960800
H261	H26	0.616000	0.548400	0.934200
C791	C79	0.219900	0.382000	0.561000
C801	C80	0.186300	0.423400	0.501000
C811	C81	0.243100	0.426600	0.441700
C821	C82	0.092300	0.462300	0.500300
C831	C83	0.060200	0.507700	0.444900
H271	H27	0.100600	0.513800	0.406300
C841	C84	0.028300	0.456000	0.555100
H281	H28	0.046800	0.425400	0.593800
C851	C85	0.120900	0.263400	0.797700
C861	C86	0.050700	0.239600	0.841400
C871	C87	0.975000	0.194700	0.808200
C881	C88	0.052200	0.258600	0.920000
C891	C89	0.119600	0.305400	0.956600
H291	H29	0.168400	0.324900	0.930400
C901	C90	0.115600	0.323800	0.030600
H301	H30	0.163300	0.355000	0.054400
C911	C91	0.044100	0.297900	0.071000
C921	C92	0.976800	0.251800	0.034500
H311	H31	0.926400	0.233400	0.060300
C931	C93	0.981800	0.232000	0.961100
H321	H32	0.936000	0.199600	0.938300
C941	C94	0.038700	0.315700	0.150000
C951	C95	0.108500	0.359400	0.190300
C961	C96	0.966500	0.284300	0.185400
Cu71	Cu7	0.297010	0.311970	0.715610
Cu81	Cu8	0.686290	0.583920	0.712220
N251	N25	0.383800	0.376300	0.779600
N261	N26	0.613900	0.523730	0.766000
N271	N27	0.245100	0.348800	0.612400
N281	N28	0.285800	0.430060	0.391200
N291	N29	0.181200	0.283360	0.763600
N301	N30	0.908800	0.158500	0.787800
N311	N31	0.168100	0.395300	0.222000
N321	N32	0.904900	0.254310	0.207700
