data_CUSZIB_freeONLY_PM
_symmetry_space_group_name_H-M	'P1'
_cell_length_a	9.756300
_cell_length_b	11.241300
_cell_length_c	21.595700
_cell_angle_alpha	90.000000
_cell_angle_beta	90.000000
_cell_angle_gamma	90.000000
_symmetry_Int_Tables_number 1

loop_
_symmetry_equiv_pos_as_xyz
'x,y,z'

loop_
_atom_site_label
_atom_site_type_symbol
_atom_site_fract_x
_atom_site_fract_y
_atom_site_fract_z
C11	C1	0.105700	0.940700	0.332580
C21	C2	0.025600	0.019900	0.367000
C31	C3	0.952400	0.104000	0.333290
C41	C4	0.012000	0.009300	0.434750
C51	C5	0.084100	0.923100	0.467880
H11	H1	0.141100	0.870600	0.446700
C61	C6	0.927500	0.086100	0.468230
H21	H2	0.878100	0.144400	0.447400
N11	N1	0.169300	0.875300	0.303360
N21	N2	0.891000	0.172400	0.304580
C71	C7	0.394300	0.559300	0.332580
C81	C8	0.474400	0.480100	0.367000
C91	C9	0.547600	0.396000	0.333290
C101	C10	0.488000	0.490700	0.434750
C111	C11	0.415900	0.576900	0.467880
H31	H3	0.358900	0.629400	0.446700
C121	C12	0.572500	0.413900	0.468230
H41	H4	0.621900	0.355600	0.447400
N31	N3	0.330700	0.624700	0.303360
N41	N4	0.609000	0.327600	0.304580
C131	C13	0.894300	0.440700	0.167420
C141	C14	0.974400	0.519900	0.133000
C151	C15	0.047600	0.604000	0.166710
C161	C16	0.988000	0.509300	0.065250
C171	C17	0.915900	0.423100	0.032120
H51	H5	0.858900	0.370600	0.053300
C181	C18	0.072500	0.586100	0.031770
H61	H6	0.121900	0.644400	0.052600
N51	N5	0.830700	0.375300	0.196640
N61	N6	0.109000	0.672400	0.195420
C191	C19	0.605700	0.059300	0.167420
C201	C20	0.525600	0.980100	0.133000
C211	C21	0.452400	0.896000	0.166710
C221	C22	0.512000	0.990700	0.065250
C231	C23	0.584100	0.076900	0.032120
H71	H7	0.641100	0.129400	0.053300
C241	C24	0.427500	0.913900	0.031770
H81	H8	0.378100	0.855600	0.052600
N71	N7	0.669300	0.124700	0.196640
N81	N8	0.391000	0.827600	0.195420
C251	C25	0.894300	0.059300	0.667420
C261	C26	0.974400	0.980100	0.633000
C271	C27	0.047600	0.896000	0.666710
C281	C28	0.988000	0.990700	0.565250
C291	C29	0.915900	0.076900	0.532120
H91	H9	0.858900	0.129400	0.553300
C301	C30	0.072500	0.913900	0.531770
H101	H10	0.121900	0.855600	0.552600
N91	N9	0.830700	0.124700	0.696640
N101	N10	0.109000	0.827600	0.695420
C311	C31	0.605700	0.440700	0.667420
C321	C32	0.525600	0.519900	0.633000
C331	C33	0.452400	0.604000	0.666710
C341	C34	0.512000	0.509300	0.565250
C351	C35	0.584100	0.423100	0.532120
H111	H11	0.641100	0.370600	0.553300
C361	C36	0.427500	0.586100	0.531770
H121	H12	0.378100	0.644400	0.552600
N111	N11	0.669300	0.375300	0.696640
N121	N12	0.391000	0.672400	0.695420
C371	C37	0.105700	0.559300	0.832580
C381	C38	0.025600	0.480100	0.867000
C391	C39	0.952400	0.396000	0.833290
C401	C40	0.012000	0.490700	0.934750
C411	C41	0.084100	0.576900	0.967880
H131	H13	0.141100	0.629400	0.946700
C421	C42	0.927500	0.413900	0.968230
H141	H14	0.878100	0.355600	0.947400
N131	N13	0.169300	0.624700	0.803360
N141	N14	0.891000	0.327600	0.804580
C431	C43	0.394300	0.940700	0.832580
C441	C44	0.474400	0.019900	0.867000
C451	C45	0.547600	0.104000	0.833290
C461	C46	0.488000	0.009300	0.934750
C471	C47	0.415900	0.923100	0.967880
H151	H15	0.358900	0.870600	0.946700
C481	C48	0.572500	0.086100	0.968230
H161	H16	0.621900	0.144400	0.947400
N151	N15	0.330700	0.875300	0.803360
N161	N16	0.609000	0.172400	0.804580
Cu11	Cu1	0.250000	0.750000	0.249190
Cu21	Cu2	0.750000	0.250000	0.250810
Cu31	Cu3	0.750000	0.250000	0.750810
Cu41	Cu4	0.250000	0.750000	0.749190
