data_CUTGII_freeONLY_PM
_symmetry_space_group_name_H-M	'P1'
_cell_length_a	10.100000
_cell_length_b	10.796000
_cell_length_c	10.982000
_cell_angle_alpha	90.000000
_cell_angle_beta	90.000000
_cell_angle_gamma	90.000000
_symmetry_Int_Tables_number 1

loop_
_symmetry_equiv_pos_as_xyz
'x,y,z'

loop_
_atom_site_label
_atom_site_type_symbol
_atom_site_fract_x
_atom_site_fract_y
_atom_site_fract_z
Co11	Co1	0.354340	0.001720	0.285910
P11	P1	0.357970	0.029940	0.567790
P21	P2	0.431940	0.733150	0.205130
O11	O1	0.463940	0.868410	0.224300
O21	O2	0.300920	0.973300	0.682620
O31	O3	0.507880	0.024700	0.571240
O41	O4	0.309800	0.691300	0.274170
O51	O5	0.553300	0.657500	0.231900
O61	O6	0.299700	0.972100	0.454400
H11	H1	0.332000	0.159900	0.567000
H21	H2	0.404000	0.725000	0.078100
Co21	Co2	0.145660	0.998280	0.785910
P31	P3	0.142030	0.970060	0.067790
P41	P4	0.068060	0.266850	0.705130
O71	O7	0.036060	0.131590	0.724300
O81	O8	0.199080	0.026700	0.182620
O91	O9	0.992120	0.975300	0.071240
O101	O10	0.190200	0.308700	0.774170
O111	O11	0.946700	0.342500	0.731900
O121	O12	0.200300	0.027900	0.954400
H31	H3	0.168000	0.840100	0.067000
H41	H4	0.096000	0.275000	0.578100
Co31	Co3	0.645660	0.501720	0.214090
P51	P5	0.642030	0.529940	0.932210
P61	P6	0.568060	0.233150	0.294870
O131	O13	0.536060	0.368410	0.275700
O141	O14	0.699080	0.473300	0.817380
O151	O15	0.492120	0.524700	0.928760
O161	O16	0.690200	0.191300	0.225830
O171	O17	0.446700	0.157500	0.268100
O181	O18	0.700300	0.472100	0.045600
H51	H5	0.668000	0.659900	0.933000
H61	H6	0.596000	0.225000	0.421900
Co41	Co4	0.854340	0.498280	0.714090
P71	P7	0.857970	0.470060	0.432210
P81	P8	0.931940	0.766850	0.794870
O191	O19	0.963940	0.631590	0.775700
O201	O20	0.800920	0.526700	0.317380
O211	O21	0.007880	0.475300	0.428760
O221	O22	0.809800	0.808700	0.725830
O231	O23	0.053300	0.842500	0.768100
O241	O24	0.799700	0.527900	0.545600
H71	H7	0.832000	0.340100	0.433000
H81	H8	0.904000	0.775000	0.921900
