data_CUTGEE_freeONLY_PM
_symmetry_space_group_name_H-M	'P1'
_cell_length_a	10.104000
_cell_length_b	10.810000
_cell_length_c	10.993000
_cell_angle_alpha	90.000000
_cell_angle_beta	90.000000
_cell_angle_gamma	90.000000
_symmetry_Int_Tables_number 1

loop_
_symmetry_equiv_pos_as_xyz
'x,y,z'

loop_
_atom_site_label
_atom_site_type_symbol
_atom_site_fract_x
_atom_site_fract_y
_atom_site_fract_z
O11	O1	0.200190	0.027580	0.545620
O21	O2	0.553400	0.657580	0.268200
O31	O3	0.309650	0.691530	0.225550
O41	O4	0.199180	0.026420	0.317190
O51	O5	0.991660	0.975900	0.428450
O61	O6	0.463620	0.868340	0.276100
P11	P1	0.141810	0.970250	0.432130
P21	P2	0.431540	0.733200	0.294750
Co11	Co1	0.354450	0.001840	0.214050
H11	H1	0.168000	0.846900	0.434000
H21	H2	0.405000	0.723000	0.416600
O71	O7	0.299810	0.972420	0.045620
O81	O8	0.946600	0.342420	0.768200
O91	O9	0.190350	0.308470	0.725550
O101	O10	0.300820	0.973580	0.817190
O111	O11	0.508340	0.024100	0.928450
O121	O12	0.036380	0.131660	0.776100
P31	P3	0.358190	0.029750	0.932130
P41	P4	0.068460	0.266800	0.794750
Co21	Co2	0.145550	0.998160	0.714050
H31	H3	0.332000	0.153100	0.934000
H41	H4	0.095000	0.277000	0.916600
O131	O13	0.799810	0.527580	0.954380
O141	O14	0.446600	0.157580	0.231800
O151	O15	0.690350	0.191530	0.274450
O161	O16	0.800820	0.526420	0.182810
O171	O17	0.008340	0.475900	0.071550
O181	O18	0.536380	0.368340	0.223900
P51	P5	0.858190	0.470250	0.067870
P61	P6	0.568460	0.233200	0.205250
Co31	Co3	0.645550	0.501840	0.285950
H51	H5	0.832000	0.346900	0.066000
H61	H6	0.595000	0.223000	0.083400
O191	O19	0.700190	0.472420	0.454380
O201	O20	0.053400	0.842420	0.731800
O211	O21	0.809650	0.808470	0.774450
O221	O22	0.699180	0.473580	0.682810
O231	O23	0.491660	0.524100	0.571550
O241	O24	0.963620	0.631660	0.723900
P71	P7	0.641810	0.529750	0.567870
P81	P8	0.931540	0.766800	0.705250
Co41	Co4	0.854450	0.498160	0.785950
H71	H7	0.668000	0.653100	0.566000
H81	H8	0.905000	0.777000	0.583400
