data_CUVGIK_freeONLY_PM
_symmetry_space_group_name_H-M	'P1'
_cell_length_a	5.565500
_cell_length_b	9.370200
_cell_length_c	11.754300
_cell_angle_alpha	94.321000
_cell_angle_beta	96.734000
_cell_angle_gamma	100.837000
_symmetry_Int_Tables_number 1

loop_
_symmetry_equiv_pos_as_xyz
'x,y,z'

loop_
_atom_site_label
_atom_site_type_symbol
_atom_site_fract_x
_atom_site_fract_y
_atom_site_fract_z
Mn11	Mn1	0.000000	0.000000	0.000000
H11	H1	0.180600	0.324500	0.913200
H21	H2	0.345000	0.568800	0.909900
H31	H3	0.288600	0.912900	0.791100
H41	H4	0.280600	0.898400	0.596100
H51	H5	0.748700	0.115700	0.774900
H61	H6	0.731400	0.112600	0.580000
H71	H7	0.819400	0.675500	0.086800
H81	H8	0.655000	0.431200	0.090100
H91	H9	0.711400	0.087100	0.208900
H101	H10	0.719400	0.101600	0.403900
H111	H11	0.251300	0.884300	0.225100
H121	H12	0.268600	0.887400	0.420000
C11	C1	0.107300	0.394400	0.948250
C21	C2	0.572700	0.166400	0.020260
C31	C3	0.206100	0.541700	0.946230
C41	C4	0.003500	0.003000	0.563200
C51	C5	0.899000	0.350300	0.002370
C61	C6	0.170200	0.952100	0.748100
C71	C7	0.168500	0.944100	0.629900
C81	C8	0.858500	0.070200	0.738900
C91	C9	0.846500	0.068800	0.620700
C101	C10	0.892700	0.605600	0.051750
C111	C11	0.427300	0.833600	0.979740
C121	C12	0.793900	0.458300	0.053770
C131	C13	0.996500	0.997000	0.436800
C141	C14	0.101000	0.649700	0.997630
C151	C15	0.829800	0.047900	0.251900
C161	C16	0.831500	0.055900	0.370100
C171	C17	0.141500	0.929800	0.261100
C181	C18	0.153500	0.931200	0.379300
N11	N1	0.014700	0.011600	0.803870
N21	N2	0.367600	0.131980	0.038020
N31	N3	0.800400	0.198000	0.001880
N41	N4	0.985300	0.988400	0.196130
N51	N5	0.632400	0.868020	0.961980
N61	N6	0.199600	0.802000	0.998120
