data_CUVTUJ_freeONLY_PM
_symmetry_space_group_name_H-M	'P1'
_cell_length_a	6.820190
_cell_length_b	15.131600
_cell_length_c	15.131600
_cell_angle_alpha	62.215900
_cell_angle_beta	81.359100
_cell_angle_gamma	98.640900
_symmetry_Int_Tables_number 1

loop_
_symmetry_equiv_pos_as_xyz
'x,y,z'

loop_
_atom_site_label
_atom_site_type_symbol
_atom_site_fract_x
_atom_site_fract_y
_atom_site_fract_z
Co11	Co1	0.802080	0.265830	0.322990
Co21	Co2	0.125070	0.322990	0.411180
Co31	Co3	0.536250	0.411180	0.265830
Co41	Co4	0.197920	0.734170	0.677010
Co51	Co5	0.874930	0.677010	0.588820
Co61	Co6	0.463750	0.588820	0.734170
H11	H1	0.825670	0.468860	0.551580
H21	H2	0.377250	0.551580	0.979560
H31	H3	0.356810	0.979560	0.468860
H41	H4	0.174330	0.531140	0.448420
H51	H5	0.622750	0.448420	0.020440
H61	H6	0.643190	0.020440	0.531140
C11	C1	0.743540	0.388340	0.437670
C21	C2	0.615010	0.446200	0.465620
C31	C3	0.431650	0.464970	0.432760
C41	C4	0.678460	0.481580	0.528720
C51	C5	0.181210	0.437670	0.173990
C61	C6	0.080630	0.465620	0.088180
C71	C7	0.864410	0.432760	0.102270
C81	C8	0.207180	0.528720	0.989700
C91	C9	0.355200	0.173990	0.388340
C101	C10	0.168810	0.088180	0.446200
C111	C11	0.966680	0.102270	0.464970
C121	C12	0.196880	0.989700	0.481580
C131	C13	0.256460	0.611660	0.562330
C141	C14	0.384990	0.553800	0.534380
C151	C15	0.568350	0.535030	0.567240
C161	C16	0.321540	0.518420	0.471280
C171	C17	0.818790	0.562330	0.826010
C181	C18	0.919370	0.534380	0.911820
C191	C19	0.135590	0.567240	0.897730
C201	C20	0.792820	0.471280	0.010300
C211	C21	0.644800	0.826010	0.611660
C221	C22	0.831190	0.911820	0.553800
C231	C23	0.033320	0.897730	0.535030
C241	C24	0.803120	0.010300	0.518420
O11	O1	0.693080	0.364050	0.374290
O21	O2	0.900650	0.372510	0.472810
O31	O3	0.359220	0.438520	0.368990
O41	O4	0.067370	0.374290	0.261660
O51	O5	0.373460	0.472810	0.154680
O61	O6	0.728210	0.368990	0.192490
O71	O7	0.329030	0.261660	0.364050
O81	O8	0.528140	0.154680	0.372510
O91	O9	0.920700	0.192490	0.438520
O101	O10	0.306920	0.635950	0.625710
O111	O11	0.099350	0.627490	0.527190
O121	O12	0.640780	0.561480	0.631010
O131	O13	0.932630	0.625710	0.738340
O141	O14	0.626540	0.527190	0.845320
O151	O15	0.271790	0.631010	0.807510
O161	O16	0.670970	0.738340	0.635950
O171	O17	0.471860	0.845320	0.627490
O181	O18	0.079300	0.807510	0.561480
