data_CUXDUU_freeONLY_PM
_symmetry_space_group_name_H-M	'P1'
_cell_length_a	9.601000
_cell_length_b	9.757000
_cell_length_c	10.701000
_cell_angle_alpha	74.200000
_cell_angle_beta	75.010000
_cell_angle_gamma	88.480000
_symmetry_Int_Tables_number 1

loop_
_symmetry_equiv_pos_as_xyz
'x,y,z'

loop_
_atom_site_label
_atom_site_type_symbol
_atom_site_fract_x
_atom_site_fract_y
_atom_site_fract_z
Ga11	Ga1	0.223400	0.789300	0.833200
Ga21	Ga2	0.477900	0.217100	0.936000
Ga31	Ga3	0.181200	0.952000	0.342600
Ga41	Ga4	0.976800	0.493900	0.865800
P11	P1	0.498200	0.974300	0.787300
P21	P2	0.283700	0.481500	0.902400
P31	P3	0.023500	0.792600	0.642100
P41	P4	0.181600	0.783400	0.132400
O11	O1	0.177400	0.446000	0.831100
O21	O2	0.417700	0.393400	0.877500
O31	O3	0.186000	0.855800	0.985500
O41	O4	0.434500	0.083500	0.862300
O51	O5	0.383900	0.922300	0.736400
O61	O6	0.342900	0.637200	0.834800
O71	O7	0.987400	0.634700	0.699700
O81	O8	0.091900	0.817600	0.491900
O91	O9	0.042800	0.644000	0.943200
O101	O10	0.220000	0.459600	0.053400
O111	O11	0.124000	0.854400	0.704400
O121	O12	0.330400	0.732100	0.145600
O131	O13	0.140100	0.902100	0.203300
O141	O14	0.626900	0.040900	0.668700
O151	O15	0.556000	0.850400	0.882200
O161	O16	0.074100	0.658700	0.196800
O171	O17	0.880000	0.870600	0.659800
H11	H1	0.965900	0.704300	0.970800
Ga51	Ga5	0.776600	0.210700	0.166800
Ga61	Ga6	0.522100	0.782900	0.064000
Ga71	Ga7	0.818800	0.048000	0.657400
Ga81	Ga8	0.023200	0.506100	0.134200
P51	P5	0.501800	0.025700	0.212700
P61	P6	0.716300	0.518500	0.097600
P71	P7	0.976500	0.207400	0.357900
P81	P8	0.818400	0.216600	0.867600
O181	O18	0.822600	0.554000	0.168900
O191	O19	0.582300	0.606600	0.122500
O201	O20	0.814000	0.144200	0.014500
O211	O21	0.565500	0.916500	0.137700
O221	O22	0.616100	0.077700	0.263600
O231	O23	0.657100	0.362800	0.165200
O241	O24	0.012600	0.365300	0.300300
O251	O25	0.908100	0.182400	0.508100
O261	O26	0.957200	0.356000	0.056800
O271	O27	0.780000	0.540400	0.946600
O281	O28	0.876000	0.145600	0.295600
O291	O29	0.669600	0.267900	0.854400
O301	O30	0.859900	0.097900	0.796700
O311	O31	0.373100	0.959100	0.331300
O321	O32	0.444000	0.149600	0.117800
O331	O33	0.925900	0.341300	0.803200
O341	O34	0.120000	0.129400	0.340200
H21	H2	0.034100	0.295700	0.029200
