data_CUYWUP_freeONLY_PM
_symmetry_space_group_name_H-M	'P1'
_cell_length_a	10.675300
_cell_length_b	17.844000
_cell_length_c	27.353000
_cell_angle_alpha	90.000000
_cell_angle_beta	90.000000
_cell_angle_gamma	90.000000
_symmetry_Int_Tables_number 1

loop_
_symmetry_equiv_pos_as_xyz
'x,y,z'

loop_
_atom_site_label
_atom_site_type_symbol
_atom_site_fract_x
_atom_site_fract_y
_atom_site_fract_z
Cu11	Cu1	0.438870	0.939790	0.513220
Cu21	Cu2	0.438870	0.060210	0.986780
Cu31	Cu3	0.061130	0.439790	0.986780
Cu41	Cu4	0.061130	0.560210	0.513220
Cu51	Cu5	0.561130	0.060210	0.486780
Cu61	Cu6	0.561130	0.939790	0.013220
Cu71	Cu7	0.938870	0.560210	0.013220
Cu81	Cu8	0.938870	0.439790	0.486780
H11	H1	0.259400	0.180100	0.424500
H21	H2	0.079500	0.236800	0.393800
H31	H3	0.885300	0.051900	0.427200
H41	H4	0.064300	0.999400	0.462100
H51	H5	0.938800	0.235700	0.336200
H61	H6	0.877600	0.283300	0.378100
H71	H7	0.806500	0.170300	0.276600
H81	H8	0.712300	0.137900	0.315700
H91	H9	0.483500	0.229100	0.196600
H101	H10	0.464400	0.179700	0.120200
H111	H11	0.687200	0.010200	0.159200
H121	H12	0.731300	0.069800	0.231700
H131	H13	0.393800	0.793900	0.519600
H141	H14	0.264100	0.834000	0.513400
H151	H15	0.259400	0.819900	0.075500
H161	H16	0.079500	0.763200	0.106200
H171	H17	0.885300	0.948100	0.072800
H181	H18	0.064300	0.000600	0.037900
H191	H19	0.938800	0.764300	0.163800
H201	H20	0.877600	0.716700	0.121900
H211	H21	0.806500	0.829700	0.223400
H221	H22	0.712300	0.862100	0.184300
H231	H23	0.483500	0.770900	0.303400
H241	H24	0.464400	0.820300	0.379800
H251	H25	0.687200	0.989800	0.340800
H261	H26	0.731300	0.930200	0.268300
H271	H27	0.393800	0.206100	0.980400
H281	H28	0.264100	0.166000	0.986600
H291	H29	0.240600	0.680100	0.075500
H301	H30	0.420500	0.736800	0.106200
H311	H31	0.614700	0.551900	0.072800
H321	H32	0.435700	0.499400	0.037900
H331	H33	0.561200	0.735700	0.163800
H341	H34	0.622400	0.783300	0.121900
H351	H35	0.693500	0.670300	0.223400
H361	H36	0.787700	0.637900	0.184300
H371	H37	0.016500	0.729100	0.303400
H381	H38	0.035600	0.679700	0.379800
H391	H39	0.812800	0.510200	0.340800
H401	H40	0.768700	0.569800	0.268300
H411	H41	0.106200	0.293900	0.980400
H421	H42	0.235900	0.334000	0.986600
H431	H43	0.240600	0.319900	0.424500
H441	H44	0.420500	0.263200	0.393800
H451	H45	0.614700	0.448100	0.427200
H461	H46	0.435700	0.500600	0.462100
H471	H47	0.561200	0.264300	0.336200
H481	H48	0.622400	0.216700	0.378100
H491	H49	0.693500	0.329700	0.276600
H501	H50	0.787700	0.362100	0.315700
H511	H51	0.016500	0.270900	0.196600
H521	H52	0.035600	0.320300	0.120200
H531	H53	0.812800	0.489800	0.159200
H541	H54	0.768700	0.430200	0.231700
H551	H55	0.106200	0.706100	0.519600
H561	H56	0.235900	0.666000	0.513400
H571	H57	0.740600	0.819900	0.575500
H581	H58	0.920500	0.763200	0.606200
H591	H59	0.114700	0.948100	0.572800
H601	H60	0.935700	0.000600	0.537900
H611	H61	0.061200	0.764300	0.663800
H621	H62	0.122400	0.716700	0.621900
H631	H63	0.193500	0.829700	0.723400
H641	H64	0.287700	0.862100	0.684300
H651	H65	0.516500	0.770900	0.803400
H661	H66	0.535600	0.820300	0.879800
H671	H67	0.312800	0.989800	0.840800
H681	H68	0.268700	0.930200	0.768300
H691	H69	0.606200	0.206100	0.480400
H701	H70	0.735900	0.166000	0.486600
H711	H71	0.740600	0.180100	0.924500
H721	H72	0.920500	0.236800	0.893800
H731	H73	0.114700	0.051900	0.927200
H741	H74	0.935700	0.999400	0.962100
H751	H75	0.061200	0.235700	0.836200
H761	H76	0.122400	0.283300	0.878100
H771	H77	0.193500	0.170300	0.776600
H781	H78	0.287700	0.137900	0.815700
H791	H79	0.516500	0.229100	0.696600
H801	H80	0.535600	0.179700	0.620200
H811	H81	0.312800	0.010200	0.659200
H821	H82	0.268700	0.069800	0.731700
H831	H83	0.606200	0.793900	0.019600
H841	H84	0.735900	0.834000	0.013400
H851	H85	0.759400	0.319900	0.924500
H861	H86	0.579500	0.263200	0.893800
H871	H87	0.385300	0.448100	0.927200
H881	H88	0.564300	0.500600	0.962100
H891	H89	0.438800	0.264300	0.836200
H901	H90	0.377600	0.216700	0.878100
H911	H91	0.306500	0.329700	0.776600
H921	H92	0.212300	0.362100	0.815700
H931	H93	0.983500	0.270900	0.696600
H941	H94	0.964400	0.320300	0.620200
H951	H95	0.187200	0.489800	0.659200
H961	H96	0.231300	0.430200	0.731700
H971	H97	0.893800	0.706100	0.019600
H981	H98	0.764100	0.666000	0.013400
H991	H99	0.759400	0.680100	0.575500
H1001	H100	0.579500	0.736800	0.606200
H1011	H101	0.385300	0.551900	0.572800
H1021	H102	0.564300	0.499400	0.537900
H1031	H103	0.438800	0.735700	0.663800
H1041	H104	0.377600	0.783300	0.621900
H1051	H105	0.306500	0.670300	0.723400
H1061	H106	0.212300	0.637900	0.684300
H1071	H107	0.983500	0.729100	0.803400
H1081	H108	0.964400	0.679700	0.879800
H1091	H109	0.187200	0.510200	0.840800
H1101	H110	0.231300	0.569800	0.768300
H1111	H111	0.893800	0.293900	0.480400
H1121	H112	0.764100	0.334000	0.486600
C11	C1	0.298300	0.052750	0.467600
C21	C2	0.181000	0.085960	0.446550
C31	C3	0.183700	0.154460	0.425910
C41	C4	0.076200	0.188470	0.406400
C51	C5	0.963900	0.147940	0.406340
C61	C6	0.960200	0.078500	0.426900
C71	C7	0.068100	0.046530	0.447700
C81	C8	0.866200	0.239850	0.357290
C91	C9	0.731500	0.180990	0.295390
C101	C10	0.616400	0.159030	0.219880
C111	C11	0.531000	0.187540	0.187830
C121	C12	0.514700	0.155840	0.143230
C131	C13	0.570600	0.089920	0.131660
C141	C14	0.650900	0.056350	0.166090
C151	C15	0.675800	0.091040	0.209450
C161	C16	0.547600	0.053850	0.082930
C171	C17	0.298300	0.947250	0.032400
C181	C18	0.181000	0.914040	0.053450
C191	C19	0.183700	0.845540	0.074090
C201	C20	0.076200	0.811530	0.093600
C211	C21	0.963900	0.852060	0.093660
C221	C22	0.960200	0.921500	0.073100
C231	C23	0.068100	0.953470	0.052300
C241	C24	0.866200	0.760150	0.142710
C251	C25	0.731500	0.819010	0.204610
C261	C26	0.616400	0.840970	0.280120
C271	C27	0.531000	0.812460	0.312170
C281	C28	0.514700	0.844160	0.356770
C291	C29	0.570600	0.910080	0.368340
C301	C30	0.650900	0.943650	0.333910
C311	C31	0.675800	0.908960	0.290550
C321	C32	0.547600	0.946150	0.417070
C331	C33	0.201700	0.552750	0.032400
C341	C34	0.319000	0.585960	0.053450
C351	C35	0.316300	0.654460	0.074090
C361	C36	0.423800	0.688470	0.093600
C371	C37	0.536100	0.647940	0.093660
C381	C38	0.539800	0.578500	0.073100
C391	C39	0.431900	0.546530	0.052300
C401	C40	0.633800	0.739850	0.142710
C411	C41	0.768500	0.680990	0.204610
C421	C42	0.883600	0.659030	0.280120
C431	C43	0.969000	0.687540	0.312170
C441	C44	0.985300	0.655840	0.356770
C451	C45	0.929400	0.589920	0.368340
C461	C46	0.849100	0.556350	0.333910
C471	C47	0.824200	0.591040	0.290550
C481	C48	0.952400	0.553850	0.417070
C491	C49	0.201700	0.447250	0.467600
C501	C50	0.319000	0.414040	0.446550
C511	C51	0.316300	0.345540	0.425910
C521	C52	0.423800	0.311530	0.406400
C531	C53	0.536100	0.352060	0.406340
C541	C54	0.539800	0.421500	0.426900
C551	C55	0.431900	0.453470	0.447700
C561	C56	0.633800	0.260150	0.357290
C571	C57	0.768500	0.319010	0.295390
C581	C58	0.883600	0.340970	0.219880
C591	C59	0.969000	0.312460	0.187830
C601	C60	0.985300	0.344160	0.143230
C611	C61	0.929400	0.410080	0.131660
C621	C62	0.849100	0.443650	0.166090
C631	C63	0.824200	0.408960	0.209450
C641	C64	0.952400	0.446150	0.082930
C651	C65	0.701700	0.947250	0.532400
C661	C66	0.819000	0.914040	0.553450
C671	C67	0.816300	0.845540	0.574090
C681	C68	0.923800	0.811530	0.593600
C691	C69	0.036100	0.852060	0.593660
C701	C70	0.039800	0.921500	0.573100
C711	C71	0.931900	0.953470	0.552300
C721	C72	0.133800	0.760150	0.642710
C731	C73	0.268500	0.819010	0.704610
C741	C74	0.383600	0.840970	0.780120
C751	C75	0.469000	0.812460	0.812170
C761	C76	0.485300	0.844160	0.856770
C771	C77	0.429400	0.910080	0.868340
C781	C78	0.349100	0.943650	0.833910
C791	C79	0.324200	0.908960	0.790550
C801	C80	0.452400	0.946150	0.917070
C811	C81	0.701700	0.052750	0.967600
C821	C82	0.819000	0.085960	0.946550
C831	C83	0.816300	0.154460	0.925910
C841	C84	0.923800	0.188470	0.906400
C851	C85	0.036100	0.147940	0.906340
C861	C86	0.039800	0.078500	0.926900
C871	C87	0.931900	0.046530	0.947700
C881	C88	0.133800	0.239850	0.857290
C891	C89	0.268500	0.180990	0.795390
C901	C90	0.383600	0.159030	0.719880
C911	C91	0.469000	0.187540	0.687830
C921	C92	0.485300	0.155840	0.643230
C931	C93	0.429400	0.089920	0.631660
C941	C94	0.349100	0.056350	0.666090
C951	C95	0.324200	0.091040	0.709450
C961	C96	0.452400	0.053850	0.582930
C971	C97	0.798300	0.447250	0.967600
C981	C98	0.681000	0.414040	0.946550
C991	C99	0.683700	0.345540	0.925910
C1001	C100	0.576200	0.311530	0.906400
C1011	C101	0.463900	0.352060	0.906340
C1021	C102	0.460200	0.421500	0.926900
C1031	C103	0.568100	0.453470	0.947700
C1041	C104	0.366200	0.260150	0.857290
C1051	C105	0.231500	0.319010	0.795390
C1061	C106	0.116400	0.340970	0.719880
C1071	C107	0.031000	0.312460	0.687830
C1081	C108	0.014700	0.344160	0.643230
C1091	C109	0.070600	0.410080	0.631660
C1101	C110	0.150900	0.443650	0.666090
C1111	C111	0.175800	0.408960	0.709450
C1121	C112	0.047600	0.446150	0.582930
C1131	C113	0.798300	0.552750	0.532400
C1141	C114	0.681000	0.585960	0.553450
C1151	C115	0.683700	0.654460	0.574090
C1161	C116	0.576200	0.688470	0.593600
C1171	C117	0.463900	0.647940	0.593660
C1181	C118	0.460200	0.578500	0.573100
C1191	C119	0.568100	0.546530	0.552300
C1201	C120	0.366200	0.739850	0.642710
C1211	C121	0.231500	0.680990	0.704610
C1221	C122	0.116400	0.659030	0.780120
C1231	C123	0.031000	0.687540	0.812170
C1241	C124	0.014700	0.655840	0.856770
C1251	C125	0.070600	0.589920	0.868340
C1261	C126	0.150900	0.556350	0.833910
C1271	C127	0.175800	0.591040	0.790550
C1281	C128	0.047600	0.553850	0.917070
C1291	C129	0.750000	0.250000	0.326530
C1301	C130	0.750000	0.750000	0.173470
C1311	C131	0.250000	0.750000	0.673470
C1321	C132	0.250000	0.250000	0.826530
O11	O1	0.289770	0.989700	0.486740
O21	O2	0.395770	0.090600	0.463350
O31	O3	0.855930	0.173870	0.386940
O41	O4	0.627480	0.197970	0.263110
O51	O5	0.593780	0.989770	0.075720
O61	O6	0.483970	0.090900	0.053280
O71	O7	0.343200	0.835410	0.530080
O81	O8	0.289770	0.010300	0.013260
O91	O9	0.395770	0.909400	0.036650
O101	O10	0.855930	0.826130	0.113060
O111	O11	0.627480	0.802030	0.236890
O121	O12	0.593780	0.010230	0.424280
O131	O13	0.483970	0.909100	0.446720
O141	O14	0.343200	0.164590	0.969920
O151	O15	0.210230	0.489700	0.013260
O161	O16	0.104230	0.590600	0.036650
O171	O17	0.644070	0.673870	0.113060
O181	O18	0.872520	0.697970	0.236890
O191	O19	0.906220	0.489770	0.424280
O201	O20	0.016030	0.590900	0.446720
O211	O21	0.156800	0.335410	0.969920
O221	O22	0.210230	0.510300	0.486740
O231	O23	0.104230	0.409400	0.463350
O241	O24	0.644070	0.326130	0.386940
O251	O25	0.872520	0.302030	0.263110
O261	O26	0.906220	0.510230	0.075720
O271	O27	0.016030	0.409100	0.053280
O281	O28	0.156800	0.664590	0.530080
O291	O29	0.710230	0.010300	0.513260
O301	O30	0.604230	0.909400	0.536650
O311	O31	0.144070	0.826130	0.613060
O321	O32	0.372520	0.802030	0.736890
O331	O33	0.406220	0.010230	0.924280
O341	O34	0.516030	0.909100	0.946720
O351	O35	0.656800	0.164590	0.469920
O361	O36	0.710230	0.989700	0.986740
O371	O37	0.604230	0.090600	0.963350
O381	O38	0.144070	0.173870	0.886940
O391	O39	0.372520	0.197970	0.763110
O401	O40	0.406220	0.989770	0.575720
O411	O41	0.516030	0.090900	0.553280
O421	O42	0.656800	0.835410	0.030080
O431	O43	0.789770	0.510300	0.986740
O441	O44	0.895770	0.409400	0.963350
O451	O45	0.355930	0.326130	0.886940
O461	O46	0.127480	0.302030	0.763110
O471	O47	0.093780	0.510230	0.575720
O481	O48	0.983970	0.409100	0.553280
O491	O49	0.843200	0.664590	0.030080
O501	O50	0.789770	0.489700	0.513260
O511	O51	0.895770	0.590600	0.536650
O521	O52	0.355930	0.673870	0.613060
O531	O53	0.127480	0.697970	0.736890
O541	O54	0.093780	0.489770	0.924280
O551	O55	0.983970	0.590900	0.946720
O561	O56	0.843200	0.335410	0.469920
