data_DACFAR_freeONLY_PM
_symmetry_space_group_name_H-M	'P1'
_cell_length_a	13.088300
_cell_length_b	13.088300
_cell_length_c	26.793900
_cell_angle_alpha	90.000000
_cell_angle_beta	90.000000
_cell_angle_gamma	90.000000
_symmetry_Int_Tables_number 1

loop_
_symmetry_equiv_pos_as_xyz
'x,y,z'

loop_
_atom_site_label
_atom_site_type_symbol
_atom_site_fract_x
_atom_site_fract_y
_atom_site_fract_z
N11	N1	0.449900	0.904900	0.336880
O11	O1	0.280500	0.543200	0.583230
N21	N2	0.099200	0.455900	0.729180
C11	C1	0.385900	0.617600	0.462810
H11	H1	0.414100	0.586800	0.434700
C21	C2	0.351000	0.555700	0.502270
C31	C3	0.406200	0.786800	0.420980
C41	C4	0.379500	0.722900	0.464720
C51	C5	0.464000	0.748200	0.381840
H21	H2	0.489200	0.681800	0.383400
C61	C6	0.484400	0.808700	0.340310
H31	H3	0.522900	0.781700	0.314300
C71	C7	0.316000	0.605200	0.546130
C81	C8	0.345900	0.767700	0.508860
H41	H4	0.344300	0.838500	0.511300
C91	C9	0.370100	0.884100	0.416060
H51	H5	0.329500	0.912300	0.441000
C101	C10	0.393700	0.941800	0.373600
H61	H6	0.369000	0.008300	0.371200
C111	C11	0.133500	0.526100	0.696480
H71	H7	0.110000	0.592900	0.699300
C121	C12	0.201000	0.503500	0.659440
C131	C13	0.314900	0.710000	0.549020
H81	H8	0.293200	0.742000	0.578100
C141	C14	0.130200	0.359300	0.724100
H91	H9	0.106300	0.310200	0.746400
C151	C15	0.238400	0.586800	0.625700
H101	H10	0.182200	0.631200	0.616600
H111	H11	0.289500	0.627500	0.642800
C161	C16	0.195300	0.330800	0.687400
H121	H12	0.214400	0.262600	0.684600
C171	C17	0.233400	0.400700	0.654400
H131	H13	0.279000	0.381500	0.629400
N31	N3	0.550100	0.095100	0.336880
O21	O2	0.719500	0.456800	0.583230
N41	N4	0.900800	0.544100	0.729180
C181	C18	0.614100	0.382400	0.462810
H141	H14	0.585900	0.413200	0.434700
C191	C19	0.649000	0.444300	0.502270
C201	C20	0.593800	0.213200	0.420980
C211	C21	0.620500	0.277100	0.464720
C221	C22	0.536000	0.251800	0.381840
H151	H15	0.510800	0.318200	0.383400
C231	C23	0.515600	0.191300	0.340310
H161	H16	0.477100	0.218300	0.314300
C241	C24	0.684000	0.394800	0.546130
C251	C25	0.654100	0.232300	0.508860
H171	H17	0.655700	0.161500	0.511300
C261	C26	0.629900	0.115900	0.416060
H181	H18	0.670500	0.087700	0.441000
C271	C27	0.606300	0.058200	0.373600
H191	H19	0.631000	0.991700	0.371200
C281	C28	0.866500	0.473900	0.696480
H201	H20	0.890000	0.407100	0.699300
C291	C29	0.799000	0.496500	0.659440
C301	C30	0.685100	0.290000	0.549020
H211	H21	0.706800	0.258000	0.578100
C311	C31	0.869800	0.640700	0.724100
H221	H22	0.893700	0.689800	0.746400
C321	C32	0.761600	0.413200	0.625700
H231	H23	0.817800	0.368800	0.616600
H241	H24	0.710500	0.372500	0.642800
C331	C33	0.804700	0.669200	0.687400
H251	H25	0.785600	0.737400	0.684600
C341	C34	0.766600	0.599300	0.654400
H261	H26	0.721000	0.618500	0.629400
N51	N5	0.095100	0.449900	0.836880
O31	O3	0.456800	0.280500	0.083230
N61	N6	0.544100	0.099200	0.229180
C351	C35	0.382400	0.385900	0.962810
H271	H27	0.413200	0.414100	0.934700
C361	C36	0.444300	0.351000	0.002270
C371	C37	0.213200	0.406200	0.920980
C381	C38	0.277100	0.379500	0.964720
C391	C39	0.251800	0.464000	0.881840
H281	H28	0.318200	0.489200	0.883400
C401	C40	0.191300	0.484400	0.840310
H291	H29	0.218300	0.522900	0.814300
C411	C41	0.394800	0.316000	0.046130
C421	C42	0.232300	0.345900	0.008860
H301	H30	0.161500	0.344300	0.011300
C431	C43	0.115900	0.370100	0.916060
H311	H31	0.087700	0.329500	0.941000
C441	C44	0.058200	0.393700	0.873600
H321	H32	0.991700	0.369000	0.871200
C451	C45	0.473900	0.133500	0.196480
H331	H33	0.407100	0.110000	0.199300
C461	C46	0.496500	0.201000	0.159440
C471	C47	0.290000	0.314900	0.049020
H341	H34	0.258000	0.293200	0.078100
C481	C48	0.640700	0.130200	0.224100
H351	H35	0.689800	0.106300	0.246400
C491	C49	0.413200	0.238400	0.125700
H361	H36	0.368800	0.182200	0.116600
H371	H37	0.372500	0.289500	0.142800
C501	C50	0.669200	0.195300	0.187400
H381	H38	0.737400	0.214400	0.184600
C511	C51	0.599300	0.233400	0.154400
H391	H39	0.618500	0.279000	0.129400
N71	N7	0.904900	0.550100	0.836880
O41	O4	0.543200	0.719500	0.083230
N81	N8	0.455900	0.900800	0.229180
C521	C52	0.617600	0.614100	0.962810
H401	H40	0.586800	0.585900	0.934700
C531	C53	0.555700	0.649000	0.002270
C541	C54	0.786800	0.593800	0.920980
C551	C55	0.722900	0.620500	0.964720
C561	C56	0.748200	0.536000	0.881840
H411	H41	0.681800	0.510800	0.883400
C571	C57	0.808700	0.515600	0.840310
H421	H42	0.781700	0.477100	0.814300
C581	C58	0.605200	0.684000	0.046130
C591	C59	0.767700	0.654100	0.008860
H431	H43	0.838500	0.655700	0.011300
C601	C60	0.884100	0.629900	0.916060
H441	H44	0.912300	0.670500	0.941000
C611	C61	0.941800	0.606300	0.873600
H451	H45	0.008300	0.631000	0.871200
C621	C62	0.526100	0.866500	0.196480
H461	H46	0.592900	0.890000	0.199300
C631	C63	0.503500	0.799000	0.159440
C641	C64	0.710000	0.685100	0.049020
H471	H47	0.742000	0.706800	0.078100
C651	C65	0.359300	0.869800	0.224100
H481	H48	0.310200	0.893700	0.246400
C661	C66	0.586800	0.761600	0.125700
H491	H49	0.631200	0.817800	0.116600
H501	H50	0.627500	0.710500	0.142800
C671	C67	0.330800	0.804700	0.187400
H511	H51	0.262600	0.785600	0.184600
C681	C68	0.400700	0.766600	0.154400
H521	H52	0.381500	0.721000	0.129400
N91	N9	0.550100	0.904900	0.663120
O51	O5	0.719500	0.543200	0.416770
N101	N10	0.900800	0.455900	0.270820
C691	C69	0.614100	0.617600	0.537190
H531	H53	0.585900	0.586800	0.565300
C701	C70	0.649000	0.555700	0.497730
C711	C71	0.593800	0.786800	0.579020
C721	C72	0.620500	0.722900	0.535280
C731	C73	0.536000	0.748200	0.618160
H541	H54	0.510800	0.681800	0.616600
C741	C74	0.515600	0.808700	0.659690
H551	H55	0.477100	0.781700	0.685700
C751	C75	0.684000	0.605200	0.453870
C761	C76	0.654100	0.767700	0.491140
H561	H56	0.655700	0.838500	0.488700
C771	C77	0.629900	0.884100	0.583940
H571	H57	0.670500	0.912300	0.559000
C781	C78	0.606300	0.941800	0.626400
H581	H58	0.631000	0.008300	0.628800
C791	C79	0.866500	0.526100	0.303520
H591	H59	0.890000	0.592900	0.300700
C801	C80	0.799000	0.503500	0.340560
C811	C81	0.685100	0.710000	0.450980
H601	H60	0.706800	0.742000	0.421900
C821	C82	0.869800	0.359300	0.275900
H611	H61	0.893700	0.310200	0.253600
C831	C83	0.761600	0.586800	0.374300
H621	H62	0.817800	0.631200	0.383400
H631	H63	0.710500	0.627500	0.357200
C841	C84	0.804700	0.330800	0.312600
H641	H64	0.785600	0.262600	0.315400
C851	C85	0.766600	0.400700	0.345600
H651	H65	0.721000	0.381500	0.370600
N111	N11	0.449900	0.095100	0.663120
O61	O6	0.280500	0.456800	0.416770
N121	N12	0.099200	0.544100	0.270820
C861	C86	0.385900	0.382400	0.537190
H661	H66	0.414100	0.413200	0.565300
C871	C87	0.351000	0.444300	0.497730
C881	C88	0.406200	0.213200	0.579020
C891	C89	0.379500	0.277100	0.535280
C901	C90	0.464000	0.251800	0.618160
H671	H67	0.489200	0.318200	0.616600
C911	C91	0.484400	0.191300	0.659690
H681	H68	0.522900	0.218300	0.685700
C921	C92	0.316000	0.394800	0.453870
C931	C93	0.345900	0.232300	0.491140
H691	H69	0.344300	0.161500	0.488700
C941	C94	0.370100	0.115900	0.583940
H701	H70	0.329500	0.087700	0.559000
C951	C95	0.393700	0.058200	0.626400
H711	H71	0.369000	0.991700	0.628800
C961	C96	0.133500	0.473900	0.303520
H721	H72	0.110000	0.407100	0.300700
C971	C97	0.201000	0.496500	0.340560
C981	C98	0.314900	0.290000	0.450980
H731	H73	0.293200	0.258000	0.421900
C991	C99	0.130200	0.640700	0.275900
H741	H74	0.106300	0.689800	0.253600
C1001	C100	0.238400	0.413200	0.374300
H751	H75	0.182200	0.368800	0.383400
H761	H76	0.289500	0.372500	0.357200
C1011	C101	0.195300	0.669200	0.312600
H771	H77	0.214400	0.737400	0.315400
C1021	C102	0.233400	0.599300	0.345600
H781	H78	0.279000	0.618500	0.370600
N131	N13	0.904900	0.449900	0.163120
O71	O7	0.543200	0.280500	0.916770
N141	N14	0.455900	0.099200	0.770820
C1031	C103	0.617600	0.385900	0.037190
H791	H79	0.586800	0.414100	0.065300
C1041	C104	0.555700	0.351000	0.997730
C1051	C105	0.786800	0.406200	0.079020
C1061	C106	0.722900	0.379500	0.035280
C1071	C107	0.748200	0.464000	0.118160
H801	H80	0.681800	0.489200	0.116600
C1081	C108	0.808700	0.484400	0.159690
H811	H81	0.781700	0.522900	0.185700
C1091	C109	0.605200	0.316000	0.953870
C1101	C110	0.767700	0.345900	0.991140
H821	H82	0.838500	0.344300	0.988700
C1111	C111	0.884100	0.370100	0.083940
H831	H83	0.912300	0.329500	0.059000
C1121	C112	0.941800	0.393700	0.126400
H841	H84	0.008300	0.369000	0.128800
C1131	C113	0.526100	0.133500	0.803520
H851	H85	0.592900	0.110000	0.800700
C1141	C114	0.503500	0.201000	0.840560
C1151	C115	0.710000	0.314900	0.950980
H861	H86	0.742000	0.293200	0.921900
C1161	C116	0.359300	0.130200	0.775900
H871	H87	0.310200	0.106300	0.753600
C1171	C117	0.586800	0.238400	0.874300
H881	H88	0.631200	0.182200	0.883400
H891	H89	0.627500	0.289500	0.857200
C1181	C118	0.330800	0.195300	0.812600
H901	H90	0.262600	0.214400	0.815400
C1191	C119	0.400700	0.233400	0.845600
H911	H91	0.381500	0.279000	0.870600
N151	N15	0.095100	0.550100	0.163120
O81	O8	0.456800	0.719500	0.916770
N161	N16	0.544100	0.900800	0.770820
C1201	C120	0.382400	0.614100	0.037190
H921	H92	0.413200	0.585900	0.065300
C1211	C121	0.444300	0.649000	0.997730
C1221	C122	0.213200	0.593800	0.079020
C1231	C123	0.277100	0.620500	0.035280
C1241	C124	0.251800	0.536000	0.118160
H931	H93	0.318200	0.510800	0.116600
C1251	C125	0.191300	0.515600	0.159690
H941	H94	0.218300	0.477100	0.185700
C1261	C126	0.394800	0.684000	0.953870
C1271	C127	0.232300	0.654100	0.991140
H951	H95	0.161500	0.655700	0.988700
C1281	C128	0.115900	0.629900	0.083940
H961	H96	0.087700	0.670500	0.059000
C1291	C129	0.058200	0.606300	0.126400
H971	H97	0.991700	0.631000	0.128800
C1301	C130	0.473900	0.866500	0.803520
H981	H98	0.407100	0.890000	0.800700
C1311	C131	0.496500	0.799000	0.840560
C1321	C132	0.290000	0.685100	0.950980
H991	H99	0.258000	0.706800	0.921900
C1331	C133	0.640700	0.869800	0.775900
H1001	H100	0.689800	0.893700	0.753600
C1341	C134	0.413200	0.761600	0.874300
H1011	H101	0.368800	0.817800	0.883400
H1021	H102	0.372500	0.710500	0.857200
C1351	C135	0.669200	0.804700	0.812600
H1031	H103	0.737400	0.785600	0.815400
C1361	C136	0.599300	0.766600	0.845600
H1041	H104	0.618500	0.721000	0.870600
Cu11	Cu1	0.500000	0.000000	0.282550
Cu21	Cu2	0.000000	0.500000	0.782550
Cu31	Cu3	0.500000	0.000000	0.717450
Cu41	Cu4	0.000000	0.500000	0.217450
