data_DACZUF_freeONLY_PM
_symmetry_space_group_name_H-M	'P1'
_cell_length_a	34.791000
_cell_length_b	10.290000
_cell_length_c	13.669000
_cell_angle_alpha	90.000000
_cell_angle_beta	112.964000
_cell_angle_gamma	90.000000
_symmetry_Int_Tables_number 1

loop_
_symmetry_equiv_pos_as_xyz
'x,y,z'

loop_
_atom_site_label
_atom_site_type_symbol
_atom_site_fract_x
_atom_site_fract_y
_atom_site_fract_z
Co11	Co1	0.096970	0.006080	0.471050
C11	C1	0.299300	0.988900	0.423800
O11	O1	0.418400	0.706600	0.547700
N11	N1	0.096100	0.013800	0.299800
O21	O2	0.034700	0.052100	0.409500
N21	N2	0.056300	0.011500	0.227900
N31	N3	0.056000	0.010100	0.133100
C21	C2	0.378200	0.719300	0.508900
O31	O3	0.377800	0.317400	0.498600
N41	N4	0.095800	0.004700	0.139800
O41	O4	0.354100	0.625500	0.484200
C31	C3	0.325900	0.104000	0.453900
H11	H1	0.314100	0.186500	0.445000
C41	C4	0.384100	0.961900	0.510600
H21	H2	0.413000	0.952800	0.540800
C51	C5	0.315600	0.872100	0.440100
H31	H3	0.298600	0.798900	0.423200
C61	C6	0.366800	0.089900	0.493800
C71	C7	0.361600	0.858700	0.485800
O51	O5	0.434100	0.190200	0.565800
C81	C8	0.252400	0.002900	0.375000
O61	O6	0.004900	0.796100	0.478500
C91	C9	0.230300	0.937000	0.276000
H41	H4	0.244800	0.894400	0.241200
C101	C10	0.229700	0.066000	0.422400
H51	H5	0.243900	0.107000	0.487100
C111	C11	0.118800	0.013700	0.242300
C121	C12	0.165700	0.013700	0.290400
C131	C13	0.186800	0.071000	0.379200
H61	H6	0.172900	0.115400	0.414500
C141	C14	0.187600	0.939000	0.233700
H71	H7	0.172600	0.895400	0.170900
C151	C15	0.396000	0.202700	0.525000
Co21	Co2	0.596970	0.506080	0.471050
C161	C16	0.799300	0.488900	0.423800
O71	O7	0.918400	0.206600	0.547700
N51	N5	0.596100	0.513800	0.299800
O81	O8	0.534700	0.552100	0.409500
N61	N6	0.556300	0.511500	0.227900
N71	N7	0.556000	0.510100	0.133100
C171	C17	0.878200	0.219300	0.508900
O91	O9	0.877800	0.817400	0.498600
N81	N8	0.595800	0.504700	0.139800
O101	O10	0.854100	0.125500	0.484200
C181	C18	0.825900	0.604000	0.453900
H81	H8	0.814100	0.686500	0.445000
C191	C19	0.884100	0.461900	0.510600
H91	H9	0.913000	0.452800	0.540800
C201	C20	0.815600	0.372100	0.440100
H101	H10	0.798600	0.298900	0.423200
C211	C21	0.866800	0.589900	0.493800
C221	C22	0.861600	0.358700	0.485800
O111	O11	0.934100	0.690200	0.565800
C231	C23	0.752400	0.502900	0.375000
O121	O12	0.504900	0.296100	0.478500
C241	C24	0.730300	0.437000	0.276000
H111	H11	0.744800	0.394400	0.241200
C251	C25	0.729700	0.566000	0.422400
H121	H12	0.743900	0.607000	0.487100
C261	C26	0.618800	0.513700	0.242300
C271	C27	0.665700	0.513700	0.290400
C281	C28	0.686800	0.571000	0.379200
H131	H13	0.672900	0.615400	0.414500
C291	C29	0.687600	0.439000	0.233700
H141	H14	0.672600	0.395400	0.170900
C301	C30	0.896000	0.702700	0.525000
Co31	Co3	0.903030	0.006080	0.028950
C311	C31	0.700700	0.988900	0.076200
O131	O13	0.581600	0.706600	0.952300
N91	N9	0.903900	0.013800	0.200200
O141	O14	0.965300	0.052100	0.090500
N101	N10	0.943700	0.011500	0.272100
N111	N11	0.944000	0.010100	0.366900
C321	C32	0.621800	0.719300	0.991100
O151	O15	0.622200	0.317400	0.001400
N121	N12	0.904200	0.004700	0.360200
O161	O16	0.645900	0.625500	0.015800
C331	C33	0.674100	0.104000	0.046100
H151	H15	0.685900	0.186500	0.055000
C341	C34	0.615900	0.961900	0.989400
H161	H16	0.587000	0.952800	0.959200
C351	C35	0.684400	0.872100	0.059900
H171	H17	0.701400	0.798900	0.076800
C361	C36	0.633200	0.089900	0.006200
C371	C37	0.638400	0.858700	0.014200
O171	O17	0.565900	0.190200	0.934200
C381	C38	0.747600	0.002900	0.125000
O181	O18	0.995100	0.796100	0.021500
C391	C39	0.769700	0.937000	0.224000
H181	H18	0.755200	0.894400	0.258800
C401	C40	0.770300	0.066000	0.077600
H191	H19	0.756100	0.107000	0.012900
C411	C41	0.881200	0.013700	0.257700
C421	C42	0.834300	0.013700	0.209600
C431	C43	0.813200	0.071000	0.120800
H201	H20	0.827100	0.115400	0.085500
C441	C44	0.812400	0.939000	0.266300
H211	H21	0.827400	0.895400	0.329100
C451	C45	0.604000	0.202700	0.975000
Co41	Co4	0.403030	0.506080	0.028950
C461	C46	0.200700	0.488900	0.076200
O191	O19	0.081600	0.206600	0.952300
N131	N13	0.403900	0.513800	0.200200
O201	O20	0.465300	0.552100	0.090500
N141	N14	0.443700	0.511500	0.272100
N151	N15	0.444000	0.510100	0.366900
C471	C47	0.121800	0.219300	0.991100
O211	O21	0.122200	0.817400	0.001400
N161	N16	0.404200	0.504700	0.360200
O221	O22	0.145900	0.125500	0.015800
C481	C48	0.174100	0.604000	0.046100
H221	H22	0.185900	0.686500	0.055000
C491	C49	0.115900	0.461900	0.989400
H231	H23	0.087000	0.452800	0.959200
C501	C50	0.184400	0.372100	0.059900
H241	H24	0.201400	0.298900	0.076800
C511	C51	0.133200	0.589900	0.006200
C521	C52	0.138400	0.358700	0.014200
O231	O23	0.065900	0.690200	0.934200
C531	C53	0.247600	0.502900	0.125000
O241	O24	0.495100	0.296100	0.021500
C541	C54	0.269700	0.437000	0.224000
H251	H25	0.255200	0.394400	0.258800
C551	C55	0.270300	0.566000	0.077600
H261	H26	0.256100	0.607000	0.012900
C561	C56	0.381200	0.513700	0.257700
C571	C57	0.334300	0.513700	0.209600
C581	C58	0.313200	0.571000	0.120800
H271	H27	0.327100	0.615400	0.085500
C591	C59	0.312400	0.439000	0.266300
H281	H28	0.327400	0.395400	0.329100
C601	C60	0.104000	0.702700	0.975000
Co51	Co5	0.903030	0.993920	0.528950
C611	C61	0.700700	0.011100	0.576200
O251	O25	0.581600	0.293400	0.452300
N171	N17	0.903900	0.986200	0.700200
O261	O26	0.965300	0.947900	0.590500
N181	N18	0.943700	0.988500	0.772100
N191	N19	0.944000	0.989900	0.866900
C621	C62	0.621800	0.280700	0.491100
O271	O27	0.622200	0.682600	0.501400
N201	N20	0.904200	0.995300	0.860200
O281	O28	0.645900	0.374500	0.515800
C631	C63	0.674100	0.896000	0.546100
H291	H29	0.685900	0.813500	0.555000
C641	C64	0.615900	0.038100	0.489400
H301	H30	0.587000	0.047200	0.459200
C651	C65	0.684400	0.127900	0.559900
H311	H31	0.701400	0.201100	0.576800
C661	C66	0.633200	0.910100	0.506200
C671	C67	0.638400	0.141300	0.514200
O291	O29	0.565900	0.809800	0.434200
C681	C68	0.747600	0.997100	0.625000
O301	O30	0.995100	0.203900	0.521500
C691	C69	0.769700	0.063000	0.724000
H321	H32	0.755200	0.105600	0.758800
C701	C70	0.770300	0.934000	0.577600
H331	H33	0.756100	0.893000	0.512900
C711	C71	0.881200	0.986300	0.757700
C721	C72	0.834300	0.986300	0.709600
C731	C73	0.813200	0.929000	0.620800
H341	H34	0.827100	0.884600	0.585500
C741	C74	0.812400	0.061000	0.766300
H351	H35	0.827400	0.104600	0.829100
C751	C75	0.604000	0.797300	0.475000
Co61	Co6	0.403030	0.493920	0.528950
C761	C76	0.200700	0.511100	0.576200
O311	O31	0.081600	0.793400	0.452300
N211	N21	0.403900	0.486200	0.700200
O321	O32	0.465300	0.447900	0.590500
N221	N22	0.443700	0.488500	0.772100
N231	N23	0.444000	0.489900	0.866900
C771	C77	0.121800	0.780700	0.491100
O331	O33	0.122200	0.182600	0.501400
N241	N24	0.404200	0.495300	0.860200
O341	O34	0.145900	0.874500	0.515800
C781	C78	0.174100	0.396000	0.546100
H361	H36	0.185900	0.313500	0.555000
C791	C79	0.115900	0.538100	0.489400
H371	H37	0.087000	0.547200	0.459200
C801	C80	0.184400	0.627900	0.559900
H381	H38	0.201400	0.701100	0.576800
C811	C81	0.133200	0.410100	0.506200
C821	C82	0.138400	0.641300	0.514200
O351	O35	0.065900	0.309800	0.434200
C831	C83	0.247600	0.497100	0.625000
O361	O36	0.495100	0.703900	0.521500
C841	C84	0.269700	0.563000	0.724000
H391	H39	0.255200	0.605600	0.758800
C851	C85	0.270300	0.434000	0.577600
H401	H40	0.256100	0.393000	0.512900
C861	C86	0.381200	0.486300	0.757700
C871	C87	0.334300	0.486300	0.709600
C881	C88	0.313200	0.429000	0.620800
H411	H41	0.327100	0.384600	0.585500
C891	C89	0.312400	0.561000	0.766300
H421	H42	0.327400	0.604600	0.829100
C901	C90	0.104000	0.297300	0.475000
Co71	Co7	0.096970	0.993920	0.971050
C911	C91	0.299300	0.011100	0.923800
O371	O37	0.418400	0.293400	0.047700
N251	N25	0.096100	0.986200	0.799800
O381	O38	0.034700	0.947900	0.909500
N261	N26	0.056300	0.988500	0.727900
N271	N27	0.056000	0.989900	0.633100
C921	C92	0.378200	0.280700	0.008900
O391	O39	0.377800	0.682600	0.998600
N281	N28	0.095800	0.995300	0.639800
O401	O40	0.354100	0.374500	0.984200
C931	C93	0.325900	0.896000	0.953900
H431	H43	0.314100	0.813500	0.945000
C941	C94	0.384100	0.038100	0.010600
H441	H44	0.413000	0.047200	0.040800
C951	C95	0.315600	0.127900	0.940100
H451	H45	0.298600	0.201100	0.923200
C961	C96	0.366800	0.910100	0.993800
C971	C97	0.361600	0.141300	0.985800
O411	O41	0.434100	0.809800	0.065800
C981	C98	0.252400	0.997100	0.875000
O421	O42	0.004900	0.203900	0.978500
C991	C99	0.230300	0.063000	0.776000
H461	H46	0.244800	0.105600	0.741200
C1001	C100	0.229700	0.934000	0.922400
H471	H47	0.243900	0.893000	0.987100
C1011	C101	0.118800	0.986300	0.742300
C1021	C102	0.165700	0.986300	0.790400
C1031	C103	0.186800	0.929000	0.879200
H481	H48	0.172900	0.884600	0.914500
C1041	C104	0.187600	0.061000	0.733700
H491	H49	0.172600	0.104600	0.670900
C1051	C105	0.396000	0.797300	0.025000
Co81	Co8	0.596970	0.493920	0.971050
C1061	C106	0.799300	0.511100	0.923800
O431	O43	0.918400	0.793400	0.047700
N291	N29	0.596100	0.486200	0.799800
O441	O44	0.534700	0.447900	0.909500
N301	N30	0.556300	0.488500	0.727900
N311	N31	0.556000	0.489900	0.633100
C1071	C107	0.878200	0.780700	0.008900
O451	O45	0.877800	0.182600	0.998600
N321	N32	0.595800	0.495300	0.639800
O461	O46	0.854100	0.874500	0.984200
C1081	C108	0.825900	0.396000	0.953900
H501	H50	0.814100	0.313500	0.945000
C1091	C109	0.884100	0.538100	0.010600
H511	H51	0.913000	0.547200	0.040800
C1101	C110	0.815600	0.627900	0.940100
H521	H52	0.798600	0.701100	0.923200
C1111	C111	0.866800	0.410100	0.993800
C1121	C112	0.861600	0.641300	0.985800
O471	O47	0.934100	0.309800	0.065800
C1131	C113	0.752400	0.497100	0.875000
O481	O48	0.504900	0.703900	0.978500
C1141	C114	0.730300	0.563000	0.776000
H531	H53	0.744800	0.605600	0.741200
C1151	C115	0.729700	0.434000	0.922400
H541	H54	0.743900	0.393000	0.987100
C1161	C116	0.618800	0.486300	0.742300
C1171	C117	0.665700	0.486300	0.790400
C1181	C118	0.686800	0.429000	0.879200
H551	H55	0.672900	0.384600	0.914500
C1191	C119	0.687600	0.561000	0.733700
H561	H56	0.672600	0.604600	0.670900
C1201	C120	0.896000	0.297300	0.025000
Co91	Co9	0.000000	0.020700	0.250000
O491	O49	0.000000	0.816300	0.250000
O501	O50	0.000000	0.237800	0.250000
Co101	Co10	0.500000	0.520700	0.250000
O511	O51	0.500000	0.316300	0.250000
O521	O52	0.500000	0.737800	0.250000
Co111	Co11	0.000000	0.979300	0.750000
O531	O53	0.000000	0.183700	0.750000
O541	O54	0.000000	0.762200	0.750000
Co121	Co12	0.500000	0.479300	0.750000
O551	O55	0.500000	0.683700	0.750000
O561	O56	0.500000	0.262200	0.750000
Co131	Co13	0.000000	0.000000	0.500000
Co141	Co14	0.500000	0.500000	0.500000
Co151	Co15	0.000000	0.000000	0.000000
Co161	Co16	0.500000	0.500000	0.000000
