data_DADNUU_freeONLY_PM
_symmetry_space_group_name_H-M	'P1'
_cell_length_a	15.577000
_cell_length_b	16.394000
_cell_length_c	12.593000
_cell_angle_alpha	90.000000
_cell_angle_beta	92.840000
_cell_angle_gamma	90.000000
_symmetry_Int_Tables_number 1

loop_
_symmetry_equiv_pos_as_xyz
'x,y,z'

loop_
_atom_site_label
_atom_site_type_symbol
_atom_site_fract_x
_atom_site_fract_y
_atom_site_fract_z
Gd11	Gd1	0.121310	0.188000	0.909390
S11	S1	0.105860	0.219120	0.665570
S21	S2	0.185870	0.349430	0.076200
O11	O1	0.054500	0.061700	0.900200
O21	O2	0.102000	0.141200	0.726200
O31	O3	0.086000	0.144000	0.075400
O41	O4	0.022400	0.233300	0.607900
O51	O5	0.131200	0.316900	0.990000
O61	O6	0.121200	0.282700	0.748800
O71	O7	0.073700	0.042800	0.185300
O81	O8	0.174600	0.217800	0.593900
O91	O9	0.256200	0.397600	0.035600
C11	C1	0.065600	0.073100	0.094900
O101	O10	0.131500	0.391600	0.147100
O111	O11	0.230800	0.282800	0.131700
C21	C2	0.037400	0.020400	0.996400
H11	H1	0.080100	0.976400	0.998700
Gd21	Gd2	0.621310	0.688000	0.909390
S31	S3	0.605860	0.719120	0.665570
S41	S4	0.685870	0.849430	0.076200
O121	O12	0.554500	0.561700	0.900200
O131	O13	0.602000	0.641200	0.726200
O141	O14	0.586000	0.644000	0.075400
O151	O15	0.522400	0.733300	0.607900
O161	O16	0.631200	0.816900	0.990000
O171	O17	0.621200	0.782700	0.748800
O181	O18	0.573700	0.542800	0.185300
O191	O19	0.674600	0.717800	0.593900
O201	O20	0.756200	0.897600	0.035600
C31	C3	0.565600	0.573100	0.094900
O211	O21	0.631500	0.891600	0.147100
O221	O22	0.730800	0.782800	0.131700
C41	C4	0.537400	0.520400	0.996400
H21	H2	0.580100	0.476400	0.998700
Gd31	Gd3	0.878690	0.188000	0.590610
S51	S5	0.894140	0.219120	0.834430
S61	S6	0.814130	0.349430	0.423800
O231	O23	0.945500	0.061700	0.599800
O241	O24	0.898000	0.141200	0.773800
O251	O25	0.914000	0.144000	0.424600
O261	O26	0.977600	0.233300	0.892100
O271	O27	0.868800	0.316900	0.510000
O281	O28	0.878800	0.282700	0.751200
O291	O29	0.926300	0.042800	0.314700
O301	O30	0.825400	0.217800	0.906100
O311	O31	0.743800	0.397600	0.464400
C51	C5	0.934400	0.073100	0.405100
O321	O32	0.868500	0.391600	0.352900
O331	O33	0.769200	0.282800	0.368300
C61	C6	0.962600	0.020400	0.503600
H31	H3	0.919900	0.976400	0.501300
Gd41	Gd4	0.378690	0.688000	0.590610
S71	S7	0.394140	0.719120	0.834430
S81	S8	0.314130	0.849430	0.423800
O341	O34	0.445500	0.561700	0.599800
O351	O35	0.398000	0.641200	0.773800
O361	O36	0.414000	0.644000	0.424600
O371	O37	0.477600	0.733300	0.892100
O381	O38	0.368800	0.816900	0.510000
O391	O39	0.378800	0.782700	0.751200
O401	O40	0.426300	0.542800	0.314700
O411	O41	0.325400	0.717800	0.906100
O421	O42	0.243800	0.897600	0.464400
C71	C7	0.434400	0.573100	0.405100
O431	O43	0.368500	0.891600	0.352900
O441	O44	0.269200	0.782800	0.368300
C81	C8	0.462600	0.520400	0.503600
H41	H4	0.419900	0.476400	0.501300
Gd51	Gd5	0.878690	0.812000	0.090610
S91	S9	0.894140	0.780880	0.334430
S101	S10	0.814130	0.650570	0.923800
O451	O45	0.945500	0.938300	0.099800
O461	O46	0.898000	0.858800	0.273800
O471	O47	0.914000	0.856000	0.924600
O481	O48	0.977600	0.766700	0.392100
O491	O49	0.868800	0.683100	0.010000
O501	O50	0.878800	0.717300	0.251200
O511	O51	0.926300	0.957200	0.814700
O521	O52	0.825400	0.782200	0.406100
O531	O53	0.743800	0.602400	0.964400
C91	C9	0.934400	0.926900	0.905100
O541	O54	0.868500	0.608400	0.852900
O551	O55	0.769200	0.717200	0.868300
C101	C10	0.962600	0.979600	0.003600
H51	H5	0.919900	0.023600	0.001300
Gd61	Gd6	0.378690	0.312000	0.090610
S111	S11	0.394140	0.280880	0.334430
S121	S12	0.314130	0.150570	0.923800
O561	O56	0.445500	0.438300	0.099800
O571	O57	0.398000	0.358800	0.273800
O581	O58	0.414000	0.356000	0.924600
O591	O59	0.477600	0.266700	0.392100
O601	O60	0.368800	0.183100	0.010000
O611	O61	0.378800	0.217300	0.251200
O621	O62	0.426300	0.457200	0.814700
O631	O63	0.325400	0.282200	0.406100
O641	O64	0.243800	0.102400	0.964400
C111	C11	0.434400	0.426900	0.905100
O651	O65	0.368500	0.108400	0.852900
O661	O66	0.269200	0.217200	0.868300
C121	C12	0.462600	0.479600	0.003600
H61	H6	0.419900	0.523600	0.001300
Gd71	Gd7	0.121310	0.812000	0.409390
S131	S13	0.105860	0.780880	0.165570
S141	S14	0.185870	0.650570	0.576200
O671	O67	0.054500	0.938300	0.400200
O681	O68	0.102000	0.858800	0.226200
O691	O69	0.086000	0.856000	0.575400
O701	O70	0.022400	0.766700	0.107900
O711	O71	0.131200	0.683100	0.490000
O721	O72	0.121200	0.717300	0.248800
O731	O73	0.073700	0.957200	0.685300
O741	O74	0.174600	0.782200	0.093900
O751	O75	0.256200	0.602400	0.535600
C131	C13	0.065600	0.926900	0.594900
O761	O76	0.131500	0.608400	0.647100
O771	O77	0.230800	0.717200	0.631700
C141	C14	0.037400	0.979600	0.496400
H71	H7	0.080100	0.023600	0.498700
Gd81	Gd8	0.621310	0.312000	0.409390
S151	S15	0.605860	0.280880	0.165570
S161	S16	0.685870	0.150570	0.576200
O781	O78	0.554500	0.438300	0.400200
O791	O79	0.602000	0.358800	0.226200
O801	O80	0.586000	0.356000	0.575400
O811	O81	0.522400	0.266700	0.107900
O821	O82	0.631200	0.183100	0.490000
O831	O83	0.621200	0.217300	0.248800
O841	O84	0.573700	0.457200	0.685300
O851	O85	0.674600	0.282200	0.093900
O861	O86	0.756200	0.102400	0.535600
C151	C15	0.565600	0.426900	0.594900
O871	O87	0.631500	0.108400	0.647100
O881	O88	0.730800	0.217200	0.631700
C161	C16	0.537400	0.479600	0.496400
H81	H8	0.580100	0.523600	0.498700
Fe11	Fe1	0.000000	0.048400	0.750000
Fe21	Fe2	0.500000	0.548400	0.750000
Fe31	Fe3	0.000000	0.951600	0.250000
Fe41	Fe4	0.500000	0.451600	0.250000
