data_DAFYAN_freeONLY_PM
_symmetry_space_group_name_H-M	'P1'
_cell_length_a	15.942300
_cell_length_b	15.942300
_cell_length_c	16.041100
_cell_angle_alpha	90.000000
_cell_angle_beta	90.000000
_cell_angle_gamma	120.000000
_symmetry_Int_Tables_number 1

loop_
_symmetry_equiv_pos_as_xyz
'x,y,z'

loop_
_atom_site_label
_atom_site_type_symbol
_atom_site_fract_x
_atom_site_fract_y
_atom_site_fract_z
O11	O1	0.169890	0.515470	0.340020
O21	O2	0.054600	0.375600	0.436500
H11	H1	0.094800	0.400700	0.399300
C11	C1	0.033500	0.441300	0.468130
O31	O3	0.484530	0.654420	0.340020
O41	O4	0.624400	0.679000	0.436500
H21	H2	0.599300	0.694100	0.399300
C21	C2	0.558700	0.592200	0.468130
O51	O5	0.345580	0.830110	0.340020
O61	O6	0.321000	0.945400	0.436500
H31	H3	0.305900	0.905200	0.399300
C31	C3	0.407800	0.966500	0.468130
O71	O7	0.830110	0.484530	0.840020
O81	O8	0.945400	0.624400	0.936500
H41	H4	0.905200	0.599300	0.899300
C41	C4	0.966500	0.558700	0.968130
O91	O9	0.515470	0.345580	0.840020
O101	O10	0.375600	0.321000	0.936500
H51	H5	0.400700	0.305900	0.899300
C51	C5	0.441300	0.407800	0.968130
O111	O11	0.654420	0.169890	0.840020
O121	O12	0.679000	0.054600	0.936500
H61	H6	0.694100	0.094800	0.899300
C61	C6	0.592200	0.033500	0.968130
O131	O13	0.515470	0.169890	0.659980
O141	O14	0.375600	0.054600	0.563500
H71	H7	0.400700	0.094800	0.600700
C71	C7	0.441300	0.033500	0.531870
O151	O15	0.654420	0.484530	0.659980
O161	O16	0.679000	0.624400	0.563500
H81	H8	0.694100	0.599300	0.600700
C81	C8	0.592200	0.558700	0.531870
O171	O17	0.830110	0.345580	0.659980
O181	O18	0.945400	0.321000	0.563500
H91	H9	0.905200	0.305900	0.600700
C91	C9	0.966500	0.407800	0.531870
O191	O19	0.484530	0.830110	0.159980
O201	O20	0.624400	0.945400	0.063500
H101	H10	0.599300	0.905200	0.100700
C101	C10	0.558700	0.966500	0.031870
O211	O21	0.345580	0.515470	0.159980
O221	O22	0.321000	0.375600	0.063500
H111	H11	0.305900	0.400700	0.100700
C111	C11	0.407800	0.441300	0.031870
O231	O23	0.169890	0.654420	0.159980
O241	O24	0.054600	0.679000	0.063500
H121	H12	0.094800	0.694100	0.100700
C121	C12	0.033500	0.592200	0.031870
O251	O25	0.830110	0.484530	0.659980
O261	O26	0.945400	0.624400	0.563500
H131	H13	0.905200	0.599300	0.600700
C131	C13	0.966500	0.558700	0.531870
O271	O27	0.515470	0.345580	0.659980
O281	O28	0.375600	0.321000	0.563500
H141	H14	0.400700	0.305900	0.600700
C141	C14	0.441300	0.407800	0.531870
O291	O29	0.654420	0.169890	0.659980
O301	O30	0.679000	0.054600	0.563500
H151	H15	0.694100	0.094800	0.600700
C151	C15	0.592200	0.033500	0.531870
O311	O31	0.169890	0.515470	0.159980
O321	O32	0.054600	0.375600	0.063500
H161	H16	0.094800	0.400700	0.100700
C161	C16	0.033500	0.441300	0.031870
O331	O33	0.484530	0.654420	0.159980
O341	O34	0.624400	0.679000	0.063500
H171	H17	0.599300	0.694100	0.100700
C171	C17	0.558700	0.592200	0.031870
O351	O35	0.345580	0.830110	0.159980
O361	O36	0.321000	0.945400	0.063500
H181	H18	0.305900	0.905200	0.100700
C181	C18	0.407800	0.966500	0.031870
O371	O37	0.484530	0.830110	0.340020
O381	O38	0.624400	0.945400	0.436500
H191	H19	0.599300	0.905200	0.399300
C191	C19	0.558700	0.966500	0.468130
O391	O39	0.345580	0.515470	0.340020
O401	O40	0.321000	0.375600	0.436500
H201	H20	0.305900	0.400700	0.399300
C201	C20	0.407800	0.441300	0.468130
O411	O41	0.169890	0.654420	0.340020
O421	O42	0.054600	0.679000	0.436500
H211	H21	0.094800	0.694100	0.399300
C211	C21	0.033500	0.592200	0.468130
O431	O43	0.515470	0.169890	0.840020
O441	O44	0.375600	0.054600	0.936500
H221	H22	0.400700	0.094800	0.899300
C221	C22	0.441300	0.033500	0.968130
O451	O45	0.654420	0.484530	0.840020
O461	O46	0.679000	0.624400	0.936500
H231	H23	0.694100	0.599300	0.899300
C231	C23	0.592200	0.558700	0.968130
O471	O47	0.830110	0.345580	0.840020
O481	O48	0.945400	0.321000	0.936500
H241	H24	0.905200	0.305900	0.899300
C241	C24	0.966500	0.407800	0.968130
Mg11	Mg1	0.261830	0.523650	0.250000
O491	O49	0.185350	0.370700	0.250000
Mg21	Mg2	0.476350	0.738180	0.250000
O501	O50	0.629300	0.814650	0.250000
Mg31	Mg3	0.261830	0.738180	0.250000
O511	O51	0.185350	0.814650	0.250000
Mg41	Mg4	0.738170	0.476350	0.750000
O521	O52	0.814650	0.629300	0.750000
Mg51	Mg5	0.523650	0.261830	0.750000
O531	O53	0.370700	0.185350	0.750000
Mg61	Mg6	0.738170	0.261830	0.750000
O541	O54	0.814650	0.185350	0.750000
O551	O55	0.333330	0.666670	0.250000
O561	O56	0.666670	0.333330	0.750000
C251	C25	0.069200	0.534600	0.435500
C261	C26	0.141100	0.570550	0.367500
C271	C27	0.465400	0.534600	0.435500
C281	C28	0.429450	0.570550	0.367500
C291	C29	0.465400	0.930800	0.435500
C301	C30	0.429450	0.858900	0.367500
C311	C31	0.930800	0.465400	0.935500
C321	C32	0.858900	0.429450	0.867500
C331	C33	0.534600	0.465400	0.935500
C341	C34	0.570550	0.429450	0.867500
C351	C35	0.534600	0.069200	0.935500
C361	C36	0.570550	0.141100	0.867500
C371	C37	0.534600	0.069200	0.564500
C381	C38	0.570550	0.141100	0.632500
C391	C39	0.534600	0.465400	0.564500
C401	C40	0.570550	0.429450	0.632500
C411	C41	0.930800	0.465400	0.564500
C421	C42	0.858900	0.429450	0.632500
C431	C43	0.465400	0.930800	0.064500
C441	C44	0.429450	0.858900	0.132500
C451	C45	0.465400	0.534600	0.064500
C461	C46	0.429450	0.570550	0.132500
C471	C47	0.069200	0.534600	0.064500
C481	C48	0.141100	0.570550	0.132500
