data_DAFYER_freeONLY_PM
_symmetry_space_group_name_H-M	'P1'
_cell_length_a	16.906500
_cell_length_b	16.906500
_cell_length_c	14.715400
_cell_angle_alpha	90.000000
_cell_angle_beta	90.000000
_cell_angle_gamma	120.000000
_symmetry_Int_Tables_number 1

loop_
_symmetry_equiv_pos_as_xyz
'x,y,z'

loop_
_atom_site_label
_atom_site_type_symbol
_atom_site_fract_x
_atom_site_fract_y
_atom_site_fract_z
O11	O1	0.523590	0.178500	0.654000
C11	C1	0.452400	0.037600	0.530000
N11	N1	0.390900	0.072500	0.556700
O21	O2	0.414000	0.137200	0.504700
O31	O3	0.333000	0.042000	0.615700
O41	O4	0.821500	0.345090	0.654000
C21	C2	0.962400	0.414800	0.530000
N21	N2	0.927500	0.318400	0.556700
O51	O5	0.862800	0.276800	0.504700
O61	O6	0.958000	0.291000	0.615700
O71	O7	0.654910	0.476410	0.654000
C31	C3	0.585200	0.547600	0.530000
N31	N3	0.681600	0.609100	0.556700
O81	O8	0.723200	0.586000	0.504700
O91	O9	0.709000	0.667000	0.615700
O101	O10	0.476410	0.821500	0.154000
C41	C4	0.547600	0.962400	0.030000
N41	N4	0.609100	0.927500	0.056700
O111	O11	0.586000	0.862800	0.004700
O121	O12	0.667000	0.958000	0.115700
O131	O13	0.178500	0.654910	0.154000
C51	C5	0.037600	0.585200	0.030000
N51	N5	0.072500	0.681600	0.056700
O141	O14	0.137200	0.723200	0.004700
O151	O15	0.042000	0.709000	0.115700
O161	O16	0.345090	0.523590	0.154000
C61	C6	0.414800	0.452400	0.030000
N61	N6	0.318400	0.390900	0.056700
O171	O17	0.276800	0.414000	0.004700
O181	O18	0.291000	0.333000	0.115700
O191	O19	0.178500	0.523590	0.346000
C71	C7	0.037600	0.452400	0.470000
N71	N7	0.072500	0.390900	0.443300
O201	O20	0.137200	0.414000	0.495300
O211	O21	0.042000	0.333000	0.384300
O221	O22	0.345090	0.821500	0.346000
C81	C8	0.414800	0.962400	0.470000
N81	N8	0.318400	0.927500	0.443300
O231	O23	0.276800	0.862800	0.495300
O241	O24	0.291000	0.958000	0.384300
O251	O25	0.476410	0.654910	0.346000
C91	C9	0.547600	0.585200	0.470000
N91	N9	0.609100	0.681600	0.443300
O261	O26	0.586000	0.723200	0.495300
O271	O27	0.667000	0.709000	0.384300
O281	O28	0.821500	0.476410	0.846000
C101	C10	0.962400	0.547600	0.970000
N101	N10	0.927500	0.609100	0.943300
O291	O29	0.862800	0.586000	0.995300
O301	O30	0.958000	0.667000	0.884300
O311	O31	0.654910	0.178500	0.846000
C111	C11	0.585200	0.037600	0.970000
N111	N11	0.681600	0.072500	0.943300
O321	O32	0.723200	0.137200	0.995300
O331	O33	0.709000	0.042000	0.884300
O341	O34	0.523590	0.345090	0.846000
C121	C12	0.452400	0.414800	0.970000
N121	N12	0.390900	0.318400	0.943300
O351	O35	0.414000	0.276800	0.995300
O361	O36	0.333000	0.291000	0.884300
O371	O37	0.476410	0.821500	0.346000
C131	C13	0.547600	0.962400	0.470000
N131	N13	0.609100	0.927500	0.443300
O381	O38	0.586000	0.862800	0.495300
O391	O39	0.667000	0.958000	0.384300
O401	O40	0.178500	0.654910	0.346000
C141	C14	0.037600	0.585200	0.470000
N141	N14	0.072500	0.681600	0.443300
O411	O41	0.137200	0.723200	0.495300
O421	O42	0.042000	0.709000	0.384300
O431	O43	0.345090	0.523590	0.346000
C151	C15	0.414800	0.452400	0.470000
N151	N15	0.318400	0.390900	0.443300
O441	O44	0.276800	0.414000	0.495300
O451	O45	0.291000	0.333000	0.384300
O461	O46	0.523590	0.178500	0.846000
C161	C16	0.452400	0.037600	0.970000
N161	N16	0.390900	0.072500	0.943300
O471	O47	0.414000	0.137200	0.995300
O481	O48	0.333000	0.042000	0.884300
O491	O49	0.821500	0.345090	0.846000
C171	C17	0.962400	0.414800	0.970000
N171	N17	0.927500	0.318400	0.943300
O501	O50	0.862800	0.276800	0.995300
O511	O51	0.958000	0.291000	0.884300
O521	O52	0.654910	0.476410	0.846000
C181	C18	0.585200	0.547600	0.970000
N181	N18	0.681600	0.609100	0.943300
O531	O53	0.723200	0.586000	0.995300
O541	O54	0.709000	0.667000	0.884300
O551	O55	0.821500	0.476410	0.654000
C191	C19	0.962400	0.547600	0.530000
N191	N19	0.927500	0.609100	0.556700
O561	O56	0.862800	0.586000	0.504700
O571	O57	0.958000	0.667000	0.615700
O581	O58	0.654910	0.178500	0.654000
C201	C20	0.585200	0.037600	0.530000
N201	N20	0.681600	0.072500	0.556700
O591	O59	0.723200	0.137200	0.504700
O601	O60	0.709000	0.042000	0.615700
O611	O61	0.523590	0.345090	0.654000
C211	C21	0.452400	0.414800	0.530000
N211	N21	0.390900	0.318400	0.556700
O621	O62	0.414000	0.276800	0.504700
O631	O63	0.333000	0.291000	0.615700
O641	O64	0.178500	0.523590	0.154000
C221	C22	0.037600	0.452400	0.030000
N221	N22	0.072500	0.390900	0.056700
O651	O65	0.137200	0.414000	0.004700
O661	O66	0.042000	0.333000	0.115700
O671	O67	0.345090	0.821500	0.154000
C231	C23	0.414800	0.962400	0.030000
N231	N23	0.318400	0.927500	0.056700
O681	O68	0.276800	0.862800	0.004700
O691	O69	0.291000	0.958000	0.115700
O701	O70	0.476410	0.654910	0.154000
C241	C24	0.547600	0.585200	0.030000
N241	N24	0.609100	0.681600	0.056700
O711	O71	0.586000	0.723200	0.004700
O721	O72	0.667000	0.709000	0.115700
Mg11	Mg1	0.532890	0.266450	0.750000
N251	N25	0.380000	0.190000	0.750000
C251	C25	0.190800	0.095400	0.750000
C261	C26	0.088600	0.044300	0.750000
Mg21	Mg2	0.733550	0.266450	0.750000
N261	N26	0.810000	0.190000	0.750000
C271	C27	0.904600	0.095400	0.750000
C281	C28	0.955700	0.044300	0.750000
Mg31	Mg3	0.733560	0.467110	0.750000
N271	N27	0.810000	0.620000	0.750000
C291	C29	0.904600	0.809200	0.750000
C301	C30	0.955700	0.911400	0.750000
Mg41	Mg4	0.467110	0.733560	0.250000
N281	N28	0.620000	0.810000	0.250000
C311	C31	0.809200	0.904600	0.250000
C321	C32	0.911400	0.955700	0.250000
Mg51	Mg5	0.266450	0.733560	0.250000
N291	N29	0.190000	0.810000	0.250000
C331	C33	0.095400	0.904600	0.250000
C341	C34	0.044300	0.955700	0.250000
Mg61	Mg6	0.266440	0.532890	0.250000
N301	N30	0.190000	0.380000	0.250000
C351	C35	0.095400	0.190800	0.250000
C361	C36	0.044300	0.088600	0.250000
O731	O73	0.666670	0.333330	0.750000
O741	O74	0.333330	0.666670	0.250000
C371	C37	0.575150	0.150300	0.628500
C381	C38	0.537050	0.074100	0.559700
C391	C39	0.849700	0.424850	0.628500
C401	C40	0.925900	0.462950	0.559700
C411	C41	0.575150	0.424850	0.628500
C421	C42	0.537050	0.462950	0.559700
C431	C43	0.424850	0.849700	0.128500
C441	C44	0.462950	0.925900	0.059700
C451	C45	0.150300	0.575150	0.128500
C461	C46	0.074100	0.537050	0.059700
C471	C47	0.424850	0.575150	0.128500
C481	C48	0.462950	0.537050	0.059700
C491	C49	0.150300	0.575150	0.371500
C501	C50	0.074100	0.537050	0.440300
C511	C51	0.424850	0.849700	0.371500
C521	C52	0.462950	0.925900	0.440300
C531	C53	0.424850	0.575150	0.371500
C541	C54	0.462950	0.537050	0.440300
C551	C55	0.849700	0.424850	0.871500
C561	C56	0.925900	0.462950	0.940300
C571	C57	0.575150	0.150300	0.871500
C581	C58	0.537050	0.074100	0.940300
C591	C59	0.575150	0.424850	0.871500
C601	C60	0.537050	0.462950	0.940300
C611	C61	0.238000	0.189000	0.750000
H11	H1	0.207300	0.221800	0.750000
C621	C62	0.333600	0.233900	0.750000
H21	H2	0.365900	0.297400	0.750000
C631	C63	0.811000	0.049000	0.750000
H31	H3	0.778200	0.985500	0.750000
C641	C64	0.766100	0.099700	0.750000
H41	H4	0.702600	0.068500	0.750000
C651	C65	0.951000	0.762000	0.750000
H51	H5	0.014500	0.792700	0.750000
C661	C66	0.900300	0.666400	0.750000
H61	H6	0.931500	0.634100	0.750000
C671	C67	0.762000	0.811000	0.250000
H71	H7	0.792700	0.778200	0.250000
C681	C68	0.666400	0.766100	0.250000
H81	H8	0.634100	0.702600	0.250000
C691	C69	0.189000	0.951000	0.250000
H91	H9	0.221800	0.014500	0.250000
C701	C70	0.233900	0.900300	0.250000
H101	H10	0.297400	0.931500	0.250000
C711	C71	0.049000	0.238000	0.250000
H111	H11	0.985500	0.207300	0.250000
C721	C72	0.099700	0.333600	0.250000
H121	H12	0.068500	0.365900	0.250000
C731	C73	0.189000	0.238000	0.250000
H131	H13	0.221800	0.207300	0.250000
C741	C74	0.233900	0.333600	0.250000
H141	H14	0.297400	0.365900	0.250000
C751	C75	0.049000	0.811000	0.250000
H151	H15	0.985500	0.778200	0.250000
C761	C76	0.099700	0.766100	0.250000
H161	H16	0.068500	0.702600	0.250000
C771	C77	0.762000	0.951000	0.250000
H171	H17	0.792700	0.014500	0.250000
C781	C78	0.666400	0.900300	0.250000
H181	H18	0.634100	0.931500	0.250000
C791	C79	0.811000	0.762000	0.750000
H191	H19	0.778200	0.792700	0.750000
C801	C80	0.766100	0.666400	0.750000
H201	H20	0.702600	0.634100	0.750000
C811	C81	0.951000	0.189000	0.750000
H211	H21	0.014500	0.221800	0.750000
C821	C82	0.900300	0.233900	0.750000
H221	H22	0.931500	0.297400	0.750000
C831	C83	0.238000	0.049000	0.750000
H231	H23	0.207300	0.985500	0.750000
C841	C84	0.333600	0.099700	0.750000
H241	H24	0.365900	0.068500	0.750000
N311	N31	0.047000	0.953000	0.750000
N321	N32	0.047000	0.094000	0.750000
N331	N33	0.906000	0.953000	0.750000
N341	N34	0.953000	0.047000	0.250000
N351	N35	0.953000	0.906000	0.250000
N361	N36	0.094000	0.047000	0.250000
