data_DAHPAE_freeONLY_PM
_symmetry_space_group_name_H-M	'P1'
_cell_length_a	8.441000
_cell_length_b	8.441000
_cell_length_c	17.500000
_cell_angle_alpha	90.000000
_cell_angle_beta	90.000000
_cell_angle_gamma	90.000000
_symmetry_Int_Tables_number 1

loop_
_symmetry_equiv_pos_as_xyz
'x,y,z'

loop_
_atom_site_label
_atom_site_type_symbol
_atom_site_fract_x
_atom_site_fract_y
_atom_site_fract_z
O11	O1	0.138600	0.147900	0.017360
O21	O2	0.126500	0.970300	0.922630
C11	C1	0.077200	0.034100	0.982880
O31	O3	0.638600	0.647900	0.517360
O41	O4	0.626500	0.470300	0.422630
C21	C2	0.577200	0.534100	0.482880
O51	O5	0.361400	0.852100	0.517360
O61	O6	0.373500	0.029700	0.422630
C31	C3	0.422800	0.965900	0.482880
O71	O7	0.861400	0.352100	0.017360
O81	O8	0.873500	0.529700	0.922630
C41	C4	0.922800	0.465900	0.982880
O91	O9	0.602100	0.388600	0.267360
O101	O10	0.779700	0.376500	0.172630
C51	C5	0.715900	0.327200	0.232880
O111	O11	0.102100	0.888600	0.767360
O121	O12	0.279700	0.876500	0.672630
C61	C6	0.215900	0.827200	0.732880
O131	O13	0.897900	0.611400	0.767360
O141	O14	0.720300	0.623500	0.672630
C71	C7	0.784100	0.672800	0.732880
O151	O15	0.397900	0.111400	0.267360
O161	O16	0.220300	0.123500	0.172630
C81	C8	0.284100	0.172800	0.232880
O171	O17	0.861400	0.852100	0.982640
O181	O18	0.873500	0.029700	0.077370
C91	C9	0.922800	0.965900	0.017120
O191	O19	0.361400	0.352100	0.482640
O201	O20	0.373500	0.529700	0.577370
C101	C10	0.422800	0.465900	0.517120
O211	O21	0.638600	0.147900	0.482640
O221	O22	0.626500	0.970300	0.577370
C111	C11	0.577200	0.034100	0.517120
O231	O23	0.138600	0.647900	0.982640
O241	O24	0.126500	0.470300	0.077370
C121	C12	0.077200	0.534100	0.017120
O251	O25	0.397900	0.611400	0.732640
O261	O26	0.220300	0.623500	0.827370
C131	C13	0.284100	0.672800	0.767120
O271	O27	0.897900	0.111400	0.232640
O281	O28	0.720300	0.123500	0.327370
C141	C14	0.784100	0.172800	0.267120
O291	O29	0.102100	0.388600	0.232640
O301	O30	0.279700	0.376500	0.327370
C151	C15	0.215900	0.327200	0.267120
O311	O31	0.602100	0.888600	0.732640
O321	O32	0.779700	0.876500	0.827370
C161	C16	0.715900	0.827200	0.767120
Yb11	Yb1	0.000000	0.250000	0.125000
Yb21	Yb2	0.500000	0.750000	0.625000
Yb31	Yb3	0.500000	0.250000	0.375000
Yb41	Yb4	0.000000	0.750000	0.875000
