data_DAMZEZ_freeONLY_PM
_symmetry_space_group_name_H-M	'P1'
_cell_length_a	10.342000
_cell_length_b	15.079000
_cell_length_c	25.117000
_cell_angle_alpha	90.000000
_cell_angle_beta	90.000000
_cell_angle_gamma	90.000000
_symmetry_Int_Tables_number 1

loop_
_symmetry_equiv_pos_as_xyz
'x,y,z'

loop_
_atom_site_label
_atom_site_type_symbol
_atom_site_fract_x
_atom_site_fract_y
_atom_site_fract_z
Cd11	Cd1	0.912120	0.499740	0.536660
Cd21	Cd2	0.671630	0.505910	0.455960
O11	O1	0.133000	0.097200	0.482200
O21	O2	0.281000	0.088000	0.417200
O31	O3	0.773000	0.401400	0.408000
C11	C1	0.178000	0.117000	0.437100
O41	O4	0.917000	0.394000	0.474100
N11	N1	0.287000	0.507000	0.385800
N21	N2	0.938000	0.261600	0.239100
C21	C2	0.025000	0.195000	0.100200
C31	C3	0.860000	0.306000	0.099300
C41	C4	0.871000	0.370000	0.429600
C51	C5	0.946000	0.300000	0.401200
N31	N3	0.480000	0.526500	0.419300
C61	C6	0.102000	0.181000	0.404800
C71	C7	0.021000	0.234000	0.320900
C81	C8	0.858000	0.307000	0.153300
H11	H1	0.798900	0.342700	0.171100
N41	N4	0.028000	0.224800	0.263400
C91	C9	0.946000	0.255000	0.182700
C101	C10	0.032000	0.200000	0.155200
H21	H2	0.093400	0.166600	0.173700
C111	C11	0.163000	0.467000	0.370600
H31	H3	0.093100	0.500500	0.386300
H41	H4	0.159000	0.406800	0.384500
C121	C12	0.943000	0.248000	0.072500
H51	H5	0.941800	0.245900	0.035500
C131	C13	0.940000	0.294000	0.345800
H61	H6	0.883600	0.328700	0.326200
C141	C14	0.146000	0.464000	0.310000
C151	C15	0.032000	0.489000	0.287300
H71	H7	0.965100	0.509400	0.308600
C161	C16	0.247000	0.433000	0.277600
H81	H8	0.323600	0.414000	0.293100
C171	C17	0.103000	0.179000	0.348700
H91	H9	0.158900	0.141500	0.330500
C181	C18	0.384000	0.469000	0.413400
C191	C19	0.115000	0.459000	0.199300
C201	C20	0.023000	0.243000	0.430200
H101	H10	0.022000	0.245800	0.467100
C211	C21	0.325000	0.593000	0.372600
H111	H11	0.277500	0.635100	0.353500
C221	C22	0.443000	0.603000	0.393700
H121	H12	0.493500	0.653900	0.391300
C231	C23	0.016000	0.485000	0.232300
H131	H13	0.936300	0.499300	0.217600
C241	C24	0.102000	0.461000	0.140200
H141	H14	0.092800	0.400400	0.127300
H151	H15	0.024600	0.493200	0.130700
C251	C25	0.383000	0.374000	0.432200
H161	H16	0.349700	0.336400	0.403900
H171	H17	0.470300	0.355300	0.440000
C261	C26	0.232000	0.429000	0.222600
H181	H18	0.298600	0.407400	0.201300
C271	C27	0.301000	0.362000	0.480600
H191	H19	0.326500	0.404600	0.507200
H201	H20	0.311900	0.303400	0.494300
H211	H21	0.211800	0.371600	0.471500
O51	O5	0.054000	0.097400	0.028700
C281	C28	0.105000	0.126000	0.070200
O61	O6	0.211000	0.104800	0.090200
C291	C29	0.777000	0.369000	0.067400
O71	O7	0.828000	0.396700	0.024600
O81	O8	0.667000	0.386800	0.086900
N51	N5	0.214000	0.502000	0.114200
C301	C30	0.308000	0.463000	0.086000
C311	C31	0.221000	0.355000	0.019200
H221	H22	0.134500	0.373400	0.027400
H231	H23	0.221100	0.293500	0.009300
H241	H24	0.253900	0.389900	0.990200
C321	C32	0.307000	0.368000	0.067900
H251	H25	0.275600	0.330800	0.096600
H261	H26	0.394200	0.349800	0.059400
C331	C33	0.245000	0.590000	0.120900
H271	H27	0.197700	0.633200	0.139100
N61	N6	0.399000	0.522800	0.073800
C341	C34	0.360000	0.602000	0.095400
H281	H28	0.404700	0.655200	0.093000
Cd31	Cd3	0.587880	0.500260	0.036660
Cd41	Cd4	0.828370	0.494090	0.955960
O91	O9	0.367000	0.902800	0.982200
O101	O10	0.219000	0.912000	0.917200
O111	O11	0.727000	0.598600	0.908000
C351	C35	0.322000	0.883000	0.937100
O121	O12	0.583000	0.606000	0.974100
N71	N7	0.213000	0.493000	0.885800
N81	N8	0.562000	0.738400	0.739100
C361	C36	0.475000	0.805000	0.600200
C371	C37	0.640000	0.694000	0.599300
C381	C38	0.629000	0.630000	0.929600
C391	C39	0.554000	0.700000	0.901200
N91	N9	0.020000	0.473500	0.919300
C401	C40	0.398000	0.819000	0.904800
C411	C41	0.479000	0.766000	0.820900
C421	C42	0.642000	0.693000	0.653300
H291	H29	0.701100	0.657300	0.671100
N101	N10	0.472000	0.775200	0.763400
C431	C43	0.554000	0.745000	0.682700
C441	C44	0.468000	0.800000	0.655200
H301	H30	0.406600	0.833400	0.673700
C451	C45	0.337000	0.533000	0.870600
H311	H31	0.406900	0.499500	0.886300
H321	H32	0.341000	0.593200	0.884500
C461	C46	0.557000	0.752000	0.572500
H331	H33	0.558200	0.754100	0.535500
C471	C47	0.560000	0.706000	0.845800
H341	H34	0.616400	0.671300	0.826200
C481	C48	0.354000	0.536000	0.810000
C491	C49	0.468000	0.511000	0.787300
H351	H35	0.534900	0.490600	0.808600
C501	C50	0.253000	0.567000	0.777600
H361	H36	0.176400	0.586000	0.793100
C511	C51	0.397000	0.821000	0.848700
H371	H37	0.341100	0.858500	0.830500
C521	C52	0.116000	0.531000	0.913400
C531	C53	0.385000	0.541000	0.699300
C541	C54	0.477000	0.757000	0.930200
H381	H38	0.478000	0.754200	0.967100
C551	C55	0.175000	0.407000	0.872600
H391	H39	0.222500	0.364900	0.853500
C561	C56	0.057000	0.397000	0.893700
H401	H40	0.006500	0.346100	0.891300
C571	C57	0.484000	0.515000	0.732300
H411	H41	0.563700	0.500700	0.717600
C581	C58	0.398000	0.539000	0.640200
H421	H42	0.407200	0.599600	0.627300
H431	H43	0.475400	0.506800	0.630700
C591	C59	0.117000	0.626000	0.932200
H441	H44	0.150300	0.663600	0.903900
H451	H45	0.029700	0.644700	0.940000
C601	C60	0.268000	0.571000	0.722600
H461	H46	0.201400	0.592600	0.701300
C611	C61	0.199000	0.638000	0.980600
H471	H47	0.173500	0.595400	0.007200
H481	H48	0.188100	0.696600	0.994300
H491	H49	0.288200	0.628400	0.971500
O131	O13	0.446000	0.902600	0.528700
C621	C62	0.395000	0.874000	0.570200
O141	O14	0.289000	0.895200	0.590200
C631	C63	0.723000	0.631000	0.567400
O151	O15	0.672000	0.603300	0.524600
O161	O16	0.833000	0.613200	0.586900
N111	N11	0.286000	0.498000	0.614200
C641	C64	0.192000	0.537000	0.586000
C651	C65	0.279000	0.645000	0.519200
H501	H50	0.365500	0.626600	0.527400
H511	H51	0.278900	0.706500	0.509300
H521	H52	0.246100	0.610100	0.490200
C661	C66	0.193000	0.632000	0.567900
H531	H53	0.224400	0.669200	0.596600
H541	H54	0.105800	0.650200	0.559400
C671	C67	0.255000	0.410000	0.620900
H551	H55	0.302300	0.366800	0.639100
N121	N12	0.101000	0.477200	0.573800
C681	C68	0.140000	0.398000	0.595400
H561	H56	0.095300	0.344800	0.593000
Cd51	Cd5	0.087880	0.999740	0.963340
Cd61	Cd6	0.328370	0.005910	0.044040
O171	O17	0.867000	0.597200	0.017800
O181	O18	0.719000	0.588000	0.082800
O191	O19	0.227000	0.901400	0.092000
C691	C69	0.822000	0.617000	0.062900
O201	O20	0.083000	0.894000	0.025900
N131	N13	0.713000	0.007000	0.114200
N141	N14	0.062000	0.761600	0.260900
C701	C70	0.975000	0.695000	0.399800
C711	C71	0.140000	0.806000	0.400700
C721	C72	0.129000	0.870000	0.070400
C731	C73	0.054000	0.800000	0.098800
N151	N15	0.520000	0.026500	0.080700
C741	C74	0.898000	0.681000	0.095200
C751	C75	0.979000	0.734000	0.179100
C761	C76	0.142000	0.807000	0.346700
H571	H57	0.201100	0.842700	0.328900
N161	N16	0.972000	0.724800	0.236600
C771	C77	0.054000	0.755000	0.317300
C781	C78	0.968000	0.700000	0.344800
H581	H58	0.906600	0.666600	0.326300
C791	C79	0.837000	0.967000	0.129400
H591	H59	0.906900	0.000500	0.113700
H601	H60	0.841000	0.906800	0.115500
C801	C80	0.057000	0.748000	0.427500
H611	H61	0.058200	0.745900	0.464500
C811	C81	0.060000	0.794000	0.154200
H621	H62	0.116400	0.828700	0.173800
C821	C82	0.854000	0.964000	0.190000
C831	C83	0.968000	0.989000	0.212700
H631	H63	0.034900	0.009400	0.191400
C841	C84	0.753000	0.933000	0.222400
H641	H64	0.676400	0.914000	0.206900
C851	C85	0.897000	0.679000	0.151300
H651	H65	0.841100	0.641500	0.169500
C861	C86	0.616000	0.969000	0.086600
C871	C87	0.885000	0.959000	0.300700
C881	C88	0.977000	0.743000	0.069800
H661	H66	0.978000	0.745800	0.032900
C891	C89	0.675000	0.093000	0.127400
H671	H67	0.722500	0.135100	0.146500
C901	C90	0.557000	0.103000	0.106300
H681	H68	0.506500	0.153900	0.108700
C911	C91	0.984000	0.985000	0.267700
H691	H69	0.063700	0.999300	0.282400
C921	C92	0.898000	0.961000	0.359800
H701	H70	0.907200	0.900400	0.372700
H711	H71	0.975400	0.993200	0.369300
C931	C93	0.617000	0.874000	0.067800
H721	H72	0.650300	0.836400	0.096100
H731	H73	0.529700	0.855300	0.060000
C941	C94	0.768000	0.929000	0.277400
H741	H74	0.701400	0.907400	0.298700
C951	C95	0.699000	0.862000	0.019400
H751	H75	0.673500	0.904600	0.992800
H761	H76	0.688100	0.803400	0.005700
H771	H77	0.788200	0.871600	0.028500
O211	O21	0.946000	0.597400	0.471300
C961	C96	0.895000	0.626000	0.429800
O221	O22	0.789000	0.604800	0.409800
C971	C97	0.223000	0.869000	0.432600
O231	O23	0.172000	0.896700	0.475400
O241	O24	0.333000	0.886800	0.413100
N171	N17	0.786000	0.002000	0.385800
C981	C98	0.692000	0.963000	0.414000
C991	C99	0.779000	0.855000	0.480800
H781	H78	0.865500	0.873400	0.472600
H791	H79	0.778900	0.793500	0.490700
H801	H80	0.746100	0.889900	0.509800
C1001	C100	0.693000	0.868000	0.432100
H811	H81	0.724400	0.830800	0.403400
H821	H82	0.605800	0.849800	0.440600
C1011	C101	0.755000	0.090000	0.379100
H831	H83	0.802300	0.133200	0.360900
N181	N18	0.601000	0.022800	0.426200
C1021	C102	0.640000	0.102000	0.404600
H841	H84	0.595300	0.155200	0.407000
Cd71	Cd7	0.412120	0.000260	0.463340
Cd81	Cd8	0.171630	0.994090	0.544040
O251	O25	0.633000	0.402800	0.517800
O261	O26	0.781000	0.412000	0.582800
O271	O27	0.273000	0.098600	0.592000
C1031	C103	0.678000	0.383000	0.562900
O281	O28	0.417000	0.106000	0.525900
N191	N19	0.787000	0.993000	0.614200
N201	N20	0.438000	0.238400	0.760900
C1041	C104	0.525000	0.305000	0.899800
C1051	C105	0.360000	0.194000	0.900700
C1061	C106	0.371000	0.130000	0.570400
C1071	C107	0.446000	0.200000	0.598800
N211	N21	0.980000	0.973500	0.580700
C1081	C108	0.602000	0.319000	0.595200
C1091	C109	0.521000	0.266000	0.679100
C1101	C110	0.358000	0.193000	0.846700
H851	H85	0.298900	0.157300	0.828900
N221	N22	0.528000	0.275200	0.736600
C1111	C111	0.446000	0.245000	0.817300
C1121	C112	0.532000	0.300000	0.844800
H861	H86	0.593400	0.333400	0.826300
C1131	C113	0.663000	0.033000	0.629400
H871	H87	0.593100	0.999500	0.613700
H881	H88	0.659000	0.093200	0.615500
C1141	C114	0.443000	0.252000	0.927500
H891	H89	0.441800	0.254100	0.964500
C1151	C115	0.440000	0.206000	0.654200
H901	H90	0.383600	0.171300	0.673800
C1161	C116	0.646000	0.036000	0.690000
C1171	C117	0.532000	0.011000	0.712700
H911	H91	0.465100	0.990600	0.691400
C1181	C118	0.747000	0.067000	0.722400
H921	H92	0.823600	0.086000	0.706900
C1191	C119	0.603000	0.321000	0.651300
H931	H93	0.658900	0.358500	0.669500
C1201	C120	0.884000	0.031000	0.586600
C1211	C121	0.615000	0.041000	0.800700
C1221	C122	0.523000	0.257000	0.569800
H941	H94	0.522000	0.254200	0.532900
C1231	C123	0.825000	0.907000	0.627400
H951	H95	0.777500	0.864900	0.646500
C1241	C124	0.943000	0.897000	0.606300
H961	H96	0.993500	0.846100	0.608700
C1251	C125	0.516000	0.015000	0.767700
H971	H97	0.436300	0.000700	0.782400
C1261	C126	0.602000	0.039000	0.859800
H981	H98	0.592800	0.099600	0.872700
H991	H99	0.524600	0.006800	0.869300
C1271	C127	0.883000	0.126000	0.567800
H1001	H100	0.849700	0.163600	0.596100
H1011	H101	0.970300	0.144700	0.560000
C1281	C128	0.732000	0.071000	0.777400
H1021	H102	0.798600	0.092600	0.798700
C1291	C129	0.801000	0.138000	0.519400
H1031	H103	0.826500	0.095400	0.492800
H1041	H104	0.811900	0.196600	0.505700
H1051	H105	0.711800	0.128400	0.528500
O291	O29	0.554000	0.402600	0.971300
C1301	C130	0.605000	0.374000	0.929800
O301	O30	0.711000	0.395200	0.909800
C1311	C131	0.277000	0.131000	0.932600
O311	O31	0.328000	0.103300	0.975400
O321	O32	0.167000	0.113200	0.913100
N231	N23	0.714000	0.998000	0.885800
C1321	C132	0.808000	0.037000	0.914000
C1331	C133	0.721000	0.145000	0.980800
H1061	H106	0.634500	0.126600	0.972600
H1071	H107	0.721100	0.206500	0.990700
H1081	H108	0.753900	0.110100	0.009800
C1341	C134	0.807000	0.132000	0.932100
H1091	H109	0.775600	0.169200	0.903400
H1101	H110	0.894200	0.150200	0.940600
C1351	C135	0.745000	0.910000	0.879100
H1111	H111	0.697700	0.866800	0.860900
N241	N24	0.899000	0.977200	0.926200
C1361	C136	0.860000	0.898000	0.904600
H1121	H112	0.904700	0.844800	0.907000
