data_DAPBIH_neutral_PM
_symmetry_space_group_name_H-M	'P1'
_cell_length_a	18.688300
_cell_length_b	18.688300
_cell_length_c	18.688300
_cell_angle_alpha	60.000000
_cell_angle_beta	60.000000
_cell_angle_gamma	60.000000
_symmetry_Int_Tables_number 1

loop_
_symmetry_equiv_pos_as_xyz
'x,y,z'

loop_
_atom_site_label
_atom_site_type_symbol
_atom_site_fract_x
_atom_site_fract_y
_atom_site_fract_z
Co11	Co1	0.079040	0.500000	0.920960
Co21	Co2	0.500000	0.079040	0.500000
Co31	Co3	0.920960	0.500000	0.079040
Co41	Co4	0.500000	0.920960	0.500000
Co51	Co5	0.079040	0.920960	0.500000
Co61	Co6	0.500000	0.500000	0.920960
Co71	Co7	0.920960	0.079040	0.500000
Co81	Co8	0.500000	0.500000	0.079040
Co91	Co9	0.079040	0.500000	0.500000
Co101	Co10	0.500000	0.920960	0.079040
Co111	Co11	0.920960	0.500000	0.500000
Co121	Co12	0.500000	0.079040	0.920960
H11	H1	0.229400	0.229400	0.010600
H21	H2	0.229400	0.229400	0.530600
H31	H3	0.010600	0.530600	0.229400
H41	H4	0.530600	0.010600	0.229400
H51	H5	0.229400	0.010600	0.530600
H61	H6	0.229400	0.530600	0.010600
H71	H7	0.010600	0.229400	0.229400
H81	H8	0.530600	0.229400	0.229400
H91	H9	0.229400	0.530600	0.229400
H101	H10	0.229400	0.010600	0.229400
H111	H11	0.010600	0.229400	0.530600
H121	H12	0.530600	0.229400	0.010600
H131	H13	0.770600	0.770600	0.989400
H141	H14	0.770600	0.770600	0.469400
H151	H15	0.469400	0.989400	0.770600
H161	H16	0.989400	0.469400	0.770600
H171	H17	0.989400	0.770600	0.469400
H181	H18	0.469400	0.770600	0.989400
H191	H19	0.770600	0.989400	0.770600
H201	H20	0.770600	0.469400	0.770600
H211	H21	0.469400	0.770600	0.770600
H221	H22	0.989400	0.770600	0.770600
H231	H23	0.770600	0.989400	0.469400
H241	H24	0.770600	0.469400	0.989400
C11	C1	0.112100	0.243300	0.112100
C21	C2	0.069300	0.335900	0.069300
C31	C3	0.243300	0.112100	0.532500
C41	C4	0.335900	0.069300	0.525500
C51	C5	0.112100	0.532500	0.112100
C61	C6	0.069300	0.525500	0.069300
C71	C7	0.532500	0.112100	0.243300
C81	C8	0.525500	0.069300	0.335900
C91	C9	0.112100	0.112100	0.532500
C101	C10	0.069300	0.069300	0.525500
C111	C11	0.243300	0.532500	0.112100
C121	C12	0.335900	0.525500	0.069300
C131	C13	0.112100	0.112100	0.243300
C141	C14	0.069300	0.069300	0.335900
C151	C15	0.532500	0.243300	0.112100
C161	C16	0.525500	0.335900	0.069300
C171	C17	0.112100	0.532500	0.243300
C181	C18	0.069300	0.525500	0.335900
C191	C19	0.243300	0.112100	0.112100
C201	C20	0.335900	0.069300	0.069300
C211	C21	0.112100	0.243300	0.532500
C221	C22	0.069300	0.335900	0.525500
C231	C23	0.532500	0.112100	0.112100
C241	C24	0.525500	0.069300	0.069300
C251	C25	0.756700	0.887900	0.887900
C261	C26	0.664100	0.930700	0.930700
C271	C27	0.887900	0.756700	0.467500
C281	C28	0.930700	0.664100	0.474500
C291	C29	0.467500	0.887900	0.887900
C301	C30	0.474500	0.930700	0.930700
C311	C31	0.887900	0.467500	0.756700
C321	C32	0.930700	0.474500	0.664100
C331	C33	0.887900	0.887900	0.467500
C341	C34	0.930700	0.930700	0.474500
C351	C35	0.467500	0.756700	0.887900
C361	C36	0.474500	0.664100	0.930700
C371	C37	0.887900	0.887900	0.756700
C381	C38	0.930700	0.930700	0.664100
C391	C39	0.756700	0.467500	0.887900
C401	C40	0.664100	0.474500	0.930700
C411	C41	0.467500	0.887900	0.756700
C421	C42	0.474500	0.930700	0.664100
C431	C43	0.887900	0.756700	0.887900
C441	C44	0.930700	0.664100	0.930700
C451	C45	0.756700	0.887900	0.467500
C461	C46	0.664100	0.930700	0.474500
C471	C47	0.887900	0.467500	0.887900
C481	C48	0.930700	0.474500	0.930700
C491	C49	0.199700	0.199700	0.068900
C501	C50	0.199700	0.199700	0.531700
C511	C51	0.068900	0.531700	0.199700
C521	C52	0.531700	0.068900	0.199700
C531	C53	0.199700	0.068900	0.531700
C541	C54	0.199700	0.531700	0.068900
C551	C55	0.068900	0.199700	0.199700
C561	C56	0.531700	0.199700	0.199700
C571	C57	0.199700	0.531700	0.199700
C581	C58	0.199700	0.068900	0.199700
C591	C59	0.068900	0.199700	0.531700
C601	C60	0.531700	0.199700	0.068900
C611	C61	0.800300	0.800300	0.931100
C621	C62	0.800300	0.800300	0.468300
C631	C63	0.468300	0.931100	0.800300
C641	C64	0.931100	0.468300	0.800300
C651	C65	0.931100	0.800300	0.468300
C661	C66	0.468300	0.800300	0.931100
C671	C67	0.800300	0.931100	0.800300
C681	C68	0.800300	0.468300	0.800300
C691	C69	0.468300	0.800300	0.800300
C701	C70	0.931100	0.800300	0.800300
C711	C71	0.800300	0.931100	0.468300
C721	C72	0.800300	0.468300	0.931100
O11	O1	0.113300	0.371500	0.993100
O21	O2	0.371500	0.113300	0.522100
O31	O3	0.993100	0.522100	0.113300
O41	O4	0.522100	0.993100	0.371500
O51	O5	0.113300	0.993100	0.522100
O61	O6	0.371500	0.522100	0.993100
O71	O7	0.993100	0.113300	0.371500
O81	O8	0.522100	0.371500	0.113300
O91	O9	0.113300	0.522100	0.371500
O101	O10	0.371500	0.993100	0.113300
O111	O11	0.993100	0.371500	0.522100
O121	O12	0.522100	0.113300	0.993100
O131	O13	0.628500	0.886700	0.006900
O141	O14	0.886700	0.628500	0.477900
O151	O15	0.477900	0.006900	0.886700
O161	O16	0.006900	0.477900	0.628500
O171	O17	0.006900	0.886700	0.477900
O181	O18	0.477900	0.628500	0.006900
O191	O19	0.886700	0.006900	0.628500
O201	O20	0.628500	0.477900	0.886700
O211	O21	0.477900	0.886700	0.628500
O221	O22	0.006900	0.628500	0.886700
O231	O23	0.628500	0.006900	0.477900
O241	O24	0.886700	0.477900	0.006900
O251	O25	0.886700	0.628500	0.006900
O261	O26	0.628500	0.886700	0.477900
O271	O27	0.006900	0.477900	0.886700
O281	O28	0.477900	0.006900	0.628500
O291	O29	0.886700	0.006900	0.477900
O301	O30	0.628500	0.477900	0.006900
O311	O31	0.006900	0.886700	0.628500
O321	O32	0.477900	0.628500	0.886700
O331	O33	0.886700	0.477900	0.628500
O341	O34	0.628500	0.006900	0.886700
O351	O35	0.006900	0.628500	0.477900
O361	O36	0.477900	0.886700	0.006900
O371	O37	0.371500	0.113300	0.993100
O381	O38	0.113300	0.371500	0.522100
O391	O39	0.522100	0.993100	0.113300
O401	O40	0.993100	0.522100	0.371500
O411	O41	0.993100	0.113300	0.522100
O421	O42	0.522100	0.371500	0.993100
O431	O43	0.113300	0.993100	0.371500
O441	O44	0.371500	0.522100	0.113300
O451	O45	0.522100	0.113300	0.371500
O461	O46	0.993100	0.371500	0.113300
O471	O47	0.371500	0.993100	0.522100
O481	O48	0.113300	0.522100	0.993100
O491	O49	0.171800	0.523200	0.781800
O501	O50	0.523200	0.171800	0.523200
O511	O51	0.781800	0.523200	0.171800
O521	O52	0.523200	0.781800	0.523200
O531	O53	0.171800	0.781800	0.523200
O541	O54	0.523200	0.523200	0.781800
O551	O55	0.781800	0.171800	0.523200
O561	O56	0.523200	0.523200	0.171800
O571	O57	0.171800	0.523200	0.523200
O581	O58	0.523200	0.781800	0.171800
O591	O59	0.781800	0.523200	0.523200
O601	O60	0.523200	0.171800	0.781800
O611	O61	0.476800	0.828200	0.218200
O621	O62	0.828200	0.476800	0.476800
O631	O63	0.476800	0.218200	0.828200
O641	O64	0.218200	0.476800	0.476800
O651	O65	0.218200	0.828200	0.476800
O661	O66	0.476800	0.476800	0.218200
O671	O67	0.828200	0.218200	0.476800
O681	O68	0.476800	0.476800	0.828200
O691	O69	0.476800	0.828200	0.476800
O701	O70	0.218200	0.476800	0.828200
O711	O71	0.476800	0.218200	0.476800
O721	O72	0.828200	0.476800	0.218200
