data_DARSEV_SL_PM
_symmetry_space_group_name_H-M	'P1'
_cell_length_a	10.234300
_cell_length_b	19.118000
_cell_length_c	20.928700
_cell_angle_alpha	67.553000
_cell_angle_beta	86.753000
_cell_angle_gamma	83.630000
_symmetry_Int_Tables_number 1

loop_
_symmetry_equiv_pos_as_xyz
'x,y,z'

loop_
_atom_site_label
_atom_site_type_symbol
_atom_site_fract_x
_atom_site_fract_y
_atom_site_fract_z
Cd11	Cd1	0.990750	0.164580	0.094150
Cd21	Cd2	0.720890	0.099360	0.008320
Cd31	Cd3	0.355360	0.127750	0.052730
H41	H4	0.454800	0.234600	0.123400
H51	H5	0.515600	0.228800	0.230300
H61	H6	0.529200	0.999800	0.307700
H71	H7	0.455500	0.010900	0.200500
H81	H8	0.758700	0.031300	0.319600
H91	H9	0.964000	0.973800	0.494100
H101	H10	0.812300	0.039600	0.538700
H111	H11	0.408100	0.200300	0.343000
H121	H12	0.651400	0.261800	0.450500
H131	H13	0.682500	0.374300	0.456000
H141	H14	0.677200	0.279000	0.666300
H151	H15	0.588100	0.030400	0.717500
H161	H16	0.527700	0.069000	0.908800
H171	H17	0.487000	0.081800	0.795700
H181	H18	0.828100	0.176800	0.736800
H191	H19	0.858200	0.163000	0.849700
H201	H20	0.240600	0.238400	0.903300
H211	H21	0.189400	0.238400	0.798200
H221	H22	0.225100	0.007900	0.879500
H231	H23	0.282700	0.016600	0.982100
H241	H24	0.029500	0.025300	0.838800
H251	H25	0.866800	0.968200	0.699400
H261	H26	0.979600	0.047400	0.614000
H271	H27	0.319000	0.199900	0.713000
H281	H28	0.045700	0.275300	0.559900
H291	H29	0.972900	0.386600	0.480500
H301	H30	0.986900	0.296400	0.333300
H311	H31	0.177500	0.051000	0.440900
H321	H32	0.201000	0.108200	0.215100
H331	H33	0.246600	0.110100	0.323000
H341	H34	0.870100	0.201100	0.331100
H351	H35	0.836400	0.196800	0.224500
H361	H36	0.710800	0.253700	0.043200
H371	H37	0.564100	0.358100	0.033900
H381	H38	0.856100	0.435400	0.112000
H391	H39	0.983400	0.326100	0.118000
H401	H40	0.630100	0.472200	0.160500
H411	H41	0.639000	0.473100	0.940800
H421	H42	0.373400	0.647100	0.834800
H431	H43	0.326900	0.674000	0.934300
H441	H44	0.014500	0.033300	0.003300
H451	H45	0.156300	0.929000	0.024400
H461	H46	0.866000	0.810800	0.032000
H471	H47	0.721400	0.924500	0.013700
H481	H48	0.274400	0.853600	0.995200
H491	H49	0.222700	0.537900	0.111400
H501	H50	0.010800	0.512700	0.156400
H511	H51	0.905100	0.738800	0.097800
C521	C52	0.466500	0.187300	0.161300
C531	C53	0.503500	0.182900	0.224800
C541	C54	0.524500	0.113900	0.282200
C551	C55	0.510900	0.048400	0.272100
C561	C56	0.468900	0.056100	0.207000
C571	C57	0.554600	0.114300	0.350000
C581	C58	0.671100	0.075000	0.389200
C591	C59	0.767200	0.032700	0.364000
C601	C60	0.870200	0.994800	0.403000
C611	C61	0.888000	0.999600	0.468400
C621	C62	0.800700	0.038900	0.494200
C631	C63	0.688600	0.080400	0.453600
C641	C64	0.591300	0.119700	0.482900
C651	C65	0.485300	0.168200	0.438300
C661	C66	0.473000	0.166100	0.373200
C671	C67	0.609200	0.126800	0.551000
C681	C68	0.640900	0.199400	0.553700
C691	C69	0.655700	0.265000	0.494500
C701	C70	0.675200	0.330400	0.497000
C711	C71	0.685200	0.333000	0.563300
C721	C72	0.672000	0.273200	0.623400
C731	C73	0.650500	0.201800	0.622100
C741	C74	0.631500	0.137900	0.680900
C751	C75	0.602900	0.072800	0.676300
C761	C76	0.593900	0.065700	0.608100
C771	C77	0.588600	0.092000	0.872900
C781	C78	0.563900	0.099600	0.805200
C791	C79	0.652300	0.133300	0.751800
C801	C80	0.763200	0.155300	0.770900
C811	C81	0.781400	0.146600	0.838500
C821	C82	0.241300	0.191300	0.897700
C831	C83	0.208400	0.191500	0.835900
C841	C84	0.202500	0.124300	0.827400
C851	C85	0.229800	0.055800	0.882800
C861	C86	0.264500	0.062300	0.943000
C871	C87	0.184000	0.124200	0.755400
C881	C88	0.099500	0.081400	0.740600
C891	C89	0.020700	0.031200	0.792100
C901	C90	0.933500	0.991200	0.777300
C911	C91	0.925000	0.997900	0.709800
C921	C92	0.992500	0.043700	0.659800
C931	C93	0.083000	0.087300	0.670200
C941	C94	0.152600	0.132400	0.619500
C951	C95	0.245600	0.181500	0.631700
C961	C96	0.258000	0.172300	0.702100
C971	C97	0.134600	0.146000	0.545300
C981	C98	0.075000	0.218900	0.493300
C991	C99	0.038500	0.280700	0.513100
C1001	C100	0.995000	0.344300	0.467400
C1011	C101	0.980000	0.353800	0.395000
C1021	C102	0.005800	0.292200	0.378600
C1031	C103	0.060600	0.221100	0.426400
C1041	C104	0.091900	0.159000	0.406800
C1051	C105	0.153100	0.093400	0.453700
C1061	C106	0.180600	0.088500	0.521900
C1071	C107	0.134800	0.128800	0.238400
C1081	C108	0.162700	0.130100	0.303200
C1091	C109	0.067500	0.160600	0.338100
C1101	C110	0.940700	0.183700	0.307700
C1111	C111	0.921200	0.180700	0.244200
C1121	C112	0.738700	0.292400	0.055700
C1131	C113	0.650800	0.353700	0.049900
C1141	C114	0.698000	0.413900	0.070100
C1151	C115	0.822800	0.400400	0.096300
C1161	C116	0.898000	0.335100	0.099200
C1171	C117	0.613200	0.486100	0.059700
C1181	C118	0.585600	0.502000	0.118700
C1191	C119	0.492900	0.561700	0.116800
C1201	C120	0.427800	0.605400	0.055800
C1211	C121	0.455400	0.589500	0.996700
C1221	C122	0.548100	0.529800	0.998600
C1231	C123	0.575700	0.513900	0.939500
C1241	C124	0.511000	0.557600	0.878500
C1251	C125	0.417900	0.617300	0.876500
C1261	C126	0.390300	0.633200	0.935600
C1271	C127	0.979000	0.986200	0.014800
C1281	C128	0.065000	0.922600	0.026200
C1291	C129	0.036000	0.860100	0.038300
C1301	C130	0.899000	0.856100	0.030400
C1311	C131	0.812000	0.925200	0.019900
C1321	C132	0.315600	0.668300	0.051100
C1331	C133	0.347200	0.742900	0.020300
C1341	C134	0.252900	0.802600	0.016300
C1351	C135	0.127000	0.787600	0.043000
C1361	C136	0.095500	0.713000	0.073800
C1371	C137	0.189800	0.653300	0.077900
C1381	C138	0.158300	0.578700	0.108600
C1391	C139	0.032400	0.563700	0.135400
C1401	C140	0.938100	0.623400	0.131300
C1411	C141	0.969600	0.698000	0.100600
N1421	N142	0.446900	0.120000	0.154900
N1431	N143	0.695000	0.116000	0.887900
N1441	N144	0.274200	0.127600	0.950200
N1451	N145	0.016700	0.156100	0.208800
N1461	N146	0.860300	0.283800	0.077800
N1471	N147	0.852300	0.986900	0.018500
Cl1481	Cl148	0.536600	0.214500	0.980400
Cl1491	Cl149	0.923300	0.180400	0.970200
Cl1501	Cl150	0.833200	0.932400	0.841800
Cl1511	Cl151	0.784400	0.089100	0.133200
Cl1521	Cl152	0.991300	0.944200	0.372300
Cl1531	Cl153	0.166800	0.044900	0.121100
Cl1541	Cl154	0.701600	0.424000	0.566900
Cl1551	Cl155	0.527300	0.011700	0.056900
Cl1561	Cl156	0.919300	0.443300	0.335300
Cl1571	Cl157	0.192400	0.246000	0.049400
Cl1581	Cl158	0.573600	0.558100	0.798200
Cl1591	Cl159	0.787100	0.596800	0.166900
O1601	O160	0.399200	0.214300	0.455700
O1611	O161	0.569000	0.999500	0.605700
O1621	O162	0.320300	0.227400	0.581100
O1631	O163	0.242500	0.024700	0.567800
O1641	O164	0.462100	0.576300	0.177300
O1651	O165	0.469000	0.758600	0.990800
H1661	H166	0.451520	0.250980	0.473840
H1671	H167	0.461320	0.995270	0.610040
H1681	H168	0.321550	0.282200	0.587780
H1691	H169	0.312530	0.040100	0.597760
H1701	H170	0.553110	0.585880	0.197970
H1711	H171	0.503890	0.804600	0.003570
