data_DARVAW_freeONLY_PM
_symmetry_space_group_name_H-M	'P1'
_cell_length_a	9.133200
_cell_length_b	13.839700
_cell_length_c	9.084700
_cell_angle_alpha	90.000000
_cell_angle_beta	117.392000
_cell_angle_gamma	90.000000
_symmetry_Int_Tables_number 1

loop_
_symmetry_equiv_pos_as_xyz
'x,y,z'

loop_
_atom_site_label
_atom_site_type_symbol
_atom_site_fract_x
_atom_site_fract_y
_atom_site_fract_z
Co11	Co1	0.277590	0.595840	0.221920
O11	O1	0.020800	0.608700	0.106400
O21	O2	0.793700	0.533000	0.923700
C11	C1	0.945500	0.539900	0.009000
O31	O3	0.526100	0.555500	0.340800
O41	O4	0.712000	0.484400	0.572700
C21	C2	0.570700	0.511400	0.476200
N11	N1	0.313100	0.723600	0.357900
N21	N2	0.432000	0.789400	0.383500
H11	H1	0.495800	0.789500	0.334600
N31	N3	0.317300	0.832100	0.539400
C31	C3	0.248000	0.752200	0.453500
H21	H2	0.160300	0.719200	0.460500
C41	C4	0.437100	0.854200	0.495000
N41	N4	0.542000	0.926600	0.540000
H31	H3	0.610300	0.932900	0.496800
H41	H4	0.544300	0.968800	0.613600
Co21	Co2	0.722410	0.095840	0.278080
O51	O5	0.979200	0.108700	0.393600
O61	O6	0.206300	0.033000	0.576300
C51	C5	0.054500	0.039900	0.491000
O71	O7	0.473900	0.055500	0.159200
O81	O8	0.288000	0.984400	0.927300
C61	C6	0.429300	0.011400	0.023800
N51	N5	0.686900	0.223600	0.142100
N61	N6	0.568000	0.289400	0.116500
H51	H5	0.504200	0.289500	0.165400
N71	N7	0.682700	0.332100	0.960600
C71	C7	0.752000	0.252200	0.046500
H61	H6	0.839700	0.219200	0.039500
C81	C8	0.562900	0.354200	0.005000
N81	N8	0.458000	0.426600	0.960000
H71	H7	0.389700	0.432900	0.003200
H81	H8	0.455700	0.468800	0.886400
Co31	Co3	0.722410	0.404160	0.778080
O91	O9	0.979200	0.391300	0.893600
O101	O10	0.206300	0.467000	0.076300
C91	C9	0.054500	0.460100	0.991000
O111	O11	0.473900	0.444500	0.659200
O121	O12	0.288000	0.515600	0.427300
C101	C10	0.429300	0.488600	0.523800
N91	N9	0.686900	0.276400	0.642100
N101	N10	0.568000	0.210600	0.616500
H91	H9	0.504200	0.210500	0.665400
N111	N11	0.682700	0.167900	0.460600
C111	C11	0.752000	0.247800	0.546500
H101	H10	0.839700	0.280800	0.539500
C121	C12	0.562900	0.145800	0.505000
N121	N12	0.458000	0.073400	0.460000
H111	H11	0.389700	0.067100	0.503200
H121	H12	0.455700	0.031200	0.386400
Co41	Co4	0.277590	0.904160	0.721920
O131	O13	0.020800	0.891300	0.606400
O141	O14	0.793700	0.967000	0.423700
C131	C13	0.945500	0.960100	0.509000
O151	O15	0.526100	0.944500	0.840800
O161	O16	0.712000	0.015600	0.072700
C141	C14	0.570700	0.988600	0.976200
N131	N13	0.313100	0.776400	0.857900
N141	N14	0.432000	0.710600	0.883500
H131	H13	0.495800	0.710500	0.834600
N151	N15	0.317300	0.667900	0.039400
C151	C15	0.248000	0.747800	0.953500
H141	H14	0.160300	0.780800	0.960500
C161	C16	0.437100	0.645800	0.995000
N161	N16	0.542000	0.573400	0.040000
H151	H15	0.610300	0.567100	0.996800
H161	H16	0.544300	0.531200	0.113600
