data_DATHAJ_freeONLY_PM
_symmetry_space_group_name_H-M	'P1'
_cell_length_a	12.609600
_cell_length_b	13.007900
_cell_length_c	22.501400
_cell_angle_alpha	90.000000
_cell_angle_beta	90.000000
_cell_angle_gamma	90.000000
_symmetry_Int_Tables_number 1

loop_
_symmetry_equiv_pos_as_xyz
'x,y,z'

loop_
_atom_site_label
_atom_site_type_symbol
_atom_site_fract_x
_atom_site_fract_y
_atom_site_fract_z
Nd11	Nd1	0.011420	0.839030	0.507320
Nd21	Nd2	0.511420	0.660970	0.492680
Nd31	Nd3	0.988580	0.160970	0.007320
Nd41	Nd4	0.488580	0.339030	0.992680
Nd51	Nd5	0.988580	0.160970	0.492680
Nd61	Nd6	0.488580	0.339030	0.507320
Nd71	Nd7	0.011420	0.839030	0.992680
Nd81	Nd8	0.511420	0.660970	0.007320
Nd91	Nd9	0.836550	0.708160	0.250000
Nd101	Nd10	0.336550	0.791840	0.750000
Nd111	Nd11	0.163450	0.291840	0.750000
Nd121	Nd12	0.663450	0.208160	0.250000
H11	H1	0.993500	0.959500	0.607000
H21	H2	0.912300	0.893100	0.625800
H31	H3	0.685400	0.651000	0.352900
H41	H4	0.619900	0.672200	0.303900
H51	H5	0.069400	0.683900	0.279700
H61	H6	0.153700	0.477400	0.610000
H71	H7	0.991000	0.559000	0.660300
H81	H8	0.946500	0.659400	0.630600
H91	H9	0.930700	0.464400	0.574300
H101	H10	0.875600	0.565300	0.551800
H111	H11	0.758200	0.562900	0.629700
H121	H12	0.757000	0.452200	0.602300
H131	H13	0.820300	0.473600	0.660900
H141	H14	0.493500	0.540500	0.393000
H151	H15	0.412300	0.606900	0.374200
H161	H16	0.185400	0.849000	0.647100
H171	H17	0.119900	0.827800	0.696100
H181	H18	0.569400	0.816100	0.720300
H191	H19	0.653700	0.022600	0.390000
H201	H20	0.491000	0.941000	0.339700
H211	H21	0.446500	0.840600	0.369400
H221	H22	0.430700	0.035600	0.425700
H231	H23	0.375600	0.934700	0.448200
H241	H24	0.258200	0.937100	0.370300
H251	H25	0.257000	0.047800	0.397700
H261	H26	0.320300	0.026400	0.339100
H271	H27	0.006500	0.040500	0.107000
H281	H28	0.087700	0.106900	0.125800
H291	H29	0.314600	0.349000	0.852900
H301	H30	0.380100	0.327800	0.803900
H311	H31	0.930600	0.316100	0.779700
H321	H32	0.846300	0.522600	0.110000
H331	H33	0.009000	0.441000	0.160300
H341	H34	0.053500	0.340600	0.130600
H351	H35	0.069300	0.535600	0.074300
H361	H36	0.124400	0.434700	0.051800
H371	H37	0.241800	0.437100	0.129700
H381	H38	0.243000	0.547800	0.102300
H391	H39	0.179700	0.526400	0.160900
H401	H40	0.506500	0.459500	0.893000
H411	H41	0.587700	0.393100	0.874200
H421	H42	0.814600	0.151000	0.147100
H431	H43	0.880100	0.172200	0.196100
H441	H44	0.430600	0.183900	0.220300
H451	H45	0.346300	0.977400	0.890000
H461	H46	0.509000	0.059000	0.839700
H471	H47	0.553500	0.159400	0.869400
H481	H48	0.569300	0.964400	0.925700
H491	H49	0.624400	0.065300	0.948200
H501	H50	0.741800	0.062900	0.870300
H511	H51	0.743000	0.952200	0.897700
H521	H52	0.679700	0.973600	0.839100
H531	H53	0.006500	0.040500	0.393000
H541	H54	0.087700	0.106900	0.374200
H551	H55	0.314600	0.349000	0.647100
H561	H56	0.380100	0.327800	0.696100
H571	H57	0.930600	0.316100	0.720300
H581	H58	0.846300	0.522600	0.390000
H591	H59	0.009000	0.441000	0.339700
H601	H60	0.053500	0.340600	0.369400
H611	H61	0.069300	0.535600	0.425700
H621	H62	0.124400	0.434700	0.448200
H631	H63	0.241800	0.437100	0.370300
H641	H64	0.243000	0.547800	0.397700
H651	H65	0.179700	0.526400	0.339100
H661	H66	0.506500	0.459500	0.607000
H671	H67	0.587700	0.393100	0.625800
H681	H68	0.814600	0.151000	0.352900
H691	H69	0.880100	0.172200	0.303900
H701	H70	0.430600	0.183900	0.279700
H711	H71	0.346300	0.977400	0.610000
H721	H72	0.509000	0.059000	0.660300
H731	H73	0.553500	0.159400	0.630600
H741	H74	0.569300	0.964400	0.574300
H751	H75	0.624400	0.065300	0.551800
H761	H76	0.741800	0.062900	0.629700
H771	H77	0.743000	0.952200	0.602300
H781	H78	0.679700	0.973600	0.660900
H791	H79	0.993500	0.959500	0.893000
H801	H80	0.912300	0.893100	0.874200
H811	H81	0.685400	0.651000	0.147100
H821	H82	0.619900	0.672200	0.196100
H831	H83	0.069400	0.683900	0.220300
H841	H84	0.153700	0.477400	0.890000
H851	H85	0.991000	0.559000	0.839700
H861	H86	0.946500	0.659400	0.869400
H871	H87	0.930700	0.464400	0.925700
H881	H88	0.875600	0.565300	0.948200
H891	H89	0.758200	0.562900	0.870300
H901	H90	0.757000	0.452200	0.897700
H911	H91	0.820300	0.473600	0.839100
H921	H92	0.493500	0.540500	0.107000
H931	H93	0.412300	0.606900	0.125800
H941	H94	0.185400	0.849000	0.852900
H951	H95	0.119900	0.827800	0.803900
H961	H96	0.569400	0.816100	0.779700
H971	H97	0.653700	0.022600	0.110000
H981	H98	0.491000	0.941000	0.160300
H991	H99	0.446500	0.840600	0.130600
H1001	H100	0.430700	0.035600	0.074300
H1011	H101	0.375600	0.934700	0.051800
H1021	H102	0.258200	0.937100	0.129700
H1031	H103	0.257000	0.047800	0.102300
H1041	H104	0.320300	0.026400	0.160900
H1051	H105	0.702500	0.474700	0.250000
H1061	H106	0.202500	0.025300	0.750000
H1071	H107	0.297500	0.525300	0.750000
H1081	H108	0.797500	0.974700	0.250000
C11	C1	0.199000	0.653600	0.525990
C21	C2	0.231800	0.560400	0.548950
C31	C3	0.077600	0.604200	0.588630
C41	C4	0.241300	0.720700	0.477420
C51	C5	0.318300	0.487300	0.537140
C61	C6	0.976600	0.592200	0.622560
C71	C7	0.896800	0.527600	0.587100
C81	C8	0.799100	0.501700	0.623300
C91	C9	0.945200	0.829300	0.365650
C101	C10	0.926200	0.718800	0.389300
C111	C11	0.699000	0.846400	0.474010
C121	C12	0.731800	0.939600	0.451050
C131	C13	0.577600	0.895800	0.411370
C141	C14	0.741300	0.779300	0.522580
C151	C15	0.818300	0.012700	0.462860
C161	C16	0.476600	0.907800	0.377440
C171	C17	0.396800	0.972400	0.412900
C181	C18	0.299100	0.998300	0.376700
C191	C19	0.445200	0.670700	0.634350
C201	C20	0.426200	0.781200	0.610700
C211	C21	0.801000	0.346400	0.025990
C221	C22	0.768200	0.439600	0.048950
C231	C23	0.922400	0.395800	0.088630
C241	C24	0.758700	0.279300	0.977420
C251	C25	0.681700	0.512700	0.037140
C261	C26	0.023400	0.407800	0.122560
C271	C27	0.103200	0.472400	0.087100
C281	C28	0.200900	0.498300	0.123300
C291	C29	0.054800	0.170700	0.865650
C301	C30	0.073800	0.281200	0.889300
C311	C31	0.301000	0.153600	0.974010
C321	C32	0.268200	0.060400	0.951050
C331	C33	0.422400	0.104200	0.911370
C341	C34	0.258700	0.220700	0.022580
C351	C35	0.181700	0.987300	0.962860
C361	C36	0.523400	0.092200	0.877440
C371	C37	0.603200	0.027600	0.912900
C381	C38	0.700900	0.001700	0.876700
C391	C39	0.554800	0.329300	0.134350
C401	C40	0.573800	0.218800	0.110700
C411	C41	0.801000	0.346400	0.474010
C421	C42	0.768200	0.439600	0.451050
C431	C43	0.922400	0.395800	0.411370
C441	C44	0.758700	0.279300	0.522580
C451	C45	0.681700	0.512700	0.462860
C461	C46	0.023400	0.407800	0.377440
C471	C47	0.103200	0.472400	0.412900
C481	C48	0.200900	0.498300	0.376700
C491	C49	0.054800	0.170700	0.634350
C501	C50	0.073800	0.281200	0.610700
C511	C51	0.301000	0.153600	0.525990
C521	C52	0.268200	0.060400	0.548950
C531	C53	0.422400	0.104200	0.588630
C541	C54	0.258700	0.220700	0.477420
C551	C55	0.181700	0.987300	0.537140
C561	C56	0.523400	0.092200	0.622560
C571	C57	0.603200	0.027600	0.587100
C581	C58	0.700900	0.001700	0.623300
C591	C59	0.554800	0.329300	0.365650
C601	C60	0.573800	0.218800	0.389300
C611	C61	0.199000	0.653600	0.974010
C621	C62	0.231800	0.560400	0.951050
C631	C63	0.077600	0.604200	0.911370
C641	C64	0.241300	0.720700	0.022580
C651	C65	0.318300	0.487300	0.962860
C661	C66	0.976600	0.592200	0.877440
C671	C67	0.896800	0.527600	0.912900
C681	C68	0.799100	0.501700	0.876700
C691	C69	0.945200	0.829300	0.134350
C701	C70	0.926200	0.718800	0.110700
C711	C71	0.699000	0.846400	0.025990
C721	C72	0.731800	0.939600	0.048950
C731	C73	0.577600	0.895800	0.088630
C741	C74	0.741300	0.779300	0.977420
C751	C75	0.818300	0.012700	0.037140
C761	C76	0.476600	0.907800	0.122560
C771	C77	0.396800	0.972400	0.087100
C781	C78	0.299100	0.998300	0.123300
C791	C79	0.445200	0.670700	0.865650
C801	C80	0.426200	0.781200	0.889300
C811	C81	0.772600	0.452300	0.250000
C821	C82	0.272600	0.047700	0.750000
C831	C83	0.227400	0.547700	0.750000
C841	C84	0.727400	0.952300	0.250000
N11	N1	0.102500	0.679700	0.551050
N21	N2	0.153600	0.532200	0.588690
N31	N3	0.602500	0.820300	0.448950
N41	N4	0.653600	0.967800	0.411310
N51	N5	0.897500	0.320300	0.051050
N61	N6	0.846400	0.467800	0.088690
N71	N7	0.397500	0.179700	0.948950
N81	N8	0.346400	0.032200	0.911310
N91	N9	0.897500	0.320300	0.448950
N101	N10	0.846400	0.467800	0.411310
N111	N11	0.397500	0.179700	0.551050
N121	N12	0.346400	0.032200	0.588690
N131	N13	0.102500	0.679700	0.948950
N141	N14	0.153600	0.532200	0.911310
N151	N15	0.602500	0.820300	0.051050
N161	N16	0.653600	0.967800	0.088690
O11	O1	0.174950	0.782530	0.455240
O21	O2	0.335070	0.711440	0.460370
O31	O3	0.389980	0.508720	0.498840
O41	O4	0.319090	0.403500	0.564510
O51	O5	0.920900	0.846550	0.313120
O61	O6	0.983950	0.892480	0.402290
O71	O7	0.948100	0.701470	0.442160
O81	O8	0.891300	0.654630	0.352310
O91	O9	0.976400	0.897600	0.614280
O101	O10	0.683300	0.668200	0.316430
O111	O11	0.674950	0.717470	0.544760
O121	O12	0.835070	0.788560	0.539630
O131	O13	0.889980	0.991280	0.501160
O141	O14	0.819090	0.096500	0.435490
O151	O15	0.420900	0.653450	0.686880
O161	O16	0.483950	0.607520	0.597710
O171	O17	0.448100	0.798530	0.557840
O181	O18	0.391300	0.845370	0.647690
O191	O19	0.476400	0.602400	0.385720
O201	O20	0.183300	0.831800	0.683570
O211	O21	0.825050	0.217470	0.955240
O221	O22	0.664930	0.288560	0.960370
O231	O23	0.610020	0.491280	0.998840
O241	O24	0.680910	0.596500	0.064510
O251	O25	0.079100	0.153450	0.813120
O261	O26	0.016050	0.107520	0.902290
O271	O27	0.051900	0.298530	0.942160
O281	O28	0.108700	0.345370	0.852310
O291	O29	0.023600	0.102400	0.114280
O301	O30	0.316700	0.331800	0.816430
O311	O31	0.325050	0.282530	0.044760
O321	O32	0.164930	0.211440	0.039630
O331	O33	0.110020	0.008720	0.001160
O341	O34	0.180910	0.903500	0.935490
O351	O35	0.579100	0.346550	0.186880
O361	O36	0.516050	0.392480	0.097710
O371	O37	0.551900	0.201470	0.057840
O381	O38	0.608700	0.154630	0.147690
O391	O39	0.523600	0.397600	0.885720
O401	O40	0.816700	0.168200	0.183570
O411	O41	0.825050	0.217470	0.544760
O421	O42	0.664930	0.288560	0.539630
O431	O43	0.610020	0.491280	0.501160
O441	O44	0.680910	0.596500	0.435490
O451	O45	0.079100	0.153450	0.686880
O461	O46	0.016050	0.107520	0.597710
O471	O47	0.051900	0.298530	0.557840
O481	O48	0.108700	0.345370	0.647690
O491	O49	0.023600	0.102400	0.385720
O501	O50	0.316700	0.331800	0.683570
O511	O51	0.325050	0.282530	0.455240
O521	O52	0.164930	0.211440	0.460370
O531	O53	0.110020	0.008720	0.498840
O541	O54	0.180910	0.903500	0.564510
O551	O55	0.579100	0.346550	0.313120
O561	O56	0.516050	0.392480	0.402290
O571	O57	0.551900	0.201470	0.442160
O581	O58	0.608700	0.154630	0.352310
O591	O59	0.523600	0.397600	0.614280
O601	O60	0.816700	0.168200	0.316430
O611	O61	0.174950	0.782530	0.044760
O621	O62	0.335070	0.711440	0.039630
O631	O63	0.389980	0.508720	0.001160
O641	O64	0.319090	0.403500	0.935490
O651	O65	0.920900	0.846550	0.186880
O661	O66	0.983950	0.892480	0.097710
O671	O67	0.948100	0.701470	0.057840
O681	O68	0.891300	0.654630	0.147690
O691	O69	0.976400	0.897600	0.885720
O701	O70	0.683300	0.668200	0.183570
O711	O71	0.674950	0.717470	0.955240
O721	O72	0.835070	0.788560	0.960370
O731	O73	0.889980	0.991280	0.998840
O741	O74	0.819090	0.096500	0.064510
O751	O75	0.420900	0.653450	0.813120
O761	O76	0.483950	0.607520	0.902290
O771	O77	0.448100	0.798530	0.942160
O781	O78	0.391300	0.845370	0.852310
O791	O79	0.476400	0.602400	0.114280
O801	O80	0.183300	0.831800	0.816430
O811	O81	0.841400	0.519300	0.250000
O821	O82	0.787200	0.357300	0.250000
O831	O83	0.032800	0.664700	0.250000
O841	O84	0.341400	0.980700	0.750000
O851	O85	0.287200	0.142700	0.750000
O861	O86	0.532800	0.835300	0.750000
O871	O87	0.158600	0.480700	0.750000
O881	O88	0.212800	0.642700	0.750000
O891	O89	0.967200	0.335300	0.750000
O901	O90	0.658600	0.019300	0.250000
O911	O91	0.712800	0.857300	0.250000
O921	O92	0.467200	0.164700	0.250000
