data_DAWBUA_freeONLY_PM
_symmetry_space_group_name_H-M	'P1'
_cell_length_a	6.700200
_cell_length_b	27.133100
_cell_length_c	7.681700
_cell_angle_alpha	90.000000
_cell_angle_beta	90.000000
_cell_angle_gamma	90.000000
_symmetry_Int_Tables_number 1

loop_
_symmetry_equiv_pos_as_xyz
'x,y,z'

loop_
_atom_site_label
_atom_site_type_symbol
_atom_site_fract_x
_atom_site_fract_y
_atom_site_fract_z
Co11	Co1	0.995870	0.717420	0.249660
Co21	Co2	0.004130	0.282580	0.249660
Co31	Co3	0.495870	0.782580	0.750340
Co41	Co4	0.504130	0.217420	0.750340
H11	H1	0.616300	0.612600	0.310500
H21	H2	0.989600	0.848700	0.090400
H31	H3	0.147900	0.537600	0.116600
H41	H4	0.284400	0.854600	0.255700
H51	H5	0.092900	0.860500	0.370100
H61	H6	0.413000	0.681300	0.321700
H71	H7	0.968200	0.610700	0.116700
H81	H8	0.669000	0.527800	0.216200
H91	H9	0.383700	0.387400	0.310500
H101	H10	0.010400	0.151300	0.090400
H111	H11	0.852100	0.462400	0.116600
H121	H12	0.715600	0.145400	0.255700
H131	H13	0.907100	0.139500	0.370100
H141	H14	0.587000	0.318700	0.321700
H151	H15	0.031800	0.389300	0.116700
H161	H16	0.331000	0.472200	0.216200
H171	H17	0.116300	0.887400	0.689500
H181	H18	0.489600	0.651300	0.909600
H191	H19	0.647900	0.962400	0.883400
H201	H20	0.784400	0.645400	0.744300
H211	H21	0.592900	0.639500	0.629900
H221	H22	0.913000	0.818700	0.678300
H231	H23	0.468200	0.889300	0.883300
H241	H24	0.169000	0.972200	0.783800
H251	H25	0.883700	0.112600	0.689500
H261	H26	0.510400	0.348700	0.909600
H271	H27	0.352100	0.037600	0.883400
H281	H28	0.215600	0.354600	0.744300
H291	H29	0.407100	0.360500	0.629900
H301	H30	0.087000	0.181300	0.678300
H311	H31	0.531800	0.110700	0.883300
H321	H32	0.831000	0.027800	0.783800
C11	C1	0.484000	0.610600	0.274700
C21	C2	0.042200	0.819500	0.150300
C31	C3	0.246800	0.797200	0.425100
C41	C4	0.406100	0.567000	0.214600
C51	C5	0.205900	0.566600	0.157200
C61	C6	0.170300	0.837100	0.302400
C71	C7	0.359300	0.651900	0.280700
C81	C8	0.166600	0.790100	0.020400
C91	C9	0.096600	0.610400	0.162700
C101	C10	0.531600	0.522900	0.215500
C111	C11	0.516000	0.389400	0.274700
C121	C12	0.957800	0.180500	0.150300
C131	C13	0.753200	0.202800	0.425100
C141	C14	0.593900	0.433000	0.214600
C151	C15	0.794100	0.433400	0.157200
C161	C16	0.829700	0.162900	0.302400
C171	C17	0.640700	0.348100	0.280700
C181	C18	0.833400	0.209900	0.020400
C191	C19	0.903400	0.389600	0.162700
C201	C20	0.468400	0.477100	0.215500
C211	C21	0.984000	0.889400	0.725300
C221	C22	0.542200	0.680500	0.849700
C231	C23	0.746800	0.702800	0.574900
C241	C24	0.906100	0.933000	0.785400
C251	C25	0.705900	0.933400	0.842800
C261	C26	0.670300	0.662900	0.697600
C271	C27	0.859300	0.848100	0.719300
C281	C28	0.666600	0.709900	0.979600
C291	C29	0.596600	0.889600	0.837300
C301	C30	0.031600	0.977100	0.784500
C311	C31	0.016000	0.110600	0.725300
C321	C32	0.457800	0.319500	0.849700
C331	C33	0.253200	0.297200	0.574900
C341	C34	0.093900	0.067000	0.785400
C351	C35	0.294100	0.066600	0.842800
C361	C36	0.329700	0.337100	0.697600
C371	C37	0.140700	0.151900	0.719300
C381	C38	0.333400	0.290100	0.979600
C391	C39	0.403400	0.110400	0.837300
C401	C40	0.968400	0.022900	0.784500
N11	N1	0.169500	0.651900	0.231700
N21	N2	0.830500	0.348100	0.231700
N31	N3	0.669500	0.848100	0.768300
N41	N4	0.330500	0.151900	0.768300
O11	O1	0.277700	0.813000	0.921900
O21	O2	0.875800	0.792000	0.218400
O31	O3	0.143500	0.743600	0.024500
O41	O4	0.210300	0.752100	0.399800
O51	O5	0.341600	0.813900	0.551100
O61	O6	0.722300	0.187000	0.921900
O71	O7	0.124200	0.208000	0.218400
O81	O8	0.856500	0.256400	0.024500
O91	O9	0.789700	0.247900	0.399800
O101	O10	0.658400	0.186100	0.551100
O111	O11	0.777700	0.687000	0.078100
O121	O12	0.375800	0.708000	0.781600
O131	O13	0.643500	0.756400	0.975500
O141	O14	0.710300	0.747900	0.600200
O151	O15	0.841600	0.686100	0.448900
O161	O16	0.222300	0.313000	0.078100
O171	O17	0.624200	0.292000	0.781600
O181	O18	0.356500	0.243600	0.975500
O191	O19	0.289700	0.252100	0.600200
O201	O20	0.158400	0.313900	0.448900
