data_DAWBIO_freeONLY_PM
_symmetry_space_group_name_H-M	'P1'
_cell_length_a	6.620000
_cell_length_b	26.282000
_cell_length_c	7.667000
_cell_angle_alpha	90.000000
_cell_angle_beta	90.000000
_cell_angle_gamma	90.000000
_symmetry_Int_Tables_number 1

loop_
_symmetry_equiv_pos_as_xyz
'x,y,z'

loop_
_atom_site_label
_atom_site_type_symbol
_atom_site_fract_x
_atom_site_fract_y
_atom_site_fract_z
Co11	Co1	0.985840	0.283360	0.250710
Co21	Co2	0.014160	0.716640	0.250710
Co31	Co3	0.485840	0.216640	0.749290
Co41	Co4	0.514160	0.783360	0.749290
H11	H1	0.972400	0.148300	0.411700
H21	H2	0.082900	0.135100	0.135200
H31	H3	0.275200	0.142100	0.251000
H41	H4	0.966600	0.394900	0.382900
H51	H5	0.162600	0.467200	0.400000
H61	H6	0.618600	0.389000	0.183400
H71	H7	0.403900	0.320200	0.166200
H81	H8	0.027600	0.851700	0.411700
H91	H9	0.917100	0.864900	0.135200
H101	H10	0.724800	0.857900	0.251000
H111	H11	0.033400	0.605100	0.382900
H121	H12	0.837400	0.532800	0.400000
H131	H13	0.381400	0.611000	0.183400
H141	H14	0.596100	0.679800	0.166200
H151	H15	0.472400	0.351700	0.588300
H161	H16	0.582900	0.364900	0.864800
H171	H17	0.775200	0.357900	0.749000
H181	H18	0.466600	0.105100	0.617100
H191	H19	0.662600	0.032800	0.600000
H201	H20	0.118600	0.111000	0.816600
H211	H21	0.903900	0.179800	0.833800
H221	H22	0.527600	0.648300	0.588300
H231	H23	0.417100	0.635100	0.864800
H241	H24	0.224800	0.642100	0.749000
H251	H25	0.533400	0.894900	0.617100
H261	H26	0.337400	0.967200	0.600000
H271	H27	0.881400	0.889000	0.816600
H281	H28	0.096100	0.820200	0.833800
C11	C1	0.149900	0.208400	0.483600
C21	C2	0.027800	0.178200	0.352300
C31	C3	0.159600	0.159700	0.202200
C41	C4	0.237000	0.200600	0.077400
C51	C5	0.097700	0.394000	0.339400
C61	C6	0.214300	0.437700	0.350100
C71	C7	0.408300	0.436500	0.285100
C81	C8	0.485300	0.391600	0.220600
C91	C9	0.354200	0.350300	0.213800
C101	C10	0.850100	0.791600	0.483600
C111	C11	0.972200	0.821800	0.352300
C121	C12	0.840400	0.840300	0.202200
C131	C13	0.763000	0.799400	0.077400
C141	C14	0.902300	0.606000	0.339400
C151	C15	0.785700	0.562300	0.350100
C161	C16	0.591700	0.563500	0.285100
C171	C17	0.514700	0.608400	0.220600
C181	C18	0.645800	0.649700	0.213800
C191	C19	0.649900	0.291600	0.516400
C201	C20	0.527800	0.321800	0.647700
C211	C21	0.659600	0.340300	0.797800
C221	C22	0.737000	0.299400	0.922600
C231	C23	0.597700	0.106000	0.660600
C241	C24	0.714300	0.062300	0.649900
C251	C25	0.908300	0.063500	0.714900
C261	C26	0.985300	0.108400	0.779400
C271	C27	0.854200	0.149700	0.786200
C281	C28	0.350100	0.708400	0.516400
C291	C29	0.472200	0.678200	0.647700
C301	C30	0.340400	0.659700	0.797800
C311	C31	0.263000	0.700600	0.922600
C321	C32	0.402300	0.894000	0.660600
C331	C33	0.285700	0.937700	0.649900
C341	C34	0.091700	0.936500	0.714900
C351	C35	0.014700	0.891600	0.779400
C361	C36	0.145800	0.850300	0.786200
N11	N1	0.165500	0.350000	0.269000
N21	N2	0.542100	0.479200	0.287100
N31	N3	0.834500	0.650000	0.269000
N41	N4	0.457900	0.520800	0.287100
N51	N5	0.665500	0.150000	0.731000
N61	N6	0.042100	0.020800	0.712900
N71	N7	0.334500	0.850000	0.731000
N81	N8	0.957900	0.979200	0.712900
O11	O1	0.126000	0.256410	0.479800
O21	O2	0.861800	0.206570	0.279300
O31	O3	0.203800	0.246960	0.101000
O41	O4	0.341000	0.183360	0.953700
O51	O5	0.267300	0.184600	0.579500
O61	O6	0.874000	0.743590	0.479800
O71	O7	0.138200	0.793430	0.279300
O81	O8	0.796200	0.753040	0.101000
O91	O9	0.659000	0.816640	0.953700
O101	O10	0.732700	0.815400	0.579500
O111	O11	0.626000	0.243590	0.520200
O121	O12	0.361800	0.293430	0.720700
O131	O13	0.703800	0.253040	0.899000
O141	O14	0.841000	0.316640	0.046300
O151	O15	0.767300	0.315400	0.420500
O161	O16	0.374000	0.756410	0.520200
O171	O17	0.638200	0.706570	0.720700
O181	O18	0.296200	0.746960	0.899000
O191	O19	0.159000	0.683360	0.046300
O201	O20	0.232700	0.684600	0.420500
