data_DAXHIV01_freeONLY_PM
_symmetry_space_group_name_H-M	'P1'
_cell_length_a	12.011500
_cell_length_b	12.102000
_cell_length_c	13.678800
_cell_angle_alpha	98.683300
_cell_angle_beta	116.044000
_cell_angle_gamma	69.887900
_symmetry_Int_Tables_number 1

loop_
_symmetry_equiv_pos_as_xyz
'x,y,z'

loop_
_atom_site_label
_atom_site_type_symbol
_atom_site_fract_x
_atom_site_fract_y
_atom_site_fract_z
Fe11	Fe1	0.000000	0.000000	0.000000
Fe21	Fe2	0.106640	0.258730	0.000000
Fe31	Fe3	0.893360	0.741270	0.000000
H11	H1	0.283300	0.280900	0.950600
H21	H2	0.905200	0.920100	0.575400
H31	H3	0.134500	0.111700	0.607600
H41	H4	0.667300	0.719100	0.950600
H51	H5	0.670200	0.079900	0.575400
H61	H6	0.473100	0.888300	0.607600
H71	H7	0.716700	0.719100	0.049400
H81	H8	0.094800	0.079900	0.424600
H91	H9	0.865500	0.888300	0.392400
H101	H10	0.332700	0.280900	0.049400
H111	H11	0.329800	0.920100	0.424600
H121	H12	0.526900	0.111700	0.392400
H131	H13	0.527800	0.300900	0.000000
H141	H14	0.664600	0.559200	0.000000
H151	H15	0.472200	0.699100	0.000000
H161	H16	0.335400	0.440800	0.000000
C11	C1	0.944150	0.953200	0.544900
C21	C2	0.022580	0.019300	0.609360
C31	C3	0.079310	0.066200	0.564020
C41	C4	0.044090	0.042400	0.724180
C51	C5	0.600750	0.046800	0.544900
C61	C6	0.586780	0.980700	0.609360
C71	C7	0.484710	0.933800	0.564020
C81	C8	0.680090	0.957600	0.724180
C91	C9	0.055850	0.046800	0.455100
C101	C10	0.977420	0.980700	0.390640
C111	C11	0.920690	0.933800	0.435980
C121	C12	0.955910	0.957600	0.275820
C131	C13	0.399250	0.953200	0.455100
C141	C14	0.413220	0.019300	0.390640
C151	C15	0.515290	0.066200	0.435980
C161	C16	0.319910	0.042400	0.275820
C171	C17	0.517200	0.382300	0.000000
C181	C18	0.614500	0.417300	0.000000
C191	C19	0.597900	0.533900	0.000000
C201	C20	0.736500	0.330600	0.000000
C211	C21	0.482800	0.617700	0.000000
C221	C22	0.385500	0.582700	0.000000
C231	C23	0.402100	0.466100	0.000000
C241	C24	0.263500	0.669400	0.000000
C251	C25	0.968640	0.500000	0.937280
C261	C26	0.031360	0.500000	0.062720
N11	N1	0.021390	0.980200	0.781980
N21	N2	0.042480	0.036300	0.877160
N31	N3	0.076940	0.128300	0.875280
N41	N4	0.078740	0.135100	0.779680
N51	N5	0.760590	0.019800	0.781980
N61	N6	0.834680	0.963700	0.877160
N71	N7	0.798340	0.871700	0.875280
N81	N8	0.700940	0.864900	0.779680
N91	N9	0.978610	0.019800	0.218020
N101	N10	0.957520	0.963700	0.122840
N111	N11	0.923060	0.871700	0.124720
N121	N12	0.921260	0.864900	0.220320
N131	N13	0.239410	0.980200	0.218020
N141	N14	0.165320	0.036300	0.122840
N151	N15	0.201660	0.128300	0.124720
N161	N16	0.299060	0.135100	0.220320
N171	N17	0.766500	0.212700	0.000000
N181	N18	0.886200	0.173700	0.000000
N191	N19	0.923900	0.263100	0.000000
N201	N20	0.831500	0.364100	0.000000
N211	N21	0.233500	0.787300	0.000000
N221	N22	0.113800	0.826300	0.000000
N231	N23	0.076100	0.736900	0.000000
N241	N24	0.168500	0.635900	0.000000
O11	O1	0.996970	0.403610	0.890320
O21	O2	0.893350	0.596390	0.890320
O31	O3	0.003030	0.596390	0.109680
O41	O4	0.106650	0.403610	0.109680
O51	O5	0.286400	0.243500	0.000000
O61	O6	0.713600	0.756500	0.000000
