data_DAXHIV_freeONLY_PM
_symmetry_space_group_name_H-M	'P1'
_cell_length_a	12.078000
_cell_length_b	12.087000
_cell_length_c	13.684600
_cell_angle_alpha	98.882100
_cell_angle_beta	116.187000
_cell_angle_gamma	69.520000
_symmetry_Int_Tables_number 1

loop_
_symmetry_equiv_pos_as_xyz
'x,y,z'

loop_
_atom_site_label
_atom_site_type_symbol
_atom_site_fract_x
_atom_site_fract_y
_atom_site_fract_z
Fe11	Fe1	0.000000	0.000000	0.000000
Fe21	Fe2	0.104390	0.258460	0.000000
Fe31	Fe3	0.895610	0.741540	0.000000
H11	H1	0.285800	0.274800	0.950200
H21	H2	0.902200	0.919100	0.570800
H31	H3	0.129100	0.114600	0.606000
H41	H4	0.664400	0.725200	0.950200
H51	H5	0.668600	0.080900	0.570800
H61	H6	0.476900	0.885400	0.606000
H71	H7	0.714200	0.725200	0.049800
H81	H8	0.097800	0.080900	0.429200
H91	H9	0.870900	0.885400	0.394000
H101	H10	0.335600	0.274800	0.049800
H111	H11	0.331400	0.919100	0.429200
H121	H12	0.523100	0.114600	0.394000
H131	H13	0.528300	0.292600	0.000000
H141	H14	0.663400	0.560400	0.000000
H151	H15	0.471700	0.707400	0.000000
H161	H16	0.336600	0.439600	0.000000
C11	C1	0.942800	0.951800	0.542200
C21	C2	0.022400	0.019300	0.610000
C31	C3	0.076600	0.067000	0.562800
C41	C4	0.039400	0.042300	0.722800
C51	C5	0.599400	0.048200	0.542200
C61	C6	0.587600	0.980700	0.610000
C71	C7	0.486200	0.933000	0.562800
C81	C8	0.683400	0.957700	0.722800
C91	C9	0.057200	0.048200	0.457800
C101	C10	0.977600	0.980700	0.390000
C111	C11	0.923400	0.933000	0.437200
C121	C12	0.960600	0.957700	0.277200
C131	C13	0.400600	0.951800	0.457800
C141	C14	0.412400	0.019300	0.390000
C151	C15	0.513800	0.067000	0.437200
C161	C16	0.316600	0.042300	0.277200
C171	C17	0.517400	0.374400	0.000000
C181	C18	0.616400	0.417200	0.000000
C191	C19	0.596600	0.536200	0.000000
C201	C20	0.735800	0.332200	0.000000
C211	C21	0.482600	0.625600	0.000000
C221	C22	0.383600	0.582800	0.000000
C231	C23	0.403400	0.463800	0.000000
C241	C24	0.264200	0.667800	0.000000
C251	C25	0.969400	0.500000	0.938800
C261	C26	0.030600	0.500000	0.061200
N11	N1	0.019440	0.979300	0.781880
N21	N2	0.040460	0.037000	0.877120
N31	N3	0.073860	0.126200	0.875520
N41	N4	0.076000	0.132600	0.779800
N51	N5	0.762440	0.020700	0.781880
N61	N6	0.836660	0.963000	0.877120
N71	N7	0.801660	0.873800	0.875520
N81	N8	0.703800	0.867400	0.779800
N91	N9	0.980560	0.020700	0.218120
N101	N10	0.959540	0.963000	0.122880
N111	N11	0.926140	0.873800	0.124480
N121	N12	0.924000	0.867400	0.220200
N131	N13	0.237560	0.979300	0.218120
N141	N14	0.163340	0.037000	0.122880
N151	N15	0.198340	0.126200	0.124480
N161	N16	0.296200	0.132600	0.220200
N171	N17	0.767300	0.215100	0.000000
N181	N18	0.886100	0.174600	0.000000
N191	N19	0.920400	0.264700	0.000000
N201	N20	0.831300	0.362800	0.000000
N211	N21	0.232700	0.784900	0.000000
N221	N22	0.113900	0.825400	0.000000
N231	N23	0.079600	0.735300	0.000000
N241	N24	0.168700	0.637200	0.000000
O11	O1	0.997120	0.402100	0.890640
O21	O2	0.893520	0.597900	0.890640
O31	O3	0.002880	0.597900	0.109360
O41	O4	0.106480	0.402100	0.109360
O51	O5	0.289000	0.237100	0.000000
O61	O6	0.711000	0.762900	0.000000
