data_DEFKUU_freeONLY_PM
_symmetry_space_group_name_H-M	'P1'
_cell_length_a	5.022000
_cell_length_b	12.340000
_cell_length_c	15.438900
_cell_angle_alpha	90.000000
_cell_angle_beta	91.867000
_cell_angle_gamma	90.000000
_symmetry_Int_Tables_number 1

loop_
_symmetry_equiv_pos_as_xyz
'x,y,z'

loop_
_atom_site_label
_atom_site_type_symbol
_atom_site_fract_x
_atom_site_fract_y
_atom_site_fract_z
Cu11	Cu1	0.529100	0.135300	0.882800
Cu21	Cu2	0.970900	0.635300	0.617200
Cu31	Cu3	0.470900	0.864700	0.117200
Cu41	Cu4	0.029100	0.364700	0.382800
Cu51	Cu5	0.000000	0.000000	0.000000
Cu61	Cu6	0.500000	0.500000	0.500000
P11	P1	0.500800	0.892300	0.920100
P21	P2	0.999200	0.392300	0.579900
P31	P3	0.499200	0.107700	0.079900
P41	P4	0.000800	0.607700	0.420100
H11	H1	0.437000	0.706000	0.903000
H21	H2	0.242000	0.777000	0.848000
H31	H3	0.739000	0.718000	0.791000
H41	H4	0.606000	0.821000	0.754000
H51	H5	0.703000	0.310000	0.937000
H61	H6	0.514000	0.336000	0.876000
H71	H7	0.063000	0.206000	0.597000
H81	H8	0.258000	0.277000	0.652000
H91	H9	0.761000	0.218000	0.709000
H101	H10	0.894000	0.321000	0.746000
H111	H11	0.797000	0.810000	0.563000
H121	H12	0.986000	0.836000	0.624000
H131	H13	0.563000	0.294000	0.097000
H141	H14	0.758000	0.223000	0.152000
H151	H15	0.261000	0.282000	0.209000
H161	H16	0.394000	0.179000	0.246000
H171	H17	0.297000	0.690000	0.063000
H181	H18	0.486000	0.664000	0.124000
H191	H19	0.937000	0.794000	0.403000
H201	H20	0.742000	0.723000	0.348000
H211	H21	0.239000	0.782000	0.291000
H221	H22	0.106000	0.679000	0.254000
H231	H23	0.203000	0.190000	0.437000
H241	H24	0.014000	0.164000	0.376000
C11	C1	0.415500	0.770000	0.864100
C21	C2	0.569600	0.751600	0.782200
C31	C3	0.426200	0.683500	0.714100
C41	C4	0.084500	0.270000	0.635900
C51	C5	0.930400	0.251600	0.717800
C61	C6	0.073800	0.183500	0.785900
C71	C7	0.584500	0.230000	0.135900
C81	C8	0.430400	0.248400	0.217800
C91	C9	0.573800	0.316500	0.285900
C101	C10	0.915500	0.730000	0.364100
C111	C11	0.069600	0.748400	0.282200
C121	C12	0.926200	0.816500	0.214100
O11	O1	0.790000	0.882900	0.953500
O21	O2	0.683500	0.097700	0.000800
O31	O3	0.448800	0.985100	0.857500
O41	O4	0.173300	0.680700	0.718500
O51	O5	0.549400	0.637400	0.655900
O61	O6	0.544000	0.291900	0.915300
O71	O7	0.710000	0.382900	0.546500
O81	O8	0.816500	0.597700	0.499200
O91	O9	0.051200	0.485100	0.642500
O101	O10	0.326700	0.180700	0.781500
O111	O11	0.950600	0.137400	0.844100
O121	O12	0.956000	0.791900	0.584700
O131	O13	0.210000	0.117100	0.046500
O141	O14	0.316500	0.902300	0.999200
O151	O15	0.551200	0.014900	0.142500
O161	O16	0.826700	0.319300	0.281500
O171	O17	0.450600	0.362600	0.344100
O181	O18	0.456000	0.708100	0.084700
O191	O19	0.290000	0.617100	0.453500
O201	O20	0.183500	0.402300	0.500800
O211	O21	0.948800	0.514900	0.357500
O221	O22	0.673300	0.819300	0.218500
O231	O23	0.049400	0.862600	0.155900
O241	O24	0.044000	0.208100	0.415300
