data_DEPJIR_freeONLY_PM
_symmetry_space_group_name_H-M	'P1'
_cell_length_a	11.617000
_cell_length_b	8.717000
_cell_length_c	8.289000
_cell_angle_alpha	90.000000
_cell_angle_beta	90.000000
_cell_angle_gamma	90.000000
_symmetry_Int_Tables_number 1

loop_
_symmetry_equiv_pos_as_xyz
'x,y,z'

loop_
_atom_site_label
_atom_site_type_symbol
_atom_site_fract_x
_atom_site_fract_y
_atom_site_fract_z
Zn11	Zn1	0.250100	0.985430	0.000000
O11	O1	0.313000	0.164700	0.860700
O21	O2	0.323500	0.833400	0.843600
O31	O3	0.405200	0.984800	0.137300
O41	O4	0.094600	0.990900	0.870400
N11	N1	0.323400	0.334300	0.666700
N21	N2	0.320700	0.660800	0.648800
C11	C1	0.282500	0.217700	0.733300
C21	C2	0.276900	0.722000	0.778700
H11	H1	0.220700	0.166000	0.666100
H21	H2	0.222700	0.666000	0.832000
Zn21	Zn2	0.749900	0.014570	0.000000
O51	O5	0.687000	0.835300	0.860700
O61	O6	0.676500	0.166600	0.843600
O71	O7	0.594800	0.015200	0.137300
O81	O8	0.905400	0.009100	0.870400
N31	N3	0.676600	0.665700	0.666700
N41	N4	0.679300	0.339200	0.648800
C31	C3	0.717500	0.782300	0.733300
C41	C4	0.723100	0.278000	0.778700
H31	H3	0.779300	0.834000	0.666100
H41	H4	0.777300	0.334000	0.832000
Zn31	Zn3	0.750100	0.514570	0.500000
O91	O9	0.813000	0.335300	0.360700
O101	O10	0.823500	0.666600	0.343600
O111	O11	0.905200	0.515200	0.637300
O121	O12	0.594600	0.509100	0.370400
N51	N5	0.823400	0.165700	0.166700
N61	N6	0.820700	0.839200	0.148800
C51	C5	0.782500	0.282300	0.233300
C61	C6	0.776900	0.778000	0.278700
H51	H5	0.720700	0.334000	0.166100
H61	H6	0.722700	0.834000	0.332000
Zn41	Zn4	0.249900	0.485430	0.500000
O131	O13	0.187000	0.664700	0.360700
O141	O14	0.176500	0.333400	0.343600
O151	O15	0.094800	0.484800	0.637300
O161	O16	0.405400	0.490900	0.370400
N71	N7	0.176600	0.834300	0.166700
N81	N8	0.179300	0.160800	0.148800
C71	C7	0.217500	0.717700	0.233300
C81	C8	0.223100	0.222000	0.278700
H71	H7	0.279300	0.666000	0.166100
H81	H8	0.277300	0.166000	0.332000
C91	C9	0.500000	0.000000	0.056700
H91	H9	0.500000	0.000000	0.916100
C101	C10	0.000000	0.500000	0.556700
H101	H10	0.000000	0.500000	0.416100
C111	C11	0.000000	0.000000	0.925700
H111	H11	0.000000	0.000000	0.082000
C121	C12	0.500000	0.500000	0.425700
H121	H12	0.500000	0.500000	0.582000
