data_DEPJIR01_freeONLY_PM
_symmetry_space_group_name_H-M	'P1'
_cell_length_a	8.717000
_cell_length_b	11.617000
_cell_length_c	8.289000
_cell_angle_alpha	90.000000
_cell_angle_beta	90.000000
_cell_angle_gamma	90.000000
_symmetry_Int_Tables_number 1

loop_
_symmetry_equiv_pos_as_xyz
'x,y,z'

loop_
_atom_site_label
_atom_site_type_symbol
_atom_site_fract_x
_atom_site_fract_y
_atom_site_fract_z
O11	O1	0.412770	0.316780	0.105380
O21	O2	0.083760	0.176540	0.411380
O31	O3	0.237340	0.405080	0.383660
C11	C1	0.470110	0.280290	0.977670
H11	H1	0.425000	0.213000	0.938000
O41	O4	0.087230	0.683220	0.105380
O51	O5	0.416240	0.823460	0.411380
O61	O6	0.262660	0.594920	0.383660
C21	C2	0.029890	0.719710	0.977670
H21	H2	0.075000	0.787000	0.938000
O71	O7	0.087230	0.816780	0.394620
O81	O8	0.416240	0.676540	0.088620
O91	O9	0.262660	0.905080	0.116340
C31	C3	0.029890	0.780290	0.522330
H31	H3	0.075000	0.713000	0.562000
O101	O10	0.412770	0.183220	0.394620
O111	O11	0.083760	0.323460	0.088620
O121	O12	0.237340	0.094920	0.116340
C41	C4	0.470110	0.219710	0.522330
H41	H4	0.425000	0.287000	0.562000
O131	O13	0.587230	0.683220	0.894620
O141	O14	0.916240	0.823460	0.588620
O151	O15	0.762660	0.594920	0.616340
C51	C5	0.529890	0.719710	0.022330
H51	H5	0.575000	0.787000	0.062000
O161	O16	0.912770	0.316780	0.894620
O171	O17	0.583760	0.176540	0.588620
O181	O18	0.737340	0.405080	0.616340
C61	C6	0.970110	0.280290	0.022330
H61	H6	0.925000	0.213000	0.062000
O191	O19	0.912770	0.183220	0.605380
O201	O20	0.583760	0.323460	0.911380
O211	O21	0.737340	0.094920	0.883660
C71	C7	0.970110	0.219710	0.477670
H71	H7	0.925000	0.287000	0.438000
O221	O22	0.587230	0.816780	0.605380
O231	O23	0.916240	0.676540	0.911380
O241	O24	0.762660	0.905080	0.883660
C81	C8	0.529890	0.780290	0.477670
H81	H8	0.575000	0.713000	0.438000
Zn11	Zn1	0.235470	0.250000	0.250000
Zn21	Zn2	0.264530	0.750000	0.250000
Zn31	Zn3	0.764530	0.750000	0.750000
Zn41	Zn4	0.735470	0.250000	0.750000
C91	C9	0.250000	0.500000	0.313940
H91	H9	0.250000	0.500000	0.190000
C101	C10	0.250000	0.000000	0.186060
H101	H10	0.250000	0.000000	0.310000
C111	C11	0.750000	0.500000	0.686060
H111	H11	0.750000	0.500000	0.810000
C121	C12	0.750000	0.000000	0.813940
H121	H12	0.750000	0.000000	0.690000
