data_DEPSEW_freeONLY_PM
_symmetry_space_group_name_H-M	'P1'
_cell_length_a	14.365000
_cell_length_b	16.305000
_cell_length_c	8.734000
_cell_angle_alpha	90.000000
_cell_angle_beta	90.243000
_cell_angle_gamma	90.000000
_symmetry_Int_Tables_number 1

loop_
_symmetry_equiv_pos_as_xyz
'x,y,z'

loop_
_atom_site_label
_atom_site_type_symbol
_atom_site_fract_x
_atom_site_fract_y
_atom_site_fract_z
Ga11	Ga1	0.136500	0.034170	0.571630
Ga21	Ga2	0.042380	0.271630	0.632400
Ga31	Ga3	0.525540	0.126250	0.410420
Ga41	Ga4	0.365760	0.161590	0.813370
P11	P1	0.147980	0.151840	0.848540
P21	P2	0.640160	0.969290	0.447280
P31	P3	0.472750	0.218820	0.109890
P41	P4	0.971360	0.132410	0.414270
O11	O1	0.447900	0.163000	0.976500
O21	O2	0.536000	0.170900	0.218700
O31	O3	0.966100	0.197200	0.540900
O41	O4	0.629900	0.062800	0.439300
O51	O5	0.963600	0.326500	0.757400
O61	O6	0.249800	0.149300	0.896500
O71	O7	0.135200	0.225100	0.742800
O81	O8	0.088300	0.158700	0.991600
O91	O9	0.118400	0.072700	0.770500
O101	O10	0.384200	0.253000	0.691300
O111	O11	0.419700	0.063800	0.422100
O121	O12	0.062500	0.085600	0.423300
O131	O13	0.259900	0.052100	0.515200
O141	O14	0.392000	0.066400	0.705600
O151	O15	0.529600	0.292800	0.056600
O161	O16	0.113700	0.921900	0.567400
Ga51	Ga5	0.863500	0.534170	0.928370
Ga61	Ga6	0.957620	0.771630	0.867600
Ga71	Ga7	0.474460	0.626250	0.089580
Ga81	Ga8	0.634240	0.661590	0.686630
P51	P5	0.852020	0.651840	0.651460
P61	P6	0.359840	0.469290	0.052720
P71	P7	0.527250	0.718820	0.390110
P81	P8	0.028640	0.632410	0.085730
O171	O17	0.552100	0.663000	0.523500
O181	O18	0.464000	0.670900	0.281300
O191	O19	0.033900	0.697200	0.959100
O201	O20	0.370100	0.562800	0.060700
O211	O21	0.036400	0.826500	0.742600
O221	O22	0.750200	0.649300	0.603500
O231	O23	0.864800	0.725100	0.757200
O241	O24	0.911700	0.658700	0.508400
O251	O25	0.881600	0.572700	0.729500
O261	O26	0.615800	0.753000	0.808700
O271	O27	0.580300	0.563800	0.077900
O281	O28	0.937500	0.585600	0.076700
O291	O29	0.740100	0.552100	0.984800
O301	O30	0.608000	0.566400	0.794400
O311	O31	0.470400	0.792800	0.443400
O321	O32	0.886300	0.421900	0.932600
Ga91	Ga9	0.863500	0.965830	0.428370
Ga101	Ga10	0.957620	0.728370	0.367600
Ga111	Ga11	0.474460	0.873750	0.589580
Ga121	Ga12	0.634240	0.838410	0.186630
P91	P9	0.852020	0.848160	0.151460
P101	P10	0.359840	0.030710	0.552720
P111	P11	0.527250	0.781180	0.890110
P121	P12	0.028640	0.867590	0.585730
O331	O33	0.552100	0.837000	0.023500
O341	O34	0.464000	0.829100	0.781300
O351	O35	0.033900	0.802800	0.459100
O361	O36	0.370100	0.937200	0.560700
O371	O37	0.036400	0.673500	0.242600
O381	O38	0.750200	0.850700	0.103500
O391	O39	0.864800	0.774900	0.257200
O401	O40	0.911700	0.841300	0.008400
O411	O41	0.881600	0.927300	0.229500
O421	O42	0.615800	0.747000	0.308700
O431	O43	0.580300	0.936200	0.577900
O441	O44	0.937500	0.914400	0.576700
O451	O45	0.740100	0.947900	0.484800
O461	O46	0.608000	0.933600	0.294400
O471	O47	0.470400	0.707200	0.943400
O481	O48	0.886300	0.078100	0.432600
Ga131	Ga13	0.136500	0.465830	0.071630
Ga141	Ga14	0.042380	0.228370	0.132400
Ga151	Ga15	0.525540	0.373750	0.910420
Ga161	Ga16	0.365760	0.338410	0.313370
P131	P13	0.147980	0.348160	0.348540
P141	P14	0.640160	0.530710	0.947280
P151	P15	0.472750	0.281180	0.609890
P161	P16	0.971360	0.367590	0.914270
O491	O49	0.447900	0.337000	0.476500
O501	O50	0.536000	0.329100	0.718700
O511	O51	0.966100	0.302800	0.040900
O521	O52	0.629900	0.437200	0.939300
O531	O53	0.963600	0.173500	0.257400
O541	O54	0.249800	0.350700	0.396500
O551	O55	0.135200	0.274900	0.242800
O561	O56	0.088300	0.341300	0.491600
O571	O57	0.118400	0.427300	0.270500
O581	O58	0.384200	0.247000	0.191300
O591	O59	0.419700	0.436200	0.922100
O601	O60	0.062500	0.414400	0.923300
O611	O61	0.259900	0.447900	0.015200
O621	O62	0.392000	0.433600	0.205600
O631	O63	0.529600	0.207200	0.556600
O641	O64	0.113700	0.578100	0.067400
