data_DEPYAZ_freeONLY_PM
_symmetry_space_group_name_H-M	'P1'
_cell_length_a	26.493800
_cell_length_b	14.521400
_cell_length_c	25.607100
_cell_angle_alpha	90.000000
_cell_angle_beta	114.285000
_cell_angle_gamma	90.000000
_symmetry_Int_Tables_number 1

loop_
_symmetry_equiv_pos_as_xyz
'x,y,z'

loop_
_atom_site_label
_atom_site_type_symbol
_atom_site_fract_x
_atom_site_fract_y
_atom_site_fract_z
Nd11	Nd1	0.214140	0.867390	0.310030
Nd21	Nd2	0.164550	0.088410	0.197150
O11	O1	0.128000	0.940900	0.233400
O21	O2	0.218700	0.053500	0.300000
O31	O3	0.283200	0.371000	0.281200
C11	C1	0.301200	0.305900	0.371400
O41	O4	0.082400	0.070300	0.223600
O51	O5	0.267200	0.986800	0.383100
O61	O6	0.084800	0.925700	0.600300
O71	O7	0.262000	0.773500	0.396300
H11	H1	0.241500	0.765400	0.412600
O81	O8	0.158900	0.852000	0.604600
O91	O9	0.176800	0.775600	0.425200
O101	O10	0.329600	0.222200	0.223100
O111	O11	0.306300	0.835800	0.319500
C21	C2	0.153200	0.848600	0.403000
C31	C3	0.253200	0.057600	0.353700
C41	C4	0.276500	0.221500	0.346100
H21	H2	0.259700	0.216100	0.306400
C51	C5	0.042600	0.933700	0.243000
O121	O12	0.155900	0.885400	0.359400
C61	C6	0.277000	0.147300	0.379800
C71	C7	0.129200	0.873000	0.486500
H31	H3	0.153900	0.826000	0.505100
C81	C8	0.101100	0.918800	0.515300
C91	C9	0.114200	0.897300	0.576400
C101	C10	0.120600	0.896900	0.431000
C111	C11	0.087100	0.986700	0.233600
C121	C12	0.083800	0.967400	0.404100
H41	H4	0.078600	0.985500	0.367400
C131	C13	0.041100	0.838500	0.244100
H51	H5	0.069700	0.805800	0.240600
C141	C14	0.054400	0.011500	0.431300
H61	H6	0.028700	0.056900	0.412100
O131	O13	0.257700	0.137900	0.217900
O141	O14	0.354600	0.743100	0.287400
O151	O15	0.317300	0.461200	0.356400
C151	C15	0.357300	0.905900	0.272400
C161	C16	0.343300	0.062700	0.240300
C171	C17	0.307800	0.147300	0.226300
C181	C18	0.328500	0.985300	0.262700
H71	H7	0.297700	0.988400	0.271400
C191	C19	0.300900	0.384300	0.334400
C201	C20	0.326600	0.311900	0.430100
H81	H8	0.344000	0.366300	0.447400
C211	C21	0.338100	0.823000	0.294800
C221	C22	0.403800	0.899000	0.260500
H91	H9	0.423500	0.844200	0.266300
C231	C23	0.063600	0.987900	0.486400
H101	H10	0.044400	0.018500	0.504600
C241	C24	0.391200	0.059400	0.230200
H111	H11	0.403600	0.111200	0.217600
C251	C25	0.302000	0.156600	0.438600
H121	H12	0.302200	0.106800	0.461600
C261	C26	0.419800	0.976600	0.239500
H131	H13	0.450800	0.973000	0.231400
C271	C27	0.326200	0.237200	0.463800
H141	H14	0.342500	0.242200	0.503500
Nd31	Nd3	0.714140	0.367390	0.310030
Nd41	Nd4	0.664550	0.588410	0.197150
O161	O16	0.628000	0.440900	0.233400
O171	O17	0.718700	0.553500	0.300000
O181	O18	0.783200	0.871000	0.281200
C281	C28	0.801200	0.805900	0.371400
O191	O19	0.582400	0.570300	0.223600
O201	O20	0.767200	0.486800	0.383100
O211	O21	0.584800	0.425700	0.600300
O221	O22	0.762000	0.273500	0.396300
H151	H15	0.741500	0.265400	0.412600
O231	O23	0.658900	0.352000	0.604600
O241	O24	0.676800	0.275600	0.425200
O251	O25	0.829600	0.722200	0.223100
O261	O26	0.806300	0.335800	0.319500
C291	C29	0.653200	0.348600	0.403000
C301	C30	0.753200	0.557600	0.353700
C311	C31	0.776500	0.721500	0.346100
H161	H16	0.759700	0.716100	0.306400
C321	C32	0.542600	0.433700	0.243000
O271	O27	0.655900	0.385400	0.359400
C331	C33	0.777000	0.647300	0.379800
C341	C34	0.629200	0.373000	0.486500
H171	H17	0.653900	0.326000	0.505100
C351	C35	0.601100	0.418800	0.515300
C361	C36	0.614200	0.397300	0.576400
C371	C37	0.620600	0.396900	0.431000
C381	C38	0.587100	0.486700	0.233600
C391	C39	0.583800	0.467400	0.404100
H181	H18	0.578600	0.485500	0.367400
C401	C40	0.541100	0.338500	0.244100
H191	H19	0.569700	0.305800	0.240600
C411	C41	0.554400	0.511500	0.431300
H201	H20	0.528700	0.556900	0.412100
O281	O28	0.757700	0.637900	0.217900
O291	O29	0.854600	0.243100	0.287400
O301	O30	0.817300	0.961200	0.356400
C421	C42	0.857300	0.405900	0.272400
C431	C43	0.843300	0.562700	0.240300
C441	C44	0.807800	0.647300	0.226300
C451	C45	0.828500	0.485300	0.262700
H211	H21	0.797700	0.488400	0.271400
C461	C46	0.800900	0.884300	0.334400
C471	C47	0.826600	0.811900	0.430100
H221	H22	0.844000	0.866300	0.447400
C481	C48	0.838100	0.323000	0.294800
C491	C49	0.903800	0.399000	0.260500
H231	H23	0.923500	0.344200	0.266300
C501	C50	0.563600	0.487900	0.486400
H241	H24	0.544400	0.518500	0.504600
C511	C51	0.891200	0.559400	0.230200
H251	H25	0.903600	0.611200	0.217600
C521	C52	0.802000	0.656600	0.438600
H261	H26	0.802200	0.606800	0.461600
C531	C53	0.919800	0.476600	0.239500
H271	H27	0.950800	0.473000	0.231400
C541	C54	0.826200	0.737200	0.463800
H281	H28	0.842500	0.742200	0.503500
Nd51	Nd5	0.785860	0.867390	0.189970
Nd61	Nd6	0.835450	0.088410	0.302850
O311	O31	0.872000	0.940900	0.266600
O321	O32	0.781300	0.053500	0.200000
O331	O33	0.716800	0.371000	0.218800
C551	C55	0.698800	0.305900	0.128600
O341	O34	0.917600	0.070300	0.276400
O351	O35	0.732800	0.986800	0.116900
O361	O36	0.915200	0.925700	0.899700
O371	O37	0.738000	0.773500	0.103700
H291	H29	0.758500	0.765400	0.087400
O381	O38	0.841100	0.852000	0.895400
O391	O39	0.823200	0.775600	0.074800
O401	O40	0.670400	0.222200	0.276900
O411	O41	0.693700	0.835800	0.180500
C561	C56	0.846800	0.848600	0.097000
C571	C57	0.746800	0.057600	0.146300
C581	C58	0.723500	0.221500	0.153900
H301	H30	0.740300	0.216100	0.193600
C591	C59	0.957400	0.933700	0.257000
O421	O42	0.844100	0.885400	0.140600
C601	C60	0.723000	0.147300	0.120200
C611	C61	0.870800	0.873000	0.013500
H311	H31	0.846100	0.826000	0.994900
C621	C62	0.898900	0.918800	0.984700
C631	C63	0.885800	0.897300	0.923600
C641	C64	0.879400	0.896900	0.069000
C651	C65	0.912900	0.986700	0.266400
C661	C66	0.916200	0.967400	0.095900
H321	H32	0.921400	0.985500	0.132600
C671	C67	0.958900	0.838500	0.255900
H331	H33	0.930300	0.805800	0.259400
C681	C68	0.945600	0.011500	0.068700
H341	H34	0.971300	0.056900	0.087900
O431	O43	0.742300	0.137900	0.282100
O441	O44	0.645400	0.743100	0.212600
O451	O45	0.682700	0.461200	0.143600
C691	C69	0.642700	0.905900	0.227600
C701	C70	0.656700	0.062700	0.259700
C711	C71	0.692200	0.147300	0.273700
C721	C72	0.671500	0.985300	0.237300
H351	H35	0.702300	0.988400	0.228600
C731	C73	0.699100	0.384300	0.165600
C741	C74	0.673400	0.311900	0.069900
H361	H36	0.656000	0.366300	0.052600
C751	C75	0.661900	0.823000	0.205200
C761	C76	0.596200	0.899000	0.239500
H371	H37	0.576500	0.844200	0.233700
C771	C77	0.936400	0.987900	0.013600
H381	H38	0.955600	0.018500	0.995400
C781	C78	0.608800	0.059400	0.269800
H391	H39	0.596400	0.111200	0.282400
C791	C79	0.698000	0.156600	0.061400
H401	H40	0.697800	0.106800	0.038400
C801	C80	0.580200	0.976600	0.260500
H411	H41	0.549200	0.973000	0.268600
C811	C81	0.673800	0.237200	0.036200
H421	H42	0.657500	0.242200	0.996500
Nd71	Nd7	0.285860	0.367390	0.189970
Nd81	Nd8	0.335450	0.588410	0.302850
O461	O46	0.372000	0.440900	0.266600
O471	O47	0.281300	0.553500	0.200000
O481	O48	0.216800	0.871000	0.218800
C821	C82	0.198800	0.805900	0.128600
O491	O49	0.417600	0.570300	0.276400
O501	O50	0.232800	0.486800	0.116900
O511	O51	0.415200	0.425700	0.899700
O521	O52	0.238000	0.273500	0.103700
H431	H43	0.258500	0.265400	0.087400
O531	O53	0.341100	0.352000	0.895400
O541	O54	0.323200	0.275600	0.074800
O551	O55	0.170400	0.722200	0.276900
O561	O56	0.193700	0.335800	0.180500
C831	C83	0.346800	0.348600	0.097000
C841	C84	0.246800	0.557600	0.146300
C851	C85	0.223500	0.721500	0.153900
H441	H44	0.240300	0.716100	0.193600
C861	C86	0.457400	0.433700	0.257000
O571	O57	0.344100	0.385400	0.140600
C871	C87	0.223000	0.647300	0.120200
C881	C88	0.370800	0.373000	0.013500
H451	H45	0.346100	0.326000	0.994900
C891	C89	0.398900	0.418800	0.984700
C901	C90	0.385800	0.397300	0.923600
C911	C91	0.379400	0.396900	0.069000
C921	C92	0.412900	0.486700	0.266400
C931	C93	0.416200	0.467400	0.095900
H461	H46	0.421400	0.485500	0.132600
C941	C94	0.458900	0.338500	0.255900
H471	H47	0.430300	0.305800	0.259400
C951	C95	0.445600	0.511500	0.068700
H481	H48	0.471300	0.556900	0.087900
O581	O58	0.242300	0.637900	0.282100
O591	O59	0.145400	0.243100	0.212600
O601	O60	0.182700	0.961200	0.143600
C961	C96	0.142700	0.405900	0.227600
C971	C97	0.156700	0.562700	0.259700
C981	C98	0.192200	0.647300	0.273700
C991	C99	0.171500	0.485300	0.237300
H491	H49	0.202300	0.488400	0.228600
C1001	C100	0.199100	0.884300	0.165600
C1011	C101	0.173400	0.811900	0.069900
H501	H50	0.156000	0.866300	0.052600
C1021	C102	0.161900	0.323000	0.205200
C1031	C103	0.096200	0.399000	0.239500
H511	H51	0.076500	0.344200	0.233700
C1041	C104	0.436400	0.487900	0.013600
H521	H52	0.455600	0.518500	0.995400
C1051	C105	0.108800	0.559400	0.269800
H531	H53	0.096400	0.611200	0.282400
C1061	C106	0.198000	0.656600	0.061400
H541	H54	0.197800	0.606800	0.038400
C1071	C107	0.080200	0.476600	0.260500
H551	H55	0.049200	0.473000	0.268600
C1081	C108	0.173800	0.737200	0.036200
H561	H56	0.157500	0.742200	0.996500
Nd91	Nd9	0.785860	0.132610	0.689970
Nd101	Nd10	0.835450	0.911590	0.802850
O611	O61	0.872000	0.059100	0.766600
O621	O62	0.781300	0.946500	0.700000
O631	O63	0.716800	0.629000	0.718800
C1091	C109	0.698800	0.694100	0.628600
O641	O64	0.917600	0.929700	0.776400
O651	O65	0.732800	0.013200	0.616900
O661	O66	0.915200	0.074300	0.399700
O671	O67	0.738000	0.226500	0.603700
H571	H57	0.758500	0.234600	0.587400
O681	O68	0.841100	0.148000	0.395400
O691	O69	0.823200	0.224400	0.574800
O701	O70	0.670400	0.777800	0.776900
O711	O71	0.693700	0.164200	0.680500
C1101	C110	0.846800	0.151400	0.597000
C1111	C111	0.746800	0.942400	0.646300
C1121	C112	0.723500	0.778500	0.653900
H581	H58	0.740300	0.783900	0.693600
C1131	C113	0.957400	0.066300	0.757000
O721	O72	0.844100	0.114600	0.640600
C1141	C114	0.723000	0.852700	0.620200
C1151	C115	0.870800	0.127000	0.513500
H591	H59	0.846100	0.174000	0.494900
C1161	C116	0.898900	0.081200	0.484700
C1171	C117	0.885800	0.102700	0.423600
C1181	C118	0.879400	0.103100	0.569000
C1191	C119	0.912900	0.013300	0.766400
C1201	C120	0.916200	0.032600	0.595900
H601	H60	0.921400	0.014500	0.632600
C1211	C121	0.958900	0.161500	0.755900
H611	H61	0.930300	0.194200	0.759400
C1221	C122	0.945600	0.988500	0.568700
H621	H62	0.971300	0.943100	0.587900
O731	O73	0.742300	0.862100	0.782100
O741	O74	0.645400	0.256900	0.712600
O751	O75	0.682700	0.538800	0.643600
C1231	C123	0.642700	0.094100	0.727600
C1241	C124	0.656700	0.937300	0.759700
C1251	C125	0.692200	0.852700	0.773700
C1261	C126	0.671500	0.014700	0.737300
H631	H63	0.702300	0.011600	0.728600
C1271	C127	0.699100	0.615700	0.665600
C1281	C128	0.673400	0.688100	0.569900
H641	H64	0.656000	0.633700	0.552600
C1291	C129	0.661900	0.177000	0.705200
C1301	C130	0.596200	0.101000	0.739500
H651	H65	0.576500	0.155800	0.733700
C1311	C131	0.936400	0.012100	0.513600
H661	H66	0.955600	0.981500	0.495400
C1321	C132	0.608800	0.940600	0.769800
H671	H67	0.596400	0.888800	0.782400
C1331	C133	0.698000	0.843400	0.561400
H681	H68	0.697800	0.893200	0.538400
C1341	C134	0.580200	0.023400	0.760500
H691	H69	0.549200	0.027000	0.768600
C1351	C135	0.673800	0.762800	0.536200
H701	H70	0.657500	0.757800	0.496500
Nd111	Nd11	0.285860	0.632610	0.689970
Nd121	Nd12	0.335450	0.411590	0.802850
O761	O76	0.372000	0.559100	0.766600
O771	O77	0.281300	0.446500	0.700000
O781	O78	0.216800	0.129000	0.718800
C1361	C136	0.198800	0.194100	0.628600
O791	O79	0.417600	0.429700	0.776400
O801	O80	0.232800	0.513200	0.616900
O811	O81	0.415200	0.574300	0.399700
O821	O82	0.238000	0.726500	0.603700
H711	H71	0.258500	0.734600	0.587400
O831	O83	0.341100	0.648000	0.395400
O841	O84	0.323200	0.724400	0.574800
O851	O85	0.170400	0.277800	0.776900
O861	O86	0.193700	0.664200	0.680500
C1371	C137	0.346800	0.651400	0.597000
C1381	C138	0.246800	0.442400	0.646300
C1391	C139	0.223500	0.278500	0.653900
H721	H72	0.240300	0.283900	0.693600
C1401	C140	0.457400	0.566300	0.757000
O871	O87	0.344100	0.614600	0.640600
C1411	C141	0.223000	0.352700	0.620200
C1421	C142	0.370800	0.627000	0.513500
H731	H73	0.346100	0.674000	0.494900
C1431	C143	0.398900	0.581200	0.484700
C1441	C144	0.385800	0.602700	0.423600
C1451	C145	0.379400	0.603100	0.569000
C1461	C146	0.412900	0.513300	0.766400
C1471	C147	0.416200	0.532600	0.595900
H741	H74	0.421400	0.514500	0.632600
C1481	C148	0.458900	0.661500	0.755900
H751	H75	0.430300	0.694200	0.759400
C1491	C149	0.445600	0.488500	0.568700
H761	H76	0.471300	0.443100	0.587900
O881	O88	0.242300	0.362100	0.782100
O891	O89	0.145400	0.756900	0.712600
O901	O90	0.182700	0.038800	0.643600
C1501	C150	0.142700	0.594100	0.727600
C1511	C151	0.156700	0.437300	0.759700
C1521	C152	0.192200	0.352700	0.773700
C1531	C153	0.171500	0.514700	0.737300
H771	H77	0.202300	0.511600	0.728600
C1541	C154	0.199100	0.115700	0.665600
C1551	C155	0.173400	0.188100	0.569900
H781	H78	0.156000	0.133700	0.552600
C1561	C156	0.161900	0.677000	0.705200
C1571	C157	0.096200	0.601000	0.739500
H791	H79	0.076500	0.655800	0.733700
C1581	C158	0.436400	0.512100	0.513600
H801	H80	0.455600	0.481500	0.495400
C1591	C159	0.108800	0.440600	0.769800
H811	H81	0.096400	0.388800	0.782400
C1601	C160	0.198000	0.343400	0.561400
H821	H82	0.197800	0.393200	0.538400
C1611	C161	0.080200	0.523400	0.760500
H831	H83	0.049200	0.527000	0.768600
C1621	C162	0.173800	0.262800	0.536200
H841	H84	0.157500	0.257800	0.496500
Nd131	Nd13	0.214140	0.132610	0.810030
Nd141	Nd14	0.164550	0.911590	0.697150
O911	O91	0.128000	0.059100	0.733400
O921	O92	0.218700	0.946500	0.800000
O931	O93	0.283200	0.629000	0.781200
C1631	C163	0.301200	0.694100	0.871400
O941	O94	0.082400	0.929700	0.723600
O951	O95	0.267200	0.013200	0.883100
O961	O96	0.084800	0.074300	0.100300
O971	O97	0.262000	0.226500	0.896300
H851	H85	0.241500	0.234600	0.912600
O981	O98	0.158900	0.148000	0.104600
O991	O99	0.176800	0.224400	0.925200
O1001	O100	0.329600	0.777800	0.723100
O1011	O101	0.306300	0.164200	0.819500
C1641	C164	0.153200	0.151400	0.903000
C1651	C165	0.253200	0.942400	0.853700
C1661	C166	0.276500	0.778500	0.846100
H861	H86	0.259700	0.783900	0.806400
C1671	C167	0.042600	0.066300	0.743000
O1021	O102	0.155900	0.114600	0.859400
C1681	C168	0.277000	0.852700	0.879800
C1691	C169	0.129200	0.127000	0.986500
H871	H87	0.153900	0.174000	0.005100
C1701	C170	0.101100	0.081200	0.015300
C1711	C171	0.114200	0.102700	0.076400
C1721	C172	0.120600	0.103100	0.931000
C1731	C173	0.087100	0.013300	0.733600
C1741	C174	0.083800	0.032600	0.904100
H881	H88	0.078600	0.014500	0.867400
C1751	C175	0.041100	0.161500	0.744100
H891	H89	0.069700	0.194200	0.740600
C1761	C176	0.054400	0.988500	0.931300
H901	H90	0.028700	0.943100	0.912100
O1031	O103	0.257700	0.862100	0.717900
O1041	O104	0.354600	0.256900	0.787400
O1051	O105	0.317300	0.538800	0.856400
C1771	C177	0.357300	0.094100	0.772400
C1781	C178	0.343300	0.937300	0.740300
C1791	C179	0.307800	0.852700	0.726300
C1801	C180	0.328500	0.014700	0.762700
H911	H91	0.297700	0.011600	0.771400
C1811	C181	0.300900	0.615700	0.834400
C1821	C182	0.326600	0.688100	0.930100
H921	H92	0.344000	0.633700	0.947400
C1831	C183	0.338100	0.177000	0.794800
C1841	C184	0.403800	0.101000	0.760500
H931	H93	0.423500	0.155800	0.766300
C1851	C185	0.063600	0.012100	0.986400
H941	H94	0.044400	0.981500	0.004600
C1861	C186	0.391200	0.940600	0.730200
H951	H95	0.403600	0.888800	0.717600
C1871	C187	0.302000	0.843400	0.938600
H961	H96	0.302200	0.893200	0.961600
C1881	C188	0.419800	0.023400	0.739500
H971	H97	0.450800	0.027000	0.731400
C1891	C189	0.326200	0.762800	0.963800
H981	H98	0.342500	0.757800	0.003500
Nd151	Nd15	0.714140	0.632610	0.810030
Nd161	Nd16	0.664550	0.411590	0.697150
O1061	O106	0.628000	0.559100	0.733400
O1071	O107	0.718700	0.446500	0.800000
O1081	O108	0.783200	0.129000	0.781200
C1901	C190	0.801200	0.194100	0.871400
O1091	O109	0.582400	0.429700	0.723600
O1101	O110	0.767200	0.513200	0.883100
O1111	O111	0.584800	0.574300	0.100300
O1121	O112	0.762000	0.726500	0.896300
H991	H99	0.741500	0.734600	0.912600
O1131	O113	0.658900	0.648000	0.104600
O1141	O114	0.676800	0.724400	0.925200
O1151	O115	0.829600	0.277800	0.723100
O1161	O116	0.806300	0.664200	0.819500
C1911	C191	0.653200	0.651400	0.903000
C1921	C192	0.753200	0.442400	0.853700
C1931	C193	0.776500	0.278500	0.846100
H1001	H100	0.759700	0.283900	0.806400
C1941	C194	0.542600	0.566300	0.743000
O1171	O117	0.655900	0.614600	0.859400
C1951	C195	0.777000	0.352700	0.879800
C1961	C196	0.629200	0.627000	0.986500
H1011	H101	0.653900	0.674000	0.005100
C1971	C197	0.601100	0.581200	0.015300
C1981	C198	0.614200	0.602700	0.076400
C1991	C199	0.620600	0.603100	0.931000
C2001	C200	0.587100	0.513300	0.733600
C2011	C201	0.583800	0.532600	0.904100
H1021	H102	0.578600	0.514500	0.867400
C2021	C202	0.541100	0.661500	0.744100
H1031	H103	0.569700	0.694200	0.740600
C2031	C203	0.554400	0.488500	0.931300
H1041	H104	0.528700	0.443100	0.912100
O1181	O118	0.757700	0.362100	0.717900
O1191	O119	0.854600	0.756900	0.787400
O1201	O120	0.817300	0.038800	0.856400
C2041	C204	0.857300	0.594100	0.772400
C2051	C205	0.843300	0.437300	0.740300
C2061	C206	0.807800	0.352700	0.726300
C2071	C207	0.828500	0.514700	0.762700
H1051	H105	0.797700	0.511600	0.771400
C2081	C208	0.800900	0.115700	0.834400
C2091	C209	0.826600	0.188100	0.930100
H1061	H106	0.844000	0.133700	0.947400
C2101	C210	0.838100	0.677000	0.794800
C2111	C211	0.903800	0.601000	0.760500
H1071	H107	0.923500	0.655800	0.766300
C2121	C212	0.563600	0.512100	0.986400
H1081	H108	0.544400	0.481500	0.004600
C2131	C213	0.891200	0.440600	0.730200
H1091	H109	0.903600	0.388800	0.717600
C2141	C214	0.802000	0.343400	0.938600
H1101	H110	0.802200	0.393200	0.961600
C2151	C215	0.919800	0.523400	0.739500
H1111	H111	0.950800	0.527000	0.731400
C2161	C216	0.826200	0.262800	0.963800
H1121	H112	0.842500	0.257800	0.003500
C2171	C217	0.000000	0.979800	0.250000
H1131	H113	0.000000	0.043900	0.250000
C2181	C218	0.000000	0.790600	0.250000
H1141	H114	0.000000	0.726600	0.250000
C2191	C219	0.500000	0.479800	0.250000
H1151	H115	0.500000	0.543900	0.250000
C2201	C220	0.500000	0.290600	0.250000
H1161	H116	0.500000	0.226600	0.250000
C2211	C221	0.000000	0.020200	0.750000
H1171	H117	0.000000	0.956100	0.750000
C2221	C222	0.000000	0.209400	0.750000
H1181	H118	0.000000	0.273400	0.750000
C2231	C223	0.500000	0.520200	0.750000
H1191	H119	0.500000	0.456100	0.750000
C2241	C224	0.500000	0.709400	0.750000
H1201	H120	0.500000	0.773400	0.750000
