data_DEQFOU_freeONLY_PM
_symmetry_space_group_name_H-M	'P1'
_cell_length_a	8.289970
_cell_length_b	13.822100
_cell_length_c	17.067400
_cell_angle_alpha	77.187900
_cell_angle_beta	75.944600
_cell_angle_gamma	72.549500
_symmetry_Int_Tables_number 1

loop_
_symmetry_equiv_pos_as_xyz
'x,y,z'

loop_
_atom_site_label
_atom_site_type_symbol
_atom_site_fract_x
_atom_site_fract_y
_atom_site_fract_z
Cu11	Cu1	0.901390	0.544970	0.156310
Cu21	Cu2	0.733150	0.524570	0.355670
Cu31	Cu3	0.602670	0.955030	0.343690
Cu41	Cu4	0.613390	0.975430	0.144330
Cu51	Cu5	0.098610	0.455030	0.843690
Cu61	Cu6	0.266850	0.475430	0.644330
Cu71	Cu7	0.397330	0.044970	0.656310
Cu81	Cu8	0.386610	0.024570	0.855670
H11	H1	0.262000	0.618700	0.086500
H21	H2	0.415200	0.639000	0.955800
H31	H3	0.372200	0.570000	0.850200
H41	H4	0.877200	0.601400	0.479400
H51	H5	0.775300	0.627200	0.621800
H61	H6	0.513700	0.580000	0.697400
H71	H7	0.225500	0.647900	0.274100
H81	H8	0.089800	0.715900	0.334100
H91	H9	0.588400	0.559600	0.237200
H101	H10	0.967200	0.881300	0.413500
H111	H11	0.010000	0.861000	0.544200
H121	H12	0.792400	0.930000	0.649800
H131	H13	0.958000	0.898600	0.020600
H141	H14	0.024300	0.872800	0.878200
H151	H15	0.791100	0.920000	0.802600
H161	H16	0.147500	0.852100	0.225900
H171	H17	0.139800	0.784100	0.165900
H181	H18	0.385200	0.940400	0.262800
H191	H19	0.738000	0.381300	0.913500
H201	H20	0.584800	0.361000	0.044200
H211	H21	0.627800	0.430000	0.149800
H221	H22	0.122800	0.398600	0.520600
H231	H23	0.224700	0.372800	0.378200
H241	H24	0.486300	0.420000	0.302600
H251	H25	0.774500	0.352100	0.725900
H261	H26	0.910200	0.284100	0.665900
H271	H27	0.411600	0.440400	0.762800
H281	H28	0.032800	0.118700	0.586500
H291	H29	0.990000	0.139000	0.455800
H301	H30	0.207600	0.070000	0.350200
H311	H31	0.042000	0.101400	0.979400
H321	H32	0.975700	0.127200	0.121800
H331	H33	0.208900	0.080000	0.197400
H341	H34	0.852500	0.147900	0.774100
H351	H35	0.860200	0.215900	0.834100
H361	H36	0.614800	0.059600	0.737200
C11	C1	0.219300	0.603600	0.041200
C21	C2	0.328900	0.608100	0.966500
C31	C3	0.298600	0.570300	0.905100
C41	C4	0.770500	0.587600	0.511800
C51	C5	0.711100	0.602200	0.592400
C61	C6	0.563900	0.573800	0.634000
C71	C7	0.074800	0.517000	0.992600
C81	C8	0.546600	0.521400	0.520200
C91	C9	0.993500	0.635100	0.271700
C101	C10	0.103200	0.700000	0.280400
C111	C11	0.864100	0.896400	0.458800
C121	C12	0.903500	0.891900	0.533500
C131	C13	0.774000	0.929700	0.594900
C141	C14	0.869900	0.912400	0.988200
C151	C15	0.905700	0.897800	0.907600
C161	C16	0.771700	0.926200	0.866000
C171	C17	0.584400	0.983000	0.507400
C181	C18	0.588200	0.978600	0.979800
C191	C19	0.900300	0.864900	0.228300
C201	C20	0.083600	0.800000	0.219600
C211	C21	0.780700	0.396400	0.958800
C221	C22	0.671100	0.391900	0.033500
C231	C23	0.701400	0.429700	0.094900
C241	C24	0.229500	0.412400	0.488200
C251	C25	0.288900	0.397800	0.407600
C261	C26	0.436100	0.426200	0.366000
C271	C27	0.925200	0.483000	0.007400
C281	C28	0.453400	0.478600	0.479800
C291	C29	0.006500	0.364900	0.728300
C301	C30	0.896800	0.300000	0.719600
C311	C31	0.135900	0.103600	0.541200
C321	C32	0.096500	0.108100	0.466500
C331	C33	0.226000	0.070300	0.405100
C341	C34	0.130100	0.087600	0.011800
C351	C35	0.094300	0.102200	0.092400
C361	C36	0.228300	0.073800	0.134000
C371	C37	0.415600	0.017000	0.492600
C381	C38	0.411800	0.021400	0.020200
C391	C39	0.099700	0.135100	0.771700
C401	C40	0.916400	0.200000	0.780400
N11	N1	0.088200	0.561200	0.054200
N21	N2	0.168700	0.527000	0.918200
N31	N3	0.687400	0.546600	0.475400
N41	N4	0.481800	0.531900	0.597700
N51	N5	0.703600	0.938800	0.445800
N61	N6	0.613900	0.973000	0.581800
N71	N7	0.709400	0.953400	0.024600
N81	N8	0.611400	0.968100	0.902300
N91	N9	0.911800	0.438800	0.945800
N101	N10	0.831300	0.473000	0.081800
N111	N11	0.312600	0.453400	0.524600
N121	N12	0.518200	0.468100	0.402300
N131	N13	0.296400	0.061200	0.554200
N141	N14	0.386100	0.027000	0.418200
N151	N15	0.290600	0.046600	0.975400
N161	N16	0.388600	0.031900	0.097700
O11	O1	0.983900	0.633300	0.200100
O21	O2	0.923600	0.587300	0.335500
O31	O3	0.718800	0.526200	0.245400
O41	O4	0.817300	0.866700	0.299900
O51	O5	0.846400	0.912700	0.164500
O61	O6	0.490400	0.973800	0.254600
O71	O7	0.016100	0.366700	0.799900
O81	O8	0.076400	0.412700	0.664500
O91	O9	0.281200	0.473800	0.754600
O101	O10	0.182700	0.133300	0.700100
O111	O11	0.153600	0.087300	0.835500
O121	O12	0.509600	0.026200	0.745400
