data_DEZCER_freeONLY_PM
_symmetry_space_group_name_H-M	'P1'
_cell_length_a	10.127300
_cell_length_b	15.385300
_cell_length_c	27.654900
_cell_angle_alpha	90.000000
_cell_angle_beta	92.722000
_cell_angle_gamma	90.000000
_symmetry_Int_Tables_number 1

loop_
_symmetry_equiv_pos_as_xyz
'x,y,z'

loop_
_atom_site_label
_atom_site_type_symbol
_atom_site_fract_x
_atom_site_fract_y
_atom_site_fract_z
Mn11	Mn1	0.398290	0.189290	0.246940
Mn21	Mn2	0.966410	0.011920	0.249400
O11	O1	0.167200	0.956220	0.252810
O21	O2	0.263600	0.083000	0.246640
O31	O3	0.080700	0.374370	0.244860
O41	O4	0.214100	0.260240	0.247900
O51	O5	0.586600	0.131800	0.247010
O61	O6	0.758500	0.043280	0.247390
O71	O7	0.508700	0.314960	0.249150
O81	O8	0.992300	0.151830	0.242960
N11	N1	0.402900	0.189150	0.330240
N21	N2	0.379000	0.306300	0.663870
N31	N3	0.975700	0.020300	0.330750
N41	N4	0.966200	0.994450	0.168270
C11	C1	0.264600	0.004500	0.250900
H11	H1	0.347100	0.977800	0.253000
C21	C2	0.188200	0.339100	0.247480
H21	H2	0.260800	0.376200	0.249400
C31	C3	0.651300	0.072300	0.245580
H31	H3	0.594300	0.025400	0.240900
C41	C4	0.291900	0.194000	0.354440
H41	H4	0.211600	0.187300	0.337100
C51	C5	0.514600	0.196100	0.356780
H51	H5	0.593500	0.190600	0.341200
C61	C6	0.289600	0.208500	0.403410
H61	H6	0.209500	0.211800	0.418400
C71	C7	0.521900	0.211000	0.405740
H71	H7	0.603900	0.216200	0.422100
C81	C8	0.408700	0.218100	0.430410
C91	C9	0.419800	0.238300	0.482890
H81	H8	0.505000	0.237500	0.496900
C101	C10	0.329700	0.256400	0.511030
H91	H9	0.243400	0.257300	0.497900
C111	C11	0.349700	0.276500	0.563520
C121	C12	0.242100	0.283000	0.591800
H101	H10	0.157100	0.278300	0.577800
C131	C13	0.472500	0.289200	0.586450
H111	H11	0.548200	0.287900	0.568700
C141	C14	0.260400	0.296300	0.640720
H121	H12	0.185800	0.298600	0.659000
C151	C15	0.482500	0.304000	0.636090
H131	H13	0.566100	0.312700	0.650700
C161	C16	0.945600	0.091700	0.354800
H141	H14	0.918400	0.140300	0.337000
C171	C17	0.015500	0.952100	0.357550
H151	H15	0.038800	0.901600	0.341600
C181	C18	0.952200	0.098200	0.404390
H161	H16	0.929700	0.150000	0.419300
C191	C19	0.024100	0.952200	0.407030
H171	H17	0.050800	0.902300	0.423800
C201	C20	0.992800	0.026600	0.432090
C211	C21	0.997100	0.032300	0.485320
H181	H18	0.995600	0.087600	0.498800
C221	C22	0.998800	0.968500	0.015870
H191	H19	0.006400	0.912100	0.004100
C231	C23	0.985300	0.978200	0.068030
C241	C24	0.004200	0.908000	0.099060
H201	H20	0.023200	0.853400	0.086700
C251	C25	0.953300	0.056000	0.089400
H211	H21	0.937700	0.105000	0.070300
C261	C26	0.994800	0.918900	0.147590
H221	H22	0.009300	0.870800	0.167500
C271	C27	0.944300	0.061400	0.138270
H231	H23	0.921800	0.114600	0.151500
H241	H24	0.073800	0.181000	0.243100
H251	H25	0.513000	0.345000	0.277000
H261	H26	0.507000	0.346000	0.221900
H271	H27	0.929000	0.193300	0.245300
Mn31	Mn3	0.601710	0.689290	0.253060
Mn41	Mn4	0.033590	0.511920	0.250600
O91	O9	0.832800	0.456220	0.247190
O101	O10	0.736400	0.583000	0.253360
O111	O11	0.919300	0.874370	0.255140
O121	O12	0.785900	0.760240	0.252100
O131	O13	0.413400	0.631800	0.252990
O141	O14	0.241500	0.543280	0.252610
O151	O15	0.491300	0.814960	0.250850
O161	O16	0.007700	0.651830	0.257040
N51	N5	0.597100	0.689150	0.169760
N61	N6	0.621000	0.806300	0.836130
N71	N7	0.024300	0.520300	0.169250
N81	N8	0.033800	0.494450	0.331730
C281	C28	0.735400	0.504500	0.249100
H281	H28	0.652900	0.477800	0.247000
C291	C29	0.811800	0.839100	0.252520
H291	H29	0.739200	0.876200	0.250600
C301	C30	0.348700	0.572300	0.254420
H301	H30	0.405700	0.525400	0.259100
C311	C31	0.708100	0.694000	0.145560
H311	H31	0.788400	0.687300	0.162900
C321	C32	0.485400	0.696100	0.143220
H321	H32	0.406500	0.690600	0.158800
C331	C33	0.710400	0.708500	0.096590
H331	H33	0.790500	0.711800	0.081600
C341	C34	0.478100	0.711000	0.094260
H341	H34	0.396100	0.716200	0.077900
C351	C35	0.591300	0.718100	0.069590
C361	C36	0.580200	0.738300	0.017110
H351	H35	0.495000	0.737500	0.003100
C371	C37	0.670300	0.756400	0.988970
H361	H36	0.756600	0.757300	0.002100
C381	C38	0.650300	0.776500	0.936480
C391	C39	0.757900	0.783000	0.908200
H371	H37	0.842900	0.778300	0.922200
C401	C40	0.527500	0.789200	0.913550
H381	H38	0.451800	0.787900	0.931300
C411	C41	0.739600	0.796300	0.859280
H391	H39	0.814200	0.798600	0.841000
C421	C42	0.517500	0.804000	0.863910
H401	H40	0.433900	0.812700	0.849300
C431	C43	0.054400	0.591700	0.145200
H411	H41	0.081600	0.640300	0.163000
C441	C44	0.984500	0.452100	0.142450
H421	H42	0.961200	0.401600	0.158400
C451	C45	0.047800	0.598200	0.095610
H431	H43	0.070300	0.650000	0.080700
C461	C46	0.975900	0.452200	0.092970
H441	H44	0.949200	0.402300	0.076200
C471	C47	0.007200	0.526600	0.067910
C481	C48	0.002900	0.532300	0.014680
H451	H45	0.004400	0.587600	0.001200
C491	C49	0.001200	0.468500	0.484130
H461	H46	0.993600	0.412100	0.495900
C501	C50	0.014700	0.478200	0.431970
C511	C51	0.995800	0.408000	0.400940
H471	H47	0.976800	0.353400	0.413300
C521	C52	0.046700	0.556000	0.410600
H481	H48	0.062300	0.605000	0.429700
C531	C53	0.005200	0.418900	0.352410
H491	H49	0.990700	0.370800	0.332500
C541	C54	0.055700	0.561400	0.361730
H501	H50	0.078200	0.614600	0.348500
H511	H51	0.926200	0.681000	0.256900
H521	H52	0.487000	0.845000	0.223000
H531	H53	0.493000	0.846000	0.278100
H541	H54	0.071000	0.693300	0.254700
Mn51	Mn5	0.601710	0.810710	0.753060
Mn61	Mn6	0.033590	0.988080	0.750600
O171	O17	0.832800	0.043780	0.747190
O181	O18	0.736400	0.917000	0.753360
O191	O19	0.919300	0.625630	0.755140
O201	O20	0.785900	0.739760	0.752100
O211	O21	0.413400	0.868200	0.752990
O221	O22	0.241500	0.956720	0.752610
O231	O23	0.491300	0.685040	0.750850
O241	O24	0.007700	0.848170	0.757040
N91	N9	0.597100	0.810850	0.669760
N101	N10	0.621000	0.693700	0.336130
N111	N11	0.024300	0.979700	0.669250
N121	N12	0.033800	0.005550	0.831730
C551	C55	0.735400	0.995500	0.749100
H551	H55	0.652900	0.022200	0.747000
C561	C56	0.811800	0.660900	0.752520
H561	H56	0.739200	0.623800	0.750600
C571	C57	0.348700	0.927700	0.754420
H571	H57	0.405700	0.974600	0.759100
C581	C58	0.708100	0.806000	0.645560
H581	H58	0.788400	0.812700	0.662900
C591	C59	0.485400	0.803900	0.643220
H591	H59	0.406500	0.809400	0.658800
C601	C60	0.710400	0.791500	0.596590
H601	H60	0.790500	0.788200	0.581600
C611	C61	0.478100	0.789000	0.594260
H611	H61	0.396100	0.783800	0.577900
C621	C62	0.591300	0.781900	0.569590
C631	C63	0.580200	0.761700	0.517110
H621	H62	0.495000	0.762500	0.503100
C641	C64	0.670300	0.743600	0.488970
H631	H63	0.756600	0.742700	0.502100
C651	C65	0.650300	0.723500	0.436480
C661	C66	0.757900	0.717000	0.408200
H641	H64	0.842900	0.721700	0.422200
C671	C67	0.527500	0.710800	0.413550
H651	H65	0.451800	0.712100	0.431300
C681	C68	0.739600	0.703700	0.359280
H661	H66	0.814200	0.701400	0.341000
C691	C69	0.517500	0.696000	0.363910
H671	H67	0.433900	0.687300	0.349300
C701	C70	0.054400	0.908300	0.645200
H681	H68	0.081600	0.859700	0.663000
C711	C71	0.984500	0.047900	0.642450
H691	H69	0.961200	0.098400	0.658400
C721	C72	0.047800	0.901800	0.595610
H701	H70	0.070300	0.850000	0.580700
C731	C73	0.975900	0.047800	0.592970
H711	H71	0.949200	0.097700	0.576200
C741	C74	0.007200	0.973400	0.567910
C751	C75	0.002900	0.967700	0.514680
H721	H72	0.004400	0.912400	0.501200
C761	C76	0.001200	0.031500	0.984130
H731	H73	0.993600	0.087900	0.995900
C771	C77	0.014700	0.021800	0.931970
C781	C78	0.995800	0.092000	0.900940
H741	H74	0.976800	0.146600	0.913300
C791	C79	0.046700	0.944000	0.910600
H751	H75	0.062300	0.895000	0.929700
C801	C80	0.005200	0.081100	0.852410
H761	H76	0.990700	0.129200	0.832500
C811	C81	0.055700	0.938600	0.861730
H771	H77	0.078200	0.885400	0.848500
H781	H78	0.926200	0.819000	0.756900
H791	H79	0.487000	0.655000	0.723000
H801	H80	0.493000	0.654000	0.778100
H811	H81	0.071000	0.806700	0.754700
Mn71	Mn7	0.398290	0.310710	0.746940
Mn81	Mn8	0.966410	0.488080	0.749410
O251	O25	0.167200	0.543780	0.752810
O261	O26	0.263600	0.417000	0.746640
O271	O27	0.080700	0.125630	0.744860
O281	O28	0.214100	0.239760	0.747900
O291	O29	0.586600	0.368200	0.747010
O301	O30	0.758500	0.456720	0.747390
O311	O31	0.508700	0.185040	0.749150
O321	O32	0.992300	0.348170	0.742960
N131	N13	0.402900	0.310850	0.830240
N141	N14	0.379000	0.193700	0.163870
N151	N15	0.975700	0.479700	0.830750
N161	N16	0.966200	0.505550	0.668270
C821	C82	0.264600	0.495500	0.750900
H821	H82	0.347100	0.522200	0.753000
C831	C83	0.188200	0.160900	0.747480
H831	H83	0.260800	0.123800	0.749400
C841	C84	0.651300	0.427700	0.745580
H841	H84	0.594300	0.474600	0.740900
C851	C85	0.291900	0.306000	0.854440
H851	H85	0.211600	0.312700	0.837100
C861	C86	0.514600	0.303900	0.856780
H861	H86	0.593500	0.309400	0.841200
C871	C87	0.289600	0.291500	0.903410
H871	H87	0.209500	0.288200	0.918400
C881	C88	0.521900	0.289000	0.905740
H881	H88	0.603900	0.283800	0.922100
C891	C89	0.408700	0.281900	0.930410
C901	C90	0.419800	0.261700	0.982890
H891	H89	0.505000	0.262500	0.996900
C911	C91	0.329700	0.243600	0.011030
H901	H90	0.243400	0.242700	0.997900
C921	C92	0.349700	0.223500	0.063520
C931	C93	0.242100	0.217000	0.091800
H911	H91	0.157100	0.221700	0.077800
C941	C94	0.472500	0.210800	0.086450
H921	H92	0.548200	0.212100	0.068700
C951	C95	0.260400	0.203700	0.140720
H931	H93	0.185800	0.201400	0.159000
C961	C96	0.482500	0.196000	0.136090
H941	H94	0.566100	0.187300	0.150700
C971	C97	0.945600	0.408300	0.854800
H951	H95	0.918400	0.359700	0.837000
C981	C98	0.015500	0.547900	0.857550
H961	H96	0.038800	0.598400	0.841600
C991	C99	0.952200	0.401800	0.904390
H971	H97	0.929700	0.350000	0.919300
C1001	C100	0.024100	0.547800	0.907030
H981	H98	0.050800	0.597700	0.923800
C1011	C101	0.992800	0.473400	0.932090
C1021	C102	0.997100	0.467700	0.985320
H991	H99	0.995600	0.412400	0.998800
C1031	C103	0.998800	0.531500	0.515870
H1001	H100	0.006400	0.587900	0.504100
C1041	C104	0.985300	0.521800	0.568030
C1051	C105	0.004200	0.592000	0.599060
H1011	H101	0.023200	0.646600	0.586700
C1061	C106	0.953300	0.444000	0.589400
H1021	H102	0.937700	0.395000	0.570300
C1071	C107	0.994800	0.581100	0.647590
H1031	H103	0.009300	0.629200	0.667500
C1081	C108	0.944300	0.438600	0.638270
H1041	H104	0.921800	0.385400	0.651500
H1051	H105	0.073800	0.319000	0.743100
H1061	H106	0.513000	0.155000	0.777000
H1071	H107	0.507000	0.154000	0.721900
H1081	H108	0.929000	0.306700	0.745300
