data_DIBPAH_freeONLY_PM
_symmetry_space_group_name_H-M	'P1'
_cell_length_a	16.143000
_cell_length_b	7.750700
_cell_length_c	27.374000
_cell_angle_alpha	90.000000
_cell_angle_beta	93.077000
_cell_angle_gamma	90.000000
_symmetry_Int_Tables_number 1

loop_
_symmetry_equiv_pos_as_xyz
'x,y,z'

loop_
_atom_site_label
_atom_site_type_symbol
_atom_site_fract_x
_atom_site_fract_y
_atom_site_fract_z
C11	C1	0.789700	0.407900	0.662300
C21	C2	0.802300	0.283000	0.620400
H11	H1	0.822000	0.173000	0.634000
C31	C3	0.983400	0.288600	0.386700
H21	H2	0.984100	0.274400	0.421900
H31	H3	0.994300	0.409000	0.379700
C41	C4	0.051500	0.175600	0.365800
H41	H4	0.105300	0.212700	0.379300
H51	H5	0.043400	0.056500	0.375300
C51	C5	0.049200	0.188200	0.310900
H61	H6	0.062000	0.308000	0.302000
C61	C6	0.963600	0.145800	0.290300
H71	H7	0.953200	0.024100	0.295500
H81	H8	0.961300	0.166200	0.255300
C71	C7	0.895800	0.249500	0.312700
H91	H9	0.899600	0.368900	0.302400
H101	H10	0.842200	0.205300	0.301000
C81	C8	0.838400	0.207800	0.392800
C91	C9	0.704500	0.120500	0.399300
C101	C10	0.784600	0.182500	0.467600
C111	C11	0.481500	0.045600	0.383500
H111	H11	0.474600	0.170000	0.383400
H121	H12	0.439000	0.996300	0.403000
C121	C12	0.470600	0.977700	0.330900
H131	H13	0.476000	0.852000	0.332000
C131	C13	0.542300	0.052000	0.302800
H141	H14	0.538900	0.006500	0.269700
H151	H15	0.536300	0.176300	0.300700
C141	C14	0.626800	0.009900	0.326400
H161	H16	0.636500	0.886600	0.324500
H171	H17	0.669400	0.068200	0.308900
C151	C15	0.566800	0.000200	0.406500
H181	H18	0.572700	0.049000	0.439200
H191	H19	0.571900	0.875900	0.409400
C161	C16	0.865200	0.347200	0.585400
H201	H20	0.919100	0.354800	0.602700
H211	H21	0.849600	0.462300	0.574500
C171	C17	0.720700	0.250800	0.592000
H221	H22	0.697500	0.360500	0.581000
H231	H23	0.682200	0.198200	0.613500
C181	C18	0.871600	0.232000	0.541600
H241	H24	0.908400	0.284800	0.519100
H251	H25	0.895700	0.122600	0.552100
C191	C19	0.729400	0.136900	0.548700
H261	H26	0.744800	0.021800	0.559800
H271	H27	0.676300	0.128900	0.530400
C201	C20	0.113700	0.072900	0.290700
C211	C21	0.388500	0.022100	0.306200
Ce11	Ce1	0.223960	0.871430	0.233880
N11	N1	0.708200	0.132500	0.448600
N21	N2	0.631300	0.065000	0.377700
N31	N3	0.850100	0.215500	0.442500
N41	N4	0.764300	0.166000	0.369500
N51	N5	0.902500	0.241000	0.365300
N61	N6	0.791700	0.200700	0.516400
O11	O1	0.782900	0.347500	0.705800
O21	O2	0.786100	0.565800	0.655200
O31	O3	0.348200	0.905700	0.284200
O41	O4	0.098000	0.917500	0.280600
O51	O5	0.187700	0.127300	0.284200
O61	O6	0.120800	0.045300	0.184700
O71	O7	0.365000	0.176900	0.307000
C221	C22	0.710300	0.907900	0.837700
C231	C23	0.697700	0.783000	0.879600
H281	H28	0.678000	0.673000	0.866000
C241	C24	0.516600	0.788600	0.113300
H291	H29	0.515900	0.774400	0.078100
H301	H30	0.505700	0.909000	0.120300
C251	C25	0.448500	0.675600	0.134200
H311	H31	0.394700	0.712700	0.120700
H321	H32	0.456600	0.556500	0.124700
C261	C26	0.450800	0.688200	0.189100
H331	H33	0.438000	0.808000	0.198000
C271	C27	0.536400	0.645800	0.209700
H341	H34	0.546800	0.524100	0.204500
H351	H35	0.538700	0.666200	0.244700
C281	C28	0.604200	0.749500	0.187300
H361	H36	0.600400	0.868900	0.197600
H371	H37	0.657800	0.705300	0.199000
C291	C29	0.661600	0.707800	0.107200
C301	C30	0.795500	0.620500	0.100700
C311	C31	0.715400	0.682500	0.032400
C321	C32	0.018500	0.545600	0.116500
H381	H38	0.025400	0.670000	0.116600
H391	H39	0.061000	0.496300	0.097000
C331	C33	0.029400	0.477700	0.169100
H401	H40	0.024000	0.352000	0.168000
C341	C34	0.957700	0.552000	0.197200
H411	H41	0.961100	0.506500	0.230300
H421	H42	0.963700	0.676300	0.199300
C351	C35	0.873200	0.509900	0.173600
H431	H43	0.863500	0.386600	0.175500
H441	H44	0.830600	0.568200	0.191100
C361	C36	0.933200	0.500200	0.093500
H451	H45	0.927300	0.549000	0.060800
H461	H46	0.928100	0.375900	0.090600
C371	C37	0.634800	0.847200	0.914600
H471	H47	0.580900	0.854800	0.897300
H481	H48	0.650400	0.962300	0.925500
C381	C38	0.779300	0.750800	0.908000
H491	H49	0.802500	0.860500	0.919000
H501	H50	0.817800	0.698200	0.886500
C391	C39	0.628400	0.732000	0.958400
H511	H51	0.591600	0.784800	0.980900
H521	H52	0.604300	0.622600	0.947900
C401	C40	0.770600	0.636900	0.951300
H531	H53	0.755200	0.521800	0.940200
H541	H54	0.823700	0.628900	0.969600
C411	C41	0.386300	0.572900	0.209300
C421	C42	0.111500	0.522100	0.193800
Ce21	Ce2	0.276040	0.371430	0.266130
N71	N7	0.791800	0.632500	0.051400
N81	N8	0.868700	0.565000	0.122300
N91	N9	0.649900	0.715500	0.057500
N101	N10	0.735700	0.666000	0.130500
N111	N11	0.597500	0.741000	0.134700
N121	N12	0.708300	0.700700	0.983600
O81	O8	0.717100	0.847500	0.794200
O91	O9	0.713900	0.065800	0.844800
O101	O10	0.151800	0.405700	0.215800
O111	O11	0.402000	0.417500	0.219400
O121	O12	0.312300	0.627300	0.215800
O131	O13	0.379200	0.545300	0.315300
O141	O14	0.135000	0.676900	0.193000
C431	C43	0.210300	0.592100	0.337700
C441	C44	0.197700	0.717000	0.379600
H551	H55	0.178000	0.827000	0.366000
C451	C45	0.016600	0.711400	0.613300
H561	H56	0.015900	0.725600	0.578100
H571	H57	0.005700	0.591000	0.620300
C461	C46	0.948500	0.824400	0.634200
H581	H58	0.894700	0.787300	0.620700
H591	H59	0.956600	0.943500	0.624700
C471	C47	0.950800	0.811800	0.689100
H601	H60	0.938000	0.692000	0.698000
C481	C48	0.036400	0.854200	0.709700
H611	H61	0.046800	0.975900	0.704500
H621	H62	0.038700	0.833800	0.744700
C491	C49	0.104200	0.750500	0.687300
H631	H63	0.100400	0.631100	0.697600
H641	H64	0.157800	0.794700	0.699000
C501	C50	0.161600	0.792200	0.607200
C511	C51	0.295500	0.879500	0.600700
C521	C52	0.215400	0.817500	0.532400
C531	C53	0.518500	0.954400	0.616500
H651	H65	0.525400	0.830000	0.616600
H661	H66	0.561000	0.003700	0.597000
C541	C54	0.529400	0.022300	0.669100
H671	H67	0.524000	0.148000	0.668000
C551	C55	0.457700	0.948000	0.697200
H681	H68	0.461100	0.993500	0.730300
H691	H69	0.463700	0.823700	0.699300
C561	C56	0.373200	0.990100	0.673600
H701	H70	0.363500	0.113400	0.675500
H711	H71	0.330600	0.931800	0.691100
C571	C57	0.433200	0.999800	0.593500
H721	H72	0.427300	0.951000	0.560800
H731	H73	0.428100	0.124100	0.590600
C581	C58	0.134800	0.652800	0.414600
H741	H74	0.080900	0.645200	0.397300
H751	H75	0.150400	0.537700	0.425500
C591	C59	0.279300	0.749200	0.408000
H761	H76	0.302500	0.639500	0.419000
H771	H77	0.317800	0.801800	0.386500
C601	C60	0.128400	0.768000	0.458400
H781	H78	0.091600	0.715200	0.480900
H791	H79	0.104300	0.877400	0.447900
C611	C61	0.270600	0.863100	0.451300
H801	H80	0.255200	0.978200	0.440200
H811	H81	0.323700	0.871100	0.469600
C621	C62	0.886300	0.927100	0.709300
C631	C63	0.611500	0.977900	0.693800
Ce31	Ce3	0.776040	0.128570	0.766130
N131	N13	0.291800	0.867500	0.551400
N141	N14	0.368700	0.935000	0.622300
N151	N15	0.149900	0.784500	0.557500
N161	N16	0.235700	0.834000	0.630500
N171	N17	0.097500	0.759000	0.634700
N181	N18	0.208300	0.799300	0.483600
O151	O15	0.217100	0.652500	0.294200
O161	O16	0.213900	0.434200	0.344800
O171	O17	0.651800	0.094300	0.715800
O181	O18	0.902000	0.082500	0.719400
O191	O19	0.812300	0.872700	0.715800
O201	O20	0.879200	0.954700	0.815300
O211	O21	0.635000	0.823100	0.693000
C641	C64	0.289700	0.092100	0.162300
C651	C65	0.302300	0.217000	0.120400
H821	H82	0.322000	0.327000	0.134000
C661	C66	0.483400	0.211400	0.886700
H831	H83	0.484100	0.225600	0.921900
H841	H84	0.494300	0.091000	0.879700
C671	C67	0.551500	0.324400	0.865800
H851	H85	0.605300	0.287300	0.879300
H861	H86	0.543400	0.443500	0.875300
C681	C68	0.549200	0.311800	0.810900
H871	H87	0.562000	0.192000	0.802000
C691	C69	0.463600	0.354200	0.790300
H881	H88	0.453200	0.475900	0.795500
H891	H89	0.461300	0.333800	0.755300
C701	C70	0.395800	0.250500	0.812700
H901	H90	0.399600	0.131100	0.802400
H911	H91	0.342200	0.294700	0.801000
C711	C71	0.338400	0.292200	0.892800
C721	C72	0.204500	0.379500	0.899300
C731	C73	0.284600	0.317500	0.967600
C741	C74	0.981500	0.454400	0.883500
H921	H92	0.974600	0.330000	0.883400
H931	H93	0.939000	0.503700	0.903000
C751	C75	0.970600	0.522300	0.830900
H941	H94	0.976000	0.648000	0.832000
C761	C76	0.042300	0.448000	0.802800
H951	H95	0.038900	0.493500	0.769700
H961	H96	0.036300	0.323700	0.800700
C771	C77	0.126800	0.490100	0.826400
H971	H97	0.136500	0.613400	0.824500
H981	H98	0.169400	0.431800	0.808900
C781	C78	0.066800	0.499800	0.906500
H991	H99	0.072700	0.451000	0.939200
H1001	H100	0.071900	0.624100	0.909400
C791	C79	0.365200	0.152800	0.085400
H1011	H101	0.419100	0.145200	0.102700
H1021	H102	0.349600	0.037700	0.074500
C801	C80	0.220700	0.249200	0.092000
H1031	H103	0.197500	0.139500	0.081000
H1041	H104	0.182200	0.301800	0.113500
C811	C81	0.371600	0.268000	0.041600
H1051	H105	0.408400	0.215200	0.019100
H1061	H106	0.395700	0.377400	0.052100
C821	C82	0.229400	0.363100	0.048700
H1071	H107	0.244800	0.478200	0.059800
H1081	H108	0.176300	0.371100	0.030400
C831	C83	0.613700	0.427100	0.790700
C841	C84	0.888500	0.477900	0.806200
Ce41	Ce4	0.723960	0.628570	0.733880
N191	N19	0.208200	0.367500	0.948600
N201	N20	0.131300	0.435000	0.877700
N211	N21	0.350100	0.284500	0.942500
N221	N22	0.264300	0.334000	0.869500
N231	N23	0.402500	0.259000	0.865300
N241	N24	0.291700	0.299300	0.016400
O221	O22	0.282900	0.152500	0.205800
O231	O23	0.286100	0.934200	0.155200
O241	O24	0.848200	0.594300	0.784200
O251	O25	0.598000	0.582500	0.780600
O261	O26	0.687700	0.372700	0.784200
O271	O27	0.620800	0.454700	0.684700
O281	O28	0.865000	0.323100	0.807000
