data_DIBQOW_freeONLY_PM
_symmetry_space_group_name_H-M	'P1'
_cell_length_a	17.560800
_cell_length_b	20.880400
_cell_length_c	25.347400
_cell_angle_alpha	90.000000
_cell_angle_beta	90.000000
_cell_angle_gamma	90.000000
_symmetry_Int_Tables_number 1

loop_
_symmetry_equiv_pos_as_xyz
'x,y,z'

loop_
_atom_site_label
_atom_site_type_symbol
_atom_site_fract_x
_atom_site_fract_y
_atom_site_fract_z
Co11	Co1	0.496140	0.935070	0.317790
Co21	Co2	0.003860	0.435070	0.682210
Co31	Co3	0.496140	0.935070	0.182210
Co41	Co4	0.003860	0.435070	0.817790
Co51	Co5	0.386850	0.835370	0.250000
Co61	Co6	0.113150	0.335370	0.750000
H11	H1	0.756300	0.970400	0.308500
H21	H2	0.875800	0.999100	0.335800
H31	H3	0.785800	0.042900	0.474100
H41	H4	0.669000	0.005500	0.446600
H51	H5	0.307100	0.041500	0.383400
H61	H6	0.195900	0.083000	0.417900
H71	H7	0.084300	0.926000	0.377600
H81	H8	0.192400	0.887600	0.337500
H91	H9	0.931500	0.288700	0.569500
H101	H10	0.920400	0.216000	0.505700
H111	H11	0.088000	0.110300	0.570100
H121	H12	0.094300	0.184900	0.638500
H131	H13	0.982900	0.991500	0.379100
H141	H14	0.108900	0.089700	0.481100
H151	H15	0.880600	0.106600	0.479800
H161	H16	0.743700	0.470400	0.691500
H171	H17	0.624200	0.499100	0.664200
H181	H18	0.714200	0.542900	0.525900
H191	H19	0.831000	0.505500	0.553400
H201	H20	0.192900	0.541500	0.616600
H211	H21	0.304100	0.583000	0.582100
H221	H22	0.415700	0.426000	0.622400
H231	H23	0.307600	0.387600	0.662500
H241	H24	0.568500	0.788700	0.430500
H251	H25	0.579600	0.716000	0.494300
H261	H26	0.412000	0.610300	0.429900
H271	H27	0.405700	0.684900	0.361500
H281	H28	0.517100	0.491500	0.620900
H291	H29	0.391100	0.589700	0.518900
H301	H30	0.619400	0.606600	0.520200
H311	H31	0.756300	0.970400	0.191500
H321	H32	0.875800	0.999100	0.164200
H331	H33	0.785800	0.042900	0.025900
H341	H34	0.669000	0.005500	0.053400
H351	H35	0.307100	0.041500	0.116600
H361	H36	0.195900	0.083000	0.082100
H371	H37	0.084300	0.926000	0.122400
H381	H38	0.192400	0.887600	0.162500
H391	H39	0.931500	0.288700	0.930500
H401	H40	0.920400	0.216000	0.994300
H411	H41	0.088000	0.110300	0.929900
H421	H42	0.094300	0.184900	0.861500
H431	H43	0.982900	0.991500	0.120900
H441	H44	0.108900	0.089700	0.018900
H451	H45	0.880600	0.106600	0.020200
H461	H46	0.743700	0.470400	0.808500
H471	H47	0.624200	0.499100	0.835800
H481	H48	0.714200	0.542900	0.974100
H491	H49	0.831000	0.505500	0.946600
H501	H50	0.192900	0.541500	0.883400
H511	H51	0.304100	0.583000	0.917900
H521	H52	0.415700	0.426000	0.877600
H531	H53	0.307600	0.387600	0.837500
H541	H54	0.568500	0.788700	0.069500
H551	H55	0.579600	0.716000	0.005700
H561	H56	0.412000	0.610300	0.070100
H571	H57	0.405700	0.684900	0.138500
H581	H58	0.517100	0.491500	0.879100
H591	H59	0.391100	0.589700	0.981100
H601	H60	0.619400	0.606600	0.979800
C11	C1	0.614400	0.971500	0.345200
C21	C2	0.701400	0.987700	0.373300
C31	C3	0.762500	0.985100	0.342900
C41	C4	0.834400	0.002600	0.358500
C51	C5	0.842600	0.024400	0.406400
C61	C6	0.780000	0.027000	0.440000
C71	C7	0.710000	0.006400	0.423400
C81	C8	0.332800	0.931400	0.330400
C91	C9	0.261400	0.960500	0.358100
C101	C10	0.262200	0.018000	0.381600
C111	C11	0.195700	0.042200	0.403200
C121	C12	0.128500	0.006500	0.403400
C131	C13	0.128800	0.950100	0.378900
C141	C14	0.193900	0.926500	0.355300
C151	C15	0.026000	0.294700	0.652000
C161	C16	0.015500	0.245900	0.611200
C171	C17	0.962700	0.252600	0.570200
C181	C18	0.955700	0.209200	0.532500
C191	C19	0.001200	0.152100	0.531700
C201	C20	0.055000	0.145100	0.570500
C211	C21	0.060000	0.191400	0.611100
C221	C22	0.921300	0.044900	0.427000
C231	C23	0.986000	0.020500	0.406900
C241	C24	0.056200	0.036800	0.426000
C251	C25	0.061400	0.078800	0.467600
C261	C26	0.996000	0.105000	0.489500
C271	C27	0.925100	0.088100	0.467000
C281	C28	0.885600	0.471500	0.654800
C291	C29	0.798600	0.487700	0.626700
C301	C30	0.737500	0.485100	0.657100
C311	C31	0.665600	0.502600	0.641500
C321	C32	0.657400	0.524400	0.593600
C331	C33	0.720000	0.527000	0.560000
C341	C34	0.790000	0.506400	0.576600
C351	C35	0.167200	0.431400	0.669600
C361	C36	0.238600	0.460500	0.641900
C371	C37	0.237800	0.518000	0.618400
C381	C38	0.304300	0.542200	0.596800
C391	C39	0.371500	0.506500	0.596600
C401	C40	0.371200	0.450100	0.621100
C411	C41	0.306100	0.426500	0.644700
C421	C42	0.474000	0.794700	0.348000
C431	C43	0.484500	0.745900	0.388800
C441	C44	0.537300	0.752600	0.429800
C451	C45	0.544300	0.709200	0.467500
C461	C46	0.498800	0.652100	0.468300
C471	C47	0.445000	0.645100	0.429500
C481	C48	0.440000	0.691400	0.388900
C491	C49	0.578700	0.544900	0.573000
C501	C50	0.514000	0.520500	0.593100
C511	C51	0.443800	0.536800	0.574000
C521	C52	0.438600	0.578800	0.532400
C531	C53	0.504000	0.605000	0.510500
C541	C54	0.574900	0.588100	0.533000
C551	C55	0.614400	0.971500	0.154800
C561	C56	0.701400	0.987700	0.126700
C571	C57	0.762500	0.985100	0.157100
C581	C58	0.834400	0.002600	0.141500
C591	C59	0.842600	0.024400	0.093600
C601	C60	0.780000	0.027000	0.060000
C611	C61	0.710000	0.006400	0.076600
C621	C62	0.332800	0.931400	0.169600
C631	C63	0.261400	0.960500	0.141900
C641	C64	0.262200	0.018000	0.118400
C651	C65	0.195700	0.042200	0.096800
C661	C66	0.128500	0.006500	0.096600
C671	C67	0.128800	0.950100	0.121100
C681	C68	0.193900	0.926500	0.144700
C691	C69	0.026000	0.294700	0.848000
C701	C70	0.015500	0.245900	0.888800
C711	C71	0.962700	0.252600	0.929800
C721	C72	0.955700	0.209200	0.967500
C731	C73	0.001200	0.152100	0.968300
C741	C74	0.055000	0.145100	0.929500
C751	C75	0.060000	0.191400	0.888900
C761	C76	0.921300	0.044900	0.073000
C771	C77	0.986000	0.020500	0.093100
C781	C78	0.056200	0.036800	0.074000
C791	C79	0.061400	0.078800	0.032400
C801	C80	0.996000	0.105000	0.010500
C811	C81	0.925100	0.088100	0.033000
C821	C82	0.885600	0.471500	0.845200
C831	C83	0.798600	0.487700	0.873300
C841	C84	0.737500	0.485100	0.842900
C851	C85	0.665600	0.502600	0.858500
C861	C86	0.657400	0.524400	0.906400
C871	C87	0.720000	0.527000	0.940000
C881	C88	0.790000	0.506400	0.923400
C891	C89	0.167200	0.431400	0.830400
C901	C90	0.238600	0.460500	0.858100
C911	C91	0.237800	0.518000	0.881600
C921	C92	0.304300	0.542200	0.903200
C931	C93	0.371500	0.506500	0.903400
C941	C94	0.371200	0.450100	0.878900
C951	C95	0.306100	0.426500	0.855300
C961	C96	0.474000	0.794700	0.152000
C971	C97	0.484500	0.745900	0.111200
C981	C98	0.537300	0.752600	0.070200
C991	C99	0.544300	0.709200	0.032500
C1001	C100	0.498800	0.652100	0.031700
C1011	C101	0.445000	0.645100	0.070500
C1021	C102	0.440000	0.691400	0.111100
C1031	C103	0.578700	0.544900	0.927000
C1041	C104	0.514000	0.520500	0.906900
C1051	C105	0.443800	0.536800	0.926000
C1061	C106	0.438600	0.578800	0.967600
C1071	C107	0.504000	0.605000	0.989500
C1081	C108	0.574900	0.588100	0.967000
O11	O1	0.565600	0.983500	0.376100
O21	O2	0.619800	0.932900	0.313600
O31	O3	0.326300	0.884400	0.306260
O41	O4	0.393900	0.965200	0.339300
O51	O5	0.063300	0.281000	0.691420
O61	O6	0.000100	0.350200	0.642100
O71	O7	0.934400	0.483500	0.623900
O81	O8	0.880200	0.432900	0.686400
O91	O9	0.173700	0.384400	0.693740
O101	O10	0.106100	0.465200	0.660700
O111	O11	0.436700	0.781000	0.308580
O121	O12	0.499900	0.850200	0.357900
O131	O13	0.565600	0.983500	0.123900
O141	O14	0.619800	0.932900	0.186400
O151	O15	0.326300	0.884400	0.193740
O161	O16	0.393900	0.965200	0.160700
O171	O17	0.063300	0.281000	0.808580
O181	O18	0.000100	0.350200	0.857900
O191	O19	0.934400	0.483500	0.876100
O201	O20	0.880200	0.432900	0.813600
O211	O21	0.173700	0.384400	0.806260
O221	O22	0.106100	0.465200	0.839300
O231	O23	0.436700	0.781000	0.191420
O241	O24	0.499900	0.850200	0.142100
O251	O25	0.295600	0.768700	0.250000
O261	O26	0.482100	0.894300	0.250000
O271	O27	0.204400	0.268700	0.750000
O281	O28	0.017900	0.394300	0.750000
Co71	Co7	0.503860	0.064930	0.817790
Co81	Co8	0.996140	0.564930	0.182210
Co91	Co9	0.503860	0.064930	0.682210
Co101	Co10	0.996140	0.564930	0.317790
Co111	Co11	0.613150	0.164630	0.750000
Co121	Co12	0.886850	0.664630	0.250000
H611	H61	0.243700	0.029600	0.808500
H621	H62	0.124200	0.000900	0.835800
H631	H63	0.214200	0.957100	0.974100
H641	H64	0.331000	0.994500	0.946600
H651	H65	0.692900	0.958500	0.883400
H661	H66	0.804100	0.917000	0.917900
H671	H67	0.915700	0.074000	0.877600
H681	H68	0.807600	0.112400	0.837500
H691	H69	0.068500	0.711300	0.069500
H701	H70	0.079600	0.784000	0.005700
H711	H71	0.912000	0.889700	0.070100
H721	H72	0.905700	0.815100	0.138500
H731	H73	0.017100	0.008500	0.879100
H741	H74	0.891100	0.910300	0.981100
H751	H75	0.119400	0.893400	0.979800
H761	H76	0.256300	0.529600	0.191500
H771	H77	0.375800	0.500900	0.164200
H781	H78	0.285800	0.457100	0.025900
H791	H79	0.169000	0.494500	0.053400
H801	H80	0.807100	0.458500	0.116600
H811	H81	0.695900	0.417000	0.082100
H821	H82	0.584300	0.574000	0.122400
H831	H83	0.692400	0.612400	0.162500
H841	H84	0.431500	0.211300	0.930500
H851	H85	0.420400	0.284000	0.994300
H861	H86	0.588000	0.389700	0.929900
H871	H87	0.594300	0.315100	0.861500
H881	H88	0.482900	0.508500	0.120900
H891	H89	0.608900	0.410300	0.018900
H901	H90	0.380600	0.393400	0.020200
H911	H91	0.243700	0.029600	0.691500
H921	H92	0.124200	0.000900	0.664200
H931	H93	0.214200	0.957100	0.525900
H941	H94	0.331000	0.994500	0.553400
H951	H95	0.692900	0.958500	0.616600
H961	H96	0.804100	0.917000	0.582100
H971	H97	0.915700	0.074000	0.622400
H981	H98	0.807600	0.112400	0.662500
H991	H99	0.068500	0.711300	0.430500
H1001	H100	0.079600	0.784000	0.494300
H1011	H101	0.912000	0.889700	0.429900
H1021	H102	0.905700	0.815100	0.361500
H1031	H103	0.017100	0.008500	0.620900
H1041	H104	0.891100	0.910300	0.518900
H1051	H105	0.119400	0.893400	0.520200
H1061	H106	0.256300	0.529600	0.308500
H1071	H107	0.375800	0.500900	0.335800
H1081	H108	0.285800	0.457100	0.474100
H1091	H109	0.169000	0.494500	0.446600
H1101	H110	0.807100	0.458500	0.383400
H1111	H111	0.695900	0.417000	0.417900
H1121	H112	0.584300	0.574000	0.377600
H1131	H113	0.692400	0.612400	0.337500
H1141	H114	0.431500	0.211300	0.569500
H1151	H115	0.420400	0.284000	0.505700
H1161	H116	0.588000	0.389700	0.570100
H1171	H117	0.594300	0.315100	0.638500
H1181	H118	0.482900	0.508500	0.379100
H1191	H119	0.608900	0.410300	0.481100
H1201	H120	0.380600	0.393400	0.479800
C1091	C109	0.385600	0.028500	0.845200
C1101	C110	0.298600	0.012300	0.873300
C1111	C111	0.237500	0.014900	0.842900
C1121	C112	0.165600	0.997400	0.858500
C1131	C113	0.157400	0.975600	0.906400
C1141	C114	0.220000	0.973000	0.940000
C1151	C115	0.290000	0.993600	0.923400
C1161	C116	0.667200	0.068600	0.830400
C1171	C117	0.738600	0.039500	0.858100
C1181	C118	0.737800	0.982000	0.881600
C1191	C119	0.804300	0.957800	0.903200
C1201	C120	0.871500	0.993500	0.903400
C1211	C121	0.871200	0.049900	0.878900
C1221	C122	0.806100	0.073500	0.855300
C1231	C123	0.974000	0.705300	0.152000
C1241	C124	0.984500	0.754100	0.111200
C1251	C125	0.037300	0.747400	0.070200
C1261	C126	0.044300	0.790800	0.032500
C1271	C127	0.998800	0.847900	0.031700
C1281	C128	0.945000	0.854900	0.070500
C1291	C129	0.940000	0.808600	0.111100
C1301	C130	0.078700	0.955100	0.927000
C1311	C131	0.014000	0.979500	0.906900
C1321	C132	0.943800	0.963200	0.926000
C1331	C133	0.938600	0.921200	0.967600
C1341	C134	0.004000	0.895000	0.989500
C1351	C135	0.074900	0.911900	0.967000
C1361	C136	0.114400	0.528500	0.154800
C1371	C137	0.201400	0.512300	0.126700
C1381	C138	0.262500	0.514900	0.157100
C1391	C139	0.334400	0.497400	0.141500
C1401	C140	0.342600	0.475600	0.093600
C1411	C141	0.280000	0.473000	0.060000
C1421	C142	0.210000	0.493600	0.076600
C1431	C143	0.832800	0.568600	0.169600
C1441	C144	0.761400	0.539500	0.141900
C1451	C145	0.762200	0.482000	0.118400
C1461	C146	0.695700	0.457800	0.096800
C1471	C147	0.628500	0.493500	0.096600
C1481	C148	0.628800	0.549900	0.121100
C1491	C149	0.693900	0.573500	0.144700
C1501	C150	0.526000	0.205300	0.848000
C1511	C151	0.515500	0.254100	0.888800
C1521	C152	0.462700	0.247400	0.929800
C1531	C153	0.455700	0.290800	0.967500
C1541	C154	0.501200	0.347900	0.968300
C1551	C155	0.555000	0.354900	0.929500
C1561	C156	0.560000	0.308600	0.888900
C1571	C157	0.421300	0.455100	0.073000
C1581	C158	0.486000	0.479500	0.093100
C1591	C159	0.556200	0.463200	0.074000
C1601	C160	0.561400	0.421200	0.032400
C1611	C161	0.496000	0.395000	0.010500
C1621	C162	0.425100	0.411900	0.033000
C1631	C163	0.385600	0.028500	0.654800
C1641	C164	0.298600	0.012300	0.626700
C1651	C165	0.237500	0.014900	0.657100
C1661	C166	0.165600	0.997400	0.641500
C1671	C167	0.157400	0.975600	0.593600
C1681	C168	0.220000	0.973000	0.560000
C1691	C169	0.290000	0.993600	0.576600
C1701	C170	0.667200	0.068600	0.669600
C1711	C171	0.738600	0.039500	0.641900
C1721	C172	0.737800	0.982000	0.618400
C1731	C173	0.804300	0.957800	0.596800
C1741	C174	0.871500	0.993500	0.596600
C1751	C175	0.871200	0.049900	0.621100
C1761	C176	0.806100	0.073500	0.644700
C1771	C177	0.974000	0.705300	0.348000
C1781	C178	0.984500	0.754100	0.388800
C1791	C179	0.037300	0.747400	0.429800
C1801	C180	0.044300	0.790800	0.467500
C1811	C181	0.998800	0.847900	0.468300
C1821	C182	0.945000	0.854900	0.429500
C1831	C183	0.940000	0.808600	0.388900
C1841	C184	0.078700	0.955100	0.573000
C1851	C185	0.014000	0.979500	0.593100
C1861	C186	0.943800	0.963200	0.574000
C1871	C187	0.938600	0.921200	0.532400
C1881	C188	0.004000	0.895000	0.510500
C1891	C189	0.074900	0.911900	0.533000
C1901	C190	0.114400	0.528500	0.345200
C1911	C191	0.201400	0.512300	0.373300
C1921	C192	0.262500	0.514900	0.342900
C1931	C193	0.334400	0.497400	0.358500
C1941	C194	0.342600	0.475600	0.406400
C1951	C195	0.280000	0.473000	0.440000
C1961	C196	0.210000	0.493600	0.423400
C1971	C197	0.832800	0.568600	0.330400
C1981	C198	0.761400	0.539500	0.358100
C1991	C199	0.762200	0.482000	0.381600
C2001	C200	0.695700	0.457800	0.403200
C2011	C201	0.628500	0.493500	0.403400
C2021	C202	0.628800	0.549900	0.378900
C2031	C203	0.693900	0.573500	0.355300
C2041	C204	0.526000	0.205300	0.652000
C2051	C205	0.515500	0.254100	0.611200
C2061	C206	0.462700	0.247400	0.570200
C2071	C207	0.455700	0.290800	0.532500
C2081	C208	0.501200	0.347900	0.531700
C2091	C209	0.555000	0.354900	0.570500
C2101	C210	0.560000	0.308600	0.611100
C2111	C211	0.421300	0.455100	0.427000
C2121	C212	0.486000	0.479500	0.406900
C2131	C213	0.556200	0.463200	0.426000
C2141	C214	0.561400	0.421200	0.467600
C2151	C215	0.496000	0.395000	0.489500
C2161	C216	0.425100	0.411900	0.467000
O291	O29	0.434400	0.016500	0.876100
O301	O30	0.380200	0.067100	0.813600
O311	O31	0.673700	0.115600	0.806260
O321	O32	0.606100	0.034800	0.839300
O331	O33	0.936700	0.719000	0.191420
O341	O34	0.999900	0.649800	0.142100
O351	O35	0.065600	0.516500	0.123900
O361	O36	0.119800	0.567100	0.186400
O371	O37	0.826300	0.615600	0.193740
O381	O38	0.893900	0.534800	0.160700
O391	O39	0.563300	0.219000	0.808580
O401	O40	0.500100	0.149800	0.857900
O411	O41	0.434400	0.016500	0.623900
O421	O42	0.380200	0.067100	0.686400
O431	O43	0.673700	0.115600	0.693740
O441	O44	0.606100	0.034800	0.660700
O451	O45	0.936700	0.719000	0.308580
O461	O46	0.999900	0.649800	0.357900
O471	O47	0.065600	0.516500	0.376100
O481	O48	0.119800	0.567100	0.313600
O491	O49	0.826300	0.615600	0.306260
O501	O50	0.893900	0.534800	0.339300
O511	O51	0.563300	0.219000	0.691420
O521	O52	0.500100	0.149800	0.642100
O531	O53	0.704400	0.231300	0.750000
O541	O54	0.517900	0.105700	0.750000
O551	O55	0.795600	0.731300	0.250000
O561	O56	0.982100	0.605700	0.250000
