data_DIBQUC_freeONLY_PM
_symmetry_space_group_name_H-M	'P1'
_cell_length_a	17.564000
_cell_length_b	25.629000
_cell_length_c	20.800000
_cell_angle_alpha	90.000000
_cell_angle_beta	90.000000
_cell_angle_gamma	90.000000
_symmetry_Int_Tables_number 1

loop_
_symmetry_equiv_pos_as_xyz
'x,y,z'

loop_
_atom_site_label
_atom_site_type_symbol
_atom_site_fract_x
_atom_site_fract_y
_atom_site_fract_z
Co11	Co1	0.996890	0.681980	0.561650
O11	O1	0.067000	0.621600	0.517100
O21	O2	0.119800	0.686400	0.558800
O31	O3	0.827000	0.695520	0.614700
O41	O4	0.895000	0.659400	0.535600
O51	O5	0.564300	0.307830	0.217200
O61	O6	0.495500	0.355900	0.147100
C11	C1	0.120300	0.648600	0.526800
C21	C2	0.200800	0.627700	0.509700
C31	C3	0.260600	0.656000	0.513900
H11	H1	0.254800	0.689300	0.530900
C41	C4	0.333200	0.641200	0.495200
H21	H2	0.374000	0.664200	0.498000
C51	C5	0.342400	0.592100	0.472700
C61	C6	0.282400	0.557800	0.472900
H31	H3	0.287900	0.523200	0.460300
C71	C7	0.211100	0.578500	0.493700
H41	H4	0.169600	0.556000	0.495900
C81	C8	0.831300	0.669700	0.572300
C91	C9	0.762000	0.641200	0.536900
C101	C10	0.764200	0.614700	0.483800
H51	H5	0.810800	0.609900	0.463300
C111	C11	0.697500	0.592600	0.455900
H61	H6	0.698800	0.577900	0.415000
C121	C12	0.629700	0.593800	0.491600
C131	C13	0.629400	0.619600	0.549100
H71	H7	0.584300	0.622000	0.572300
C141	C14	0.695100	0.642300	0.573700
H81	H8	0.694700	0.658100	0.614000
C151	C15	0.524300	0.346700	0.203000
C161	C16	0.515500	0.386000	0.253500
C171	C17	0.460600	0.426900	0.245300
H91	H9	0.428600	0.426900	0.209600
C181	C18	0.455400	0.465100	0.288900
H101	H10	0.420100	0.491500	0.282000
C191	C19	0.501400	0.467600	0.346000
C201	C20	0.556700	0.425200	0.352200
H111	H11	0.589100	0.423900	0.387500
C211	C21	0.560500	0.387600	0.305900
H121	H12	0.596700	0.361400	0.310800
C221	C22	0.420900	0.570200	0.453300
C231	C23	0.486500	0.590400	0.479600
H131	H13	0.482500	0.617300	0.509400
C241	C24	0.559500	0.571800	0.463200
C251	C25	0.563000	0.531600	0.421800
H141	H14	0.610300	0.517200	0.412600
C261	C26	0.496400	0.509600	0.391000
C271	C27	0.427000	0.530700	0.411700
H151	H15	0.382400	0.516200	0.395500
N11	N1	0.714400	0.695800	0.790200
C281	C28	0.773200	0.703600	0.748100
H161	H16	0.798000	0.674400	0.731600
C291	C29	0.718700	0.633400	0.799900
Co21	Co2	0.503110	0.318020	0.061650
O71	O7	0.433000	0.378400	0.017100
O81	O8	0.380200	0.313600	0.058800
O91	O9	0.673000	0.304480	0.114700
O101	O10	0.605000	0.340600	0.035600
O111	O11	0.935700	0.692170	0.717200
O121	O12	0.004500	0.644100	0.647100
C301	C30	0.379700	0.351400	0.026800
C311	C31	0.299200	0.372300	0.009700
C321	C32	0.239400	0.344000	0.013900
H171	H17	0.245200	0.310700	0.030900
C331	C33	0.166800	0.358800	0.995200
H181	H18	0.126000	0.335800	0.998000
C341	C34	0.157600	0.407900	0.972700
C351	C35	0.217600	0.442200	0.972900
H191	H19	0.212100	0.476800	0.960300
C361	C36	0.288900	0.421500	0.993700
H201	H20	0.330400	0.444000	0.995900
C371	C37	0.668700	0.330300	0.072300
C381	C38	0.738000	0.358800	0.036900
C391	C39	0.735800	0.385300	0.983800
H211	H21	0.689200	0.390100	0.963300
C401	C40	0.802500	0.407400	0.955900
H221	H22	0.801200	0.422100	0.915000
C411	C41	0.870300	0.406200	0.991600
C421	C42	0.870600	0.380400	0.049100
H231	H23	0.915700	0.378000	0.072300
C431	C43	0.804900	0.357700	0.073700
H241	H24	0.805300	0.341900	0.114000
C441	C44	0.975700	0.653300	0.703000
C451	C45	0.984500	0.614000	0.753500
C461	C46	0.039400	0.573100	0.745300
H251	H25	0.071400	0.573100	0.709600
C471	C47	0.044600	0.534900	0.788900
H261	H26	0.079900	0.508500	0.782000
C481	C48	0.998600	0.532400	0.846000
C491	C49	0.943300	0.574800	0.852200
H271	H27	0.910900	0.576100	0.887500
C501	C50	0.939500	0.612400	0.805900
H281	H28	0.903300	0.638600	0.810800
C511	C51	0.079100	0.429800	0.953300
C521	C52	0.013500	0.409600	0.979600
H291	H29	0.017500	0.382700	0.009400
C531	C53	0.940500	0.428200	0.963200
C541	C54	0.937000	0.468400	0.921800
H301	H30	0.889700	0.482800	0.912600
C551	C55	0.003600	0.490400	0.891000
C561	C56	0.073000	0.469300	0.911700
H311	H31	0.117600	0.483800	0.895500
N21	N2	0.785600	0.304200	0.290200
C571	C57	0.726800	0.296400	0.248100
H321	H32	0.702000	0.325600	0.231600
C581	C58	0.781300	0.366600	0.299900
Co31	Co3	0.996890	0.818020	0.561650
O131	O13	0.067000	0.878400	0.517100
O141	O14	0.119800	0.813600	0.558800
O151	O15	0.827000	0.804480	0.614700
O161	O16	0.895000	0.840600	0.535600
O171	O17	0.564300	0.192170	0.217200
O181	O18	0.495500	0.144100	0.147100
C591	C59	0.120300	0.851400	0.526800
C601	C60	0.200800	0.872300	0.509700
C611	C61	0.260600	0.844000	0.513900
H331	H33	0.254800	0.810700	0.530900
C621	C62	0.333200	0.858800	0.495200
H341	H34	0.374000	0.835800	0.498000
C631	C63	0.342400	0.907900	0.472700
C641	C64	0.282400	0.942200	0.472900
H351	H35	0.287900	0.976800	0.460300
C651	C65	0.211100	0.921500	0.493700
H361	H36	0.169600	0.944000	0.495900
C661	C66	0.831300	0.830300	0.572300
C671	C67	0.762000	0.858800	0.536900
C681	C68	0.764200	0.885300	0.483800
H371	H37	0.810800	0.890100	0.463300
C691	C69	0.697500	0.907400	0.455900
H381	H38	0.698800	0.922100	0.415000
C701	C70	0.629700	0.906200	0.491600
C711	C71	0.629400	0.880400	0.549100
H391	H39	0.584300	0.878000	0.572300
C721	C72	0.695100	0.857700	0.573700
H401	H40	0.694700	0.841900	0.614000
C731	C73	0.524300	0.153300	0.203000
C741	C74	0.515500	0.114000	0.253500
C751	C75	0.460600	0.073100	0.245300
H411	H41	0.428600	0.073100	0.209600
C761	C76	0.455400	0.034900	0.288900
H421	H42	0.420100	0.008500	0.282000
C771	C77	0.501400	0.032400	0.346000
C781	C78	0.556700	0.074800	0.352200
H431	H43	0.589100	0.076100	0.387500
C791	C79	0.560500	0.112400	0.305900
H441	H44	0.596700	0.138600	0.310800
C801	C80	0.420900	0.929800	0.453300
C811	C81	0.486500	0.909600	0.479600
H451	H45	0.482500	0.882700	0.509400
C821	C82	0.559500	0.928200	0.463200
C831	C83	0.563000	0.968400	0.421800
H461	H46	0.610300	0.982800	0.412600
C841	C84	0.496400	0.990400	0.391000
C851	C85	0.427000	0.969300	0.411700
H471	H47	0.382400	0.983800	0.395500
N31	N3	0.714400	0.804200	0.790200
C861	C86	0.773200	0.796400	0.748100
H481	H48	0.798000	0.825600	0.731600
C871	C87	0.718700	0.866600	0.799900
Co41	Co4	0.503110	0.181980	0.061650
O191	O19	0.433000	0.121600	0.017100
O201	O20	0.380200	0.186400	0.058800
O211	O21	0.673000	0.195520	0.114700
O221	O22	0.605000	0.159400	0.035600
O231	O23	0.935700	0.807830	0.717200
O241	O24	0.004500	0.855900	0.647100
C881	C88	0.379700	0.148600	0.026800
C891	C89	0.299200	0.127700	0.009700
C901	C90	0.239400	0.156000	0.013900
H491	H49	0.245200	0.189300	0.030900
C911	C91	0.166800	0.141200	0.995200
H501	H50	0.126000	0.164200	0.998000
C921	C92	0.157600	0.092100	0.972700
C931	C93	0.217600	0.057800	0.972900
H511	H51	0.212100	0.023200	0.960300
C941	C94	0.288900	0.078500	0.993700
H521	H52	0.330400	0.056000	0.995900
C951	C95	0.668700	0.169700	0.072300
C961	C96	0.738000	0.141200	0.036900
C971	C97	0.735800	0.114700	0.983800
H531	H53	0.689200	0.109900	0.963300
C981	C98	0.802500	0.092600	0.955900
H541	H54	0.801200	0.077900	0.915000
C991	C99	0.870300	0.093800	0.991600
C1001	C100	0.870600	0.119600	0.049100
H551	H55	0.915700	0.122000	0.072300
C1011	C101	0.804900	0.142300	0.073700
H561	H56	0.805300	0.158100	0.114000
C1021	C102	0.975700	0.846700	0.703000
C1031	C103	0.984500	0.886000	0.753500
C1041	C104	0.039400	0.926900	0.745300
H571	H57	0.071400	0.926900	0.709600
C1051	C105	0.044600	0.965100	0.788900
H581	H58	0.079900	0.991500	0.782000
C1061	C106	0.998600	0.967600	0.846000
C1071	C107	0.943300	0.925200	0.852200
H591	H59	0.910900	0.923900	0.887500
C1081	C108	0.939500	0.887600	0.805900
H601	H60	0.903300	0.861400	0.810800
C1091	C109	0.079100	0.070200	0.953300
C1101	C110	0.013500	0.090400	0.979600
H611	H61	0.017500	0.117300	0.009400
C1111	C111	0.940500	0.071800	0.963200
C1121	C112	0.937000	0.031600	0.921800
H621	H62	0.889700	0.017200	0.912600
C1131	C113	0.003600	0.009600	0.891000
C1141	C114	0.073000	0.030700	0.911700
H631	H63	0.117600	0.016200	0.895500
N41	N4	0.785600	0.195800	0.290200
C1151	C115	0.726800	0.203600	0.248100
H641	H64	0.702000	0.174400	0.231600
C1161	C116	0.781300	0.133400	0.299900
Co51	Co5	0.886380	0.750000	0.662260
O251	O25	0.981200	0.750000	0.601100
O261	O26	0.796500	0.750000	0.729700
C1171	C117	0.688000	0.750000	0.814000
Co61	Co6	0.613620	0.250000	0.162260
O271	O27	0.518800	0.250000	0.101100
O281	O28	0.703500	0.250000	0.229700
C1181	C118	0.812000	0.250000	0.314000
Co71	Co7	0.003110	0.181980	0.438350
O291	O29	0.933000	0.121600	0.482900
O301	O30	0.880200	0.186400	0.441200
O311	O31	0.173000	0.195520	0.385300
O321	O32	0.105000	0.159400	0.464400
O331	O33	0.435700	0.807830	0.782800
O341	O34	0.504500	0.855900	0.852900
C1191	C119	0.879700	0.148600	0.473200
C1201	C120	0.799200	0.127700	0.490300
C1211	C121	0.739400	0.156000	0.486100
H651	H65	0.745200	0.189300	0.469100
C1221	C122	0.666800	0.141200	0.504800
H661	H66	0.626000	0.164200	0.502000
C1231	C123	0.657600	0.092100	0.527300
C1241	C124	0.717600	0.057800	0.527100
H671	H67	0.712100	0.023200	0.539700
C1251	C125	0.788900	0.078500	0.506300
H681	H68	0.830400	0.056000	0.504100
C1261	C126	0.168700	0.169700	0.427700
C1271	C127	0.238000	0.141200	0.463100
C1281	C128	0.235800	0.114700	0.516200
H691	H69	0.189200	0.109900	0.536700
C1291	C129	0.302500	0.092600	0.544100
H701	H70	0.301200	0.077900	0.585000
C1301	C130	0.370300	0.093800	0.508400
C1311	C131	0.370600	0.119600	0.450900
H711	H71	0.415700	0.122000	0.427700
C1321	C132	0.304900	0.142300	0.426300
H721	H72	0.305300	0.158100	0.386000
C1331	C133	0.475700	0.846700	0.797000
C1341	C134	0.484500	0.886000	0.746500
C1351	C135	0.539400	0.926900	0.754700
H731	H73	0.571400	0.926900	0.790400
C1361	C136	0.544600	0.965100	0.711100
H741	H74	0.579900	0.991500	0.718000
C1371	C137	0.498600	0.967600	0.654000
C1381	C138	0.443300	0.925200	0.647800
H751	H75	0.410900	0.923900	0.612500
C1391	C139	0.439500	0.887600	0.694100
H761	H76	0.403300	0.861400	0.689200
C1401	C140	0.579100	0.070200	0.546700
C1411	C141	0.513500	0.090400	0.520400
H771	H77	0.517500	0.117300	0.490600
C1421	C142	0.440500	0.071800	0.536800
C1431	C143	0.437000	0.031600	0.578200
H781	H78	0.389700	0.017200	0.587400
C1441	C144	0.503600	0.009600	0.609000
C1451	C145	0.573000	0.030700	0.588300
H791	H79	0.617600	0.016200	0.604500
N51	N5	0.285600	0.195800	0.209800
C1461	C146	0.226800	0.203600	0.251900
H801	H80	0.202000	0.174400	0.268400
C1471	C147	0.281300	0.133400	0.200100
Co81	Co8	0.496890	0.818020	0.938350
O351	O35	0.567000	0.878400	0.982900
O361	O36	0.619800	0.813600	0.941200
O371	O37	0.327000	0.804480	0.885300
O381	O38	0.395000	0.840600	0.964400
O391	O39	0.064300	0.192170	0.282800
O401	O40	0.995500	0.144100	0.352900
C1481	C148	0.620300	0.851400	0.973200
C1491	C149	0.700800	0.872300	0.990300
C1501	C150	0.760600	0.844000	0.986100
H811	H81	0.754800	0.810700	0.969100
C1511	C151	0.833200	0.858800	0.004800
H821	H82	0.874000	0.835800	0.002000
C1521	C152	0.842400	0.907900	0.027300
C1531	C153	0.782400	0.942200	0.027100
H831	H83	0.787900	0.976800	0.039700
C1541	C154	0.711100	0.921500	0.006300
H841	H84	0.669600	0.944000	0.004100
C1551	C155	0.331300	0.830300	0.927700
C1561	C156	0.262000	0.858800	0.963100
C1571	C157	0.264200	0.885300	0.016200
H851	H85	0.310800	0.890100	0.036700
C1581	C158	0.197500	0.907400	0.044100
H861	H86	0.198800	0.922100	0.085000
C1591	C159	0.129700	0.906200	0.008400
C1601	C160	0.129400	0.880400	0.950900
H871	H87	0.084300	0.878000	0.927700
C1611	C161	0.195100	0.857700	0.926300
H881	H88	0.194700	0.841900	0.886000
C1621	C162	0.024300	0.153300	0.297000
C1631	C163	0.015500	0.114000	0.246500
C1641	C164	0.960600	0.073100	0.254700
H891	H89	0.928600	0.073100	0.290400
C1651	C165	0.955400	0.034900	0.211100
H901	H90	0.920100	0.008500	0.218000
C1661	C166	0.001400	0.032400	0.154000
C1671	C167	0.056700	0.074800	0.147800
H911	H91	0.089100	0.076100	0.112500
C1681	C168	0.060500	0.112400	0.194100
H921	H92	0.096700	0.138600	0.189200
C1691	C169	0.920900	0.929800	0.046700
C1701	C170	0.986500	0.909600	0.020400
H931	H93	0.982500	0.882700	0.990600
C1711	C171	0.059500	0.928200	0.036800
C1721	C172	0.063000	0.968400	0.078200
H941	H94	0.110300	0.982800	0.087400
C1731	C173	0.996400	0.990400	0.109000
C1741	C174	0.927000	0.969300	0.088300
H951	H95	0.882400	0.983800	0.104500
N61	N6	0.214400	0.804200	0.709800
C1751	C175	0.273200	0.796400	0.751900
H961	H96	0.298000	0.825600	0.768400
C1761	C176	0.218700	0.866600	0.700100
Co91	Co9	0.003110	0.318020	0.438350
O411	O41	0.933000	0.378400	0.482900
O421	O42	0.880200	0.313600	0.441200
O431	O43	0.173000	0.304480	0.385300
O441	O44	0.105000	0.340600	0.464400
O451	O45	0.435700	0.692170	0.782800
O461	O46	0.504500	0.644100	0.852900
C1771	C177	0.879700	0.351400	0.473200
C1781	C178	0.799200	0.372300	0.490300
C1791	C179	0.739400	0.344000	0.486100
H971	H97	0.745200	0.310700	0.469100
C1801	C180	0.666800	0.358800	0.504800
H981	H98	0.626000	0.335800	0.502000
C1811	C181	0.657600	0.407900	0.527300
C1821	C182	0.717600	0.442200	0.527100
H991	H99	0.712100	0.476800	0.539700
C1831	C183	0.788900	0.421500	0.506300
H1001	H100	0.830400	0.444000	0.504100
C1841	C184	0.168700	0.330300	0.427700
C1851	C185	0.238000	0.358800	0.463100
C1861	C186	0.235800	0.385300	0.516200
H1011	H101	0.189200	0.390100	0.536700
C1871	C187	0.302500	0.407400	0.544100
H1021	H102	0.301200	0.422100	0.585000
C1881	C188	0.370300	0.406200	0.508400
C1891	C189	0.370600	0.380400	0.450900
H1031	H103	0.415700	0.378000	0.427700
C1901	C190	0.304900	0.357700	0.426300
H1041	H104	0.305300	0.341900	0.386000
C1911	C191	0.475700	0.653300	0.797000
C1921	C192	0.484500	0.614000	0.746500
C1931	C193	0.539400	0.573100	0.754700
H1051	H105	0.571400	0.573100	0.790400
C1941	C194	0.544600	0.534900	0.711100
H1061	H106	0.579900	0.508500	0.718000
C1951	C195	0.498600	0.532400	0.654000
C1961	C196	0.443300	0.574800	0.647800
H1071	H107	0.410900	0.576100	0.612500
C1971	C197	0.439500	0.612400	0.694100
H1081	H108	0.403300	0.638600	0.689200
C1981	C198	0.579100	0.429800	0.546700
C1991	C199	0.513500	0.409600	0.520400
H1091	H109	0.517500	0.382700	0.490600
C2001	C200	0.440500	0.428200	0.536800
C2011	C201	0.437000	0.468400	0.578200
H1101	H110	0.389700	0.482800	0.587400
C2021	C202	0.503600	0.490400	0.609000
C2031	C203	0.573000	0.469300	0.588300
H1111	H111	0.617600	0.483800	0.604500
N71	N7	0.285600	0.304200	0.209800
C2041	C204	0.226800	0.296400	0.251900
H1121	H112	0.202000	0.325600	0.268400
C2051	C205	0.281300	0.366600	0.200100
Co101	Co10	0.496890	0.681980	0.938350
O471	O47	0.567000	0.621600	0.982900
O481	O48	0.619800	0.686400	0.941200
O491	O49	0.327000	0.695520	0.885300
O501	O50	0.395000	0.659400	0.964400
O511	O51	0.064300	0.307830	0.282800
O521	O52	0.995500	0.355900	0.352900
C2061	C206	0.620300	0.648600	0.973200
C2071	C207	0.700800	0.627700	0.990300
C2081	C208	0.760600	0.656000	0.986100
H1131	H113	0.754800	0.689300	0.969100
C2091	C209	0.833200	0.641200	0.004800
H1141	H114	0.874000	0.664200	0.002000
C2101	C210	0.842400	0.592100	0.027300
C2111	C211	0.782400	0.557800	0.027100
H1151	H115	0.787900	0.523200	0.039700
C2121	C212	0.711100	0.578500	0.006300
H1161	H116	0.669600	0.556000	0.004100
C2131	C213	0.331300	0.669700	0.927700
C2141	C214	0.262000	0.641200	0.963100
C2151	C215	0.264200	0.614700	0.016200
H1171	H117	0.310800	0.609900	0.036700
C2161	C216	0.197500	0.592600	0.044100
H1181	H118	0.198800	0.577900	0.085000
C2171	C217	0.129700	0.593800	0.008400
C2181	C218	0.129400	0.619600	0.950900
H1191	H119	0.084300	0.622000	0.927700
C2191	C219	0.195100	0.642300	0.926300
H1201	H120	0.194700	0.658100	0.886000
C2201	C220	0.024300	0.346700	0.297000
C2211	C221	0.015500	0.386000	0.246500
C2221	C222	0.960600	0.426900	0.254700
H1211	H121	0.928600	0.426900	0.290400
C2231	C223	0.955400	0.465100	0.211100
H1221	H122	0.920100	0.491500	0.218000
C2241	C224	0.001400	0.467600	0.154000
C2251	C225	0.056700	0.425200	0.147800
H1231	H123	0.089100	0.423900	0.112500
C2261	C226	0.060500	0.387600	0.194100
H1241	H124	0.096700	0.361400	0.189200
C2271	C227	0.920900	0.570200	0.046700
C2281	C228	0.986500	0.590400	0.020400
H1251	H125	0.982500	0.617300	0.990600
C2291	C229	0.059500	0.571800	0.036800
C2301	C230	0.063000	0.531600	0.078200
H1261	H126	0.110300	0.517200	0.087400
C2311	C231	0.996400	0.509600	0.109000
C2321	C232	0.927000	0.530700	0.088300
H1271	H127	0.882400	0.516200	0.104500
N81	N8	0.214400	0.695800	0.709800
C2331	C233	0.273200	0.703600	0.751900
H1281	H128	0.298000	0.674400	0.768400
C2341	C234	0.218700	0.633400	0.700100
Co111	Co11	0.113620	0.250000	0.337740
O531	O53	0.018800	0.250000	0.398900
O541	O54	0.203500	0.250000	0.270300
C2351	C235	0.312000	0.250000	0.186000
Co121	Co12	0.386380	0.750000	0.837740
O551	O55	0.481200	0.750000	0.898900
O561	O56	0.296500	0.750000	0.770300
C2361	C236	0.188000	0.750000	0.686000
