data_DICKEH_freeONLY_PM
_symmetry_space_group_name_H-M	'P1'
_cell_length_a	18.830600
_cell_length_b	18.830600
_cell_length_c	20.968000
_cell_angle_alpha	63.318400
_cell_angle_beta	63.318400
_cell_angle_gamma	60.000000
_symmetry_Int_Tables_number 1

loop_
_symmetry_equiv_pos_as_xyz
'x,y,z'

loop_
_atom_site_label
_atom_site_type_symbol
_atom_site_fract_x
_atom_site_fract_y
_atom_site_fract_z
Cu11	Cu1	0.065860	0.497920	0.938300
Cu21	Cu2	0.497920	0.497920	0.938300
Cu31	Cu3	0.497920	0.065860	0.938300
Cu41	Cu4	0.934140	0.502080	0.061700
Cu51	Cu5	0.502080	0.934140	0.061700
Cu61	Cu6	0.502080	0.502080	0.061700
H11	H1	0.031200	0.534600	0.189900
H21	H2	0.926100	0.499200	0.435900
H31	H3	0.165400	0.465100	0.811300
H41	H4	0.534600	0.244300	0.189900
H51	H5	0.499200	0.138800	0.435900
H61	H6	0.465100	0.558200	0.811300
H71	H7	0.244300	0.031200	0.189900
H81	H8	0.138800	0.926100	0.435900
H91	H9	0.558200	0.165400	0.811300
H101	H10	0.968800	0.755700	0.810100
H111	H11	0.073900	0.861200	0.564100
H121	H12	0.834600	0.441800	0.188700
H131	H13	0.465400	0.968800	0.810100
H141	H14	0.500800	0.073900	0.564100
H151	H15	0.534900	0.834600	0.188700
H161	H16	0.755700	0.465400	0.810100
H171	H17	0.861200	0.500800	0.564100
H181	H18	0.441800	0.534900	0.188700
H191	H19	0.968800	0.465400	0.810100
H201	H20	0.073900	0.500800	0.564100
H211	H21	0.834600	0.534900	0.188700
H221	H22	0.465400	0.755700	0.810100
H231	H23	0.500800	0.861200	0.564100
H241	H24	0.534900	0.441800	0.188700
H251	H25	0.755700	0.968800	0.810100
H261	H26	0.861200	0.073900	0.564100
H271	H27	0.441800	0.834600	0.188700
H281	H28	0.031200	0.244300	0.189900
H291	H29	0.926100	0.138800	0.435900
H301	H30	0.165400	0.558200	0.811300
H311	H31	0.534600	0.031200	0.189900
H321	H32	0.499200	0.926100	0.435900
H331	H33	0.465100	0.165400	0.811300
H341	H34	0.244300	0.534600	0.189900
H351	H35	0.138800	0.499200	0.435900
H361	H36	0.558200	0.465100	0.811300
H371	H37	0.230500	0.531500	0.007500
H381	H38	0.531500	0.230500	0.007500
H391	H39	0.230500	0.230500	0.007500
H401	H40	0.769500	0.769500	0.992500
H411	H41	0.468500	0.769500	0.992500
H421	H42	0.769500	0.468500	0.992500
C11	C1	0.075250	0.526180	0.055680
C21	C2	0.122610	0.532480	0.091740
C31	C3	0.086160	0.534880	0.164760
C41	C4	0.955250	0.501480	0.460380
C51	C5	0.526180	0.342890	0.055680
C61	C6	0.532480	0.253170	0.091740
C71	C7	0.534880	0.214200	0.164760
C81	C8	0.501480	0.082890	0.460380
C91	C9	0.342890	0.075250	0.055680
C101	C10	0.253170	0.122610	0.091740
C111	C11	0.214200	0.086160	0.164760
C121	C12	0.082890	0.955250	0.460380
C131	C13	0.924750	0.657110	0.944320
C141	C14	0.877390	0.746830	0.908260
C151	C15	0.913840	0.785800	0.835240
C161	C16	0.044750	0.917110	0.539620
C171	C17	0.473820	0.924750	0.944320
C181	C18	0.467520	0.877390	0.908260
C191	C19	0.465120	0.913840	0.835240
C201	C20	0.498520	0.044750	0.539620
C211	C21	0.657110	0.473820	0.944320
C221	C22	0.746830	0.467520	0.908260
C231	C23	0.785800	0.465120	0.835240
C241	C24	0.917110	0.498520	0.539620
C251	C25	0.924750	0.473820	0.944320
C261	C26	0.877390	0.467520	0.908260
C271	C27	0.913840	0.465120	0.835240
C281	C28	0.044750	0.498520	0.539620
C291	C29	0.473820	0.657110	0.944320
C301	C30	0.467520	0.746830	0.908260
C311	C31	0.465120	0.785800	0.835240
C321	C32	0.498520	0.917110	0.539620
C331	C33	0.657110	0.924750	0.944320
C341	C34	0.746830	0.877390	0.908260
C351	C35	0.785800	0.913840	0.835240
C361	C36	0.917110	0.044750	0.539620
C371	C37	0.075250	0.342890	0.055680
C381	C38	0.122610	0.253170	0.091740
C391	C39	0.086160	0.214200	0.164760
C401	C40	0.955250	0.082890	0.460380
C411	C41	0.526180	0.075250	0.055680
C421	C42	0.532480	0.122610	0.091740
C431	C43	0.534880	0.086160	0.164760
C441	C44	0.501480	0.955250	0.460380
C451	C45	0.342890	0.526180	0.055680
C461	C46	0.253170	0.532480	0.091740
C471	C47	0.214200	0.534880	0.164760
C481	C48	0.082890	0.501480	0.460380
C491	C49	0.205510	0.532060	0.056910
C501	C50	0.130580	0.537750	0.201090
C511	C51	0.094790	0.532590	0.277830
C521	C52	0.070210	0.515390	0.344190
C531	C53	0.034800	0.507610	0.422790
C541	C54	0.532060	0.205520	0.056900
C551	C55	0.537750	0.130580	0.201090
C561	C56	0.532590	0.094790	0.277830
C571	C57	0.515390	0.070210	0.344190
C581	C58	0.507610	0.034800	0.422790
C591	C59	0.205520	0.205520	0.056900
C601	C60	0.130580	0.130580	0.201090
C611	C61	0.094790	0.094790	0.277830
C621	C62	0.070210	0.070210	0.344190
C631	C63	0.034800	0.034800	0.422790
C641	C64	0.794490	0.794480	0.943090
C651	C65	0.869420	0.869420	0.798910
C661	C66	0.905210	0.905210	0.722170
C671	C67	0.929790	0.929790	0.655810
C681	C68	0.965200	0.965200	0.577210
C691	C69	0.467940	0.794490	0.943090
C701	C70	0.462250	0.869420	0.798910
C711	C71	0.467410	0.905210	0.722170
C721	C72	0.484610	0.929790	0.655810
C731	C73	0.492390	0.965200	0.577210
C741	C74	0.794480	0.467940	0.943090
C751	C75	0.869420	0.462250	0.798910
C761	C76	0.905210	0.467410	0.722170
C771	C77	0.929790	0.484610	0.655810
C781	C78	0.965200	0.492390	0.577210
O11	O1	0.004120	0.524070	0.092610
O21	O2	0.114530	0.519870	0.990220
O31	O3	0.524070	0.379200	0.092610
O41	O4	0.519870	0.375380	0.990220
O51	O5	0.379200	0.004120	0.092610
O61	O6	0.375380	0.114530	0.990220
O71	O7	0.995880	0.620800	0.907390
O81	O8	0.885470	0.624620	0.009780
O91	O9	0.475930	0.995880	0.907390
O101	O10	0.480130	0.885470	0.009780
O111	O11	0.620800	0.475930	0.907390
O121	O12	0.624620	0.480130	0.009780
O131	O13	0.995880	0.475930	0.907390
O141	O14	0.885470	0.480130	0.009780
O151	O15	0.475930	0.620800	0.907390
O161	O16	0.480130	0.624620	0.009780
O171	O17	0.620800	0.995880	0.907390
O181	O18	0.624620	0.885470	0.009780
O191	O19	0.004120	0.379200	0.092610
O201	O20	0.114530	0.375380	0.990220
O211	O21	0.524070	0.004120	0.092610
O221	O22	0.519870	0.114530	0.990220
O231	O23	0.379200	0.524070	0.092610
O241	O24	0.375380	0.519870	0.990220
O251	O25	0.161320	0.502800	0.833080
O261	O26	0.502800	0.502800	0.833080
O271	O27	0.502800	0.161320	0.833080
O281	O28	0.838680	0.497200	0.166920
O291	O29	0.497200	0.838680	0.166920
O301	O30	0.497200	0.497200	0.166920
