data_DICVAO_freeONLY_PM
_symmetry_space_group_name_H-M	'P1'
_cell_length_a	8.188100
_cell_length_b	16.588800
_cell_length_c	26.736200
_cell_angle_alpha	90.000000
_cell_angle_beta	90.000000
_cell_angle_gamma	100.939000
_symmetry_Int_Tables_number 1

loop_
_symmetry_equiv_pos_as_xyz
'x,y,z'

loop_
_atom_site_label
_atom_site_type_symbol
_atom_site_fract_x
_atom_site_fract_y
_atom_site_fract_z
Nd11	Nd1	0.785110	0.769640	0.744100
Nd21	Nd2	0.714890	0.230360	0.244100
Nd31	Nd3	0.214890	0.230360	0.255900
Nd41	Nd4	0.285110	0.769640	0.755900
H11	H1	0.103000	0.579000	0.814000
H21	H2	0.816400	0.468900	0.782800
H31	H3	0.987700	0.485200	0.754600
H41	H4	0.113400	0.425900	0.820000
H51	H5	0.956400	0.362600	0.802300
H61	H6	0.920600	0.484500	0.927900
H71	H7	0.091100	0.502500	0.899300
H81	H8	0.794200	0.548900	0.866000
H91	H9	0.953900	0.610200	0.883700
H101	H10	0.503000	0.993000	0.782000
H111	H11	0.684100	0.996000	0.873400
H121	H12	0.500000	0.949300	0.866400
H131	H13	0.507200	0.080200	0.905600
H141	H14	0.407600	0.074400	0.855100
H151	H15	0.570800	0.151400	0.778100
H161	H16	0.754800	0.195000	0.788800
H171	H17	0.742200	0.068900	0.745300
H181	H18	0.840000	0.070200	0.795800
H191	H19	0.361000	0.322000	0.086000
H201	H20	0.713200	0.336700	0.086000
H211	H21	0.622900	0.411200	0.094200
H221	H22	0.350900	0.179600	0.078100
H231	H23	0.546000	0.194000	0.077600
H241	H24	0.347800	0.246600	0.001600
H251	H25	0.455100	0.178200	0.995000
H261	H26	0.711000	0.406700	0.011200
H271	H27	0.516500	0.396700	0.013600
H281	H28	0.397000	0.421000	0.314000
H291	H29	0.683600	0.531100	0.282800
H301	H30	0.512300	0.514800	0.254600
H311	H31	0.386600	0.574100	0.320000
H321	H32	0.543600	0.637400	0.302300
H331	H33	0.579400	0.515500	0.427900
H341	H34	0.408900	0.497500	0.399300
H351	H35	0.705800	0.451100	0.366000
H361	H36	0.546100	0.389800	0.383700
H371	H37	0.997000	0.007000	0.282000
H381	H38	0.815900	0.004000	0.373400
H391	H39	0.000000	0.050700	0.366400
H401	H40	0.992800	0.919800	0.405600
H411	H41	0.092400	0.925600	0.355100
H421	H42	0.929200	0.848600	0.278100
H431	H43	0.745200	0.805000	0.288800
H441	H44	0.757800	0.931100	0.245300
H451	H45	0.660000	0.929800	0.295800
H461	H46	0.139000	0.678000	0.586000
H471	H47	0.786800	0.663300	0.586000
H481	H48	0.877100	0.588800	0.594200
H491	H49	0.149100	0.820400	0.578100
H501	H50	0.954000	0.806000	0.577600
H511	H51	0.152200	0.753400	0.501600
H521	H52	0.044900	0.821800	0.495000
H531	H53	0.789000	0.593300	0.511200
H541	H54	0.983500	0.603300	0.513600
H551	H55	0.897000	0.421000	0.186000
H561	H56	0.183600	0.531100	0.217200
H571	H57	0.012300	0.514800	0.245400
H581	H58	0.886600	0.574100	0.180000
H591	H59	0.043600	0.637400	0.197700
H601	H60	0.079400	0.515500	0.072100
H611	H61	0.908900	0.497500	0.100700
H621	H62	0.205800	0.451100	0.134000
H631	H63	0.046100	0.389800	0.116300
H641	H64	0.497000	0.007000	0.218000
H651	H65	0.315900	0.004000	0.126600
H661	H66	0.500000	0.050700	0.133600
H671	H67	0.492800	0.919800	0.094400
H681	H68	0.592400	0.925600	0.144900
H691	H69	0.429200	0.848600	0.221900
H701	H70	0.245200	0.805000	0.211200
H711	H71	0.257800	0.931100	0.254700
H721	H72	0.160000	0.929800	0.204200
H731	H73	0.639000	0.678000	0.914000
H741	H74	0.286800	0.663300	0.914000
H751	H75	0.377100	0.588800	0.905800
H761	H76	0.649100	0.820400	0.921900
H771	H77	0.454000	0.806000	0.922400
H781	H78	0.652200	0.753400	0.998400
H791	H79	0.544900	0.821800	0.005000
H801	H80	0.289000	0.593300	0.988800
H811	H81	0.483500	0.603300	0.986400
H821	H82	0.603000	0.579000	0.686000
H831	H83	0.316400	0.468900	0.717200
H841	H84	0.487700	0.485200	0.745400
H851	H85	0.613400	0.425900	0.680000
H861	H86	0.456400	0.362600	0.697700
H871	H87	0.420600	0.484500	0.572100
H881	H88	0.591100	0.502500	0.600700
H891	H89	0.294200	0.548900	0.634000
H901	H90	0.453900	0.610200	0.616300
H911	H91	0.003000	0.993000	0.718000
H921	H92	0.184100	0.996000	0.626600
H931	H93	0.000000	0.949300	0.633600
H941	H94	0.007200	0.080200	0.594400
H951	H95	0.907600	0.074400	0.644900
H961	H96	0.070800	0.151400	0.721900
H971	H97	0.254800	0.195000	0.711200
H981	H98	0.242200	0.068900	0.754700
H991	H99	0.340000	0.070200	0.704200
H1001	H100	0.861000	0.322000	0.414000
H1011	H101	0.213200	0.336700	0.414000
H1021	H102	0.122900	0.411200	0.405800
H1031	H103	0.850900	0.179600	0.421900
H1041	H104	0.046000	0.194000	0.422400
H1051	H105	0.847800	0.246600	0.498400
H1061	H106	0.955100	0.178200	0.505000
H1071	H107	0.211000	0.406700	0.488800
H1081	H108	0.016500	0.396700	0.486400
C11	C1	0.922200	0.630600	0.785100
C21	C2	0.660100	0.916000	0.784200
C31	C3	0.981700	0.564400	0.812600
C41	C4	0.936100	0.482500	0.787400
C51	C5	0.992900	0.415400	0.818400
C61	C6	0.971400	0.489700	0.895000
C71	C7	0.914800	0.558500	0.866600
C81	C8	0.822600	0.346000	0.887700
C91	C9	0.610000	0.992100	0.798600
C101	C10	0.580800	0.996900	0.855800
C111	C11	0.516900	0.076300	0.869600
C121	C12	0.676400	0.218900	0.878500
C131	C13	0.449600	0.282900	0.152300
C141	C14	0.670300	0.147500	0.797000
C151	C15	0.731200	0.069800	0.781400
C161	C16	0.662300	0.287800	0.949800
C171	C17	0.458200	0.299200	0.095400
C181	C18	0.615200	0.358700	0.077400
C191	C19	0.450700	0.217600	0.068100
C201	C20	0.450100	0.229700	0.011600
C211	C21	0.609700	0.370800	0.022100
C221	C22	0.577800	0.369400	0.285100
C231	C23	0.839900	0.084000	0.284200
C241	C24	0.518300	0.435600	0.312600
C251	C25	0.563900	0.517500	0.287400
C261	C26	0.507100	0.584600	0.318400
C271	C27	0.528600	0.510300	0.395000
C281	C28	0.585200	0.441500	0.366600
C291	C29	0.677400	0.654000	0.387700
C301	C30	0.890000	0.007900	0.298600
C311	C31	0.919200	0.003100	0.355800
C321	C32	0.983100	0.923700	0.369600
C331	C33	0.823600	0.781100	0.378500
C341	C34	0.050400	0.717100	0.652300
C351	C35	0.829700	0.852500	0.297000
C361	C36	0.768800	0.930200	0.281400
C371	C37	0.837700	0.712200	0.449800
C381	C38	0.041800	0.700800	0.595400
C391	C39	0.884800	0.641300	0.577400
C401	C40	0.049300	0.782400	0.568100
C411	C41	0.049900	0.770300	0.511600
C421	C42	0.890300	0.629200	0.522100
C431	C43	0.077800	0.369400	0.214900
C441	C44	0.339900	0.084000	0.215800
C451	C45	0.018300	0.435600	0.187400
C461	C46	0.063900	0.517500	0.212600
C471	C47	0.007100	0.584600	0.181600
C481	C48	0.028600	0.510300	0.105000
C491	C49	0.085200	0.441500	0.133400
C501	C50	0.177400	0.654000	0.112300
C511	C51	0.390000	0.007900	0.201400
C521	C52	0.419200	0.003100	0.144200
C531	C53	0.483100	0.923700	0.130400
C541	C54	0.323600	0.781100	0.121500
C551	C55	0.550400	0.717100	0.847700
C561	C56	0.329700	0.852500	0.203000
C571	C57	0.268800	0.930200	0.218600
C581	C58	0.337700	0.712200	0.050200
C591	C59	0.541800	0.700800	0.904600
C601	C60	0.384800	0.641300	0.922600
C611	C61	0.549300	0.782400	0.931900
C621	C62	0.549900	0.770300	0.988400
C631	C63	0.390300	0.629200	0.977900
C641	C64	0.422200	0.630600	0.714900
C651	C65	0.160100	0.916000	0.715800
C661	C66	0.481700	0.564400	0.687400
C671	C67	0.436100	0.482500	0.712600
C681	C68	0.492900	0.415400	0.681600
C691	C69	0.471400	0.489700	0.605000
C701	C70	0.414800	0.558500	0.633400
C711	C71	0.322600	0.346000	0.612300
C721	C72	0.110000	0.992100	0.701400
C731	C73	0.080800	0.996900	0.644200
C741	C74	0.016900	0.076300	0.630400
C751	C75	0.176400	0.218900	0.621500
C761	C76	0.949600	0.282900	0.347700
C771	C77	0.170300	0.147500	0.703000
C781	C78	0.231200	0.069800	0.718600
C791	C79	0.162300	0.287800	0.550200
C801	C80	0.958200	0.299200	0.404600
C811	C81	0.115200	0.358700	0.422600
C821	C82	0.950700	0.217600	0.431900
C831	C83	0.950100	0.229700	0.488400
C841	C84	0.109700	0.370800	0.477900
N11	N1	0.925600	0.413000	0.868400
N21	N2	0.781300	0.282400	0.857400
N31	N3	0.767900	0.352800	0.933500
N41	N4	0.633200	0.148700	0.850500
N51	N5	0.610900	0.217500	0.923900
N61	N6	0.592300	0.291900	0.996600
N71	N7	0.574400	0.587000	0.368400
N81	N8	0.718700	0.717600	0.357400
N91	N9	0.732100	0.647200	0.433500
N101	N10	0.866800	0.851300	0.350500
N111	N11	0.889100	0.782500	0.423900
N121	N12	0.907700	0.708100	0.496600
N131	N13	0.074400	0.587000	0.131600
N141	N14	0.218700	0.717600	0.142600
N151	N15	0.232100	0.647200	0.066500
N161	N16	0.366800	0.851300	0.149500
N171	N17	0.389100	0.782500	0.076100
N181	N18	0.407700	0.708100	0.003400
N191	N19	0.425600	0.413000	0.631600
N201	N20	0.281300	0.282400	0.642600
N211	N21	0.267900	0.352800	0.566500
N221	N22	0.133200	0.148700	0.649500
N231	N23	0.110900	0.217500	0.576100
N241	N24	0.092300	0.291900	0.503400
O11	O1	0.779000	0.619100	0.765000
O21	O2	0.012700	0.704600	0.784500
O31	O3	0.810500	0.909700	0.787700
O41	O4	0.587200	0.291200	0.175500
O51	O5	0.557500	0.855600	0.766300
O61	O6	0.309000	0.260000	0.170800
O71	O7	0.729400	0.846600	0.666600
O81	O8	0.721000	0.380900	0.265000
O91	O9	0.487300	0.295400	0.284500
O101	O10	0.689500	0.090300	0.287700
O111	O11	0.912800	0.708800	0.675500
O121	O12	0.942500	0.144400	0.266300
O131	O13	0.191000	0.740000	0.670800
O141	O14	0.770600	0.153400	0.166600
O151	O15	0.221000	0.380900	0.235000
O161	O16	0.987300	0.295400	0.215500
O171	O17	0.189500	0.090300	0.212300
O181	O18	0.412800	0.708800	0.824500
O191	O19	0.442500	0.144400	0.233700
O201	O20	0.691000	0.740000	0.829200
O211	O21	0.270600	0.153400	0.333400
O221	O22	0.279000	0.619100	0.735000
O231	O23	0.512700	0.704600	0.715500
O241	O24	0.310500	0.909700	0.712300
O251	O25	0.087200	0.291200	0.324500
O261	O26	0.057500	0.855600	0.733700
O271	O27	0.809000	0.260000	0.329200
O281	O28	0.229400	0.846600	0.833400
