data_DICVES_freeONLY_PM
_symmetry_space_group_name_H-M	'P1'
_cell_length_a	8.240200
_cell_length_b	16.575800
_cell_length_c	26.692000
_cell_angle_alpha	90.000000
_cell_angle_beta	90.000000
_cell_angle_gamma	100.848000
_symmetry_Int_Tables_number 1

loop_
_symmetry_equiv_pos_as_xyz
'x,y,z'

loop_
_atom_site_label
_atom_site_type_symbol
_atom_site_fract_x
_atom_site_fract_y
_atom_site_fract_z
Pr11	Pr1	0.215130	0.731970	0.743850
Pr21	Pr2	0.284870	0.268020	0.243850
Pr31	Pr3	0.784870	0.268020	0.256150
Pr41	Pr4	0.715130	0.731970	0.756150
H11	H1	0.501000	0.505000	0.780800
H21	H2	0.258300	0.431600	0.745400
H31	H3	0.165900	0.431800	0.796900
H41	H4	0.427900	0.347900	0.777500
H51	H5	0.244500	0.305700	0.788600
H61	H6	0.496400	0.420500	0.904000
H71	H7	0.592200	0.424300	0.852900
H81	H8	0.321800	0.504100	0.871700
H91	H9	0.505500	0.549600	0.864500
H101	H10	0.886000	0.078100	0.818700
H111	H11	0.044200	0.140700	0.802100
H121	H12	0.009600	0.017800	0.754200
H131	H13	0.180500	0.034500	0.782100
H141	H14	0.896000	0.923000	0.814900
H151	H15	0.202700	0.954000	0.866200
H161	H16	0.045100	0.892300	0.884100
H171	H17	0.075200	0.017800	0.928200
H181	H18	0.906200	0.999200	0.899300
H191	H19	0.287000	0.093700	0.010900
H201	H20	0.479800	0.101600	0.012300
H211	H21	0.290100	0.161200	0.087100
H221	H22	0.381700	0.087000	0.093900
H231	H23	0.651000	0.318200	0.078100
H241	H24	0.457200	0.304900	0.077200
H251	H25	0.653400	0.250100	0.001600
H261	H26	0.551800	0.320500	0.994600
H271	H27	0.639000	0.175000	0.085800
H281	H28	0.999000	0.495000	0.280800
H291	H29	0.241700	0.568400	0.245400
H301	H30	0.334100	0.568200	0.296900
H311	H31	0.072100	0.652100	0.277500
H321	H32	0.255500	0.694300	0.288600
H331	H33	0.003600	0.579500	0.404000
H341	H34	0.907800	0.575700	0.352900
H351	H35	0.178200	0.495900	0.371700
H361	H36	0.994500	0.450400	0.364500
H371	H37	0.614000	0.921900	0.318700
H381	H38	0.455800	0.859300	0.302100
H391	H39	0.490400	0.982200	0.254200
H401	H40	0.319500	0.965500	0.282100
H411	H41	0.604000	0.077000	0.314900
H421	H42	0.297300	0.046000	0.366200
H431	H43	0.454900	0.107700	0.384100
H441	H44	0.424800	0.982200	0.428200
H451	H45	0.593800	0.000800	0.399300
H461	H46	0.213000	0.906300	0.510900
H471	H47	0.020200	0.898400	0.512300
H481	H48	0.209900	0.838800	0.587100
H491	H49	0.118300	0.913000	0.593900
H501	H50	0.849000	0.681800	0.578100
H511	H51	0.042800	0.695100	0.577200
H521	H52	0.846600	0.749900	0.501600
H531	H53	0.948200	0.679500	0.494600
H541	H54	0.861000	0.825000	0.585800
H551	H55	0.499000	0.495000	0.219200
H561	H56	0.741700	0.568400	0.254600
H571	H57	0.834100	0.568200	0.203100
H581	H58	0.572100	0.652100	0.222500
H591	H59	0.755500	0.694300	0.211400
H601	H60	0.503600	0.579500	0.096000
H611	H61	0.407800	0.575700	0.147100
H621	H62	0.678200	0.495900	0.128300
H631	H63	0.494500	0.450400	0.135500
H641	H64	0.114000	0.921900	0.181300
H651	H65	0.955800	0.859300	0.197900
H661	H66	0.990400	0.982200	0.245800
H671	H67	0.819500	0.965500	0.217900
H681	H68	0.104000	0.077000	0.185100
H691	H69	0.797300	0.046000	0.133800
H701	H70	0.954900	0.107700	0.115900
H711	H71	0.924800	0.982200	0.071800
H721	H72	0.093800	0.000800	0.100700
H731	H73	0.713000	0.906300	0.989100
H741	H74	0.520200	0.898400	0.987700
H751	H75	0.709900	0.838800	0.912900
H761	H76	0.618300	0.913000	0.906100
H771	H77	0.349000	0.681800	0.921900
H781	H78	0.542800	0.695100	0.922800
H791	H79	0.346600	0.749900	0.998400
H801	H80	0.448200	0.679500	0.005400
H811	H81	0.361000	0.825000	0.914200
H821	H82	0.001000	0.505000	0.719200
H831	H83	0.758300	0.431600	0.754600
H841	H84	0.665900	0.431800	0.703100
H851	H85	0.927900	0.347900	0.722500
H861	H86	0.744500	0.305700	0.711400
H871	H87	0.996400	0.420500	0.596000
H881	H88	0.092200	0.424300	0.647100
H891	H89	0.821800	0.504100	0.628300
H901	H90	0.005500	0.549600	0.635500
H911	H91	0.386000	0.078100	0.681300
H921	H92	0.544200	0.140700	0.697900
H931	H93	0.509600	0.017800	0.745800
H941	H94	0.680500	0.034500	0.717900
H951	H95	0.396000	0.923000	0.685100
H961	H96	0.702700	0.954000	0.633800
H971	H97	0.545100	0.892300	0.615900
H981	H98	0.575200	0.017800	0.571800
H991	H99	0.406200	0.999200	0.600700
H1001	H100	0.787000	0.093700	0.489100
H1011	H101	0.979800	0.101600	0.487700
H1021	H102	0.790100	0.161200	0.412900
H1031	H103	0.881700	0.087000	0.406100
H1041	H104	0.151000	0.318200	0.421900
H1051	H105	0.957200	0.304900	0.422800
H1061	H106	0.153400	0.250100	0.498400
H1071	H107	0.051800	0.320500	0.505400
H1081	H108	0.139000	0.175000	0.414200
C11	C1	0.396300	0.506200	0.797730
C21	C2	0.272200	0.430700	0.781500
C31	C3	0.329900	0.352700	0.796540
C41	C4	0.484800	0.423700	0.867900
C51	C5	0.424300	0.502400	0.854150
C61	C6	0.324200	0.282800	0.878000
C71	C7	0.176300	0.154800	0.887250
C81	C8	0.340900	0.212400	0.949230
C91	C9	0.339500	0.585500	0.783560
C101	C10	0.005800	0.087700	0.817810
C111	C11	0.061900	0.020900	0.786910
C121	C12	0.016500	0.937700	0.813300
C131	C13	0.082900	0.943900	0.866890
C141	C14	0.025200	0.012500	0.895130
C151	C15	0.389300	0.128600	0.021430
C161	C16	0.387400	0.139800	0.077590
C171	C17	0.551400	0.280800	0.067960
C181	C18	0.553100	0.268600	0.011260
C191	C19	0.547100	0.215600	0.151470
C201	C20	0.079300	0.871000	0.785620
C211	C21	0.541400	0.198500	0.095000
C221	C22	0.103700	0.493800	0.297730
C231	C23	0.227800	0.569300	0.281500
C241	C24	0.170100	0.647300	0.296540
C251	C25	0.015200	0.576300	0.367900
C261	C26	0.075700	0.497600	0.354150
C271	C27	0.175800	0.717200	0.378000
C281	C28	0.323700	0.845200	0.387250
C291	C29	0.159100	0.787600	0.449230
C301	C30	0.160500	0.414500	0.283560
C311	C31	0.494200	0.912300	0.317810
C321	C32	0.438100	0.979100	0.286910
C331	C33	0.483500	0.062300	0.313300
C341	C34	0.417100	0.056100	0.366890
C351	C35	0.474800	0.987500	0.395130
C361	C36	0.110700	0.871400	0.521430
C371	C37	0.112600	0.860200	0.577590
C381	C38	0.948600	0.719200	0.567960
C391	C39	0.946900	0.731400	0.511260
C401	C40	0.952900	0.784400	0.651470
C411	C41	0.420700	0.129000	0.285620
C421	C42	0.958600	0.801500	0.595000
C431	C43	0.603700	0.493800	0.202270
C441	C44	0.727800	0.569300	0.218500
C451	C45	0.670100	0.647300	0.203460
C461	C46	0.515200	0.576300	0.132100
C471	C47	0.575700	0.497600	0.145850
C481	C48	0.675800	0.717200	0.122000
C491	C49	0.823700	0.845200	0.112750
C501	C50	0.659100	0.787600	0.050770
C511	C51	0.660500	0.414500	0.216440
C521	C52	0.994200	0.912300	0.182190
C531	C53	0.938100	0.979100	0.213090
C541	C54	0.983500	0.062300	0.186700
C551	C55	0.917100	0.056100	0.133110
C561	C56	0.974800	0.987500	0.104870
C571	C57	0.610700	0.871400	0.978570
C581	C58	0.612600	0.860200	0.922410
C591	C59	0.448600	0.719200	0.932040
C601	C60	0.446900	0.731400	0.988740
C611	C61	0.452900	0.784400	0.848530
C621	C62	0.920700	0.129000	0.214380
C631	C63	0.458600	0.801500	0.905000
C641	C64	0.896300	0.506200	0.702270
C651	C65	0.772200	0.430700	0.718500
C661	C66	0.829900	0.352700	0.703460
C671	C67	0.984800	0.423700	0.632100
C681	C68	0.924300	0.502400	0.645850
C691	C69	0.824200	0.282800	0.622000
C701	C70	0.676300	0.154800	0.612750
C711	C71	0.840900	0.212400	0.550770
C721	C72	0.839500	0.585500	0.716440
C731	C73	0.505800	0.087700	0.682190
C741	C74	0.561900	0.020900	0.713090
C751	C75	0.516500	0.937700	0.686700
C761	C76	0.582900	0.943900	0.633110
C771	C77	0.525200	0.012500	0.604870
C781	C78	0.889300	0.128600	0.478570
C791	C79	0.887400	0.139800	0.422410
C801	C80	0.051400	0.280800	0.432040
C811	C81	0.053100	0.268600	0.488740
C821	C82	0.047100	0.215600	0.348530
C831	C83	0.579300	0.871000	0.714380
C841	C84	0.041400	0.198500	0.405000
N11	N1	0.367300	0.352000	0.850030
N21	N2	0.218300	0.220300	0.856870
N31	N3	0.391000	0.282800	0.923380
N41	N4	0.231500	0.147500	0.933870
N51	N5	0.069300	0.089300	0.868610
N61	N6	0.408400	0.207800	0.995640
N71	N7	0.132700	0.648000	0.350030
N81	N8	0.281700	0.779700	0.356870
N91	N9	0.109000	0.717200	0.423380
N101	N10	0.268500	0.852500	0.433870
N111	N11	0.430700	0.910700	0.368610
N121	N12	0.091600	0.792200	0.495640
N131	N13	0.632700	0.648000	0.149970
N141	N14	0.781700	0.779700	0.143130
N151	N15	0.609000	0.717200	0.076620
N161	N16	0.768500	0.852500	0.066130
N171	N17	0.930700	0.910700	0.131390
N181	N18	0.591600	0.792200	0.004360
N191	N19	0.867300	0.352000	0.649970
N201	N20	0.718300	0.220300	0.643130
N211	N21	0.891000	0.282800	0.576620
N221	N22	0.731500	0.147500	0.566130
N231	N23	0.569300	0.089300	0.631390
N241	N24	0.908400	0.207800	0.504360
O11	O1	0.442800	0.645600	0.766590
O21	O2	0.190800	0.591200	0.787530
O31	O3	0.987800	0.798400	0.784720
O41	O4	0.273400	0.654800	0.665490
O51	O5	0.414100	0.208300	0.174940
O61	O6	0.218300	0.883500	0.765950
O71	O7	0.690400	0.238900	0.169970
O81	O8	0.057200	0.354400	0.266590
O91	O9	0.309200	0.408800	0.287530
O101	O10	0.512200	0.201600	0.284720
O111	O11	0.226600	0.345200	0.165490
O121	O12	0.085900	0.791700	0.674940
O131	O13	0.281700	0.116500	0.265950
O141	O14	0.809600	0.761100	0.669970
O151	O15	0.557200	0.354400	0.233410
O161	O16	0.809200	0.408800	0.212470
O171	O17	0.012200	0.201600	0.215280
O181	O18	0.726600	0.345200	0.334510
O191	O19	0.585900	0.791700	0.825060
O201	O20	0.781700	0.116500	0.234050
O211	O21	0.309600	0.761100	0.830030
O221	O22	0.942800	0.645600	0.733410
O231	O23	0.690800	0.591200	0.712470
O241	O24	0.487800	0.798400	0.715280
O251	O25	0.773400	0.654800	0.834510
O261	O26	0.914100	0.208300	0.325060
O271	O27	0.718300	0.883500	0.734050
O281	O28	0.190400	0.238900	0.330030
