data_DIDBAV_freeONLY_PM
_symmetry_space_group_name_H-M	'P1'
_cell_length_a	12.695000
_cell_length_b	22.690400
_cell_length_c	22.690400
_cell_angle_alpha	90.000000
_cell_angle_beta	90.000000
_cell_angle_gamma	90.000000
_symmetry_Int_Tables_number 1

loop_
_symmetry_equiv_pos_as_xyz
'x,y,z'

loop_
_atom_site_label
_atom_site_type_symbol
_atom_site_fract_x
_atom_site_fract_y
_atom_site_fract_z
Co11	Co1	0.746650	0.767920	0.759140
Co21	Co2	0.746650	0.232080	0.240860
Co31	Co3	0.253350	0.732080	0.259140
Co41	Co4	0.253350	0.267920	0.740860
H11	H1	0.461300	0.213600	0.708400
H21	H2	0.560600	0.127500	0.722500
H31	H3	0.334400	0.070600	0.834500
H41	H4	0.238700	0.155400	0.812700
H51	H5	0.663600	0.067000	0.775400
H61	H6	0.751200	0.978000	0.775300
H71	H7	0.481700	0.892100	0.807600
H81	H8	0.389700	0.982500	0.808800
H91	H9	0.307300	0.749400	0.389600
H101	H10	0.223000	0.759500	0.478700
H111	H11	0.948800	0.775900	0.392500
H121	H12	0.040700	0.765300	0.303600
H131	H13	0.112700	0.718900	0.549800
H141	H14	0.020000	0.722800	0.638000
H151	H15	0.804500	0.829400	0.560700
H161	H16	0.899600	0.825000	0.471800
H171	H17	0.461300	0.786400	0.291600
H181	H18	0.560600	0.872500	0.277500
H191	H19	0.334400	0.929400	0.165500
H201	H20	0.238700	0.844600	0.187300
H211	H21	0.663600	0.933000	0.224600
H221	H22	0.751200	0.022000	0.224700
H231	H23	0.481700	0.107900	0.192400
H241	H24	0.389700	0.017500	0.191200
H251	H25	0.307300	0.250600	0.610400
H261	H26	0.223000	0.240500	0.521300
H271	H27	0.948800	0.224100	0.607500
H281	H28	0.040700	0.234700	0.696400
H291	H29	0.112700	0.281100	0.450200
H301	H30	0.020000	0.277200	0.362000
H311	H31	0.804500	0.170600	0.439300
H321	H32	0.899600	0.175000	0.528200
H331	H33	0.538700	0.286400	0.208400
H341	H34	0.439400	0.372500	0.222500
H351	H35	0.665600	0.429400	0.334500
H361	H36	0.761300	0.344600	0.312700
H371	H37	0.336400	0.433000	0.275400
H381	H38	0.248800	0.522000	0.275300
H391	H39	0.518300	0.607900	0.307600
H401	H40	0.610300	0.517500	0.308800
H411	H41	0.692700	0.750600	0.889600
H421	H42	0.777000	0.740500	0.978700
H431	H43	0.051200	0.724100	0.892500
H441	H44	0.959300	0.734700	0.803600
H451	H45	0.887300	0.781100	0.049800
H461	H46	0.980000	0.777200	0.138000
H471	H47	0.195500	0.670600	0.060700
H481	H48	0.100400	0.675000	0.971800
H491	H49	0.538700	0.713600	0.791600
H501	H50	0.439400	0.627500	0.777500
H511	H51	0.665600	0.570600	0.665500
H521	H52	0.761300	0.655400	0.687300
H531	H53	0.336400	0.567000	0.724600
H541	H54	0.248800	0.478000	0.724700
H551	H55	0.518300	0.392100	0.692400
H561	H56	0.610300	0.482500	0.691200
H571	H57	0.692700	0.249400	0.110400
H581	H58	0.777000	0.259500	0.021300
H591	H59	0.051200	0.275900	0.107500
H601	H60	0.959300	0.265300	0.196400
H611	H61	0.887300	0.218900	0.950200
H621	H62	0.980000	0.222800	0.862000
H631	H63	0.195500	0.329400	0.939300
H641	H64	0.100400	0.325000	0.028200
C11	C1	0.433200	0.183500	0.732900
C21	C2	0.495000	0.132500	0.742100
C31	C3	0.457000	0.090200	0.780500
C41	C4	0.361500	0.098800	0.807400
C51	C5	0.305100	0.149700	0.794100
C61	C6	0.516200	0.033900	0.787400
C71	C7	0.625000	0.031500	0.780700
C81	C8	0.677300	0.978800	0.781600
C91	C9	0.623900	0.927200	0.791600
C101	C10	0.518400	0.927900	0.800800
C111	C11	0.463000	0.981700	0.800300
C121	C12	0.680200	0.867300	0.785500
C131	C13	0.233000	0.754000	0.390000
C141	C14	0.183100	0.760100	0.443300
C151	C15	0.075200	0.767000	0.445700
C161	C16	0.022800	0.769700	0.393100
C171	C17	0.078200	0.763200	0.339800
C181	C18	0.015600	0.772400	0.501700
C191	C19	0.049900	0.741500	0.552000
C201	C20	0.994600	0.743400	0.604400
C211	C21	0.901900	0.775300	0.607600
C221	C22	0.867000	0.806500	0.558400
C231	C23	0.924500	0.804200	0.505400
C241	C24	0.837800	0.774700	0.662800
C251	C25	0.433200	0.816500	0.267100
C261	C26	0.495000	0.867500	0.257900
C271	C27	0.457000	0.909800	0.219500
C281	C28	0.361500	0.901200	0.192600
C291	C29	0.305100	0.850300	0.205900
C301	C30	0.516200	0.966100	0.212600
C311	C31	0.625000	0.968500	0.219300
C321	C32	0.677300	0.021200	0.218400
C331	C33	0.623900	0.072800	0.208400
C341	C34	0.518400	0.072100	0.199200
C351	C35	0.463000	0.018300	0.199700
C361	C36	0.680200	0.132700	0.214500
C371	C37	0.233000	0.246000	0.610000
C381	C38	0.183100	0.239900	0.556700
C391	C39	0.075200	0.233000	0.554300
C401	C40	0.022800	0.230300	0.606900
C411	C41	0.078200	0.236800	0.660200
C421	C42	0.015600	0.227600	0.498300
C431	C43	0.049900	0.258500	0.448000
C441	C44	0.994600	0.256600	0.395600
C451	C45	0.901900	0.224700	0.392400
C461	C46	0.867000	0.193500	0.441600
C471	C47	0.924500	0.195800	0.494600
C481	C48	0.837800	0.225300	0.337200
C491	C49	0.566800	0.316500	0.232900
C501	C50	0.505000	0.367500	0.242100
C511	C51	0.543000	0.409800	0.280500
C521	C52	0.638500	0.401200	0.307400
C531	C53	0.694900	0.350300	0.294100
C541	C54	0.483800	0.466100	0.287400
C551	C55	0.375000	0.468500	0.280700
C561	C56	0.322700	0.521200	0.281600
C571	C57	0.376100	0.572800	0.291600
C581	C58	0.481600	0.572100	0.300800
C591	C59	0.537000	0.518300	0.300300
C601	C60	0.319800	0.632700	0.285500
C611	C61	0.767000	0.746000	0.890000
C621	C62	0.816900	0.739900	0.943300
C631	C63	0.924800	0.733000	0.945700
C641	C64	0.977200	0.730300	0.893100
C651	C65	0.921800	0.736800	0.839800
C661	C66	0.984400	0.727600	0.001700
C671	C67	0.950100	0.758500	0.052000
C681	C68	0.005400	0.756600	0.104400
C691	C69	0.098100	0.724700	0.107600
C701	C70	0.133000	0.693500	0.058400
C711	C71	0.075500	0.695800	0.005400
C721	C72	0.162200	0.725300	0.162800
C731	C73	0.566800	0.683500	0.767100
C741	C74	0.505000	0.632500	0.757900
C751	C75	0.543000	0.590200	0.719500
C761	C76	0.638500	0.598800	0.692600
C771	C77	0.694900	0.649700	0.705900
C781	C78	0.483800	0.533900	0.712600
C791	C79	0.375000	0.531500	0.719300
C801	C80	0.322700	0.478800	0.718400
C811	C81	0.376100	0.427200	0.708400
C821	C82	0.481600	0.427900	0.699200
C831	C83	0.537000	0.481700	0.699700
C841	C84	0.319800	0.367300	0.714500
C851	C85	0.767000	0.254000	0.110000
C861	C86	0.816900	0.260100	0.056700
C871	C87	0.924800	0.267000	0.054300
C881	C88	0.977200	0.269700	0.106900
C891	C89	0.921800	0.263200	0.160200
C901	C90	0.984400	0.272400	0.998300
C911	C91	0.950100	0.241500	0.948000
C921	C92	0.005400	0.243400	0.895600
C931	C93	0.098100	0.275300	0.892400
C941	C94	0.133000	0.306500	0.941600
C951	C95	0.075500	0.304200	0.994600
C961	C96	0.162200	0.274700	0.837200
N11	N1	0.339900	0.192000	0.755900
N21	N2	0.181300	0.754300	0.338700
N31	N3	0.339900	0.808000	0.244100
N41	N4	0.181300	0.245700	0.661300
N51	N5	0.660100	0.308000	0.255900
N61	N6	0.818700	0.745700	0.838700
N71	N7	0.660100	0.692000	0.744100
N81	N8	0.818700	0.254300	0.161300
O11	O1	0.625100	0.821380	0.785960
O21	O2	0.777300	0.866650	0.778800
O31	O3	0.746800	0.793810	0.663460
O41	O4	0.877000	0.749420	0.707940
O51	O5	0.625100	0.178620	0.214040
O61	O6	0.777300	0.133350	0.221200
O71	O7	0.746800	0.206190	0.336540
O81	O8	0.877000	0.250580	0.292060
O91	O9	0.374900	0.678620	0.285960
O101	O10	0.222700	0.633350	0.278800
O111	O11	0.253200	0.706190	0.163460
O121	O12	0.123000	0.750580	0.207940
O131	O13	0.374900	0.321380	0.714040
O141	O14	0.222700	0.366650	0.721200
O151	O15	0.253200	0.293810	0.836540
O161	O16	0.123000	0.249420	0.792060
Co51	Co5	0.746650	0.740860	0.267920
Co61	Co6	0.746650	0.259140	0.732080
Co71	Co7	0.253350	0.759140	0.767920
Co81	Co8	0.253350	0.240860	0.232080
H651	H65	0.461300	0.791600	0.713600
H661	H66	0.560600	0.777500	0.627500
H671	H67	0.334400	0.665500	0.570600
H681	H68	0.238700	0.687300	0.655400
H691	H69	0.663600	0.724600	0.567000
H701	H70	0.751200	0.724700	0.478000
H711	H71	0.481700	0.692400	0.392100
H721	H72	0.389700	0.691200	0.482500
H731	H73	0.307300	0.110400	0.249400
H741	H74	0.223000	0.021300	0.259500
H751	H75	0.948800	0.107500	0.275900
H761	H76	0.040700	0.196400	0.265300
H771	H77	0.112700	0.950200	0.218900
H781	H78	0.020000	0.862000	0.222800
H791	H79	0.804500	0.939300	0.329400
H801	H80	0.899600	0.028200	0.325000
H811	H81	0.461300	0.208400	0.286400
H821	H82	0.560600	0.222500	0.372500
H831	H83	0.334400	0.334500	0.429400
H841	H84	0.238700	0.312700	0.344600
H851	H85	0.663600	0.275400	0.433000
H861	H86	0.751200	0.275300	0.522000
H871	H87	0.481700	0.307600	0.607900
H881	H88	0.389700	0.308800	0.517500
H891	H89	0.307300	0.889600	0.750600
H901	H90	0.223000	0.978700	0.740500
H911	H91	0.948800	0.892500	0.724100
H921	H92	0.040700	0.803600	0.734700
H931	H93	0.112700	0.049800	0.781100
H941	H94	0.020000	0.138000	0.777200
H951	H95	0.804500	0.060700	0.670600
H961	H96	0.899600	0.971800	0.675000
H971	H97	0.538700	0.708400	0.213600
H981	H98	0.439400	0.722500	0.127500
H991	H99	0.665600	0.834500	0.070600
H1001	H100	0.761300	0.812700	0.155400
H1011	H101	0.336400	0.775400	0.067000
H1021	H102	0.248800	0.775300	0.978000
H1031	H103	0.518300	0.807600	0.892100
H1041	H104	0.610300	0.808800	0.982500
H1051	H105	0.692700	0.389600	0.749400
H1061	H106	0.777000	0.478700	0.759500
H1071	H107	0.051200	0.392500	0.775900
H1081	H108	0.959300	0.303600	0.765300
H1091	H109	0.887300	0.549800	0.718900
H1101	H110	0.980000	0.638000	0.722800
H1111	H111	0.195500	0.560700	0.829400
H1121	H112	0.100400	0.471800	0.825000
H1131	H113	0.538700	0.291600	0.786400
H1141	H114	0.439400	0.277500	0.872500
H1151	H115	0.665600	0.165500	0.929400
H1161	H116	0.761300	0.187300	0.844600
H1171	H117	0.336400	0.224600	0.933000
H1181	H118	0.248800	0.224700	0.022000
H1191	H119	0.518300	0.192400	0.107900
H1201	H120	0.610300	0.191200	0.017500
H1211	H121	0.692700	0.610400	0.250600
H1221	H122	0.777000	0.521300	0.240500
H1231	H123	0.051200	0.607500	0.224100
H1241	H124	0.959300	0.696400	0.234700
H1251	H125	0.887300	0.450200	0.281100
H1261	H126	0.980000	0.362000	0.277200
H1271	H127	0.195500	0.439300	0.170600
H1281	H128	0.100400	0.528200	0.175000
C971	C97	0.433200	0.767100	0.683500
C981	C98	0.495000	0.757900	0.632500
C991	C99	0.457000	0.719500	0.590200
C1001	C100	0.361500	0.692600	0.598800
C1011	C101	0.305100	0.705900	0.649700
C1021	C102	0.516200	0.712600	0.533900
C1031	C103	0.625000	0.719300	0.531500
C1041	C104	0.677300	0.718400	0.478800
C1051	C105	0.623900	0.708400	0.427200
C1061	C106	0.518400	0.699200	0.427900
C1071	C107	0.463000	0.699700	0.481700
C1081	C108	0.680200	0.714500	0.367300
C1091	C109	0.233000	0.110000	0.254000
C1101	C110	0.183100	0.056700	0.260100
C1111	C111	0.075200	0.054300	0.267000
C1121	C112	0.022800	0.106900	0.269700
C1131	C113	0.078200	0.160200	0.263200
C1141	C114	0.015600	0.998300	0.272400
C1151	C115	0.049900	0.948000	0.241500
C1161	C116	0.994600	0.895600	0.243400
C1171	C117	0.901900	0.892400	0.275300
C1181	C118	0.867000	0.941600	0.306500
C1191	C119	0.924500	0.994600	0.304200
C1201	C120	0.837800	0.837200	0.274700
C1211	C121	0.433200	0.232900	0.316500
C1221	C122	0.495000	0.242100	0.367500
C1231	C123	0.457000	0.280500	0.409800
C1241	C124	0.361500	0.307400	0.401200
C1251	C125	0.305100	0.294100	0.350300
C1261	C126	0.516200	0.287400	0.466100
C1271	C127	0.625000	0.280700	0.468500
C1281	C128	0.677300	0.281600	0.521200
C1291	C129	0.623900	0.291600	0.572800
C1301	C130	0.518400	0.300800	0.572100
C1311	C131	0.463000	0.300300	0.518300
C1321	C132	0.680200	0.285500	0.632700
C1331	C133	0.233000	0.890000	0.746000
C1341	C134	0.183100	0.943300	0.739900
C1351	C135	0.075200	0.945700	0.733000
C1361	C136	0.022800	0.893100	0.730300
C1371	C137	0.078200	0.839800	0.736800
C1381	C138	0.015600	0.001700	0.727600
C1391	C139	0.049900	0.052000	0.758500
C1401	C140	0.994600	0.104400	0.756600
C1411	C141	0.901900	0.107600	0.724700
C1421	C142	0.867000	0.058400	0.693500
C1431	C143	0.924500	0.005400	0.695800
C1441	C144	0.837800	0.162800	0.725300
C1451	C145	0.566800	0.732900	0.183500
C1461	C146	0.505000	0.742100	0.132500
C1471	C147	0.543000	0.780500	0.090200
C1481	C148	0.638500	0.807400	0.098800
C1491	C149	0.694900	0.794100	0.149700
C1501	C150	0.483800	0.787400	0.033900
C1511	C151	0.375000	0.780700	0.031500
C1521	C152	0.322700	0.781600	0.978800
C1531	C153	0.376100	0.791600	0.927200
C1541	C154	0.481600	0.800800	0.927900
C1551	C155	0.537000	0.800300	0.981700
C1561	C156	0.319800	0.785500	0.867300
C1571	C157	0.767000	0.390000	0.754000
C1581	C158	0.816900	0.443300	0.760100
C1591	C159	0.924800	0.445700	0.767000
C1601	C160	0.977200	0.393100	0.769700
C1611	C161	0.921800	0.339800	0.763200
C1621	C162	0.984400	0.501700	0.772400
C1631	C163	0.950100	0.552000	0.741500
C1641	C164	0.005400	0.604400	0.743400
C1651	C165	0.098100	0.607600	0.775300
C1661	C166	0.133000	0.558400	0.806500
C1671	C167	0.075500	0.505400	0.804200
C1681	C168	0.162200	0.662800	0.774700
C1691	C169	0.566800	0.267100	0.816500
C1701	C170	0.505000	0.257900	0.867500
C1711	C171	0.543000	0.219500	0.909800
C1721	C172	0.638500	0.192600	0.901200
C1731	C173	0.694900	0.205900	0.850300
C1741	C174	0.483800	0.212600	0.966100
C1751	C175	0.375000	0.219300	0.968500
C1761	C176	0.322700	0.218400	0.021200
C1771	C177	0.376100	0.208400	0.072800
C1781	C178	0.481600	0.199200	0.072100
C1791	C179	0.537000	0.199700	0.018300
C1801	C180	0.319800	0.214500	0.132700
C1811	C181	0.767000	0.610000	0.246000
C1821	C182	0.816900	0.556700	0.239900
C1831	C183	0.924800	0.554300	0.233000
C1841	C184	0.977200	0.606900	0.230300
C1851	C185	0.921800	0.660200	0.236800
C1861	C186	0.984400	0.498300	0.227600
C1871	C187	0.950100	0.448000	0.258500
C1881	C188	0.005400	0.395600	0.256600
C1891	C189	0.098100	0.392400	0.224700
C1901	C190	0.133000	0.441600	0.193500
C1911	C191	0.075500	0.494600	0.195800
C1921	C192	0.162200	0.337200	0.225300
N91	N9	0.339900	0.744100	0.692000
N101	N10	0.181300	0.161300	0.254300
N111	N11	0.339900	0.255900	0.308000
N121	N12	0.181300	0.838700	0.745700
N131	N13	0.660100	0.755900	0.192000
N141	N14	0.818700	0.338700	0.754300
N151	N15	0.660100	0.244100	0.808000
N161	N16	0.818700	0.661300	0.245700
O171	O17	0.625100	0.714040	0.321380
O181	O18	0.777300	0.721200	0.366650
O191	O19	0.746800	0.836540	0.293810
O201	O20	0.877000	0.792060	0.249420
O211	O21	0.625100	0.285960	0.678620
O221	O22	0.777300	0.278800	0.633350
O231	O23	0.746800	0.163460	0.706190
O241	O24	0.877000	0.207940	0.750580
O251	O25	0.374900	0.785960	0.821380
O261	O26	0.222700	0.778800	0.866650
O271	O27	0.253200	0.663460	0.793810
O281	O28	0.123000	0.707940	0.749420
O291	O29	0.374900	0.214040	0.178620
O301	O30	0.222700	0.221200	0.133350
O311	O31	0.253200	0.336540	0.206190
O321	O32	0.123000	0.292060	0.250580
