data_DIHVIB_freeONLY_PM
_symmetry_space_group_name_H-M	'P1'
_cell_length_a	26.303400
_cell_length_b	26.303400
_cell_length_c	26.303400
_cell_angle_alpha	90.000000
_cell_angle_beta	90.000000
_cell_angle_gamma	90.000000
_symmetry_Int_Tables_number 1

loop_
_symmetry_equiv_pos_as_xyz
'x,y,z'

loop_
_atom_site_label
_atom_site_type_symbol
_atom_site_fract_x
_atom_site_fract_y
_atom_site_fract_z
O11	O1	0.187830	0.742030	0.950960
O21	O2	0.187830	0.242030	0.450960
O31	O3	0.687830	0.742030	0.450960
O41	O4	0.687830	0.242030	0.950960
O51	O5	0.812170	0.257970	0.950960
O61	O6	0.812170	0.757970	0.450960
O71	O7	0.312170	0.257970	0.450960
O81	O8	0.312170	0.757970	0.950960
O91	O9	0.812170	0.742030	0.049040
O101	O10	0.812170	0.242030	0.549040
O111	O11	0.312170	0.742030	0.549040
O121	O12	0.312170	0.242030	0.049040
O131	O13	0.187830	0.257970	0.049040
O141	O14	0.187830	0.757970	0.549040
O151	O15	0.687830	0.257970	0.549040
O161	O16	0.687830	0.757970	0.049040
O171	O17	0.950960	0.187830	0.742030
O181	O18	0.950960	0.687830	0.242030
O191	O19	0.450960	0.187830	0.242030
O201	O20	0.450960	0.687830	0.742030
O211	O21	0.950960	0.812170	0.257970
O221	O22	0.950960	0.312170	0.757970
O231	O23	0.450960	0.812170	0.757970
O241	O24	0.450960	0.312170	0.257970
O251	O25	0.049040	0.812170	0.742030
O261	O26	0.049040	0.312170	0.242030
O271	O27	0.549040	0.812170	0.242030
O281	O28	0.549040	0.312170	0.742030
O291	O29	0.049040	0.187830	0.257970
O301	O30	0.049040	0.687830	0.757970
O311	O31	0.549040	0.187830	0.757970
O321	O32	0.549040	0.687830	0.257970
O331	O33	0.742030	0.950960	0.187830
O341	O34	0.742030	0.450960	0.687830
O351	O35	0.242030	0.950960	0.687830
O361	O36	0.242030	0.450960	0.187830
O371	O37	0.257970	0.950960	0.812170
O381	O38	0.257970	0.450960	0.312170
O391	O39	0.757970	0.950960	0.312170
O401	O40	0.757970	0.450960	0.812170
O411	O41	0.742030	0.049040	0.812170
O421	O42	0.742030	0.549040	0.312170
O431	O43	0.242030	0.049040	0.312170
O441	O44	0.242030	0.549040	0.812170
O451	O45	0.257970	0.049040	0.187830
O461	O46	0.257970	0.549040	0.687830
O471	O47	0.757970	0.049040	0.687830
O481	O48	0.757970	0.549040	0.187830
O491	O49	0.742030	0.187830	0.049040
O501	O50	0.742030	0.687830	0.549040
O511	O51	0.242030	0.187830	0.549040
O521	O52	0.242030	0.687830	0.049040
O531	O53	0.257970	0.812170	0.049040
O541	O54	0.257970	0.312170	0.549040
O551	O55	0.757970	0.812170	0.549040
O561	O56	0.757970	0.312170	0.049040
O571	O57	0.742030	0.812170	0.950960
O581	O58	0.742030	0.312170	0.450960
O591	O59	0.242030	0.812170	0.450960
O601	O60	0.242030	0.312170	0.950960
O611	O61	0.257970	0.187830	0.950960
O621	O62	0.257970	0.687830	0.450960
O631	O63	0.757970	0.187830	0.450960
O641	O64	0.757970	0.687830	0.950960
O651	O65	0.187830	0.950960	0.257970
O661	O66	0.187830	0.450960	0.757970
O671	O67	0.687830	0.950960	0.757970
O681	O68	0.687830	0.450960	0.257970
O691	O69	0.812170	0.950960	0.742030
O701	O70	0.812170	0.450960	0.242030
O711	O71	0.312170	0.950960	0.242030
O721	O72	0.312170	0.450960	0.742030
O731	O73	0.812170	0.049040	0.257970
O741	O74	0.812170	0.549040	0.757970
O751	O75	0.312170	0.049040	0.757970
O761	O76	0.312170	0.549040	0.257970
O771	O77	0.187830	0.049040	0.742030
O781	O78	0.187830	0.549040	0.242030
O791	O79	0.687830	0.049040	0.242030
O801	O80	0.687830	0.549040	0.742030
O811	O81	0.950960	0.742030	0.812170
O821	O82	0.950960	0.242030	0.312170
O831	O83	0.450960	0.742030	0.312170
O841	O84	0.450960	0.242030	0.812170
O851	O85	0.950960	0.257970	0.187830
O861	O86	0.950960	0.757970	0.687830
O871	O87	0.450960	0.257970	0.687830
O881	O88	0.450960	0.757970	0.187830
O891	O89	0.049040	0.742030	0.187830
O901	O90	0.049040	0.242030	0.687830
O911	O91	0.549040	0.742030	0.687830
O921	O92	0.549040	0.242030	0.187830
O931	O93	0.049040	0.257970	0.812170
O941	O94	0.049040	0.757970	0.312170
O951	O95	0.549040	0.257970	0.312170
O961	O96	0.549040	0.757970	0.812170
O971	O97	0.812170	0.257970	0.049040
O981	O98	0.812170	0.757970	0.549040
O991	O99	0.312170	0.257970	0.549040
O1001	O100	0.312170	0.757970	0.049040
O1011	O101	0.187830	0.742030	0.049040
O1021	O102	0.187830	0.242030	0.549040
O1031	O103	0.687830	0.742030	0.549040
O1041	O104	0.687830	0.242030	0.049040
O1051	O105	0.187830	0.257970	0.950960
O1061	O106	0.187830	0.757970	0.450960
O1071	O107	0.687830	0.257970	0.450960
O1081	O108	0.687830	0.757970	0.950960
O1091	O109	0.812170	0.742030	0.950960
O1101	O110	0.812170	0.242030	0.450960
O1111	O111	0.312170	0.742030	0.450960
O1121	O112	0.312170	0.242030	0.950960
O1131	O113	0.049040	0.812170	0.257970
O1141	O114	0.049040	0.312170	0.757970
O1151	O115	0.549040	0.812170	0.757970
O1161	O116	0.549040	0.312170	0.257970
O1171	O117	0.049040	0.187830	0.742030
O1181	O118	0.049040	0.687830	0.242030
O1191	O119	0.549040	0.187830	0.242030
O1201	O120	0.549040	0.687830	0.742030
O1211	O121	0.950960	0.187830	0.257970
O1221	O122	0.950960	0.687830	0.757970
O1231	O123	0.450960	0.187830	0.757970
O1241	O124	0.450960	0.687830	0.257970
O1251	O125	0.950960	0.812170	0.742030
O1261	O126	0.950960	0.312170	0.242030
O1271	O127	0.450960	0.812170	0.242030
O1281	O128	0.450960	0.312170	0.742030
O1291	O129	0.257970	0.049040	0.812170
O1301	O130	0.257970	0.549040	0.312170
O1311	O131	0.757970	0.049040	0.312170
O1321	O132	0.757970	0.549040	0.812170
O1331	O133	0.742030	0.049040	0.187830
O1341	O134	0.742030	0.549040	0.687830
O1351	O135	0.242030	0.049040	0.687830
O1361	O136	0.242030	0.549040	0.187830
O1371	O137	0.257970	0.950960	0.187830
O1381	O138	0.257970	0.450960	0.687830
O1391	O139	0.757970	0.950960	0.687830
O1401	O140	0.757970	0.450960	0.187830
O1411	O141	0.742030	0.950960	0.812170
O1421	O142	0.742030	0.450960	0.312170
O1431	O143	0.242030	0.950960	0.312170
O1441	O144	0.242030	0.450960	0.812170
O1451	O145	0.257970	0.812170	0.950960
O1461	O146	0.257970	0.312170	0.450960
O1471	O147	0.757970	0.812170	0.450960
O1481	O148	0.757970	0.312170	0.950960
O1491	O149	0.742030	0.187830	0.950960
O1501	O150	0.742030	0.687830	0.450960
O1511	O151	0.242030	0.187830	0.450960
O1521	O152	0.242030	0.687830	0.950960
O1531	O153	0.257970	0.187830	0.049040
O1541	O154	0.257970	0.687830	0.549040
O1551	O155	0.757970	0.187830	0.549040
O1561	O156	0.757970	0.687830	0.049040
O1571	O157	0.742030	0.812170	0.049040
O1581	O158	0.742030	0.312170	0.549040
O1591	O159	0.242030	0.812170	0.549040
O1601	O160	0.242030	0.312170	0.049040
O1611	O161	0.812170	0.049040	0.742030
O1621	O162	0.812170	0.549040	0.242030
O1631	O163	0.312170	0.049040	0.242030
O1641	O164	0.312170	0.549040	0.742030
O1651	O165	0.187830	0.049040	0.257970
O1661	O166	0.187830	0.549040	0.757970
O1671	O167	0.687830	0.049040	0.757970
O1681	O168	0.687830	0.549040	0.257970
O1691	O169	0.187830	0.950960	0.742030
O1701	O170	0.187830	0.450960	0.242030
O1711	O171	0.687830	0.950960	0.242030
O1721	O172	0.687830	0.450960	0.742030
O1731	O173	0.812170	0.950960	0.257970
O1741	O174	0.812170	0.450960	0.757970
O1751	O175	0.312170	0.950960	0.757970
O1761	O176	0.312170	0.450960	0.257970
O1771	O177	0.049040	0.257970	0.187830
O1781	O178	0.049040	0.757970	0.687830
O1791	O179	0.549040	0.257970	0.687830
O1801	O180	0.549040	0.757970	0.187830
O1811	O181	0.049040	0.742030	0.812170
O1821	O182	0.049040	0.242030	0.312170
O1831	O183	0.549040	0.742030	0.312170
O1841	O184	0.549040	0.242030	0.812170
O1851	O185	0.950960	0.257970	0.812170
O1861	O186	0.950960	0.757970	0.312170
O1871	O187	0.450960	0.257970	0.312170
O1881	O188	0.450960	0.757970	0.812170
O1891	O189	0.950960	0.742030	0.187830
O1901	O190	0.950960	0.242030	0.687830
O1911	O191	0.450960	0.742030	0.687830
O1921	O192	0.450960	0.242030	0.187830
Cu11	Cu1	0.216120	0.783880	0.000000
O1931	O193	0.156800	0.843200	0.000000
Cu21	Cu2	0.216120	0.283880	0.500000
O1941	O194	0.156800	0.343200	0.500000
Cu31	Cu3	0.716120	0.783880	0.500000
O1951	O195	0.656800	0.843200	0.500000
Cu41	Cu4	0.716120	0.283880	0.000000
O1961	O196	0.656800	0.343200	0.000000
Cu51	Cu5	0.783880	0.216120	0.000000
O1971	O197	0.843200	0.156800	0.000000
Cu61	Cu6	0.783880	0.716120	0.500000
O1981	O198	0.843200	0.656800	0.500000
Cu71	Cu7	0.283880	0.216120	0.500000
O1991	O199	0.343200	0.156800	0.500000
Cu81	Cu8	0.283880	0.716120	0.000000
O2001	O200	0.343200	0.656800	0.000000
Cu91	Cu9	0.783880	0.783880	0.000000
O2011	O201	0.843200	0.843200	0.000000
Cu101	Cu10	0.783880	0.283880	0.500000
O2021	O202	0.843200	0.343200	0.500000
Cu111	Cu11	0.283880	0.783880	0.500000
O2031	O203	0.343200	0.843200	0.500000
Cu121	Cu12	0.283880	0.283880	0.000000
O2041	O204	0.343200	0.343200	0.000000
Cu131	Cu13	0.216120	0.216120	0.000000
O2051	O205	0.156800	0.156800	0.000000
Cu141	Cu14	0.216120	0.716120	0.500000
O2061	O206	0.156800	0.656800	0.500000
Cu151	Cu15	0.716120	0.216120	0.500000
O2071	O207	0.656800	0.156800	0.500000
Cu161	Cu16	0.716120	0.716120	0.000000
O2081	O208	0.656800	0.656800	0.000000
Cu171	Cu17	0.000000	0.216120	0.783880
O2091	O209	0.000000	0.156800	0.843200
Cu181	Cu18	0.000000	0.716120	0.283880
O2101	O210	0.000000	0.656800	0.343200
Cu191	Cu19	0.500000	0.216120	0.283880
O2111	O211	0.500000	0.156800	0.343200
Cu201	Cu20	0.500000	0.716120	0.783880
O2121	O212	0.500000	0.656800	0.843200
Cu211	Cu21	0.000000	0.783880	0.216120
O2131	O213	0.000000	0.843200	0.156800
Cu221	Cu22	0.000000	0.283880	0.716120
O2141	O214	0.000000	0.343200	0.656800
Cu231	Cu23	0.500000	0.783880	0.716120
O2151	O215	0.500000	0.843200	0.656800
Cu241	Cu24	0.500000	0.283880	0.216120
O2161	O216	0.500000	0.343200	0.156800
Cu251	Cu25	0.000000	0.783880	0.783880
O2171	O217	0.000000	0.843200	0.843200
Cu261	Cu26	0.000000	0.283880	0.283880
O2181	O218	0.000000	0.343200	0.343200
Cu271	Cu27	0.500000	0.783880	0.283880
O2191	O219	0.500000	0.843200	0.343200
Cu281	Cu28	0.500000	0.283880	0.783880
O2201	O220	0.500000	0.343200	0.843200
Cu291	Cu29	0.000000	0.216120	0.216120
O2211	O221	0.000000	0.156800	0.156800
Cu301	Cu30	0.000000	0.716120	0.716120
O2221	O222	0.000000	0.656800	0.656800
Cu311	Cu31	0.500000	0.216120	0.716120
O2231	O223	0.500000	0.156800	0.656800
Cu321	Cu32	0.500000	0.716120	0.216120
O2241	O224	0.500000	0.656800	0.156800
Cu331	Cu33	0.783880	0.000000	0.216120
O2251	O225	0.843200	0.000000	0.156800
Cu341	Cu34	0.783880	0.500000	0.716120
O2261	O226	0.843200	0.500000	0.656800
Cu351	Cu35	0.283880	0.000000	0.716120
O2271	O227	0.343200	0.000000	0.656800
Cu361	Cu36	0.283880	0.500000	0.216120
O2281	O228	0.343200	0.500000	0.156800
Cu371	Cu37	0.216120	0.000000	0.783880
O2291	O229	0.156800	0.000000	0.843200
Cu381	Cu38	0.216120	0.500000	0.283880
O2301	O230	0.156800	0.500000	0.343200
Cu391	Cu39	0.716120	0.000000	0.283880
O2311	O231	0.656800	0.000000	0.343200
Cu401	Cu40	0.716120	0.500000	0.783880
O2321	O232	0.656800	0.500000	0.843200
Cu411	Cu41	0.783880	0.000000	0.783880
O2331	O233	0.843200	0.000000	0.843200
Cu421	Cu42	0.783880	0.500000	0.283880
O2341	O234	0.843200	0.500000	0.343200
Cu431	Cu43	0.283880	0.000000	0.283880
O2351	O235	0.343200	0.000000	0.343200
Cu441	Cu44	0.283880	0.500000	0.783880
O2361	O236	0.343200	0.500000	0.843200
Cu451	Cu45	0.216120	0.000000	0.216120
O2371	O237	0.156800	0.000000	0.156800
Cu461	Cu46	0.216120	0.500000	0.716120
O2381	O238	0.156800	0.500000	0.656800
Cu471	Cu47	0.716120	0.000000	0.716120
O2391	O239	0.656800	0.000000	0.656800
Cu481	Cu48	0.716120	0.500000	0.216120
O2401	O240	0.656800	0.500000	0.156800
C11	C1	0.204410	0.704410	0.930080
C21	C2	0.181120	0.681120	0.883780
C31	C3	0.204410	0.204410	0.430080
C41	C4	0.181120	0.181120	0.383780
C51	C5	0.704410	0.704410	0.430080
C61	C6	0.681120	0.681120	0.383780
C71	C7	0.795590	0.295590	0.930080
C81	C8	0.818880	0.318880	0.883780
C91	C9	0.795590	0.795590	0.430080
C101	C10	0.818880	0.818880	0.383780
C111	C11	0.795590	0.704410	0.069920
C121	C12	0.818880	0.681120	0.116220
C131	C13	0.795590	0.204410	0.569920
C141	C14	0.818880	0.181120	0.616220
C151	C15	0.204410	0.295590	0.069920
C161	C16	0.181120	0.318880	0.116220
C171	C17	0.204410	0.795590	0.569920
C181	C18	0.181120	0.818880	0.616220
C191	C19	0.704410	0.795590	0.069920
C201	C20	0.681120	0.818880	0.116220
C211	C21	0.930080	0.204410	0.704410
C221	C22	0.883780	0.181120	0.681120
C231	C23	0.430080	0.204410	0.204410
C241	C24	0.383780	0.181120	0.181120
C251	C25	0.430080	0.704410	0.704410
C261	C26	0.383780	0.681120	0.681120
C271	C27	0.930080	0.795590	0.295590
C281	C28	0.883780	0.818880	0.318880
C291	C29	0.430080	0.795590	0.795590
C301	C30	0.383780	0.818880	0.818880
C311	C31	0.069920	0.795590	0.704410
C321	C32	0.116220	0.818880	0.681120
C331	C33	0.569920	0.795590	0.204410
C341	C34	0.616220	0.818880	0.181120
C351	C35	0.069920	0.204410	0.295590
C361	C36	0.116220	0.181120	0.318880
C371	C37	0.069920	0.704410	0.795590
C381	C38	0.116220	0.681120	0.818880
C391	C39	0.569920	0.204410	0.795590
C401	C40	0.616220	0.181120	0.818880
C411	C41	0.704410	0.930080	0.204410
C421	C42	0.681120	0.883780	0.181120
C431	C43	0.704410	0.430080	0.704410
C441	C44	0.681120	0.383780	0.681120
C451	C45	0.295590	0.930080	0.795590
C461	C46	0.318880	0.883780	0.818880
C471	C47	0.295590	0.430080	0.295590
C481	C48	0.318880	0.383780	0.318880
C491	C49	0.795590	0.430080	0.795590
C501	C50	0.818880	0.383780	0.818880
C511	C51	0.704410	0.069920	0.795590
C521	C52	0.681120	0.116220	0.818880
C531	C53	0.704410	0.569920	0.295590
C541	C54	0.681120	0.616220	0.318880
C551	C55	0.295590	0.069920	0.204410
C561	C56	0.318880	0.116220	0.181120
C571	C57	0.295590	0.569920	0.704410
C581	C58	0.318880	0.616220	0.681120
C591	C59	0.795590	0.069920	0.704410
C601	C60	0.818880	0.116220	0.681120
C611	C61	0.704410	0.204410	0.069920
C621	C62	0.681120	0.181120	0.116220
C631	C63	0.704410	0.704410	0.569920
C641	C64	0.681120	0.681120	0.616220
C651	C65	0.295590	0.795590	0.069920
C661	C66	0.318880	0.818880	0.116220
C671	C67	0.295590	0.295590	0.569920
C681	C68	0.318880	0.318880	0.616220
C691	C69	0.795590	0.795590	0.569920
C701	C70	0.818880	0.818880	0.616220
C711	C71	0.704410	0.795590	0.930080
C721	C72	0.681120	0.818880	0.883780
C731	C73	0.704410	0.295590	0.430080
C741	C74	0.681120	0.318880	0.383780
C751	C75	0.295590	0.204410	0.930080
C761	C76	0.318880	0.181120	0.883780
C771	C77	0.295590	0.704410	0.430080
C781	C78	0.318880	0.681120	0.383780
C791	C79	0.795590	0.704410	0.930080
C801	C80	0.818880	0.681120	0.883780
C811	C81	0.204410	0.930080	0.295590
C821	C82	0.181120	0.883780	0.318880
C831	C83	0.204410	0.430080	0.795590
C841	C84	0.181120	0.383780	0.818880
C851	C85	0.704410	0.930080	0.795590
C861	C86	0.681120	0.883780	0.818880
C871	C87	0.795590	0.930080	0.704410
C881	C88	0.818880	0.883780	0.681120
C891	C89	0.795590	0.430080	0.204410
C901	C90	0.818880	0.383780	0.181120
C911	C91	0.795590	0.069920	0.295590
C921	C92	0.818880	0.116220	0.318880
C931	C93	0.795590	0.569920	0.795590
C941	C94	0.818880	0.616220	0.818880
C951	C95	0.204410	0.069920	0.704410
C961	C96	0.181120	0.116220	0.681120
C971	C97	0.204410	0.569920	0.204410
C981	C98	0.181120	0.616220	0.181120
C991	C99	0.704410	0.569920	0.704410
C1001	C100	0.681120	0.616220	0.681120
C1011	C101	0.930080	0.704410	0.795590
C1021	C102	0.883780	0.681120	0.818880
C1031	C103	0.430080	0.704410	0.295590
C1041	C104	0.383780	0.681120	0.318880
C1051	C105	0.930080	0.295590	0.204410
C1061	C106	0.883780	0.318880	0.181120
C1071	C107	0.930080	0.795590	0.704410
C1081	C108	0.883780	0.818880	0.681120
C1091	C109	0.430080	0.295590	0.704410
C1101	C110	0.383780	0.318880	0.681120
C1111	C111	0.069920	0.704410	0.204410
C1121	C112	0.116220	0.681120	0.181120
C1131	C113	0.569920	0.704410	0.704410
C1141	C114	0.616220	0.681120	0.681120
C1151	C115	0.069920	0.295590	0.795590
C1161	C116	0.116220	0.318880	0.818880
C1171	C117	0.569920	0.295590	0.295590
C1181	C118	0.616220	0.318880	0.318880
C1191	C119	0.569920	0.795590	0.795590
C1201	C120	0.616220	0.818880	0.818880
C1211	C121	0.795590	0.295590	0.069920
C1221	C122	0.818880	0.318880	0.116220
C1231	C123	0.204410	0.704410	0.069920
C1241	C124	0.181120	0.681120	0.116220
C1251	C125	0.204410	0.204410	0.569920
C1261	C126	0.181120	0.181120	0.616220
C1271	C127	0.204410	0.295590	0.930080
C1281	C128	0.181120	0.318880	0.883780
C1291	C129	0.204410	0.795590	0.430080
C1301	C130	0.181120	0.818880	0.383780
C1311	C131	0.795590	0.204410	0.430080
C1321	C132	0.818880	0.181120	0.383780
C1331	C133	0.069920	0.795590	0.295590
C1341	C134	0.116220	0.818880	0.318880
C1351	C135	0.069920	0.204410	0.704410
C1361	C136	0.116220	0.181120	0.681120
C1371	C137	0.569920	0.204410	0.204410
C1381	C138	0.616220	0.181120	0.181120
C1391	C139	0.930080	0.204410	0.295590
C1401	C140	0.883780	0.181120	0.318880
C1411	C141	0.430080	0.204410	0.795590
C1421	C142	0.383780	0.181120	0.818880
C1431	C143	0.430080	0.795590	0.204410
C1441	C144	0.383780	0.818880	0.181120
C1451	C145	0.295590	0.069920	0.795590
C1461	C146	0.318880	0.116220	0.818880
C1471	C147	0.295590	0.569920	0.295590
C1481	C148	0.318880	0.616220	0.318880
C1491	C149	0.704410	0.069920	0.204410
C1501	C150	0.681120	0.116220	0.181120
C1511	C151	0.295590	0.930080	0.204410
C1521	C152	0.318880	0.883780	0.181120
C1531	C153	0.295590	0.430080	0.704410
C1541	C154	0.318880	0.383780	0.681120
C1551	C155	0.704410	0.430080	0.295590
C1561	C156	0.681120	0.383780	0.318880
C1571	C157	0.295590	0.795590	0.930080
C1581	C158	0.318880	0.818880	0.883780
C1591	C159	0.295590	0.295590	0.430080
C1601	C160	0.318880	0.318880	0.383780
C1611	C161	0.704410	0.204410	0.930080
C1621	C162	0.681120	0.181120	0.883780
C1631	C163	0.295590	0.204410	0.069920
C1641	C164	0.318880	0.181120	0.116220
C1651	C165	0.295590	0.704410	0.569920
C1661	C166	0.318880	0.681120	0.616220
C1671	C167	0.704410	0.295590	0.569920
C1681	C168	0.681120	0.318880	0.616220
C1691	C169	0.795590	0.569920	0.204410
C1701	C170	0.818880	0.616220	0.181120
C1711	C171	0.204410	0.069920	0.295590
C1721	C172	0.181120	0.116220	0.318880
C1731	C173	0.204410	0.569920	0.795590
C1741	C174	0.181120	0.616220	0.818880
C1751	C175	0.204410	0.930080	0.704410
C1761	C176	0.181120	0.883780	0.681120
C1771	C177	0.204410	0.430080	0.204410
C1781	C178	0.181120	0.383780	0.181120
C1791	C179	0.795590	0.930080	0.295590
C1801	C180	0.818880	0.883780	0.318880
C1811	C181	0.069920	0.295590	0.204410
C1821	C182	0.116220	0.318880	0.181120
C1831	C183	0.569920	0.295590	0.704410
C1841	C184	0.616220	0.318880	0.681120
C1851	C185	0.569920	0.704410	0.295590
C1861	C186	0.616220	0.681120	0.318880
C1871	C187	0.930080	0.295590	0.795590
C1881	C188	0.883780	0.318880	0.818880
C1891	C189	0.430080	0.295590	0.295590
C1901	C190	0.383780	0.318880	0.318880
C1911	C191	0.930080	0.704410	0.204410
C1921	C192	0.883780	0.681120	0.181120
C1931	C193	0.202760	0.637850	0.862150
H11	H1	0.231010	0.623730	0.876270
C1941	C194	0.702760	0.637850	0.362150
H21	H2	0.731010	0.623730	0.376270
C1951	C195	0.797240	0.362150	0.862150
H31	H3	0.768990	0.376270	0.876270
C1961	C196	0.297240	0.362150	0.362150
H41	H4	0.268990	0.376270	0.376270
C1971	C197	0.297240	0.862150	0.862150
H51	H5	0.268990	0.876270	0.876270
C1981	C198	0.797240	0.637850	0.137850
H61	H6	0.768990	0.623730	0.123730
C1991	C199	0.297240	0.637850	0.637850
H71	H7	0.268990	0.623730	0.623730
C2001	C200	0.202760	0.362150	0.137850
H81	H8	0.231010	0.376270	0.123730
C2011	C201	0.202760	0.862150	0.637850
H91	H9	0.231010	0.876270	0.623730
C2021	C202	0.702760	0.362150	0.637850
H101	H10	0.731010	0.376270	0.623730
C2031	C203	0.862150	0.202760	0.637850
H111	H11	0.876270	0.231010	0.623730
C2041	C204	0.862150	0.702760	0.137850
H121	H12	0.876270	0.731010	0.123730
C2051	C205	0.862150	0.797240	0.362150
H131	H13	0.876270	0.768990	0.376270
C2061	C206	0.862150	0.297240	0.862150
H141	H14	0.876270	0.268990	0.876270
C2071	C207	0.137850	0.797240	0.637850
H151	H15	0.123730	0.768990	0.623730
C2081	C208	0.137850	0.297240	0.137850
H161	H16	0.123730	0.268990	0.123730
C2091	C209	0.637850	0.297240	0.637850
H171	H17	0.623730	0.268990	0.623730
C2101	C210	0.137850	0.202760	0.362150
H181	H18	0.123730	0.231010	0.376270
C2111	C211	0.137850	0.702760	0.862150
H191	H19	0.123730	0.731010	0.876270
C2121	C212	0.637850	0.202760	0.862150
H201	H20	0.623730	0.231010	0.876270
C2131	C213	0.637850	0.862150	0.202760
H211	H21	0.623730	0.876270	0.231010
C2141	C214	0.637850	0.362150	0.702760
H221	H22	0.623730	0.376270	0.731010
C2151	C215	0.362150	0.862150	0.797240
H231	H23	0.376270	0.876270	0.768990
C2161	C216	0.362150	0.362150	0.297240
H241	H24	0.376270	0.376270	0.268990
C2171	C217	0.862150	0.862150	0.297240
H251	H25	0.876270	0.876270	0.268990
C2181	C218	0.637850	0.137850	0.797240
H261	H26	0.623730	0.123730	0.768990
C2191	C219	0.637850	0.637850	0.297240
H271	H27	0.623730	0.623730	0.268990
C2201	C220	0.362150	0.137850	0.202760
H281	H28	0.376270	0.123730	0.231010
C2211	C221	0.362150	0.637850	0.702760
H291	H29	0.376270	0.623730	0.731010
C2221	C222	0.862150	0.637850	0.202760
H301	H30	0.876270	0.623730	0.231010
C2231	C223	0.637850	0.202760	0.137850
H311	H31	0.623730	0.231010	0.123730
C2241	C224	0.637850	0.702760	0.637850
H321	H32	0.623730	0.731010	0.623730
C2251	C225	0.362150	0.797240	0.137850
H331	H33	0.376270	0.768990	0.123730
C2261	C226	0.362150	0.297240	0.637850
H341	H34	0.376270	0.268990	0.623730
C2271	C227	0.862150	0.797240	0.637850
H351	H35	0.876270	0.768990	0.623730
C2281	C228	0.637850	0.797240	0.862150
H361	H36	0.623730	0.768990	0.876270
C2291	C229	0.637850	0.297240	0.362150
H371	H37	0.623730	0.268990	0.376270
C2301	C230	0.362150	0.202760	0.862150
H381	H38	0.376270	0.231010	0.876270
C2311	C231	0.362150	0.702760	0.362150
H391	H39	0.376270	0.731010	0.376270
C2321	C232	0.862150	0.702760	0.862150
H401	H40	0.876270	0.731010	0.876270
C2331	C233	0.202760	0.862150	0.362150
H411	H41	0.231010	0.876270	0.376270
C2341	C234	0.702760	0.862150	0.862150
H421	H42	0.731010	0.876270	0.876270
C2351	C235	0.797240	0.862150	0.637850
H431	H43	0.768990	0.876270	0.623730
C2361	C236	0.297240	0.862150	0.137850
H441	H44	0.268990	0.876270	0.123730
C2371	C237	0.797240	0.137850	0.362150
H451	H45	0.768990	0.123730	0.376270
C2381	C238	0.797240	0.637850	0.862150
H461	H46	0.768990	0.623730	0.876270
C2391	C239	0.297240	0.137850	0.862150
H471	H47	0.268990	0.123730	0.876270
C2401	C240	0.202760	0.137850	0.637850
H481	H48	0.231010	0.123730	0.623730
C2411	C241	0.702760	0.137850	0.137850
H491	H49	0.731010	0.123730	0.123730
C2421	C242	0.702760	0.637850	0.637850
H501	H50	0.731010	0.623730	0.623730
C2431	C243	0.862150	0.637850	0.797240
H511	H51	0.876270	0.623730	0.768990
C2441	C244	0.862150	0.137850	0.297240
H521	H52	0.876270	0.123730	0.268990
C2451	C245	0.862150	0.362150	0.202760
H531	H53	0.876270	0.376270	0.231010
C2461	C246	0.862150	0.862150	0.702760
H541	H54	0.876270	0.876270	0.731010
C2471	C247	0.137850	0.637850	0.202760
H551	H55	0.123730	0.623730	0.231010
C2481	C248	0.137850	0.137850	0.702760
H561	H56	0.123730	0.123730	0.731010
C2491	C249	0.637850	0.637850	0.702760
H571	H57	0.623730	0.623730	0.731010
C2501	C250	0.137850	0.362150	0.797240
H581	H58	0.123730	0.376270	0.768990
C2511	C251	0.137850	0.862150	0.297240
H591	H59	0.123730	0.876270	0.268990
C2521	C252	0.637850	0.862150	0.797240
H601	H60	0.623730	0.876270	0.768990
C2531	C253	0.797240	0.362150	0.137850
H611	H61	0.768990	0.376270	0.123730
C2541	C254	0.297240	0.362150	0.637850
H621	H62	0.268990	0.376270	0.623730
C2551	C255	0.202760	0.637850	0.137850
H631	H63	0.231010	0.623730	0.123730
C2561	C256	0.202760	0.362150	0.862150
H641	H64	0.231010	0.376270	0.876270
C2571	C257	0.702760	0.362150	0.362150
H651	H65	0.731010	0.376270	0.376270
C2581	C258	0.297240	0.637850	0.362150
H661	H66	0.268990	0.623730	0.376270
C2591	C259	0.137850	0.797240	0.362150
H671	H67	0.123730	0.768990	0.376270
C2601	C260	0.137850	0.297240	0.862150
H681	H68	0.123730	0.268990	0.876270
C2611	C261	0.137850	0.202760	0.637850
H691	H69	0.123730	0.231010	0.623730
C2621	C262	0.137850	0.702760	0.137850
H701	H70	0.123730	0.731010	0.123730
C2631	C263	0.862150	0.202760	0.362150
H711	H71	0.876270	0.231010	0.376270
C2641	C264	0.862150	0.297240	0.137850
H721	H72	0.876270	0.268990	0.123730
C2651	C265	0.362150	0.137850	0.797240
H731	H73	0.376270	0.123730	0.768990
C2661	C266	0.362150	0.637850	0.297240
H741	H74	0.376270	0.623730	0.268990
C2671	C267	0.637850	0.137850	0.202760
H751	H75	0.623730	0.123730	0.231010
C2681	C268	0.362150	0.862150	0.202760
H761	H76	0.376270	0.876270	0.231010
C2691	C269	0.362150	0.362150	0.702760
H771	H77	0.376270	0.376270	0.731010
C2701	C270	0.637850	0.362150	0.297240
H781	H78	0.623730	0.376270	0.268990
C2711	C271	0.362150	0.797240	0.862150
H791	H79	0.376270	0.768990	0.876270
C2721	C272	0.362150	0.297240	0.362150
H801	H80	0.376270	0.268990	0.376270
C2731	C273	0.637850	0.702760	0.362150
H811	H81	0.623730	0.731010	0.376270
C2741	C274	0.362150	0.202760	0.137850
H821	H82	0.376270	0.231010	0.123730
C2751	C275	0.362150	0.702760	0.637850
H831	H83	0.376270	0.731010	0.623730
C2761	C276	0.637850	0.797240	0.137850
H841	H84	0.623730	0.768990	0.123730
C2771	C277	0.797240	0.137850	0.637850
H851	H85	0.768990	0.123730	0.623730
C2781	C278	0.297240	0.137850	0.137850
H861	H86	0.268990	0.123730	0.123730
C2791	C279	0.202760	0.137850	0.362150
H871	H87	0.231010	0.123730	0.376270
C2801	C280	0.702760	0.137850	0.862150
H881	H88	0.731010	0.123730	0.876270
C2811	C281	0.702760	0.862150	0.137850
H891	H89	0.731010	0.876270	0.123730
C2821	C282	0.797240	0.862150	0.362150
H901	H90	0.768990	0.876270	0.376270
C2831	C283	0.137850	0.362150	0.202760
H911	H91	0.123730	0.376270	0.231010
C2841	C284	0.137850	0.862150	0.702760
H921	H92	0.123730	0.876270	0.731010
C2851	C285	0.137850	0.637850	0.797240
H931	H93	0.123730	0.623730	0.768990
C2861	C286	0.137850	0.137850	0.297240
H941	H94	0.123730	0.123730	0.268990
C2871	C287	0.862150	0.362150	0.797240
H951	H95	0.876270	0.376270	0.768990
C2881	C288	0.862150	0.137850	0.702760
H961	H96	0.876270	0.123730	0.731010
