data_DIKPOD_freeONLY_PM
_symmetry_space_group_name_H-M	'P1'
_cell_length_a	7.051000
_cell_length_b	14.598100
_cell_length_c	10.621400
_cell_angle_alpha	90.000000
_cell_angle_beta	108.046000
_cell_angle_gamma	90.000000
_symmetry_Int_Tables_number 1

loop_
_symmetry_equiv_pos_as_xyz
'x,y,z'

loop_
_atom_site_label
_atom_site_type_symbol
_atom_site_fract_x
_atom_site_fract_y
_atom_site_fract_z
La11	La1	0.724350	0.611460	0.498740
O11	O1	0.394200	0.557910	0.543200
O21	O2	0.086300	0.592130	0.536000
O31	O3	0.520900	0.724870	0.588300
O41	O4	0.914900	0.851920	0.804800
O51	O5	0.906900	0.719600	0.696100
C11	C1	0.261900	0.613900	0.550600
C21	C2	0.316300	0.713100	0.574000
H11	H1	0.236400	0.749400	0.499900
H21	H2	0.289100	0.734000	0.653400
C31	C3	0.606700	0.804800	0.661300
H31	H3	0.543800	0.817100	0.728900
H41	H4	0.584900	0.857200	0.602500
C41	C4	0.826500	0.789900	0.724900
O61	O6	0.832800	0.515400	0.712600
H51	H5	0.843000	0.547000	0.783000
H61	H6	0.764000	0.467700	0.713000
O71	O7	0.765300	0.766600	0.406300
H71	H7	0.672000	0.783000	0.338000
H81	H8	0.844000	0.811000	0.435000
O81	O8	0.782700	0.569200	0.284100
H91	H9	0.694000	0.580000	0.211000
H101	H10	0.864000	0.528000	0.276000
La21	La2	0.775650	0.111460	0.001260
O91	O9	0.105800	0.057910	0.956800
O101	O10	0.413700	0.092130	0.964000
O111	O11	0.979100	0.224870	0.911700
O121	O12	0.585100	0.351920	0.695200
O131	O13	0.593100	0.219600	0.803900
C51	C5	0.238100	0.113900	0.949400
C61	C6	0.183700	0.213100	0.926000
H111	H11	0.263600	0.249400	0.000100
H121	H12	0.210900	0.234000	0.846600
C71	C7	0.893300	0.304800	0.838700
H131	H13	0.956200	0.317100	0.771100
H141	H14	0.915100	0.357200	0.897500
C81	C8	0.673500	0.289900	0.775100
O141	O14	0.667200	0.015400	0.787400
H151	H15	0.657000	0.047000	0.717000
H161	H16	0.736000	0.967700	0.787000
O151	O15	0.734700	0.266600	0.093700
H171	H17	0.828000	0.283000	0.162000
H181	H18	0.656000	0.311000	0.065000
O161	O16	0.717300	0.069200	0.215900
H191	H19	0.806000	0.080000	0.289000
H201	H20	0.636000	0.028000	0.224000
La31	La3	0.275650	0.388540	0.501260
O171	O17	0.605800	0.442090	0.456800
O181	O18	0.913700	0.407870	0.464000
O191	O19	0.479100	0.275130	0.411700
O201	O20	0.085100	0.148080	0.195200
O211	O21	0.093100	0.280400	0.303900
C91	C9	0.738100	0.386100	0.449400
C101	C10	0.683700	0.286900	0.426000
H211	H21	0.763600	0.250600	0.500100
H221	H22	0.710900	0.266000	0.346600
C111	C11	0.393300	0.195200	0.338700
H231	H23	0.456200	0.182900	0.271100
H241	H24	0.415100	0.142800	0.397500
C121	C12	0.173500	0.210100	0.275100
O221	O22	0.167200	0.484600	0.287400
H251	H25	0.157000	0.453000	0.217000
H261	H26	0.236000	0.532300	0.287000
O231	O23	0.234700	0.233400	0.593700
H271	H27	0.328000	0.217000	0.662000
H281	H28	0.156000	0.189000	0.565000
O241	O24	0.217300	0.430800	0.715900
H291	H29	0.306000	0.420000	0.789000
H301	H30	0.136000	0.472000	0.724000
La41	La4	0.224350	0.888530	0.998740
O251	O25	0.894200	0.942090	0.043200
O261	O26	0.586300	0.907870	0.036000
O271	O27	0.020900	0.775130	0.088300
O281	O28	0.414900	0.648080	0.304800
O291	O29	0.406900	0.780400	0.196100
C131	C13	0.761900	0.886100	0.050600
C141	C14	0.816300	0.786900	0.074000
H311	H31	0.736400	0.750600	0.999900
H321	H32	0.789100	0.766000	0.153400
C151	C15	0.106700	0.695200	0.161300
H331	H33	0.043800	0.682900	0.228900
H341	H34	0.084900	0.642800	0.102500
C161	C16	0.326500	0.710100	0.224900
O301	O30	0.332800	0.984600	0.212600
H351	H35	0.343000	0.953000	0.283000
H361	H36	0.264000	0.032300	0.213000
O311	O31	0.265300	0.733400	0.906300
H371	H37	0.172000	0.717000	0.838000
H381	H38	0.344000	0.689000	0.935000
O321	O32	0.282700	0.930800	0.784100
H391	H39	0.194000	0.920000	0.711000
H401	H40	0.364000	0.972000	0.776000
