data_DIPLUL_freeONLY_PM
_symmetry_space_group_name_H-M	'P1'
_cell_length_a	12.888900
_cell_length_b	15.196300
_cell_length_c	22.677000
_cell_angle_alpha	78.401000
_cell_angle_beta	77.297000
_cell_angle_gamma	79.472000
_symmetry_Int_Tables_number 1

loop_
_symmetry_equiv_pos_as_xyz
'x,y,z'

loop_
_atom_site_label
_atom_site_type_symbol
_atom_site_fract_x
_atom_site_fract_y
_atom_site_fract_z
Cu11	Cu1	0.303710	0.897520	0.844990
Cu21	Cu2	0.877680	0.157350	0.400650
Cu31	Cu3	0.122320	0.842650	0.599350
Cu41	Cu4	0.696290	0.102480	0.155010
Cu51	Cu5	0.897330	0.719430	0.061890
Cu61	Cu6	0.500000	0.500000	0.500000
Cu71	Cu7	0.763030	0.661090	0.913700
Cu81	Cu8	0.102670	0.280570	0.938110
Cu91	Cu9	0.236970	0.338910	0.086300
P11	P1	0.708700	0.210900	0.770880
P21	P2	0.291300	0.789100	0.229120
P31	P3	0.495900	0.560000	0.235550
P41	P4	0.504100	0.440000	0.764450
H11	H1	0.537300	0.690600	0.973100
H21	H2	0.663300	0.042600	0.286800
H31	H3	0.041800	0.158200	0.881500
H41	H4	0.141500	0.665300	0.557500
H51	H5	0.331500	0.985200	0.952300
H61	H6	0.972500	0.582600	0.842900
H71	H7	0.055600	0.002800	0.399100
H81	H8	0.262200	0.549900	0.523700
H91	H9	0.858500	0.334700	0.442500
H101	H10	0.909600	0.548000	0.141800
H111	H11	0.059700	0.804200	0.737400
H121	H12	0.075200	0.625300	0.984200
H131	H13	0.266300	0.126100	0.978100
H141	H14	0.530500	0.856100	0.786100
H151	H15	0.733700	0.873900	0.021900
H161	H16	0.895400	0.986200	0.140700
H171	H17	0.623600	0.227000	0.050000
H181	H18	0.104600	0.013800	0.859300
H191	H19	0.924800	0.374700	0.015800
H201	H20	0.376400	0.773000	0.950000
H211	H21	0.203400	0.501500	0.998800
H221	H22	0.097700	0.874700	0.468200
H231	H23	0.668500	0.014800	0.047700
H241	H24	0.027500	0.417400	0.157100
H251	H25	0.940300	0.195800	0.262600
H261	H26	0.128600	0.810200	0.819300
H271	H27	0.796600	0.498500	0.001200
H281	H28	0.737800	0.450100	0.476300
H291	H29	0.720700	0.065200	0.369500
H301	H30	0.462700	0.309400	0.026900
H311	H31	0.944400	0.997200	0.600900
H321	H32	0.871400	0.189800	0.180700
H331	H33	0.090400	0.452000	0.858200
H341	H34	0.469500	0.143900	0.213900
H351	H35	0.366000	0.801400	0.559300
H361	H36	0.634000	0.198600	0.440700
H371	H37	0.508400	0.312200	0.476300
H381	H38	0.279300	0.934800	0.630500
H391	H39	0.686600	0.781100	0.808000
H401	H40	0.313400	0.218900	0.192000
H411	H41	0.336700	0.957400	0.713200
H421	H42	0.491600	0.687800	0.523700
H431	H43	0.902300	0.125300	0.531800
H441	H44	0.958200	0.841800	0.118500
W11	W1	0.162850	0.970800	0.135040
W21	W2	0.464820	0.674780	0.706670
W31	W3	0.770690	0.987460	0.737520
W41	W4	0.025630	0.892380	0.275960
W51	W5	0.229310	0.012540	0.262480
W61	W6	0.365610	0.823050	0.362760
W71	W7	0.409960	0.519630	0.105480
W81	W8	0.721250	0.559750	0.753580
W91	W9	0.649370	0.511470	0.616530
W101	W10	0.782790	0.263140	0.899530
W111	W11	0.350630	0.488530	0.383470
W121	W12	0.438920	0.392890	0.634250
W131	W13	0.333230	0.600030	0.849960
W141	W14	0.974370	0.107620	0.724040
W151	W15	0.491640	0.092030	0.791770
W161	W16	0.558170	0.135200	0.917170
W171	W17	0.837150	0.029200	0.864960
W181	W18	0.257880	0.555940	0.725740
W191	W19	0.840230	0.292890	0.622220
W201	W20	0.561080	0.607110	0.365750
W211	W21	0.633890	0.646760	0.090450
W221	W22	0.742120	0.444060	0.274260
W231	W23	0.159770	0.707110	0.377780
W241	W24	0.705430	0.692840	0.213730
W251	W25	0.634390	0.176950	0.637240
W261	W26	0.366110	0.353240	0.909550
W271	W27	0.590040	0.480370	0.894520
W281	W28	0.666770	0.399970	0.150040
W291	W29	0.441830	0.864800	0.082830
W301	W30	0.914050	0.342230	0.759030
W311	W31	0.217210	0.736860	0.100470
W321	W32	0.508360	0.907970	0.208230
W331	W33	0.085950	0.657770	0.240970
W341	W34	0.278750	0.440250	0.246420
W351	W35	0.535180	0.325220	0.293330
W361	W36	0.294570	0.307160	0.786270
C11	C1	0.580800	0.318400	0.468700
C21	C2	0.469400	0.176700	0.174500
C31	C3	0.767800	0.895700	0.047000
C41	C4	0.714600	0.399400	0.469000
C51	C5	0.879800	0.167200	0.269300
C61	C6	0.028700	0.460100	0.888000
C71	C7	0.785800	0.329600	0.449700
C81	C8	0.232200	0.104300	0.953000
C91	C9	0.840900	0.160800	0.219100
C101	C10	0.343700	0.750700	0.551400
C111	C11	0.463300	0.273900	0.065400
C121	C12	0.530600	0.823300	0.825500
C131	C13	0.754800	0.089800	0.330700
C141	C14	0.027000	0.002000	0.440600
C151	C15	0.062000	0.928000	0.482300
C161	C16	0.973000	0.998000	0.559400
C171	C17	0.857600	0.491200	0.970900
C181	C18	0.214200	0.670400	0.550300
C191	C19	0.536700	0.726100	0.934600
C201	C20	0.044900	0.460300	0.122400
C211	C21	0.727700	0.980900	0.062800
C221	C22	0.899800	0.876400	0.102900
C231	C23	0.281700	0.922800	0.719100
C241	C24	0.142400	0.508800	0.029100
C251	C25	0.272300	0.019100	0.937200
C261	C26	0.656300	0.249300	0.448600
C271	C27	0.066600	0.585200	0.021100
C281	C28	0.718300	0.077200	0.280900
C291	C29	0.439600	0.774800	0.920900
C301	C30	0.245200	0.910200	0.669300
C311	C31	0.859300	0.963300	0.117200
C321	C32	0.285400	0.600600	0.531000
C331	C33	0.938000	0.072000	0.517700
C341	C34	0.120200	0.832800	0.730700
C351	C35	0.375600	0.221500	0.162100
C361	C36	0.560400	0.225200	0.079100
C371	C37	0.159100	0.839200	0.780900
C381	C38	0.624400	0.778500	0.837900
C391	C39	0.100200	0.123600	0.897100
C401	C40	0.971300	0.539900	0.112000
C411	C41	0.140700	0.036700	0.882800
C421	C42	0.419200	0.681600	0.531300
C431	C43	0.955100	0.539700	0.877600
C441	C44	0.933400	0.414800	0.978900
N11	N1	0.761100	0.114500	0.223700
N21	N2	0.773500	0.015000	0.099700
N31	N3	0.560700	0.175000	0.136200
N41	N4	0.628500	0.729300	0.894100
N51	N5	0.758700	0.253500	0.440300
N61	N6	0.869600	0.552500	0.922600
N71	N7	0.391300	0.606000	0.522500
N81	N8	0.837600	0.135700	0.326900
N91	N9	0.851800	0.844500	0.066000
N101	N10	0.162400	0.864300	0.673100
N111	N11	0.226500	0.985000	0.900300
N121	N12	0.130400	0.447500	0.077400
N131	N13	0.238900	0.885500	0.776300
N141	N14	0.371500	0.270700	0.105900
N151	N15	0.017500	0.396900	0.935700
N161	N16	0.044000	0.930700	0.542900
N171	N17	0.148200	0.155500	0.934000
N181	N18	0.439300	0.825000	0.863800
N191	N19	0.241300	0.746500	0.559700
N201	N20	0.956000	0.069300	0.457100
N211	N21	0.982500	0.603100	0.064300
N221	N22	0.608700	0.394000	0.477500
O11	O1	0.082200	0.818800	0.343900
O21	O2	0.613100	0.307200	0.212500
O31	O3	0.701400	0.245800	0.704000
O41	O4	0.688300	0.053000	0.898200
O51	O5	0.818100	0.254400	0.968300
O61	O6	0.470300	0.853500	0.292200
O71	O7	0.553200	0.292500	0.623200
O81	O8	0.367700	0.322100	0.702000
O91	O9	0.600900	0.187600	0.809700
O101	O10	0.860200	0.408400	0.298900
O111	O11	0.524000	0.215800	0.328600
O121	O12	0.669800	0.340700	0.310100
O131	O13	0.379300	0.387700	0.574900
O141	O14	0.400800	0.488700	0.039000
O151	O15	0.757300	0.226000	0.590400
O161	O16	0.224200	0.114100	0.284000
O171	O17	0.296200	0.617200	0.107300
O181	O18	0.625100	0.013700	0.778500
O191	O19	0.444000	0.235100	0.910600
O201	O20	0.775800	0.885900	0.716000
O211	O21	0.774000	0.399400	0.198500
O221	O22	0.682300	0.557600	0.838700
O231	O23	0.399200	0.872000	0.415600
O241	O24	0.703800	0.382800	0.892700
O251	O25	0.970400	0.613300	0.259200
O261	O26	0.210500	0.880700	0.226000
O271	O27	0.600800	0.128000	0.584400
O281	O28	0.186300	0.262700	0.783500
O291	O29	0.292000	0.337700	0.982000
O301	O30	0.904900	0.310100	0.845700
O311	O31	0.345700	0.495700	0.661200
O321	O32	0.614000	0.803000	0.198700
O331	O33	0.813700	0.737300	0.216500
O341	O34	0.029600	0.386700	0.740800
O351	O35	0.067800	0.681000	0.441500
O361	O36	0.592100	0.980800	0.213200
O371	O37	0.708200	0.574800	0.550700
O381	O38	0.245500	0.723900	0.202200
O391	O39	0.242700	0.774000	0.409600
O401	O40	0.459400	0.576300	0.301600
O411	O41	0.278200	0.473200	0.324400
O421	O42	0.968100	0.042400	0.805500
O431	O43	0.888700	0.952700	0.922100
O441	O44	0.754500	0.276100	0.797800
O451	O45	0.460900	0.525800	0.418300
O461	O46	0.513200	0.930100	0.121900
O471	O47	0.558400	0.632800	0.195900
O481	O48	0.599200	0.511300	0.961000
O491	O49	0.258300	0.661700	0.903400
O501	O50	0.291800	0.425200	0.449300
O511	O51	0.811500	0.635600	0.734600
O521	O52	0.597800	0.454200	0.791600
O531	O53	0.330200	0.659300	0.689900
O541	O54	0.649900	0.216800	0.922000
O551	O55	0.399100	0.812400	0.190300
O561	O56	0.406000	0.359300	0.260000
O571	O57	0.531600	0.431400	0.125900
O581	O58	0.741700	0.338300	0.096600
O591	O59	0.632300	0.677900	0.298000
O601	O60	0.402200	0.545800	0.208400
O611	O61	0.476000	0.784200	0.671400
O621	O62	0.917800	0.181200	0.656100
O631	O63	0.726600	0.070900	0.670400
O641	O64	0.120700	0.654100	0.319500
O651	O65	0.407900	0.019200	0.786800
O661	O66	0.374900	0.986300	0.221500
O671	O67	0.913400	0.010700	0.707000
O681	O68	0.192600	0.051600	0.181200
O691	O69	0.446800	0.707500	0.376800
O701	O70	0.311700	0.947000	0.101800
O711	O71	0.654300	0.504300	0.338800
O721	O72	0.309500	0.479400	0.885500
O731	O73	0.441600	0.367200	0.804100
O741	O74	0.027900	0.782500	0.248600
O751	O75	0.105100	0.081300	0.692500
O761	O76	0.468400	0.568600	0.874100
O771	O77	0.721800	0.526800	0.675600
O781	O78	0.181900	0.550100	0.232000
O791	O79	0.422200	0.531800	0.762700
O801	O80	0.972100	0.217500	0.751400
O811	O81	0.894900	0.918700	0.307500
O821	O82	0.386000	0.197000	0.801300
O831	O83	0.154700	0.857700	0.115000
O841	O84	0.932200	0.319000	0.558500
O851	O85	0.031900	0.957600	0.194500
O861	O86	0.298600	0.754200	0.296000
O871	O87	0.461300	0.393200	0.354200
O881	O88	0.521000	0.092000	0.992000
O891	O89	0.708000	0.662300	0.018000
O901	O90	0.510400	0.604600	0.082000
O911	O91	0.732300	0.397300	0.609200
O921	O92	0.594000	0.640700	0.740000
O931	O93	0.350100	0.783200	0.078000
O941	O94	0.489600	0.395400	0.918000
O951	O95	0.538700	0.606800	0.645800
O961	O96	0.181900	0.745600	0.031700
O971	O97	0.386900	0.692800	0.787500
O981	O98	0.273400	0.929100	0.329600
O991	O99	0.265100	0.316200	0.870900
O1001	O100	0.556000	0.764900	0.089400
O1011	O101	0.757300	0.564000	0.232700
O1021	O102	0.734900	0.683800	0.129100
O1031	O103	0.540600	0.423700	0.698400
O1041	O104	0.690500	0.520600	0.114500
O1051	O105	0.818100	0.449900	0.768000
O1061	O106	0.095100	0.689900	0.154300
O1071	O107	0.807400	0.948400	0.818800
O1081	O108	0.879300	0.345900	0.680500
O1091	O109	0.577800	0.468200	0.237300
O1101	O110	0.242700	0.436000	0.767300
O1111	O111	0.317700	0.442400	0.161300
O1121	O112	0.086600	0.989300	0.293000
O1131	O113	0.479000	0.908000	0.008000
O1141	O114	0.539100	0.474200	0.581700
O1151	O115	0.789500	0.119300	0.774000
O1161	O116	0.620700	0.612300	0.425100
O1171	O117	0.486800	0.069900	0.878100
O1181	O118	0.139800	0.591600	0.701100
O1191	O119	0.188500	0.364400	0.265400
O1201	O120	0.845300	0.142300	0.885000
O1211	O121	0.111300	0.047300	0.077900
O1221	O122	0.226000	0.600600	0.801500
O1231	O123	0.267700	0.602700	0.390800
O1241	O124	0.529700	0.146500	0.707800
