data_DIPMAS_freeONLY_PM
_symmetry_space_group_name_H-M	'P1'
_cell_length_a	11.096900
_cell_length_b	13.401600
_cell_length_c	15.931500
_cell_angle_alpha	65.127500
_cell_angle_beta	69.618500
_cell_angle_gamma	90.000000
_symmetry_Int_Tables_number 1

loop_
_symmetry_equiv_pos_as_xyz
'x,y,z'

loop_
_atom_site_label
_atom_site_type_symbol
_atom_site_fract_x
_atom_site_fract_y
_atom_site_fract_z
Ce11	Ce1	0.027600	0.627400	0.444000
Ce21	Ce2	0.471600	0.372600	0.556000
Ce31	Ce3	0.971600	0.071400	0.556000
Ce41	Ce4	0.527600	0.928600	0.444000
Ce51	Ce5	0.998200	0.000000	0.000000
Ce61	Ce6	0.498200	0.000000	0.000000
P11	P1	0.843300	0.705800	0.177000
P21	P2	0.381600	0.604700	0.395800
P31	P3	0.020300	0.294200	0.823000
P41	P4	0.777400	0.395300	0.604200
P51	P5	0.520300	0.882800	0.823000
P61	P6	0.277400	0.000500	0.604200
P71	P7	0.343300	0.117200	0.177000
P81	P8	0.881600	0.999500	0.395800
C11	C1	0.996100	0.818800	0.218400
C21	C2	0.859700	0.752700	0.264000
C31	C3	0.438800	0.689700	0.440800
C41	C4	0.542700	0.677900	0.482800
C51	C5	0.214500	0.181200	0.781600
C61	C6	0.123700	0.247300	0.736000
C71	C7	0.879600	0.310300	0.559200
C81	C8	0.025500	0.322100	0.517200
C91	C9	0.714500	0.037200	0.781600
C101	C10	0.623700	0.016700	0.736000
C111	C11	0.379600	0.130500	0.559200
C121	C12	0.525500	0.160700	0.517200
C131	C13	0.496100	0.962800	0.218400
C141	C14	0.359700	0.983300	0.264000
C151	C15	0.938800	0.869500	0.440800
C161	C16	0.042700	0.839300	0.482800
O11	O1	0.852600	0.810000	0.082200
O21	O2	0.067200	0.836400	0.129000
O31	O3	0.951100	0.020700	0.856600
O41	O4	0.195800	0.973000	0.842400
O51	O5	0.710600	0.630200	0.224800
O61	O6	0.955400	0.641900	0.153000
O71	O7	0.054300	0.795300	0.279200
O81	O8	0.840500	0.662400	0.356800
O91	O9	0.264000	0.647000	0.369400
O101	O10	0.065800	0.524500	0.598800
O111	O11	0.093400	0.542200	0.317200
O121	O12	0.337400	0.481500	0.476000
O131	O13	0.357100	0.765400	0.452600
O141	O14	0.585800	0.584700	0.502600
O151	O15	0.630900	0.761800	0.449800
O161	O16	0.495300	0.605000	0.306000
O171	O17	0.934800	0.190000	0.917800
O181	O18	0.196200	0.163600	0.871000
O191	O19	0.807700	0.979300	0.143400
O201	O20	0.038200	0.027000	0.157600
O211	O21	0.935400	0.369800	0.775200
O221	O22	0.108400	0.358100	0.847000
O231	O23	0.333500	0.204700	0.720800
O241	O24	0.197300	0.337600	0.643200
O251	O25	0.633400	0.353000	0.630600
O261	O26	0.664600	0.475500	0.401200
O271	O27	0.410600	0.457800	0.682800
O281	O28	0.813400	0.518500	0.524000
O291	O29	0.809700	0.234600	0.547400
O301	O30	0.088400	0.415300	0.497400
O311	O31	0.080700	0.238200	0.550200
O321	O32	0.801300	0.395000	0.694000
O331	O33	0.434800	0.892200	0.917800
O341	O34	0.696200	0.965400	0.871000
O351	O35	0.307700	0.877300	0.143400
O361	O36	0.538200	0.815400	0.157600
O371	O37	0.435400	0.855000	0.775200
O381	O38	0.608400	0.794900	0.847000
O391	O39	0.833500	0.074500	0.720800
O401	O40	0.697300	0.019200	0.643200
O411	O41	0.133400	0.016400	0.630600
O421	O42	0.164600	0.123300	0.401200
O431	O43	0.910600	0.859400	0.682800
O441	O44	0.313400	0.957500	0.524000
O451	O45	0.309700	0.218000	0.547400
O461	O46	0.588400	0.087300	0.497400
O471	O47	0.580700	0.211600	0.550200
O481	O48	0.301300	0.911000	0.694000
O491	O49	0.352600	0.107800	0.082200
O501	O50	0.567200	0.034600	0.129000
O511	O51	0.451100	0.122700	0.856600
O521	O52	0.695800	0.184600	0.842400
O531	O53	0.210600	0.145000	0.224800
O541	O54	0.455400	0.205100	0.153000
O551	O55	0.554300	0.925500	0.279200
O561	O56	0.340500	0.980800	0.356800
O571	O57	0.764000	0.983600	0.369400
O581	O58	0.565800	0.876700	0.598800
O591	O59	0.593400	0.140600	0.317200
O601	O60	0.837400	0.042500	0.476000
O611	O61	0.857100	0.782000	0.452600
O621	O62	0.085800	0.912700	0.502600
O631	O63	0.130900	0.788400	0.449800
O641	O64	0.995300	0.089000	0.306000
