data_DITXOU_freeONLY_PM
_symmetry_space_group_name_H-M	'P1'
_cell_length_a	11.583700
_cell_length_b	14.742200
_cell_length_c	11.619400
_cell_angle_alpha	90.000000
_cell_angle_beta	102.319000
_cell_angle_gamma	90.000000
_symmetry_Int_Tables_number 1

loop_
_symmetry_equiv_pos_as_xyz
'x,y,z'

loop_
_atom_site_label
_atom_site_type_symbol
_atom_site_fract_x
_atom_site_fract_y
_atom_site_fract_z
Zn11	Zn1	0.992440	0.032050	0.749330
O11	O1	0.774120	0.009990	0.485660
O21	O2	0.864930	0.953490	0.661180
O31	O3	0.822220	0.834020	0.221800
O41	O4	0.932510	0.912450	0.368480
O51	O5	0.588230	0.567020	0.334440
O61	O6	0.730290	0.506440	0.474550
O71	O7	0.575250	0.586520	0.625250
O81	O8	0.639640	0.693450	0.756960
C11	C1	0.773150	0.849560	0.517880
C21	C2	0.790710	0.809440	0.413830
C31	C3	0.755500	0.719600	0.389140
H11	H1	0.767000	0.693400	0.319600
C41	C4	0.703780	0.667950	0.465060
C51	C5	0.686440	0.708120	0.569350
C61	C6	0.720340	0.798190	0.593190
H21	H2	0.707200	0.824900	0.661800
C71	C7	0.807260	0.946500	0.553700
C81	C8	0.852160	0.855350	0.327510
C91	C9	0.671580	0.571020	0.425890
C101	C10	0.630450	0.659740	0.657690
Zn21	Zn2	0.507560	0.532050	0.750670
O91	O9	0.725880	0.509990	0.014340
O101	O10	0.635070	0.453490	0.838820
O111	O11	0.677780	0.334020	0.278200
O121	O12	0.567490	0.412450	0.131520
O131	O13	0.911770	0.067020	0.165560
O141	O14	0.769710	0.006440	0.025450
O151	O15	0.924750	0.086520	0.874750
O161	O16	0.860360	0.193450	0.743040
C111	C11	0.726850	0.349560	0.982120
C121	C12	0.709290	0.309440	0.086170
C131	C13	0.744500	0.219600	0.110860
H31	H3	0.733000	0.193400	0.180400
C141	C14	0.796220	0.167950	0.034940
C151	C15	0.813560	0.208120	0.930650
C161	C16	0.779660	0.298190	0.906810
H41	H4	0.792800	0.324900	0.838200
C171	C17	0.692740	0.446500	0.946300
C181	C18	0.647840	0.355350	0.172490
C191	C19	0.828420	0.071020	0.074110
C201	C20	0.869550	0.159740	0.842310
Zn31	Zn3	0.007560	0.967950	0.250670
O171	O17	0.225880	0.990010	0.514340
O181	O18	0.135070	0.046510	0.338820
O191	O19	0.177780	0.165980	0.778200
O201	O20	0.067490	0.087550	0.631520
O211	O21	0.411770	0.432980	0.665560
O221	O22	0.269710	0.493560	0.525450
O231	O23	0.424750	0.413480	0.374750
O241	O24	0.360360	0.306550	0.243040
C211	C21	0.226850	0.150440	0.482120
C221	C22	0.209290	0.190560	0.586170
C231	C23	0.244500	0.280400	0.610860
H51	H5	0.233000	0.306600	0.680400
C241	C24	0.296220	0.332050	0.534940
C251	C25	0.313560	0.291880	0.430650
C261	C26	0.279660	0.201810	0.406810
H61	H6	0.292800	0.175100	0.338200
C271	C27	0.192740	0.053500	0.446300
C281	C28	0.147840	0.144650	0.672490
C291	C29	0.328420	0.428980	0.574110
C301	C30	0.369550	0.340260	0.342310
Zn41	Zn4	0.492440	0.467950	0.249330
O251	O25	0.274120	0.490010	0.985660
O261	O26	0.364930	0.546510	0.161180
O271	O27	0.322220	0.665980	0.721800
O281	O28	0.432510	0.587550	0.868480
O291	O29	0.088230	0.932980	0.834440
O301	O30	0.230290	0.993560	0.974550
O311	O31	0.075250	0.913480	0.125250
O321	O32	0.139640	0.806550	0.256960
C311	C31	0.273150	0.650440	0.017880
C321	C32	0.290710	0.690560	0.913830
C331	C33	0.255500	0.780400	0.889140
H71	H7	0.267000	0.806600	0.819600
C341	C34	0.203780	0.832050	0.965060
C351	C35	0.186440	0.791880	0.069350
C361	C36	0.220340	0.701810	0.093190
H81	H8	0.207200	0.675100	0.161800
C371	C37	0.307260	0.553500	0.053700
C381	C38	0.352160	0.644650	0.827510
C391	C39	0.171580	0.928980	0.925890
C401	C40	0.130450	0.840260	0.157690
