data_DIVQAB_freeONLY_PM
_symmetry_space_group_name_H-M	'P1'
_cell_length_a	17.236000
_cell_length_b	9.183500
_cell_length_c	15.478000
_cell_angle_alpha	90.000000
_cell_angle_beta	90.000000
_cell_angle_gamma	90.000000
_symmetry_Int_Tables_number 1

loop_
_symmetry_equiv_pos_as_xyz
'x,y,z'

loop_
_atom_site_label
_atom_site_type_symbol
_atom_site_fract_x
_atom_site_fract_y
_atom_site_fract_z
N11	N1	0.869200	0.283700	0.814900
N21	N2	0.974160	0.181000	0.892700
C11	C1	0.905700	0.173200	0.854500
H11	H1	0.880700	0.083400	0.855100
C21	C2	0.906700	0.410600	0.814000
H21	H2	0.882200	0.490600	0.789200
C31	C3	0.979100	0.428900	0.847800
C41	C4	0.011200	0.307400	0.889100
H31	H3	0.059900	0.315500	0.914600
N31	N3	0.869200	0.783700	0.314900
N41	N4	0.974160	0.681000	0.392700
C51	C5	0.905700	0.673200	0.354500
H41	H4	0.880700	0.583400	0.355100
C61	C6	0.906700	0.910600	0.314000
H51	H5	0.882200	0.990600	0.289200
C71	C7	0.979100	0.928900	0.347800
C81	C8	0.011200	0.807400	0.389100
H61	H6	0.059900	0.815500	0.414600
N51	N5	0.369200	0.283700	0.314900
N61	N6	0.474160	0.181000	0.392700
C91	C9	0.405700	0.173200	0.354500
H71	H7	0.380700	0.083400	0.355100
C101	C10	0.406700	0.410600	0.314000
H81	H8	0.382200	0.490600	0.289200
C111	C11	0.479100	0.428900	0.347800
C121	C12	0.511200	0.307400	0.389100
H91	H9	0.559900	0.315500	0.414600
N71	N7	0.369200	0.783700	0.814900
N81	N8	0.474160	0.681000	0.892700
C131	C13	0.405700	0.673200	0.854500
H101	H10	0.380700	0.583400	0.855100
C141	C14	0.406700	0.910600	0.814000
H111	H11	0.382200	0.990600	0.789200
C151	C15	0.479100	0.928900	0.847800
C161	C16	0.511200	0.807400	0.889100
H121	H12	0.559900	0.815500	0.914600
N91	N9	0.130800	0.716300	0.814900
N101	N10	0.025840	0.819000	0.892700
C171	C17	0.094300	0.826800	0.854500
H131	H13	0.119300	0.916600	0.855100
C181	C18	0.093300	0.589400	0.814000
H141	H14	0.117800	0.509400	0.789200
C191	C19	0.020900	0.571100	0.847800
C201	C20	0.988800	0.692600	0.889100
H151	H15	0.940100	0.684500	0.914600
N111	N11	0.130800	0.216300	0.314900
N121	N12	0.025840	0.319000	0.392700
C211	C21	0.094300	0.326800	0.354500
H161	H16	0.119300	0.416600	0.355100
C221	C22	0.093300	0.089400	0.314000
H171	H17	0.117800	0.009400	0.289200
C231	C23	0.020900	0.071100	0.347800
C241	C24	0.988800	0.192600	0.389100
H181	H18	0.940100	0.184500	0.414600
N131	N13	0.630800	0.716300	0.314900
N141	N14	0.525840	0.819000	0.392700
C251	C25	0.594300	0.826800	0.354500
H191	H19	0.619300	0.916600	0.355100
C261	C26	0.593300	0.589400	0.314000
H201	H20	0.617800	0.509400	0.289200
C271	C27	0.520900	0.571100	0.347800
C281	C28	0.488800	0.692600	0.389100
H211	H21	0.440100	0.684500	0.414600
N151	N15	0.630800	0.216300	0.814900
N161	N16	0.525840	0.319000	0.892700
C291	C29	0.594300	0.326800	0.854500
H221	H22	0.619300	0.416600	0.855100
C301	C30	0.593300	0.089400	0.814000
H231	H23	0.617800	0.009400	0.789200
C311	C31	0.520900	0.071100	0.847800
C321	C32	0.488800	0.192600	0.889100
H241	H24	0.440100	0.184500	0.914600
N171	N17	0.119200	0.966300	0.064900
N181	N18	0.224160	0.069000	0.142700
C331	C33	0.155700	0.076800	0.104500
H251	H25	0.130700	0.166600	0.105100
C341	C34	0.156700	0.839400	0.064000
H261	H26	0.132200	0.759400	0.039200
C351	C35	0.229100	0.821100	0.097800
C361	C36	0.261200	0.942600	0.139100
H271	H27	0.309900	0.934500	0.164600
N191	N19	0.119200	0.466300	0.564900
N201	N20	0.224160	0.569000	0.642700
C371	C37	0.155700	0.576800	0.604500
H281	H28	0.130700	0.666600	0.605100
C381	C38	0.156700	0.339400	0.564000
H291	H29	0.132200	0.259400	0.539200
C391	C39	0.229100	0.321100	0.597800
C401	C40	0.261200	0.442600	0.639100
H301	H30	0.309900	0.434500	0.664600
N211	N21	0.619200	0.966300	0.564900
N221	N22	0.724160	0.069000	0.642700
C411	C41	0.655700	0.076800	0.604500
H311	H31	0.630700	0.166600	0.605100
C421	C42	0.656700	0.839400	0.564000
H321	H32	0.632200	0.759400	0.539200
C431	C43	0.729100	0.821100	0.597800
C441	C44	0.761200	0.942600	0.639100
H331	H33	0.809900	0.934500	0.664600
N231	N23	0.619200	0.466300	0.064900
N241	N24	0.724160	0.569000	0.142700
C451	C45	0.655700	0.576800	0.104500
H341	H34	0.630700	0.666600	0.105100
C461	C46	0.656700	0.339400	0.064000
H351	H35	0.632200	0.259400	0.039200
C471	C47	0.729100	0.321100	0.097800
C481	C48	0.761200	0.442600	0.139100
H361	H36	0.809900	0.434500	0.164600
N251	N25	0.380800	0.533700	0.064900
N261	N26	0.275840	0.431000	0.142700
C491	C49	0.344300	0.423200	0.104500
H371	H37	0.369300	0.333400	0.105100
C501	C50	0.343300	0.660600	0.064000
H381	H38	0.367800	0.740600	0.039200
C511	C51	0.270900	0.678900	0.097800
C521	C52	0.238800	0.557400	0.139100
H391	H39	0.190100	0.565500	0.164600
N271	N27	0.380800	0.033700	0.564900
N281	N28	0.275840	0.931000	0.642700
C531	C53	0.344300	0.923200	0.604500
H401	H40	0.369300	0.833400	0.605100
C541	C54	0.343300	0.160600	0.564000
H411	H41	0.367800	0.240600	0.539200
C551	C55	0.270900	0.178900	0.597800
C561	C56	0.238800	0.057400	0.639100
H421	H42	0.190100	0.065500	0.664600
N291	N29	0.880800	0.533700	0.564900
N301	N30	0.775840	0.431000	0.642700
C571	C57	0.844300	0.423200	0.604500
H431	H43	0.869300	0.333400	0.605100
C581	C58	0.843300	0.660600	0.564000
H441	H44	0.867800	0.740600	0.539200
C591	C59	0.770900	0.678900	0.597800
C601	C60	0.738800	0.557400	0.639100
H451	H45	0.690100	0.565500	0.664600
N311	N31	0.880800	0.033700	0.064900
N321	N32	0.775840	0.931000	0.142700
C611	C61	0.844300	0.923200	0.104500
H461	H46	0.869300	0.833400	0.105100
C621	C62	0.843300	0.160600	0.064000
H471	H47	0.867800	0.240600	0.039200
C631	C63	0.770900	0.178900	0.097800
C641	C64	0.738800	0.057400	0.139100
H481	H48	0.690100	0.065500	0.164600
Ag11	Ag1	0.750000	0.250000	0.750080
Ag21	Ag2	0.750000	0.750000	0.250080
Ag31	Ag3	0.250000	0.750000	0.750080
Ag41	Ag4	0.250000	0.250000	0.250080
Ag51	Ag5	0.000000	0.000000	0.000080
Ag61	Ag6	0.000000	0.500000	0.500080
Ag71	Ag7	0.500000	0.500000	0.000080
Ag81	Ag8	0.500000	0.000000	0.500080
