data_DIWNAA_freeONLY_PM
_symmetry_space_group_name_H-M	'P1'
_cell_length_a	8.589700
_cell_length_b	17.444600
_cell_length_c	17.444600
_cell_angle_alpha	120.000000
_cell_angle_beta	90.000000
_cell_angle_gamma	90.000000
_symmetry_Int_Tables_number 1

loop_
_symmetry_equiv_pos_as_xyz
'x,y,z'

loop_
_atom_site_label
_atom_site_type_symbol
_atom_site_fract_x
_atom_site_fract_y
_atom_site_fract_z
Mg11	Mg1	0.666670	0.000000	0.535160
Mg21	Mg2	0.333330	0.464840	0.464840
Mg31	Mg3	0.000000	0.535160	0.000000
H11	H1	0.543130	0.878900	0.689700
H21	H2	0.633730	0.576400	0.542800
H31	H3	0.532570	0.042300	0.243000
H41	H4	0.300400	0.457200	0.033600
H51	H5	0.876470	0.810800	0.121100
H61	H6	0.868000	0.546000	0.128000
H71	H7	0.134100	0.243000	0.042300
H81	H8	0.865630	0.372400	0.641500
H91	H9	0.465330	0.454000	0.582000
H101	H10	0.198970	0.269100	0.627600
H111	H11	0.380670	0.253600	0.635200
H121	H12	0.079170	0.790800	0.459100
H131	H13	0.325030	0.462800	0.696000
H141	H14	0.101870	0.098700	0.445500
H151	H15	0.745830	0.540900	0.331700
H161	H16	0.798670	0.128000	0.546000
H171	H17	0.587500	0.459100	0.790800
H181	H18	0.456870	0.189200	0.310300
H191	H19	0.568100	0.274100	0.852100
H201	H20	0.898130	0.653200	0.554500
H211	H21	0.286000	0.635200	0.253600
H221	H22	0.991700	0.304000	0.766800
H231	H23	0.047330	0.364800	0.618400
H241	H24	0.699600	0.423600	0.966400
H251	H25	0.008300	0.537200	0.233200
H261	H26	0.199230	0.757000	0.799300
H271	H27	0.109670	0.204500	0.497400
H281	H28	0.952670	0.746400	0.381600
H291	H29	0.231470	0.901300	0.346800
H301	H30	0.920830	0.331700	0.540900
H311	H31	0.768530	0.554500	0.653200
H321	H32	0.790200	0.121100	0.810800
H331	H33	0.443000	0.292900	0.795500
H341	H34	0.435200	0.346800	0.901300
H351	H35	0.890330	0.707100	0.502600
H361	H36	0.098570	0.852100	0.274100
H371	H37	0.800770	0.957700	0.200700
H381	H38	0.234770	0.147900	0.422000
H391	H39	0.366270	0.033600	0.457200
H401	H40	0.534670	0.872000	0.418000
H411	H41	0.619330	0.618400	0.364800
H421	H42	0.674970	0.766800	0.304000
H431	H43	0.431900	0.422000	0.147900
H441	H44	0.557000	0.497400	0.204500
H451	H45	0.223670	0.795500	0.292900
H461	H46	0.467430	0.799300	0.757000
H471	H47	0.209800	0.310300	0.189200
H481	H48	0.412500	0.668300	0.209200
H491	H49	0.532300	0.358500	0.730900
H501	H50	0.714000	0.381600	0.746400
H511	H51	0.658370	0.233200	0.537200
H521	H52	0.765230	0.725900	0.578000
H531	H53	0.776330	0.502600	0.707100
H541	H54	0.132000	0.418000	0.872000
H551	H55	0.865900	0.200700	0.957700
H561	H56	0.254170	0.209200	0.668300
H571	H57	0.032930	0.542800	0.576400
H581	H58	0.123530	0.689700	0.878900
H591	H59	0.467700	0.627600	0.269100
H601	H60	0.901430	0.578000	0.725900
H611	H61	0.201330	0.582000	0.454000
H621	H62	0.801030	0.641500	0.372400
H631	H63	0.134370	0.730900	0.358500
H641	H64	0.341630	0.696000	0.462800
H651	H65	0.564800	0.445500	0.098700
H661	H66	0.967070	0.966400	0.423600
C11	C1	0.976000	0.301300	0.953500
C21	C2	0.024000	0.347800	0.046500
C31	C3	0.277170	0.226500	0.624000
C41	C4	0.642670	0.046500	0.347800
C51	C5	0.056170	0.773500	0.397500
C61	C6	0.034300	0.476990	0.193880
C71	C7	0.154000	0.343400	0.168500
C81	C8	0.892300	0.222600	0.919300
C91	C9	0.495100	0.469800	0.150000
C101	C10	0.502830	0.844600	0.525090
C111	C11	0.836170	0.680490	0.155400
C121	C12	0.169500	0.474910	0.319510
C131	C13	0.367630	0.716890	0.523010
C141	C14	0.107700	0.303300	0.080700
C151	C15	0.722830	0.602500	0.376000
C161	C16	0.299030	0.523010	0.716890
C171	C17	0.346330	0.562970	0.669510
C181	C18	0.171570	0.150000	0.469800
C191	C19	0.629730	0.566300	0.484100
C201	C20	0.846000	0.174900	0.831500
C211	C21	0.547270	0.224960	0.430200
C221	C22	0.786070	0.775040	0.205240
C231	C23	0.703600	0.433700	0.917800
C241	C24	0.820670	0.831500	0.174900
C251	C25	0.963070	0.917800	0.433700
C261	C26	0.700970	0.806120	0.283110
C271	C27	0.504900	0.319800	0.850000
C281	C28	0.161770	0.850000	0.319800
C291	C29	0.370270	0.082200	0.515900
C301	C30	0.036930	0.484100	0.566300
C311	C31	0.632370	0.193880	0.476990
C321	C32	0.987000	0.437030	0.106540
C331	C33	0.828430	0.680200	0.530200
C341	C34	0.774370	0.919300	0.222600
C351	C35	0.389500	0.624000	0.226500
C361	C36	0.512670	0.168500	0.343400
C371	C37	0.213930	0.569800	0.794760
C381	C38	0.558970	0.080700	0.303300
C391	C39	0.965700	0.283110	0.806120
C401	C40	0.830500	0.155400	0.680490
C411	C41	0.690670	0.953500	0.301300
C421	C42	0.943830	0.376000	0.602500
C431	C43	0.320330	0.669510	0.562970
C441	C44	0.013000	0.330490	0.893460
C451	C45	0.497170	0.319510	0.474910
C461	C46	0.357330	0.698700	0.652200
C471	C47	0.179330	0.656600	0.825100
C481	C48	0.610500	0.397500	0.773500
C491	C49	0.487330	0.825100	0.656600
C501	C50	0.653670	0.893460	0.330490
C511	C51	0.119400	0.430200	0.224960
C521	C52	0.679670	0.106540	0.437030
C531	C53	0.225630	0.696700	0.777400
C541	C54	0.296400	0.515900	0.082200
C551	C55	0.441030	0.777400	0.696700
C561	C56	0.163830	0.525090	0.844600
C571	C57	0.880600	0.205240	0.775040
C581	C58	0.452730	0.794760	0.569800
C591	C59	0.838230	0.530200	0.680200
C601	C60	0.309330	0.652200	0.698700
N11	N1	0.726330	0.612300	0.463700
N21	N2	0.273670	0.148600	0.536300
N31	N3	0.607000	0.387700	0.851400
N41	N4	0.393000	0.536300	0.148600
N51	N5	0.940330	0.463700	0.612300
N61	N6	0.059670	0.851400	0.387700
O11	O1	0.235430	0.592600	0.515980
O21	O2	0.862200	0.188510	0.631550
O31	O3	0.133030	0.432810	0.510610
O41	O4	0.902100	0.484020	0.076620
O51	O5	0.431230	0.515980	0.592600
O61	O6	0.533630	0.510610	0.432810
O71	O7	0.097900	0.407400	0.923380
O81	O8	0.799700	0.489390	0.922200
O91	O9	0.764570	0.076620	0.484020
O101	O10	0.759200	0.084310	0.654500
O111	O11	0.466370	0.077800	0.567190
O121	O12	0.240800	0.429810	0.345500
O131	O13	0.568770	0.923380	0.407400
O141	O14	0.092530	0.570190	0.915690
O151	O15	0.200300	0.567190	0.077800
O161	O16	0.195530	0.443040	0.811490
O171	O17	0.907470	0.654500	0.084310
O181	O18	0.471130	0.811490	0.443040
O191	O19	0.425870	0.345500	0.429810
O201	O20	0.866970	0.922200	0.489390
O211	O21	0.528870	0.368450	0.556960
O221	O22	0.574130	0.915690	0.570190
O231	O23	0.137800	0.556960	0.368450
O241	O24	0.804470	0.631550	0.188510
