data_DIYKED_freeONLY_PM
_symmetry_space_group_name_H-M	'P1'
_cell_length_a	6.711900
_cell_length_b	24.876000
_cell_length_c	14.064700
_cell_angle_alpha	90.000000
_cell_angle_beta	90.000000
_cell_angle_gamma	90.000000
_symmetry_Int_Tables_number 1

loop_
_symmetry_equiv_pos_as_xyz
'x,y,z'

loop_
_atom_site_label
_atom_site_type_symbol
_atom_site_fract_x
_atom_site_fract_y
_atom_site_fract_z
O11	O1	0.113000	0.116000	0.636000
O21	O2	0.613000	0.616000	0.636000
O31	O3	0.887000	0.384000	0.636000
O41	O4	0.387000	0.884000	0.636000
O51	O5	0.887000	0.616000	0.364000
O61	O6	0.387000	0.116000	0.364000
O71	O7	0.113000	0.884000	0.364000
O81	O8	0.613000	0.384000	0.364000
O91	O9	0.887000	0.884000	0.364000
O101	O10	0.387000	0.384000	0.364000
O111	O11	0.113000	0.616000	0.364000
O121	O12	0.613000	0.116000	0.364000
O131	O13	0.113000	0.384000	0.636000
O141	O14	0.613000	0.884000	0.636000
O151	O15	0.887000	0.116000	0.636000
O161	O16	0.387000	0.616000	0.636000
C11	C1	0.000000	0.164600	0.018700
H11	H1	0.000000	0.196300	0.980900
C21	C2	0.000000	0.115900	0.973700
H21	H2	0.000000	0.114200	0.906200
C31	C3	0.000000	0.070300	0.025500
C41	C4	0.000000	0.073200	0.124400
H31	H3	0.000000	0.041600	0.162200
C51	C5	0.000000	0.124700	0.166700
H41	H4	0.000000	0.127700	0.234000
C61	C6	0.000000	0.203500	0.540100
H51	H5	0.000000	0.170400	0.506400
C71	C7	0.000000	0.202500	0.639100
N11	N1	0.000000	0.169800	0.113100
N21	N2	0.000000	0.019400	0.974500
N31	N3	0.000000	0.151100	0.678000
O171	O17	0.000000	0.294300	0.341100
O181	O18	0.000000	0.144900	0.760700
C81	C8	0.500000	0.664600	0.018700
H61	H6	0.500000	0.696300	0.980900
C91	C9	0.500000	0.615900	0.973700
H71	H7	0.500000	0.614200	0.906200
C101	C10	0.500000	0.570300	0.025500
C111	C11	0.500000	0.573200	0.124400
H81	H8	0.500000	0.541600	0.162200
C121	C12	0.500000	0.624700	0.166700
H91	H9	0.500000	0.627700	0.234000
C131	C13	0.500000	0.703500	0.540100
H101	H10	0.500000	0.670400	0.506400
C141	C14	0.500000	0.702500	0.639100
N41	N4	0.500000	0.669800	0.113100
N51	N5	0.500000	0.519400	0.974500
N61	N6	0.500000	0.651100	0.678000
O191	O19	0.500000	0.794300	0.341100
O201	O20	0.500000	0.644900	0.760700
C151	C15	0.000000	0.335400	0.018700
H111	H11	0.000000	0.303700	0.980900
C161	C16	0.000000	0.384100	0.973700
H121	H12	0.000000	0.385800	0.906200
C171	C17	0.000000	0.429700	0.025500
C181	C18	0.000000	0.426800	0.124400
H131	H13	0.000000	0.458400	0.162200
C191	C19	0.000000	0.375300	0.166700
H141	H14	0.000000	0.372300	0.234000
C201	C20	0.000000	0.296500	0.540100
H151	H15	0.000000	0.329600	0.506400
C211	C21	0.000000	0.297500	0.639100
N71	N7	0.000000	0.330200	0.113100
N81	N8	0.000000	0.480600	0.974500
N91	N9	0.000000	0.348900	0.678000
O211	O21	0.000000	0.205700	0.341100
O221	O22	0.000000	0.355100	0.760700
C221	C22	0.500000	0.835400	0.018700
H161	H16	0.500000	0.803700	0.980900
C231	C23	0.500000	0.884100	0.973700
H171	H17	0.500000	0.885800	0.906200
C241	C24	0.500000	0.929700	0.025500
C251	C25	0.500000	0.926800	0.124400
H181	H18	0.500000	0.958400	0.162200
C261	C26	0.500000	0.875300	0.166700
H191	H19	0.500000	0.872300	0.234000
C271	C27	0.500000	0.796500	0.540100
H201	H20	0.500000	0.829600	0.506400
C281	C28	0.500000	0.797500	0.639100
N101	N10	0.500000	0.830200	0.113100
N111	N11	0.500000	0.980600	0.974500
N121	N12	0.500000	0.848900	0.678000
O231	O23	0.500000	0.705700	0.341100
O241	O24	0.500000	0.855100	0.760700
C291	C29	0.000000	0.664600	0.981300
H211	H21	0.000000	0.696300	0.019100
C301	C30	0.000000	0.615900	0.026300
H221	H22	0.000000	0.614200	0.093800
C311	C31	0.000000	0.570300	0.974500
C321	C32	0.000000	0.573200	0.875600
H231	H23	0.000000	0.541600	0.837800
C331	C33	0.000000	0.624700	0.833300
H241	H24	0.000000	0.627700	0.766000
C341	C34	0.000000	0.703500	0.459900
H251	H25	0.000000	0.670400	0.493600
C351	C35	0.000000	0.702500	0.360900
N131	N13	0.000000	0.669800	0.886900
N141	N14	0.000000	0.519400	0.025500
N151	N15	0.000000	0.651100	0.322000
O251	O25	0.000000	0.794300	0.658900
O261	O26	0.000000	0.644900	0.239300
C361	C36	0.500000	0.164600	0.981300
H261	H26	0.500000	0.196300	0.019100
C371	C37	0.500000	0.115900	0.026300
H271	H27	0.500000	0.114200	0.093800
C381	C38	0.500000	0.070300	0.974500
C391	C39	0.500000	0.073200	0.875600
H281	H28	0.500000	0.041600	0.837800
C401	C40	0.500000	0.124700	0.833300
H291	H29	0.500000	0.127700	0.766000
C411	C41	0.500000	0.203500	0.459900
H301	H30	0.500000	0.170400	0.493600
C421	C42	0.500000	0.202500	0.360900
N161	N16	0.500000	0.169800	0.886900
N171	N17	0.500000	0.019400	0.025500
N181	N18	0.500000	0.151100	0.322000
O271	O27	0.500000	0.294300	0.658900
O281	O28	0.500000	0.144900	0.239300
C431	C43	0.000000	0.835400	0.981300
H311	H31	0.000000	0.803700	0.019100
C441	C44	0.000000	0.884100	0.026300
H321	H32	0.000000	0.885800	0.093800
C451	C45	0.000000	0.929700	0.974500
C461	C46	0.000000	0.926800	0.875600
H331	H33	0.000000	0.958400	0.837800
C471	C47	0.000000	0.875300	0.833300
H341	H34	0.000000	0.872300	0.766000
C481	C48	0.000000	0.796500	0.459900
H351	H35	0.000000	0.829600	0.493600
C491	C49	0.000000	0.797500	0.360900
N191	N19	0.000000	0.830200	0.886900
N201	N20	0.000000	0.980600	0.025500
N211	N21	0.000000	0.848900	0.322000
O291	O29	0.000000	0.705700	0.658900
O301	O30	0.000000	0.855100	0.239300
C501	C50	0.500000	0.335400	0.981300
H361	H36	0.500000	0.303700	0.019100
C511	C51	0.500000	0.384100	0.026300
H371	H37	0.500000	0.385800	0.093800
C521	C52	0.500000	0.429700	0.974500
C531	C53	0.500000	0.426800	0.875600
H381	H38	0.500000	0.458400	0.837800
C541	C54	0.500000	0.375300	0.833300
H391	H39	0.500000	0.372300	0.766000
C551	C55	0.500000	0.296500	0.459900
H401	H40	0.500000	0.329600	0.493600
C561	C56	0.500000	0.297500	0.360900
N221	N22	0.500000	0.330200	0.886900
N231	N23	0.500000	0.480600	0.025500
N241	N24	0.500000	0.348900	0.322000
O311	O31	0.500000	0.205700	0.658900
O321	O32	0.500000	0.355100	0.239300
C571	C57	0.000000	0.250000	0.383600
C581	C58	0.000000	0.250000	0.490400
C591	C59	0.000000	0.250000	0.690400
C601	C60	0.000000	0.250000	0.798800
Cd11	Cd1	0.000000	0.250000	0.192280
C611	C61	0.500000	0.750000	0.383600
C621	C62	0.500000	0.750000	0.490400
C631	C63	0.500000	0.750000	0.690400
C641	C64	0.500000	0.750000	0.798800
Cd21	Cd2	0.500000	0.750000	0.192280
C651	C65	0.000000	0.750000	0.616400
C661	C66	0.000000	0.750000	0.509600
C671	C67	0.000000	0.750000	0.309600
C681	C68	0.000000	0.750000	0.201200
Cd31	Cd3	0.000000	0.750000	0.807720
C691	C69	0.500000	0.250000	0.616400
C701	C70	0.500000	0.250000	0.509600
C711	C71	0.500000	0.250000	0.309600
C721	C72	0.500000	0.250000	0.201200
Cd41	Cd4	0.500000	0.250000	0.807720
O331	O33	0.160600	0.250000	0.839600
O341	O34	0.660600	0.750000	0.839600
O351	O35	0.839400	0.250000	0.839600
O361	O36	0.339400	0.750000	0.839600
O371	O37	0.839400	0.750000	0.160400
O381	O38	0.339400	0.250000	0.160400
O391	O39	0.160600	0.750000	0.160400
O401	O40	0.660600	0.250000	0.160400
