data_DIYKAZ_freeONLY_PM
_symmetry_space_group_name_H-M	'P1'
_cell_length_a	16.355200
_cell_length_b	16.003500
_cell_length_c	12.102400
_cell_angle_alpha	90.000000
_cell_angle_beta	111.399000
_cell_angle_gamma	90.000000
_symmetry_Int_Tables_number 1

loop_
_symmetry_equiv_pos_as_xyz
'x,y,z'

loop_
_atom_site_label
_atom_site_type_symbol
_atom_site_fract_x
_atom_site_fract_y
_atom_site_fract_z
Cd11	Cd1	0.488090	0.180600	0.591790
N11	N1	0.426410	0.225200	0.400000
N21	N2	0.385040	0.070380	0.563300
O11	O1	0.428950	0.920900	0.491120
O21	O2	0.402590	0.911750	0.300700
C11	C1	0.387600	0.943870	0.386200
O31	O3	0.116050	0.248590	0.356500
O41	O4	0.076180	0.212910	0.164900
C21	C2	0.381000	0.296300	0.369400
C31	C3	0.423500	0.173200	0.312700
H11	H1	0.414100	0.021400	0.576000
H21	H2	0.360000	0.075200	0.618000
C41	C4	0.317200	0.068200	0.448300
C51	C5	0.319600	0.011270	0.360900
C61	C6	0.332700	0.316400	0.252100
H31	H3	0.381900	0.333700	0.428700
C71	C7	0.376800	0.189500	0.194800
H41	H4	0.454700	0.123400	0.332500
C81	C8	0.251900	0.129200	0.420000
C91	C9	0.257500	0.020200	0.245300
H51	H5	0.301600	0.366400	0.234100
C101	C10	0.330600	0.262600	0.162000
H61	H6	0.376500	0.150900	0.137200
C111	C11	0.190400	0.136500	0.304700
H71	H7	0.249300	0.165500	0.478600
C121	C12	0.193800	0.081500	0.216800
H81	H8	0.259300	0.983800	0.186400
C131	C13	0.280200	0.281900	0.032000
C141	C14	0.121600	0.204900	0.273600
H91	H9	0.153400	0.086200	0.139600
H101	H10	0.247900	0.333500	0.026700
H111	H11	0.322100	0.291200	0.993400
Cd21	Cd2	0.988090	0.680600	0.591790
N31	N3	0.926410	0.725200	0.400000
N41	N4	0.885040	0.570380	0.563300
O51	O5	0.928950	0.420900	0.491120
O61	O6	0.902590	0.411750	0.300700
C151	C15	0.887600	0.443870	0.386200
O71	O7	0.616050	0.748590	0.356500
O81	O8	0.576180	0.712910	0.164900
C161	C16	0.881000	0.796300	0.369400
C171	C17	0.923500	0.673200	0.312700
H121	H12	0.914100	0.521400	0.576000
H131	H13	0.860000	0.575200	0.618000
C181	C18	0.817200	0.568200	0.448300
C191	C19	0.819600	0.511270	0.360900
C201	C20	0.832700	0.816400	0.252100
H141	H14	0.881900	0.833700	0.428700
C211	C21	0.876800	0.689500	0.194800
H151	H15	0.954700	0.623400	0.332500
C221	C22	0.751900	0.629200	0.420000
C231	C23	0.757500	0.520200	0.245300
H161	H16	0.801600	0.866400	0.234100
C241	C24	0.830600	0.762600	0.162000
H171	H17	0.876500	0.650900	0.137200
C251	C25	0.690400	0.636500	0.304700
H181	H18	0.749300	0.665500	0.478600
C261	C26	0.693800	0.581500	0.216800
H191	H19	0.759300	0.483800	0.186400
C271	C27	0.780200	0.781900	0.032000
C281	C28	0.621600	0.704900	0.273600
H201	H20	0.653400	0.586200	0.139600
H211	H21	0.747900	0.833500	0.026700
H221	H22	0.822100	0.791200	0.993400
Cd31	Cd3	0.511910	0.180600	0.908210
N51	N5	0.573590	0.225200	0.100000
N61	N6	0.614960	0.070380	0.936700
O91	O9	0.571050	0.920900	0.008880
O101	O10	0.597410	0.911750	0.199300
C291	C29	0.612400	0.943870	0.113800
O111	O11	0.883950	0.248590	0.143500
O121	O12	0.923820	0.212910	0.335100
C301	C30	0.619000	0.296300	0.130600
C311	C31	0.576500	0.173200	0.187300
H231	H23	0.585900	0.021400	0.924000
H241	H24	0.640000	0.075200	0.882000
C321	C32	0.682800	0.068200	0.051700
C331	C33	0.680400	0.011270	0.139100
C341	C34	0.667300	0.316400	0.247900
H251	H25	0.618100	0.333700	0.071300
C351	C35	0.623200	0.189500	0.305200
H261	H26	0.545300	0.123400	0.167500
C361	C36	0.748100	0.129200	0.080000
C371	C37	0.742500	0.020200	0.254700
H271	H27	0.698400	0.366400	0.265900
C381	C38	0.669400	0.262600	0.338000
H281	H28	0.623500	0.150900	0.362800
C391	C39	0.809600	0.136500	0.195300
H291	H29	0.750700	0.165500	0.021400
C401	C40	0.806200	0.081500	0.283200
H301	H30	0.740700	0.983800	0.313600
C411	C41	0.719800	0.281900	0.468000
C421	C42	0.878400	0.204900	0.226400
H311	H31	0.846600	0.086200	0.360400
H321	H32	0.752100	0.333500	0.473300
H331	H33	0.677900	0.291200	0.506600
Cd41	Cd4	0.011910	0.680600	0.908210
N71	N7	0.073590	0.725200	0.100000
N81	N8	0.114960	0.570380	0.936700
O131	O13	0.071050	0.420900	0.008880
O141	O14	0.097410	0.411750	0.199300
C431	C43	0.112400	0.443870	0.113800
O151	O15	0.383950	0.748590	0.143500
O161	O16	0.423820	0.712910	0.335100
C441	C44	0.119000	0.796300	0.130600
C451	C45	0.076500	0.673200	0.187300
H341	H34	0.085900	0.521400	0.924000
H351	H35	0.140000	0.575200	0.882000
C461	C46	0.182800	0.568200	0.051700
C471	C47	0.180400	0.511270	0.139100
C481	C48	0.167300	0.816400	0.247900
H361	H36	0.118100	0.833700	0.071300
C491	C49	0.123200	0.689500	0.305200
H371	H37	0.045300	0.623400	0.167500
C501	C50	0.248100	0.629200	0.080000
C511	C51	0.242500	0.520200	0.254700
H381	H38	0.198400	0.866400	0.265900
C521	C52	0.169400	0.762600	0.338000
H391	H39	0.123500	0.650900	0.362800
C531	C53	0.309600	0.636500	0.195300
H401	H40	0.250700	0.665500	0.021400
C541	C54	0.306200	0.581500	0.283200
H411	H41	0.240700	0.483800	0.313600
C551	C55	0.219800	0.781900	0.468000
C561	C56	0.378400	0.704900	0.226400
H421	H42	0.346600	0.586200	0.360400
H431	H43	0.252100	0.833500	0.473300
H441	H44	0.177900	0.791200	0.506600
Cd51	Cd5	0.511910	0.819400	0.408210
N91	N9	0.573590	0.774800	0.600000
N101	N10	0.614960	0.929620	0.436700
O171	O17	0.571050	0.079100	0.508880
O181	O18	0.597410	0.088250	0.699300
C571	C57	0.612400	0.056130	0.613800
O191	O19	0.883950	0.751410	0.643500
O201	O20	0.923820	0.787090	0.835100
C581	C58	0.619000	0.703700	0.630600
C591	C59	0.576500	0.826800	0.687300
H451	H45	0.585900	0.978600	0.424000
H461	H46	0.640000	0.924800	0.382000
C601	C60	0.682800	0.931800	0.551700
C611	C61	0.680400	0.988730	0.639100
C621	C62	0.667300	0.683600	0.747900
H471	H47	0.618100	0.666300	0.571300
C631	C63	0.623200	0.810500	0.805200
H481	H48	0.545300	0.876600	0.667500
C641	C64	0.748100	0.870800	0.580000
C651	C65	0.742500	0.979800	0.754700
H491	H49	0.698400	0.633600	0.765900
C661	C66	0.669400	0.737400	0.838000
H501	H50	0.623500	0.849100	0.862800
C671	C67	0.809600	0.863500	0.695300
H511	H51	0.750700	0.834500	0.521400
C681	C68	0.806200	0.918500	0.783200
H521	H52	0.740700	0.016200	0.813600
C691	C69	0.719800	0.718100	0.968000
C701	C70	0.878400	0.795100	0.726400
H531	H53	0.846600	0.913800	0.860400
H541	H54	0.752100	0.666500	0.973300
H551	H55	0.677900	0.708800	0.006600
Cd61	Cd6	0.011910	0.319400	0.408210
N111	N11	0.073590	0.274800	0.600000
N121	N12	0.114960	0.429620	0.436700
O211	O21	0.071050	0.579100	0.508880
O221	O22	0.097410	0.588250	0.699300
C711	C71	0.112400	0.556130	0.613800
O231	O23	0.383950	0.251410	0.643500
O241	O24	0.423820	0.287090	0.835100
C721	C72	0.119000	0.203700	0.630600
C731	C73	0.076500	0.326800	0.687300
H561	H56	0.085900	0.478600	0.424000
H571	H57	0.140000	0.424800	0.382000
C741	C74	0.182800	0.431800	0.551700
C751	C75	0.180400	0.488730	0.639100
C761	C76	0.167300	0.183600	0.747900
H581	H58	0.118100	0.166300	0.571300
C771	C77	0.123200	0.310500	0.805200
H591	H59	0.045300	0.376600	0.667500
C781	C78	0.248100	0.370800	0.580000
C791	C79	0.242500	0.479800	0.754700
H601	H60	0.198400	0.133600	0.765900
C801	C80	0.169400	0.237400	0.838000
H611	H61	0.123500	0.349100	0.862800
C811	C81	0.309600	0.363500	0.695300
H621	H62	0.250700	0.334500	0.521400
C821	C82	0.306200	0.418500	0.783200
H631	H63	0.240700	0.516200	0.813600
C831	C83	0.219800	0.218100	0.968000
C841	C84	0.378400	0.295100	0.726400
H641	H64	0.346600	0.413800	0.860400
H651	H65	0.252100	0.166500	0.973300
H661	H66	0.177900	0.208800	0.006600
Cd71	Cd7	0.488090	0.819400	0.091790
N131	N13	0.426410	0.774800	0.900000
N141	N14	0.385040	0.929620	0.063300
O251	O25	0.428950	0.079100	0.991120
O261	O26	0.402590	0.088250	0.800700
C851	C85	0.387600	0.056130	0.886200
O271	O27	0.116050	0.751410	0.856500
O281	O28	0.076180	0.787090	0.664900
C861	C86	0.381000	0.703700	0.869400
C871	C87	0.423500	0.826800	0.812700
H671	H67	0.414100	0.978600	0.076000
H681	H68	0.360000	0.924800	0.118000
C881	C88	0.317200	0.931800	0.948300
C891	C89	0.319600	0.988730	0.860900
C901	C90	0.332700	0.683600	0.752100
H691	H69	0.381900	0.666300	0.928700
C911	C91	0.376800	0.810500	0.694800
H701	H70	0.454700	0.876600	0.832500
C921	C92	0.251900	0.870800	0.920000
C931	C93	0.257500	0.979800	0.745300
H711	H71	0.301600	0.633600	0.734100
C941	C94	0.330600	0.737400	0.662000
H721	H72	0.376500	0.849100	0.637200
C951	C95	0.190400	0.863500	0.804700
H731	H73	0.249300	0.834500	0.978600
C961	C96	0.193800	0.918500	0.716800
H741	H74	0.259300	0.016200	0.686400
C971	C97	0.280200	0.718100	0.532000
C981	C98	0.121600	0.795100	0.773600
H751	H75	0.153400	0.913800	0.639600
H761	H76	0.247900	0.666500	0.526700
H771	H77	0.322100	0.708800	0.493400
Cd81	Cd8	0.988090	0.319400	0.091790
N151	N15	0.926410	0.274800	0.900000
N161	N16	0.885040	0.429620	0.063300
O291	O29	0.928950	0.579100	0.991120
O301	O30	0.902590	0.588250	0.800700
C991	C99	0.887600	0.556130	0.886200
O311	O31	0.616050	0.251410	0.856500
O321	O32	0.576180	0.287090	0.664900
C1001	C100	0.881000	0.203700	0.869400
C1011	C101	0.923500	0.326800	0.812700
H781	H78	0.914100	0.478600	0.076000
H791	H79	0.860000	0.424800	0.118000
C1021	C102	0.817200	0.431800	0.948300
C1031	C103	0.819600	0.488730	0.860900
C1041	C104	0.832700	0.183600	0.752100
H801	H80	0.881900	0.166300	0.928700
C1051	C105	0.876800	0.310500	0.694800
H811	H81	0.954700	0.376600	0.832500
C1061	C106	0.751900	0.370800	0.920000
C1071	C107	0.757500	0.479800	0.745300
H821	H82	0.801600	0.133600	0.734100
C1081	C108	0.830600	0.237400	0.662000
H831	H83	0.876500	0.349100	0.637200
C1091	C109	0.690400	0.363500	0.804700
H841	H84	0.749300	0.334500	0.978600
C1101	C110	0.693800	0.418500	0.716800
H851	H85	0.759300	0.516200	0.686400
C1111	C111	0.780200	0.218100	0.532000
C1121	C112	0.621600	0.295100	0.773600
H861	H86	0.653400	0.413800	0.639600
H871	H87	0.747900	0.166500	0.526700
H881	H88	0.822100	0.208800	0.493400
