data_DIYWIT_freeONLY_PM
_symmetry_space_group_name_H-M	'P1'
_cell_length_a	11.128000
_cell_length_b	14.055000
_cell_length_c	22.979000
_cell_angle_alpha	90.000000
_cell_angle_beta	103.992000
_cell_angle_gamma	90.000000
_symmetry_Int_Tables_number 1

loop_
_symmetry_equiv_pos_as_xyz
'x,y,z'

loop_
_atom_site_label
_atom_site_type_symbol
_atom_site_fract_x
_atom_site_fract_y
_atom_site_fract_z
Cd11	Cd1	0.066860	0.671200	0.192860
Cd21	Cd2	0.698610	0.526060	0.197750
Cd31	Cd3	0.301390	0.473940	0.802250
Cd41	Cd4	0.801390	0.026060	0.302250
Cd51	Cd5	0.433140	0.171200	0.307140
Cd61	Cd6	0.198610	0.973940	0.697750
Cd71	Cd7	0.933140	0.328800	0.807140
Cd81	Cd8	0.566860	0.828800	0.692860
H11	H1	0.774100	0.270900	0.578100
H21	H2	0.266100	0.132800	0.970000
H31	H3	0.492300	0.937900	0.813800
H41	H4	0.888200	0.592700	0.568100
H51	H5	0.262900	0.316400	0.492100
H61	H6	0.274100	0.229100	0.078100
H71	H7	0.938100	0.840700	0.491600
H81	H8	0.514400	0.298600	0.272300
H91	H9	0.030400	0.941400	0.794900
H101	H10	0.438100	0.659300	0.991600
H111	H11	0.886300	0.956800	0.091500
H121	H12	0.485600	0.701400	0.727700
H131	H13	0.197100	0.966500	0.424100
H141	H14	0.302900	0.466500	0.075900
H151	H15	0.766100	0.367200	0.470000
H161	H16	0.969600	0.058600	0.205100
H171	H17	0.507700	0.062100	0.186200
H181	H18	0.195000	0.275800	0.718600
H191	H19	0.753800	0.761000	0.376300
H201	H20	0.560100	0.703500	0.424800
H211	H21	0.598300	0.354700	0.915400
H221	H22	0.237100	0.816400	0.007900
H231	H23	0.212200	0.699400	0.627300
H241	H24	0.990900	0.888600	0.895300
H251	H25	0.018600	0.450500	0.579100
H261	H26	0.113700	0.043200	0.908500
H271	H27	0.805000	0.724200	0.281400
H281	H28	0.401700	0.645300	0.084600
H291	H29	0.550800	0.164600	0.782300
H301	H30	0.737900	0.737800	0.819400
H311	H31	0.007700	0.437900	0.686200
H321	H32	0.237900	0.762200	0.319400
H331	H33	0.992300	0.562100	0.313800
H341	H34	0.981400	0.549500	0.420900
H351	H35	0.939900	0.203500	0.075200
H361	H36	0.060100	0.796500	0.924800
H371	H37	0.225900	0.729100	0.421900
H381	H38	0.386300	0.543200	0.591500
H391	H39	0.490900	0.611400	0.395300
H401	H40	0.712200	0.800600	0.127300
H411	H41	0.762100	0.237800	0.680600
H421	H42	0.548100	0.632300	0.722600
H431	H43	0.451900	0.367700	0.277400
H441	H44	0.737100	0.683600	0.507900
H451	H45	0.155500	0.426900	0.990800
H461	H46	0.287800	0.199400	0.872700
H471	H47	0.844500	0.573100	0.009200
H481	H48	0.655500	0.073100	0.490800
H491	H49	0.344500	0.926900	0.509200
H501	H50	0.733900	0.867200	0.030000
H511	H51	0.048100	0.867700	0.222600
H521	H52	0.613700	0.456800	0.408500
H531	H53	0.787800	0.300600	0.372700
H541	H54	0.098300	0.145300	0.415400
H551	H55	0.246200	0.239000	0.623700
H561	H56	0.481400	0.950500	0.920900
H571	H57	0.746200	0.261000	0.123700
H581	H58	0.725900	0.770900	0.921900
H591	H59	0.901700	0.854700	0.584600
H601	H60	0.233900	0.632800	0.530000
H611	H61	0.262100	0.262200	0.180600
H621	H62	0.611800	0.092700	0.931900
H631	H63	0.388200	0.907300	0.068100
H641	H64	0.561900	0.340700	0.008400
H651	H65	0.802900	0.033500	0.575900
H661	H66	0.531200	0.860900	0.960000
H671	H67	0.061900	0.159300	0.508400
H681	H68	0.951900	0.132300	0.777400
H691	H69	0.009100	0.111400	0.104700
H701	H70	0.305000	0.775800	0.781400
H711	H71	0.014400	0.201400	0.772300
H721	H72	0.469600	0.441400	0.705100
H731	H73	0.439900	0.296500	0.575200
H741	H74	0.449200	0.835400	0.217700
H751	H75	0.253800	0.739000	0.876300
H761	H76	0.509100	0.388600	0.604700
H771	H77	0.985600	0.798600	0.227700
H781	H78	0.050800	0.335400	0.282300
H791	H79	0.697100	0.533500	0.924100
H801	H80	0.111800	0.407300	0.431900
H811	H81	0.468800	0.139100	0.040000
H821	H82	0.518600	0.049500	0.079100
H831	H83	0.530400	0.558600	0.294900
H841	H84	0.031200	0.639100	0.460000
H851	H85	0.762900	0.183600	0.992100
H861	H86	0.968800	0.360900	0.540000
H871	H87	0.695000	0.224200	0.218600
H881	H88	0.949200	0.664600	0.717700
C11	C1	0.051800	0.608500	0.327700
C21	C2	0.333200	0.852200	0.609170
C31	C3	0.761500	0.431900	0.477500
C41	C4	0.907300	0.764300	0.652830
C51	C5	0.434900	0.285400	0.902520
C61	C6	0.065100	0.785400	0.597480
C71	C7	0.051200	0.909400	0.449540
C81	C8	0.864400	0.283800	0.366250
C91	C9	0.330100	0.514400	0.559800
C101	C10	0.094700	0.671900	0.679160
C111	C11	0.980200	0.140300	0.504070
C121	C12	0.762100	0.588900	0.006330
C131	C13	0.666100	0.064400	0.964400
C141	C14	0.545100	0.439500	0.104280
C151	C15	0.654300	0.971000	0.974700
C161	C16	0.934900	0.214600	0.402520
C171	C17	0.325900	0.434200	0.044900
C181	C18	0.551800	0.891500	0.827700
C191	C19	0.070700	0.857000	0.906400
C201	C20	0.262100	0.911100	0.506330
C211	C21	0.261500	0.068100	0.977500
C221	C22	0.813600	0.282400	0.669100
C231	C23	0.049700	0.191500	0.391880
C241	C24	0.825900	0.065800	0.544900
C251	C25	0.978600	0.695400	0.688050
C261	C26	0.213700	0.208200	0.334670
C271	C27	0.166100	0.435600	0.464400
C281	C28	0.045100	0.060500	0.604280
C291	C29	0.738500	0.931900	0.022500
C301	C30	0.929300	0.143000	0.093600
C311	C31	0.674900	0.897600	0.220340
C321	C32	0.092700	0.235700	0.347170
C331	C33	0.345700	0.029000	0.025300
C341	C34	0.551200	0.590600	0.949540
C351	C35	0.592700	0.264300	0.847170
C361	C36	0.174100	0.934200	0.455100
C371	C37	0.325100	0.102400	0.779660
C381	C38	0.837700	0.081800	0.049700
C391	C39	0.674100	0.565800	0.955100
C401	C40	0.162300	0.918200	0.950300
C411	C41	0.238500	0.568100	0.522500
C421	C42	0.592100	0.604700	0.302990
C431	C43	0.313600	0.217600	0.169100
C441	C44	0.554000	0.911300	0.936000
C451	C45	0.662300	0.581800	0.450300
C461	C46	0.549700	0.308500	0.891880
C471	C47	0.243100	0.880500	0.999000
C481	C48	0.054000	0.588700	0.436000
C491	C49	0.019800	0.859700	0.495930
C501	C50	0.946000	0.411300	0.564000
C511	C51	0.679700	0.800300	0.887400
C521	C52	0.845700	0.471000	0.525300
C531	C53	0.405300	0.171900	0.820840
C541	C54	0.269600	0.364600	0.946010
C551	C55	0.333900	0.935600	0.035600
C561	C56	0.478600	0.804600	0.188050
C571	C57	0.742900	0.695500	0.295970
C581	C58	0.169900	0.014400	0.940200
C591	C59	0.186400	0.717600	0.330900
C601	C60	0.905300	0.328100	0.320840
C611	C61	0.154300	0.529000	0.474700
C621	C62	0.407300	0.735700	0.152830
C631	C63	0.446000	0.088700	0.064000
C641	C64	0.833900	0.564400	0.535600
C651	C65	0.364400	0.216200	0.866250
C661	C66	0.714700	0.716200	0.348300
C671	C67	0.948200	0.391500	0.672300
C681	C68	0.286300	0.708200	0.165330
C691	C69	0.954900	0.939500	0.395720
C701	C70	0.256900	0.380500	0.501000
C711	C71	0.521400	0.195400	0.811950
C721	C72	0.454900	0.560500	0.895720
C731	C73	0.480200	0.359700	0.004070
C741	C74	0.666800	0.147800	0.390830
C751	C75	0.448800	0.409400	0.050460
C761	C76	0.230400	0.864600	0.553990
C771	C77	0.635600	0.783800	0.133750
C781	C78	0.257100	0.304500	0.704030
C791	C79	0.179700	0.699700	0.387400
C801	C80	0.785300	0.216200	0.151700
C811	C81	0.519800	0.640300	0.995930
C821	C82	0.607200	0.662800	0.049020
C831	C83	0.135600	0.716200	0.633750
C841	C84	0.686400	0.782400	0.830900
C851	C85	0.892800	0.162800	0.450980
C861	C86	0.285300	0.283800	0.651700
C871	C87	0.429300	0.357000	0.593600
C881	C88	0.570700	0.643000	0.406400
C891	C89	0.950300	0.808500	0.608120
C901	C90	0.237900	0.411100	0.993670
C911	C91	0.820300	0.300300	0.612600
C921	C92	0.730400	0.635400	0.053990
C931	C93	0.450300	0.691500	0.108120
C941	C94	0.107200	0.837200	0.549020
C951	C95	0.407900	0.395300	0.697010
C961	C96	0.786300	0.791800	0.665330
C971	C97	0.242900	0.804500	0.795970
C981	C98	0.021400	0.304600	0.311950
C991	C99	0.737900	0.088900	0.493670
C1001	C100	0.669900	0.485600	0.440200
C1011	C101	0.174900	0.602400	0.720340
C1021	C102	0.769600	0.135400	0.446010
C1031	C103	0.825100	0.397600	0.279660
C1041	C104	0.320300	0.199700	0.112600
C1051	C105	0.743100	0.619500	0.499000
C1061	C106	0.337700	0.418200	0.549700
C1071	C107	0.092100	0.895300	0.802990
C1081	C108	0.392800	0.337200	0.950980
C1091	C109	0.448200	0.108500	0.172300
C1101	C110	0.830100	0.985600	0.059800
C1111	C111	0.713700	0.291800	0.834670
C1121	C112	0.833200	0.647800	0.109170
C1131	C113	0.594700	0.828100	0.179160
C1141	C114	0.907900	0.104700	0.197010
C1151	C115	0.565100	0.714600	0.097480
C1161	C116	0.166800	0.352200	0.890830
C1171	C117	0.757100	0.195500	0.204030
C1181	C118	0.948800	0.090600	0.550460
C1191	C119	0.214700	0.783800	0.848300
C1201	C120	0.756900	0.119500	0.001000
N11	N1	0.618000	0.658900	0.352440
N21	N2	0.835300	0.124800	0.232570
N31	N3	0.093400	0.630900	0.385030
N41	N4	0.335300	0.375200	0.732570
N51	N5	0.395800	0.159100	0.206960
N61	N6	0.593400	0.869100	0.885030
N71	N7	0.118000	0.841100	0.852440
N81	N8	0.604200	0.840900	0.793040
N91	N9	0.164700	0.875200	0.767430
N101	N10	0.664700	0.624800	0.267430
N111	N11	0.104200	0.659100	0.293040
N121	N12	0.895800	0.340900	0.706960
N131	N13	0.406600	0.130900	0.114970
N141	N14	0.906600	0.369100	0.614970
N151	N15	0.882000	0.158900	0.147560
N161	N16	0.382000	0.341100	0.647560
O11	O1	0.179600	0.374530	0.839300
O21	O2	0.276000	0.143000	0.364500
O31	O3	0.999800	0.830500	0.198590
O41	O4	0.212200	0.098550	0.777000
O51	O5	0.712200	0.401450	0.277000
O61	O6	0.374100	0.049410	0.747440
O71	O7	0.287800	0.598550	0.723000
O81	O8	0.224000	0.643000	0.135500
O91	O9	0.433700	0.821300	0.601650
O101	O10	0.509700	0.483260	0.145390
O111	O11	0.990300	0.983260	0.354610
O121	O12	0.000200	0.169500	0.801410
O131	O13	0.157000	0.074400	0.606790
O141	O14	0.625900	0.950590	0.252560
O151	O15	0.490300	0.516740	0.854610
O161	O16	0.874100	0.450590	0.247440
O171	O17	0.499800	0.669500	0.698590
O181	O18	0.320400	0.874530	0.660700
O191	O19	0.125900	0.549410	0.752560
O201	O20	0.251200	0.751200	0.205430
O211	O21	0.843000	0.925600	0.393210
O221	O22	0.343000	0.574400	0.893210
O231	O23	0.820400	0.625470	0.160700
O241	O24	0.248800	0.251200	0.294570
O251	O25	0.933700	0.678700	0.101650
O261	O26	0.776000	0.357000	0.864500
O271	O27	0.657000	0.425600	0.106790
O281	O28	0.748800	0.248800	0.794570
O291	O29	0.009700	0.016740	0.645390
O301	O30	0.751200	0.748800	0.705430
O311	O31	0.566300	0.178700	0.398350
O321	O32	0.500200	0.330500	0.301410
O331	O33	0.679600	0.125470	0.339300
O341	O34	0.066300	0.321300	0.898350
O351	O35	0.724000	0.857000	0.635500
O361	O36	0.787800	0.901450	0.223000
