data_DOHNUL_freeONLY_PM
_symmetry_space_group_name_H-M	'P1'
_cell_length_a	10.586000
_cell_length_b	28.043000
_cell_length_c	17.448000
_cell_angle_alpha	90.000000
_cell_angle_beta	92.080000
_cell_angle_gamma	90.000000
_symmetry_Int_Tables_number 1

loop_
_symmetry_equiv_pos_as_xyz
'x,y,z'

loop_
_atom_site_label
_atom_site_type_symbol
_atom_site_fract_x
_atom_site_fract_y
_atom_site_fract_z
O11	O1	0.149000	0.386540	0.305600
N11	N1	0.078900	0.457250	0.168900
C11	C1	0.111200	0.350870	0.343900
C21	C2	0.062500	0.446400	0.095500
C31	C3	0.162200	0.491400	0.186700
O21	O2	0.997000	0.341740	0.348500
C41	C4	0.210600	0.324290	0.391000
H11	H1	0.000600	0.424100	0.081800
C51	C5	0.132100	0.466200	0.037900
C61	C6	0.234900	0.513700	0.133000
H21	H2	0.172100	0.500700	0.237700
Zn11	Zn1	0.861470	0.287100	0.370770
C71	C7	0.232400	0.339600	0.465700
C81	C8	0.281000	0.286100	0.362700
H31	H3	0.118400	0.456900	0.987200
C91	C9	0.222300	0.500300	0.057200
H41	H4	0.291700	0.537500	0.148000
O31	O3	0.722900	0.231810	0.387500
O41	O4	0.173100	0.287070	0.242500
O51	O5	0.495900	0.264350	0.607100
O61	O6	0.561800	0.224390	0.508200
N21	N2	0.731600	0.660100	0.899900
C101	C10	0.488900	0.255500	0.537200
H51	H5	0.185900	0.365000	0.484300
C111	C11	0.323100	0.317500	0.513200
C121	C12	0.372600	0.265100	0.410700
C131	C13	0.259300	0.267000	0.283000
C141	C14	0.305600	0.519700	0.000100
H61	H6	0.725000	0.212000	0.351000
H71	H7	0.650000	0.244000	0.389000
C151	C15	0.690400	0.653100	0.970400
C161	C16	0.680500	0.632900	0.843900
C171	C17	0.393400	0.280300	0.485800
H81	H8	0.336400	0.327900	0.563500
H91	H9	0.421100	0.240200	0.392100
O71	O7	0.319900	0.232400	0.262900
N31	N3	0.308300	0.503700	0.927800
N41	N4	0.389900	0.554270	0.013100
C181	C18	0.599000	0.620900	0.987200
H101	H10	0.726000	0.671200	0.010200
C191	C19	0.588300	0.600000	0.856600
H111	H11	0.708700	0.636600	0.794300
H121	H12	0.261400	0.481600	0.907900
N51	N5	0.399300	0.529000	0.891100
C201	C20	0.444700	0.558800	0.944900
C211	C21	0.544900	0.593300	0.929500
H131	H13	0.573400	0.617600	0.037300
H141	H14	0.554800	0.582000	0.816000
O81	O8	0.649000	0.886540	0.305600
N61	N6	0.578900	0.957250	0.168900
C221	C22	0.611200	0.850870	0.343900
C231	C23	0.562500	0.946400	0.095500
C241	C24	0.662200	0.991400	0.186700
O91	O9	0.497000	0.841740	0.348500
C251	C25	0.710600	0.824290	0.391000
H151	H15	0.500600	0.924100	0.081800
C261	C26	0.632100	0.966200	0.037900
C271	C27	0.734900	0.013700	0.133000
H161	H16	0.672100	0.000700	0.237700
Zn21	Zn2	0.361470	0.787100	0.370770
C281	C28	0.732400	0.839600	0.465700
C291	C29	0.781000	0.786100	0.362700
H171	H17	0.618400	0.956900	0.987200
C301	C30	0.722300	0.000300	0.057200
H181	H18	0.791700	0.037500	0.148000
O101	O10	0.222900	0.731810	0.387500
O111	O11	0.673100	0.787070	0.242500
O121	O12	0.995900	0.764350	0.607100
O131	O13	0.061800	0.724390	0.508200
N71	N7	0.231600	0.160100	0.899900
C311	C31	0.988900	0.755500	0.537200
H191	H19	0.685900	0.865000	0.484300
C321	C32	0.823100	0.817500	0.513200
C331	C33	0.872600	0.765100	0.410700
C341	C34	0.759300	0.767000	0.283000
C351	C35	0.805600	0.019700	0.000100
H201	H20	0.225000	0.712000	0.351000
H211	H21	0.150000	0.744000	0.389000
C361	C36	0.190400	0.153100	0.970400
C371	C37	0.180500	0.132900	0.843900
C381	C38	0.893400	0.780300	0.485800
H221	H22	0.836400	0.827900	0.563500
H231	H23	0.921100	0.740200	0.392100
O141	O14	0.819900	0.732400	0.262900
N81	N8	0.808300	0.003700	0.927800
N91	N9	0.889900	0.054270	0.013100
C391	C39	0.099000	0.120900	0.987200
H241	H24	0.226000	0.171200	0.010200
C401	C40	0.088300	0.100000	0.856600
H251	H25	0.208700	0.136600	0.794300
H261	H26	0.761400	0.981600	0.907900
N101	N10	0.899300	0.029000	0.891100
C411	C41	0.944700	0.058800	0.944900
C421	C42	0.044900	0.093300	0.929500
H271	H27	0.073400	0.117600	0.037300
H281	H28	0.054800	0.082000	0.816000
O151	O15	0.851000	0.386540	0.194400
N111	N11	0.921100	0.457250	0.331100
C431	C43	0.888800	0.350870	0.156100
C441	C44	0.937500	0.446400	0.404500
C451	C45	0.837800	0.491400	0.313300
O161	O16	0.003000	0.341740	0.151500
C461	C46	0.789400	0.324290	0.109000
H291	H29	0.999400	0.424100	0.418200
C471	C47	0.867900	0.466200	0.462100
C481	C48	0.765100	0.513700	0.367000
H301	H30	0.827900	0.500700	0.262300
Zn31	Zn3	0.138530	0.287100	0.129230
C491	C49	0.767600	0.339600	0.034300
C501	C50	0.719000	0.286100	0.137300
H311	H31	0.881600	0.456900	0.512800
C511	C51	0.777700	0.500300	0.442800
H321	H32	0.708300	0.537500	0.352000
O171	O17	0.277100	0.231810	0.112500
O181	O18	0.826900	0.287070	0.257500
O191	O19	0.504100	0.264350	0.892900
O201	O20	0.438200	0.224390	0.991800
N121	N12	0.268400	0.660100	0.600100
C521	C52	0.511100	0.255500	0.962800
H331	H33	0.814100	0.365000	0.015700
C531	C53	0.676900	0.317500	0.986800
C541	C54	0.627400	0.265100	0.089300
C551	C55	0.740700	0.267000	0.217000
C561	C56	0.694400	0.519700	0.499900
H341	H34	0.275000	0.212000	0.149000
H351	H35	0.350000	0.244000	0.111000
C571	C57	0.309600	0.653100	0.529600
C581	C58	0.319500	0.632900	0.656100
C591	C59	0.606600	0.280300	0.014200
H361	H36	0.663600	0.327900	0.936500
H371	H37	0.578900	0.240200	0.107900
O211	O21	0.680100	0.232400	0.237100
N131	N13	0.691700	0.503700	0.572200
N141	N14	0.610100	0.554270	0.486900
C601	C60	0.401000	0.620900	0.512800
H381	H38	0.274000	0.671200	0.489800
C611	C61	0.411700	0.600000	0.643400
H391	H39	0.291300	0.636600	0.705700
H401	H40	0.738600	0.481600	0.592100
N151	N15	0.600700	0.529000	0.608900
C621	C62	0.555300	0.558800	0.555100
C631	C63	0.455100	0.593300	0.570500
H411	H41	0.426600	0.617600	0.462700
H421	H42	0.445200	0.582000	0.684000
O221	O22	0.351000	0.886540	0.194400
N161	N16	0.421100	0.957250	0.331100
C641	C64	0.388800	0.850870	0.156100
C651	C65	0.437500	0.946400	0.404500
C661	C66	0.337800	0.991400	0.313300
O231	O23	0.503000	0.841740	0.151500
C671	C67	0.289400	0.824290	0.109000
H431	H43	0.499400	0.924100	0.418200
C681	C68	0.367900	0.966200	0.462100
C691	C69	0.265100	0.013700	0.367000
H441	H44	0.327900	0.000700	0.262300
Zn41	Zn4	0.638530	0.787100	0.129230
C701	C70	0.267600	0.839600	0.034300
C711	C71	0.219000	0.786100	0.137300
H451	H45	0.381600	0.956900	0.512800
C721	C72	0.277700	0.000300	0.442800
H461	H46	0.208300	0.037500	0.352000
O241	O24	0.777100	0.731810	0.112500
O251	O25	0.326900	0.787070	0.257500
O261	O26	0.004100	0.764350	0.892900
O271	O27	0.938200	0.724390	0.991800
N171	N17	0.768400	0.160100	0.600100
C731	C73	0.011100	0.755500	0.962800
H471	H47	0.314100	0.865000	0.015700
C741	C74	0.176900	0.817500	0.986800
C751	C75	0.127400	0.765100	0.089300
C761	C76	0.240700	0.767000	0.217000
C771	C77	0.194400	0.019700	0.499900
H481	H48	0.775000	0.712000	0.149000
H491	H49	0.850000	0.744000	0.111000
C781	C78	0.809600	0.153100	0.529600
C791	C79	0.819500	0.132900	0.656100
C801	C80	0.106600	0.780300	0.014200
H501	H50	0.163600	0.827900	0.936500
H511	H51	0.078900	0.740200	0.107900
O281	O28	0.180100	0.732400	0.237100
N181	N18	0.191700	0.003700	0.572200
N191	N19	0.110100	0.054270	0.486900
C811	C81	0.901000	0.120900	0.512800
H521	H52	0.774000	0.171200	0.489800
C821	C82	0.911700	0.100000	0.643400
H531	H53	0.791300	0.136600	0.705700
H541	H54	0.238600	0.981600	0.592100
N201	N20	0.100700	0.029000	0.608900
C831	C83	0.055300	0.058800	0.555100
C841	C84	0.955100	0.093300	0.570500
H551	H55	0.926600	0.117600	0.462700
H561	H56	0.945200	0.082000	0.684000
O291	O29	0.851000	0.613460	0.694400
N211	N21	0.921100	0.542750	0.831100
C851	C85	0.888800	0.649130	0.656100
C861	C86	0.937500	0.553600	0.904500
C871	C87	0.837800	0.508600	0.813300
O301	O30	0.003000	0.658260	0.651500
C881	C88	0.789400	0.675710	0.609000
H571	H57	0.999400	0.575900	0.918200
C891	C89	0.867900	0.533800	0.962100
C901	C90	0.765100	0.486300	0.867000
H581	H58	0.827900	0.499300	0.762300
Zn51	Zn5	0.138530	0.712900	0.629230
C911	C91	0.767600	0.660400	0.534300
C921	C92	0.719000	0.713900	0.637300
H591	H59	0.881600	0.543100	0.012800
C931	C93	0.777700	0.499700	0.942800
H601	H60	0.708300	0.462500	0.852000
O311	O31	0.277100	0.768190	0.612500
O321	O32	0.826900	0.712930	0.757500
O331	O33	0.504100	0.735650	0.392900
O341	O34	0.438200	0.775610	0.491800
N221	N22	0.268400	0.339900	0.100100
C941	C94	0.511100	0.744500	0.462800
H611	H61	0.814100	0.635000	0.515700
C951	C95	0.676900	0.682500	0.486800
C961	C96	0.627400	0.734900	0.589300
C971	C97	0.740700	0.733000	0.717000
C981	C98	0.694400	0.480300	0.999900
H621	H62	0.275000	0.788000	0.649000
H631	H63	0.350000	0.756000	0.611000
C991	C99	0.309600	0.346900	0.029600
C1001	C100	0.319500	0.367100	0.156100
C1011	C101	0.606600	0.719700	0.514200
H641	H64	0.663600	0.672100	0.436500
H651	H65	0.578900	0.759800	0.607900
O351	O35	0.680100	0.767600	0.737100
N231	N23	0.691700	0.496300	0.072200
N241	N24	0.610100	0.445730	0.986900
C1021	C102	0.401000	0.379100	0.012800
H661	H66	0.274000	0.328800	0.989800
C1031	C103	0.411700	0.400000	0.143400
H671	H67	0.291300	0.363400	0.205700
H681	H68	0.738600	0.518400	0.092100
N251	N25	0.600700	0.471000	0.108900
C1041	C104	0.555300	0.441200	0.055100
C1051	C105	0.455100	0.406700	0.070500
H691	H69	0.426600	0.382400	0.962700
H701	H70	0.445200	0.418000	0.184000
O361	O36	0.351000	0.113460	0.694400
N261	N26	0.421100	0.042750	0.831100
C1061	C106	0.388800	0.149130	0.656100
C1071	C107	0.437500	0.053600	0.904500
C1081	C108	0.337800	0.008600	0.813300
O371	O37	0.503000	0.158260	0.651500
C1091	C109	0.289400	0.175710	0.609000
H711	H71	0.499400	0.075900	0.918200
C1101	C110	0.367900	0.033800	0.962100
C1111	C111	0.265100	0.986300	0.867000
H721	H72	0.327900	0.999300	0.762300
Zn61	Zn6	0.638530	0.212900	0.629230
C1121	C112	0.267600	0.160400	0.534300
C1131	C113	0.219000	0.213900	0.637300
H731	H73	0.381600	0.043100	0.012800
C1141	C114	0.277700	0.999700	0.942800
H741	H74	0.208300	0.962500	0.852000
O381	O38	0.777100	0.268190	0.612500
O391	O39	0.326900	0.212930	0.757500
O401	O40	0.004100	0.235650	0.392900
O411	O41	0.938200	0.275610	0.491800
N271	N27	0.768400	0.839900	0.100100
C1151	C115	0.011100	0.244500	0.462800
H751	H75	0.314100	0.135000	0.515700
C1161	C116	0.176900	0.182500	0.486800
C1171	C117	0.127400	0.234900	0.589300
C1181	C118	0.240700	0.233000	0.717000
C1191	C119	0.194400	0.980300	0.999900
H761	H76	0.775000	0.288000	0.649000
H771	H77	0.850000	0.256000	0.611000
C1201	C120	0.809600	0.846900	0.029600
C1211	C121	0.819500	0.867100	0.156100
C1221	C122	0.106600	0.219700	0.514200
H781	H78	0.163600	0.172100	0.436500
H791	H79	0.078900	0.259800	0.607900
O421	O42	0.180100	0.267600	0.737100
N281	N28	0.191700	0.996300	0.072200
N291	N29	0.110100	0.945730	0.986900
C1231	C123	0.901000	0.879100	0.012800
H801	H80	0.774000	0.828800	0.989800
C1241	C124	0.911700	0.900000	0.143400
H811	H81	0.791300	0.863400	0.205700
H821	H82	0.238600	0.018400	0.092100
N301	N30	0.100700	0.971000	0.108900
C1251	C125	0.055300	0.941200	0.055100
C1261	C126	0.955100	0.906700	0.070500
H831	H83	0.926600	0.882400	0.962700
H841	H84	0.945200	0.918000	0.184000
O431	O43	0.149000	0.613460	0.805600
N311	N31	0.078900	0.542750	0.668900
C1271	C127	0.111200	0.649130	0.843900
C1281	C128	0.062500	0.553600	0.595500
C1291	C129	0.162200	0.508600	0.686700
O441	O44	0.997000	0.658260	0.848500
C1301	C130	0.210600	0.675710	0.891000
H851	H85	0.000600	0.575900	0.581800
C1311	C131	0.132100	0.533800	0.537900
C1321	C132	0.234900	0.486300	0.633000
H861	H86	0.172100	0.499300	0.737700
Zn71	Zn7	0.861470	0.712900	0.870770
C1331	C133	0.232400	0.660400	0.965700
C1341	C134	0.281000	0.713900	0.862700
H871	H87	0.118400	0.543100	0.487200
C1351	C135	0.222300	0.499700	0.557200
H881	H88	0.291700	0.462500	0.648000
O451	O45	0.722900	0.768190	0.887500
O461	O46	0.173100	0.712930	0.742500
O471	O47	0.495900	0.735650	0.107100
O481	O48	0.561800	0.775610	0.008200
N321	N32	0.731600	0.339900	0.399900
C1361	C136	0.488900	0.744500	0.037200
H891	H89	0.185900	0.635000	0.984300
C1371	C137	0.323100	0.682500	0.013200
C1381	C138	0.372600	0.734900	0.910700
C1391	C139	0.259300	0.733000	0.783000
C1401	C140	0.305600	0.480300	0.500100
H901	H90	0.725000	0.788000	0.851000
H911	H91	0.650000	0.756000	0.889000
C1411	C141	0.690400	0.346900	0.470400
C1421	C142	0.680500	0.367100	0.343900
C1431	C143	0.393400	0.719700	0.985800
H921	H92	0.336400	0.672100	0.063500
H931	H93	0.421100	0.759800	0.892100
O491	O49	0.319900	0.767600	0.762900
N331	N33	0.308300	0.496300	0.427800
N341	N34	0.389900	0.445730	0.513100
C1441	C144	0.599000	0.379100	0.487200
H941	H94	0.726000	0.328800	0.510200
C1451	C145	0.588300	0.400000	0.356600
H951	H95	0.708700	0.363400	0.294300
H961	H96	0.261400	0.518400	0.407900
N351	N35	0.399300	0.471000	0.391100
C1461	C146	0.444700	0.441200	0.444900
C1471	C147	0.544900	0.406700	0.429500
H971	H97	0.573400	0.382400	0.537300
H981	H98	0.554800	0.418000	0.316000
O501	O50	0.649000	0.113460	0.805600
N361	N36	0.578900	0.042750	0.668900
C1481	C148	0.611200	0.149130	0.843900
C1491	C149	0.562500	0.053600	0.595500
C1501	C150	0.662200	0.008600	0.686700
O511	O51	0.497000	0.158260	0.848500
C1511	C151	0.710600	0.175710	0.891000
H991	H99	0.500600	0.075900	0.581800
C1521	C152	0.632100	0.033800	0.537900
C1531	C153	0.734900	0.986300	0.633000
H1001	H100	0.672100	0.999300	0.737700
Zn81	Zn8	0.361470	0.212900	0.870770
C1541	C154	0.732400	0.160400	0.965700
C1551	C155	0.781000	0.213900	0.862700
H1011	H101	0.618400	0.043100	0.487200
C1561	C156	0.722300	0.999700	0.557200
H1021	H102	0.791700	0.962500	0.648000
O521	O52	0.222900	0.268190	0.887500
O531	O53	0.673100	0.212930	0.742500
O541	O54	0.995900	0.235650	0.107100
O551	O55	0.061800	0.275610	0.008200
N371	N37	0.231600	0.839900	0.399900
C1571	C157	0.988900	0.244500	0.037200
H1031	H103	0.685900	0.135000	0.984300
C1581	C158	0.823100	0.182500	0.013200
C1591	C159	0.872600	0.234900	0.910700
C1601	C160	0.759300	0.233000	0.783000
C1611	C161	0.805600	0.980300	0.500100
H1041	H104	0.225000	0.288000	0.851000
H1051	H105	0.150000	0.256000	0.889000
C1621	C162	0.190400	0.846900	0.470400
C1631	C163	0.180500	0.867100	0.343900
C1641	C164	0.893400	0.219700	0.985800
H1061	H106	0.836400	0.172100	0.063500
H1071	H107	0.921100	0.259800	0.892100
O561	O56	0.819900	0.267600	0.762900
N381	N38	0.808300	0.996300	0.427800
N391	N39	0.889900	0.945730	0.513100
C1651	C165	0.099000	0.879100	0.487200
H1081	H108	0.226000	0.828800	0.510200
C1661	C166	0.088300	0.900000	0.356600
H1091	H109	0.208700	0.863400	0.294300
H1101	H110	0.761400	0.018400	0.407900
N401	N40	0.899300	0.971000	0.391100
C1671	C167	0.944700	0.941200	0.444900
C1681	C168	0.044900	0.906700	0.429500
H1111	H111	0.073400	0.882400	0.537300
H1121	H112	0.054800	0.918000	0.316000
Zn91	Zn9	0.000000	0.414120	0.250000
Zn101	Zn10	0.500000	0.914120	0.250000
Zn111	Zn11	0.000000	0.585880	0.750000
Zn121	Zn12	0.500000	0.085880	0.750000
