data_DOKDEN_freeONLY_PM
_symmetry_space_group_name_H-M	'P1'
_cell_length_a	9.864150
_cell_length_b	24.058800
_cell_length_c	24.058800
_cell_angle_alpha	61.836900
_cell_angle_beta	82.145000
_cell_angle_gamma	97.855000
_symmetry_Int_Tables_number 1

loop_
_symmetry_equiv_pos_as_xyz
'x,y,z'

loop_
_atom_site_label
_atom_site_type_symbol
_atom_site_fract_x
_atom_site_fract_y
_atom_site_fract_z
Cu11	Cu1	0.569310	0.040450	0.515270
Cu21	Cu2	0.084580	0.515270	0.444280
Cu31	Cu3	0.528860	0.444280	0.040450
Cu41	Cu4	0.430690	0.959550	0.484730
Cu51	Cu5	0.915420	0.484730	0.555720
Cu61	Cu6	0.471140	0.555720	0.959550
H11	H1	0.782900	0.884800	0.441400
H21	H2	0.995100	0.857400	0.423900
H31	H3	0.198100	0.025100	0.402600
H41	H4	0.983800	0.047100	0.428800
H51	H5	0.242600	0.888000	0.387600
H61	H6	0.325500	0.956700	0.367800
H71	H7	0.227000	0.864000	0.507000
H81	H8	0.466800	0.868900	0.421900
H91	H9	0.447100	0.837100	0.496300
H101	H10	0.188600	0.754400	0.553700
H111	H11	0.069400	0.654900	0.566700
H121	H12	0.301800	0.706500	0.390600
H131	H13	0.415600	0.804100	0.378400
H141	H14	0.224300	0.441400	0.673800
H151	H15	0.419000	0.423900	0.718700
H161	H16	0.600700	0.402600	0.572300
H171	H17	0.412600	0.428800	0.524100
H181	H18	0.630200	0.387600	0.724400
H191	H19	0.693300	0.367800	0.675500
H201	H20	0.734000	0.507000	0.629000
H211	H21	0.888700	0.421900	0.709200
H221	H22	0.943400	0.496300	0.666600
H231	H23	0.742300	0.553700	0.691900
H241	H24	0.636100	0.566700	0.778400
H251	H25	0.692400	0.390600	0.902900
H261	H26	0.794000	0.378400	0.817500
H271	H27	0.898100	0.673800	0.884800
H281	H28	0.137700	0.718700	0.857400
H291	H29	0.173000	0.572300	0.025100
H301	H30	0.936700	0.524100	0.047100
H311	H31	0.354600	0.724400	0.888000
H321	H32	0.368800	0.675500	0.956700
H331	H33	0.363000	0.629000	0.864000
H341	H34	0.597900	0.709200	0.868900
H351	H35	0.610000	0.666600	0.837100
H361	H36	0.434200	0.691900	0.754400
H371	H37	0.414500	0.778400	0.654900
H381	H38	0.595300	0.902900	0.706500
H391	H39	0.611500	0.817500	0.804100
H401	H40	0.217100	0.115200	0.558600
H411	H41	0.004900	0.142600	0.576100
H421	H42	0.801900	0.974900	0.597400
H431	H43	0.016200	0.952900	0.571200
H441	H44	0.757400	0.112000	0.612400
H451	H45	0.674500	0.043300	0.632200
H461	H46	0.773000	0.136000	0.493000
H471	H47	0.533200	0.131100	0.578100
H481	H48	0.552900	0.162900	0.503700
H491	H49	0.811400	0.245600	0.446300
H501	H50	0.930600	0.345100	0.433300
H511	H51	0.698200	0.293500	0.609400
H521	H52	0.584400	0.195900	0.621600
H531	H53	0.775700	0.558600	0.326200
H541	H54	0.581000	0.576100	0.281300
H551	H55	0.399300	0.597400	0.427700
H561	H56	0.587400	0.571200	0.475900
H571	H57	0.369800	0.612400	0.275600
H581	H58	0.306700	0.632200	0.324500
H591	H59	0.266000	0.493000	0.371000
H601	H60	0.111300	0.578100	0.290800
H611	H61	0.056600	0.503700	0.333400
H621	H62	0.257700	0.446300	0.308100
H631	H63	0.363900	0.433300	0.221600
H641	H64	0.307600	0.609400	0.097100
H651	H65	0.206000	0.621600	0.182500
H661	H66	0.101900	0.326200	0.115200
H671	H67	0.862300	0.281300	0.142600
H681	H68	0.827000	0.427700	0.974900
H691	H69	0.063300	0.475900	0.952900
H701	H70	0.645400	0.275600	0.112000
H711	H71	0.631200	0.324500	0.043300
H721	H72	0.637000	0.371000	0.136000
H731	H73	0.402100	0.290800	0.131100
H741	H74	0.390000	0.333400	0.162900
H751	H75	0.565800	0.308100	0.245600
H761	H76	0.585500	0.221600	0.345100
H771	H77	0.404700	0.097100	0.293500
H781	H78	0.388500	0.182500	0.195900
C11	C1	0.726600	0.981600	0.457200
C21	C2	0.864000	0.967500	0.438900
C31	C3	0.868800	0.912200	0.436100
C41	C4	0.995200	0.897500	0.422600
C51	C5	0.119300	0.938200	0.412000
C61	C6	0.113800	0.994600	0.412300
C71	C7	0.985800	0.008800	0.426500
C81	C8	0.257200	0.919600	0.400600
C91	C9	0.399800	0.847000	0.462100
C101	C10	0.318900	0.785300	0.467000
C111	C11	0.215500	0.743600	0.521300
C121	C12	0.138700	0.684600	0.528300
C131	C13	0.173100	0.672300	0.478500
C141	C14	0.275400	0.716400	0.423900
C151	C15	0.348900	0.773500	0.417400
C161	C16	0.102500	0.609100	0.485500
C171	C17	0.183800	0.457200	0.561200
C181	C18	0.302900	0.438900	0.593600
C191	C19	0.304900	0.436100	0.651700
C201	C20	0.417800	0.422600	0.679900
C211	C21	0.531300	0.412000	0.649800
C221	C22	0.526100	0.412300	0.593100
C231	C23	0.412300	0.426500	0.564700
C241	C24	0.657800	0.400600	0.679800
C251	C25	0.861900	0.462100	0.690900
C261	C26	0.785900	0.467000	0.747700
C271	C27	0.736800	0.521300	0.735100
C281	C28	0.667000	0.528300	0.787100
C291	C29	0.651600	0.478500	0.849200
C301	C30	0.699300	0.423900	0.859700
C311	C31	0.766300	0.417400	0.809100
C321	C32	0.588000	0.485500	0.905400
C331	C33	0.745000	0.561200	0.981600
C341	C34	0.896500	0.593600	0.967500
C351	C35	0.956600	0.651700	0.912200
C361	C36	0.097700	0.679900	0.897500
C371	C37	0.181100	0.649800	0.938200
C381	C38	0.119200	0.593100	0.994600
C391	C39	0.977000	0.564700	0.008800
C401	C40	0.337600	0.679800	0.919600
C411	C41	0.552800	0.690900	0.847000
C421	C42	0.533600	0.747700	0.785300
C431	C43	0.471900	0.735100	0.743600
C441	C44	0.454100	0.787100	0.684600
C451	C45	0.500800	0.849200	0.672300
C461	C46	0.559000	0.859700	0.716400
C471	C47	0.575400	0.809100	0.773500
C481	C48	0.493400	0.905400	0.609100
C491	C49	0.273400	0.018400	0.542800
C501	C50	0.136000	0.032500	0.561100
C511	C51	0.131200	0.087800	0.563900
C521	C52	0.004800	0.102500	0.577400
C531	C53	0.880700	0.061800	0.588000
C541	C54	0.886200	0.005400	0.587700
C551	C55	0.014200	0.991200	0.573500
C561	C56	0.742800	0.080400	0.599400
C571	C57	0.600200	0.153000	0.537900
C581	C58	0.681100	0.214700	0.533000
C591	C59	0.784500	0.256400	0.478700
C601	C60	0.861300	0.315400	0.471700
C611	C61	0.826900	0.327700	0.521500
C621	C62	0.724600	0.283600	0.576100
C631	C63	0.651100	0.226500	0.582600
C641	C64	0.897500	0.390900	0.514500
C651	C65	0.816200	0.542800	0.438800
C661	C66	0.697100	0.561100	0.406400
C671	C67	0.695100	0.563900	0.348300
C681	C68	0.582200	0.577400	0.320100
C691	C69	0.468700	0.588000	0.350200
C701	C70	0.473900	0.587700	0.406900
C711	C71	0.587700	0.573500	0.435300
C721	C72	0.342200	0.599400	0.320200
C731	C73	0.138100	0.537900	0.309100
C741	C74	0.214100	0.533000	0.252300
C751	C75	0.263200	0.478700	0.264900
C761	C76	0.333000	0.471700	0.212900
C771	C77	0.348400	0.521500	0.150800
C781	C78	0.300700	0.576100	0.140300
C791	C79	0.233700	0.582600	0.190900
C801	C80	0.412000	0.514500	0.094600
C811	C81	0.255000	0.438800	0.018400
C821	C82	0.103500	0.406400	0.032500
C831	C83	0.043400	0.348300	0.087800
C841	C84	0.902300	0.320100	0.102500
C851	C85	0.818900	0.350200	0.061800
C861	C86	0.880800	0.406900	0.005400
C871	C87	0.023000	0.435300	0.991200
C881	C88	0.662400	0.320200	0.080400
C891	C89	0.447200	0.309100	0.153000
C901	C90	0.466400	0.252300	0.214700
C911	C91	0.528100	0.264900	0.256400
C921	C92	0.545900	0.212900	0.315400
C931	C93	0.499200	0.150800	0.327700
C941	C94	0.441000	0.140300	0.283600
C951	C95	0.424600	0.190900	0.226500
C961	C96	0.506600	0.094600	0.390900
N11	N1	0.309900	0.891700	0.461500
N21	N2	0.771400	0.461500	0.646800
N31	N3	0.418200	0.646800	0.891700
N41	N4	0.690100	0.108300	0.538500
N51	N5	0.228600	0.538500	0.353200
N61	N6	0.581800	0.353200	0.108300
O11	O1	0.731300	0.022100	0.476400
O21	O2	0.617300	0.951200	0.453500
O31	O3	0.009200	0.571500	0.537000
O41	O4	0.144900	0.597300	0.442200
O51	O5	0.207700	0.476400	0.501500
O61	O6	0.070800	0.453500	0.595300
O71	O7	0.546200	0.537000	0.891500
O81	O8	0.587100	0.442200	0.960500
O91	O9	0.709200	0.501500	0.022100
O101	O10	0.666100	0.595300	0.951200
O111	O11	0.437700	0.891500	0.571500
O121	O12	0.547600	0.960500	0.597300
O131	O13	0.268700	0.977900	0.523600
O141	O14	0.382700	0.048800	0.546500
O151	O15	0.990800	0.428500	0.463000
O161	O16	0.855100	0.402700	0.557800
O171	O17	0.792300	0.523600	0.498500
O181	O18	0.929200	0.546500	0.404700
O191	O19	0.453800	0.463000	0.108500
O201	O20	0.412900	0.557800	0.039500
O211	O21	0.290800	0.498500	0.977900
O221	O22	0.333900	0.404700	0.048800
O231	O23	0.562300	0.108500	0.428500
O241	O24	0.452400	0.039500	0.402700
