data_DOKHIV_freeONLY_PM
_symmetry_space_group_name_H-M	'P1'
_cell_length_a	6.667590
_cell_length_b	17.110700
_cell_length_c	17.806200
_cell_angle_alpha	74.836000
_cell_angle_beta	79.209000
_cell_angle_gamma	78.764800
_symmetry_Int_Tables_number 1

loop_
_symmetry_equiv_pos_as_xyz
'x,y,z'

loop_
_atom_site_label
_atom_site_type_symbol
_atom_site_fract_x
_atom_site_fract_y
_atom_site_fract_z
Cu11	Cu1	0.557000	0.852170	0.353130
Cu21	Cu2	0.514330	0.816930	0.180430
Cu31	Cu3	0.762300	0.647830	0.146870
Cu41	Cu4	0.511690	0.683070	0.319570
Cu51	Cu5	0.443000	0.147830	0.646870
Cu61	Cu6	0.485670	0.183070	0.819570
Cu71	Cu7	0.237700	0.352170	0.853130
Cu81	Cu8	0.488310	0.316930	0.680430
H11	H1	0.482100	0.064000	0.057800
H21	H2	0.354700	0.292900	0.090500
H31	H3	0.432900	0.104000	0.274000
H41	H4	0.895800	0.950900	0.313500
H51	H5	0.076600	0.014000	0.368800
H61	H6	0.767500	0.924500	0.578300
H71	H7	0.586400	0.867100	0.517700
H81	H8	0.603900	0.436000	0.442200
H91	H9	0.738100	0.207100	0.409500
H101	H10	0.810900	0.396000	0.226000
H111	H11	0.160200	0.549100	0.186500
H121	H12	0.459400	0.486000	0.131200
H131	H13	0.270300	0.575500	0.921700
H141	H14	0.971200	0.632900	0.982300
H151	H15	0.517900	0.936000	0.942200
H161	H16	0.645300	0.707100	0.909500
H171	H17	0.567100	0.896000	0.726000
H181	H18	0.104200	0.049100	0.686500
H191	H19	0.923400	0.986000	0.631200
H201	H20	0.232500	0.075500	0.421700
H211	H21	0.413600	0.132900	0.482300
H221	H22	0.396100	0.564000	0.557800
H231	H23	0.261900	0.792900	0.590500
H241	H24	0.189100	0.604000	0.774000
H251	H25	0.839800	0.450900	0.813500
H261	H26	0.540600	0.514000	0.868800
H271	H27	0.729700	0.424500	0.078300
H281	H28	0.028800	0.367100	0.017700
C11	C1	0.465000	0.069600	0.171800
C21	C2	0.457600	0.099800	0.091000
C31	C3	0.413200	0.183700	0.061100
C41	C4	0.380300	0.236800	0.111000
C51	C5	0.385100	0.207100	0.189900
C61	C6	0.428200	0.124000	0.220400
C71	C7	0.508700	0.978400	0.204200
C81	C8	0.402100	0.215600	0.975400
C91	C9	0.335400	0.267800	0.241800
C101	C10	0.867700	0.945900	0.367500
C111	C11	0.977000	0.984000	0.400600
C121	C12	0.942800	0.979200	0.481000
C131	C13	0.794600	0.931900	0.523900
C141	C14	0.688200	0.896500	0.486900
C151	C15	0.706400	0.430400	0.328200
C161	C16	0.648400	0.400200	0.409000
C171	C17	0.658000	0.316300	0.438900
C181	C18	0.728100	0.263200	0.389000
C191	C19	0.782100	0.292900	0.310100
C201	C20	0.772600	0.376000	0.279600
C211	C21	0.691300	0.521600	0.295800
C221	C22	0.593100	0.284400	0.524600
C231	C23	0.845000	0.232200	0.258200
C241	C24	0.181100	0.554100	0.132500
C251	C25	0.361600	0.516000	0.099400
C261	C26	0.403000	0.520800	0.019000
C271	C27	0.250400	0.568100	0.976100
C281	C28	0.071600	0.603500	0.013100
C291	C29	0.535000	0.930400	0.828200
C301	C30	0.542400	0.900200	0.909000
C311	C31	0.586800	0.816300	0.938900
C321	C32	0.619700	0.763200	0.889000
C331	C33	0.614900	0.792900	0.810100
C341	C34	0.571800	0.876000	0.779600
C351	C35	0.491300	0.021600	0.795800
C361	C36	0.597900	0.784400	0.024600
C371	C37	0.664600	0.732200	0.758200
C381	C38	0.132300	0.054100	0.632500
C391	C39	0.023000	0.016000	0.599400
C401	C40	0.057200	0.020800	0.519000
C411	C41	0.205400	0.068100	0.476100
C421	C42	0.311800	0.103500	0.513100
C431	C43	0.293600	0.569600	0.671800
C441	C44	0.351600	0.599800	0.591000
C451	C45	0.342000	0.683700	0.561100
C461	C46	0.271900	0.736800	0.611000
C471	C47	0.217900	0.707100	0.689900
C481	C48	0.227400	0.624000	0.720400
C491	C49	0.308700	0.478400	0.704200
C501	C50	0.406900	0.715600	0.475400
C511	C51	0.155000	0.767800	0.741800
C521	C52	0.818900	0.445900	0.867500
C531	C53	0.638400	0.484000	0.900600
C541	C54	0.597000	0.479200	0.981000
C551	C55	0.749600	0.431900	0.023900
C561	C56	0.928400	0.396500	0.986900
N11	N1	0.719500	0.901000	0.409400
N21	N2	0.029900	0.599000	0.090600
N31	N3	0.280500	0.099000	0.590600
N41	N4	0.970100	0.401000	0.909400
O11	O1	0.537300	0.956200	0.275600
O21	O2	0.507820	0.932960	0.160600
O31	O3	0.468680	0.166640	0.931200
O41	O4	0.316960	0.288680	0.954200
O51	O5	0.315100	0.340700	0.214500
O61	O6	0.310600	0.232900	0.317300
O71	O7	0.419500	0.802400	0.294600
O81	O8	0.769100	0.543800	0.224400
O91	O9	0.601380	0.567040	0.339400
O101	O10	0.566520	0.333360	0.568800
O111	O11	0.559840	0.211320	0.545800
O121	O12	0.870300	0.159300	0.285500
O131	O13	0.860800	0.267100	0.182700
O141	O14	0.516500	0.697600	0.205400
O151	O15	0.462700	0.043800	0.724400
O161	O16	0.492180	0.067040	0.839400
O171	O17	0.531320	0.833360	0.068800
O181	O18	0.683040	0.711320	0.045800
O191	O19	0.684900	0.659300	0.785500
O201	O20	0.689400	0.767100	0.682700
O211	O21	0.580500	0.197600	0.705400
O221	O22	0.230900	0.456200	0.775600
O231	O23	0.398620	0.432960	0.660600
O241	O24	0.433480	0.666640	0.431200
O251	O25	0.440160	0.788680	0.454200
O261	O26	0.129700	0.840700	0.714500
O271	O27	0.139200	0.732900	0.817300
O281	O28	0.483500	0.302400	0.794600
