data_DOKHOB_freeONLY_PM
_symmetry_space_group_name_H-M	'P1'
_cell_length_a	8.557700
_cell_length_b	18.802000
_cell_length_c	16.054200
_cell_angle_alpha	99.469000
_cell_angle_beta	90.000000
_cell_angle_gamma	90.000000
_symmetry_Int_Tables_number 1

loop_
_symmetry_equiv_pos_as_xyz
'x,y,z'

loop_
_atom_site_label
_atom_site_type_symbol
_atom_site_fract_x
_atom_site_fract_y
_atom_site_fract_z
Cu11	Cu1	0.684780	0.791750	0.734220
Cu21	Cu2	0.684780	0.208250	0.765780
Cu31	Cu3	0.315220	0.208250	0.265780
Cu41	Cu4	0.315220	0.791750	0.234220
Cu51	Cu5	0.554800	0.500000	0.750000
Cu61	Cu6	0.445200	0.500000	0.250000
H11	H1	0.998100	0.653900	0.720500
H21	H2	0.127600	0.595600	0.725100
H31	H3	0.169500	0.667400	0.692300
H41	H4	0.472200	0.623800	0.982900
H51	H5	0.475400	0.700800	0.038000
H61	H6	0.554900	0.687700	0.948800
H71	H7	0.952400	0.806600	0.054300
H81	H8	0.869100	0.814800	0.969400
H91	H9	0.010400	0.864900	0.001900
H101	H10	0.794200	0.598600	0.837500
H111	H11	0.672300	0.406800	0.861300
H121	H12	0.982500	0.597800	0.938200
H131	H13	0.856300	0.401900	0.963100
H141	H14	0.477100	0.807100	0.878800
H151	H15	0.740600	0.946300	0.797000
H161	H16	0.397500	0.889400	0.993500
H171	H17	0.680500	0.032100	0.907000
H181	H18	0.998100	0.346100	0.779500
H191	H19	0.127600	0.404400	0.774900
H201	H20	0.169500	0.332600	0.807700
H211	H21	0.472200	0.376200	0.517100
H221	H22	0.475400	0.299200	0.462000
H231	H23	0.554900	0.312300	0.551200
H241	H24	0.952400	0.193400	0.445700
H251	H25	0.869100	0.185200	0.530600
H261	H26	0.010400	0.135100	0.498100
H271	H27	0.794200	0.401400	0.662500
H281	H28	0.672300	0.593200	0.638700
H291	H29	0.982500	0.402200	0.561800
H301	H30	0.856300	0.598100	0.536900
H311	H31	0.477100	0.192900	0.621200
H321	H32	0.740600	0.053700	0.703000
H331	H33	0.397500	0.110600	0.506500
H341	H34	0.680500	0.967900	0.593000
H351	H35	0.001900	0.346100	0.279500
H361	H36	0.872400	0.404400	0.274900
H371	H37	0.830500	0.332600	0.307700
H381	H38	0.527800	0.376200	0.017100
H391	H39	0.524600	0.299200	0.962000
H401	H40	0.445100	0.312300	0.051200
H411	H41	0.047600	0.193400	0.945700
H421	H42	0.130900	0.185200	0.030600
H431	H43	0.989600	0.135100	0.998100
H441	H44	0.205800	0.401400	0.162500
H451	H45	0.327700	0.593200	0.138700
H461	H46	0.017500	0.402200	0.061800
H471	H47	0.143700	0.598100	0.036900
H481	H48	0.522900	0.192900	0.121200
H491	H49	0.259400	0.053700	0.203000
H501	H50	0.602500	0.110600	0.006500
H511	H51	0.319500	0.967900	0.093000
H521	H52	0.001900	0.653900	0.220500
H531	H53	0.872400	0.595600	0.225100
H541	H54	0.830500	0.667400	0.192300
H551	H55	0.527800	0.623800	0.482900
H561	H56	0.524600	0.700800	0.538000
H571	H57	0.445100	0.687700	0.448800
H581	H58	0.047600	0.806600	0.554300
H591	H59	0.130900	0.814800	0.469400
H601	H60	0.989600	0.864900	0.501900
H611	H61	0.205800	0.598600	0.337500
H621	H62	0.327700	0.406800	0.361300
H631	H63	0.017500	0.597800	0.438200
H641	H64	0.143700	0.401900	0.463100
H651	H65	0.522900	0.807100	0.378800
H661	H66	0.259400	0.946300	0.297000
H671	H67	0.602500	0.889400	0.493500
H681	H68	0.319500	0.032100	0.407000
C11	C1	0.892000	0.751200	0.826000
C21	C2	0.106700	0.646400	0.731500
C31	C3	0.388200	0.608300	0.811300
C41	C4	0.468700	0.674700	0.981500
C51	C5	0.247400	0.775200	0.077900
C61	C6	0.967600	0.817300	0.998400
C71	C7	0.048600	0.732500	0.867300
C81	C8	0.147300	0.683100	0.824400
C91	C9	0.281600	0.663700	0.861400
C101	C10	0.316600	0.693000	0.941700
C111	C11	0.213000	0.743400	0.987200
C121	C12	0.080000	0.762600	0.950200
C131	C13	0.805200	0.557900	0.863000
C141	C14	0.735600	0.446900	0.877500
C151	C15	0.918700	0.557500	0.924600
C161	C16	0.846800	0.443800	0.939600
C171	C17	0.941300	0.500200	0.966500
C181	C18	0.515000	0.853900	0.884200
C191	C19	0.669800	0.934900	0.836800
C201	C20	0.465900	0.903400	0.954200
C211	C21	0.632800	0.987200	0.902200
C221	C22	0.521300	0.973900	0.963700
C231	C23	0.892000	0.248800	0.674000
C241	C24	0.106700	0.353600	0.768500
C251	C25	0.388200	0.391700	0.688700
C261	C26	0.468700	0.325300	0.518500
C271	C27	0.247400	0.224800	0.422100
C281	C28	0.967600	0.182700	0.501600
C291	C29	0.048600	0.267500	0.632700
C301	C30	0.147300	0.316900	0.675600
C311	C31	0.281600	0.336300	0.638600
C321	C32	0.316600	0.307000	0.558300
C331	C33	0.213000	0.256600	0.512800
C341	C34	0.080000	0.237400	0.549800
C351	C35	0.805200	0.442100	0.637000
C361	C36	0.735600	0.553100	0.622500
C371	C37	0.918700	0.442500	0.575400
C381	C38	0.846800	0.556200	0.560400
C391	C39	0.941300	0.499800	0.533500
C401	C40	0.515000	0.146100	0.615800
C411	C41	0.669800	0.065100	0.663200
C421	C42	0.465900	0.096600	0.545800
C431	C43	0.632800	0.012800	0.597800
C441	C44	0.521300	0.026100	0.536300
C451	C45	0.108000	0.248800	0.174000
C461	C46	0.893300	0.353600	0.268500
C471	C47	0.611800	0.391700	0.188700
C481	C48	0.531300	0.325300	0.018500
C491	C49	0.752600	0.224800	0.922100
C501	C50	0.032400	0.182700	0.001600
C511	C51	0.951400	0.267500	0.132700
C521	C52	0.852700	0.316900	0.175600
C531	C53	0.718400	0.336300	0.138600
C541	C54	0.683400	0.307000	0.058300
C551	C55	0.787000	0.256600	0.012800
C561	C56	0.920000	0.237400	0.049800
C571	C57	0.194800	0.442100	0.137000
C581	C58	0.264400	0.553100	0.122500
C591	C59	0.081300	0.442500	0.075400
C601	C60	0.153200	0.556200	0.060400
C611	C61	0.058700	0.499800	0.033500
C621	C62	0.485000	0.146100	0.115800
C631	C63	0.330200	0.065100	0.163200
C641	C64	0.534100	0.096600	0.045800
C651	C65	0.367200	0.012800	0.097800
C661	C66	0.478700	0.026100	0.036300
C671	C67	0.108000	0.751200	0.326000
C681	C68	0.893300	0.646400	0.231500
C691	C69	0.611800	0.608300	0.311300
C701	C70	0.531300	0.674700	0.481500
C711	C71	0.752600	0.775200	0.577900
C721	C72	0.032400	0.817300	0.498400
C731	C73	0.951400	0.732500	0.367300
C741	C74	0.852700	0.683100	0.324400
C751	C75	0.718400	0.663700	0.361400
C761	C76	0.683400	0.693000	0.441700
C771	C77	0.787000	0.743400	0.487200
C781	C78	0.920000	0.762600	0.450200
C791	C79	0.194800	0.557900	0.363000
C801	C80	0.264400	0.446900	0.377500
C811	C81	0.081300	0.557500	0.424600
C821	C82	0.153200	0.443800	0.439600
C831	C83	0.058700	0.500200	0.466500
C841	C84	0.485000	0.853900	0.384200
C851	C85	0.330200	0.934900	0.336800
C861	C86	0.534100	0.903400	0.454200
C871	C87	0.367200	0.987200	0.402200
C881	C88	0.478700	0.973900	0.463700
N11	N1	0.714700	0.503700	0.840200
N21	N2	0.612200	0.868700	0.825300
N31	N3	0.714700	0.496300	0.659800
N41	N4	0.612200	0.131300	0.674700
N51	N5	0.285300	0.496300	0.159800
N61	N6	0.387800	0.131300	0.174700
N71	N7	0.285300	0.503700	0.340200
N81	N8	0.387800	0.868700	0.325300
O11	O1	0.771700	0.720200	0.835500
O21	O2	0.905700	0.802600	0.780300
O31	O3	0.471900	0.625500	0.753100
O41	O4	0.395700	0.545600	0.832100
O51	O5	0.242800	0.731600	0.131100
O61	O6	0.281700	0.839700	0.100600
O71	O7	0.467600	0.754400	0.710600
O81	O8	0.771700	0.279800	0.664500
O91	O9	0.905700	0.197400	0.719700
O101	O10	0.471900	0.374500	0.746900
O111	O11	0.395700	0.454400	0.667900
O121	O12	0.242800	0.268400	0.368900
O131	O13	0.281700	0.160300	0.399400
O141	O14	0.467600	0.245600	0.789400
O151	O15	0.228300	0.279800	0.164500
O161	O16	0.094300	0.197400	0.219700
O171	O17	0.528100	0.374500	0.246900
O181	O18	0.604300	0.454400	0.167900
O191	O19	0.757200	0.268400	0.868900
O201	O20	0.718300	0.160300	0.899400
O211	O21	0.532400	0.245600	0.289400
O221	O22	0.228300	0.720200	0.335500
O231	O23	0.094300	0.802600	0.280300
O241	O24	0.528100	0.625500	0.253100
O251	O25	0.604300	0.545600	0.332100
O261	O26	0.757200	0.731600	0.631100
O271	O27	0.718300	0.839700	0.600600
O281	O28	0.532400	0.754400	0.210600
