data_DOLXOR_freeONLY_PM
_symmetry_space_group_name_H-M	'P1'
_cell_length_a	9.427200
_cell_length_b	9.427200
_cell_length_c	16.403000
_cell_angle_alpha	88.518900
_cell_angle_beta	88.518900
_cell_angle_gamma	83.795500
_symmetry_Int_Tables_number 1

loop_
_symmetry_equiv_pos_as_xyz
'x,y,z'

loop_
_atom_site_label
_atom_site_type_symbol
_atom_site_fract_x
_atom_site_fract_y
_atom_site_fract_z
Cu11	Cu1	0.863870	0.507590	0.497460
Cu21	Cu2	0.492410	0.136130	0.002540
Cu31	Cu3	0.136130	0.492410	0.502540
Cu41	Cu4	0.507590	0.863870	0.997460
Cu51	Cu5	0.000000	0.000000	0.500000
Cu61	Cu6	0.000000	0.000000	0.000000
Cu71	Cu7	0.602330	0.397670	0.750000
Cu81	Cu8	0.397670	0.602330	0.250000
Cu91	Cu9	0.636620	0.363380	0.250000
Cu101	Cu10	0.363380	0.636620	0.750000
H11	H1	0.257000	0.939000	0.272000
H21	H2	0.999000	0.193000	0.343000
H31	H3	0.310000	0.044000	0.205000
H41	H4	0.234000	0.950000	0.201000
H51	H5	0.131000	0.215000	0.165000
H61	H6	0.220000	0.310000	0.210000
H71	H7	0.058000	0.294000	0.233000
H81	H8	0.061000	0.743000	0.228000
H91	H9	0.807000	0.001000	0.157000
H101	H10	0.956000	0.690000	0.295000
H111	H11	0.050000	0.766000	0.299000
H121	H12	0.785000	0.869000	0.335000
H131	H13	0.690000	0.780000	0.290000
H141	H14	0.706000	0.942000	0.267000
H151	H15	0.743000	0.061000	0.728000
H161	H16	0.001000	0.807000	0.657000
H171	H17	0.690000	0.956000	0.795000
H181	H18	0.766000	0.050000	0.799000
H191	H19	0.869000	0.785000	0.835000
H201	H20	0.780000	0.690000	0.790000
H211	H21	0.942000	0.706000	0.767000
H221	H22	0.939000	0.257000	0.772000
H231	H23	0.193000	0.999000	0.843000
H241	H24	0.044000	0.310000	0.705000
H251	H25	0.950000	0.234000	0.701000
H261	H26	0.215000	0.131000	0.665000
H271	H27	0.310000	0.220000	0.710000
H281	H28	0.294000	0.058000	0.733000
C11	C1	0.693300	0.463300	0.660100
C21	C2	0.959700	0.683500	0.489100
C31	C3	0.716500	0.427900	0.339700
C41	C4	0.083300	0.108300	0.338800
C51	C5	0.268000	0.010400	0.244100
C61	C6	0.143800	0.251600	0.219300
C71	C7	0.536700	0.306700	0.839900
C81	C8	0.316500	0.040300	0.010900
C91	C9	0.572100	0.283500	0.160300
C101	C10	0.891700	0.916700	0.161200
C111	C11	0.989600	0.732000	0.255900
C121	C12	0.748400	0.856200	0.280700
C131	C13	0.306700	0.536700	0.339900
C141	C14	0.040300	0.316500	0.510900
C151	C15	0.283500	0.572100	0.660300
C161	C16	0.916700	0.891700	0.661200
C171	C17	0.732000	0.989600	0.755900
C181	C18	0.856200	0.748400	0.780700
C191	C19	0.463300	0.693300	0.160100
C201	C20	0.683500	0.959700	0.989100
C211	C21	0.427900	0.716500	0.839700
C221	C22	0.108300	0.083300	0.838800
C231	C23	0.010400	0.268000	0.744100
C241	C24	0.251600	0.143800	0.719300
N11	N1	0.756800	0.484200	0.600900
N21	N2	0.975700	0.800900	0.486900
N31	N3	0.771900	0.458500	0.396900
N41	N4	0.158100	0.122900	0.271400
N51	N5	0.515800	0.243200	0.899100
N61	N6	0.199100	0.024300	0.013100
N71	N7	0.541500	0.228100	0.103100
N81	N8	0.877100	0.841900	0.228600
N91	N9	0.243200	0.515800	0.399100
N101	N10	0.024300	0.199100	0.513100
N111	N11	0.228100	0.541500	0.603100
N121	N12	0.841900	0.877100	0.728600
N131	N13	0.484200	0.756800	0.100900
N141	N14	0.800900	0.975700	0.986900
N151	N15	0.458500	0.771900	0.896900
N161	N16	0.122900	0.158100	0.771400
O11	O1	0.097700	0.003100	0.384500
O21	O2	0.996900	0.902300	0.115500
O31	O3	0.902300	0.996900	0.615500
O41	O4	0.003100	0.097700	0.884500
