data_DOLXOR01_freeONLY_PM
_symmetry_space_group_name_H-M	'P1'
_cell_length_a	9.436600
_cell_length_b	9.436600
_cell_length_c	16.424000
_cell_angle_alpha	88.504900
_cell_angle_beta	88.504900
_cell_angle_gamma	83.741600
_symmetry_Int_Tables_number 1

loop_
_symmetry_equiv_pos_as_xyz
'x,y,z'

loop_
_atom_site_label
_atom_site_type_symbol
_atom_site_fract_x
_atom_site_fract_y
_atom_site_fract_z
Cu11	Cu1	0.492240	0.136180	0.502560
Cu21	Cu2	0.863820	0.507760	0.997440
Cu31	Cu3	0.507760	0.863820	0.497440
Cu41	Cu4	0.136180	0.492240	0.002560
Cu51	Cu5	0.000000	0.000000	0.500000
Cu61	Cu6	0.000000	0.000000	0.000000
Cu71	Cu7	0.636620	0.363380	0.750000
Cu81	Cu8	0.363380	0.636620	0.250000
Cu91	Cu9	0.602200	0.397800	0.250000
Cu101	Cu10	0.397800	0.602200	0.750000
H11	H1	0.816900	0.982500	0.648900
H21	H2	0.684600	0.933600	0.758700
H31	H3	0.775300	0.884300	0.834900
H41	H4	0.706800	0.771800	0.784400
H51	H5	0.066800	0.727400	0.715400
H61	H6	0.955000	0.644800	0.763800
H71	H7	0.027900	0.763700	0.806400
H81	H8	0.017500	0.183100	0.851100
H91	H9	0.066400	0.315400	0.741300
H101	H10	0.115700	0.224700	0.665100
H111	H11	0.228200	0.293200	0.715600
H121	H12	0.272600	0.933200	0.784600
H131	H13	0.355200	0.045000	0.736200
H141	H14	0.236300	0.972100	0.693600
H151	H15	0.183100	0.017500	0.351100
H161	H16	0.315400	0.066400	0.241300
H171	H17	0.224700	0.115700	0.165100
H181	H18	0.293200	0.228200	0.215600
H191	H19	0.933200	0.272600	0.284600
H201	H20	0.045000	0.355200	0.236200
H211	H21	0.972100	0.236300	0.193600
H221	H22	0.982500	0.816900	0.148900
H231	H23	0.933600	0.684600	0.258700
H241	H24	0.884300	0.775300	0.334900
H251	H25	0.771800	0.706800	0.284400
H261	H26	0.727400	0.066800	0.215400
H271	H27	0.644800	0.955000	0.263800
H281	H28	0.763700	0.027900	0.306400
C11	C1	0.316600	0.040600	0.510800
C21	C2	0.571500	0.282900	0.661400
C31	C3	0.538000	0.306400	0.339900
C41	C4	0.892000	0.914600	0.662400
C51	C5	0.750400	0.859200	0.781300
C61	C6	0.991500	0.735300	0.756000
C71	C7	0.959400	0.683400	0.989200
C81	C8	0.717100	0.428500	0.838600
C91	C9	0.693600	0.462000	0.160100
C101	C10	0.085400	0.108000	0.837600
C111	C11	0.140800	0.249600	0.718700
C121	C12	0.264700	0.008500	0.744000
C131	C13	0.683400	0.959400	0.489200
C141	C14	0.428500	0.717100	0.338600
C151	C15	0.462000	0.693600	0.660100
C161	C16	0.108000	0.085400	0.337600
C171	C17	0.249600	0.140800	0.218700
C181	C18	0.008500	0.264700	0.244000
C191	C19	0.040600	0.316600	0.010800
C201	C20	0.282900	0.571500	0.161400
C211	C21	0.306400	0.538000	0.839900
C221	C22	0.914600	0.892000	0.162400
C231	C23	0.859200	0.750400	0.281300
C241	C24	0.735300	0.991500	0.256000
N11	N1	0.198900	0.025300	0.513400
N21	N2	0.542200	0.229200	0.603400
N31	N3	0.515800	0.244800	0.398300
N41	N4	0.878700	0.840300	0.729500
N51	N5	0.974700	0.801100	0.986600
N61	N6	0.770800	0.457800	0.896600
N71	N7	0.755200	0.484200	0.101700
N81	N8	0.159700	0.121300	0.770500
N91	N9	0.801100	0.974700	0.486600
N101	N10	0.457800	0.770800	0.396600
N111	N11	0.484200	0.755200	0.601700
N121	N12	0.121300	0.159700	0.270500
N131	N13	0.025300	0.198900	0.013400
N141	N14	0.229200	0.542200	0.103400
N151	N15	0.244800	0.515800	0.898300
N161	N16	0.840300	0.878700	0.229500
O11	O1	0.996700	0.902100	0.615200
O21	O2	0.097900	0.003300	0.884800
O31	O3	0.003300	0.097900	0.384800
O41	O4	0.902100	0.996700	0.115200
