data_DONNEA_freeONLY_PM
_symmetry_space_group_name_H-M	'P1'
_cell_length_a	6.726100
_cell_length_b	11.045500
_cell_length_c	11.045500
_cell_angle_alpha	119.896000
_cell_angle_beta	105.951000
_cell_angle_gamma	74.048600
_symmetry_Int_Tables_number 1

loop_
_symmetry_equiv_pos_as_xyz
'x,y,z'

loop_
_atom_site_label
_atom_site_type_symbol
_atom_site_fract_x
_atom_site_fract_y
_atom_site_fract_z
Ga11	Ga1	0.000000	0.000000	0.000000
Ga21	Ga2	0.500000	0.000000	0.000000
H11	H1	0.282800	0.955600	0.597600
H21	H2	0.842300	0.023600	0.608400
H31	H3	0.217200	0.597600	0.955600
H41	H4	0.657700	0.608400	0.023600
H51	H5	0.717200	0.044400	0.402400
H61	H6	0.157700	0.976400	0.391600
H71	H7	0.782800	0.402400	0.044400
H81	H8	0.342300	0.391600	0.976400
H91	H9	0.750000	0.151600	0.151600
H101	H10	0.250000	0.848400	0.848400
C11	C1	0.657400	0.973200	0.758200
C21	C2	0.577200	0.986600	0.624000
C31	C3	0.370800	0.973200	0.558400
C41	C4	0.704100	0.013800	0.564800
C51	C5	0.842600	0.758200	0.973200
C61	C6	0.922800	0.624000	0.986600
C71	C7	0.129200	0.558400	0.973200
C81	C8	0.795900	0.564800	0.013800
C91	C9	0.342600	0.026800	0.241800
C101	C10	0.422800	0.013400	0.376000
C111	C11	0.629200	0.026800	0.441600
C121	C12	0.295900	0.986200	0.435200
C131	C13	0.157400	0.241800	0.026800
C141	C14	0.077200	0.376000	0.013400
C151	C15	0.870800	0.441600	0.026800
C161	C16	0.204100	0.435200	0.986200
O11	O1	0.845200	0.988700	0.813300
O21	O2	0.531800	0.946700	0.804100
O31	O3	0.654800	0.813300	0.988700
O41	O4	0.968200	0.804100	0.946700
O51	O5	0.154800	0.011300	0.186700
O61	O6	0.468200	0.053300	0.195900
O71	O7	0.345200	0.186700	0.011300
O81	O8	0.031800	0.195900	0.053300
O91	O9	0.750000	0.078500	0.078500
O101	O10	0.250000	0.921500	0.921500
