data_DONNAW_freeONLY_PM
_symmetry_space_group_name_H-M	'P1'
_cell_length_a	17.525000
_cell_length_b	6.721600
_cell_length_c	11.893000
_cell_angle_alpha	90.000000
_cell_angle_beta	90.000000
_cell_angle_gamma	90.000000
_symmetry_Int_Tables_number 1

loop_
_symmetry_equiv_pos_as_xyz
'x,y,z'

loop_
_atom_site_label
_atom_site_type_symbol
_atom_site_fract_x
_atom_site_fract_y
_atom_site_fract_z
O11	O1	0.426650	0.417700	0.883400
O21	O2	0.088590	0.417900	0.590400
C11	C1	0.294000	0.429000	0.759900
H11	H1	0.317200	0.548700	0.779300
C21	C2	0.225800	0.428900	0.701900
H21	H2	0.202800	0.548600	0.682100
O31	O3	0.073350	0.582300	0.383400
O41	O4	0.411410	0.582100	0.090400
C31	C3	0.206000	0.571000	0.259900
H31	H3	0.182800	0.451300	0.279300
C41	C4	0.274200	0.571100	0.201900
H41	H4	0.297200	0.451400	0.182100
O51	O5	0.573350	0.917700	0.116600
O61	O6	0.911410	0.917900	0.409600
C51	C5	0.706000	0.929000	0.240100
H51	H5	0.682800	0.048700	0.220700
C61	C6	0.774200	0.928900	0.298100
H61	H6	0.797200	0.048600	0.317900
O71	O7	0.926650	0.082300	0.616600
O81	O8	0.588590	0.082100	0.909600
C71	C7	0.794000	0.071000	0.740100
H71	H7	0.817200	0.951300	0.720700
C81	C8	0.725800	0.071100	0.798100
H81	H8	0.702800	0.951400	0.817900
O91	O9	0.573350	0.582300	0.116600
O101	O10	0.911410	0.582100	0.409600
C91	C9	0.706000	0.571000	0.240100
H91	H9	0.682800	0.451300	0.220700
C101	C10	0.774200	0.571100	0.298100
H101	H10	0.797200	0.451400	0.317900
O111	O11	0.926650	0.417700	0.616600
O121	O12	0.588590	0.417900	0.909600
C111	C11	0.794000	0.429000	0.740100
H111	H11	0.817200	0.548700	0.720700
C121	C12	0.725800	0.428900	0.798100
H121	H12	0.702800	0.548600	0.817900
O131	O13	0.426650	0.082300	0.883400
O141	O14	0.088590	0.082100	0.590400
C131	C13	0.294000	0.071000	0.759900
H131	H13	0.317200	0.951300	0.779300
C141	C14	0.225800	0.071100	0.701900
H141	H14	0.202800	0.951400	0.682100
O151	O15	0.073350	0.917700	0.383400
O161	O16	0.411410	0.917900	0.090400
C151	C15	0.206000	0.929000	0.259900
H151	H15	0.182800	0.048700	0.279300
C161	C16	0.274200	0.928900	0.201900
H161	H16	0.297200	0.048600	0.182100
Ga11	Ga1	0.500000	0.500000	0.000000
Ga21	Ga2	0.000000	0.500000	0.500000
Ga31	Ga3	0.500000	0.000000	0.000000
Ga41	Ga4	0.000000	0.000000	0.500000
O171	O17	0.493940	0.250000	0.073200
C171	C17	0.400000	0.250000	0.857300
C181	C18	0.327900	0.250000	0.789300
C191	C19	0.191500	0.250000	0.673100
C201	C20	0.116500	0.250000	0.613300
O181	O18	0.006060	0.750000	0.573200
C211	C21	0.100000	0.750000	0.357300
C221	C22	0.172100	0.750000	0.289300
C231	C23	0.308500	0.750000	0.173100
C241	C24	0.383500	0.750000	0.113300
O191	O19	0.506060	0.750000	0.926800
C251	C25	0.600000	0.750000	0.142700
C261	C26	0.672100	0.750000	0.210700
C271	C27	0.808500	0.750000	0.326900
C281	C28	0.883500	0.750000	0.386700
O201	O20	0.993940	0.250000	0.426800
C291	C29	0.900000	0.250000	0.642700
C301	C30	0.827900	0.250000	0.710700
C311	C31	0.691500	0.250000	0.826900
C321	C32	0.616500	0.250000	0.886700
