data_DORYUG_freeONLY_PM
_symmetry_space_group_name_H-M	'P1'
_cell_length_a	27.579000
_cell_length_b	10.154000
_cell_length_c	20.350000
_cell_angle_alpha	90.000000
_cell_angle_beta	127.334000
_cell_angle_gamma	90.000000
_symmetry_Int_Tables_number 1

loop_
_symmetry_equiv_pos_as_xyz
'x,y,z'

loop_
_atom_site_label
_atom_site_type_symbol
_atom_site_fract_x
_atom_site_fract_y
_atom_site_fract_z
Cu11	Cu1	0.160500	0.741100	0.265500
O11	O1	0.155470	0.592000	0.330800
O21	O2	0.162500	0.474000	0.245900
O31	O3	0.154100	0.889700	0.341300
O41	O4	0.154800	0.993200	0.248700
N11	N1	0.068530	0.730700	0.179100
N21	N2	0.168880	0.251600	0.668500
N31	N3	0.751880	0.748400	0.854300
C11	C1	0.043300	0.651600	0.115200
H11	H1	0.068700	0.595600	0.112400
C21	C2	0.982000	0.646000	0.052400
H21	H2	0.967100	0.588200	0.008600
C31	C3	0.942500	0.726100	0.054000
C41	C4	0.968400	0.804600	0.122900
H31	H3	0.943700	0.857700	0.128700
C51	C5	0.030600	0.804800	0.183200
H41	H4	0.046900	0.859300	0.228800
C61	C6	0.876400	0.729900	0.985200
C71	C7	0.854200	0.703800	0.904800
H51	H5	0.880800	0.680900	0.893100
C81	C8	0.792000	0.712000	0.841700
H61	H6	0.777800	0.691100	0.788200
C91	C9	0.773400	0.771900	0.932700
H71	H7	0.745800	0.795100	0.942800
C101	C10	0.833900	0.763600	0.998400
H81	H8	0.846600	0.780300	0.051600
C111	C11	0.155800	0.992100	0.310500
C121	C12	0.191200	0.351500	0.651500
H91	H9	0.208200	0.422400	0.687900
C131	C13	0.145600	0.151300	0.615700
H101	H10	0.130200	0.079900	0.626200
C141	C14	0.160000	0.483900	0.304800
C151	C15	0.161100	0.359400	0.346100
C161	C16	0.159200	0.238900	0.313400
H111	H11	0.157900	0.235900	0.266700
C171	C17	0.159200	0.122900	0.348500
C181	C18	0.163300	0.127700	0.419700
H121	H12	0.164800	0.049700	0.444900
C191	C19	0.165000	0.248100	0.454000
C201	C20	0.164300	0.363400	0.416800
H131	H13	0.166000	0.444300	0.439600
C211	C21	0.143300	0.147700	0.546400
H141	H14	0.125700	0.075700	0.511100
C221	C22	0.166800	0.250600	0.528500
C231	C23	0.190300	0.355200	0.583400
H151	H15	0.205700	0.428400	0.574100
Cu21	Cu2	0.660500	0.241100	0.265500
O51	O5	0.655470	0.092000	0.330800
O61	O6	0.662500	0.974000	0.245900
O71	O7	0.654100	0.389700	0.341300
O81	O8	0.654800	0.493200	0.248700
N41	N4	0.568530	0.230700	0.179100
N51	N5	0.668880	0.751600	0.668500
N61	N6	0.251880	0.248400	0.854300
C241	C24	0.543300	0.151600	0.115200
H161	H16	0.568700	0.095600	0.112400
C251	C25	0.482000	0.146000	0.052400
H171	H17	0.467100	0.088200	0.008600
C261	C26	0.442500	0.226100	0.054000
C271	C27	0.468400	0.304600	0.122900
H181	H18	0.443700	0.357700	0.128700
C281	C28	0.530600	0.304800	0.183200
H191	H19	0.546900	0.359300	0.228800
C291	C29	0.376400	0.229900	0.985200
C301	C30	0.354200	0.203800	0.904800
H201	H20	0.380800	0.180900	0.893100
C311	C31	0.292000	0.212000	0.841700
H211	H21	0.277800	0.191100	0.788200
C321	C32	0.273400	0.271900	0.932700
H221	H22	0.245800	0.295100	0.942800
C331	C33	0.333900	0.263600	0.998400
H231	H23	0.346600	0.280300	0.051600
C341	C34	0.655800	0.492100	0.310500
C351	C35	0.691200	0.851500	0.651500
H241	H24	0.708200	0.922400	0.687900
C361	C36	0.645600	0.651300	0.615700
H251	H25	0.630200	0.579900	0.626200
C371	C37	0.660000	0.983900	0.304800
C381	C38	0.661100	0.859400	0.346100
C391	C39	0.659200	0.738900	0.313400
H261	H26	0.657900	0.735900	0.266700
C401	C40	0.659200	0.622900	0.348500
C411	C41	0.663300	0.627700	0.419700
H271	H27	0.664800	0.549700	0.444900
C421	C42	0.665000	0.748100	0.454000
C431	C43	0.664300	0.863400	0.416800
H281	H28	0.666000	0.944300	0.439600
C441	C44	0.643300	0.647700	0.546400
H291	H29	0.625700	0.575700	0.511100
C451	C45	0.666800	0.750600	0.528500
C461	C46	0.690300	0.855200	0.583400
H301	H30	0.705700	0.928400	0.574100
Cu31	Cu3	0.160500	0.258900	0.765500
O91	O9	0.155470	0.408000	0.830800
O101	O10	0.162500	0.526000	0.745900
O111	O11	0.154100	0.110300	0.841300
O121	O12	0.154800	0.006800	0.748700
N71	N7	0.068530	0.269300	0.679100
N81	N8	0.168880	0.748400	0.168500
N91	N9	0.751880	0.251600	0.354300
C471	C47	0.043300	0.348400	0.615200
H311	H31	0.068700	0.404400	0.612400
C481	C48	0.982000	0.354000	0.552400
H321	H32	0.967100	0.411800	0.508600
C491	C49	0.942500	0.273900	0.554000
C501	C50	0.968400	0.195400	0.622900
H331	H33	0.943700	0.142300	0.628700
C511	C51	0.030600	0.195200	0.683200
H341	H34	0.046900	0.140700	0.728800
C521	C52	0.876400	0.270100	0.485200
C531	C53	0.854200	0.296200	0.404800
H351	H35	0.880800	0.319100	0.393100
C541	C54	0.792000	0.288000	0.341700
H361	H36	0.777800	0.308900	0.288200
C551	C55	0.773400	0.228100	0.432700
H371	H37	0.745800	0.204900	0.442800
C561	C56	0.833900	0.236400	0.498400
H381	H38	0.846600	0.219700	0.551600
C571	C57	0.155800	0.007900	0.810500
C581	C58	0.191200	0.648500	0.151500
H391	H39	0.208200	0.577600	0.187900
C591	C59	0.145600	0.848700	0.115700
H401	H40	0.130200	0.920100	0.126200
C601	C60	0.160000	0.516100	0.804800
C611	C61	0.161100	0.640600	0.846100
C621	C62	0.159200	0.761100	0.813400
H411	H41	0.157900	0.764100	0.766700
C631	C63	0.159200	0.877100	0.848500
C641	C64	0.163300	0.872300	0.919700
H421	H42	0.164800	0.950300	0.944900
C651	C65	0.165000	0.751900	0.954000
C661	C66	0.164300	0.636600	0.916800
H431	H43	0.166000	0.555700	0.939600
C671	C67	0.143300	0.852300	0.046400
H441	H44	0.125700	0.924300	0.011100
C681	C68	0.166800	0.749400	0.028500
C691	C69	0.190300	0.644800	0.083400
H451	H45	0.205700	0.571600	0.074100
Cu41	Cu4	0.660500	0.758900	0.765500
O131	O13	0.655470	0.908000	0.830800
O141	O14	0.662500	0.026000	0.745900
O151	O15	0.654100	0.610300	0.841300
O161	O16	0.654800	0.506800	0.748700
N101	N10	0.568530	0.769300	0.679100
N111	N11	0.668880	0.248400	0.168500
N121	N12	0.251880	0.751600	0.354300
C701	C70	0.543300	0.848400	0.615200
H461	H46	0.568700	0.904400	0.612400
C711	C71	0.482000	0.854000	0.552400
H471	H47	0.467100	0.911800	0.508600
C721	C72	0.442500	0.773900	0.554000
C731	C73	0.468400	0.695400	0.622900
H481	H48	0.443700	0.642300	0.628700
C741	C74	0.530600	0.695200	0.683200
H491	H49	0.546900	0.640700	0.728800
C751	C75	0.376400	0.770100	0.485200
C761	C76	0.354200	0.796200	0.404800
H501	H50	0.380800	0.819100	0.393100
C771	C77	0.292000	0.788000	0.341700
H511	H51	0.277800	0.808900	0.288200
C781	C78	0.273400	0.728100	0.432700
H521	H52	0.245800	0.704900	0.442800
C791	C79	0.333900	0.736400	0.498400
H531	H53	0.346600	0.719700	0.551600
C801	C80	0.655800	0.507900	0.810500
C811	C81	0.691200	0.148500	0.151500
H541	H54	0.708200	0.077600	0.187900
C821	C82	0.645600	0.348700	0.115700
H551	H55	0.630200	0.420100	0.126200
C831	C83	0.660000	0.016100	0.804800
C841	C84	0.661100	0.140600	0.846100
C851	C85	0.659200	0.261100	0.813400
H561	H56	0.657900	0.264100	0.766700
C861	C86	0.659200	0.377100	0.848500
C871	C87	0.663300	0.372300	0.919700
H571	H57	0.664800	0.450300	0.944900
C881	C88	0.665000	0.251900	0.954000
C891	C89	0.664300	0.136600	0.916800
H581	H58	0.666000	0.055700	0.939600
C901	C90	0.643300	0.352300	0.046400
H591	H59	0.625700	0.424300	0.011100
C911	C91	0.666800	0.249400	0.028500
C921	C92	0.690300	0.144800	0.083400
H601	H60	0.705700	0.071600	0.074100
Cu51	Cu5	0.839500	0.741100	0.234500
O171	O17	0.844530	0.592000	0.169200
O181	O18	0.837500	0.474000	0.254100
O191	O19	0.845900	0.889700	0.158700
O201	O20	0.845200	0.993200	0.251300
N131	N13	0.931470	0.730700	0.320900
N141	N14	0.831120	0.251600	0.831500
N151	N15	0.248120	0.748400	0.645700
C931	C93	0.956700	0.651600	0.384800
H611	H61	0.931300	0.595600	0.387600
C941	C94	0.018000	0.646000	0.447600
H621	H62	0.032900	0.588200	0.491400
C951	C95	0.057500	0.726100	0.446000
C961	C96	0.031600	0.804600	0.377100
H631	H63	0.056300	0.857700	0.371300
C971	C97	0.969400	0.804800	0.316800
H641	H64	0.953100	0.859300	0.271200
C981	C98	0.123600	0.729900	0.514800
C991	C99	0.145800	0.703800	0.595200
H651	H65	0.119200	0.680900	0.606900
C1001	C100	0.208000	0.712000	0.658300
H661	H66	0.222200	0.691100	0.711800
C1011	C101	0.226600	0.771900	0.567300
H671	H67	0.254200	0.795100	0.557200
C1021	C102	0.166100	0.763600	0.501600
H681	H68	0.153400	0.780300	0.448400
C1031	C103	0.844200	0.992100	0.189500
C1041	C104	0.808800	0.351500	0.848500
H691	H69	0.791800	0.422400	0.812100
C1051	C105	0.854400	0.151300	0.884300
H701	H70	0.869800	0.079900	0.873800
C1061	C106	0.840000	0.483900	0.195200
C1071	C107	0.838900	0.359400	0.153900
C1081	C108	0.840800	0.238900	0.186600
H711	H71	0.842100	0.235900	0.233300
C1091	C109	0.840800	0.122900	0.151500
C1101	C110	0.836700	0.127700	0.080300
H721	H72	0.835200	0.049700	0.055100
C1111	C111	0.835000	0.248100	0.046000
C1121	C112	0.835700	0.363400	0.083200
H731	H73	0.834000	0.444300	0.060400
C1131	C113	0.856700	0.147700	0.953600
H741	H74	0.874300	0.075700	0.988900
C1141	C114	0.833200	0.250600	0.971500
C1151	C115	0.809700	0.355200	0.916600
H751	H75	0.794300	0.428400	0.925900
Cu61	Cu6	0.339500	0.241100	0.234500
O211	O21	0.344530	0.092000	0.169200
O221	O22	0.337500	0.974000	0.254100
O231	O23	0.345900	0.389700	0.158700
O241	O24	0.345200	0.493200	0.251300
N161	N16	0.431470	0.230700	0.320900
N171	N17	0.331120	0.751600	0.831500
N181	N18	0.748120	0.248400	0.645700
C1161	C116	0.456700	0.151600	0.384800
H761	H76	0.431300	0.095600	0.387600
C1171	C117	0.518000	0.146000	0.447600
H771	H77	0.532900	0.088200	0.491400
C1181	C118	0.557500	0.226100	0.446000
C1191	C119	0.531600	0.304600	0.377100
H781	H78	0.556300	0.357700	0.371300
C1201	C120	0.469400	0.304800	0.316800
H791	H79	0.453100	0.359300	0.271200
C1211	C121	0.623600	0.229900	0.514800
C1221	C122	0.645800	0.203800	0.595200
H801	H80	0.619200	0.180900	0.606900
C1231	C123	0.708000	0.212000	0.658300
H811	H81	0.722200	0.191100	0.711800
C1241	C124	0.726600	0.271900	0.567300
H821	H82	0.754200	0.295100	0.557200
C1251	C125	0.666100	0.263600	0.501600
H831	H83	0.653400	0.280300	0.448400
C1261	C126	0.344200	0.492100	0.189500
C1271	C127	0.308800	0.851500	0.848500
H841	H84	0.291800	0.922400	0.812100
C1281	C128	0.354400	0.651300	0.884300
H851	H85	0.369800	0.579900	0.873800
C1291	C129	0.340000	0.983900	0.195200
C1301	C130	0.338900	0.859400	0.153900
C1311	C131	0.340800	0.738900	0.186600
H861	H86	0.342100	0.735900	0.233300
C1321	C132	0.340800	0.622900	0.151500
C1331	C133	0.336700	0.627700	0.080300
H871	H87	0.335200	0.549700	0.055100
C1341	C134	0.335000	0.748100	0.046000
C1351	C135	0.335700	0.863400	0.083200
H881	H88	0.334000	0.944300	0.060400
C1361	C136	0.356700	0.647700	0.953600
H891	H89	0.374300	0.575700	0.988900
C1371	C137	0.333200	0.750600	0.971500
C1381	C138	0.309700	0.855200	0.916600
H901	H90	0.294300	0.928400	0.925900
Cu71	Cu7	0.839500	0.258900	0.734500
O251	O25	0.844530	0.408000	0.669200
O261	O26	0.837500	0.526000	0.754100
O271	O27	0.845900	0.110300	0.658700
O281	O28	0.845200	0.006800	0.751300
N191	N19	0.931470	0.269300	0.820900
N201	N20	0.831120	0.748400	0.331500
N211	N21	0.248120	0.251600	0.145700
C1391	C139	0.956700	0.348400	0.884800
H911	H91	0.931300	0.404400	0.887600
C1401	C140	0.018000	0.354000	0.947600
H921	H92	0.032900	0.411800	0.991400
C1411	C141	0.057500	0.273900	0.946000
C1421	C142	0.031600	0.195400	0.877100
H931	H93	0.056300	0.142300	0.871300
C1431	C143	0.969400	0.195200	0.816800
H941	H94	0.953100	0.140700	0.771200
C1441	C144	0.123600	0.270100	0.014800
C1451	C145	0.145800	0.296200	0.095200
H951	H95	0.119200	0.319100	0.106900
C1461	C146	0.208000	0.288000	0.158300
H961	H96	0.222200	0.308900	0.211800
C1471	C147	0.226600	0.228100	0.067300
H971	H97	0.254200	0.204900	0.057200
C1481	C148	0.166100	0.236400	0.001600
H981	H98	0.153400	0.219700	0.948400
C1491	C149	0.844200	0.007900	0.689500
C1501	C150	0.808800	0.648500	0.348500
H991	H99	0.791800	0.577600	0.312100
C1511	C151	0.854400	0.848700	0.384300
H1001	H100	0.869800	0.920100	0.373800
C1521	C152	0.840000	0.516100	0.695200
C1531	C153	0.838900	0.640600	0.653900
C1541	C154	0.840800	0.761100	0.686600
H1011	H101	0.842100	0.764100	0.733300
C1551	C155	0.840800	0.877100	0.651500
C1561	C156	0.836700	0.872300	0.580300
H1021	H102	0.835200	0.950300	0.555100
C1571	C157	0.835000	0.751900	0.546000
C1581	C158	0.835700	0.636600	0.583200
H1031	H103	0.834000	0.555700	0.560400
C1591	C159	0.856700	0.852300	0.453600
H1041	H104	0.874300	0.924300	0.488900
C1601	C160	0.833200	0.749400	0.471500
C1611	C161	0.809700	0.644800	0.416600
H1051	H105	0.794300	0.571600	0.425900
Cu81	Cu8	0.339500	0.758900	0.734500
O291	O29	0.344530	0.908000	0.669200
O301	O30	0.337500	0.026000	0.754100
O311	O31	0.345900	0.610300	0.658700
O321	O32	0.345200	0.506800	0.751300
N221	N22	0.431470	0.769300	0.820900
N231	N23	0.331120	0.248400	0.331500
N241	N24	0.748120	0.751600	0.145700
C1621	C162	0.456700	0.848400	0.884800
H1061	H106	0.431300	0.904400	0.887600
C1631	C163	0.518000	0.854000	0.947600
H1071	H107	0.532900	0.911800	0.991400
C1641	C164	0.557500	0.773900	0.946000
C1651	C165	0.531600	0.695400	0.877100
H1081	H108	0.556300	0.642300	0.871300
C1661	C166	0.469400	0.695200	0.816800
H1091	H109	0.453100	0.640700	0.771200
C1671	C167	0.623600	0.770100	0.014800
C1681	C168	0.645800	0.796200	0.095200
H1101	H110	0.619200	0.819100	0.106900
C1691	C169	0.708000	0.788000	0.158300
H1111	H111	0.722200	0.808900	0.211800
C1701	C170	0.726600	0.728100	0.067300
H1121	H112	0.754200	0.704900	0.057200
C1711	C171	0.666100	0.736400	0.001600
H1131	H113	0.653400	0.719700	0.948400
C1721	C172	0.344200	0.507900	0.689500
C1731	C173	0.308800	0.148500	0.348500
H1141	H114	0.291800	0.077600	0.312100
C1741	C174	0.354400	0.348700	0.384300
H1151	H115	0.369800	0.420100	0.373800
C1751	C175	0.340000	0.016100	0.695200
C1761	C176	0.338900	0.140600	0.653900
C1771	C177	0.340800	0.261100	0.686600
H1161	H116	0.342100	0.264100	0.733300
C1781	C178	0.340800	0.377100	0.651500
C1791	C179	0.336700	0.372300	0.580300
H1171	H117	0.335200	0.450300	0.555100
C1801	C180	0.335000	0.251900	0.546000
C1811	C181	0.335700	0.136600	0.583200
H1181	H118	0.334000	0.055700	0.560400
C1821	C182	0.356700	0.352300	0.453600
H1191	H119	0.374300	0.424300	0.488900
C1831	C183	0.333200	0.249400	0.471500
C1841	C184	0.309700	0.144800	0.416600
H1201	H120	0.294300	0.071600	0.425900
