data_DOYBUQ01_freeONLY_PM
_symmetry_space_group_name_H-M	'P1'
_cell_length_a	14.195000
_cell_length_b	14.644000
_cell_length_c	29.175000
_cell_angle_alpha	90.000000
_cell_angle_beta	90.000000
_cell_angle_gamma	90.000000
_symmetry_Int_Tables_number 1

loop_
_symmetry_equiv_pos_as_xyz
'x,y,z'

loop_
_atom_site_label
_atom_site_type_symbol
_atom_site_fract_x
_atom_site_fract_y
_atom_site_fract_z
N11	N1	0.259700	0.151300	0.451200
N21	N2	0.257100	0.149700	0.298600
C11	C1	0.266500	0.095900	0.423600
C21	C2	0.265400	0.095500	0.326300
C31	C3	0.048300	0.174000	0.257600
H11	H1	0.080300	0.118200	0.263300
N31	N3	0.259700	0.651300	0.951200
N41	N4	0.257100	0.649700	0.798600
C41	C4	0.266500	0.595900	0.923600
C51	C5	0.265400	0.595500	0.826300
C61	C6	0.048300	0.674000	0.757600
H21	H2	0.080300	0.618200	0.763300
N51	N5	0.759700	0.151300	0.951200
N61	N6	0.757100	0.149700	0.798600
C71	C7	0.766500	0.095900	0.923600
C81	C8	0.765400	0.095500	0.826300
C91	C9	0.548300	0.174000	0.757600
H31	H3	0.580300	0.118200	0.763300
N71	N7	0.759700	0.651300	0.451200
N81	N8	0.757100	0.649700	0.298600
C101	C10	0.766500	0.595900	0.423600
C111	C11	0.765400	0.595500	0.326300
C121	C12	0.548300	0.674000	0.257600
H41	H4	0.580300	0.618200	0.263300
N91	N9	0.740300	0.848700	0.451200
N101	N10	0.742900	0.850300	0.298600
C131	C13	0.733500	0.904100	0.423600
C141	C14	0.734600	0.904500	0.326300
C151	C15	0.951700	0.826000	0.257600
H51	H5	0.919700	0.881800	0.263300
N111	N11	0.740300	0.348700	0.951200
N121	N12	0.742900	0.350300	0.798600
C161	C16	0.733500	0.404100	0.923600
C171	C17	0.734600	0.404500	0.826300
C181	C18	0.951700	0.326000	0.757600
H61	H6	0.919700	0.381800	0.763300
N131	N13	0.240300	0.848700	0.951200
N141	N14	0.242900	0.850300	0.798600
C191	C19	0.233500	0.904100	0.923600
C201	C20	0.234600	0.904500	0.826300
C211	C21	0.451700	0.826000	0.757600
H71	H7	0.419700	0.881800	0.763300
N151	N15	0.240300	0.348700	0.451200
N161	N16	0.242900	0.350300	0.298600
C221	C22	0.233500	0.404100	0.423600
C231	C23	0.234600	0.404500	0.326300
C241	C24	0.451700	0.326000	0.257600
H81	H8	0.419700	0.381800	0.263300
N171	N17	0.740300	0.151300	0.548800
N181	N18	0.742900	0.149700	0.701400
C251	C25	0.733500	0.095900	0.576400
C261	C26	0.734600	0.095500	0.673700
C271	C27	0.951700	0.174000	0.742400
H91	H9	0.919700	0.118200	0.736700
N191	N19	0.740300	0.651300	0.048800
N201	N20	0.742900	0.649700	0.201400
C281	C28	0.733500	0.595900	0.076400
C291	C29	0.734600	0.595500	0.173700
C301	C30	0.951700	0.674000	0.242400
H101	H10	0.919700	0.618200	0.236700
N211	N21	0.240300	0.151300	0.048800
N221	N22	0.242900	0.149700	0.201400
C311	C31	0.233500	0.095900	0.076400
C321	C32	0.234600	0.095500	0.173700
C331	C33	0.451700	0.174000	0.242400
H111	H11	0.419700	0.118200	0.236700
N231	N23	0.240300	0.651300	0.548800
N241	N24	0.242900	0.649700	0.701400
C341	C34	0.233500	0.595900	0.576400
C351	C35	0.234600	0.595500	0.673700
C361	C36	0.451700	0.674000	0.742400
H121	H12	0.419700	0.618200	0.736700
N251	N25	0.259700	0.848700	0.548800
N261	N26	0.257100	0.850300	0.701400
C371	C37	0.266500	0.904100	0.576400
C381	C38	0.265400	0.904500	0.673700
C391	C39	0.048300	0.826000	0.742400
H131	H13	0.080300	0.881800	0.736700
N271	N27	0.259700	0.348700	0.048800
N281	N28	0.257100	0.350300	0.201400
C401	C40	0.266500	0.404100	0.076400
C411	C41	0.265400	0.404500	0.173700
C421	C42	0.048300	0.326000	0.242400
H141	H14	0.080300	0.381800	0.236700
N291	N29	0.759700	0.848700	0.048800
N301	N30	0.757100	0.850300	0.201400
C431	C43	0.766500	0.904100	0.076400
C441	C44	0.765400	0.904500	0.173700
C451	C45	0.548300	0.826000	0.242400
H151	H15	0.580300	0.881800	0.236700
N311	N31	0.759700	0.348700	0.548800
N321	N32	0.757100	0.350300	0.701400
C461	C46	0.766500	0.404100	0.576400
C471	C47	0.765400	0.404500	0.673700
C481	C48	0.548300	0.326000	0.742400
H161	H16	0.580300	0.381800	0.736700
N331	N33	0.740300	0.848700	0.548800
N341	N34	0.742900	0.850300	0.701400
C491	C49	0.733500	0.904100	0.576400
C501	C50	0.734600	0.904500	0.673700
C511	C51	0.951700	0.826000	0.742400
H171	H17	0.919700	0.881800	0.736700
N351	N35	0.740300	0.348700	0.048800
N361	N36	0.742900	0.350300	0.201400
C521	C52	0.733500	0.404100	0.076400
C531	C53	0.734600	0.404500	0.173700
C541	C54	0.951700	0.326000	0.242400
H181	H18	0.919700	0.381800	0.236700
N371	N37	0.240300	0.848700	0.048800
N381	N38	0.242900	0.850300	0.201400
C551	C55	0.233500	0.904100	0.076400
C561	C56	0.234600	0.904500	0.173700
C571	C57	0.451700	0.826000	0.242400
H191	H19	0.419700	0.881800	0.236700
N391	N39	0.240300	0.348700	0.548800
N401	N40	0.242900	0.350300	0.701400
C581	C58	0.233500	0.404100	0.576400
C591	C59	0.234600	0.404500	0.673700
C601	C60	0.451700	0.326000	0.742400
H201	H20	0.419700	0.381800	0.736700
N411	N41	0.259700	0.151300	0.548800
N421	N42	0.257100	0.149700	0.701400
C611	C61	0.266500	0.095900	0.576400
C621	C62	0.265400	0.095500	0.673700
C631	C63	0.048300	0.174000	0.742400
H211	H21	0.080300	0.118200	0.736700
N431	N43	0.259700	0.651300	0.048800
N441	N44	0.257100	0.649700	0.201400
C641	C64	0.266500	0.595900	0.076400
C651	C65	0.265400	0.595500	0.173700
C661	C66	0.048300	0.674000	0.242400
H221	H22	0.080300	0.618200	0.236700
N451	N45	0.759700	0.151300	0.048800
N461	N46	0.757100	0.149700	0.201400
C671	C67	0.766500	0.095900	0.076400
C681	C68	0.765400	0.095500	0.173700
C691	C69	0.548300	0.174000	0.242400
H231	H23	0.580300	0.118200	0.236700
N471	N47	0.759700	0.651300	0.548800
N481	N48	0.757100	0.649700	0.701400
C701	C70	0.766500	0.595900	0.576400
C711	C71	0.765400	0.595500	0.673700
C721	C72	0.548300	0.674000	0.742400
H241	H24	0.580300	0.618200	0.736700
N491	N49	0.259700	0.848700	0.451200
N501	N50	0.257100	0.850300	0.298600
C731	C73	0.266500	0.904100	0.423600
C741	C74	0.265400	0.904500	0.326300
C751	C75	0.048300	0.826000	0.257600
H251	H25	0.080300	0.881800	0.263300
N511	N51	0.259700	0.348700	0.951200
N521	N52	0.257100	0.350300	0.798600
C761	C76	0.266500	0.404100	0.923600
C771	C77	0.265400	0.404500	0.826300
C781	C78	0.048300	0.326000	0.757600
H261	H26	0.080300	0.381800	0.763300
N531	N53	0.759700	0.848700	0.951200
N541	N54	0.757100	0.850300	0.798600
C791	C79	0.766500	0.904100	0.923600
C801	C80	0.765400	0.904500	0.826300
C811	C81	0.548300	0.826000	0.757600
H271	H27	0.580300	0.881800	0.763300
N551	N55	0.759700	0.348700	0.451200
N561	N56	0.757100	0.350300	0.298600
C821	C82	0.766500	0.404100	0.423600
C831	C83	0.765400	0.404500	0.326300
C841	C84	0.548300	0.326000	0.257600
H281	H28	0.580300	0.381800	0.263300
N571	N57	0.740300	0.151300	0.451200
N581	N58	0.742900	0.149700	0.298600
C851	C85	0.733500	0.095900	0.423600
C861	C86	0.734600	0.095500	0.326300
C871	C87	0.951700	0.174000	0.257600
H291	H29	0.919700	0.118200	0.263300
N591	N59	0.740300	0.651300	0.951200
N601	N60	0.742900	0.649700	0.798600
C881	C88	0.733500	0.595900	0.923600
C891	C89	0.734600	0.595500	0.826300
C901	C90	0.951700	0.674000	0.757600
H301	H30	0.919700	0.618200	0.763300
N611	N61	0.240300	0.151300	0.951200
N621	N62	0.242900	0.149700	0.798600
C911	C91	0.233500	0.095900	0.923600
C921	C92	0.234600	0.095500	0.826300
C931	C93	0.451700	0.174000	0.757600
H311	H31	0.419700	0.118200	0.763300
N631	N63	0.240300	0.651300	0.451200
N641	N64	0.242900	0.649700	0.298600
C941	C94	0.233500	0.595900	0.423600
C951	C95	0.234600	0.595500	0.326300
C961	C96	0.451700	0.674000	0.257600
H321	H32	0.419700	0.618200	0.263300
Pt11	Pt1	0.269500	0.000000	0.374970
Pt21	Pt2	0.269500	0.500000	0.874970
Pt31	Pt3	0.769500	0.000000	0.874970
Pt41	Pt4	0.769500	0.500000	0.374970
Pt51	Pt5	0.730500	0.000000	0.374970
Pt61	Pt6	0.730500	0.500000	0.874970
Pt71	Pt7	0.230500	0.000000	0.874970
Pt81	Pt8	0.230500	0.500000	0.374970
Pt91	Pt9	0.730500	0.000000	0.625030
Pt101	Pt10	0.730500	0.500000	0.125030
Pt111	Pt11	0.230500	0.000000	0.125030
Pt121	Pt12	0.230500	0.500000	0.625030
Pt131	Pt13	0.269500	0.000000	0.625030
Pt141	Pt14	0.269500	0.500000	0.125030
Pt151	Pt15	0.769500	0.000000	0.125030
Pt161	Pt16	0.769500	0.500000	0.625030
Fe11	Fe1	0.250000	0.250000	0.500000
Fe21	Fe2	0.250000	0.750000	0.000000
Fe31	Fe3	0.750000	0.750000	0.500000
Fe41	Fe4	0.750000	0.250000	0.000000
Fe51	Fe5	0.750000	0.250000	0.500000
Fe61	Fe6	0.750000	0.750000	0.000000
Fe71	Fe7	0.250000	0.250000	0.000000
Fe81	Fe8	0.250000	0.750000	0.500000
Fe91	Fe9	0.250000	0.250000	0.250000
Fe101	Fe10	0.750000	0.750000	0.250000
Fe111	Fe11	0.750000	0.250000	0.750000
Fe121	Fe12	0.250000	0.750000	0.750000
Fe131	Fe13	0.750000	0.750000	0.750000
Fe141	Fe14	0.750000	0.250000	0.250000
Fe151	Fe15	0.250000	0.750000	0.250000
Fe161	Fe16	0.250000	0.250000	0.750000
N651	N65	0.102100	0.243700	0.500000
C971	C97	0.049400	0.167200	0.500000
C981	C98	0.049500	0.320900	0.500000
H331	H33	0.081000	0.110000	0.500000
H341	H34	0.081300	0.378000	0.500000
N661	N66	0.102100	0.743700	0.000000
C991	C99	0.049400	0.667200	0.000000
C1001	C100	0.049500	0.820900	0.000000
H351	H35	0.081000	0.610000	0.000000
H361	H36	0.081300	0.878000	0.000000
N671	N67	0.602100	0.243700	0.000000
C1011	C101	0.549400	0.167200	0.000000
C1021	C102	0.549500	0.320900	0.000000
H371	H37	0.581000	0.110000	0.000000
H381	H38	0.581300	0.378000	0.000000
N681	N68	0.602100	0.743700	0.500000
C1031	C103	0.549400	0.667200	0.500000
C1041	C104	0.549500	0.820900	0.500000
H391	H39	0.581000	0.610000	0.500000
H401	H40	0.581300	0.878000	0.500000
N691	N69	0.897900	0.756300	0.500000
C1051	C105	0.950600	0.832800	0.500000
C1061	C106	0.950500	0.679100	0.500000
H411	H41	0.919000	0.890000	0.500000
H421	H42	0.918700	0.622000	0.500000
N701	N70	0.897900	0.256300	0.000000
C1071	C107	0.950600	0.332800	0.000000
C1081	C108	0.950500	0.179100	0.000000
H431	H43	0.919000	0.390000	0.000000
H441	H44	0.918700	0.122000	0.000000
N711	N71	0.397900	0.756300	0.000000
C1091	C109	0.450600	0.832800	0.000000
C1101	C110	0.450500	0.679100	0.000000
H451	H45	0.419000	0.890000	0.000000
H461	H46	0.418700	0.622000	0.000000
N721	N72	0.397900	0.256300	0.500000
C1111	C111	0.450600	0.332800	0.500000
C1121	C112	0.450500	0.179100	0.500000
H471	H47	0.419000	0.390000	0.500000
H481	H48	0.418700	0.122000	0.500000
N731	N73	0.897900	0.243700	0.500000
C1131	C113	0.950600	0.167200	0.500000
C1141	C114	0.950500	0.320900	0.500000
H491	H49	0.919000	0.110000	0.500000
H501	H50	0.918700	0.378000	0.500000
N741	N74	0.897900	0.743700	0.000000
C1151	C115	0.950600	0.667200	0.000000
C1161	C116	0.950500	0.820900	0.000000
H511	H51	0.919000	0.610000	0.000000
H521	H52	0.918700	0.878000	0.000000
N751	N75	0.397900	0.243700	0.000000
C1171	C117	0.450600	0.167200	0.000000
C1181	C118	0.450500	0.320900	0.000000
H531	H53	0.419000	0.110000	0.000000
H541	H54	0.418700	0.378000	0.000000
N761	N76	0.397900	0.743700	0.500000
C1191	C119	0.450600	0.667200	0.500000
C1201	C120	0.450500	0.820900	0.500000
H551	H55	0.419000	0.610000	0.500000
H561	H56	0.418700	0.878000	0.500000
N771	N77	0.102100	0.756300	0.500000
C1211	C121	0.049400	0.832800	0.500000
C1221	C122	0.049500	0.679100	0.500000
H571	H57	0.081000	0.890000	0.500000
H581	H58	0.081300	0.622000	0.500000
N781	N78	0.102100	0.256300	0.000000
C1231	C123	0.049400	0.332800	0.000000
C1241	C124	0.049500	0.179100	0.000000
H591	H59	0.081000	0.390000	0.000000
H601	H60	0.081300	0.122000	0.000000
N791	N79	0.602100	0.756300	0.000000
C1251	C125	0.549400	0.832800	0.000000
C1261	C126	0.549500	0.679100	0.000000
H611	H61	0.581000	0.890000	0.000000
H621	H62	0.581300	0.622000	0.000000
N801	N80	0.602100	0.256300	0.500000
C1271	C127	0.549400	0.332800	0.500000
C1281	C128	0.549500	0.179100	0.500000
H631	H63	0.581000	0.390000	0.500000
H641	H64	0.581300	0.122000	0.500000
N811	N81	0.099900	0.250000	0.250000
N821	N82	0.599900	0.250000	0.750000
N831	N83	0.900100	0.750000	0.250000
N841	N84	0.400100	0.750000	0.750000
N851	N85	0.400100	0.250000	0.250000
N861	N86	0.900100	0.250000	0.750000
N871	N87	0.099900	0.750000	0.750000
N881	N88	0.599900	0.750000	0.250000
N891	N89	0.900100	0.750000	0.750000
N901	N90	0.900100	0.250000	0.250000
N911	N91	0.400100	0.750000	0.250000
N921	N92	0.099900	0.250000	0.750000
N931	N93	0.599900	0.250000	0.250000
N941	N94	0.099900	0.750000	0.250000
N951	N95	0.599900	0.750000	0.750000
N961	N96	0.400100	0.250000	0.750000
