data_DUBJUH_freeONLY_PM
_symmetry_space_group_name_H-M	'P1'
_cell_length_a	19.860000
_cell_length_b	22.140000
_cell_length_c	11.684400
_cell_angle_alpha	90.000000
_cell_angle_beta	116.318000
_cell_angle_gamma	90.000000
_symmetry_Int_Tables_number 1

loop_
_symmetry_equiv_pos_as_xyz
'x,y,z'

loop_
_atom_site_label
_atom_site_type_symbol
_atom_site_fract_x
_atom_site_fract_y
_atom_site_fract_z
Co11	Co1	0.312890	0.122950	0.613490
N11	N1	0.906330	0.319670	0.687000
N21	N2	0.140700	0.208920	0.970500
N31	N3	0.281600	0.141440	0.422800
O11	O1	0.313140	0.123760	0.802400
O21	O2	0.232480	0.175750	0.640400
O31	O3	0.236410	0.050120	0.562900
O41	O4	0.384740	0.050170	0.639300
C11	C1	0.918500	0.274100	0.623500
H11	H1	0.880700	0.264200	0.543400
C21	C2	0.983800	0.241100	0.669900
H21	H2	0.990100	0.210700	0.620600
C31	C3	0.040000	0.253400	0.790000
C41	C4	0.027300	0.299700	0.859600
H31	H3	0.063300	0.309100	0.941600
C51	C5	0.960500	0.331100	0.804500
H41	H4	0.952700	0.361900	0.851400
C61	C6	0.111800	0.220100	0.845300
C71	C7	0.147200	0.203600	0.771000
H51	H5	0.125600	0.212300	0.684100
C81	C8	0.215500	0.173930	0.829200
C91	C9	0.244800	0.160110	0.957400
H61	H6	0.289700	0.138900	0.997500
C101	C10	0.206000	0.178500	0.025600
C111	C11	0.325400	0.130400	0.365000
H71	H7	0.373100	0.114500	0.413400
C121	C12	0.303400	0.141300	0.237800
H81	H8	0.335700	0.132700	0.201900
C131	C13	0.233100	0.165130	0.163000
C141	C14	0.188700	0.177000	0.223300
H91	H9	0.141000	0.193400	0.177600
C151	C15	0.214800	0.164600	0.350900
H101	H10	0.183500	0.173000	0.389000
C161	C16	0.256500	0.156890	0.752800
Co21	Co2	0.812890	0.622950	0.613490
N41	N4	0.406330	0.819670	0.687000
N51	N5	0.640700	0.708920	0.970500
N61	N6	0.781600	0.641440	0.422800
O51	O5	0.813140	0.623760	0.802400
O61	O6	0.732480	0.675750	0.640400
O71	O7	0.736410	0.550120	0.562900
O81	O8	0.884740	0.550170	0.639300
C171	C17	0.418500	0.774100	0.623500
H111	H11	0.380700	0.764200	0.543400
C181	C18	0.483800	0.741100	0.669900
H121	H12	0.490100	0.710700	0.620600
C191	C19	0.540000	0.753400	0.790000
C201	C20	0.527300	0.799700	0.859600
H131	H13	0.563300	0.809100	0.941600
C211	C21	0.460500	0.831100	0.804500
H141	H14	0.452700	0.861900	0.851400
C221	C22	0.611800	0.720100	0.845300
C231	C23	0.647200	0.703600	0.771000
H151	H15	0.625600	0.712300	0.684100
C241	C24	0.715500	0.673930	0.829200
C251	C25	0.744800	0.660110	0.957400
H161	H16	0.789700	0.638900	0.997500
C261	C26	0.706000	0.678500	0.025600
C271	C27	0.825400	0.630400	0.365000
H171	H17	0.873100	0.614500	0.413400
C281	C28	0.803400	0.641300	0.237800
H181	H18	0.835700	0.632700	0.201900
C291	C29	0.733100	0.665130	0.163000
C301	C30	0.688700	0.677000	0.223300
H191	H19	0.641000	0.693400	0.177600
C311	C31	0.714800	0.664600	0.350900
H201	H20	0.683500	0.673000	0.389000
C321	C32	0.756500	0.656890	0.752800
Co31	Co3	0.312890	0.877050	0.613490
N71	N7	0.906330	0.680330	0.687000
N81	N8	0.140700	0.791080	0.970500
N91	N9	0.281600	0.858560	0.422800
O91	O9	0.313140	0.876240	0.802400
O101	O10	0.232480	0.824250	0.640400
O111	O11	0.236410	0.949880	0.562900
O121	O12	0.384740	0.949830	0.639300
C331	C33	0.918500	0.725900	0.623500
H211	H21	0.880700	0.735800	0.543400
C341	C34	0.983800	0.758900	0.669900
H221	H22	0.990100	0.789300	0.620600
C351	C35	0.040000	0.746600	0.790000
C361	C36	0.027300	0.700300	0.859600
H231	H23	0.063300	0.690900	0.941600
C371	C37	0.960500	0.668900	0.804500
H241	H24	0.952700	0.638100	0.851400
C381	C38	0.111800	0.779900	0.845300
C391	C39	0.147200	0.796400	0.771000
H251	H25	0.125600	0.787700	0.684100
C401	C40	0.215500	0.826070	0.829200
C411	C41	0.244800	0.839890	0.957400
H261	H26	0.289700	0.861100	0.997500
C421	C42	0.206000	0.821500	0.025600
C431	C43	0.325400	0.869600	0.365000
H271	H27	0.373100	0.885500	0.413400
C441	C44	0.303400	0.858700	0.237800
H281	H28	0.335700	0.867300	0.201900
C451	C45	0.233100	0.834870	0.163000
C461	C46	0.188700	0.823000	0.223300
H291	H29	0.141000	0.806600	0.177600
C471	C47	0.214800	0.835400	0.350900
H301	H30	0.183500	0.827000	0.389000
C481	C48	0.256500	0.843110	0.752800
Co41	Co4	0.812890	0.377050	0.613490
N101	N10	0.406330	0.180330	0.687000
N111	N11	0.640700	0.291080	0.970500
N121	N12	0.781600	0.358560	0.422800
O131	O13	0.813140	0.376240	0.802400
O141	O14	0.732480	0.324250	0.640400
O151	O15	0.736410	0.449880	0.562900
O161	O16	0.884740	0.449830	0.639300
C491	C49	0.418500	0.225900	0.623500
H311	H31	0.380700	0.235800	0.543400
C501	C50	0.483800	0.258900	0.669900
H321	H32	0.490100	0.289300	0.620600
C511	C51	0.540000	0.246600	0.790000
C521	C52	0.527300	0.200300	0.859600
H331	H33	0.563300	0.190900	0.941600
C531	C53	0.460500	0.168900	0.804500
H341	H34	0.452700	0.138100	0.851400
C541	C54	0.611800	0.279900	0.845300
C551	C55	0.647200	0.296400	0.771000
H351	H35	0.625600	0.287700	0.684100
C561	C56	0.715500	0.326070	0.829200
C571	C57	0.744800	0.339890	0.957400
H361	H36	0.789700	0.361100	0.997500
C581	C58	0.706000	0.321500	0.025600
C591	C59	0.825400	0.369600	0.365000
H371	H37	0.873100	0.385500	0.413400
C601	C60	0.803400	0.358700	0.237800
H381	H38	0.835700	0.367300	0.201900
C611	C61	0.733100	0.334870	0.163000
C621	C62	0.688700	0.323000	0.223300
H391	H39	0.641000	0.306600	0.177600
C631	C63	0.714800	0.335400	0.350900
H401	H40	0.683500	0.327000	0.389000
C641	C64	0.756500	0.343110	0.752800
C651	C65	0.267100	0.000000	0.578600
C661	C66	0.353200	0.000000	0.622700
C671	C67	0.767100	0.500000	0.578600
C681	C68	0.853200	0.500000	0.622700
Co51	Co5	0.687110	0.122950	0.386510
N131	N13	0.093670	0.319670	0.313000
N141	N14	0.859300	0.208920	0.029500
N151	N15	0.718400	0.141440	0.577200
O171	O17	0.686860	0.123760	0.197600
O181	O18	0.767520	0.175750	0.359600
O191	O19	0.763590	0.050120	0.437100
O201	O20	0.615260	0.050170	0.360700
C691	C69	0.081500	0.274100	0.376500
H411	H41	0.119300	0.264200	0.456600
C701	C70	0.016200	0.241100	0.330100
H421	H42	0.009900	0.210700	0.379400
C711	C71	0.960000	0.253400	0.210000
C721	C72	0.972700	0.299700	0.140400
H431	H43	0.936700	0.309100	0.058400
C731	C73	0.039500	0.331100	0.195500
H441	H44	0.047300	0.361900	0.148600
C741	C74	0.888200	0.220100	0.154700
C751	C75	0.852800	0.203600	0.229000
H451	H45	0.874400	0.212300	0.315900
C761	C76	0.784500	0.173930	0.170800
C771	C77	0.755200	0.160110	0.042600
H461	H46	0.710300	0.138900	0.002500
C781	C78	0.794000	0.178500	0.974400
C791	C79	0.674600	0.130400	0.635000
H471	H47	0.626900	0.114500	0.586600
C801	C80	0.696600	0.141300	0.762200
H481	H48	0.664300	0.132700	0.798100
C811	C81	0.766900	0.165130	0.837000
C821	C82	0.811300	0.177000	0.776700
H491	H49	0.859000	0.193400	0.822400
C831	C83	0.785200	0.164600	0.649100
H501	H50	0.816500	0.173000	0.611000
C841	C84	0.743500	0.156890	0.247200
Co61	Co6	0.187110	0.622950	0.386510
N161	N16	0.593670	0.819670	0.313000
N171	N17	0.359300	0.708920	0.029500
N181	N18	0.218400	0.641440	0.577200
O211	O21	0.186860	0.623760	0.197600
O221	O22	0.267520	0.675750	0.359600
O231	O23	0.263590	0.550120	0.437100
O241	O24	0.115260	0.550170	0.360700
C851	C85	0.581500	0.774100	0.376500
H511	H51	0.619300	0.764200	0.456600
C861	C86	0.516200	0.741100	0.330100
H521	H52	0.509900	0.710700	0.379400
C871	C87	0.460000	0.753400	0.210000
C881	C88	0.472700	0.799700	0.140400
H531	H53	0.436700	0.809100	0.058400
C891	C89	0.539500	0.831100	0.195500
H541	H54	0.547300	0.861900	0.148600
C901	C90	0.388200	0.720100	0.154700
C911	C91	0.352800	0.703600	0.229000
H551	H55	0.374400	0.712300	0.315900
C921	C92	0.284500	0.673930	0.170800
C931	C93	0.255200	0.660110	0.042600
H561	H56	0.210300	0.638900	0.002500
C941	C94	0.294000	0.678500	0.974400
C951	C95	0.174600	0.630400	0.635000
H571	H57	0.126900	0.614500	0.586600
C961	C96	0.196600	0.641300	0.762200
H581	H58	0.164300	0.632700	0.798100
C971	C97	0.266900	0.665130	0.837000
C981	C98	0.311300	0.677000	0.776700
H591	H59	0.359000	0.693400	0.822400
C991	C99	0.285200	0.664600	0.649100
H601	H60	0.316500	0.673000	0.611000
C1001	C100	0.243500	0.656890	0.247200
Co71	Co7	0.687110	0.877050	0.386510
N191	N19	0.093670	0.680330	0.313000
N201	N20	0.859300	0.791080	0.029500
N211	N21	0.718400	0.858560	0.577200
O251	O25	0.686860	0.876240	0.197600
O261	O26	0.767520	0.824250	0.359600
O271	O27	0.763590	0.949880	0.437100
O281	O28	0.615260	0.949830	0.360700
C1011	C101	0.081500	0.725900	0.376500
H611	H61	0.119300	0.735800	0.456600
C1021	C102	0.016200	0.758900	0.330100
H621	H62	0.009900	0.789300	0.379400
C1031	C103	0.960000	0.746600	0.210000
C1041	C104	0.972700	0.700300	0.140400
H631	H63	0.936700	0.690900	0.058400
C1051	C105	0.039500	0.668900	0.195500
H641	H64	0.047300	0.638100	0.148600
C1061	C106	0.888200	0.779900	0.154700
C1071	C107	0.852800	0.796400	0.229000
H651	H65	0.874400	0.787700	0.315900
C1081	C108	0.784500	0.826070	0.170800
C1091	C109	0.755200	0.839890	0.042600
H661	H66	0.710300	0.861100	0.002500
C1101	C110	0.794000	0.821500	0.974400
C1111	C111	0.674600	0.869600	0.635000
H671	H67	0.626900	0.885500	0.586600
C1121	C112	0.696600	0.858700	0.762200
H681	H68	0.664300	0.867300	0.798100
C1131	C113	0.766900	0.834870	0.837000
C1141	C114	0.811300	0.823000	0.776700
H691	H69	0.859000	0.806600	0.822400
C1151	C115	0.785200	0.835400	0.649100
H701	H70	0.816500	0.827000	0.611000
C1161	C116	0.743500	0.843110	0.247200
Co81	Co8	0.187110	0.377050	0.386510
N221	N22	0.593670	0.180330	0.313000
N231	N23	0.359300	0.291080	0.029500
N241	N24	0.218400	0.358560	0.577200
O291	O29	0.186860	0.376240	0.197600
O301	O30	0.267520	0.324250	0.359600
O311	O31	0.263590	0.449880	0.437100
O321	O32	0.115260	0.449830	0.360700
C1171	C117	0.581500	0.225900	0.376500
H711	H71	0.619300	0.235800	0.456600
C1181	C118	0.516200	0.258900	0.330100
H721	H72	0.509900	0.289300	0.379400
C1191	C119	0.460000	0.246600	0.210000
C1201	C120	0.472700	0.200300	0.140400
H731	H73	0.436700	0.190900	0.058400
C1211	C121	0.539500	0.168900	0.195500
H741	H74	0.547300	0.138100	0.148600
C1221	C122	0.388200	0.279900	0.154700
C1231	C123	0.352800	0.296400	0.229000
H751	H75	0.374400	0.287700	0.315900
C1241	C124	0.284500	0.326070	0.170800
C1251	C125	0.255200	0.339890	0.042600
H761	H76	0.210300	0.361100	0.002500
C1261	C126	0.294000	0.321500	0.974400
C1271	C127	0.174600	0.369600	0.635000
H771	H77	0.126900	0.385500	0.586600
C1281	C128	0.196600	0.358700	0.762200
H781	H78	0.164300	0.367300	0.798100
C1291	C129	0.266900	0.334870	0.837000
C1301	C130	0.311300	0.323000	0.776700
H791	H79	0.359000	0.306600	0.822400
C1311	C131	0.285200	0.335400	0.649100
H801	H80	0.316500	0.327000	0.611000
C1321	C132	0.243500	0.343110	0.247200
C1331	C133	0.732900	0.000000	0.421400
C1341	C134	0.646800	0.000000	0.377300
C1351	C135	0.232900	0.500000	0.421400
C1361	C136	0.146800	0.500000	0.377300
