data_DUDKUK_freeONLY_PM
_symmetry_space_group_name_H-M	'P1'
_cell_length_a	14.422500
_cell_length_b	14.260100
_cell_length_c	22.510600
_cell_angle_alpha	90.000000
_cell_angle_beta	100.154000
_cell_angle_gamma	90.000000
_symmetry_Int_Tables_number 1

loop_
_symmetry_equiv_pos_as_xyz
'x,y,z'

loop_
_atom_site_label
_atom_site_type_symbol
_atom_site_fract_x
_atom_site_fract_y
_atom_site_fract_z
Cd11	Cd1	0.256050	0.751130	0.240170
Cd21	Cd2	0.184550	0.624090	0.360430
O11	O1	0.097600	0.603300	0.268000
O21	O2	0.315500	0.652500	0.316900
O31	O3	0.259200	0.653800	0.453200
O41	O4	0.616900	0.360600	0.248700
O51	O5	0.847600	0.357900	0.237900
O61	O6	0.693900	0.321400	0.339100
O71	O7	0.375500	0.618200	0.236300
O81	O8	0.821500	0.283200	0.150500
N11	N1	0.523500	0.471000	0.488000
N21	N2	0.972100	0.473500	0.009700
C11	C1	0.629700	0.366000	0.305500
C21	C2	0.032200	0.542600	0.172700
C31	C3	0.439400	0.539800	0.327500
C41	C4	0.512000	0.479500	0.423600
C51	C5	0.499100	0.484100	0.299700
H11	H1	0.494200	0.485400	0.258000
C61	C6	0.572300	0.425100	0.396700
H21	H2	0.617100	0.387300	0.420200
C71	C7	0.444900	0.536700	0.389500
H31	H3	0.404200	0.572400	0.408100
C81	C8	0.975700	0.479500	0.073500
C91	C9	0.919300	0.417000	0.097500
H41	H4	0.881800	0.374800	0.072500
C101	C10	0.565500	0.427300	0.333900
C111	C11	0.974800	0.480000	0.196600
H51	H5	0.974000	0.480200	0.237800
C121	C12	0.032200	0.542800	0.111100
H61	H6	0.070000	0.585100	0.094800
C131	C13	0.097600	0.608700	0.212700
C141	C14	0.918600	0.417200	0.159300
C151	C15	0.372700	0.605300	0.289800
C161	C16	0.858200	0.346800	0.184200
N31	N3	0.254900	0.769400	0.518600
C171	C17	0.384700	0.766100	0.460400
H71	H7	0.433700	0.720100	0.470200
H81	H8	0.403100	0.822800	0.482300
H91	H9	0.374600	0.778700	0.417900
C181	C18	0.290600	0.727500	0.478300
O91	O9	0.218500	0.468800	0.363600
C191	C19	0.170500	0.733400	0.532800
H101	H10	0.152800	0.677900	0.509400
H111	H11	0.121600	0.779600	0.523700
H121	H12	0.179700	0.718200	0.575000
O101	O10	0.146200	0.662300	0.187600
C201	C20	0.298300	0.851300	0.553700
H131	H13	0.358900	0.833900	0.575900
H141	H14	0.258400	0.871300	0.581200
H151	H15	0.305600	0.901700	0.526600
C211	C21	0.214900	0.401900	0.390800
C221	C22	0.257000	0.411000	0.456700
H161	H16	0.283700	0.473000	0.464200
H171	H17	0.305900	0.365300	0.467300
H181	H18	0.209200	0.402000	0.480700
N41	N4	0.170100	0.324400	0.372400
C231	C23	0.155000	0.237000	0.408300
H191	H19	0.198400	0.237600	0.446100
H201	H20	0.166900	0.182100	0.385800
H211	H21	0.091900	0.235500	0.415700
C241	C24	0.123000	0.320000	0.308000
H221	H22	0.160600	0.351200	0.283200
H231	H23	0.062100	0.349100	0.303600
H241	H24	0.115000	0.255100	0.295800
O111	O11	0.054400	0.596000	0.396800
C251	C25	0.939000	0.687000	0.343600
H251	H25	0.890200	0.715200	0.362000
H261	H26	0.913600	0.672100	0.302400
H271	H27	0.989800	0.730900	0.345000
N51	N5	0.912300	0.531500	0.373400
C261	C26	0.942000	0.432000	0.382200
H281	H28	0.003300	0.424100	0.372000
H291	H29	0.897700	0.392500	0.356800
H301	H30	0.943900	0.414700	0.423700
C271	C27	0.972000	0.604000	0.375500
C281	C28	0.813500	0.538000	0.346300
H311	H31	0.798000	0.490000	0.316700
H321	H32	0.801600	0.598600	0.327400
H331	H33	0.775500	0.531500	0.377100
Cd31	Cd3	0.743950	0.251130	0.259830
Cd41	Cd4	0.815450	0.124090	0.139570
O121	O12	0.902400	0.103300	0.232000
O131	O13	0.684500	0.152500	0.183100
O141	O14	0.740800	0.153800	0.046800
O151	O15	0.383100	0.860600	0.251300
O161	O16	0.152400	0.857900	0.262100
O171	O17	0.306100	0.821400	0.160900
O181	O18	0.624500	0.118200	0.263700
O191	O19	0.178500	0.783200	0.349500
N61	N6	0.476500	0.971000	0.012000
N71	N7	0.027900	0.973500	0.490300
C291	C29	0.370300	0.866000	0.194500
C301	C30	0.967800	0.042600	0.327300
C311	C31	0.560600	0.039800	0.172500
C321	C32	0.488000	0.979500	0.076400
C331	C33	0.500900	0.984100	0.200300
H341	H34	0.505800	0.985400	0.242000
C341	C34	0.427700	0.925100	0.103300
H351	H35	0.382900	0.887300	0.079800
C351	C35	0.555100	0.036700	0.110500
H361	H36	0.595800	0.072400	0.091900
C361	C36	0.024300	0.979500	0.426500
C371	C37	0.080700	0.917000	0.402500
H371	H37	0.118200	0.874800	0.427500
C381	C38	0.434500	0.927300	0.166100
C391	C39	0.025200	0.980000	0.303400
H381	H38	0.026000	0.980200	0.262200
C401	C40	0.967800	0.042800	0.388900
H391	H39	0.930000	0.085100	0.405200
C411	C41	0.902400	0.108700	0.287300
C421	C42	0.081400	0.917200	0.340700
C431	C43	0.627300	0.105300	0.210200
C441	C44	0.141800	0.846800	0.315800
N81	N8	0.745100	0.269400	0.981400
C451	C45	0.615300	0.266100	0.039600
H401	H40	0.566300	0.220100	0.029800
H411	H41	0.596900	0.322800	0.017700
H421	H42	0.625400	0.278700	0.082100
C461	C46	0.709400	0.227500	0.021700
O201	O20	0.781500	0.968800	0.136400
C471	C47	0.829500	0.233400	0.967200
H431	H43	0.847200	0.177900	0.990600
H441	H44	0.878400	0.279600	0.976300
H451	H45	0.820300	0.218200	0.925000
O211	O21	0.853800	0.162300	0.312400
C481	C48	0.701700	0.351300	0.946300
H461	H46	0.641100	0.333900	0.924100
H471	H47	0.741600	0.371300	0.918800
H481	H48	0.694400	0.401700	0.973400
C491	C49	0.785100	0.901900	0.109200
C501	C50	0.743000	0.911000	0.043300
H491	H49	0.716300	0.973000	0.035800
H501	H50	0.694100	0.865300	0.032700
H511	H51	0.790800	0.902000	0.019300
N91	N9	0.829900	0.824400	0.127600
C511	C51	0.845000	0.737000	0.091700
H521	H52	0.801600	0.737600	0.053900
H531	H53	0.833100	0.682100	0.114200
H541	H54	0.908100	0.735500	0.084300
C521	C52	0.877000	0.820000	0.192000
H551	H55	0.839400	0.851200	0.216800
H561	H56	0.937900	0.849100	0.196400
H571	H57	0.885000	0.755100	0.204200
O221	O22	0.945600	0.096000	0.103200
C531	C53	0.061000	0.187000	0.156400
H581	H58	0.109800	0.215200	0.138000
H591	H59	0.086400	0.172100	0.197600
H601	H60	0.010200	0.230900	0.155000
N101	N10	0.087700	0.031500	0.126600
C541	C54	0.058000	0.932000	0.117800
H611	H61	0.996700	0.924100	0.128000
H621	H62	0.102300	0.892500	0.143200
H631	H63	0.056100	0.914700	0.076300
C551	C55	0.028000	0.104000	0.124500
C561	C56	0.186500	0.038000	0.153700
H641	H64	0.202000	0.990000	0.183300
H651	H65	0.198400	0.098600	0.172600
H661	H66	0.224500	0.031500	0.122900
Cd51	Cd5	0.743950	0.248870	0.759830
Cd61	Cd6	0.815450	0.375910	0.639570
O231	O23	0.902400	0.396700	0.732000
O241	O24	0.684500	0.347500	0.683100
O251	O25	0.740800	0.346200	0.546800
O261	O26	0.383100	0.639400	0.751300
O271	O27	0.152400	0.642100	0.762100
O281	O28	0.306100	0.678600	0.660900
O291	O29	0.624500	0.381800	0.763700
O301	O30	0.178500	0.716800	0.849500
N111	N11	0.476500	0.529000	0.512000
N121	N12	0.027900	0.526500	0.990300
C571	C57	0.370300	0.634000	0.694500
C581	C58	0.967800	0.457400	0.827300
C591	C59	0.560600	0.460200	0.672500
C601	C60	0.488000	0.520500	0.576400
C611	C61	0.500900	0.515900	0.700300
H671	H67	0.505800	0.514600	0.742000
C621	C62	0.427700	0.574900	0.603300
H681	H68	0.382900	0.612700	0.579800
C631	C63	0.555100	0.463300	0.610500
H691	H69	0.595800	0.427600	0.591900
C641	C64	0.024300	0.520500	0.926500
C651	C65	0.080700	0.583000	0.902500
H701	H70	0.118200	0.625200	0.927500
C661	C66	0.434500	0.572700	0.666100
C671	C67	0.025200	0.520000	0.803400
H711	H71	0.026000	0.519800	0.762200
C681	C68	0.967800	0.457200	0.888900
H721	H72	0.930000	0.414900	0.905200
C691	C69	0.902400	0.391300	0.787300
C701	C70	0.081400	0.582800	0.840700
C711	C71	0.627300	0.394700	0.710200
C721	C72	0.141800	0.653200	0.815800
N131	N13	0.745100	0.230600	0.481400
C731	C73	0.615300	0.233900	0.539600
H731	H73	0.566300	0.279900	0.529800
H741	H74	0.596900	0.177200	0.517700
H751	H75	0.625400	0.221300	0.582100
C741	C74	0.709400	0.272500	0.521700
O311	O31	0.781500	0.531200	0.636400
C751	C75	0.829500	0.266600	0.467200
H761	H76	0.847200	0.322100	0.490600
H771	H77	0.878400	0.220400	0.476300
H781	H78	0.820300	0.281800	0.425000
O321	O32	0.853800	0.337700	0.812400
C761	C76	0.701700	0.148700	0.446300
H791	H79	0.641100	0.166100	0.424100
H801	H80	0.741600	0.128700	0.418800
H811	H81	0.694400	0.098300	0.473400
C771	C77	0.785100	0.598100	0.609200
C781	C78	0.743000	0.589000	0.543300
H821	H82	0.716300	0.527000	0.535800
H831	H83	0.694100	0.634700	0.532700
H841	H84	0.790800	0.598000	0.519300
N141	N14	0.829900	0.675600	0.627600
C791	C79	0.845000	0.763000	0.591700
H851	H85	0.801600	0.762400	0.553900
H861	H86	0.833100	0.817900	0.614200
H871	H87	0.908100	0.764500	0.584300
C801	C80	0.877000	0.680000	0.692000
H881	H88	0.839400	0.648800	0.716800
H891	H89	0.937900	0.650900	0.696400
H901	H90	0.885000	0.744900	0.704200
O331	O33	0.945600	0.404000	0.603200
C811	C81	0.061000	0.313000	0.656400
H911	H91	0.109800	0.284800	0.638000
H921	H92	0.086400	0.327900	0.697600
H931	H93	0.010200	0.269100	0.655000
N151	N15	0.087700	0.468500	0.626600
C821	C82	0.058000	0.568000	0.617800
H941	H94	0.996700	0.575900	0.628000
H951	H95	0.102300	0.607500	0.643200
H961	H96	0.056100	0.585300	0.576300
C831	C83	0.028000	0.396000	0.624500
C841	C84	0.186500	0.462000	0.653700
H971	H97	0.202000	0.510000	0.683300
H981	H98	0.198400	0.401400	0.672600
H991	H99	0.224500	0.468500	0.622900
Cd71	Cd7	0.256050	0.748870	0.740170
Cd81	Cd8	0.184550	0.875910	0.860430
O341	O34	0.097600	0.896700	0.768000
O351	O35	0.315500	0.847500	0.816900
O361	O36	0.259200	0.846200	0.953200
O371	O37	0.616900	0.139400	0.748700
O381	O38	0.847600	0.142100	0.737900
O391	O39	0.693900	0.178600	0.839100
O401	O40	0.375500	0.881800	0.736300
O411	O41	0.821500	0.216800	0.650500
N161	N16	0.523500	0.029000	0.988000
N171	N17	0.972100	0.026500	0.509700
C851	C85	0.629700	0.134000	0.805500
C861	C86	0.032200	0.957400	0.672700
C871	C87	0.439400	0.960200	0.827500
C881	C88	0.512000	0.020500	0.923600
C891	C89	0.499100	0.015900	0.799700
H1001	H100	0.494200	0.014600	0.758000
C901	C90	0.572300	0.074900	0.896700
H1011	H101	0.617100	0.112700	0.920200
C911	C91	0.444900	0.963300	0.889500
H1021	H102	0.404200	0.927600	0.908100
C921	C92	0.975700	0.020500	0.573500
C931	C93	0.919300	0.083000	0.597500
H1031	H103	0.881800	0.125200	0.572500
C941	C94	0.565500	0.072700	0.833900
C951	C95	0.974800	0.020000	0.696600
H1041	H104	0.974000	0.019800	0.737800
C961	C96	0.032200	0.957200	0.611100
H1051	H105	0.070000	0.914900	0.594800
C971	C97	0.097600	0.891300	0.712700
C981	C98	0.918600	0.082800	0.659300
C991	C99	0.372700	0.894700	0.789800
C1001	C100	0.858200	0.153200	0.684200
N181	N18	0.254900	0.730600	0.018600
C1011	C101	0.384700	0.733900	0.960400
H1061	H106	0.433700	0.779900	0.970200
H1071	H107	0.403100	0.677200	0.982300
H1081	H108	0.374600	0.721300	0.917900
C1021	C102	0.290600	0.772500	0.978300
O421	O42	0.218500	0.031200	0.863600
C1031	C103	0.170500	0.766600	0.032800
H1091	H109	0.152800	0.822100	0.009400
H1101	H110	0.121600	0.720400	0.023700
H1111	H111	0.179700	0.781800	0.075000
O431	O43	0.146200	0.837700	0.687600
C1041	C104	0.298300	0.648700	0.053700
H1121	H112	0.358900	0.666100	0.075900
H1131	H113	0.258400	0.628700	0.081200
H1141	H114	0.305600	0.598300	0.026600
C1051	C105	0.214900	0.098100	0.890800
C1061	C106	0.257000	0.089000	0.956700
H1151	H115	0.283700	0.027000	0.964200
H1161	H116	0.305900	0.134700	0.967300
H1171	H117	0.209200	0.098000	0.980700
N191	N19	0.170100	0.175600	0.872400
C1071	C107	0.155000	0.263000	0.908300
H1181	H118	0.198400	0.262400	0.946100
H1191	H119	0.166900	0.317900	0.885800
H1201	H120	0.091900	0.264500	0.915700
C1081	C108	0.123000	0.180000	0.808000
H1211	H121	0.160600	0.148800	0.783200
H1221	H122	0.062100	0.150900	0.803600
H1231	H123	0.115000	0.244900	0.795800
O441	O44	0.054400	0.904000	0.896800
C1091	C109	0.939000	0.813000	0.843600
H1241	H124	0.890200	0.784800	0.862000
H1251	H125	0.913600	0.827900	0.802400
H1261	H126	0.989800	0.769100	0.845000
N201	N20	0.912300	0.968500	0.873400
C1101	C110	0.942000	0.068000	0.882200
H1271	H127	0.003300	0.075900	0.872000
H1281	H128	0.897700	0.107500	0.856800
H1291	H129	0.943900	0.085300	0.923700
C1111	C111	0.972000	0.896000	0.875500
C1121	C112	0.813500	0.962000	0.846300
H1301	H130	0.798000	0.010000	0.816700
H1311	H131	0.801600	0.901400	0.827400
H1321	H132	0.775500	0.968500	0.877100
