data_DUGGOD_freeONLY_PM
_symmetry_space_group_name_H-M	'P1'
_cell_length_a	11.926000
_cell_length_b	14.419000
_cell_length_c	24.311000
_cell_angle_alpha	90.000000
_cell_angle_beta	103.424000
_cell_angle_gamma	90.000000
_symmetry_Int_Tables_number 1

loop_
_symmetry_equiv_pos_as_xyz
'x,y,z'

loop_
_atom_site_label
_atom_site_type_symbol
_atom_site_fract_x
_atom_site_fract_y
_atom_site_fract_z
C11	C1	0.464900	0.924800	0.462800
H11	H1	0.464800	0.987800	0.471100
C21	C2	0.896000	0.170300	0.344700
H21	H2	0.875900	0.108100	0.339400
C31	C3	0.122300	0.544000	0.440700
H31	H3	0.075800	0.594400	0.444300
C41	C4	0.180500	0.408900	0.432200
H41	H4	0.185900	0.345100	0.427900
C51	C5	0.969000	0.306400	0.336200
H51	H5	0.010200	0.355200	0.325500
C61	C6	0.240000	0.677600	0.552900
H61	H6	0.264800	0.616900	0.560800
C71	C7	0.182000	0.813300	0.560100
H71	H7	0.157800	0.867200	0.575000
C81	C8	0.666000	0.050600	0.569000
H81	H8	0.630600	0.001800	0.583200
C91	C9	0.395000	0.671000	0.335000
H91	H9	0.372600	0.732600	0.328300
C101	C10	0.473000	0.529000	0.332800
H101	H10	0.509000	0.477300	0.322100
C111	C11	0.683000	0.433100	0.436000
H111	H11	0.690000	0.497100	0.432900
C121	C12	0.030000	0.051800	0.460600
H121	H12	0.080200	0.101400	0.462300
C131	C13	0.965000	0.912000	0.458400
H131	H13	0.960200	0.847700	0.456000
C141	C14	0.743000	0.182100	0.564000
H141	H14	0.773600	0.240600	0.574500
C151	C15	0.522000	0.791300	0.451200
H151	H15	0.569500	0.740900	0.448900
C161	C16	0.603000	0.136700	0.339600
H161	H16	0.606200	0.196700	0.326100
C171	C17	0.284000	0.116000	0.419300
H171	H17	0.324500	0.132900	0.455300
C181	C18	0.192000	0.030000	0.356700
H181	H18	0.149200	0.982600	0.335500
C191	C19	0.557000	0.994000	0.347300
H191	H19	0.525000	0.934900	0.340500
C201	C20	0.621500	0.299700	0.447100
H201	H20	0.574000	0.250700	0.452000
N11	N1	0.374300	0.876700	0.454500
N21	N2	0.415100	0.784600	0.447300
N31	N3	0.560800	0.880200	0.459100
N41	N4	0.639200	0.018700	0.392000
N51	N5	0.670000	0.105100	0.386700
N61	N6	0.708600	0.045400	0.522000
N71	N7	0.755200	0.134300	0.517300
N81	N8	0.894700	0.213700	0.387600
N91	N9	0.935400	0.301700	0.382200
N101	N10	0.083500	0.452100	0.436900
N111	N11	0.266500	0.465600	0.434400
N121	N12	0.585700	0.390000	0.437400
N131	N13	0.243900	0.722600	0.506500
N141	N14	0.206700	0.806300	0.511200
N151	N15	0.197000	0.729500	0.586400
N161	N16	0.386100	0.621600	0.378000
N171	N17	0.682000	0.133100	0.591700
N181	N18	0.916200	0.061600	0.456800
N191	N19	0.933000	0.225300	0.304100
N201	N20	0.446000	0.614700	0.300000
N211	N21	0.439400	0.538700	0.378600
N221	N22	0.232700	0.026400	0.407800
N231	N23	0.526000	0.070200	0.312600
N241	N24	0.875100	0.967900	0.458900
N251	N25	0.063300	0.960100	0.461900
N261	N26	0.217000	0.113000	0.335200
N271	N27	0.271000	0.169000	0.380200
N281	N28	0.730600	0.292000	0.448500
N291	N29	0.768600	0.373900	0.439300
N301	N30	0.222500	0.551300	0.438700
O11	O1	0.192100	0.284900	0.669500
O21	O2	0.349900	0.150400	0.683800
O31	O3	0.404600	0.323700	0.663600
O41	O4	0.931000	0.501600	0.501400
O51	O5	0.358600	0.278000	0.762100
O61	O6	0.198600	0.432900	0.751600
O71	O7	0.049400	0.391200	0.597800
O81	O8	0.991900	0.213100	0.615900
O91	O9	0.277400	0.332800	0.843000
O101	O10	0.431700	0.202100	0.857800
O111	O11	0.406300	0.472500	0.744100
O121	O12	0.564700	0.450700	0.687400
O131	O13	0.491400	0.370800	0.838000
O141	O14	0.593100	0.185000	0.685200
O151	O15	0.543100	0.142400	0.779400
O161	O16	0.292400	0.096400	0.787200
O171	O17	0.421100	0.998300	0.735600
O181	O18	0.172300	0.151600	0.572200
O191	O19	0.389000	0.188500	0.568700
O201	O20	0.229200	0.327500	0.555700
O211	O21	0.024600	0.522700	0.675400
O221	O22	0.421600	0.606500	0.665900
O231	O23	0.652200	0.009900	0.729000
O241	O24	0.750200	0.336100	0.693900
O251	O25	0.597300	0.315200	0.765100
O261	O26	0.299500	0.006000	0.534200
O271	O27	0.664400	0.241300	0.875600
O281	O28	0.563400	0.321300	0.607600
O291	O29	0.469400	0.044000	0.637000
O301	O30	0.247100	0.997900	0.641400
O311	O31	0.006300	0.341100	0.699600
O321	O32	0.120600	0.098600	0.696400
O331	O33	0.904400	0.166400	0.705600
O341	O34	0.395700	0.457900	0.589200
O351	O35	0.206300	0.922300	0.738600
O361	O36	0.997100	0.273500	0.505600
O371	O37	0.420300	0.343900	0.497200
O381	O38	0.129500	0.225500	0.771400
O391	O39	0.222200	0.170700	0.886100
O401	O40	0.339300	0.517300	0.846200
O411	O41	0.244100	0.479000	0.656900
O421	O42	0.792000	0.826800	0.529400
Si11	Si1	0.323700	0.259800	0.694900
Cu11	Cu1	0.219300	0.916980	0.461400
Cu21	Cu2	0.317000	0.670790	0.443290
Cu31	Cu3	0.714600	0.931810	0.459010
Cu41	Cu4	0.821900	0.172890	0.452840
Cu51	Cu5	0.932100	0.404570	0.439080
Cu61	Cu6	0.430700	0.435350	0.436850
W11	W1	0.607380	0.322420	0.687190
W21	W2	0.542120	0.252090	0.822990
W31	W3	0.343410	0.424170	0.803610
W41	W4	0.529750	0.077030	0.710540
W51	W5	0.265550	0.205930	0.826180
W61	W6	0.107300	0.430430	0.676190
W71	W7	0.096690	0.268210	0.570420
W81	W8	0.403940	0.488830	0.665850
W91	W9	0.394820	0.319090	0.565460
W101	W10	0.309910	0.082920	0.591020
W111	W11	0.034190	0.207910	0.695100
W121	W12	0.259170	0.024160	0.718450
C211	C21	0.964900	0.075200	0.962800
H211	H21	0.964800	0.012200	0.971100
C221	C22	0.396000	0.829700	0.844700
H221	H22	0.375900	0.891900	0.839400
C231	C23	0.622300	0.456000	0.940700
H231	H23	0.575800	0.405600	0.944300
C241	C24	0.680500	0.591100	0.932200
H241	H24	0.685900	0.654900	0.927900
C251	C25	0.469000	0.693600	0.836200
H251	H25	0.510200	0.644800	0.825500
C261	C26	0.740000	0.322400	0.052900
H261	H26	0.764800	0.383100	0.060800
C271	C27	0.682000	0.186700	0.060100
H271	H27	0.657800	0.132800	0.075000
C281	C28	0.166000	0.949400	0.069000
H281	H28	0.130600	0.998200	0.083200
C291	C29	0.895000	0.329000	0.835000
H291	H29	0.872600	0.267400	0.828300
C301	C30	0.973000	0.471000	0.832800
H301	H30	0.009000	0.522700	0.822100
C311	C31	0.183000	0.566900	0.936000
H311	H31	0.190000	0.502900	0.932900
C321	C32	0.530000	0.948200	0.960600
H321	H32	0.580200	0.898600	0.962300
C331	C33	0.465000	0.088000	0.958400
H331	H33	0.460200	0.152300	0.956000
C341	C34	0.243000	0.817900	0.064000
H341	H34	0.273600	0.759400	0.074500
C351	C35	0.022000	0.208700	0.951200
H351	H35	0.069500	0.259100	0.948900
C361	C36	0.103000	0.863300	0.839600
H361	H36	0.106200	0.803300	0.826100
C371	C37	0.784000	0.884000	0.919300
H371	H37	0.824500	0.867100	0.955300
C381	C38	0.692000	0.970000	0.856700
H381	H38	0.649200	0.017400	0.835500
C391	C39	0.057000	0.006000	0.847300
H391	H39	0.025000	0.065100	0.840500
C401	C40	0.121500	0.700300	0.947100
H401	H40	0.074000	0.749300	0.952000
N311	N31	0.874300	0.123300	0.954500
N321	N32	0.915100	0.215400	0.947300
N331	N33	0.060800	0.119800	0.959100
N341	N34	0.139200	0.981300	0.892000
N351	N35	0.170000	0.894900	0.886700
N361	N36	0.208600	0.954600	0.022000
N371	N37	0.255200	0.865700	0.017300
N381	N38	0.394700	0.786300	0.887600
N391	N39	0.435400	0.698300	0.882200
N401	N40	0.583500	0.547900	0.936900
N411	N41	0.766500	0.534400	0.934400
N421	N42	0.085700	0.610000	0.937400
N431	N43	0.743900	0.277400	0.006500
N441	N44	0.706700	0.193700	0.011200
N451	N45	0.697000	0.270500	0.086400
N461	N46	0.886100	0.378400	0.878000
N471	N47	0.182000	0.866900	0.091700
N481	N48	0.416200	0.938400	0.956800
N491	N49	0.433000	0.774700	0.804100
N501	N50	0.946000	0.385300	0.800000
N511	N51	0.939400	0.461300	0.878600
N521	N52	0.732700	0.973600	0.907800
N531	N53	0.026000	0.929800	0.812600
N541	N54	0.375100	0.032100	0.958900
N551	N55	0.563300	0.039900	0.961900
N561	N56	0.717000	0.887000	0.835200
N571	N57	0.771000	0.831000	0.880200
N581	N58	0.230600	0.708000	0.948500
N591	N59	0.268600	0.626100	0.939300
N601	N60	0.722500	0.448700	0.938700
O431	O43	0.692100	0.715100	0.169500
O441	O44	0.849900	0.849600	0.183800
O451	O45	0.904600	0.676300	0.163600
O461	O46	0.431000	0.498400	0.001400
O471	O47	0.858600	0.722000	0.262100
O481	O48	0.698600	0.567100	0.251600
O491	O49	0.549400	0.608800	0.097800
O501	O50	0.491900	0.786900	0.115900
O511	O51	0.777400	0.667200	0.343000
O521	O52	0.931700	0.797900	0.357800
O531	O53	0.906300	0.527500	0.244100
O541	O54	0.064700	0.549300	0.187400
O551	O55	0.991400	0.629200	0.338000
O561	O56	0.093100	0.815000	0.185200
O571	O57	0.043100	0.857600	0.279400
O581	O58	0.792400	0.903600	0.287200
O591	O59	0.921100	0.001700	0.235600
O601	O60	0.672300	0.848400	0.072200
O611	O61	0.889000	0.811500	0.068700
O621	O62	0.729200	0.672500	0.055700
O631	O63	0.524600	0.477300	0.175400
O641	O64	0.921600	0.393500	0.165900
O651	O65	0.152200	0.990100	0.229000
O661	O66	0.250200	0.663900	0.193900
O671	O67	0.097300	0.684800	0.265100
O681	O68	0.799500	0.994000	0.034200
O691	O69	0.164400	0.758700	0.375600
O701	O70	0.063400	0.678700	0.107600
O711	O71	0.969400	0.956000	0.137000
O721	O72	0.747100	0.002100	0.141400
O731	O73	0.506300	0.658900	0.199600
O741	O74	0.620600	0.901400	0.196400
O751	O75	0.404400	0.833600	0.205600
O761	O76	0.895700	0.542100	0.089200
O771	O77	0.706300	0.077700	0.238600
O781	O78	0.497100	0.726500	0.005600
O791	O79	0.920300	0.656100	0.997200
O801	O80	0.629500	0.774500	0.271400
O811	O81	0.722200	0.829300	0.386100
O821	O82	0.839300	0.482700	0.346200
O831	O83	0.744100	0.521000	0.156900
O841	O84	0.292000	0.173200	0.029400
Si21	Si2	0.823700	0.740200	0.194900
Cu71	Cu7	0.719300	0.083020	0.961400
Cu81	Cu8	0.817000	0.329210	0.943290
Cu91	Cu9	0.214600	0.068190	0.959010
Cu101	Cu10	0.321900	0.827110	0.952840
Cu111	Cu11	0.432100	0.595430	0.939080
Cu121	Cu12	0.930700	0.564650	0.936850
W131	W13	0.107380	0.677580	0.187190
W141	W14	0.042120	0.747910	0.322990
W151	W15	0.843410	0.575830	0.303610
W161	W16	0.029750	0.922970	0.210540
W171	W17	0.765550	0.794070	0.326180
W181	W18	0.607300	0.569570	0.176190
W191	W19	0.596690	0.731790	0.070420
W201	W20	0.903940	0.511170	0.165850
W211	W21	0.894820	0.680910	0.065460
W221	W22	0.809910	0.917080	0.091020
W231	W23	0.534190	0.792090	0.195100
W241	W24	0.759170	0.975840	0.218450
