data_DUJQUW_freeONLY_PM
_symmetry_space_group_name_H-M	'P1'
_cell_length_a	8.594000
_cell_length_b	8.594000
_cell_length_c	12.444100
_cell_angle_alpha	90.000000
_cell_angle_beta	90.000000
_cell_angle_gamma	120.000000
_symmetry_Int_Tables_number 1

loop_
_symmetry_equiv_pos_as_xyz
'x,y,z'

loop_
_atom_site_label
_atom_site_type_symbol
_atom_site_fract_x
_atom_site_fract_y
_atom_site_fract_z
O11	O1	0.663000	0.914800	0.098900
O21	O2	0.307600	0.751300	0.104400
O31	O3	0.085200	0.748200	0.765570
O41	O4	0.248700	0.556300	0.771070
O51	O5	0.251800	0.337000	0.432230
O61	O6	0.443700	0.692400	0.437730
O71	O7	0.337000	0.085200	0.098900
O81	O8	0.692400	0.248700	0.104400
O91	O9	0.914800	0.251800	0.765570
O101	O10	0.751300	0.443700	0.771070
O111	O11	0.748200	0.663000	0.432230
O121	O12	0.556300	0.307600	0.437730
O131	O13	0.914800	0.663000	0.567770
O141	O14	0.751300	0.307600	0.562270
O151	O15	0.748200	0.085200	0.901100
O161	O16	0.556300	0.248700	0.895600
O171	O17	0.337000	0.251800	0.234430
O181	O18	0.692400	0.443700	0.228930
O191	O19	0.085200	0.337000	0.567770
O201	O20	0.248700	0.692400	0.562270
O211	O21	0.251800	0.914800	0.901100
O221	O22	0.443700	0.751300	0.895600
O231	O23	0.663000	0.748200	0.234430
O241	O24	0.307600	0.556300	0.228930
Sc11	Sc1	0.500000	0.000000	0.000000
Sc21	Sc2	0.000000	0.500000	0.666670
Sc31	Sc3	0.500000	0.500000	0.333330
C11	C1	0.589300	0.794650	0.166670
C21	C2	0.379300	0.689650	0.166670
C31	C3	0.205350	0.794650	0.833330
C41	C4	0.310350	0.689650	0.833330
C51	C5	0.205350	0.410700	0.500000
C61	C6	0.310350	0.620700	0.500000
C71	C7	0.410700	0.205350	0.166670
C81	C8	0.620700	0.310350	0.166670
C91	C9	0.794650	0.205350	0.833330
C101	C10	0.689650	0.310350	0.833330
C111	C11	0.794650	0.589300	0.500000
C121	C12	0.689650	0.379300	0.500000
