data_DUMFEY_freeONLY_PM
_symmetry_space_group_name_H-M	'P1'
_cell_length_a	7.014800
_cell_length_b	7.014800
_cell_length_c	7.565500
_cell_angle_alpha	90.000000
_cell_angle_beta	90.000000
_cell_angle_gamma	90.000000
_symmetry_Int_Tables_number 1

loop_
_symmetry_equiv_pos_as_xyz
'x,y,z'

loop_
_atom_site_label
_atom_site_type_symbol
_atom_site_fract_x
_atom_site_fract_y
_atom_site_fract_z
N11	N1	0.500000	0.209100	0.500000
N21	N2	0.500000	0.790900	0.500000
N31	N3	0.790900	0.500000	0.500000
N41	N4	0.209100	0.500000	0.500000
C11	C1	0.500000	0.092400	0.361180
H11	H1	0.500000	0.160000	0.260000
C21	C2	0.500000	0.907600	0.361180
H21	H2	0.500000	0.840000	0.260000
C31	C3	0.907600	0.500000	0.361180
H31	H3	0.840000	0.500000	0.260000
C41	C4	0.092400	0.500000	0.361180
H41	H4	0.160000	0.500000	0.260000
C51	C5	0.500000	0.092400	0.638820
H51	H5	0.500000	0.160000	0.740000
C61	C6	0.500000	0.907600	0.638820
H61	H6	0.500000	0.840000	0.740000
C71	C7	0.092400	0.500000	0.638820
H71	H7	0.160000	0.500000	0.740000
C81	C8	0.907600	0.500000	0.638820
H81	H8	0.840000	0.500000	0.740000
Ni11	Ni1	0.500000	0.500000	0.500000
F11	F1	0.500000	0.500000	0.208100
F21	F2	0.500000	0.500000	0.791900
F31	F3	0.337400	0.337400	0.000000
F41	F4	0.662600	0.662600	0.000000
F51	F5	0.662600	0.337400	0.000000
F61	F6	0.337400	0.662600	0.000000
Si11	Si1	0.500000	0.500000	0.000000
