data_DUMXEQ01_freeONLY_PM
_symmetry_space_group_name_H-M	'P1'
_cell_length_a	10.141400
_cell_length_b	17.398300
_cell_length_c	11.364600
_cell_angle_alpha	90.000000
_cell_angle_beta	110.085000
_cell_angle_gamma	90.000000
_symmetry_Int_Tables_number 1

loop_
_symmetry_equiv_pos_as_xyz
'x,y,z'

loop_
_atom_site_label
_atom_site_type_symbol
_atom_site_fract_x
_atom_site_fract_y
_atom_site_fract_z
Dy11	Dy1	0.509470	0.507040	0.681280
O11	O1	0.728300	0.485790	0.655700
O21	O2	0.702800	0.538650	0.879400
O31	O3	0.708700	0.452920	0.458700
O41	O4	0.356700	0.417430	0.725100
O51	O5	0.411900	0.567980	0.816900
N11	N1	0.731000	0.469600	0.907900
O61	O6	0.560400	0.860740	0.157400
O71	O7	0.526100	0.915840	0.974800
O81	O8	0.646400	0.418260	0.844100
N21	N2	0.446800	0.636860	0.869600
N31	N3	0.218000	0.425200	0.690200
C11	C1	0.135300	0.399400	0.577300
H11	H1	0.175100	0.374500	0.525200
C21	C2	0.537300	0.856700	0.042800
C31	C3	0.551100	0.712100	0.050600
H21	H2	0.598600	0.715200	0.136500
C41	C4	0.020000	0.468400	0.735100
H31	H3	0.982200	0.490200	0.791200
C51	C5	0.437600	0.772100	0.852600
H41	H4	0.410000	0.816000	0.803500
O91	O9	0.837000	0.451800	0.995800
C61	C6	0.992500	0.409600	0.538700
H51	H5	0.936100	0.392500	0.459900
C71	C7	0.776400	0.462400	0.574100
C81	C8	0.931800	0.445500	0.617100
C91	C9	0.405100	0.701000	0.798600
H61	H6	0.354400	0.696700	0.713500
C101	C10	0.511400	0.779100	0.979600
C111	C11	0.161800	0.459200	0.768800
H71	H7	0.220300	0.476400	0.846600
C121	C12	0.519700	0.641900	0.993100
H81	H8	0.549100	0.597300	0.039900
Dy21	Dy2	0.490530	0.007040	0.818720
O101	O10	0.271700	0.985790	0.844300
O111	O11	0.297200	0.038650	0.620600
O121	O12	0.291300	0.952920	0.041300
O131	O13	0.643300	0.917430	0.774900
O141	O14	0.588100	0.067980	0.683100
N41	N4	0.269000	0.969600	0.592100
O151	O15	0.439600	0.360740	0.342600
O161	O16	0.473900	0.415840	0.525200
O171	O17	0.353600	0.918260	0.655900
N51	N5	0.553200	0.136860	0.630400
N61	N6	0.782000	0.925200	0.809800
C131	C13	0.864700	0.899400	0.922700
H91	H9	0.824900	0.874500	0.974800
C141	C14	0.462700	0.356700	0.457200
C151	C15	0.448900	0.212100	0.449400
H101	H10	0.401400	0.215200	0.363500
C161	C16	0.980000	0.968400	0.764900
H111	H11	0.017800	0.990200	0.708800
C171	C17	0.562400	0.272100	0.647400
H121	H12	0.590000	0.316000	0.696500
O181	O18	0.163000	0.951800	0.504200
C181	C18	0.007500	0.909600	0.961300
H131	H13	0.063900	0.892500	0.040100
C191	C19	0.223600	0.962400	0.925900
C201	C20	0.068200	0.945500	0.882900
C211	C21	0.594900	0.201000	0.701400
H141	H14	0.645600	0.196700	0.786500
C221	C22	0.488600	0.279100	0.520400
C231	C23	0.838200	0.959200	0.731200
H151	H15	0.779700	0.976400	0.653400
C241	C24	0.480300	0.141900	0.506900
H161	H16	0.450900	0.097300	0.460100
Dy31	Dy3	0.490530	0.492960	0.318720
O191	O19	0.271700	0.514210	0.344300
O201	O20	0.297200	0.461350	0.120600
O211	O21	0.291300	0.547080	0.541300
O221	O22	0.643300	0.582570	0.274900
O231	O23	0.588100	0.432020	0.183100
N71	N7	0.269000	0.530400	0.092100
O241	O24	0.439600	0.139260	0.842600
O251	O25	0.473900	0.084160	0.025200
O261	O26	0.353600	0.581740	0.155900
N81	N8	0.553200	0.363140	0.130400
N91	N9	0.782000	0.574800	0.309800
C251	C25	0.864700	0.600600	0.422700
H171	H17	0.824900	0.625500	0.474800
C261	C26	0.462700	0.143300	0.957200
C271	C27	0.448900	0.287900	0.949400
H181	H18	0.401400	0.284800	0.863500
C281	C28	0.980000	0.531600	0.264900
H191	H19	0.017800	0.509800	0.208800
C291	C29	0.562400	0.227900	0.147400
H201	H20	0.590000	0.184000	0.196500
O271	O27	0.163000	0.548200	0.004200
C301	C30	0.007500	0.590400	0.461300
H211	H21	0.063900	0.607500	0.540100
C311	C31	0.223600	0.537600	0.425900
C321	C32	0.068200	0.554500	0.382900
C331	C33	0.594900	0.299000	0.201400
H221	H22	0.645600	0.303300	0.286500
C341	C34	0.488600	0.220900	0.020400
C351	C35	0.838200	0.540800	0.231200
H231	H23	0.779700	0.523600	0.153400
C361	C36	0.480300	0.358100	0.006900
H241	H24	0.450900	0.402700	0.960100
Dy41	Dy4	0.509470	0.992960	0.181280
O281	O28	0.728300	0.014210	0.155700
O291	O29	0.702800	0.961350	0.379400
O301	O30	0.708700	0.047080	0.958700
O311	O31	0.356700	0.082570	0.225100
O321	O32	0.411900	0.932020	0.316900
N101	N10	0.731000	0.030400	0.407900
O331	O33	0.560400	0.639260	0.657400
O341	O34	0.526100	0.584160	0.474800
O351	O35	0.646400	0.081740	0.344100
N111	N11	0.446800	0.863140	0.369600
N121	N12	0.218000	0.074800	0.190200
C371	C37	0.135300	0.100600	0.077300
H251	H25	0.175100	0.125500	0.025200
C381	C38	0.537300	0.643300	0.542800
C391	C39	0.551100	0.787900	0.550600
H261	H26	0.598600	0.784800	0.636500
C401	C40	0.020000	0.031600	0.235100
H271	H27	0.982200	0.009800	0.291200
C411	C41	0.437600	0.727900	0.352600
H281	H28	0.410000	0.684000	0.303500
O361	O36	0.837000	0.048200	0.495800
C421	C42	0.992500	0.090400	0.038700
H291	H29	0.936100	0.107500	0.959900
C431	C43	0.776400	0.037600	0.074100
C441	C44	0.931800	0.054500	0.117100
C451	C45	0.405100	0.799000	0.298600
H301	H30	0.354400	0.803300	0.213500
C461	C46	0.511400	0.720900	0.479600
C471	C47	0.161800	0.040800	0.268800
H311	H31	0.220300	0.023600	0.346600
C481	C48	0.519700	0.858100	0.493100
H321	H32	0.549100	0.902700	0.539900
