data_DUNXUH04_freeONLY_PM
_symmetry_space_group_name_H-M	'P1'
_cell_length_a	11.249900
_cell_length_b	11.788800
_cell_length_c	16.227100
_cell_angle_alpha	90.000000
_cell_angle_beta	129.399000
_cell_angle_gamma	90.000000
_symmetry_Int_Tables_number 1

loop_
_symmetry_equiv_pos_as_xyz
'x,y,z'

loop_
_atom_site_label
_atom_site_type_symbol
_atom_site_fract_x
_atom_site_fract_y
_atom_site_fract_z
Zn11	Zn1	0.323330	0.473520	0.482570
S11	S1	0.477750	0.527410	0.714930
O11	O1	0.436020	0.570930	0.614060
O21	O2	0.634220	0.555580	0.804270
O31	O3	0.437700	0.410110	0.706310
O41	O4	0.525140	0.851440	0.966230
O51	O5	0.286130	0.920290	0.874470
O61	O6	0.858690	0.647660	0.631060
O71	O7	0.893230	0.514020	0.555050
C11	C1	0.358100	0.603520	0.731800
C21	C2	0.417000	0.691800	0.804190
H11	H1	0.522400	0.712100	0.845900
C31	C3	0.320700	0.750730	0.815480
C41	C4	0.382600	0.848130	0.891360
C51	C5	0.166950	0.719430	0.755180
H21	H2	0.101500	0.759200	0.763300
C61	C6	0.108900	0.630120	0.683050
C71	C7	0.204200	0.572340	0.670390
H31	H3	0.164600	0.512200	0.620300
C81	C8	0.943800	0.595620	0.619440
Zn21	Zn2	0.676670	0.973520	0.017440
S21	S2	0.522250	0.027410	0.785070
O81	O8	0.563980	0.070930	0.885940
O91	O9	0.365780	0.055580	0.695730
O101	O10	0.562300	0.910110	0.793690
O111	O11	0.474860	0.351440	0.533770
O121	O12	0.713870	0.420290	0.625530
O131	O13	0.141310	0.147660	0.868940
O141	O14	0.106770	0.014020	0.944950
C91	C9	0.641900	0.103520	0.768200
C101	C10	0.583000	0.191800	0.695810
H41	H4	0.477600	0.212100	0.654100
C111	C11	0.679300	0.250730	0.684520
C121	C12	0.617400	0.348130	0.608640
C131	C13	0.833050	0.219430	0.744820
H51	H5	0.898500	0.259200	0.736700
C141	C14	0.891100	0.130120	0.816950
C151	C15	0.795800	0.072340	0.829610
H61	H6	0.835400	0.012200	0.879700
C161	C16	0.056200	0.095620	0.880560
Zn31	Zn3	0.676670	0.526480	0.517430
S31	S3	0.522250	0.472590	0.285070
O151	O15	0.563980	0.429070	0.385940
O161	O16	0.365780	0.444420	0.195730
O171	O17	0.562300	0.589890	0.293690
O181	O18	0.474860	0.148560	0.033770
O191	O19	0.713870	0.079710	0.125530
O201	O20	0.141310	0.352340	0.368940
O211	O21	0.106770	0.485980	0.444950
C171	C17	0.641900	0.396480	0.268200
C181	C18	0.583000	0.308200	0.195810
H71	H7	0.477600	0.287900	0.154100
C191	C19	0.679300	0.249270	0.184520
C201	C20	0.617400	0.151870	0.108640
C211	C21	0.833050	0.280570	0.244820
H81	H8	0.898500	0.240800	0.236700
C221	C22	0.891100	0.369880	0.316950
C231	C23	0.795800	0.427660	0.329610
H91	H9	0.835400	0.487800	0.379700
C241	C24	0.056200	0.404380	0.380560
Zn41	Zn4	0.323330	0.026480	0.982570
S41	S4	0.477750	0.972590	0.214930
O221	O22	0.436020	0.929070	0.114060
O231	O23	0.634220	0.944420	0.304270
O241	O24	0.437700	0.089890	0.206310
O251	O25	0.525140	0.648560	0.466230
O261	O26	0.286130	0.579710	0.374470
O271	O27	0.858690	0.852340	0.131060
O281	O28	0.893230	0.985980	0.055050
C251	C25	0.358100	0.896480	0.231800
C261	C26	0.417000	0.808200	0.304190
H101	H10	0.522400	0.787900	0.345900
C271	C27	0.320700	0.749270	0.315480
C281	C28	0.382600	0.651870	0.391360
C291	C29	0.166950	0.780570	0.255180
H111	H11	0.101500	0.740800	0.263300
C301	C30	0.108900	0.869880	0.183050
C311	C31	0.204200	0.927660	0.170390
H121	H12	0.164600	0.987800	0.120300
C321	C32	0.943800	0.904380	0.119440
