data_DUNXUH_freeONLY_PM
_symmetry_space_group_name_H-M	'P1'
_cell_length_a	11.257400
_cell_length_b	12.003400
_cell_length_c	16.143000
_cell_angle_alpha	90.000000
_cell_angle_beta	129.603000
_cell_angle_gamma	90.000000
_symmetry_Int_Tables_number 1

loop_
_symmetry_equiv_pos_as_xyz
'x,y,z'

loop_
_atom_site_label
_atom_site_type_symbol
_atom_site_fract_x
_atom_site_fract_y
_atom_site_fract_z
Zn11	Zn1	0.178020	0.025790	0.018750
O11	O1	0.070070	0.927020	0.888530
O21	O2	0.393600	0.019430	0.056160
O31	O3	0.360590	0.146770	0.134660
O41	O4	0.214740	0.921350	0.126660
O51	O5	0.024620	0.144100	0.964020
S11	S1	0.022640	0.965560	0.784700
C11	C1	0.142000	0.890410	0.768160
O61	O6	0.057600	0.080970	0.788130
O71	O7	0.866680	0.933700	0.697650
C21	C2	0.295500	0.922310	0.828600
C31	C3	0.083800	0.802600	0.696890
C41	C4	0.391200	0.866030	0.816600
H11	H1	0.333800	0.981200	0.876900
C51	C5	0.180000	0.745180	0.685880
H21	H2	0.980900	0.782000	0.656500
C61	C6	0.333500	0.777480	0.745470
C71	C7	0.555600	0.901250	0.878880
C81	C8	0.118100	0.648490	0.610270
H31	H3	0.397500	0.739400	0.737400
Zn21	Zn2	0.821980	0.525790	0.481250
O81	O8	0.929930	0.427020	0.611470
O91	O9	0.606400	0.519430	0.443840
O101	O10	0.639410	0.646770	0.365340
O111	O11	0.785260	0.421350	0.373340
O121	O12	0.975380	0.644100	0.535980
S21	S2	0.977360	0.465560	0.715300
C91	C9	0.858000	0.390410	0.731840
O131	O13	0.942400	0.580970	0.711870
O141	O14	0.133320	0.433700	0.802350
C101	C10	0.704500	0.422310	0.671400
C111	C11	0.916200	0.302600	0.803110
C121	C12	0.608800	0.366030	0.683400
H41	H4	0.666200	0.481200	0.623100
C131	C13	0.820000	0.245180	0.814120
H51	H5	0.019100	0.282000	0.843500
C141	C14	0.666500	0.277480	0.754530
C151	C15	0.444400	0.401250	0.621120
C161	C16	0.881900	0.148490	0.889730
H61	H6	0.602500	0.239400	0.762600
Zn31	Zn3	0.821980	0.974210	0.981250
O151	O15	0.929930	0.072980	0.111470
O161	O16	0.606400	0.980570	0.943840
O171	O17	0.639410	0.853230	0.865340
O181	O18	0.785260	0.078650	0.873340
O191	O19	0.975380	0.855900	0.035980
S31	S3	0.977360	0.034440	0.215300
C171	C17	0.858000	0.109590	0.231840
O201	O20	0.942400	0.919030	0.211870
O211	O21	0.133320	0.066300	0.302350
C181	C18	0.704500	0.077690	0.171400
C191	C19	0.916200	0.197400	0.303110
C201	C20	0.608800	0.133970	0.183400
H71	H7	0.666200	0.018800	0.123100
C211	C21	0.820000	0.254820	0.314120
H81	H8	0.019100	0.218000	0.343500
C221	C22	0.666500	0.222520	0.254530
C231	C23	0.444400	0.098750	0.121120
C241	C24	0.881900	0.351510	0.389730
H91	H9	0.602500	0.260600	0.262600
Zn41	Zn4	0.178020	0.474210	0.518750
O221	O22	0.070070	0.572980	0.388530
O231	O23	0.393600	0.480570	0.556160
O241	O24	0.360590	0.353230	0.634660
O251	O25	0.214740	0.578650	0.626660
O261	O26	0.024620	0.355900	0.464020
S41	S4	0.022640	0.534440	0.284700
C251	C25	0.142000	0.609590	0.268160
O271	O27	0.057600	0.419030	0.288130
O281	O28	0.866680	0.566300	0.197650
C261	C26	0.295500	0.577690	0.328600
C271	C27	0.083800	0.697400	0.196890
C281	C28	0.391200	0.633970	0.316600
H101	H10	0.333800	0.518800	0.376900
C291	C29	0.180000	0.754820	0.185880
H111	H11	0.980900	0.718000	0.156500
C301	C30	0.333500	0.722520	0.245470
C311	C31	0.555600	0.598750	0.378880
C321	C32	0.118100	0.851510	0.110270
H121	H12	0.397500	0.760600	0.237400
