data_DUQYEU01_freeONLY_PM
_symmetry_space_group_name_H-M	'P1'
_cell_length_a	9.619100
_cell_length_b	11.602300
_cell_length_c	14.304400
_cell_angle_alpha	90.000000
_cell_angle_beta	122.456000
_cell_angle_gamma	90.000000
_symmetry_Int_Tables_number 1

loop_
_symmetry_equiv_pos_as_xyz
'x,y,z'

loop_
_atom_site_label
_atom_site_type_symbol
_atom_site_fract_x
_atom_site_fract_y
_atom_site_fract_z
Dy11	Dy1	0.382340	0.512980	0.667600
O11	O1	0.603200	0.637000	0.793200
O21	O2	0.384000	0.893700	0.703500
O31	O3	0.295200	0.711700	0.656600
O41	O4	0.480000	0.617700	0.567000
O51	O5	0.693300	0.818000	0.828600
O61	O6	0.395300	0.519900	0.843000
H11	H1	0.431200	0.580700	0.890200
H21	H2	0.365300	0.462100	0.871500
O71	O7	0.538300	0.611300	0.436100
O81	O8	0.111100	0.510500	0.643500
O91	O9	0.839200	0.488600	0.521700
C11	C1	0.583400	0.742900	0.783400
C21	C2	0.505600	0.565800	0.500900
C31	C3	0.403400	0.786800	0.706900
C41	C4	0.984500	0.499800	0.547200
Dy21	Dy2	0.617660	0.012980	0.832400
O101	O10	0.396800	0.137000	0.706800
O111	O11	0.616000	0.393700	0.796500
O121	O12	0.704800	0.211700	0.843400
O131	O13	0.520000	0.117700	0.933000
O141	O14	0.306700	0.318000	0.671400
O151	O15	0.604700	0.019900	0.657000
H31	H3	0.568800	0.080700	0.609800
H41	H4	0.634700	0.962100	0.628500
O161	O16	0.461700	0.111300	0.063900
O171	O17	0.888900	0.010500	0.856500
O181	O18	0.160800	0.988600	0.978300
C51	C5	0.416600	0.242900	0.716600
C61	C6	0.494400	0.065800	0.999100
C71	C7	0.596600	0.286800	0.793100
C81	C8	0.015500	0.999800	0.952800
Dy31	Dy3	0.617660	0.487020	0.332400
O191	O19	0.396800	0.363000	0.206800
O201	O20	0.616000	0.106300	0.296500
O211	O21	0.704800	0.288300	0.343400
O221	O22	0.520000	0.382300	0.433000
O231	O23	0.306700	0.182000	0.171400
O241	O24	0.604700	0.480100	0.157000
H51	H5	0.568800	0.419300	0.109800
H61	H6	0.634700	0.537900	0.128500
O251	O25	0.461700	0.388700	0.563900
O261	O26	0.888900	0.489500	0.356500
O271	O27	0.160800	0.511400	0.478300
C91	C9	0.416600	0.257100	0.216600
C101	C10	0.494400	0.434200	0.499100
C111	C11	0.596600	0.213200	0.293100
C121	C12	0.015500	0.500200	0.452800
Dy41	Dy4	0.382340	0.987020	0.167600
O281	O28	0.603200	0.863000	0.293200
O291	O29	0.384000	0.606300	0.203500
O301	O30	0.295200	0.788300	0.156600
O311	O31	0.480000	0.882300	0.067000
O321	O32	0.693300	0.682000	0.328600
O331	O33	0.395300	0.980100	0.343000
H71	H7	0.431200	0.919300	0.390200
H81	H8	0.365300	0.037900	0.371500
O341	O34	0.538300	0.888700	0.936100
O351	O35	0.111100	0.989500	0.143500
O361	O36	0.839200	0.011400	0.021700
C131	C13	0.583400	0.757100	0.283400
C141	C14	0.505600	0.934200	0.000900
C151	C15	0.403400	0.713200	0.206900
C161	C16	0.984500	0.000200	0.047200
