data_DUQYEU_freeONLY_PM
_symmetry_space_group_name_H-M	'P1'
_cell_length_a	9.623900
_cell_length_b	11.603000
_cell_length_c	14.305000
_cell_angle_alpha	90.000000
_cell_angle_beta	122.463000
_cell_angle_gamma	90.000000
_symmetry_Int_Tables_number 1

loop_
_symmetry_equiv_pos_as_xyz
'x,y,z'

loop_
_atom_site_label
_atom_site_type_symbol
_atom_site_fract_x
_atom_site_fract_y
_atom_site_fract_z
Dy11	Dy1	0.117660	0.986890	0.832320
O11	O1	0.204800	0.787760	0.843760
O21	O2	0.105300	0.979350	0.656800
H11	H1	0.036000	0.939000	0.604000
H21	H2	0.106000	0.040100	0.625000
O31	O3	0.897000	0.862880	0.707090
O41	O4	0.806100	0.681700	0.670930
O51	O5	0.116900	0.606250	0.796620
O61	O6	0.340000	0.988780	0.022140
O71	O7	0.019200	0.882210	0.932590
O81	O8	0.961900	0.888660	0.064330
O91	O9	0.610600	0.011010	0.143190
C11	C1	0.096500	0.712800	0.793100
C21	C2	0.917100	0.756500	0.716800
C31	C3	0.485600	0.999900	0.048300
C41	C4	0.994500	0.933600	0.999000
Dy21	Dy2	0.882340	0.486890	0.667680
O101	O10	0.795200	0.287760	0.656240
O111	O11	0.894700	0.479350	0.843200
H31	H3	0.964000	0.439000	0.896000
H41	H4	0.894000	0.540100	0.875000
O121	O12	0.103000	0.362880	0.792910
O131	O13	0.193900	0.181700	0.829070
O141	O14	0.883100	0.106250	0.703380
O151	O15	0.660000	0.488780	0.477860
O161	O16	0.980800	0.382210	0.567410
O171	O17	0.038100	0.388660	0.435670
O181	O18	0.389400	0.511010	0.356810
C51	C5	0.903500	0.212800	0.706900
C61	C6	0.082900	0.256500	0.783200
C71	C7	0.514400	0.499900	0.451700
C81	C8	0.005500	0.433600	0.501000
Dy31	Dy3	0.882340	0.013110	0.167680
O191	O19	0.795200	0.212240	0.156240
O201	O20	0.894700	0.020650	0.343200
H51	H5	0.964000	0.061000	0.396000
H61	H6	0.894000	0.959900	0.375000
O211	O21	0.103000	0.137120	0.292910
O221	O22	0.193900	0.318300	0.329070
O231	O23	0.883100	0.393750	0.203380
O241	O24	0.660000	0.011220	0.977860
O251	O25	0.980800	0.117790	0.067410
O261	O26	0.038100	0.111340	0.935670
O271	O27	0.389400	0.988990	0.856810
C91	C9	0.903500	0.287200	0.206900
C101	C10	0.082900	0.243500	0.283200
C111	C11	0.514400	0.000100	0.951700
C121	C12	0.005500	0.066400	0.001000
Dy41	Dy4	0.117660	0.513110	0.332320
O281	O28	0.204800	0.712240	0.343760
O291	O29	0.105300	0.520650	0.156800
H71	H7	0.036000	0.561000	0.104000
H81	H8	0.106000	0.459900	0.125000
O301	O30	0.897000	0.637120	0.207090
O311	O31	0.806100	0.818300	0.170930
O321	O32	0.116900	0.893750	0.296620
O331	O33	0.340000	0.511220	0.522140
O341	O34	0.019200	0.617790	0.432590
O351	O35	0.961900	0.611340	0.564330
O361	O36	0.610600	0.488990	0.643190
C131	C13	0.096500	0.787200	0.293100
C141	C14	0.917100	0.743500	0.216800
C151	C15	0.485600	0.500100	0.548300
C161	C16	0.994500	0.566400	0.499000
