data_DUWRAQ_freeONLY_PM
_symmetry_space_group_name_H-M	'P1'
_cell_length_a	7.662700
_cell_length_b	7.843200
_cell_length_c	9.769500
_cell_angle_alpha	72.092000
_cell_angle_beta	83.275000
_cell_angle_gamma	84.998000
_symmetry_Int_Tables_number 1

loop_
_symmetry_equiv_pos_as_xyz
'x,y,z'

loop_
_atom_site_label
_atom_site_type_symbol
_atom_site_fract_x
_atom_site_fract_y
_atom_site_fract_z
Mg11	Mg1	0.372310	0.016720	0.737550
Mg21	Mg2	0.305140	0.711660	0.373310
P11	P1	0.415070	0.280970	0.407780
O11	O1	0.489900	0.195100	0.554360
O21	O2	0.416800	0.482100	0.360790
O31	O3	0.509300	0.204900	0.292630
O41	O4	0.214700	0.233100	0.430100
H11	H1	0.204600	0.149100	0.398700
O51	O5	0.130600	0.929600	0.701250
O61	O6	0.855800	0.038700	0.656900
O71	O7	0.189200	0.219700	0.769000
O81	O8	0.923400	0.339400	0.707400
O91	O9	0.557600	0.135600	0.825430
O101	O10	0.658300	0.122700	0.034690
O111	O11	0.169200	0.643100	0.582400
H21	H2	0.074300	0.591300	0.583000
H31	H3	0.141400	0.738100	0.608400
C11	C1	0.005900	0.044700	0.692200
C21	C2	0.042100	0.217900	0.726700
C31	C3	0.564500	0.075200	0.960600
Mg31	Mg3	0.627690	0.983280	0.262450
Mg41	Mg4	0.694860	0.288340	0.626690
P21	P2	0.584930	0.719030	0.592220
O121	O12	0.510100	0.804900	0.445640
O131	O13	0.583200	0.517900	0.639210
O141	O14	0.490700	0.795100	0.707370
O151	O15	0.785300	0.766900	0.569900
H41	H4	0.795400	0.850900	0.601300
O161	O16	0.869400	0.070400	0.298750
O171	O17	0.144200	0.961300	0.343100
O181	O18	0.810800	0.780300	0.231000
O191	O19	0.076600	0.660600	0.292600
O201	O20	0.442400	0.864400	0.174570
O211	O21	0.341700	0.877300	0.965310
O221	O22	0.830800	0.356900	0.417600
H51	H5	0.925700	0.408700	0.417000
H61	H6	0.858600	0.261900	0.391600
C41	C4	0.994100	0.955300	0.307800
C51	C5	0.957900	0.782100	0.273300
C61	C6	0.435500	0.924800	0.039400
