data_DUWRUK_freeONLY_PM
_symmetry_space_group_name_H-M	'P1'
_cell_length_a	7.773800
_cell_length_b	9.484000
_cell_length_c	11.924300
_cell_angle_alpha	78.102000
_cell_angle_beta	78.574000
_cell_angle_gamma	86.183000
_symmetry_Int_Tables_number 1

loop_
_symmetry_equiv_pos_as_xyz
'x,y,z'

loop_
_atom_site_label
_atom_site_type_symbol
_atom_site_fract_x
_atom_site_fract_y
_atom_site_fract_z
Mg11	Mg1	0.996600	0.583610	0.186450
Mg21	Mg2	0.315100	0.476400	0.996690
Mg31	Mg3	0.125500	0.026200	0.396270
Mg41	Mg4	0.215900	0.045100	0.771280
P11	P1	0.618860	0.501320	0.154140
P21	P2	0.433320	0.146590	0.499980
P31	P3	0.945410	0.884140	0.671530
O11	O1	0.520200	0.527000	0.054900
O21	O2	0.802500	0.551300	0.114100
O31	O3	0.529500	0.594400	0.248000
H11	H1	0.423400	0.581900	0.263800
O41	O4	0.609700	0.341900	0.217500
H21	H2	0.546600	0.335700	0.282100
O51	O5	0.358800	0.047300	0.439400
O61	O6	0.329800	0.153000	0.618000
O71	O7	0.473500	0.295300	0.426200
O81	O8	0.622100	0.073500	0.521800
H31	H3	0.694500	0.136600	0.509300
O91	O9	0.032100	0.894600	0.547100
O101	O10	0.988100	0.001600	0.727500
O111	O11	0.739600	0.874900	0.688200
H41	H4	0.698100	0.954000	0.662800
O121	O12	0.995100	0.735000	0.742100
H51	H5	0.905400	0.693900	0.778500
O131	O13	0.879000	0.771200	0.235900
O141	O14	0.927300	0.954200	0.316300
O151	O15	0.188000	0.654900	0.265700
O161	O16	0.253000	0.847400	0.327900
O171	O17	0.160300	0.405700	0.158000
O181	O18	0.199500	0.172900	0.235700
O191	O19	0.916800	0.434100	0.343000
O201	O20	0.960600	0.203600	0.424500
O211	O21	0.350500	0.850700	0.752600
O221	O22	0.391300	0.625100	0.841600
O231	O23	0.127000	0.898800	0.944000
O241	O24	0.157200	0.665700	0.026400
O251	O25	0.077800	0.217700	0.836700
O261	O26	0.118200	0.399700	0.922400
O271	O27	0.398700	0.117800	0.854900
O281	O28	0.440700	0.295300	0.942300
C11	C1	0.968600	0.841100	0.281000
C21	C2	0.153700	0.775600	0.293000
C31	C3	0.130800	0.293500	0.237400
C41	C4	0.987500	0.313200	0.345500
C51	C5	0.322200	0.747800	0.836400
C61	C6	0.188600	0.775200	0.946000
C71	C7	0.165000	0.288400	0.882800
C81	C8	0.352100	0.227400	0.894000
