data_DUXKEN_freeONLY_PM
_symmetry_space_group_name_H-M	'P1'
_cell_length_a	11.278400
_cell_length_b	22.521000
_cell_length_c	22.600000
_cell_angle_alpha	104.626000
_cell_angle_beta	96.241000
_cell_angle_gamma	100.215000
_symmetry_Int_Tables_number 1

loop_
_symmetry_equiv_pos_as_xyz
'x,y,z'

loop_
_atom_site_label
_atom_site_type_symbol
_atom_site_fract_x
_atom_site_fract_y
_atom_site_fract_z
V11	V1	0.127860	0.381860	0.537660
V21	V2	0.341300	0.439470	0.314890
V31	V3	0.482630	0.362690	0.501660
V41	V4	0.289070	0.420730	0.161200
V51	V5	0.476780	0.337760	0.978990
V61	V6	0.325270	0.448280	0.821330
V71	V7	0.253490	0.395900	0.936830
V81	V8	0.351990	0.291580	0.102950
V91	V9	0.455600	0.783350	0.895670
V101	V10	0.123400	0.469660	0.050970
V111	V11	0.241590	0.344430	0.403240
V121	V12	0.232000	0.940020	0.524880
V131	V13	0.306860	0.411640	0.671770
V141	V14	0.192470	0.947180	0.016220
V151	V15	0.436600	0.881860	0.040300
V161	V16	0.924120	0.855700	0.017560
V171	V17	0.934300	0.866900	0.522970
V181	V18	0.754020	0.855360	0.896290
V191	V19	0.461400	0.771540	0.394050
V201	V20	0.402780	0.286060	0.615560
V211	V21	0.751500	0.860400	0.400700
V221	V22	0.729170	0.928780	0.105230
V231	V23	0.713100	0.919530	0.604930
V241	V24	0.412200	0.846170	0.535440
Ni11	Ni1	0.240530	0.121120	0.055030
Ni21	Ni2	0.747020	0.880460	0.246240
Ni31	Ni3	0.296520	0.113350	0.557000
Ni41	Ni4	0.402320	0.620020	0.893410
Ni51	Ni5	0.406520	0.607070	0.389980
Ni61	Ni6	0.812120	0.385840	0.009520
Ni71	Ni7	0.811330	0.385080	0.508660
Ni81	Ni8	0.795290	0.886580	0.749780
H11	H1	0.701900	0.796800	0.618400
H21	H2	0.718200	0.698200	0.559000
H31	H3	0.899200	0.674600	0.715400
H41	H4	0.867400	0.773200	0.769800
H51	H5	0.988300	0.506600	0.591900
H61	H6	0.987200	0.610100	0.640900
H71	H7	0.652200	0.586300	0.539600
H81	H8	0.670700	0.485500	0.491600
H91	H9	0.956700	0.833400	0.303100
H101	H10	0.160700	0.833200	0.300200
H111	H11	0.152800	0.922700	0.169300
H121	H12	0.953800	0.928200	0.178900
H131	H13	0.562100	0.952500	0.206300
H141	H14	0.358800	0.954200	0.202900
H151	H15	0.305300	0.790100	0.251700
H161	H16	0.510500	0.791800	0.252900
H171	H17	0.549300	0.823500	0.671600
H181	H18	0.341000	0.822500	0.670100
H191	H19	0.424200	0.935900	0.846400
H201	H20	0.628100	0.933700	0.844400
H211	H21	0.992100	0.895000	0.666700
H221	H22	0.199300	0.887600	0.664300
H231	H23	0.220200	0.889600	0.849200
H241	H24	0.010300	0.894200	0.839900
H251	H25	0.650600	0.252900	0.492900
H261	H26	0.624900	0.150800	0.432800
H271	H27	0.950000	0.202100	0.379600
H281	H28	0.959500	0.303700	0.435600
H291	H29	0.633700	0.956600	0.340600
H301	H30	0.633100	0.057000	0.395400
H311	H31	0.912600	0.118600	0.312100
H321	H32	0.894300	0.018200	0.254500
H331	H33	0.951500	0.986200	0.863000
H341	H34	0.957700	0.088900	0.921800
H351	H35	0.722400	0.103400	0.779500
H361	H36	0.722200	0.998400	0.731100
H371	H37	0.652000	0.271500	0.920400
H381	H38	0.655000	0.169900	0.864800
H391	H39	0.005700	0.197100	0.943000
H401	H40	0.996600	0.297200	0.997200
H411	H41	0.706100	0.491100	0.979000
H421	H42	0.693500	0.593700	0.023500
H431	H43	0.873700	0.583700	0.183400
H441	H44	0.900900	0.485900	0.130600
H451	H45	0.729300	0.646600	0.223200
H461	H46	0.700200	0.746700	0.271100
H471	H47	0.760100	0.800900	0.117100
H481	H48	0.789200	0.700700	0.069100
H491	H49	0.549100	0.188800	0.627400
H501	H50	0.752400	0.196800	0.616500
H511	H51	0.658400	0.026100	0.488600
H521	H52	0.454600	0.028400	0.498000
H531	H53	0.051800	0.019400	0.521600
H541	H54	0.843600	0.018200	0.519900
H551	H55	0.916400	0.208300	0.561900
H561	H56	0.124700	0.209500	0.563600
H571	H57	0.391400	0.050200	0.653900
H581	H58	0.373200	0.048500	0.754700
H591	H59	0.166300	0.178200	0.764200
H601	H60	0.195300	0.179100	0.665100
H611	H61	0.236500	0.025800	0.931400
H621	H62	0.249600	0.021700	0.828400
H631	H63	0.242700	0.204800	0.867300
H641	H64	0.226800	0.204800	0.968400
H651	H65	0.429400	0.050600	0.092100
H661	H66	0.634400	0.048100	0.090500
H671	H67	0.671900	0.201900	0.028000
H681	H68	0.465700	0.197300	0.025400
H691	H69	0.079100	0.211200	0.099800
H701	H70	0.874400	0.215500	0.101600
H711	H71	0.784200	0.030000	0.013200
H721	H72	0.990400	0.032000	0.010500
H731	H73	0.988300	0.399400	0.919600
H741	H74	0.992200	0.391500	0.814900
H751	H75	0.627800	0.387400	0.792100
H761	H76	0.633000	0.392200	0.896300
H771	H77	0.669000	0.425500	0.612900
H781	H78	0.671700	0.432500	0.716000
H791	H79	0.937800	0.331500	0.706800
H801	H80	0.928400	0.326700	0.603500
H811	H81	0.642200	0.380300	0.102400
H821	H82	0.647200	0.390000	0.207300
H831	H83	0.990400	0.358000	0.215800
H841	H84	0.979600	0.354800	0.112200
H851	H85	0.994500	0.424100	0.424700
H861	H86	0.005300	0.412600	0.320700
H871	H87	0.636100	0.353000	0.284600
H881	H88	0.637500	0.357700	0.388900
H891	H89	0.113900	0.049000	0.136900
H901	H90	0.122400	0.046700	0.238500
H911	H91	0.407400	0.194800	0.285400
H921	H92	0.389100	0.196500	0.183800
H931	H93	0.347100	0.206300	0.480800
H941	H94	0.336500	0.212000	0.380200
H951	H95	0.222700	0.022500	0.323900
H961	H96	0.233000	0.022700	0.426100
H971	H97	0.345500	0.516500	0.470000
H981	H98	0.338800	0.516600	0.571600
H991	H99	0.466000	0.706300	0.620800
H1001	H100	0.476500	0.699000	0.517500
H1011	H101	0.550700	0.682300	0.813100
H1021	H102	0.558900	0.678900	0.710600
H1031	H103	0.234900	0.553200	0.664700
H1041	H104	0.239700	0.560100	0.767700
H1051	H105	0.183100	0.545600	0.926800
H1061	H106	0.977400	0.542100	0.930700
H1071	H107	0.008100	0.696300	0.867500
H1081	H108	0.213200	0.692600	0.861100
H1091	H109	0.651700	0.708900	0.942900
H1101	H110	0.856700	0.711800	0.946100
H1111	H111	0.773600	0.526300	0.858500
H1121	H112	0.570000	0.528800	0.858100
H1131	H113	0.246900	0.684500	0.457900
H1141	H114	0.044900	0.687300	0.463300
H1151	H115	0.949100	0.530800	0.318800
H1161	H116	0.153500	0.531800	0.316300
H1171	H117	0.581700	0.518300	0.387800
H1181	H118	0.783000	0.514200	0.378900
H1191	H119	0.855700	0.703900	0.411600
H1201	H120	0.651700	0.700500	0.415100
C11	C1	0.738800	0.770500	0.638200
C21	C2	0.748500	0.712100	0.602200
C31	C3	0.805000	0.674700	0.632200
C41	C4	0.854800	0.697900	0.695000
C51	C5	0.836800	0.757000	0.726700
C61	C6	0.917400	0.522200	0.583100
C71	C7	0.919200	0.584500	0.611400
C81	C8	0.819000	0.608900	0.595800
C91	C9	0.722000	0.571100	0.551400
C101	C10	0.732000	0.510000	0.525000
C111	C11	0.998100	0.854900	0.277600
C121	C12	0.118100	0.852200	0.274100
C131	C13	0.175400	0.876900	0.233200
C141	C14	0.114500	0.905300	0.198300
C151	C15	0.996500	0.909000	0.204800
C161	C16	0.509100	0.919600	0.215800
C171	C17	0.388700	0.920800	0.213800
C181	C18	0.308000	0.872700	0.227700
C191	C19	0.356700	0.823700	0.242500
C201	C20	0.478500	0.825200	0.243300
C211	C21	0.523800	0.846600	0.707500
C221	C22	0.398400	0.846300	0.705800
C231	C23	0.359700	0.882000	0.757800
C241	C24	0.447900	0.913100	0.809800
C251	C25	0.569900	0.911200	0.808600
C261	C26	0.039500	0.892100	0.702800
C271	C27	0.163000	0.887500	0.700300
C281	C28	0.228000	0.882800	0.756000
C291	C29	0.174900	0.888400	0.810800
C301	C30	0.050100	0.892100	0.804700
C311	C31	0.710800	0.242500	0.468100
C321	C32	0.695600	0.181200	0.433500
C331	C33	0.786700	0.164500	0.399300
C341	C34	0.885600	0.211700	0.401700
C351	C35	0.891400	0.272100	0.435700
C361	C36	0.691800	0.989900	0.334900
C371	C37	0.691700	0.050200	0.368600
C381	C38	0.778000	0.101800	0.363600
C391	C39	0.853900	0.086200	0.319000
C401	C40	0.844600	0.025500	0.285800
C411	C41	0.897400	0.009200	0.848500
C421	C42	0.904500	0.070600	0.883300
C431	C43	0.830000	0.103100	0.858600
C441	C44	0.764700	0.079200	0.799700
C451	C45	0.765900	0.016700	0.771900
C461	C46	0.723900	0.255600	0.925800
C471	C47	0.726100	0.195200	0.892100
C481	C48	0.830500	0.171100	0.897600
C491	C49	0.931600	0.211100	0.938000
C501	C50	0.925700	0.270600	0.970700
C511	C51	0.743100	0.510800	0.020900
C521	C52	0.733200	0.571800	0.047700
C531	C53	0.781000	0.601500	0.109900
C541	C54	0.840900	0.566800	0.140700
C551	C55	0.853200	0.507200	0.109280
C561	C56	0.762000	0.664230	0.141620
C571	C57	0.735500	0.677900	0.201630
C581	C58	0.718300	0.737400	0.230120
C591	C59	0.753900	0.769550	0.138610
C601	C60	0.771100	0.710050	0.110120
C611	C61	0.571400	0.156950	0.597090
C621	C62	0.693400	0.160910	0.592310
C631	C63	0.729800	0.112500	0.552300
C641	C64	0.638200	0.060900	0.516200
C651	C65	0.516700	0.062790	0.522350
C661	C66	0.024300	0.057750	0.529810
C671	C67	0.900600	0.057050	0.528770
C681	C68	0.860400	0.113150	0.540730
C691	C69	0.943900	0.169940	0.553730
C701	C70	0.067600	0.170650	0.554760
C711	C71	0.345600	0.076700	0.676900
C721	C72	0.334400	0.075600	0.737000
C731	C73	0.266600	0.113700	0.772500
C741	C74	0.214200	0.151600	0.743100
C751	C75	0.230600	0.151400	0.683400
C761	C76	0.238200	0.062900	0.918500
C771	C77	0.247100	0.060500	0.856700
C781	C78	0.252400	0.113600	0.836000
C791	C79	0.242700	0.167200	0.879100
C801	C80	0.233100	0.166900	0.939800
C811	C81	0.478800	0.081000	0.077700
C821	C82	0.601700	0.079600	0.077400
C831	C83	0.675700	0.124200	0.057900
C841	C84	0.623200	0.169400	0.040000
C851	C85	0.500400	0.166900	0.039500
C861	C86	0.018400	0.174200	0.080500
C871	C87	0.896000	0.177100	0.082600
C881	C88	0.806800	0.122800	0.056500
C891	C89	0.842800	0.068200	0.030200
C901	C90	0.966700	0.069900	0.029000
C911	C91	0.914600	0.396400	0.893300
C921	C92	0.917600	0.391600	0.830700
C931	C93	0.809400	0.386800	0.791400
C941	C94	0.702200	0.388700	0.817000
C951	C95	0.706800	0.392600	0.879600
C961	C96	0.725200	0.406900	0.632700
C971	C97	0.725800	0.410900	0.694100
C981	C98	0.805700	0.383400	0.724900
C991	C99	0.882400	0.351400	0.688400
C1001	C100	0.877100	0.349100	0.626900
C1011	C101	0.714500	0.376900	0.126000
C1021	C102	0.716200	0.381600	0.188700
C1031	C103	0.819100	0.374000	0.224600
C1041	C104	0.918200	0.363600	0.194000
C1051	C105	0.910600	0.361300	0.131600
C1061	C106	0.921200	0.408100	0.395500
C1071	C107	0.928800	0.402000	0.333600
C1081	C108	0.821100	0.379700	0.290300
C1091	C109	0.711200	0.365800	0.312400
C1101	C110	0.712000	0.370500	0.375100
C1111	C111	0.174300	0.079400	0.167500
C1121	C112	0.179400	0.077300	0.228000
C1131	C113	0.268500	0.120100	0.273700
C1141	C114	0.345900	0.164300	0.255400
C1151	C115	0.335100	0.164900	0.194600
C1161	C116	0.320600	0.168500	0.448100
C1171	C117	0.314500	0.172300	0.388100
C1181	C118	0.275600	0.117500	0.338200
C1191	C119	0.247300	0.061300	0.355300
C1201	C120	0.254700	0.061600	0.416700
C1211	C121	0.371100	0.555300	0.501300
C1221	C122	0.365500	0.554900	0.561800
C1231	C123	0.400000	0.611800	0.608800
C1241	C124	0.441600	0.666600	0.590700
C1251	C125	0.446400	0.661900	0.528800
C1261	C126	0.486500	0.655400	0.782100
C1271	C127	0.491600	0.653800	0.720900
C1281	C128	0.398000	0.615500	0.674300
C1291	C129	0.301800	0.580100	0.694100
C1301	C130	0.305600	0.584500	0.755700
C1311	C131	0.146400	0.575900	0.913500
C1321	C132	0.024200	0.574000	0.917100
C1331	C133	0.971800	0.619900	0.900400
C1341	C134	0.042000	0.664500	0.879400
C1351	C135	0.164900	0.662000	0.875800
C1361	C136	0.676700	0.671100	0.925000
C1371	C137	0.799600	0.673300	0.927200
C1381	C138	0.840400	0.619300	0.901900
C1391	C139	0.750900	0.564800	0.876000
C1401	C140	0.629000	0.566800	0.875800
C1411	C141	0.185300	0.652800	0.429300
C1421	C142	0.065500	0.654700	0.433000
C1431	C143	0.975600	0.609200	0.392400
C1441	C144	0.009500	0.562700	0.347900
C1451	C145	0.130900	0.563500	0.346700
C1461	C146	0.637800	0.556200	0.390900
C1471	C147	0.758600	0.553400	0.387000
C1481	C148	0.843400	0.609000	0.395100
C1491	C149	0.801100	0.664800	0.405700
C1501	C150	0.678800	0.662000	0.407400
N11	N1	0.778000	0.791300	0.698400
N21	N2	0.820000	0.481700	0.543300
N31	N3	0.937500	0.886500	0.246600
N41	N4	0.556100	0.872900	0.231000
N51	N5	0.609800	0.877900	0.757600
N61	N6	0.986600	0.892600	0.752100
N71	N7	0.805200	0.288800	0.469100
N81	N8	0.770000	0.974800	0.293800
N91	N9	0.821900	0.981200	0.797400
N101	N10	0.822200	0.292100	0.966200
N111	N11	0.801800	0.478600	0.051100
N121	N12	0.727400	0.783230	0.198620
N131	N13	0.483300	0.110170	0.560450
N141	N14	0.107800	0.114540	0.542800
N151	N15	0.292700	0.114700	0.650600
N161	N16	0.232200	0.115800	0.959600
N171	N17	0.427300	0.123700	0.058200
N181	N18	0.054200	0.122300	0.052700
N191	N19	0.810100	0.397000	0.917900
N201	N20	0.801700	0.377400	0.598300
N211	N21	0.811500	0.367800	0.097200
N221	N22	0.816100	0.392800	0.417000
N231	N23	0.250700	0.122400	0.148900
N241	N24	0.290900	0.113700	0.463300
N251	N25	0.410500	0.607600	0.483800
N261	N26	0.394600	0.620500	0.799600
N271	N27	0.216000	0.618300	0.892000
N281	N28	0.589600	0.618900	0.899100
N291	N29	0.219500	0.607900	0.387100
N301	N30	0.595300	0.609500	0.399000
O11	O1	0.256500	0.016300	0.535500
O21	O2	0.336200	0.210200	0.585900
O31	O3	0.627300	0.363300	0.995900
O41	O4	0.627200	0.365300	0.491300
O51	O5	0.995200	0.403400	0.528800
O61	O6	0.366100	0.511300	0.361800
O71	O7	0.228200	0.400300	0.859300
O81	O8	0.354700	0.523200	0.861400
O91	O9	0.208200	0.025700	0.035100
O101	O10	0.471700	0.420400	0.309500
O111	O11	0.245800	0.385200	0.346900
O121	O12	0.295500	0.329300	0.654700
O131	O13	0.252500	0.437400	0.742300
O141	O14	0.407700	0.401000	0.962900
O151	O15	0.349300	0.916600	0.567300
O161	O16	0.322200	0.924500	0.053700
O171	O17	0.237500	0.338300	0.126300
O181	O18	0.433000	0.437200	0.158400
O191	O19	0.263400	0.438300	0.239500
O201	O20	0.995700	0.414200	0.030600
O211	O21	0.203900	0.457500	0.985400
O221	O22	0.798800	0.862600	0.829000
O231	O23	0.832300	0.909700	0.557100
O241	O24	0.446200	0.445200	0.678900
O251	O25	0.442700	0.717300	0.919100
O261	O26	0.221900	0.429200	0.610300
O271	O27	0.422500	0.312700	0.042000
O281	O28	0.453200	0.424800	0.819700
O291	O29	0.089800	0.537700	0.063300
O301	O30	0.430100	0.848400	0.959400
O311	O31	0.609400	0.802600	0.881100
O321	O32	0.727200	0.929300	0.433400
O331	O33	0.440900	0.703300	0.412500
O341	O34	0.619400	0.800400	0.397300
O351	O35	0.212900	0.463500	0.119900
O361	O36	0.416000	0.825800	0.073700
O371	O37	0.519600	0.291900	0.665400
O381	O38	0.579200	0.929500	0.069300
O391	O39	0.452800	0.295900	0.160400
O401	O40	0.193400	0.388000	0.469300
O411	O41	0.276300	0.216600	0.076800
O421	O42	0.866200	0.826100	0.939200
O431	O43	0.146600	0.278400	0.374800
O441	O44	0.384300	0.327900	0.426200
O451	O45	0.175400	0.329600	0.940900
O461	O46	0.445200	0.315500	0.553200
O471	O47	0.466500	0.433000	0.531300
O481	O48	0.764200	0.859900	0.327700
O491	O49	0.890500	0.846200	0.441900
O501	O50	0.962900	0.799200	0.041700
O511	O51	0.102400	0.309700	0.539000
O521	O52	0.401400	0.820300	0.455700
O531	O53	0.450700	0.279400	0.918000
O541	O54	0.776600	0.907500	0.668200
O551	O55	0.182000	0.921100	0.941800
O561	O56	0.053600	0.913600	0.040100
O571	O57	0.362600	0.772100	0.833700
O581	O58	0.804900	0.998800	0.129900
O591	O59	0.226700	0.909000	0.451100
O601	O60	0.933600	0.807200	0.549300
O611	O61	0.743000	0.923300	0.938400
O621	O62	0.805500	0.876200	0.056900
O631	O63	0.349500	0.787900	0.557900
O641	O64	0.083700	0.911800	0.544300
O651	O65	0.379000	0.768200	0.328500
O661	O66	0.567100	0.867500	0.570700
O671	O67	0.699200	0.992000	0.622300
O681	O68	0.722600	0.899300	0.164600
