data_DUXKUD_freeONLY_PM
_symmetry_space_group_name_H-M	'P1'
_cell_length_a	10.191900
_cell_length_b	13.528000
_cell_length_c	13.528000
_cell_angle_alpha	104.002000
_cell_angle_beta	96.181000
_cell_angle_gamma	83.819000
_symmetry_Int_Tables_number 1

loop_
_symmetry_equiv_pos_as_xyz
'x,y,z'

loop_
_atom_site_label
_atom_site_type_symbol
_atom_site_fract_x
_atom_site_fract_y
_atom_site_fract_z
U11	U1	0.750000	0.648900	0.648900
U21	U2	0.250000	0.351100	0.351100
H11	H1	0.687800	0.816600	0.835000
H21	H2	0.399100	0.310900	0.749500
H31	H3	0.807500	0.427000	0.893800
H41	H4	0.740700	0.420000	0.990800
H51	H5	0.612800	0.510400	0.832800
H61	H6	0.545900	0.513200	0.933000
H71	H7	0.626700	0.329500	0.793900
H81	H8	0.555600	0.333900	0.892300
H91	H9	0.337500	0.499200	0.872800
H101	H10	0.235900	0.434500	0.794900
H111	H11	0.623000	0.644500	0.045500
H121	H12	0.748300	0.688200	0.112400
H131	H13	0.731700	0.636300	0.885700
H141	H14	0.836000	0.695100	0.966100
H151	H15	0.526600	0.410200	0.667600
H161	H16	0.413600	0.494400	0.707600
H171	H17	0.812200	0.835000	0.816600
H181	H18	0.100900	0.749500	0.310900
H191	H19	0.692500	0.893800	0.427000
H201	H20	0.759300	0.990800	0.420000
H211	H21	0.887200	0.832800	0.510400
H221	H22	0.954100	0.933000	0.513200
H231	H23	0.873300	0.793900	0.329500
H241	H24	0.944400	0.892300	0.333900
H251	H25	0.162500	0.872800	0.499200
H261	H26	0.264100	0.794900	0.434500
H271	H27	0.877000	0.045500	0.644500
H281	H28	0.751700	0.112400	0.688200
H291	H29	0.768300	0.885700	0.636300
H301	H30	0.664000	0.966100	0.695100
H311	H31	0.973400	0.667600	0.410200
H321	H32	0.086400	0.707600	0.494400
H331	H33	0.312200	0.183400	0.165000
H341	H34	0.600900	0.689100	0.250500
H351	H35	0.192500	0.573000	0.106200
H361	H36	0.259300	0.580000	0.009200
H371	H37	0.387200	0.489600	0.167200
H381	H38	0.454100	0.486800	0.067000
H391	H39	0.373300	0.670500	0.206100
H401	H40	0.444400	0.666100	0.107700
H411	H41	0.662500	0.500800	0.127200
H421	H42	0.764100	0.565500	0.205100
H431	H43	0.377000	0.355500	0.954500
H441	H44	0.251700	0.311800	0.887600
H451	H45	0.268300	0.363700	0.114300
H461	H46	0.164000	0.304900	0.033900
H471	H47	0.473400	0.589800	0.332400
H481	H48	0.586400	0.505600	0.292400
H491	H49	0.187800	0.165000	0.183400
H501	H50	0.899100	0.250500	0.689100
H511	H51	0.307500	0.106200	0.573000
H521	H52	0.240700	0.009200	0.580000
H531	H53	0.112800	0.167200	0.489600
H541	H54	0.045900	0.067000	0.486800
H551	H55	0.126700	0.206100	0.670500
H561	H56	0.055600	0.107700	0.666100
H571	H57	0.837500	0.127200	0.500800
H581	H58	0.735900	0.205100	0.565500
H591	H59	0.123000	0.954500	0.355500
H601	H60	0.248300	0.887600	0.311800
H611	H61	0.231700	0.114300	0.363700
H621	H62	0.336000	0.033900	0.304900
H631	H63	0.026600	0.332400	0.589800
H641	H64	0.913600	0.292400	0.505600
C11	C1	0.744900	0.462100	0.942500
C21	C2	0.608100	0.474000	0.885800
C31	C3	0.561800	0.368900	0.838500
C41	C4	0.316000	0.430200	0.840000
C51	C5	0.707800	0.625700	0.079100
C61	C6	0.814000	0.627900	0.927300
C71	C7	0.923400	0.580500	0.857500
C81	C8	0.436700	0.421200	0.687800
C91	C9	0.343200	0.373900	0.598300
C101	C10	0.755100	0.942500	0.462100
C111	C11	0.891900	0.885800	0.474000
C121	C12	0.938200	0.838500	0.368900
C131	C13	0.184000	0.840000	0.430200
C141	C14	0.792200	0.079100	0.625700
C151	C15	0.686000	0.927300	0.627900
C161	C16	0.576600	0.857500	0.580500
C171	C17	0.063300	0.687800	0.421200
C181	C18	0.156800	0.598300	0.373900
C191	C19	0.255100	0.537900	0.057500
C201	C20	0.391900	0.526000	0.114200
C211	C21	0.438200	0.631100	0.161500
C221	C22	0.684000	0.569800	0.160000
C231	C23	0.292200	0.374300	0.920900
C241	C24	0.186000	0.372100	0.072700
C251	C25	0.076600	0.419500	0.142500
C261	C26	0.563300	0.578800	0.312200
C271	C27	0.656800	0.626100	0.401700
C281	C28	0.244900	0.057500	0.537900
C291	C29	0.108100	0.114200	0.526000
C301	C30	0.061800	0.161500	0.631100
C311	C31	0.816000	0.160000	0.569800
C321	C32	0.207800	0.920900	0.374300
C331	C33	0.314000	0.072700	0.372100
C341	C34	0.423400	0.142500	0.419500
C351	C35	0.936700	0.312200	0.578800
C361	C36	0.843200	0.401700	0.626100
N11	N1	0.794300	0.563900	0.999700
N21	N2	0.428900	0.374100	0.777900
N31	N3	0.705700	0.999700	0.563900
N41	N4	0.071100	0.777900	0.374100
N51	N5	0.205700	0.436100	0.000300
N61	N6	0.571100	0.625900	0.222100
N71	N7	0.294300	0.000300	0.436100
N81	N8	0.928900	0.222100	0.625900
O11	O1	0.877900	0.699700	0.603700
O21	O2	0.915100	0.609100	0.774300
O31	O3	0.014200	0.524100	0.886300
O41	O4	0.343800	0.413280	0.521120
O51	O5	0.280600	0.304100	0.605100
O61	O6	0.622100	0.603700	0.699700
O71	O7	0.584900	0.774300	0.609100
O81	O8	0.485800	0.886300	0.524100
O91	O9	0.156200	0.521120	0.413280
O101	O10	0.219400	0.605100	0.304100
O111	O11	0.122100	0.300300	0.396300
O121	O12	0.084900	0.390900	0.225700
O131	O13	0.985800	0.475900	0.113700
O141	O14	0.656200	0.586720	0.478880
O151	O15	0.719400	0.695900	0.394900
O161	O16	0.377900	0.396300	0.300300
O171	O17	0.415100	0.225700	0.390900
O181	O18	0.514200	0.113700	0.475900
O191	O19	0.843800	0.478880	0.586720
O201	O20	0.780600	0.394900	0.695900
O211	O21	0.750000	0.794300	0.794300
O221	O22	0.250000	0.205700	0.205700
