data_DUYJIS_freeONLY_PM
_symmetry_space_group_name_H-M	'P1'
_cell_length_a	15.857400
_cell_length_b	19.332500
_cell_length_c	25.296200
_cell_angle_alpha	90.000000
_cell_angle_beta	102.694000
_cell_angle_gamma	90.000000
_symmetry_Int_Tables_number 1

loop_
_symmetry_equiv_pos_as_xyz
'x,y,z'

loop_
_atom_site_label
_atom_site_type_symbol
_atom_site_fract_x
_atom_site_fract_y
_atom_site_fract_z
C11	C1	0.422000	0.117200	0.074530
H11	H1	0.478700	0.122300	0.070900
C21	C2	0.361400	0.166200	0.050400
H21	H2	0.376800	0.201900	0.029800
C31	C3	0.277000	0.160800	0.057810
C41	C4	0.258200	0.106000	0.089100
H31	H3	0.203100	0.101700	0.095900
C51	C5	0.321400	0.057900	0.110200
H41	H4	0.307100	0.020900	0.130100
C61	C6	0.216000	0.278000	0.025500
C71	C7	0.291000	0.321800	0.050100
C81	C8	0.319800	0.373000	0.019700
H51	H5	0.293300	0.379300	0.983400
C91	C9	0.387800	0.413900	0.044000
H61	H6	0.407100	0.447100	0.022800
C101	C10	0.402500	0.359300	0.125200
H71	H7	0.431100	0.353900	0.161200
C111	C11	0.334400	0.314400	0.104400
H81	H8	0.318300	0.280200	0.126100
C121	C12	0.058700	0.249100	0.976500
C131	C13	0.973700	0.253100	0.954300
C141	C14	0.815500	0.295400	0.924100
C151	C15	0.742900	0.344100	0.913300
C161	C16	0.746900	0.405500	0.886300
H91	H9	0.796400	0.417200	0.874300
C171	C17	0.677400	0.449000	0.877500
H101	H10	0.681600	0.490000	0.859000
C181	C18	0.599700	0.378100	0.920700
H111	H11	0.549400	0.367800	0.932400
C191	C19	0.667900	0.331300	0.932500
H121	H12	0.663700	0.291900	0.953000
C201	C20	0.810700	0.226100	0.928000
C211	C21	0.730400	0.183400	0.917000
C221	C22	0.675100	0.184200	0.865700
H131	H13	0.686200	0.213300	0.838800
C231	C23	0.604000	0.141400	0.855600
H141	H14	0.567800	0.142200	0.821200
C241	C24	0.635500	0.100300	0.943100
H151	H15	0.620700	0.073300	0.970100
C251	C25	0.709400	0.141200	0.956200
H161	H16	0.744300	0.140000	0.990900
C261	C26	0.472700	0.031900	0.239900
H171	H17	0.430000	0.060000	0.219600
C271	C27	0.484500	0.032900	0.294900
H181	H18	0.448800	0.060000	0.311100
C281	C28	0.549300	0.993600	0.326880
C291	C29	0.599600	0.952400	0.300030
H191	H19	0.643500	0.924500	0.319500
C301	C30	0.582600	0.954300	0.244380
H201	H20	0.617100	0.927300	0.227100
C311	C31	0.562300	0.992700	0.386300
C321	C32	0.521100	0.995300	0.479940
C331	C33	0.637600	0.993400	0.423180
C341	C34	0.725100	0.996200	0.411750
C351	C35	0.748400	0.047800	0.379400
H211	H21	0.709000	0.081800	0.364400
C361	C36	0.830000	0.047800	0.369800
H221	H22	0.844300	0.082200	0.347500
C371	C37	0.868200	0.951100	0.422270
H231	H23	0.908900	0.917500	0.436500
C381	C38	0.788300	0.947300	0.434430
H241	H24	0.776100	0.912900	0.457300
C391	C39	0.925700	0.953500	0.255300
H251	H25	0.896300	0.922000	0.272400
C401	C40	0.907600	0.953800	0.199600
H261	H26	0.866900	0.923500	0.180100
C411	C41	0.951100	0.000600	0.172800
C421	C42	0.010800	0.043700	0.204600
H271	H27	0.042000	0.074900	0.188400
C431	C43	0.024600	0.040400	0.260400
H281	H28	0.064400	0.070600	0.280900
C441	C44	0.936000	0.003100	0.113300
C451	C45	0.860900	0.002400	0.076600
C461	C46	0.772400	0.001300	0.087100
C471	C47	0.750100	0.040700	0.127300
H291	H29	0.790700	0.069700	0.148600
C481	C48	0.666700	0.036800	0.135900
H301	H30	0.652700	0.064400	0.162800
C491	C49	0.627500	0.957900	0.068910
H311	H31	0.586000	0.928800	0.048700
C501	C50	0.708200	0.959400	0.056900
H321	H32	0.719600	0.932500	0.028900
C511	C51	0.978400	0.004000	0.019900
C521	C52	0.209200	0.208800	0.031100
Cu11	Cu1	0.492220	0.986380	0.130110
Cu21	Cu2	0.003850	0.995680	0.368780
N11	N1	0.402900	0.062800	0.102850
N21	N2	0.428900	0.409200	0.096780
N31	N3	0.602500	0.436600	0.893700
N41	N4	0.584500	0.098300	0.893130
N51	N5	0.520100	0.992100	0.213160
N61	N6	0.891200	0.000600	0.390870
N71	N7	0.605700	0.995700	0.107630
N81	N8	0.982900	0.995400	0.286560
S11	S1	0.127050	0.322200	0.985460
S21	S2	0.111780	0.170560	0.996590
S31	S3	0.907750	0.179020	0.943780
S41	S4	0.920850	0.330630	0.932300
S51	S5	0.467620	0.987130	0.411700
S61	S6	0.634290	0.988710	0.492040
S71	S7	0.865060	0.007710	0.007600
S81	S8	0.030730	0.010730	0.088300
C531	C53	0.078000	0.617200	0.425470
H331	H33	0.021300	0.622300	0.429100
C541	C54	0.138600	0.666200	0.449600
H341	H34	0.123200	0.701900	0.470200
C551	C55	0.223000	0.660800	0.442190
C561	C56	0.241800	0.606000	0.410900
H351	H35	0.296900	0.601700	0.404100
C571	C57	0.178600	0.557900	0.389800
H361	H36	0.192900	0.520900	0.369900
C581	C58	0.284000	0.778000	0.474500
C591	C59	0.209000	0.821800	0.449900
C601	C60	0.180200	0.873000	0.480300
H371	H37	0.206700	0.879300	0.516600
C611	C61	0.112200	0.913900	0.456000
H381	H38	0.092900	0.947100	0.477200
C621	C62	0.097500	0.859300	0.374800
H391	H39	0.068900	0.853900	0.338800
C631	C63	0.165600	0.814400	0.395600
H401	H40	0.181700	0.780200	0.373900
C641	C64	0.441300	0.749100	0.523500
C651	C65	0.526300	0.753100	0.545700
C661	C66	0.684500	0.795400	0.575900
C671	C67	0.757100	0.844100	0.586700
C681	C68	0.753100	0.905500	0.613700
H411	H41	0.703600	0.917200	0.625700
C691	C69	0.822600	0.949000	0.622500
H421	H42	0.818400	0.990000	0.641000
C701	C70	0.900300	0.878100	0.579300
H431	H43	0.950600	0.867800	0.567600
C711	C71	0.832100	0.831300	0.567500
H441	H44	0.836300	0.791900	0.547000
C721	C72	0.689300	0.726100	0.572000
C731	C73	0.769600	0.683400	0.583000
C741	C74	0.824900	0.684200	0.634300
H451	H45	0.813800	0.713300	0.661200
C751	C75	0.896000	0.641400	0.644400
H461	H46	0.932200	0.642200	0.678800
C761	C76	0.864500	0.600300	0.556900
H471	H47	0.879300	0.573300	0.529900
C771	C77	0.790600	0.641200	0.543800
H481	H48	0.755700	0.640000	0.509100
C781	C78	0.027300	0.531900	0.260100
H491	H49	0.070000	0.560000	0.280400
C791	C79	0.015500	0.532900	0.205100
H501	H50	0.051200	0.560000	0.188900
C801	C80	0.950700	0.493600	0.173120
C811	C81	0.900400	0.452400	0.199970
H511	H51	0.856500	0.424500	0.180500
C821	C82	0.917400	0.454300	0.255620
H521	H52	0.882900	0.427300	0.272900
C831	C83	0.937700	0.492700	0.113700
C841	C84	0.978900	0.495300	0.020060
C851	C85	0.862400	0.493400	0.076820
C861	C86	0.774900	0.496200	0.088250
C871	C87	0.751600	0.547800	0.120600
H531	H53	0.791000	0.581800	0.135600
C881	C88	0.670000	0.547800	0.130200
H541	H54	0.655700	0.582200	0.152500
C891	C89	0.631800	0.451100	0.077730
H551	H55	0.591100	0.417500	0.063500
C901	C90	0.711700	0.447300	0.065570
H561	H56	0.723900	0.412900	0.042700
C911	C91	0.574300	0.453500	0.244700
H571	H57	0.603700	0.422000	0.227600
C921	C92	0.592400	0.453800	0.300400
H581	H58	0.633100	0.423500	0.319900
C931	C93	0.548900	0.500600	0.327200
C941	C94	0.489200	0.543700	0.295400
H591	H59	0.458000	0.574900	0.311600
C951	C95	0.475400	0.540400	0.239600
H601	H60	0.435600	0.570600	0.219100
C961	C96	0.564000	0.503100	0.386700
C971	C97	0.639100	0.502400	0.423400
C981	C98	0.727600	0.501300	0.412900
C991	C99	0.749900	0.540700	0.372700
H611	H61	0.709300	0.569700	0.351400
C1001	C100	0.833300	0.536800	0.364100
H621	H62	0.847300	0.564400	0.337200
C1011	C101	0.872500	0.457900	0.431090
H631	H63	0.914000	0.428800	0.451300
C1021	C102	0.791800	0.459400	0.443100
H641	H64	0.780400	0.432500	0.471100
C1031	C103	0.521600	0.504000	0.480100
C1041	C104	0.290800	0.708800	0.468900
Cu31	Cu3	0.007780	0.486380	0.369890
Cu41	Cu4	0.496150	0.495680	0.131220
N91	N9	0.097100	0.562800	0.397150
N101	N10	0.071100	0.909200	0.403220
N111	N11	0.897500	0.936600	0.606300
N121	N12	0.915500	0.598300	0.606870
N131	N13	0.979900	0.492100	0.286840
N141	N14	0.608800	0.500600	0.109130
N151	N15	0.894300	0.495700	0.392370
N161	N16	0.517100	0.495400	0.213440
S91	S9	0.372950	0.822200	0.514540
S101	S10	0.388220	0.670560	0.503410
S111	S11	0.592250	0.679020	0.556220
S121	S12	0.579150	0.830630	0.567700
S131	S13	0.032380	0.487130	0.088300
S141	S14	0.865710	0.488710	0.007960
S151	S15	0.634940	0.507710	0.492400
S161	S16	0.469270	0.510730	0.411700
C1051	C105	0.578000	0.882800	0.925470
H651	H65	0.521300	0.877700	0.929100
C1061	C106	0.638600	0.833800	0.949600
H661	H66	0.623200	0.798100	0.970200
C1071	C107	0.723000	0.839200	0.942190
C1081	C108	0.741800	0.894000	0.910900
H671	H67	0.796900	0.898300	0.904100
C1091	C109	0.678600	0.942100	0.889800
H681	H68	0.692900	0.979100	0.869900
C1101	C110	0.784000	0.722000	0.974500
C1111	C111	0.709000	0.678200	0.949900
C1121	C112	0.680200	0.627000	0.980300
H691	H69	0.706700	0.620700	0.016600
C1131	C113	0.612200	0.586100	0.956000
H701	H70	0.592900	0.552900	0.977200
C1141	C114	0.597500	0.640700	0.874800
H711	H71	0.568900	0.646100	0.838800
C1151	C115	0.665600	0.685600	0.895600
H721	H72	0.681700	0.719800	0.873900
C1161	C116	0.941300	0.750900	0.023500
C1171	C117	0.026300	0.746900	0.045700
C1181	C118	0.184500	0.704600	0.075900
C1191	C119	0.257100	0.655900	0.086700
C1201	C120	0.253100	0.594500	0.113700
H731	H73	0.203600	0.582800	0.125700
C1211	C121	0.322600	0.551000	0.122500
H741	H74	0.318400	0.510000	0.141000
C1221	C122	0.400300	0.621900	0.079300
H751	H75	0.450600	0.632200	0.067600
C1231	C123	0.332100	0.668700	0.067500
H761	H76	0.336300	0.708100	0.047000
C1241	C124	0.189300	0.773900	0.072000
C1251	C125	0.269600	0.816600	0.083000
C1261	C126	0.324900	0.815800	0.134300
H771	H77	0.313800	0.786700	0.161200
C1271	C127	0.396000	0.858600	0.144400
H781	H78	0.432200	0.857800	0.178800
C1281	C128	0.364500	0.899700	0.056900
H791	H79	0.379300	0.926700	0.029900
C1291	C129	0.290600	0.858800	0.043800
H801	H80	0.255700	0.860000	0.009100
C1301	C130	0.527300	0.968100	0.760100
H811	H81	0.570000	0.940000	0.780400
C1311	C131	0.515500	0.967100	0.705100
H821	H82	0.551200	0.940000	0.688900
C1321	C132	0.450700	0.006400	0.673120
C1331	C133	0.400400	0.047600	0.699970
H831	H83	0.356500	0.075500	0.680500
C1341	C134	0.417400	0.045700	0.755620
H841	H84	0.382900	0.072700	0.772900
C1351	C135	0.437700	0.007300	0.613700
C1361	C136	0.478900	0.004700	0.520060
C1371	C137	0.362400	0.006600	0.576820
C1381	C138	0.274900	0.003800	0.588250
C1391	C139	0.251600	0.952200	0.620600
H851	H85	0.291000	0.918200	0.635600
C1401	C140	0.170000	0.952200	0.630200
H861	H86	0.155700	0.917800	0.652500
C1411	C141	0.131800	0.048900	0.577730
H871	H87	0.091100	0.082500	0.563500
C1421	C142	0.211700	0.052700	0.565570
H881	H88	0.223900	0.087100	0.542700
C1431	C143	0.074300	0.046500	0.744700
H891	H89	0.103700	0.078000	0.727600
C1441	C144	0.092400	0.046200	0.800400
H901	H90	0.133100	0.076500	0.819900
C1451	C145	0.048900	0.999400	0.827200
C1461	C146	0.989200	0.956300	0.795400
H911	H91	0.958000	0.925100	0.811600
C1471	C147	0.975400	0.959600	0.739600
H921	H92	0.935600	0.929400	0.719100
C1481	C148	0.064000	0.996900	0.886700
C1491	C149	0.139100	0.997600	0.923400
C1501	C150	0.227600	0.998700	0.912900
C1511	C151	0.249900	0.959300	0.872700
H931	H93	0.209300	0.930300	0.851400
C1521	C152	0.333300	0.963200	0.864100
H941	H94	0.347300	0.935600	0.837200
C1531	C153	0.372500	0.042100	0.931090
H951	H95	0.414000	0.071200	0.951300
C1541	C154	0.291800	0.040600	0.943100
H961	H96	0.280400	0.067500	0.971100
C1551	C155	0.021600	0.996000	0.980100
C1561	C156	0.790800	0.791200	0.968900
Cu51	Cu5	0.507780	0.013620	0.869890
Cu61	Cu6	0.996150	0.004320	0.631220
N171	N17	0.597100	0.937200	0.897150
N181	N18	0.571100	0.590800	0.903220
N191	N19	0.397500	0.563400	0.106300
N201	N20	0.415500	0.901700	0.106870
N211	N21	0.479900	0.007900	0.786840
N221	N22	0.108800	0.999400	0.609130
N231	N23	0.394300	0.004300	0.892370
N241	N24	0.017100	0.004600	0.713440
S171	S17	0.872950	0.677800	0.014540
S181	S18	0.888220	0.829440	0.003410
S191	S19	0.092250	0.820980	0.056220
S201	S20	0.079150	0.669370	0.067700
S211	S21	0.532380	0.012870	0.588300
S221	S22	0.365710	0.011290	0.507960
S231	S23	0.134940	0.992290	0.992400
S241	S24	0.969270	0.989270	0.911700
C1571	C157	0.922000	0.382800	0.574530
H971	H97	0.978700	0.377700	0.570900
C1581	C158	0.861400	0.333800	0.550400
H981	H98	0.876800	0.298100	0.529800
C1591	C159	0.777000	0.339200	0.557810
C1601	C160	0.758200	0.394000	0.589100
H991	H99	0.703100	0.398300	0.595900
C1611	C161	0.821400	0.442100	0.610200
H1001	H100	0.807100	0.479100	0.630100
C1621	C162	0.716000	0.222000	0.525500
C1631	C163	0.791000	0.178200	0.550100
C1641	C164	0.819800	0.127000	0.519700
H1011	H101	0.793300	0.120700	0.483400
C1651	C165	0.887800	0.086100	0.544000
H1021	H102	0.907100	0.052900	0.522800
C1661	C166	0.902500	0.140700	0.625200
H1031	H103	0.931100	0.146100	0.661200
C1671	C167	0.834400	0.185600	0.604400
H1041	H104	0.818300	0.219800	0.626100
C1681	C168	0.558700	0.250900	0.476500
C1691	C169	0.473700	0.246900	0.454300
C1701	C170	0.315500	0.204600	0.424100
C1711	C171	0.242900	0.155900	0.413300
C1721	C172	0.246900	0.094500	0.386300
H1051	H105	0.296400	0.082800	0.374300
C1731	C173	0.177400	0.051000	0.377500
H1061	H106	0.181600	0.010000	0.359000
C1741	C174	0.099700	0.121900	0.420700
H1071	H107	0.049400	0.132200	0.432400
C1751	C175	0.167900	0.168700	0.432500
H1081	H108	0.163700	0.208100	0.453000
C1761	C176	0.310700	0.273900	0.428000
C1771	C177	0.230400	0.316600	0.417000
C1781	C178	0.175100	0.315800	0.365700
H1091	H109	0.186200	0.286700	0.338800
C1791	C179	0.104000	0.358600	0.355600
H1101	H110	0.067800	0.357800	0.321200
C1801	C180	0.135500	0.399700	0.443100
H1111	H111	0.120700	0.426700	0.470100
C1811	C181	0.209400	0.358800	0.456200
H1121	H112	0.244300	0.360000	0.490900
C1821	C182	0.972700	0.468100	0.739900
H1131	H113	0.930000	0.440000	0.719600
C1831	C183	0.984500	0.467100	0.794900
H1141	H114	0.948800	0.440000	0.811100
C1841	C184	0.049300	0.506400	0.826880
C1851	C185	0.099600	0.547600	0.800030
H1151	H115	0.143500	0.575500	0.819500
C1861	C186	0.082600	0.545700	0.744380
H1161	H116	0.117100	0.572700	0.727100
C1871	C187	0.062300	0.507300	0.886300
C1881	C188	0.021100	0.504700	0.979940
C1891	C189	0.137600	0.506600	0.923180
C1901	C190	0.225100	0.503800	0.911750
C1911	C191	0.248400	0.452200	0.879400
H1171	H117	0.209000	0.418200	0.864400
C1921	C192	0.330000	0.452200	0.869800
H1181	H118	0.344300	0.417800	0.847500
C1931	C193	0.368200	0.548900	0.922270
H1191	H119	0.408900	0.582500	0.936500
C1941	C194	0.288300	0.552700	0.934430
H1201	H120	0.276100	0.587100	0.957300
C1951	C195	0.425700	0.546500	0.755300
H1211	H121	0.396300	0.578000	0.772400
C1961	C196	0.407600	0.546200	0.699600
H1221	H122	0.366900	0.576500	0.680100
C1971	C197	0.451100	0.499400	0.672800
C1981	C198	0.510800	0.456300	0.704600
H1231	H123	0.542000	0.425100	0.688400
C1991	C199	0.524600	0.459600	0.760400
H1241	H124	0.564400	0.429400	0.780900
C2001	C200	0.436000	0.496900	0.613300
C2011	C201	0.360900	0.497600	0.576600
C2021	C202	0.272400	0.498700	0.587100
C2031	C203	0.250100	0.459300	0.627300
H1251	H125	0.290700	0.430300	0.648600
C2041	C204	0.166700	0.463200	0.635900
H1261	H126	0.152700	0.435600	0.662800
C2051	C205	0.127500	0.542100	0.568910
H1271	H127	0.086000	0.571200	0.548700
C2061	C206	0.208200	0.540600	0.556900
H1281	H128	0.219600	0.567500	0.528900
C2071	C207	0.478400	0.496000	0.519900
C2081	C208	0.709200	0.291200	0.531100
Cu71	Cu7	0.992220	0.513620	0.630110
Cu81	Cu8	0.503850	0.504320	0.868780
N251	N25	0.902900	0.437200	0.602850
N261	N26	0.928900	0.090800	0.596780
N271	N27	0.102500	0.063400	0.393700
N281	N28	0.084500	0.401700	0.393130
N291	N29	0.020100	0.507900	0.713160
N301	N30	0.391200	0.499400	0.890870
N311	N31	0.105700	0.504300	0.607630
N321	N32	0.482900	0.504600	0.786560
S251	S25	0.627050	0.177800	0.485460
S261	S26	0.611780	0.329440	0.496590
S271	S27	0.407750	0.320980	0.443780
S281	S28	0.420850	0.169370	0.432300
S291	S29	0.967620	0.512870	0.911700
S301	S30	0.134290	0.511290	0.992040
S311	S31	0.365060	0.492290	0.507600
S321	S32	0.530730	0.489270	0.588300
