data_EBEMEE_freeONLY_PM
_symmetry_space_group_name_H-M	'P1'
_cell_length_a	11.440000
_cell_length_b	13.755700
_cell_length_c	13.780000
_cell_angle_alpha	103.234000
_cell_angle_beta	90.000000
_cell_angle_gamma	114.572000
_symmetry_Int_Tables_number 1

loop_
_symmetry_equiv_pos_as_xyz
'x,y,z'

loop_
_atom_site_label
_atom_site_type_symbol
_atom_site_fract_x
_atom_site_fract_y
_atom_site_fract_z
Cd11	Cd1	0.402490	0.445420	0.368600
Cd21	Cd2	0.957070	0.554580	0.131400
Cd31	Cd3	0.597510	0.554580	0.631400
Cd41	Cd4	0.042930	0.445420	0.868600
H11	H1	0.271800	0.347600	0.783900
H21	H2	0.431700	0.313400	0.843900
H31	H3	0.209200	0.198800	0.370600
H41	H4	0.193800	0.026800	0.375500
H51	H5	0.581600	0.145400	0.372500
H61	H6	0.584800	0.312800	0.366900
H71	H7	0.248000	0.763800	0.377300
H81	H8	0.233100	0.591400	0.381100
H91	H9	0.607200	0.691000	0.371200
H101	H10	0.634000	0.864800	0.365600
H111	H11	0.924200	0.652400	0.716100
H121	H12	0.118300	0.686600	0.656100
H131	H13	0.010400	0.801200	0.129400
H141	H14	0.167000	0.973200	0.124500
H151	H15	0.436200	0.854600	0.127500
H161	H16	0.272000	0.687200	0.133100
H171	H17	0.484200	0.236200	0.122700
H181	H18	0.641700	0.408600	0.118900
H191	H19	0.916200	0.309000	0.128800
H201	H20	0.769200	0.135200	0.134400
H211	H21	0.728200	0.652400	0.216100
H221	H22	0.568300	0.686600	0.156100
H231	H23	0.790800	0.801200	0.629400
H241	H24	0.806200	0.973200	0.624500
H251	H25	0.418400	0.854600	0.627500
H261	H26	0.415200	0.687200	0.633100
H271	H27	0.752000	0.236200	0.622700
H281	H28	0.766900	0.408600	0.618900
H291	H29	0.392800	0.309000	0.628800
H301	H30	0.366000	0.135200	0.634400
H311	H31	0.075800	0.347600	0.283900
H321	H32	0.881700	0.313400	0.343900
H331	H33	0.989600	0.198800	0.870600
H341	H34	0.833000	0.026800	0.875500
H351	H35	0.563800	0.145400	0.872500
H361	H36	0.728000	0.312800	0.866900
H371	H37	0.515800	0.763800	0.877300
H381	H38	0.358300	0.591400	0.881100
H391	H39	0.083800	0.691000	0.871200
H401	H40	0.230800	0.864800	0.865600
C11	C1	0.328100	0.375800	0.048100
C21	C2	0.239200	0.406000	0.013200
C31	C3	0.286600	0.358200	0.854200
C41	C4	0.379400	0.334600	0.889700
C51	C5	0.348900	0.379600	0.158300
C61	C6	0.169500	0.459800	0.084300
C71	C7	0.285800	0.187600	0.370700
C81	C8	0.275700	0.085200	0.374000
C91	C9	0.386500	0.068400	0.375100
C101	C10	0.503800	0.154600	0.372100
C111	C11	0.504100	0.253600	0.368700
C121	C12	0.443200	0.833800	0.372000
C131	C13	0.323400	0.750800	0.376100
C141	C14	0.315500	0.648200	0.378300
C151	C15	0.533600	0.706600	0.372300
C161	C16	0.550600	0.810000	0.369400
C171	C17	0.952300	0.624200	0.451900
C181	C18	0.833200	0.594000	0.486800
C191	C19	0.928400	0.641800	0.645800
C201	C20	0.044800	0.665400	0.610300
C211	C21	0.969300	0.620400	0.341700
C221	C22	0.709700	0.540200	0.415700
C231	C23	0.098200	0.812400	0.129300
C241	C24	0.190500	0.914800	0.126000
C251	C25	0.318100	0.931600	0.124900
C261	C26	0.349200	0.845400	0.127900
C271	C27	0.250500	0.746400	0.131300
C281	C28	0.609400	0.166200	0.128000
C291	C29	0.572600	0.249200	0.123900
C301	C30	0.667300	0.351800	0.121700
C311	C31	0.827000	0.293400	0.127700
C321	C32	0.740600	0.190000	0.130600
C331	C33	0.671900	0.624200	0.951900
C341	C34	0.760800	0.594000	0.986800
C351	C35	0.713400	0.641800	0.145800
C361	C36	0.620600	0.665400	0.110300
C371	C37	0.651100	0.620400	0.841700
C381	C38	0.830500	0.540200	0.915700
C391	C39	0.714200	0.812400	0.629300
C401	C40	0.724300	0.914800	0.626000
C411	C41	0.613500	0.931600	0.624900
C421	C42	0.496200	0.845400	0.627900
C431	C43	0.495900	0.746400	0.631300
C441	C44	0.556800	0.166200	0.628000
C451	C45	0.676600	0.249200	0.623900
C461	C46	0.684500	0.351800	0.621700
C471	C47	0.466400	0.293400	0.627700
C481	C48	0.449400	0.190000	0.630600
C491	C49	0.047700	0.375800	0.548100
C501	C50	0.166800	0.406000	0.513200
C511	C51	0.071600	0.358200	0.354200
C521	C52	0.955200	0.334600	0.389700
C531	C53	0.030700	0.379600	0.658300
C541	C54	0.290300	0.459800	0.584300
C551	C55	0.901800	0.187600	0.870700
C561	C56	0.809500	0.085200	0.874000
C571	C57	0.681900	0.068400	0.875100
C581	C58	0.650800	0.154600	0.872100
C591	C59	0.749500	0.253600	0.868700
C601	C60	0.390600	0.833800	0.872000
C611	C61	0.427400	0.750800	0.876100
C621	C62	0.332700	0.648200	0.878300
C631	C63	0.173000	0.706600	0.872300
C641	C64	0.259400	0.810000	0.869400
N11	N1	0.400600	0.340000	0.986600
N21	N2	0.215100	0.396000	0.914600
N31	N3	0.398300	0.272200	0.367700
N41	N4	0.417400	0.625200	0.376800
N51	N5	0.367900	0.960000	0.380500
N61	N6	0.465400	0.943800	0.370800
N71	N7	0.060600	0.660000	0.513400
N81	N8	0.819100	0.604000	0.585400
N91	N9	0.126100	0.727800	0.132300
N101	N10	0.792200	0.374800	0.123200
N111	N11	0.407900	0.040000	0.119500
N121	N12	0.521600	0.056200	0.129200
N131	N13	0.599400	0.660000	0.013400
N141	N14	0.784900	0.604000	0.085400
N151	N15	0.601700	0.727800	0.632300
N161	N16	0.582600	0.374800	0.623200
N171	N17	0.632100	0.040000	0.619500
N181	N18	0.534600	0.056200	0.629200
N191	N19	0.939400	0.340000	0.486600
N201	N20	0.180900	0.396000	0.414600
N211	N21	0.873900	0.272200	0.867700
N221	N22	0.207800	0.625200	0.876800
N231	N23	0.592100	0.960000	0.880500
N241	N24	0.478400	0.943800	0.870800
O11	O1	0.449300	0.452000	0.207700
O21	O2	0.261600	0.308200	0.190500
O31	O3	0.210000	0.494400	0.171600
O41	O4	0.075200	0.469200	0.045300
O51	O5	0.997300	0.548000	0.292300
O61	O6	0.953400	0.691800	0.309500
O71	O7	0.715600	0.505600	0.328400
O81	O8	0.606000	0.530800	0.454700
O91	O9	0.550700	0.548000	0.792300
O101	O10	0.738400	0.691800	0.809500
O111	O11	0.790000	0.505600	0.828400
O121	O12	0.924800	0.530800	0.954700
O131	O13	0.002700	0.452000	0.707700
O141	O14	0.046600	0.308200	0.690500
O151	O15	0.284400	0.494400	0.671600
O161	O16	0.394000	0.469200	0.545300
