data_EBIMIN_charged_PM
_symmetry_space_group_name_H-M	'P1'
_cell_length_a	10.761600
_cell_length_b	16.241700
_cell_length_c	25.648600
_cell_angle_alpha	90.000000
_cell_angle_beta	90.000000
_cell_angle_gamma	90.000000
_symmetry_Int_Tables_number 1

loop_
_symmetry_equiv_pos_as_xyz
'x,y,z'

loop_
_atom_site_label
_atom_site_type_symbol
_atom_site_fract_x
_atom_site_fract_y
_atom_site_fract_z
Mn11	Mn1	0.652230	0.931830	0.619520
Mn21	Mn2	0.347770	0.568170	0.119520
Mn31	Mn3	0.152230	0.068170	0.880480
Mn41	Mn4	0.847770	0.431830	0.380480
Mn51	Mn5	0.347770	0.068170	0.380480
Mn61	Mn6	0.652230	0.431830	0.880480
Mn71	Mn7	0.847770	0.931830	0.119520
Mn81	Mn8	0.152230	0.568170	0.619520
Mn91	Mn9	0.500000	0.000000	0.500000
Mn101	Mn10	0.500000	0.500000	0.000000
Mn111	Mn11	0.000000	0.000000	0.000000
Mn121	Mn12	0.000000	0.500000	0.500000
H11	H1	0.743000	0.685800	0.520200
H21	H2	0.561200	0.625000	0.387200
H31	H3	0.459200	0.827400	0.468100
H41	H4	0.467200	0.787600	0.349600
H51	H5	0.358700	0.802800	0.390900
H61	H6	0.243500	0.656100	0.414200
H71	H7	0.127500	0.546900	0.280000
H81	H8	0.405700	0.713400	0.277100
H91	H9	0.257000	0.814200	0.020200
H101	H10	0.438800	0.875000	0.887200
H111	H11	0.540800	0.672600	0.968100
H121	H12	0.532800	0.712400	0.849600
H131	H13	0.641300	0.697200	0.890900
H141	H14	0.756500	0.843900	0.914200
H151	H15	0.872500	0.953100	0.780000
H161	H16	0.594300	0.786600	0.777100
H171	H17	0.243000	0.314200	0.979800
H181	H18	0.061200	0.375000	0.112800
H191	H19	0.959200	0.172600	0.031900
H201	H20	0.967200	0.212400	0.150400
H211	H21	0.858700	0.197200	0.109100
H221	H22	0.743500	0.343900	0.085800
H231	H23	0.627500	0.453100	0.220000
H241	H24	0.905700	0.286600	0.222900
H251	H25	0.757000	0.185800	0.479800
H261	H26	0.938800	0.125000	0.612800
H271	H27	0.040800	0.327400	0.531900
H281	H28	0.032800	0.287600	0.650400
H291	H29	0.141300	0.302800	0.609100
H301	H30	0.256500	0.156100	0.585800
H311	H31	0.372500	0.046900	0.720000
H321	H32	0.094300	0.213400	0.722900
H331	H33	0.257000	0.314200	0.479800
H341	H34	0.438800	0.375000	0.612800
H351	H35	0.540800	0.172600	0.531900
H361	H36	0.532800	0.212400	0.650400
H371	H37	0.641300	0.197200	0.609100
H381	H38	0.756500	0.343900	0.585800
H391	H39	0.872500	0.453100	0.720000
H401	H40	0.594300	0.286600	0.722900
H411	H41	0.743000	0.185800	0.979800
H421	H42	0.561200	0.125000	0.112800
H431	H43	0.459200	0.327400	0.031900
H441	H44	0.467200	0.287600	0.150400
H451	H45	0.358700	0.302800	0.109100
H461	H46	0.243500	0.156100	0.085800
H471	H47	0.127500	0.046900	0.220000
H481	H48	0.405700	0.213400	0.222900
H491	H49	0.757000	0.685800	0.020200
H501	H50	0.938800	0.625000	0.887200
H511	H51	0.040800	0.827400	0.968100
H521	H52	0.032800	0.787600	0.849600
H531	H53	0.141300	0.802800	0.890900
H541	H54	0.256500	0.656100	0.914200
H551	H55	0.372500	0.546900	0.780000
H561	H56	0.094300	0.713400	0.777100
H571	H57	0.243000	0.814200	0.520200
H581	H58	0.061200	0.875000	0.387200
H591	H59	0.959200	0.672600	0.468100
H601	H60	0.967200	0.712400	0.349600
H611	H61	0.858700	0.697200	0.390900
H621	H62	0.743500	0.843900	0.414200
H631	H63	0.627500	0.953100	0.280000
H641	H64	0.905700	0.786600	0.277100
C11	C1	0.605000	0.765900	0.500220
C21	C2	0.679500	0.696500	0.495390
C31	C3	0.660400	0.642500	0.453650
C41	C4	0.572100	0.661000	0.416000
C51	C5	0.499500	0.731300	0.419800
C61	C6	0.513200	0.781700	0.463410
C71	C7	0.415100	0.760500	0.376430
C81	C8	0.336400	0.695400	0.349560
C91	C9	0.249300	0.649700	0.377440
C101	C10	0.170700	0.594900	0.352040
C111	C11	0.181600	0.583600	0.297830
C121	C12	0.271800	0.626500	0.270910
C131	C13	0.346300	0.682700	0.296430
C141	C14	0.624700	0.825900	0.543900
C151	C15	0.742300	0.567400	0.448770
C161	C16	0.075400	0.547100	0.382950
C171	C17	0.293400	0.610900	0.213430
C181	C18	0.395000	0.734100	0.000220
C191	C19	0.320500	0.803500	0.995390
C201	C20	0.339600	0.857500	0.953650
C211	C21	0.427900	0.839000	0.916000
C221	C22	0.500500	0.768700	0.919800
C231	C23	0.486800	0.718300	0.963410
C241	C24	0.584900	0.739500	0.876430
C251	C25	0.663600	0.804600	0.849560
C261	C26	0.750700	0.850300	0.877440
C271	C27	0.829300	0.905100	0.852040
C281	C28	0.818400	0.916400	0.797830
C291	C29	0.728200	0.873500	0.770910
C301	C30	0.653700	0.817300	0.796430
C311	C31	0.375300	0.674100	0.043900
C321	C32	0.257700	0.932600	0.948770
C331	C33	0.924600	0.952900	0.882950
C341	C34	0.706600	0.889100	0.713430
C351	C35	0.105000	0.234100	0.999780
C361	C36	0.179500	0.303500	0.004610
C371	C37	0.160400	0.357500	0.046350
C381	C38	0.072100	0.339000	0.084000
C391	C39	0.999500	0.268700	0.080200
C401	C40	0.013200	0.218300	0.036590
C411	C41	0.915100	0.239500	0.123570
C421	C42	0.836400	0.304600	0.150440
C431	C43	0.749300	0.350300	0.122560
C441	C44	0.670700	0.405100	0.147960
C451	C45	0.681600	0.416400	0.202170
C461	C46	0.771800	0.373500	0.229090
C471	C47	0.846300	0.317300	0.203570
C481	C48	0.124700	0.174100	0.956100
C491	C49	0.242300	0.432600	0.051230
C501	C50	0.575400	0.452900	0.117050
C511	C51	0.793400	0.389100	0.286570
C521	C52	0.895000	0.265900	0.499780
C531	C53	0.820500	0.196500	0.504610
C541	C54	0.839600	0.142500	0.546350
C551	C55	0.927900	0.161000	0.584000
C561	C56	0.000500	0.231300	0.580200
C571	C57	0.986800	0.281700	0.536590
C581	C58	0.084900	0.260500	0.623570
C591	C59	0.163600	0.195400	0.650440
C601	C60	0.250700	0.149700	0.622560
C611	C61	0.329300	0.094900	0.647960
C621	C62	0.318400	0.083600	0.702170
C631	C63	0.228200	0.126500	0.729090
C641	C64	0.153700	0.182700	0.703570
C651	C65	0.875300	0.325900	0.456100
C661	C66	0.757700	0.067400	0.551230
C671	C67	0.424600	0.047100	0.617050
C681	C68	0.206600	0.110900	0.786570
C691	C69	0.395000	0.234100	0.499780
C701	C70	0.320500	0.303500	0.504610
C711	C71	0.339600	0.357500	0.546350
C721	C72	0.427900	0.339000	0.584000
C731	C73	0.500500	0.268700	0.580200
C741	C74	0.486800	0.218300	0.536590
C751	C75	0.584900	0.239500	0.623570
C761	C76	0.663600	0.304600	0.650440
C771	C77	0.750700	0.350300	0.622560
C781	C78	0.829300	0.405100	0.647960
C791	C79	0.818400	0.416400	0.702170
C801	C80	0.728200	0.373500	0.729090
C811	C81	0.653700	0.317300	0.703570
C821	C82	0.375300	0.174100	0.456100
C831	C83	0.257700	0.432600	0.551230
C841	C84	0.924600	0.452900	0.617050
C851	C85	0.706600	0.389100	0.786570
C861	C86	0.605000	0.265900	0.999780
C871	C87	0.679500	0.196500	0.004610
C881	C88	0.660400	0.142500	0.046350
C891	C89	0.572100	0.161000	0.084000
C901	C90	0.499500	0.231300	0.080200
C911	C91	0.513200	0.281700	0.036590
C921	C92	0.415100	0.260500	0.123570
C931	C93	0.336400	0.195400	0.150440
C941	C94	0.249300	0.149700	0.122560
C951	C95	0.170700	0.094900	0.147960
C961	C96	0.181600	0.083600	0.202170
C971	C97	0.271800	0.126500	0.229090
C981	C98	0.346300	0.182700	0.203570
C991	C99	0.624700	0.325900	0.956100
C1001	C100	0.742300	0.067400	0.051230
C1011	C101	0.075400	0.047100	0.117050
C1021	C102	0.293400	0.110900	0.286570
C1031	C103	0.895000	0.765900	0.000220
C1041	C104	0.820500	0.696500	0.995390
C1051	C105	0.839600	0.642500	0.953650
C1061	C106	0.927900	0.661000	0.916000
C1071	C107	0.000500	0.731300	0.919800
C1081	C108	0.986800	0.781700	0.963410
C1091	C109	0.084900	0.760500	0.876430
C1101	C110	0.163600	0.695400	0.849560
C1111	C111	0.250700	0.649700	0.877440
C1121	C112	0.329300	0.594900	0.852040
C1131	C113	0.318400	0.583600	0.797830
C1141	C114	0.228200	0.626500	0.770910
C1151	C115	0.153700	0.682700	0.796430
C1161	C116	0.875300	0.825900	0.043900
C1171	C117	0.757700	0.567400	0.948770
C1181	C118	0.424600	0.547100	0.882950
C1191	C119	0.206600	0.610900	0.713430
C1201	C120	0.105000	0.734100	0.500220
C1211	C121	0.179500	0.803500	0.495390
C1221	C122	0.160400	0.857500	0.453650
C1231	C123	0.072100	0.839000	0.416000
C1241	C124	0.999500	0.768700	0.419800
C1251	C125	0.013200	0.718300	0.463410
C1261	C126	0.915100	0.739500	0.376430
C1271	C127	0.836400	0.804600	0.349560
C1281	C128	0.749300	0.850300	0.377440
C1291	C129	0.670700	0.905100	0.352040
C1301	C130	0.681600	0.916400	0.297830
C1311	C131	0.771800	0.873500	0.270910
C1321	C132	0.846300	0.817300	0.296430
C1331	C133	0.124700	0.674100	0.543900
C1341	C134	0.242300	0.932600	0.448770
C1351	C135	0.575400	0.952900	0.382950
C1361	C136	0.793400	0.889100	0.213430
O11	O1	0.556200	0.889820	0.546520
O21	O2	0.707100	0.813800	0.577450
O31	O3	0.827600	0.559400	0.481000
O41	O4	0.719200	0.517800	0.411890
O51	O5	0.090900	0.543900	0.431250
O61	O6	0.988000	0.513700	0.357910
O71	O7	0.220500	0.565100	0.188440
O81	O8	0.385400	0.642600	0.191640
O91	O9	0.443800	0.610180	0.046520
O101	O10	0.292900	0.686200	0.077450
O111	O11	0.172400	0.940600	0.981000
O121	O12	0.280800	0.982200	0.911890
O131	O13	0.909100	0.956100	0.931250
O141	O14	0.012000	0.986300	0.857910
O151	O15	0.779500	0.934900	0.688440
O161	O16	0.614600	0.857400	0.691640
O171	O17	0.056200	0.110180	0.953480
O181	O18	0.207100	0.186200	0.922550
O191	O19	0.327600	0.440600	0.019000
O201	O20	0.219200	0.482200	0.088110
O211	O21	0.590900	0.456100	0.068750
O221	O22	0.488000	0.486300	0.142090
O231	O23	0.720500	0.434900	0.311560
O241	O24	0.885400	0.357400	0.308360
O251	O25	0.943800	0.389820	0.453480
O261	O26	0.792900	0.313800	0.422550
O271	O27	0.672400	0.059400	0.519000
O281	O28	0.780800	0.017800	0.588110
O291	O29	0.409100	0.043900	0.568750
O301	O30	0.512000	0.013700	0.642090
O311	O31	0.279500	0.065100	0.811560
O321	O32	0.114600	0.142600	0.808360
O331	O33	0.443800	0.110180	0.453480
O341	O34	0.292900	0.186200	0.422550
O351	O35	0.172400	0.440600	0.519000
O361	O36	0.280800	0.482200	0.588110
O371	O37	0.909100	0.456100	0.568750
O381	O38	0.012000	0.486300	0.642090
O391	O39	0.779500	0.434900	0.811560
O401	O40	0.614600	0.357400	0.808360
O411	O41	0.556200	0.389820	0.953480
O421	O42	0.707100	0.313800	0.922550
O431	O43	0.827600	0.059400	0.019000
O441	O44	0.719200	0.017800	0.088110
O451	O45	0.090900	0.043900	0.068750
O461	O46	0.988000	0.013700	0.142090
O471	O47	0.220500	0.065100	0.311560
O481	O48	0.385400	0.142600	0.308360
O491	O49	0.943800	0.889820	0.046520
O501	O50	0.792900	0.813800	0.077450
O511	O51	0.672400	0.559400	0.981000
O521	O52	0.780800	0.517800	0.911890
O531	O53	0.409100	0.543900	0.931250
O541	O54	0.512000	0.513700	0.857910
O551	O55	0.279500	0.565100	0.688440
O561	O56	0.114600	0.642600	0.691640
O571	O57	0.056200	0.610180	0.546520
O581	O58	0.207100	0.686200	0.577450
O591	O59	0.327600	0.940600	0.481000
O601	O60	0.219200	0.982200	0.411890
O611	O61	0.590900	0.956100	0.431250
O621	O62	0.488000	0.986300	0.357910
O631	O63	0.720500	0.934900	0.188440
O641	O64	0.885400	0.857400	0.191640
H651	H65	0.564400	0.318900	0.354200
H661	H66	0.432200	0.306300	0.381600
H671	H67	0.553600	0.321300	0.416400
H681	H68	0.397000	0.523800	0.417600
H691	H69	0.447500	0.454500	0.456500
H701	H70	0.327700	0.436900	0.421300
H711	H71	0.563700	0.458700	0.383000
H721	H72	0.452900	0.444900	0.349700
C1371	C137	0.511900	0.335300	0.383600
C1381	C138	0.408600	0.464500	0.422600
N11	N1	0.488200	0.432300	0.381400
H731	H73	0.435600	0.181100	0.854200
H741	H74	0.567800	0.193700	0.881600
H751	H75	0.446400	0.178700	0.916400
H761	H76	0.603000	0.976200	0.917600
H771	H77	0.552500	0.045500	0.956500
H781	H78	0.672300	0.063100	0.921300
H791	H79	0.436300	0.041300	0.883000
H801	H80	0.547100	0.055100	0.849700
C1391	C139	0.488100	0.164700	0.883600
C1401	C140	0.591400	0.035500	0.922600
N21	N2	0.511800	0.067700	0.881400
H811	H81	0.064400	0.681100	0.145800
H821	H82	0.932200	0.693700	0.118400
H831	H83	0.053600	0.678700	0.083600
H841	H84	0.897000	0.476200	0.082400
H851	H85	0.947500	0.545500	0.043500
H861	H86	0.827700	0.563100	0.078700
H871	H87	0.063700	0.541300	0.117000
H881	H88	0.952900	0.555100	0.150300
C1411	C141	0.011900	0.664700	0.116400
C1421	C142	0.908600	0.535500	0.077400
N31	N3	0.988200	0.567700	0.118600
H891	H89	0.935600	0.818900	0.645800
H901	H90	0.067800	0.806300	0.618400
H911	H91	0.946400	0.821300	0.583600
H921	H92	0.103000	0.023800	0.582400
H931	H93	0.052500	0.954500	0.543500
H941	H94	0.172300	0.936900	0.578700
H951	H95	0.936300	0.958700	0.617000
H961	H96	0.047100	0.944900	0.650300
C1431	C143	0.988100	0.835300	0.616400
C1441	C144	0.091400	0.964500	0.577400
N41	N4	0.011800	0.932300	0.618600
H971	H97	0.435600	0.681100	0.645800
H981	H98	0.567800	0.693700	0.618400
H991	H99	0.446400	0.678700	0.583600
H1001	H100	0.603000	0.476200	0.582400
H1011	H101	0.552500	0.545500	0.543500
H1021	H102	0.672300	0.563100	0.578700
H1031	H103	0.436300	0.541300	0.617000
H1041	H104	0.547100	0.555100	0.650300
C1451	C145	0.488100	0.664700	0.616400
C1461	C146	0.591400	0.535500	0.577400
N51	N5	0.511800	0.567700	0.618600
H1051	H105	0.564400	0.818900	0.145800
H1061	H106	0.432200	0.806300	0.118400
H1071	H107	0.553600	0.821300	0.083600
H1081	H108	0.397000	0.023800	0.082400
H1091	H109	0.447500	0.954500	0.043500
H1101	H110	0.327700	0.936900	0.078700
H1111	H111	0.563700	0.958700	0.117000
H1121	H112	0.452900	0.944900	0.150300
C1471	C147	0.511900	0.835300	0.116400
C1481	C148	0.408600	0.964500	0.077400
N61	N6	0.488200	0.932300	0.118600
H1131	H113	0.935600	0.318900	0.854200
H1141	H114	0.067800	0.306300	0.881600
H1151	H115	0.946400	0.321300	0.916400
H1161	H116	0.103000	0.523800	0.917600
H1171	H117	0.052500	0.454500	0.956500
H1181	H118	0.172300	0.436900	0.921300
H1191	H119	0.936300	0.458700	0.883000
H1201	H120	0.047100	0.444900	0.849700
C1491	C149	0.988100	0.335300	0.883600
C1501	C150	0.091400	0.464500	0.922600
N71	N7	0.011800	0.432300	0.881400
H1211	H121	0.064400	0.181100	0.354200
H1221	H122	0.932200	0.193700	0.381600
H1231	H123	0.053600	0.178700	0.416400
H1241	H124	0.897000	0.976200	0.417600
H1251	H125	0.947500	0.045500	0.456500
H1261	H126	0.827700	0.063100	0.421300
H1271	H127	0.063700	0.041300	0.383000
H1281	H128	0.952900	0.055100	0.349700
C1511	C151	0.011900	0.164700	0.383600
C1521	C152	0.908600	0.035500	0.422600
N81	N8	0.988200	0.067700	0.381400
