data_EBINUA02_freeONLY_PM
_symmetry_space_group_name_H-M	'P1'
_cell_length_a	25.054000
_cell_length_b	13.215400
_cell_length_c	17.388500
_cell_angle_alpha	90.000000
_cell_angle_beta	90.000000
_cell_angle_gamma	90.000000
_symmetry_Int_Tables_number 1

loop_
_symmetry_equiv_pos_as_xyz
'x,y,z'

loop_
_atom_site_label
_atom_site_type_symbol
_atom_site_fract_x
_atom_site_fract_y
_atom_site_fract_z
N11	N1	0.253900	0.080000	0.918000
N21	N2	0.269000	0.117800	0.849000
N31	N3	0.317900	0.982700	0.879400
C11	C1	0.283700	0.999800	0.935200
H11	H1	0.280700	0.961600	0.979800
C21	C2	0.307200	0.056500	0.828400
H21	H2	0.325600	0.063300	0.782200
C31	C3	0.212700	0.129400	0.964400
H31	H3	0.187500	0.162600	0.930400
H41	H4	0.193500	0.078300	0.993300
C41	C4	0.235400	0.206700	0.019800
H51	H5	0.206500	0.234400	0.050400
H61	H6	0.259900	0.173000	0.054500
N41	N4	0.253900	0.580000	0.418000
N51	N5	0.269000	0.617800	0.349000
N61	N6	0.317900	0.482700	0.379400
C51	C5	0.283700	0.499800	0.435200
H71	H7	0.280700	0.461600	0.479800
C61	C6	0.307200	0.556500	0.328400
H81	H8	0.325600	0.563300	0.282200
C71	C7	0.212700	0.629400	0.464400
H91	H9	0.187500	0.662600	0.430400
H101	H10	0.193500	0.578300	0.493300
C81	C8	0.235400	0.706700	0.519800
H111	H11	0.206500	0.734400	0.550400
H121	H12	0.259900	0.673000	0.554500
N71	N7	0.753900	0.080000	0.418000
N81	N8	0.769000	0.117800	0.349000
N91	N9	0.817900	0.982700	0.379400
C91	C9	0.783700	0.999800	0.435200
H131	H13	0.780700	0.961600	0.479800
C101	C10	0.807200	0.056500	0.328400
H141	H14	0.825600	0.063300	0.282200
C111	C11	0.712700	0.129400	0.464400
H151	H15	0.687500	0.162600	0.430400
H161	H16	0.693500	0.078300	0.493300
C121	C12	0.735400	0.206700	0.519800
H171	H17	0.706500	0.234400	0.550400
H181	H18	0.759900	0.173000	0.554500
N101	N10	0.753900	0.580000	0.918000
N111	N11	0.769000	0.617800	0.849000
N121	N12	0.817900	0.482700	0.879400
C131	C13	0.783700	0.499800	0.935200
H191	H19	0.780700	0.461600	0.979800
C141	C14	0.807200	0.556500	0.828400
H201	H20	0.825600	0.563300	0.782200
C151	C15	0.712700	0.629400	0.964400
H211	H21	0.687500	0.662600	0.930400
H221	H22	0.693500	0.578300	0.993300
C161	C16	0.735400	0.706700	0.019800
H231	H23	0.706500	0.734400	0.050400
H241	H24	0.759900	0.673000	0.054500
N131	N13	0.496100	0.670000	0.918000
N141	N14	0.481000	0.632200	0.849000
N151	N15	0.432100	0.767300	0.879400
C171	C17	0.466300	0.750200	0.935200
H251	H25	0.469300	0.788400	0.979800
C181	C18	0.442800	0.693500	0.828400
H261	H26	0.424400	0.686700	0.782200
C191	C19	0.537300	0.620600	0.964400
H271	H27	0.562500	0.587400	0.930400
H281	H28	0.556500	0.671700	0.993300
C201	C20	0.514600	0.543300	0.019800
H291	H29	0.543500	0.515600	0.050400
H301	H30	0.490100	0.577000	0.054500
N161	N16	0.496100	0.170000	0.418000
N171	N17	0.481000	0.132200	0.349000
N181	N18	0.432100	0.267300	0.379400
C211	C21	0.466300	0.250200	0.435200
H311	H31	0.469300	0.288400	0.479800
C221	C22	0.442800	0.193500	0.328400
H321	H32	0.424400	0.186700	0.282200
C231	C23	0.537300	0.120600	0.464400
H331	H33	0.562500	0.087400	0.430400
H341	H34	0.556500	0.171700	0.493300
C241	C24	0.514600	0.043300	0.519800
H351	H35	0.543500	0.015600	0.550400
H361	H36	0.490100	0.077000	0.554500
N191	N19	0.996100	0.670000	0.418000
N201	N20	0.981000	0.632200	0.349000
N211	N21	0.932100	0.767300	0.379400
C251	C25	0.966300	0.750200	0.435200
H371	H37	0.969300	0.788400	0.479800
C261	C26	0.942800	0.693500	0.328400
H381	H38	0.924400	0.686700	0.282200
C271	C27	0.037300	0.620600	0.464400
H391	H39	0.062500	0.587400	0.430400
H401	H40	0.056500	0.671700	0.493300
C281	C28	0.014600	0.543300	0.519800
H411	H41	0.043500	0.515600	0.550400
H421	H42	0.990100	0.577000	0.554500
N221	N22	0.996100	0.170000	0.918000
N231	N23	0.981000	0.132200	0.849000
N241	N24	0.932100	0.267300	0.879400
C291	C29	0.966300	0.250200	0.935200
H431	H43	0.969300	0.288400	0.979800
C301	C30	0.942800	0.193500	0.828400
H441	H44	0.924400	0.186700	0.782200
C311	C31	0.037300	0.120600	0.964400
H451	H45	0.062500	0.087400	0.930400
H461	H46	0.056500	0.171700	0.993300
C321	C32	0.014600	0.043300	0.019800
H471	H47	0.043500	0.015600	0.050400
H481	H48	0.990100	0.077000	0.054500
N251	N25	0.496100	0.080000	0.832000
N261	N26	0.481000	0.117800	0.901000
N271	N27	0.432100	0.982700	0.870600
C331	C33	0.466300	0.999800	0.814800
H491	H49	0.469300	0.961600	0.770200
C341	C34	0.442800	0.056500	0.921600
H501	H50	0.424400	0.063300	0.967800
C351	C35	0.537300	0.129400	0.785600
H511	H51	0.562500	0.162600	0.819600
H521	H52	0.556500	0.078300	0.756700
C361	C36	0.514600	0.206700	0.730200
H531	H53	0.543500	0.234400	0.699600
H541	H54	0.490100	0.173000	0.695500
N281	N28	0.496100	0.580000	0.332000
N291	N29	0.481000	0.617800	0.401000
N301	N30	0.432100	0.482700	0.370600
C371	C37	0.466300	0.499800	0.314800
H551	H55	0.469300	0.461600	0.270200
C381	C38	0.442800	0.556500	0.421600
H561	H56	0.424400	0.563300	0.467800
C391	C39	0.537300	0.629400	0.285600
H571	H57	0.562500	0.662600	0.319600
H581	H58	0.556500	0.578300	0.256700
C401	C40	0.514600	0.706700	0.230200
H591	H59	0.543500	0.734400	0.199600
H601	H60	0.490100	0.673000	0.195500
N311	N31	0.996100	0.080000	0.332000
N321	N32	0.981000	0.117800	0.401000
N331	N33	0.932100	0.982700	0.370600
C411	C41	0.966300	0.999800	0.314800
H611	H61	0.969300	0.961600	0.270200
C421	C42	0.942800	0.056500	0.421600
H621	H62	0.924400	0.063300	0.467800
C431	C43	0.037300	0.129400	0.285600
H631	H63	0.062500	0.162600	0.319600
H641	H64	0.056500	0.078300	0.256700
C441	C44	0.014600	0.206700	0.230200
H651	H65	0.043500	0.234400	0.199600
H661	H66	0.990100	0.173000	0.195500
N341	N34	0.996100	0.580000	0.832000
N351	N35	0.981000	0.617800	0.901000
N361	N36	0.932100	0.482700	0.870600
C451	C45	0.966300	0.499800	0.814800
H671	H67	0.969300	0.461600	0.770200
C461	C46	0.942800	0.556500	0.921600
H681	H68	0.924400	0.563300	0.967800
C471	C47	0.037300	0.629400	0.785600
H691	H69	0.062500	0.662600	0.819600
H701	H70	0.056500	0.578300	0.756700
C481	C48	0.014600	0.706700	0.730200
H711	H71	0.043500	0.734400	0.699600
H721	H72	0.990100	0.673000	0.695500
N371	N37	0.253900	0.670000	0.832000
N381	N38	0.269000	0.632200	0.901000
N391	N39	0.317900	0.767300	0.870600
C491	C49	0.283700	0.750200	0.814800
H731	H73	0.280700	0.788400	0.770200
C501	C50	0.307200	0.693500	0.921600
H741	H74	0.325600	0.686700	0.967800
C511	C51	0.212700	0.620600	0.785600
H751	H75	0.187500	0.587400	0.819600
H761	H76	0.193500	0.671700	0.756700
C521	C52	0.235400	0.543300	0.730200
H771	H77	0.206500	0.515600	0.699600
H781	H78	0.259900	0.577000	0.695500
N401	N40	0.253900	0.170000	0.332000
N411	N41	0.269000	0.132200	0.401000
N421	N42	0.317900	0.267300	0.370600
C531	C53	0.283700	0.250200	0.314800
H791	H79	0.280700	0.288400	0.270200
C541	C54	0.307200	0.193500	0.421600
H801	H80	0.325600	0.186700	0.467800
C551	C55	0.212700	0.120600	0.285600
H811	H81	0.187500	0.087400	0.319600
H821	H82	0.193500	0.171700	0.256700
C561	C56	0.235400	0.043300	0.230200
H831	H83	0.206500	0.015600	0.199600
H841	H84	0.259900	0.077000	0.195500
N431	N43	0.753900	0.670000	0.332000
N441	N44	0.769000	0.632200	0.401000
N451	N45	0.817900	0.767300	0.370600
C571	C57	0.783700	0.750200	0.314800
H851	H85	0.780700	0.788400	0.270200
C581	C58	0.807200	0.693500	0.421600
H861	H86	0.825600	0.686700	0.467800
C591	C59	0.712700	0.620600	0.285600
H871	H87	0.687500	0.587400	0.319600
H881	H88	0.693500	0.671700	0.256700
C601	C60	0.735400	0.543300	0.230200
H891	H89	0.706500	0.515600	0.199600
H901	H90	0.759900	0.577000	0.195500
N461	N46	0.753900	0.170000	0.832000
N471	N47	0.769000	0.132200	0.901000
N481	N48	0.817900	0.267300	0.870600
C611	C61	0.783700	0.250200	0.814800
H911	H91	0.780700	0.288400	0.770200
C621	C62	0.807200	0.193500	0.921600
H921	H92	0.825600	0.186700	0.967800
C631	C63	0.712700	0.120600	0.785600
H931	H93	0.687500	0.087400	0.819600
H941	H94	0.693500	0.171700	0.756700
C641	C64	0.735400	0.043300	0.730200
H951	H95	0.706500	0.015600	0.699600
H961	H96	0.759900	0.077000	0.695500
N491	N49	0.746100	0.920000	0.082000
N501	N50	0.731000	0.882200	0.151000
N511	N51	0.682100	0.017300	0.120600
C651	C65	0.716300	0.000200	0.064800
H971	H97	0.719300	0.038400	0.020200
C661	C66	0.692800	0.943500	0.171600
H981	H98	0.674400	0.936700	0.217800
C671	C67	0.787300	0.870600	0.035600
H991	H99	0.812500	0.837400	0.069600
H1001	H100	0.806500	0.921700	0.006700
C681	C68	0.764600	0.793300	0.980200
H1011	H101	0.793500	0.765600	0.949600
H1021	H102	0.740100	0.827000	0.945500
N521	N52	0.746100	0.420000	0.582000
N531	N53	0.731000	0.382200	0.651000
N541	N54	0.682100	0.517300	0.620600
C691	C69	0.716300	0.500200	0.564800
H1031	H103	0.719300	0.538400	0.520200
C701	C70	0.692800	0.443500	0.671600
H1041	H104	0.674400	0.436700	0.717800
C711	C71	0.787300	0.370600	0.535600
H1051	H105	0.812500	0.337400	0.569600
H1061	H106	0.806500	0.421700	0.506700
C721	C72	0.764600	0.293300	0.480200
H1071	H107	0.793500	0.265600	0.449600
H1081	H108	0.740100	0.327000	0.445500
N551	N55	0.246100	0.920000	0.582000
N561	N56	0.231000	0.882200	0.651000
N571	N57	0.182100	0.017300	0.620600
C731	C73	0.216300	0.000200	0.564800
H1091	H109	0.219300	0.038400	0.520200
C741	C74	0.192800	0.943500	0.671600
H1101	H110	0.174400	0.936700	0.717800
C751	C75	0.287300	0.870600	0.535600
H1111	H111	0.312500	0.837400	0.569600
H1121	H112	0.306500	0.921700	0.506700
C761	C76	0.264600	0.793300	0.480200
H1131	H113	0.293500	0.765600	0.449600
H1141	H114	0.240100	0.827000	0.445500
N581	N58	0.246100	0.420000	0.082000
N591	N59	0.231000	0.382200	0.151000
N601	N60	0.182100	0.517300	0.120600
C771	C77	0.216300	0.500200	0.064800
H1151	H115	0.219300	0.538400	0.020200
C781	C78	0.192800	0.443500	0.171600
H1161	H116	0.174400	0.436700	0.217800
C791	C79	0.287300	0.370600	0.035600
H1171	H117	0.312500	0.337400	0.069600
H1181	H118	0.306500	0.421700	0.006700
C801	C80	0.264600	0.293300	0.980200
H1191	H119	0.293500	0.265600	0.949600
H1201	H120	0.240100	0.327000	0.945500
N611	N61	0.503900	0.330000	0.082000
N621	N62	0.519000	0.367800	0.151000
N631	N63	0.567900	0.232700	0.120600
C811	C81	0.533700	0.249800	0.064800
H1211	H121	0.530700	0.211600	0.020200
C821	C82	0.557200	0.306500	0.171600
H1221	H122	0.575600	0.313300	0.217800
C831	C83	0.462700	0.379400	0.035600
H1231	H123	0.437500	0.412600	0.069600
H1241	H124	0.443500	0.328300	0.006700
C841	C84	0.485400	0.456700	0.980200
H1251	H125	0.456500	0.484400	0.949600
H1261	H126	0.509900	0.423000	0.945500
N641	N64	0.503900	0.830000	0.582000
N651	N65	0.519000	0.867800	0.651000
N661	N66	0.567900	0.732700	0.620600
C851	C85	0.533700	0.749800	0.564800
H1271	H127	0.530700	0.711600	0.520200
C861	C86	0.557200	0.806500	0.671600
H1281	H128	0.575600	0.813300	0.717800
C871	C87	0.462700	0.879400	0.535600
H1291	H129	0.437500	0.912600	0.569600
H1301	H130	0.443500	0.828300	0.506700
C881	C88	0.485400	0.956700	0.480200
H1311	H131	0.456500	0.984400	0.449600
H1321	H132	0.509900	0.923000	0.445500
N671	N67	0.003900	0.330000	0.582000
N681	N68	0.019000	0.367800	0.651000
N691	N69	0.067900	0.232700	0.620600
C891	C89	0.033700	0.249800	0.564800
H1331	H133	0.030700	0.211600	0.520200
C901	C90	0.057200	0.306500	0.671600
H1341	H134	0.075600	0.313300	0.717800
C911	C91	0.962700	0.379400	0.535600
H1351	H135	0.937500	0.412600	0.569600
H1361	H136	0.943500	0.328300	0.506700
C921	C92	0.985400	0.456700	0.480200
H1371	H137	0.956500	0.484400	0.449600
H1381	H138	0.009900	0.423000	0.445500
N701	N70	0.003900	0.830000	0.082000
N711	N71	0.019000	0.867800	0.151000
N721	N72	0.067900	0.732700	0.120600
C931	C93	0.033700	0.749800	0.064800
H1391	H139	0.030700	0.711600	0.020200
C941	C94	0.057200	0.806500	0.171600
H1401	H140	0.075600	0.813300	0.217800
C951	C95	0.962700	0.879400	0.035600
H1411	H141	0.937500	0.912600	0.069600
H1421	H142	0.943500	0.828300	0.006700
C961	C96	0.985400	0.956700	0.980200
H1431	H143	0.956500	0.984400	0.949600
H1441	H144	0.009900	0.923000	0.945500
N731	N73	0.503900	0.920000	0.168000
N741	N74	0.519000	0.882200	0.099000
N751	N75	0.567900	0.017300	0.129400
C971	C97	0.533700	0.000200	0.185200
H1451	H145	0.530700	0.038400	0.229800
C981	C98	0.557200	0.943500	0.078400
H1461	H146	0.575600	0.936700	0.032200
C991	C99	0.462700	0.870600	0.214400
H1471	H147	0.437500	0.837400	0.180400
H1481	H148	0.443500	0.921700	0.243300
C1001	C100	0.485400	0.793300	0.269800
H1491	H149	0.456500	0.765600	0.300400
H1501	H150	0.509900	0.827000	0.304500
N761	N76	0.503900	0.420000	0.668000
N771	N77	0.519000	0.382200	0.599000
N781	N78	0.567900	0.517300	0.629400
C1011	C101	0.533700	0.500200	0.685200
H1511	H151	0.530700	0.538400	0.729800
C1021	C102	0.557200	0.443500	0.578400
H1521	H152	0.575600	0.436700	0.532200
C1031	C103	0.462700	0.370600	0.714400
H1531	H153	0.437500	0.337400	0.680400
H1541	H154	0.443500	0.421700	0.743300
C1041	C104	0.485400	0.293300	0.769800
H1551	H155	0.456500	0.265600	0.800400
H1561	H156	0.509900	0.327000	0.804500
N791	N79	0.003900	0.920000	0.668000
N801	N80	0.019000	0.882200	0.599000
N811	N81	0.067900	0.017300	0.629400
C1051	C105	0.033700	0.000200	0.685200
H1571	H157	0.030700	0.038400	0.729800
C1061	C106	0.057200	0.943500	0.578400
H1581	H158	0.075600	0.936700	0.532200
C1071	C107	0.962700	0.870600	0.714400
H1591	H159	0.937500	0.837400	0.680400
H1601	H160	0.943500	0.921700	0.743300
C1081	C108	0.985400	0.793300	0.769800
H1611	H161	0.956500	0.765600	0.800400
H1621	H162	0.009900	0.827000	0.804500
N821	N82	0.003900	0.420000	0.168000
N831	N83	0.019000	0.382200	0.099000
N841	N84	0.067900	0.517300	0.129400
C1091	C109	0.033700	0.500200	0.185200
H1631	H163	0.030700	0.538400	0.229800
C1101	C110	0.057200	0.443500	0.078400
H1641	H164	0.075600	0.436700	0.032200
C1111	C111	0.962700	0.370600	0.214400
H1651	H165	0.937500	0.337400	0.180400
H1661	H166	0.943500	0.421700	0.243300
C1121	C112	0.985400	0.293300	0.269800
H1671	H167	0.956500	0.265600	0.300400
H1681	H168	0.009900	0.327000	0.304500
N851	N85	0.746100	0.330000	0.168000
N861	N86	0.731000	0.367800	0.099000
N871	N87	0.682100	0.232700	0.129400
C1131	C113	0.716300	0.249800	0.185200
H1691	H169	0.719300	0.211600	0.229800
C1141	C114	0.692800	0.306500	0.078400
H1701	H170	0.674400	0.313300	0.032200
C1151	C115	0.787300	0.379400	0.214400
H1711	H171	0.812500	0.412600	0.180400
H1721	H172	0.806500	0.328300	0.243300
C1161	C116	0.764600	0.456700	0.269800
H1731	H173	0.793500	0.484400	0.300400
H1741	H174	0.740100	0.423000	0.304500
N881	N88	0.746100	0.830000	0.668000
N891	N89	0.731000	0.867800	0.599000
N901	N90	0.682100	0.732700	0.629400
C1171	C117	0.716300	0.749800	0.685200
H1751	H175	0.719300	0.711600	0.729800
C1181	C118	0.692800	0.806500	0.578400
H1761	H176	0.674400	0.813300	0.532200
C1191	C119	0.787300	0.879400	0.714400
H1771	H177	0.812500	0.912600	0.680400
H1781	H178	0.806500	0.828300	0.743300
C1201	C120	0.764600	0.956700	0.769800
H1791	H179	0.793500	0.984400	0.800400
H1801	H180	0.740100	0.923000	0.804500
N911	N91	0.246100	0.330000	0.668000
N921	N92	0.231000	0.367800	0.599000
N931	N93	0.182100	0.232700	0.629400
C1211	C121	0.216300	0.249800	0.685200
H1811	H181	0.219300	0.211600	0.729800
C1221	C122	0.192800	0.306500	0.578400
H1821	H182	0.174400	0.313300	0.532200
C1231	C123	0.287300	0.379400	0.714400
H1831	H183	0.312500	0.412600	0.680400
H1841	H184	0.306500	0.328300	0.743300
C1241	C124	0.264600	0.456700	0.769800
H1851	H185	0.293500	0.484400	0.800400
H1861	H186	0.240100	0.423000	0.804500
N941	N94	0.246100	0.830000	0.168000
N951	N95	0.231000	0.867800	0.099000
N961	N96	0.182100	0.732700	0.129400
C1251	C125	0.216300	0.749800	0.185200
H1871	H187	0.219300	0.711600	0.229800
C1261	C126	0.192800	0.806500	0.078400
H1881	H188	0.174400	0.813300	0.032200
C1271	C127	0.287300	0.879400	0.214400
H1891	H189	0.312500	0.912600	0.180400
H1901	H190	0.306500	0.828300	0.243300
C1281	C128	0.264600	0.956700	0.269800
H1911	H191	0.293500	0.984400	0.300400
H1921	H192	0.240100	0.923000	0.304500
Cu11	Cu1	0.375000	0.875000	0.875000
Cu21	Cu2	0.375000	0.375000	0.375000
Cu31	Cu3	0.875000	0.875000	0.375000
Cu41	Cu4	0.875000	0.375000	0.875000
Cu51	Cu5	0.625000	0.125000	0.125000
Cu61	Cu6	0.625000	0.625000	0.625000
Cu71	Cu7	0.125000	0.125000	0.625000
Cu81	Cu8	0.125000	0.625000	0.125000
