data_EBINUA_freeONLY_PM
_symmetry_space_group_name_H-M	'P1'
_cell_length_a	13.143000
_cell_length_b	17.513000
_cell_length_c	25.348000
_cell_angle_alpha	90.000000
_cell_angle_beta	90.000000
_cell_angle_gamma	90.000000
_symmetry_Int_Tables_number 1

loop_
_symmetry_equiv_pos_as_xyz
'x,y,z'

loop_
_atom_site_label
_atom_site_type_symbol
_atom_site_fract_x
_atom_site_fract_y
_atom_site_fract_z
N11	N1	0.830800	0.166680	0.245230
N21	N2	0.868600	0.098900	0.230300
N31	N3	0.733100	0.129080	0.181100
C11	C1	0.956700	0.268000	0.264800
H11	H1	0.921700	0.303700	0.241200
H21	H2	0.984800	0.297800	0.294100
C21	C2	0.879000	0.212200	0.286750
H31	H3	0.912600	0.177900	0.311900
H41	H4	0.826400	0.240700	0.305900
C31	C3	0.808100	0.079000	0.191300
H51	H5	0.816700	0.033500	0.172100
C41	C4	0.750300	0.183900	0.216150
H61	H6	0.711100	0.228400	0.219800
N41	N4	0.830800	0.666680	0.745230
N51	N5	0.868600	0.598900	0.730300
N61	N6	0.733100	0.629080	0.681100
C51	C5	0.956700	0.768000	0.764800
H71	H7	0.921700	0.803700	0.741200
H81	H8	0.984800	0.797800	0.794100
C61	C6	0.879000	0.712200	0.786750
H91	H9	0.912600	0.677900	0.811900
H101	H10	0.826400	0.740700	0.805900
C71	C7	0.808100	0.579000	0.691300
H111	H11	0.816700	0.533500	0.672100
C81	C8	0.750300	0.683900	0.716150
H121	H12	0.711100	0.728400	0.719800
N71	N7	0.330800	0.166680	0.745230
N81	N8	0.368600	0.098900	0.730300
N91	N9	0.233100	0.129080	0.681100
C91	C9	0.456700	0.268000	0.764800
H131	H13	0.421700	0.303700	0.741200
H141	H14	0.484800	0.297800	0.794100
C101	C10	0.379000	0.212200	0.786750
H151	H15	0.412600	0.177900	0.811900
H161	H16	0.326400	0.240700	0.805900
C111	C11	0.308100	0.079000	0.691300
H171	H17	0.316700	0.033500	0.672100
C121	C12	0.250300	0.183900	0.716150
H181	H18	0.211100	0.228400	0.719800
N101	N10	0.330800	0.666680	0.245230
N111	N11	0.368600	0.598900	0.230300
N121	N12	0.233100	0.629080	0.181100
C131	C13	0.456700	0.768000	0.264800
H191	H19	0.421700	0.803700	0.241200
H201	H20	0.484800	0.797800	0.294100
C141	C14	0.379000	0.712200	0.286750
H211	H21	0.412600	0.677900	0.311900
H221	H22	0.326400	0.740700	0.305900
C151	C15	0.308100	0.579000	0.191300
H231	H23	0.316700	0.533500	0.172100
C161	C16	0.250300	0.683900	0.216150
H241	H24	0.211100	0.728400	0.219800
N131	N13	0.919200	0.583320	0.245230
N141	N14	0.881400	0.651100	0.230300
N151	N15	0.016900	0.620920	0.181100
C171	C17	0.793300	0.482000	0.264800
H251	H25	0.828300	0.446300	0.241200
H261	H26	0.765200	0.452200	0.294100
C181	C18	0.871000	0.537800	0.286750
H271	H27	0.837400	0.572100	0.311900
H281	H28	0.923600	0.509300	0.305900
C191	C19	0.941900	0.671000	0.191300
H291	H29	0.933300	0.716500	0.172100
C201	C20	0.999700	0.566100	0.216150
H301	H30	0.038900	0.521600	0.219800
N161	N16	0.919200	0.083320	0.745230
N171	N17	0.881400	0.151100	0.730300
N181	N18	0.016900	0.120920	0.681100
C211	C21	0.793300	0.982000	0.764800
H311	H31	0.828300	0.946300	0.741200
H321	H32	0.765200	0.952200	0.794100
C221	C22	0.871000	0.037800	0.786750
H331	H33	0.837400	0.072100	0.811900
H341	H34	0.923600	0.009300	0.805900
C231	C23	0.941900	0.171000	0.691300
H351	H35	0.933300	0.216500	0.672100
C241	C24	0.999700	0.066100	0.716150
H361	H36	0.038900	0.021600	0.719800
N191	N19	0.419200	0.583320	0.745230
N201	N20	0.381400	0.651100	0.730300
N211	N21	0.516900	0.620920	0.681100
C251	C25	0.293300	0.482000	0.764800
H371	H37	0.328300	0.446300	0.741200
H381	H38	0.265200	0.452200	0.794100
C261	C26	0.371000	0.537800	0.786750
H391	H39	0.337400	0.572100	0.811900
H401	H40	0.423600	0.509300	0.805900
C271	C27	0.441900	0.671000	0.691300
H411	H41	0.433300	0.716500	0.672100
C281	C28	0.499700	0.566100	0.716150
H421	H42	0.538900	0.521600	0.719800
N221	N22	0.419200	0.083320	0.245230
N231	N23	0.381400	0.151100	0.230300
N241	N24	0.516900	0.120920	0.181100
C291	C29	0.293300	0.982000	0.264800
H431	H43	0.328300	0.946300	0.241200
H441	H44	0.265200	0.952200	0.294100
C301	C30	0.371000	0.037800	0.286750
H451	H45	0.337400	0.072100	0.311900
H461	H46	0.423600	0.009300	0.305900
C311	C31	0.441900	0.171000	0.191300
H471	H47	0.433300	0.216500	0.172100
C321	C32	0.499700	0.066100	0.216150
H481	H48	0.538900	0.021600	0.219800
N251	N25	0.919200	0.166680	0.504770
N261	N26	0.881400	0.098900	0.519700
N271	N27	0.016900	0.129080	0.568900
C331	C33	0.793300	0.268000	0.485200
H491	H49	0.828300	0.303700	0.508800
H501	H50	0.765200	0.297800	0.455900
C341	C34	0.871000	0.212200	0.463250
H511	H51	0.837400	0.177900	0.438100
H521	H52	0.923600	0.240700	0.444100
C351	C35	0.941900	0.079000	0.558700
H531	H53	0.933300	0.033500	0.577900
C361	C36	0.999700	0.183900	0.533850
H541	H54	0.038900	0.228400	0.530200
N281	N28	0.919200	0.666680	0.004770
N291	N29	0.881400	0.598900	0.019700
N301	N30	0.016900	0.629080	0.068900
C371	C37	0.793300	0.768000	0.985200
H551	H55	0.828300	0.803700	0.008800
H561	H56	0.765200	0.797800	0.955900
C381	C38	0.871000	0.712200	0.963250
H571	H57	0.837400	0.677900	0.938100
H581	H58	0.923600	0.740700	0.944100
C391	C39	0.941900	0.579000	0.058700
H591	H59	0.933300	0.533500	0.077900
C401	C40	0.999700	0.683900	0.033850
H601	H60	0.038900	0.728400	0.030200
N311	N31	0.419200	0.166680	0.004770
N321	N32	0.381400	0.098900	0.019700
N331	N33	0.516900	0.129080	0.068900
C411	C41	0.293300	0.268000	0.985200
H611	H61	0.328300	0.303700	0.008800
H621	H62	0.265200	0.297800	0.955900
C421	C42	0.371000	0.212200	0.963250
H631	H63	0.337400	0.177900	0.938100
H641	H64	0.423600	0.240700	0.944100
C431	C43	0.441900	0.079000	0.058700
H651	H65	0.433300	0.033500	0.077900
C441	C44	0.499700	0.183900	0.033850
H661	H66	0.538900	0.228400	0.030200
N341	N34	0.419200	0.666680	0.504770
N351	N35	0.381400	0.598900	0.519700
N361	N36	0.516900	0.629080	0.568900
C451	C45	0.293300	0.768000	0.485200
H671	H67	0.328300	0.803700	0.508800
H681	H68	0.265200	0.797800	0.455900
C461	C46	0.371000	0.712200	0.463250
H691	H69	0.337400	0.677900	0.438100
H701	H70	0.423600	0.740700	0.444100
C471	C47	0.441900	0.579000	0.558700
H711	H71	0.433300	0.533500	0.577900
C481	C48	0.499700	0.683900	0.533850
H721	H72	0.538900	0.728400	0.530200
N371	N37	0.830800	0.583320	0.504770
N381	N38	0.868600	0.651100	0.519700
N391	N39	0.733100	0.620920	0.568900
C491	C49	0.956700	0.482000	0.485200
H731	H73	0.921700	0.446300	0.508800
H741	H74	0.984800	0.452200	0.455900
C501	C50	0.879000	0.537800	0.463250
H751	H75	0.912600	0.572100	0.438100
H761	H76	0.826400	0.509300	0.444100
C511	C51	0.808100	0.671000	0.558700
H771	H77	0.816700	0.716500	0.577900
C521	C52	0.750300	0.566100	0.533850
H781	H78	0.711100	0.521600	0.530200
N401	N40	0.830800	0.083320	0.004770
N411	N41	0.868600	0.151100	0.019700
N421	N42	0.733100	0.120920	0.068900
C531	C53	0.956700	0.982000	0.985200
H791	H79	0.921700	0.946300	0.008800
H801	H80	0.984800	0.952200	0.955900
C541	C54	0.879000	0.037800	0.963250
H811	H81	0.912600	0.072100	0.938100
H821	H82	0.826400	0.009300	0.944100
C551	C55	0.808100	0.171000	0.058700
H831	H83	0.816700	0.216500	0.077900
C561	C56	0.750300	0.066100	0.033850
H841	H84	0.711100	0.021600	0.030200
N431	N43	0.330800	0.583320	0.004770
N441	N44	0.368600	0.651100	0.019700
N451	N45	0.233100	0.620920	0.068900
C571	C57	0.456700	0.482000	0.985200
H851	H85	0.421700	0.446300	0.008800
H861	H86	0.484800	0.452200	0.955900
C581	C58	0.379000	0.537800	0.963250
H871	H87	0.412600	0.572100	0.938100
H881	H88	0.326400	0.509300	0.944100
C591	C59	0.308100	0.671000	0.058700
H891	H89	0.316700	0.716500	0.077900
C601	C60	0.250300	0.566100	0.033850
H901	H90	0.211100	0.521600	0.030200
N461	N46	0.330800	0.083320	0.504770
N471	N47	0.368600	0.151100	0.519700
N481	N48	0.233100	0.120920	0.568900
C611	C61	0.456700	0.982000	0.485200
H911	H91	0.421700	0.946300	0.508800
H921	H92	0.484800	0.952200	0.455900
C621	C62	0.379000	0.037800	0.463250
H931	H93	0.412600	0.072100	0.438100
H941	H94	0.326400	0.009300	0.444100
C631	C63	0.308100	0.171000	0.558700
H951	H95	0.316700	0.216500	0.577900
C641	C64	0.250300	0.066100	0.533850
H961	H96	0.211100	0.021600	0.530200
N491	N49	0.169200	0.833320	0.754770
N501	N50	0.131400	0.901100	0.769700
N511	N51	0.266900	0.870920	0.818900
C651	C65	0.043300	0.732000	0.735200
H971	H97	0.078300	0.696300	0.758800
H981	H98	0.015200	0.702200	0.705900
C661	C66	0.121000	0.787800	0.713250
H991	H99	0.087400	0.822100	0.688100
H1001	H100	0.173600	0.759300	0.694100
C671	C67	0.191900	0.921000	0.808700
H1011	H101	0.183300	0.966500	0.827900
C681	C68	0.249700	0.816100	0.783850
H1021	H102	0.288900	0.771600	0.780200
N521	N52	0.169200	0.333320	0.254770
N531	N53	0.131400	0.401100	0.269700
N541	N54	0.266900	0.370920	0.318900
C691	C69	0.043300	0.232000	0.235200
H1031	H103	0.078300	0.196300	0.258800
H1041	H104	0.015200	0.202200	0.205900
C701	C70	0.121000	0.287800	0.213250
H1051	H105	0.087400	0.322100	0.188100
H1061	H106	0.173600	0.259300	0.194100
C711	C71	0.191900	0.421000	0.308700
H1071	H107	0.183300	0.466500	0.327900
C721	C72	0.249700	0.316100	0.283850
H1081	H108	0.288900	0.271600	0.280200
N551	N55	0.669200	0.833320	0.254770
N561	N56	0.631400	0.901100	0.269700
N571	N57	0.766900	0.870920	0.318900
C731	C73	0.543300	0.732000	0.235200
H1091	H109	0.578300	0.696300	0.258800
H1101	H110	0.515200	0.702200	0.205900
C741	C74	0.621000	0.787800	0.213250
H1111	H111	0.587400	0.822100	0.188100
H1121	H112	0.673600	0.759300	0.194100
C751	C75	0.691900	0.921000	0.308700
H1131	H113	0.683300	0.966500	0.327900
C761	C76	0.749700	0.816100	0.283850
H1141	H114	0.788900	0.771600	0.280200
N581	N58	0.669200	0.333320	0.754770
N591	N59	0.631400	0.401100	0.769700
N601	N60	0.766900	0.370920	0.818900
C771	C77	0.543300	0.232000	0.735200
H1151	H115	0.578300	0.196300	0.758800
H1161	H116	0.515200	0.202200	0.705900
C781	C78	0.621000	0.287800	0.713250
H1171	H117	0.587400	0.322100	0.688100
H1181	H118	0.673600	0.259300	0.694100
C791	C79	0.691900	0.421000	0.808700
H1191	H119	0.683300	0.466500	0.827900
C801	C80	0.749700	0.316100	0.783850
H1201	H120	0.788900	0.271600	0.780200
N611	N61	0.080800	0.416680	0.754770
N621	N62	0.118600	0.348900	0.769700
N631	N63	0.983100	0.379080	0.818900
C811	C81	0.206700	0.518000	0.735200
H1211	H121	0.171700	0.553700	0.758800
H1221	H122	0.234800	0.547800	0.705900
C821	C82	0.129000	0.462200	0.713250
H1231	H123	0.162600	0.427900	0.688100
H1241	H124	0.076400	0.490700	0.694100
C831	C83	0.058100	0.329000	0.808700
H1251	H125	0.066700	0.283500	0.827900
C841	C84	0.000300	0.433900	0.783850
H1261	H126	0.961100	0.478400	0.780200
N641	N64	0.080800	0.916680	0.254770
N651	N65	0.118600	0.848900	0.269700
N661	N66	0.983100	0.879080	0.318900
C851	C85	0.206700	0.018000	0.235200
H1271	H127	0.171700	0.053700	0.258800
H1281	H128	0.234800	0.047800	0.205900
C861	C86	0.129000	0.962200	0.213250
H1291	H129	0.162600	0.927900	0.188100
H1301	H130	0.076400	0.990700	0.194100
C871	C87	0.058100	0.829000	0.308700
H1311	H131	0.066700	0.783500	0.327900
C881	C88	0.000300	0.933900	0.283850
H1321	H132	0.961100	0.978400	0.280200
N671	N67	0.580800	0.416680	0.254770
N681	N68	0.618600	0.348900	0.269700
N691	N69	0.483100	0.379080	0.318900
C891	C89	0.706700	0.518000	0.235200
H1331	H133	0.671700	0.553700	0.258800
H1341	H134	0.734800	0.547800	0.205900
C901	C90	0.629000	0.462200	0.213250
H1351	H135	0.662600	0.427900	0.188100
H1361	H136	0.576400	0.490700	0.194100
C911	C91	0.558100	0.329000	0.308700
H1371	H137	0.566700	0.283500	0.327900
C921	C92	0.500300	0.433900	0.283850
H1381	H138	0.461100	0.478400	0.280200
N701	N70	0.580800	0.916680	0.754770
N711	N71	0.618600	0.848900	0.769700
N721	N72	0.483100	0.879080	0.818900
C931	C93	0.706700	0.018000	0.735200
H1391	H139	0.671700	0.053700	0.758800
H1401	H140	0.734800	0.047800	0.705900
C941	C94	0.629000	0.962200	0.713250
H1411	H141	0.662600	0.927900	0.688100
H1421	H142	0.576400	0.990700	0.694100
C951	C95	0.558100	0.829000	0.808700
H1431	H143	0.566700	0.783500	0.827900
C961	C96	0.500300	0.933900	0.783850
H1441	H144	0.461100	0.978400	0.780200
N731	N73	0.080800	0.833320	0.495230
N741	N74	0.118600	0.901100	0.480300
N751	N75	0.983100	0.870920	0.431100
C971	C97	0.206700	0.732000	0.514800
H1451	H145	0.171700	0.696300	0.491200
H1461	H146	0.234800	0.702200	0.544100
C981	C98	0.129000	0.787800	0.536750
H1471	H147	0.162600	0.822100	0.561900
H1481	H148	0.076400	0.759300	0.555900
C991	C99	0.058100	0.921000	0.441300
H1491	H149	0.066700	0.966500	0.422100
C1001	C100	0.000300	0.816100	0.466150
H1501	H150	0.961100	0.771600	0.469800
N761	N76	0.080800	0.333320	0.995230
N771	N77	0.118600	0.401100	0.980300
N781	N78	0.983100	0.370920	0.931100
C1011	C101	0.206700	0.232000	0.014800
H1511	H151	0.171700	0.196300	0.991200
H1521	H152	0.234800	0.202200	0.044100
C1021	C102	0.129000	0.287800	0.036750
H1531	H153	0.162600	0.322100	0.061900
H1541	H154	0.076400	0.259300	0.055900
C1031	C103	0.058100	0.421000	0.941300
H1551	H155	0.066700	0.466500	0.922100
C1041	C104	0.000300	0.316100	0.966150
H1561	H156	0.961100	0.271600	0.969800
N791	N79	0.580800	0.833320	0.995230
N801	N80	0.618600	0.901100	0.980300
N811	N81	0.483100	0.870920	0.931100
C1051	C105	0.706700	0.732000	0.014800
H1571	H157	0.671700	0.696300	0.991200
H1581	H158	0.734800	0.702200	0.044100
C1061	C106	0.629000	0.787800	0.036750
H1591	H159	0.662600	0.822100	0.061900
H1601	H160	0.576400	0.759300	0.055900
C1071	C107	0.558100	0.921000	0.941300
H1611	H161	0.566700	0.966500	0.922100
C1081	C108	0.500300	0.816100	0.966150
H1621	H162	0.461100	0.771600	0.969800
N821	N82	0.580800	0.333320	0.495230
N831	N83	0.618600	0.401100	0.480300
N841	N84	0.483100	0.370920	0.431100
C1091	C109	0.706700	0.232000	0.514800
H1631	H163	0.671700	0.196300	0.491200
H1641	H164	0.734800	0.202200	0.544100
C1101	C110	0.629000	0.287800	0.536750
H1651	H165	0.662600	0.322100	0.561900
H1661	H166	0.576400	0.259300	0.555900
C1111	C111	0.558100	0.421000	0.441300
H1671	H167	0.566700	0.466500	0.422100
C1121	C112	0.500300	0.316100	0.466150
H1681	H168	0.461100	0.271600	0.469800
N851	N85	0.169200	0.416680	0.495230
N861	N86	0.131400	0.348900	0.480300
N871	N87	0.266900	0.379080	0.431100
C1131	C113	0.043300	0.518000	0.514800
H1691	H169	0.078300	0.553700	0.491200
H1701	H170	0.015200	0.547800	0.544100
C1141	C114	0.121000	0.462200	0.536750
H1711	H171	0.087400	0.427900	0.561900
H1721	H172	0.173600	0.490700	0.555900
C1151	C115	0.191900	0.329000	0.441300
H1731	H173	0.183300	0.283500	0.422100
C1161	C116	0.249700	0.433900	0.466150
H1741	H174	0.288900	0.478400	0.469800
N881	N88	0.169200	0.916680	0.995230
N891	N89	0.131400	0.848900	0.980300
N901	N90	0.266900	0.879080	0.931100
C1171	C117	0.043300	0.018000	0.014800
H1751	H175	0.078300	0.053700	0.991200
H1761	H176	0.015200	0.047800	0.044100
C1181	C118	0.121000	0.962200	0.036750
H1771	H177	0.087400	0.927900	0.061900
H1781	H178	0.173600	0.990700	0.055900
C1191	C119	0.191900	0.829000	0.941300
H1791	H179	0.183300	0.783500	0.922100
C1201	C120	0.249700	0.933900	0.966150
H1801	H180	0.288900	0.978400	0.969800
N911	N91	0.669200	0.416680	0.995230
N921	N92	0.631400	0.348900	0.980300
N931	N93	0.766900	0.379080	0.931100
C1211	C121	0.543300	0.518000	0.014800
H1811	H181	0.578300	0.553700	0.991200
H1821	H182	0.515200	0.547800	0.044100
C1221	C122	0.621000	0.462200	0.036750
H1831	H183	0.587400	0.427900	0.061900
H1841	H184	0.673600	0.490700	0.055900
C1231	C123	0.691900	0.329000	0.941300
H1851	H185	0.683300	0.283500	0.922100
C1241	C124	0.749700	0.433900	0.966150
H1861	H186	0.788900	0.478400	0.969800
N941	N94	0.669200	0.916680	0.495230
N951	N95	0.631400	0.848900	0.480300
N961	N96	0.766900	0.879080	0.431100
C1251	C125	0.543300	0.018000	0.514800
H1871	H187	0.578300	0.053700	0.491200
H1881	H188	0.515200	0.047800	0.544100
C1261	C126	0.621000	0.962200	0.536750
H1891	H189	0.587400	0.927900	0.561900
H1901	H190	0.673600	0.990700	0.555900
C1271	C127	0.691900	0.829000	0.441300
H1911	H191	0.683300	0.783500	0.422100
C1281	C128	0.749700	0.933900	0.466150
H1921	H192	0.788900	0.978400	0.469800
Cu11	Cu1	0.625000	0.125000	0.125000
Cu21	Cu2	0.625000	0.625000	0.625000
Cu31	Cu3	0.125000	0.625000	0.125000
Cu41	Cu4	0.125000	0.125000	0.625000
Cu51	Cu5	0.375000	0.875000	0.875000
Cu61	Cu6	0.375000	0.375000	0.375000
Cu71	Cu7	0.875000	0.375000	0.875000
Cu81	Cu8	0.875000	0.875000	0.375000
