data_EBITAL_freeONLY_PM
_symmetry_space_group_name_H-M	'P1'
_cell_length_a	8.598300
_cell_length_b	13.156100
_cell_length_c	13.460000
_cell_angle_alpha	90.000000
_cell_angle_beta	92.470000
_cell_angle_gamma	90.000000
_symmetry_Int_Tables_number 1

loop_
_symmetry_equiv_pos_as_xyz
'x,y,z'

loop_
_atom_site_label
_atom_site_type_symbol
_atom_site_fract_x
_atom_site_fract_y
_atom_site_fract_z
Be11	Be1	0.578300	0.119600	0.250500
Be21	Be2	0.156200	0.995400	0.239500
Be31	Be3	0.677000	0.826200	0.404600
P11	P1	0.308530	0.136650	0.375790
H11	H1	0.297000	0.238000	0.359000
P21	P2	0.340870	0.100410	0.092610
H21	H2	0.360000	0.073000	0.990000
P31	P3	0.604240	0.341240	0.228330
H31	H3	0.532000	0.377800	0.316100
P41	P4	0.812110	0.953910	0.248830
H41	H4	0.734000	0.920000	0.168000
O11	O1	0.463100	0.097610	0.340860
O21	O2	0.501700	0.094750	0.142570
O31	O3	0.636300	0.235330	0.264710
O41	O4	0.736100	0.054490	0.270500
O51	O5	0.171100	0.090240	0.318450
O61	O6	0.225300	0.026540	0.133650
O71	O7	0.975700	0.968500	0.218880
O81	O8	0.801500	0.878570	0.332710
O91	O9	0.297400	0.119300	0.486640
O101	O10	0.274900	0.207130	0.089970
O111	O11	0.757000	0.395150	0.212160
O121	O12	0.502800	0.343410	0.133320
Be41	Be4	0.421700	0.619600	0.249500
Be51	Be5	0.843800	0.495400	0.260500
Be61	Be6	0.323000	0.326200	0.095400
P51	P5	0.691470	0.636650	0.124210
H51	H5	0.703000	0.738000	0.141000
P61	P6	0.659130	0.600410	0.407390
H61	H6	0.640000	0.573000	0.510000
P71	P7	0.395760	0.841240	0.271670
H71	H7	0.468000	0.877800	0.183900
P81	P8	0.187890	0.453910	0.251170
H81	H8	0.266000	0.420000	0.332000
O131	O13	0.536900	0.597610	0.159140
O141	O14	0.498300	0.594750	0.357430
O151	O15	0.363700	0.735330	0.235290
O161	O16	0.263900	0.554490	0.229500
O171	O17	0.828900	0.590240	0.181550
O181	O18	0.774700	0.526540	0.366350
O191	O19	0.024300	0.468500	0.281120
O201	O20	0.198500	0.378570	0.167290
O211	O21	0.702600	0.619300	0.013360
O221	O22	0.725100	0.707130	0.410030
O231	O23	0.243000	0.895150	0.287840
O241	O24	0.497200	0.843410	0.366680
Be71	Be7	0.421700	0.880400	0.749500
Be81	Be8	0.843800	0.004600	0.760500
Be91	Be9	0.323000	0.173800	0.595400
P91	P9	0.691470	0.863350	0.624210
H91	H9	0.703000	0.762000	0.641000
P101	P10	0.659130	0.899590	0.907390
H101	H10	0.640000	0.927000	0.010000
P111	P11	0.395760	0.658760	0.771670
H111	H11	0.468000	0.622200	0.683900
P121	P12	0.187890	0.046090	0.751170
H121	H12	0.266000	0.080000	0.832000
O251	O25	0.536900	0.902390	0.659140
O261	O26	0.498300	0.905250	0.857430
O271	O27	0.363700	0.764670	0.735290
O281	O28	0.263900	0.945510	0.729500
O291	O29	0.828900	0.909760	0.681550
O301	O30	0.774700	0.973460	0.866350
O311	O31	0.024300	0.031500	0.781120
O321	O32	0.198500	0.121430	0.667290
O331	O33	0.702600	0.880700	0.513360
O341	O34	0.725100	0.792870	0.910030
O351	O35	0.243000	0.604850	0.787840
O361	O36	0.497200	0.656590	0.866680
Be101	Be10	0.578300	0.380400	0.750500
Be111	Be11	0.156200	0.504600	0.739500
Be121	Be12	0.677000	0.673800	0.904600
P131	P13	0.308530	0.363350	0.875790
H131	H13	0.297000	0.262000	0.859000
P141	P14	0.340870	0.399590	0.592610
H141	H14	0.360000	0.427000	0.490000
P151	P15	0.604240	0.158760	0.728330
H151	H15	0.532000	0.122200	0.816100
P161	P16	0.812110	0.546090	0.748830
H161	H16	0.734000	0.580000	0.668000
O371	O37	0.463100	0.402390	0.840860
O381	O38	0.501700	0.405250	0.642570
O391	O39	0.636300	0.264670	0.764710
O401	O40	0.736100	0.445510	0.770500
O411	O41	0.171100	0.409760	0.818450
O421	O42	0.225300	0.473460	0.633650
O431	O43	0.975700	0.531500	0.718880
O441	O44	0.801500	0.621430	0.832710
O451	O45	0.297400	0.380700	0.986640
O461	O46	0.274900	0.292870	0.589970
O471	O47	0.757000	0.104850	0.712160
O481	O48	0.502800	0.156590	0.633320
