data_ECAFOG_freeONLY_PM
_symmetry_space_group_name_H-M	'P1'
_cell_length_a	32.249000
_cell_length_b	7.770000
_cell_length_c	30.641000
_cell_angle_alpha	90.000000
_cell_angle_beta	116.030000
_cell_angle_gamma	90.000000
_symmetry_Int_Tables_number 1

loop_
_symmetry_equiv_pos_as_xyz
'x,y,z'

loop_
_atom_site_label
_atom_site_type_symbol
_atom_site_fract_x
_atom_site_fract_y
_atom_site_fract_z
Cu11	Cu1	0.242760	0.273410	0.377070
Br11	Br1	0.262950	0.968620	0.387200
N11	N1	0.273740	0.385400	0.442990
C11	C1	0.293710	0.296500	0.484550
H11	H1	0.291890	0.174440	0.483050
C21	C2	0.316950	0.373900	0.529700
H21	H2	0.330200	0.306220	0.558400
C31	C3	0.320470	0.552200	0.532100
C41	C4	0.300670	0.644900	0.489290
H31	H3	0.303040	0.766840	0.489670
C51	C5	0.277500	0.558300	0.446170
H41	H4	0.263390	0.623650	0.417100
C61	C6	0.343950	0.651100	0.578380
O11	O1	0.362930	0.546900	0.617490
O21	O2	0.345830	0.804500	0.580550
C71	C7	0.385400	0.629200	0.662910
C81	C8	0.359270	0.704000	0.683570
H51	H5	0.326510	0.706020	0.667270
C91	C9	0.383560	0.776300	0.729590
C101	C10	0.431110	0.771700	0.754250
H61	H6	0.446930	0.820710	0.785700
C111	C11	0.454950	0.693100	0.731490
C121	C12	0.433050	0.620800	0.685640
H71	H7	0.449960	0.567980	0.670520
O31	O3	0.360050	0.869200	0.751330
C131	C13	0.332990	0.779800	0.766990
O41	O4	0.326950	0.627700	0.762440
C141	C14	0.311270	0.896800	0.789810
C151	C15	0.279440	0.825900	0.803920
H81	H8	0.271780	0.707170	0.799100
C161	C16	0.259190	0.933200	0.825210
H91	H9	0.237110	0.884830	0.834360
N21	N2	0.268910	0.101300	0.833650
C171	C17	0.299470	0.168100	0.819610
H101	H10	0.306580	0.287160	0.824980
C181	C18	0.321270	0.071200	0.797530
H111	H11	0.342610	0.123340	0.787920
O51	O5	0.502960	0.682100	0.758470
C191	C19	0.529730	0.753100	0.739370
O61	O6	0.515310	0.825300	0.701410
C201	C20	0.579770	0.730800	0.773470
C211	C21	0.594660	0.638200	0.816330
H121	H12	0.573180	0.581670	0.824920
C221	C22	0.641820	0.629900	0.846530
H131	H13	0.652090	0.564610	0.875620
N31	N3	0.673600	0.710500	0.836290
C231	C23	0.658450	0.800300	0.794640
H141	H14	0.680550	0.857840	0.787190
C241	C24	0.612230	0.813300	0.761990
H151	H15	0.602900	0.876480	0.732650
Cu21	Cu2	0.742140	0.720150	0.881700
Br21	Br2	0.762590	0.024150	0.893320
N41	N4	0.765260	0.607800	0.948040
C251	C25	0.761020	0.436900	0.951530
H161	H16	0.742200	0.374730	0.922930
C261	C26	0.782530	0.347500	0.994340
H171	H17	0.779250	0.226170	0.994930
C271	C27	0.809080	0.436600	0.036690
C281	C28	0.813300	0.613500	0.033900
H181	H18	0.831180	0.678640	0.062210
C291	C29	0.790980	0.693600	0.989040
H191	H19	0.794060	0.814700	0.987330
C301	C30	0.831440	0.335700	0.082390
O71	O7	0.860660	0.434400	0.120150
O81	O8	0.825460	0.184700	0.085430
C311	C31	0.883930	0.352900	0.165100
C321	C32	0.859340	0.278900	0.187880
H201	H20	0.826560	0.277240	0.173040
C331	C33	0.885220	0.207200	0.233630
C341	C34	0.932990	0.210900	0.256600
H211	H21	0.949830	0.162560	0.287990
C351	C35	0.955210	0.287900	0.231940
C361	C36	0.931810	0.360400	0.185930
H221	H22	0.947780	0.412240	0.169630
O91	O9	0.862760	0.117000	0.256980
C371	C37	0.840460	0.210600	0.277270
O101	O10	0.838450	0.364500	0.276040
C381	C38	0.818760	0.098000	0.301190
C391	C39	0.791540	0.177300	0.319980
H231	H23	0.787520	0.298630	0.318230
C401	C40	0.770390	0.075000	0.341360
H241	H24	0.751500	0.129690	0.353850
N51	N5	0.774930	0.904100	0.345470
C411	C41	0.800650	0.829100	0.326660
H251	H25	0.803770	0.707400	0.328610
C421	C42	0.823240	0.921200	0.304190
H261	H26	0.841310	0.863240	0.291250
O111	O11	0.003310	0.301500	0.257080
C431	C43	0.029530	0.226600	0.237700
O121	O12	0.014650	0.151000	0.200240
C441	C44	0.079720	0.251000	0.271300
C451	C45	0.112060	0.172800	0.259110
H271	H27	0.102610	0.110650	0.229590
C461	C46	0.158490	0.187900	0.291190
H281	H28	0.180590	0.133010	0.283210
N61	N6	0.173640	0.277000	0.333130
C471	C47	0.141810	0.353200	0.344010
H291	H29	0.152090	0.417790	0.373220
C481	C48	0.094720	0.341800	0.314540
H301	H30	0.073240	0.394950	0.323770
Cu31	Cu3	0.242760	0.226590	0.877070
Br31	Br3	0.262950	0.531380	0.887200
N71	N7	0.273740	0.114600	0.942990
C491	C49	0.293710	0.203500	0.984550
H311	H31	0.291890	0.325560	0.983050
C501	C50	0.316950	0.126100	0.029700
H321	H32	0.330200	0.193780	0.058400
C511	C51	0.320470	0.947800	0.032100
C521	C52	0.300670	0.855100	0.989290
H331	H33	0.303040	0.733160	0.989670
C531	C53	0.277500	0.941700	0.946170
H341	H34	0.263390	0.876350	0.917100
C541	C54	0.343950	0.848900	0.078380
O131	O13	0.362930	0.953100	0.117490
O141	O14	0.345830	0.695500	0.080550
C551	C55	0.385400	0.870800	0.162910
C561	C56	0.359270	0.796000	0.183570
H351	H35	0.326510	0.793980	0.167270
C571	C57	0.383560	0.723700	0.229590
C581	C58	0.431110	0.728300	0.254250
H361	H36	0.446930	0.679290	0.285700
C591	C59	0.454950	0.806900	0.231490
C601	C60	0.433050	0.879200	0.185640
H371	H37	0.449960	0.932020	0.170520
O151	O15	0.360050	0.630800	0.251330
C611	C61	0.332990	0.720200	0.266990
O161	O16	0.326950	0.872300	0.262440
C621	C62	0.311270	0.603200	0.289810
C631	C63	0.279440	0.674100	0.303920
H381	H38	0.271780	0.792830	0.299100
C641	C64	0.259190	0.566800	0.325210
H391	H39	0.237110	0.615170	0.334360
N81	N8	0.268910	0.398700	0.333650
C651	C65	0.299470	0.331900	0.319610
H401	H40	0.306580	0.212840	0.324980
C661	C66	0.321270	0.428800	0.297530
H411	H41	0.342610	0.376660	0.287920
O171	O17	0.502960	0.817900	0.258470
C671	C67	0.529730	0.746900	0.239370
O181	O18	0.515310	0.674700	0.201410
C681	C68	0.579770	0.769200	0.273470
C691	C69	0.594660	0.861800	0.316330
H421	H42	0.573180	0.918330	0.324920
C701	C70	0.641820	0.870100	0.346530
H431	H43	0.652090	0.935390	0.375620
N91	N9	0.673600	0.789500	0.336290
C711	C71	0.658450	0.699700	0.294640
H441	H44	0.680550	0.642160	0.287190
C721	C72	0.612230	0.686700	0.261990
H451	H45	0.602900	0.623520	0.232650
Cu41	Cu4	0.742140	0.779850	0.381700
Br41	Br4	0.762590	0.475850	0.393320
N101	N10	0.765260	0.892200	0.448040
C731	C73	0.761020	0.063100	0.451530
H461	H46	0.742200	0.125270	0.422930
C741	C74	0.782530	0.152500	0.494340
H471	H47	0.779250	0.273830	0.494930
C751	C75	0.809080	0.063400	0.536690
C761	C76	0.813300	0.886500	0.533900
H481	H48	0.831180	0.821360	0.562210
C771	C77	0.790980	0.806400	0.489040
H491	H49	0.794060	0.685300	0.487330
C781	C78	0.831440	0.164300	0.582390
O191	O19	0.860660	0.065600	0.620150
O201	O20	0.825460	0.315300	0.585430
C791	C79	0.883930	0.147100	0.665100
C801	C80	0.859340	0.221100	0.687880
H501	H50	0.826560	0.222760	0.673040
C811	C81	0.885220	0.292800	0.733630
C821	C82	0.932990	0.289100	0.756600
H511	H51	0.949830	0.337440	0.787990
C831	C83	0.955210	0.212100	0.731940
C841	C84	0.931810	0.139600	0.685930
H521	H52	0.947780	0.087760	0.669630
O211	O21	0.862760	0.383000	0.756980
C851	C85	0.840460	0.289400	0.777270
O221	O22	0.838450	0.135500	0.776040
C861	C86	0.818760	0.402000	0.801190
C871	C87	0.791540	0.322700	0.819980
H531	H53	0.787520	0.201370	0.818230
C881	C88	0.770390	0.425000	0.841360
H541	H54	0.751500	0.370310	0.853850
N111	N11	0.774930	0.595900	0.845470
C891	C89	0.800650	0.670900	0.826660
H551	H55	0.803770	0.792600	0.828610
C901	C90	0.823240	0.578800	0.804190
H561	H56	0.841310	0.636760	0.791250
O231	O23	0.003310	0.198500	0.757080
C911	C91	0.029530	0.273400	0.737700
O241	O24	0.014650	0.349000	0.700240
C921	C92	0.079720	0.249000	0.771300
C931	C93	0.112060	0.327200	0.759110
H571	H57	0.102610	0.389350	0.729590
C941	C94	0.158490	0.312100	0.791190
H581	H58	0.180590	0.366990	0.783210
N121	N12	0.173640	0.223000	0.833130
C951	C95	0.141810	0.146800	0.844010
H591	H59	0.152090	0.082210	0.873220
C961	C96	0.094720	0.158200	0.814540
H601	H60	0.073240	0.105050	0.823770
Cu51	Cu5	0.757240	0.773410	0.122930
Br51	Br5	0.737050	0.468620	0.112800
N131	N13	0.726260	0.885400	0.057010
C971	C97	0.706290	0.796500	0.015450
H611	H61	0.708110	0.674440	0.016950
C981	C98	0.683050	0.873900	0.970300
H621	H62	0.669800	0.806220	0.941600
C991	C99	0.679530	0.052200	0.967900
C1001	C100	0.699330	0.144900	0.010710
H631	H63	0.696960	0.266840	0.010330
C1011	C101	0.722500	0.058300	0.053830
H641	H64	0.736610	0.123650	0.082900
C1021	C102	0.656050	0.151100	0.921620
O251	O25	0.637070	0.046900	0.882510
O261	O26	0.654170	0.304500	0.919450
C1031	C103	0.614600	0.129200	0.837090
C1041	C104	0.640730	0.204000	0.816430
H651	H65	0.673490	0.206020	0.832730
C1051	C105	0.616440	0.276300	0.770410
C1061	C106	0.568890	0.271700	0.745750
H661	H66	0.553070	0.320710	0.714300
C1071	C107	0.545050	0.193100	0.768510
C1081	C108	0.566950	0.120800	0.814360
H671	H67	0.550040	0.067980	0.829480
O271	O27	0.639950	0.369200	0.748670
C1091	C109	0.667010	0.279800	0.733010
O281	O28	0.673050	0.127700	0.737560
C1101	C110	0.688730	0.396800	0.710190
C1111	C111	0.720560	0.325900	0.696080
H681	H68	0.728220	0.207170	0.700900
C1121	C112	0.740810	0.433200	0.674790
H691	H69	0.762890	0.384830	0.665640
N141	N14	0.731090	0.601300	0.666350
C1131	C113	0.700530	0.668100	0.680390
H701	H70	0.693420	0.787160	0.675020
C1141	C114	0.678730	0.571200	0.702470
H711	H71	0.657390	0.623340	0.712080
O291	O29	0.497040	0.182100	0.741530
C1151	C115	0.470270	0.253100	0.760630
O301	O30	0.484690	0.325300	0.798590
C1161	C116	0.420230	0.230800	0.726530
C1171	C117	0.405340	0.138200	0.683670
H721	H72	0.426820	0.081670	0.675080
C1181	C118	0.358180	0.129900	0.653470
H731	H73	0.347910	0.064610	0.624380
N151	N15	0.326400	0.210500	0.663710
C1191	C119	0.341550	0.300300	0.705360
H741	H74	0.319450	0.357840	0.712810
C1201	C120	0.387770	0.313300	0.738010
H751	H75	0.397100	0.376480	0.767350
Cu61	Cu6	0.257860	0.220150	0.618300
Br61	Br6	0.237410	0.524150	0.606680
N161	N16	0.234740	0.107800	0.551960
C1211	C121	0.238980	0.936900	0.548470
H761	H76	0.257800	0.874730	0.577070
C1221	C122	0.217470	0.847500	0.505660
H771	H77	0.220750	0.726170	0.505070
C1231	C123	0.190920	0.936600	0.463310
C1241	C124	0.186700	0.113500	0.466100
H781	H78	0.168820	0.178640	0.437790
C1251	C125	0.209020	0.193600	0.510960
H791	H79	0.205940	0.314700	0.512670
C1261	C126	0.168560	0.835700	0.417610
O311	O31	0.139340	0.934400	0.379850
O321	O32	0.174540	0.684700	0.414570
C1271	C127	0.116070	0.852900	0.334900
C1281	C128	0.140660	0.778900	0.312120
H801	H80	0.173440	0.777240	0.326960
C1291	C129	0.114780	0.707200	0.266370
C1301	C130	0.067010	0.710900	0.243400
H811	H81	0.050170	0.662560	0.212010
C1311	C131	0.044790	0.787900	0.268060
C1321	C132	0.068190	0.860400	0.314070
H821	H82	0.052220	0.912240	0.330370
O331	O33	0.137240	0.617000	0.243020
C1331	C133	0.159540	0.710600	0.222730
O341	O34	0.161550	0.864500	0.223960
C1341	C134	0.181240	0.598000	0.198810
C1351	C135	0.208460	0.677300	0.180020
H831	H83	0.212480	0.798630	0.181770
C1361	C136	0.229610	0.575000	0.158640
H841	H84	0.248500	0.629690	0.146150
N171	N17	0.225070	0.404100	0.154530
C1371	C137	0.199350	0.329100	0.173340
H851	H85	0.196230	0.207400	0.171390
C1381	C138	0.176760	0.421200	0.195810
H861	H86	0.158690	0.363240	0.208750
O351	O35	0.996690	0.801500	0.242920
C1391	C139	0.970470	0.726600	0.262300
O361	O36	0.985350	0.651000	0.299760
C1401	C140	0.920280	0.751000	0.228700
C1411	C141	0.887940	0.672800	0.240890
H871	H87	0.897390	0.610650	0.270410
C1421	C142	0.841510	0.687900	0.208810
H881	H88	0.819410	0.633010	0.216790
N181	N18	0.826360	0.777000	0.166870
C1431	C143	0.858190	0.853200	0.155990
H891	H89	0.847910	0.917790	0.126780
C1441	C144	0.905280	0.841800	0.185460
H901	H90	0.926760	0.894950	0.176230
Cu71	Cu7	0.757240	0.726590	0.622930
Br71	Br7	0.737050	0.031380	0.612800
N191	N19	0.726260	0.614600	0.557010
C1451	C145	0.706290	0.703500	0.515450
H911	H91	0.708110	0.825560	0.516950
C1461	C146	0.683050	0.626100	0.470300
H921	H92	0.669800	0.693780	0.441600
C1471	C147	0.679530	0.447800	0.467900
C1481	C148	0.699330	0.355100	0.510710
H931	H93	0.696960	0.233160	0.510330
C1491	C149	0.722500	0.441700	0.553830
H941	H94	0.736610	0.376350	0.582900
C1501	C150	0.656050	0.348900	0.421620
O371	O37	0.637070	0.453100	0.382510
O381	O38	0.654170	0.195500	0.419450
C1511	C151	0.614600	0.370800	0.337090
C1521	C152	0.640730	0.296000	0.316430
H951	H95	0.673490	0.293980	0.332730
C1531	C153	0.616440	0.223700	0.270410
C1541	C154	0.568890	0.228300	0.245750
H961	H96	0.553070	0.179290	0.214300
C1551	C155	0.545050	0.306900	0.268510
C1561	C156	0.566950	0.379200	0.314360
H971	H97	0.550040	0.432020	0.329480
O391	O39	0.639950	0.130800	0.248670
C1571	C157	0.667010	0.220200	0.233010
O401	O40	0.673050	0.372300	0.237560
C1581	C158	0.688730	0.103200	0.210190
C1591	C159	0.720560	0.174100	0.196080
H981	H98	0.728220	0.292830	0.200900
C1601	C160	0.740810	0.066800	0.174790
H991	H99	0.762890	0.115170	0.165640
N201	N20	0.731090	0.898700	0.166350
C1611	C161	0.700530	0.831900	0.180390
H1001	H100	0.693420	0.712840	0.175020
C1621	C162	0.678730	0.928800	0.202470
H1011	H101	0.657390	0.876660	0.212080
O411	O41	0.497040	0.317900	0.241530
C1631	C163	0.470270	0.246900	0.260630
O421	O42	0.484690	0.174700	0.298590
C1641	C164	0.420230	0.269200	0.226530
C1651	C165	0.405340	0.361800	0.183670
H1021	H102	0.426820	0.418330	0.175080
C1661	C166	0.358180	0.370100	0.153470
H1031	H103	0.347910	0.435390	0.124380
N211	N21	0.326400	0.289500	0.163710
C1671	C167	0.341550	0.199700	0.205360
H1041	H104	0.319450	0.142160	0.212810
C1681	C168	0.387770	0.186700	0.238010
H1051	H105	0.397100	0.123520	0.267350
Cu81	Cu8	0.257860	0.279850	0.118300
Br81	Br8	0.237410	0.975850	0.106680
N221	N22	0.234740	0.392200	0.051960
C1691	C169	0.238980	0.563100	0.048470
H1061	H106	0.257800	0.625270	0.077070
C1701	C170	0.217470	0.652500	0.005660
H1071	H107	0.220750	0.773830	0.005070
C1711	C171	0.190920	0.563400	0.963310
C1721	C172	0.186700	0.386500	0.966100
H1081	H108	0.168820	0.321360	0.937790
C1731	C173	0.209020	0.306400	0.010960
H1091	H109	0.205940	0.185300	0.012670
C1741	C174	0.168560	0.664300	0.917610
O431	O43	0.139340	0.565600	0.879850
O441	O44	0.174540	0.815300	0.914570
C1751	C175	0.116070	0.647100	0.834900
C1761	C176	0.140660	0.721100	0.812120
H1101	H110	0.173440	0.722760	0.826960
C1771	C177	0.114780	0.792800	0.766370
C1781	C178	0.067010	0.789100	0.743400
H1111	H111	0.050170	0.837440	0.712010
C1791	C179	0.044790	0.712100	0.768060
C1801	C180	0.068190	0.639600	0.814070
H1121	H112	0.052220	0.587760	0.830370
O451	O45	0.137240	0.883000	0.743020
C1811	C181	0.159540	0.789400	0.722730
O461	O46	0.161550	0.635500	0.723960
C1821	C182	0.181240	0.902000	0.698810
C1831	C183	0.208460	0.822700	0.680020
H1131	H113	0.212480	0.701370	0.681770
C1841	C184	0.229610	0.925000	0.658640
H1141	H114	0.248500	0.870310	0.646150
N231	N23	0.225070	0.095900	0.654530
C1851	C185	0.199350	0.170900	0.673340
H1151	H115	0.196230	0.292600	0.671390
C1861	C186	0.176760	0.078800	0.695810
H1161	H116	0.158690	0.136760	0.708750
O471	O47	0.996690	0.698500	0.742920
C1871	C187	0.970470	0.773400	0.762300
O481	O48	0.985350	0.849000	0.799760
C1881	C188	0.920280	0.749000	0.728700
C1891	C189	0.887940	0.827200	0.740890
H1171	H117	0.897390	0.889350	0.770410
C1901	C190	0.841510	0.812100	0.708810
H1181	H118	0.819410	0.866990	0.716790
N241	N24	0.826360	0.723000	0.666870
C1911	C191	0.858190	0.646800	0.655990
H1191	H119	0.847910	0.582210	0.626780
C1921	C192	0.905280	0.658200	0.685460
H1201	H120	0.926760	0.605050	0.676230
