data_ECAHEX_freeONLY_PM
_symmetry_space_group_name_H-M	'P1'
_cell_length_a	7.755380
_cell_length_b	15.640800
_cell_length_c	15.640800
_cell_angle_alpha	62.675900
_cell_angle_beta	80.486400
_cell_angle_gamma	99.513600
_symmetry_Int_Tables_number 1

loop_
_symmetry_equiv_pos_as_xyz
'x,y,z'

loop_
_atom_site_label
_atom_site_type_symbol
_atom_site_fract_x
_atom_site_fract_y
_atom_site_fract_z
Cu11	Cu1	0.500000	0.000000	0.500000
H11	H1	0.810400	0.942400	0.729800
H21	H2	0.640300	0.887400	0.823300
H31	H3	0.695100	0.004200	0.757100
H41	H4	0.404000	0.802900	0.802400
H51	H5	0.193900	0.669800	0.873900
H61	H6	0.954700	0.815900	0.664500
H71	H7	0.684800	0.701200	0.767900
H81	H8	0.916800	0.560700	0.969700
H91	H9	0.189600	0.057600	0.270200
H101	H10	0.359700	0.112600	0.176700
H111	H11	0.304900	0.995800	0.242900
H121	H12	0.596000	0.197100	0.197600
H131	H13	0.806100	0.330200	0.126100
H141	H14	0.045300	0.184100	0.335500
H151	H15	0.315200	0.298800	0.232100
H161	H16	0.083200	0.439300	0.030300
C11	C1	0.690100	0.942900	0.756400
C21	C2	0.572120	0.934320	0.692260
C31	C3	0.417410	0.852580	0.737150
C41	C4	0.282580	0.839200	0.692960
C51	C5	0.108290	0.759100	0.757730
C61	C6	0.092110	0.679180	0.850250
C71	C7	0.950850	0.764830	0.727280
C81	C8	0.788740	0.695140	0.789920
C91	C9	0.924420	0.613680	0.907120
C101	C10	0.309900	0.057100	0.243600
C111	C11	0.427880	0.065680	0.307740
C121	C12	0.582590	0.147420	0.262850
C131	C13	0.717420	0.160800	0.307040
C141	C14	0.891710	0.240900	0.242270
C151	C15	0.907890	0.320820	0.149750
C161	C16	0.049150	0.235170	0.272720
C171	C17	0.211260	0.304860	0.210080
C181	C18	0.075580	0.386320	0.092880
N11	N1	0.772070	0.620090	0.879780
N21	N2	0.227930	0.379910	0.120220
O11	O1	0.288310	0.891880	0.601550
O21	O2	0.620320	0.002460	0.602000
O31	O3	0.711690	0.108120	0.398450
O41	O4	0.379680	0.997540	0.398000
Cu21	Cu2	0.000000	0.500000	0.500000
H171	H17	0.540200	0.729800	0.327800
H181	H18	0.463600	0.823300	0.289300
H191	H19	0.452200	0.757100	0.238700
H201	H20	0.206400	0.802400	0.394700
H211	H21	0.067800	0.873900	0.456300
H221	H22	0.619200	0.664500	0.519600
H231	H23	0.452700	0.767900	0.530900
H241	H24	0.886500	0.969700	0.469600
H251	H25	0.459800	0.270200	0.672200
H261	H26	0.536400	0.176700	0.710700
H271	H27	0.547800	0.242900	0.761300
H281	H28	0.793600	0.197600	0.605300
H291	H29	0.932200	0.126100	0.543700
H301	H30	0.380800	0.335500	0.480400
H311	H31	0.547300	0.232100	0.469100
H321	H32	0.113500	0.030300	0.530400
C191	C19	0.446500	0.756400	0.300700
C201	C20	0.264380	0.692260	0.373420
C211	C21	0.154560	0.737150	0.410270
C221	C22	0.975540	0.692960	0.467840
C231	C23	0.866020	0.757730	0.483170
C241	C24	0.942360	0.850250	0.470570
C251	C25	0.678130	0.727280	0.507890
C261	C26	0.578660	0.789920	0.514940
C271	C27	0.831540	0.907120	0.479200
C281	C28	0.553500	0.243600	0.699300
C291	C29	0.735620	0.307740	0.626580
C301	C30	0.845440	0.262850	0.589730
C311	C31	0.024460	0.307040	0.532160
C321	C32	0.133980	0.242270	0.516830
C331	C33	0.057640	0.149750	0.529430
C341	C34	0.321870	0.272720	0.492110
C351	C35	0.421340	0.210080	0.485060
C361	C36	0.168460	0.092880	0.520800
N31	N3	0.651850	0.879780	0.500130
N41	N4	0.348150	0.120220	0.499870
O51	O5	0.889860	0.601550	0.506570
O61	O6	0.222320	0.602000	0.395540
O71	O7	0.110140	0.398450	0.493430
O81	O8	0.777680	0.398000	0.604460
Cu31	Cu3	0.500000	0.500000	0.000000
H331	H33	0.868000	0.327800	0.942400
H341	H34	0.752900	0.289300	0.887400
H351	H35	0.690900	0.238700	0.004200
H361	H36	0.601100	0.394700	0.802900
H371	H37	0.524100	0.456300	0.669800
H381	H38	0.138800	0.519600	0.815900
H391	H39	0.983600	0.530900	0.701200
H401	H40	0.356100	0.469600	0.560700
H411	H41	0.132000	0.672200	0.057600
H421	H42	0.247100	0.710700	0.112600
H431	H43	0.309100	0.761300	0.995800
H441	H44	0.398900	0.605300	0.197100
H451	H45	0.475900	0.543700	0.330200
H461	H46	0.861200	0.480400	0.184100
H471	H47	0.016400	0.469100	0.298800
H481	H48	0.643900	0.530400	0.439300
C371	C37	0.747200	0.300700	0.942900
C381	C38	0.637800	0.373420	0.934320
C391	C39	0.564830	0.410270	0.852580
C401	C40	0.443380	0.467840	0.839200
C411	C41	0.349190	0.483170	0.759100
C421	C42	0.412930	0.470570	0.679180
C431	C43	0.186020	0.507890	0.764830
C441	C44	0.093600	0.514940	0.695140
C451	C45	0.310740	0.479200	0.613680
C461	C46	0.252800	0.699300	0.057100
C471	C47	0.362200	0.626580	0.065680
C481	C48	0.435170	0.589730	0.147420
C491	C49	0.556620	0.532160	0.160800
C501	C50	0.650810	0.516830	0.240900
C511	C51	0.587070	0.529430	0.320820
C521	C52	0.813980	0.492110	0.235170
C531	C53	0.906400	0.485060	0.304860
C541	C54	0.689260	0.520800	0.386320
N51	N5	0.151980	0.500130	0.620090
N61	N6	0.848020	0.499870	0.379910
O91	O9	0.396430	0.506570	0.891880
O101	O10	0.617860	0.395540	0.002460
O111	O11	0.603570	0.493430	0.108120
O121	O12	0.382140	0.604460	0.997540
