data_ECEZAO01_freeONLY_PM
_symmetry_space_group_name_H-M	'P1'
_cell_length_a	6.372200
_cell_length_b	9.999180
_cell_length_c	11.223400
_cell_angle_alpha	116.453000
_cell_angle_beta	96.340900
_cell_angle_gamma	90.000000
_symmetry_Int_Tables_number 1

loop_
_symmetry_equiv_pos_as_xyz
'x,y,z'

loop_
_atom_site_label
_atom_site_type_symbol
_atom_site_fract_x
_atom_site_fract_y
_atom_site_fract_z
Ni11	Ni1	0.500000	0.848820	0.000000
Ni21	Ni2	0.500000	0.151180	0.000000
Ni31	Ni3	0.000000	0.000000	0.000000
H11	H1	0.076600	0.520300	0.658600
H21	H2	0.787800	0.556500	0.658000
H31	H3	0.796700	0.670400	0.598600
H41	H4	0.286400	0.625700	0.532400
H51	H5	0.335400	0.506000	0.583800
H61	H6	0.923400	0.861700	0.341400
H71	H7	0.212200	0.898500	0.342000
H81	H8	0.203300	0.071800	0.401400
H91	H9	0.713600	0.093300	0.467600
H101	H10	0.664600	0.922200	0.416200
H111	H11	0.923400	0.479700	0.341400
H121	H12	0.212200	0.443500	0.342000
H131	H13	0.203300	0.329600	0.401400
H141	H14	0.713600	0.374300	0.467600
H151	H15	0.664600	0.494000	0.416200
H161	H16	0.076600	0.138300	0.658600
H171	H17	0.787800	0.101500	0.658000
H181	H18	0.796700	0.928200	0.598600
H191	H19	0.286400	0.906700	0.532400
H201	H20	0.335400	0.077800	0.583800
C11	C1	0.070300	0.604170	0.635740
C21	C2	0.851900	0.577840	0.593480
C31	C3	0.223800	0.544010	0.543220
C41	C4	0.149700	0.716220	0.777240
C51	C5	0.929700	0.968430	0.364260
C61	C6	0.148100	0.984360	0.406520
C71	C7	0.776200	0.000790	0.456780
C81	C8	0.850300	0.938980	0.222760
C91	C9	0.929700	0.395830	0.364260
C101	C10	0.148100	0.422160	0.406520
C111	C11	0.776200	0.455990	0.456780
C121	C12	0.850300	0.283780	0.222760
C131	C13	0.070300	0.031570	0.635740
C141	C14	0.851900	0.015640	0.593480
C151	C15	0.223800	0.999210	0.543220
C161	C16	0.149700	0.061020	0.777240
O11	O1	0.345100	0.739590	0.809780
O21	O2	0.011200	0.779860	0.854920
O31	O3	0.699800	0.664940	0.932480
O41	O4	0.654900	0.929810	0.190220
O51	O5	0.988800	0.924940	0.145080
O61	O6	0.300200	0.732460	0.067520
O71	O7	0.654900	0.260410	0.190220
O81	O8	0.988800	0.220140	0.145080
O91	O9	0.300200	0.335060	0.067520
O101	O10	0.345100	0.070190	0.809780
O111	O11	0.011200	0.075060	0.854920
O121	O12	0.699800	0.267540	0.932480
O131	O13	0.683000	0.971010	0.942020
O141	O14	0.317000	0.028990	0.057980
