data_ECIYEU01_freeONLY_PM
_symmetry_space_group_name_H-M	'P1'
_cell_length_a	13.579200
_cell_length_b	10.351100
_cell_length_c	17.465500
_cell_angle_alpha	90.000000
_cell_angle_beta	90.000000
_cell_angle_gamma	90.000000
_symmetry_Int_Tables_number 1

loop_
_symmetry_equiv_pos_as_xyz
'x,y,z'

loop_
_atom_site_label
_atom_site_type_symbol
_atom_site_fract_x
_atom_site_fract_y
_atom_site_fract_z
Al11	Al1	0.560950	0.125500	0.606900
Al21	Al2	0.484050	0.173300	0.800270
Al31	Al3	0.238530	0.367100	0.694860
P11	P1	0.566980	0.132960	0.422900
P21	P2	0.466680	0.373220	0.669330
P31	P3	0.753000	0.126370	0.706480
O11	O1	0.658800	0.088800	0.377700
O21	O2	0.531200	0.260200	0.388800
O31	O3	0.597100	0.153200	0.506100
O41	O4	0.487000	0.030000	0.417100
O51	O5	0.519100	0.289800	0.609100
O61	O6	0.494400	0.334300	0.751100
O71	O7	0.356000	0.355600	0.656100
O81	O8	0.495600	0.512900	0.655000
O91	O9	0.853100	0.179600	0.685100
O101	O10	0.762200	0.987000	0.735500
O111	O11	0.688800	0.123500	0.634600
O121	O12	0.706100	0.213700	0.768600
O131	O13	0.509800	0.098400	0.706600
Al41	Al4	0.939050	0.874500	0.106900
Al51	Al5	0.015950	0.826700	0.300270
Al61	Al6	0.261470	0.632900	0.194860
P41	P4	0.933020	0.867040	0.922900
P51	P5	0.033320	0.626780	0.169330
P61	P6	0.747000	0.873630	0.206480
O141	O14	0.841200	0.911200	0.877700
O151	O15	0.968800	0.739800	0.888800
O161	O16	0.902900	0.846800	0.006100
O171	O17	0.013000	0.970000	0.917100
O181	O18	0.980900	0.710200	0.109100
O191	O19	0.005600	0.665700	0.251100
O201	O20	0.144000	0.644400	0.156100
O211	O21	0.004400	0.487100	0.155000
O221	O22	0.646900	0.820400	0.185100
O231	O23	0.737800	0.013000	0.235500
O241	O24	0.811200	0.876500	0.134600
O251	O25	0.793900	0.786300	0.268600
O261	O26	0.990200	0.901600	0.206600
Al71	Al7	0.439050	0.625500	0.893100
Al81	Al8	0.515950	0.673300	0.699730
Al91	Al9	0.761470	0.867100	0.805140
P71	P7	0.433020	0.632960	0.077100
P81	P8	0.533320	0.873220	0.830670
P91	P9	0.247000	0.626370	0.793520
O271	O27	0.341200	0.588800	0.122300
O281	O28	0.468800	0.760200	0.111200
O291	O29	0.402900	0.653200	0.993900
O301	O30	0.513000	0.530000	0.082900
O311	O31	0.480900	0.789800	0.890900
O321	O32	0.505600	0.834300	0.748900
O331	O33	0.644000	0.855600	0.843900
O341	O34	0.504400	0.012900	0.845000
O351	O35	0.146900	0.679600	0.814900
O361	O36	0.237800	0.487000	0.764500
O371	O37	0.311200	0.623500	0.865400
O381	O38	0.293900	0.713700	0.731400
O391	O39	0.490200	0.598400	0.793400
Al101	Al10	0.060950	0.374500	0.393100
Al111	Al11	0.984050	0.326700	0.199730
Al121	Al12	0.738530	0.132900	0.305140
P101	P10	0.066980	0.367040	0.577100
P111	P11	0.966680	0.126780	0.330670
P121	P12	0.253000	0.373630	0.293520
O401	O40	0.158800	0.411200	0.622300
O411	O41	0.031200	0.239800	0.611200
O421	O42	0.097100	0.346800	0.493900
O431	O43	0.987000	0.470000	0.582900
O441	O44	0.019100	0.210200	0.390900
O451	O45	0.994400	0.165700	0.248900
O461	O46	0.856000	0.144400	0.343900
O471	O47	0.995600	0.987100	0.345000
O481	O48	0.353100	0.320400	0.314900
O491	O49	0.262200	0.513000	0.264500
O501	O50	0.188800	0.376500	0.365400
O511	O51	0.206100	0.286300	0.231400
O521	O52	0.009800	0.401600	0.293400
Al131	Al13	0.439050	0.874500	0.393100
Al141	Al14	0.515950	0.826700	0.199730
Al151	Al15	0.761470	0.632900	0.305140
P131	P13	0.433020	0.867040	0.577100
P141	P14	0.533320	0.626780	0.330670
P151	P15	0.247000	0.873630	0.293520
O531	O53	0.341200	0.911200	0.622300
O541	O54	0.468800	0.739800	0.611200
O551	O55	0.402900	0.846800	0.493900
O561	O56	0.513000	0.970000	0.582900
O571	O57	0.480900	0.710200	0.390900
O581	O58	0.505600	0.665700	0.248900
O591	O59	0.644000	0.644400	0.343900
O601	O60	0.504400	0.487100	0.345000
O611	O61	0.146900	0.820400	0.314900
O621	O62	0.237800	0.013000	0.264500
O631	O63	0.311200	0.876500	0.365400
O641	O64	0.293900	0.786300	0.231400
O651	O65	0.490200	0.901600	0.293400
Al161	Al16	0.060950	0.125500	0.893100
Al171	Al17	0.984050	0.173300	0.699730
Al181	Al18	0.738530	0.367100	0.805140
P161	P16	0.066980	0.132960	0.077100
P171	P17	0.966680	0.373220	0.830670
P181	P18	0.253000	0.126370	0.793520
O661	O66	0.158800	0.088800	0.122300
O671	O67	0.031200	0.260200	0.111200
O681	O68	0.097100	0.153200	0.993900
O691	O69	0.987000	0.030000	0.082900
O701	O70	0.019100	0.289800	0.890900
O711	O71	0.994400	0.334300	0.748900
O721	O72	0.856000	0.355600	0.843900
O731	O73	0.995600	0.512900	0.845000
O741	O74	0.353100	0.179600	0.814900
O751	O75	0.262200	0.987000	0.764500
O761	O76	0.188800	0.123500	0.865400
O771	O77	0.206100	0.213700	0.731400
O781	O78	0.009800	0.098400	0.793400
Al191	Al19	0.560950	0.374500	0.106900
Al201	Al20	0.484050	0.326700	0.300270
Al211	Al21	0.238530	0.132900	0.194860
P191	P19	0.566980	0.367040	0.922900
P201	P20	0.466680	0.126780	0.169330
P211	P21	0.753000	0.373630	0.206480
O791	O79	0.658800	0.411200	0.877700
O801	O80	0.531200	0.239800	0.888800
O811	O81	0.597100	0.346800	0.006100
O821	O82	0.487000	0.470000	0.917100
O831	O83	0.519100	0.210200	0.109100
O841	O84	0.494400	0.165700	0.251100
O851	O85	0.356000	0.144400	0.156100
O861	O86	0.495600	0.987100	0.155000
O871	O87	0.853100	0.320400	0.185100
O881	O88	0.762200	0.513000	0.235500
O891	O89	0.688800	0.376500	0.134600
O901	O90	0.706100	0.286300	0.268600
O911	O91	0.509800	0.401600	0.206600
Al221	Al22	0.939050	0.625500	0.606900
Al231	Al23	0.015950	0.673300	0.800270
Al241	Al24	0.261470	0.867100	0.694860
P221	P22	0.933020	0.632960	0.422900
P231	P23	0.033320	0.873220	0.669330
P241	P24	0.747000	0.626370	0.706480
O921	O92	0.841200	0.588800	0.377700
O931	O93	0.968800	0.760200	0.388800
O941	O94	0.902900	0.653200	0.506100
O951	O95	0.013000	0.530000	0.417100
O961	O96	0.980900	0.789800	0.609100
O971	O97	0.005600	0.834300	0.751100
O981	O98	0.144000	0.855600	0.656100
O991	O99	0.004400	0.012900	0.655000
O1001	O100	0.646900	0.679600	0.685100
O1011	O101	0.737800	0.487000	0.735500
O1021	O102	0.811200	0.623500	0.634600
O1031	O103	0.793900	0.713700	0.768600
O1041	O104	0.990200	0.598400	0.706600
