data_EDABOC_freeONLY_PM
_symmetry_space_group_name_H-M	'P1'
_cell_length_a	7.796500
_cell_length_b	9.574300
_cell_length_c	11.464000
_cell_angle_alpha	91.930000
_cell_angle_beta	105.870000
_cell_angle_gamma	103.380000
_symmetry_Int_Tables_number 1

loop_
_symmetry_equiv_pos_as_xyz
'x,y,z'

loop_
_atom_site_label
_atom_site_type_symbol
_atom_site_fract_x
_atom_site_fract_y
_atom_site_fract_z
Pr11	Pr1	0.713660	0.420100	0.482200
Pr21	Pr2	0.286340	0.579900	0.517800
H11	H1	0.949800	0.260700	0.312000
H21	H2	0.017900	0.057600	0.247900
H31	H3	0.892800	0.836600	0.307100
H41	H4	0.647800	0.042900	0.496200
H51	H5	0.267800	0.411000	0.809200
H61	H6	0.208500	0.545500	0.850200
H71	H7	0.004600	0.388600	0.939800
H81	H8	0.087100	0.262000	0.908700
H91	H9	0.307600	0.515500	0.060900
H101	H10	0.376500	0.378600	0.037700
H111	H11	0.174400	0.245800	0.139500
H121	H12	0.120000	0.388000	0.168800
H131	H13	0.050200	0.739300	0.688000
H141	H14	0.982100	0.942400	0.752100
H151	H15	0.107200	0.163400	0.692900
H161	H16	0.352200	0.957100	0.503800
H171	H17	0.732200	0.589000	0.190800
H181	H18	0.791500	0.454500	0.149800
H191	H19	0.995400	0.611400	0.060200
H201	H20	0.912900	0.738000	0.091300
H211	H21	0.692400	0.484500	0.939100
H221	H22	0.623500	0.621400	0.962300
H231	H23	0.825600	0.754200	0.860500
H241	H24	0.880000	0.612000	0.831200
C11	C1	0.900900	0.173300	0.337800
C21	C2	0.941000	0.051700	0.297900
C31	C3	0.866200	0.920300	0.332700
C41	C4	0.751600	0.914900	0.406000
C51	C5	0.722200	0.045300	0.444800
C61	C6	0.662100	0.774300	0.442900
C71	C7	0.013700	0.419700	0.706300
C81	C8	0.165700	0.442800	0.824400
C91	C9	0.114300	0.365600	0.928700
C101	C10	0.271300	0.411000	0.046600
C111	C11	0.219100	0.349900	0.156000
C121	C12	0.380500	0.386800	0.270500
C131	C13	0.099100	0.826700	0.662200
C141	C14	0.059000	0.948300	0.702100
C151	C15	0.133800	0.079700	0.667300
C161	C16	0.248400	0.085100	0.594000
C171	C17	0.277800	0.954700	0.555200
C181	C18	0.337900	0.225700	0.557100
C191	C19	0.986300	0.580300	0.293700
C201	C20	0.834300	0.557200	0.175600
C211	C21	0.885700	0.634400	0.071300
C221	C22	0.728700	0.589000	0.953400
C231	C23	0.780900	0.650100	0.844000
C241	C24	0.619500	0.613200	0.729500
N11	N1	0.795000	0.172800	0.412000
N21	N2	0.205000	0.827200	0.588000
O11	O1	0.040700	0.502700	0.623200
O21	O2	0.865000	0.327600	0.686500
O31	O3	0.368100	0.452000	0.364800
O41	O4	0.524600	0.351200	0.269500
O51	O5	0.526700	0.770500	0.483100
O61	O6	0.728900	0.668700	0.429200
O71	O7	0.959300	0.497300	0.376800
O81	O8	0.135000	0.672400	0.313500
O91	O9	0.631900	0.548000	0.635200
O101	O10	0.475400	0.648800	0.730500
O111	O11	0.473300	0.229500	0.516900
O121	O12	0.271100	0.331300	0.570800
