data_EDAFUM_freeONLY_PM
_symmetry_space_group_name_H-M	'P1'
_cell_length_a	9.960300
_cell_length_b	11.361200
_cell_length_c	14.800100
_cell_angle_alpha	91.527000
_cell_angle_beta	90.000000
_cell_angle_gamma	90.000000
_symmetry_Int_Tables_number 1

loop_
_symmetry_equiv_pos_as_xyz
'x,y,z'

loop_
_atom_site_label
_atom_site_type_symbol
_atom_site_fract_x
_atom_site_fract_y
_atom_site_fract_z
Co11	Co1	0.927150	0.743800	0.866340
Co21	Co2	0.121290	0.759430	0.694850
Co31	Co3	0.427150	0.756200	0.633660
Co41	Co4	0.621290	0.740570	0.805150
Co51	Co5	0.072850	0.256200	0.133660
Co61	Co6	0.878710	0.240570	0.305150
Co71	Co7	0.572850	0.243800	0.366340
Co81	Co8	0.378710	0.259430	0.194850
Co91	Co9	0.000000	0.500000	0.000000
Co101	Co10	0.500000	0.000000	0.500000
Co111	Co11	0.000000	0.000000	0.000000
Co121	Co12	0.500000	0.500000	0.500000
H11	H1	0.772400	0.649300	0.631300
H21	H2	0.204400	0.523000	0.778700
H31	H3	0.056300	0.020000	0.743300
H41	H4	0.624900	0.942600	0.949600
H51	H5	0.211100	0.996800	0.525600
H61	H6	0.154800	0.802700	0.071200
H71	H7	0.272400	0.850700	0.868700
H81	H8	0.704400	0.977000	0.721300
H91	H9	0.556300	0.480000	0.756700
H101	H10	0.124900	0.557400	0.550400
H111	H11	0.711100	0.503200	0.974400
H121	H12	0.654800	0.697300	0.428800
H131	H13	0.227600	0.350700	0.368700
H141	H14	0.795600	0.477000	0.221300
H151	H15	0.943700	0.980000	0.256700
H161	H16	0.375100	0.057400	0.050400
H171	H17	0.788900	0.003200	0.474400
H181	H18	0.845200	0.197300	0.928800
H191	H19	0.727600	0.149300	0.131300
H201	H20	0.295600	0.023000	0.278700
H211	H21	0.443700	0.520000	0.243300
H221	H22	0.875100	0.442600	0.449600
H231	H23	0.288900	0.496800	0.025600
H241	H24	0.345200	0.302700	0.571200
C11	C1	0.840600	0.676800	0.669300
C21	C2	0.141600	0.549700	0.821000
C31	C3	0.028700	0.980700	0.794400
C41	C4	0.715900	0.925200	0.944800
C51	C5	0.229300	0.934100	0.562800
C61	C6	0.100400	0.758000	0.032500
C71	C7	0.340600	0.823200	0.830700
C81	C8	0.641600	0.950300	0.679000
C91	C9	0.528700	0.519300	0.705600
C101	C10	0.215900	0.574800	0.555200
C111	C11	0.729300	0.565900	0.937200
C121	C12	0.600400	0.742000	0.467500
C131	C13	0.159400	0.323200	0.330700
C141	C14	0.858400	0.450300	0.179000
C151	C15	0.971300	0.019300	0.205600
C161	C16	0.284100	0.074800	0.055200
C171	C17	0.770700	0.065900	0.437200
C181	C18	0.899600	0.242000	0.967500
C191	C19	0.659400	0.176800	0.169300
C201	C20	0.358400	0.049700	0.321000
C211	C21	0.471300	0.480700	0.294400
C221	C22	0.784100	0.425200	0.444800
C231	C23	0.270700	0.434100	0.062800
C241	C24	0.399600	0.258000	0.532500
O11	O1	0.810400	0.694600	0.752090
O21	O2	0.951900	0.692600	0.634300
O31	O3	0.089400	0.649300	0.807590
O41	O4	0.118100	0.484600	0.884200
O51	O5	0.017000	0.869700	0.786180
O61	O6	0.007600	0.041400	0.862500
O71	O7	0.749400	0.844600	0.887940
O81	O8	0.793600	0.982900	0.994500
O91	O9	0.133400	0.893100	0.603470
O101	O10	0.351500	0.899800	0.565930
O111	O11	0.026700	0.814500	0.977050
O121	O12	0.105700	0.650900	0.039000
O131	O13	0.310400	0.805400	0.747910
O141	O14	0.451900	0.807400	0.865700
O151	O15	0.589400	0.850700	0.692410
O161	O16	0.618100	0.015400	0.615800
O171	O17	0.517000	0.630300	0.713820
O181	O18	0.507600	0.458600	0.637500
O191	O19	0.249400	0.655400	0.612060
O201	O20	0.293600	0.517100	0.505500
O211	O21	0.633400	0.606900	0.896530
O221	O22	0.851500	0.600200	0.934070
O231	O23	0.526700	0.685500	0.522950
O241	O24	0.605700	0.849100	0.461000
O251	O25	0.189600	0.305400	0.247910
O261	O26	0.048100	0.307400	0.365700
O271	O27	0.910600	0.350700	0.192410
O281	O28	0.881900	0.515400	0.115800
O291	O29	0.983000	0.130300	0.213820
O301	O30	0.992400	0.958600	0.137500
O311	O31	0.250600	0.155400	0.112060
O321	O32	0.206400	0.017100	0.005500
O331	O33	0.866600	0.106900	0.396530
O341	O34	0.648500	0.100200	0.434070
O351	O35	0.973300	0.185500	0.022950
O361	O36	0.894300	0.349100	0.961000
O371	O37	0.689600	0.194600	0.252090
O381	O38	0.548100	0.192600	0.134300
O391	O39	0.410600	0.149300	0.307590
O401	O40	0.381900	0.984600	0.384200
O411	O41	0.483000	0.369700	0.286180
O421	O42	0.492400	0.541400	0.362500
O431	O43	0.750600	0.344600	0.387940
O441	O44	0.706400	0.482900	0.494500
O451	O45	0.366600	0.393100	0.103470
O461	O46	0.148500	0.399800	0.065930
O471	O47	0.473300	0.314500	0.477050
O481	O48	0.394300	0.150900	0.539000
