data_EDAGEX_freeONLY_PM
_symmetry_space_group_name_H-M	'P1'
_cell_length_a	9.935000
_cell_length_b	11.323000
_cell_length_c	14.708000
_cell_angle_alpha	91.171000
_cell_angle_beta	90.000000
_cell_angle_gamma	90.000000
_symmetry_Int_Tables_number 1

loop_
_symmetry_equiv_pos_as_xyz
'x,y,z'

loop_
_atom_site_label
_atom_site_type_symbol
_atom_site_fract_x
_atom_site_fract_y
_atom_site_fract_z
Co11	Co1	0.926040	0.255650	0.633630
Co21	Co2	0.120250	0.240170	0.805860
Co31	Co3	0.426040	0.244350	0.866370
Co41	Co4	0.620250	0.259830	0.694140
Co51	Co5	0.073960	0.744350	0.366370
Co61	Co6	0.879750	0.759830	0.194140
Co71	Co7	0.573960	0.755650	0.133630
Co81	Co8	0.379750	0.740170	0.305860
Co91	Co9	0.000000	0.000000	0.500000
Co101	Co10	0.500000	0.500000	0.000000
Co111	Co11	0.000000	0.500000	0.500000
Co121	Co12	0.500000	0.000000	0.000000
H11	H1	0.772300	0.351300	0.869300
H21	H2	0.626400	0.055800	0.552600
H31	H3	0.057000	0.978200	0.757200
H41	H4	0.204600	0.475200	0.721200
H51	H5	0.212300	0.004200	0.977300
H61	H6	0.150500	0.197700	0.426900
H71	H7	0.272300	0.148700	0.630700
H81	H8	0.126400	0.444200	0.947400
H91	H9	0.557000	0.521800	0.742800
H101	H10	0.704600	0.024800	0.778800
H111	H11	0.712300	0.495800	0.522700
H121	H12	0.650500	0.302300	0.073100
H131	H13	0.227700	0.648700	0.130700
H141	H14	0.373600	0.944200	0.447400
H151	H15	0.943000	0.021800	0.242800
H161	H16	0.795400	0.524800	0.278800
H171	H17	0.787700	0.995800	0.022700
H181	H18	0.849500	0.802300	0.573100
H191	H19	0.727700	0.851300	0.369300
H201	H20	0.873600	0.555800	0.052600
H211	H21	0.443000	0.478200	0.257200
H221	H22	0.295400	0.975200	0.221200
H231	H23	0.287700	0.504200	0.477300
H241	H24	0.349500	0.697700	0.926900
C11	C1	0.840400	0.323800	0.831000
C21	C2	0.717600	0.073500	0.557000
C31	C3	0.029700	0.018700	0.706000
C41	C4	0.140500	0.449400	0.679200
C51	C5	0.230200	0.066800	0.939100
C61	C6	0.097600	0.242300	0.467000
C71	C7	0.340400	0.176200	0.669000
C81	C8	0.217600	0.426500	0.943000
C91	C9	0.529700	0.481300	0.794000
C101	C10	0.640500	0.050600	0.820800
C111	C11	0.730200	0.433200	0.560900
C121	C12	0.597600	0.257700	0.033000
C131	C13	0.159600	0.676200	0.169000
C141	C14	0.282400	0.926500	0.443000
C151	C15	0.970300	0.981300	0.294000
C161	C16	0.859500	0.550600	0.320800
C171	C17	0.769800	0.933200	0.060900
C181	C18	0.902400	0.757700	0.533000
C191	C19	0.659600	0.823800	0.331000
C201	C20	0.782400	0.573500	0.057000
C211	C21	0.470300	0.518700	0.206000
C221	C22	0.359500	0.949400	0.179200
C231	C23	0.269800	0.566800	0.439100
C241	C24	0.402400	0.742300	0.967000
O11	O1	0.951500	0.308600	0.865600
O21	O2	0.809400	0.305700	0.748100
O31	O3	0.749800	0.154300	0.612300
O41	O4	0.794600	0.014800	0.507600
O51	O5	0.016200	0.129400	0.715100
O61	O6	0.010600	0.959600	0.636700
O71	O7	0.088400	0.350000	0.693100
O81	O8	0.116100	0.515700	0.616800
O91	O9	0.133300	0.108200	0.897700
O101	O10	0.350600	0.100800	0.934700
O111	O11	0.104500	0.349500	0.460500
O121	O12	0.026200	0.185000	0.522300
O131	O13	0.451500	0.191400	0.634400
O141	O14	0.309400	0.194300	0.751900
O151	O15	0.249800	0.345700	0.887700
O161	O16	0.294600	0.485200	0.992400
O171	O17	0.516200	0.370600	0.784900
O181	O18	0.510600	0.540400	0.863300
O191	O19	0.588400	0.150000	0.806900
O201	O20	0.616100	0.984300	0.883200
O211	O21	0.633300	0.391800	0.602300
O221	O22	0.850600	0.399200	0.565300
O231	O23	0.604500	0.150500	0.039500
O241	O24	0.526200	0.315000	0.977700
O251	O25	0.048500	0.691400	0.134400
O261	O26	0.190600	0.694300	0.251900
O271	O27	0.250200	0.845700	0.387700
O281	O28	0.205400	0.985200	0.492400
O291	O29	0.983800	0.870600	0.284900
O301	O30	0.989400	0.040400	0.363300
O311	O31	0.911600	0.650000	0.306900
O321	O32	0.883900	0.484300	0.383200
O331	O33	0.866700	0.891800	0.102300
O341	O34	0.649400	0.899200	0.065300
O351	O35	0.895500	0.650500	0.539500
O361	O36	0.973800	0.815000	0.477700
O371	O37	0.548500	0.808600	0.365600
O381	O38	0.690600	0.805700	0.248100
O391	O39	0.750200	0.654300	0.112300
O401	O40	0.705400	0.514800	0.007600
O411	O41	0.483800	0.629400	0.215100
O421	O42	0.489400	0.459600	0.136700
O431	O43	0.411600	0.850000	0.193100
O441	O44	0.383900	0.015700	0.116800
O451	O45	0.366700	0.608200	0.397700
O461	O46	0.149400	0.600800	0.434700
O471	O47	0.395500	0.849500	0.960500
O481	O48	0.473800	0.685000	0.022300
