data_EDUTIG_freeONLY_PM
_symmetry_space_group_name_H-M	'P1'
_cell_length_a	25.842100
_cell_length_b	25.842100
_cell_length_c	25.842100
_cell_angle_alpha	90.000000
_cell_angle_beta	90.000000
_cell_angle_gamma	90.000000
_symmetry_Int_Tables_number 1

loop_
_symmetry_equiv_pos_as_xyz
'x,y,z'

loop_
_atom_site_label
_atom_site_type_symbol
_atom_site_fract_x
_atom_site_fract_y
_atom_site_fract_z
H11	H1	0.311800	0.144900	0.041300
H21	H2	0.311800	0.644900	0.541300
H31	H3	0.811800	0.144900	0.541300
H41	H4	0.811800	0.644900	0.041300
H51	H5	0.688200	0.855100	0.041300
H61	H6	0.688200	0.355100	0.541300
H71	H7	0.188200	0.855100	0.541300
H81	H8	0.188200	0.355100	0.041300
H91	H9	0.688200	0.144900	0.958700
H101	H10	0.688200	0.644900	0.458700
H111	H11	0.188200	0.144900	0.458700
H121	H12	0.188200	0.644900	0.958700
H131	H13	0.311800	0.855100	0.958700
H141	H14	0.311800	0.355100	0.458700
H151	H15	0.811800	0.855100	0.458700
H161	H16	0.811800	0.355100	0.958700
H171	H17	0.041300	0.311800	0.144900
H181	H18	0.041300	0.811800	0.644900
H191	H19	0.541300	0.311800	0.644900
H201	H20	0.541300	0.811800	0.144900
H211	H21	0.041300	0.688200	0.855100
H221	H22	0.041300	0.188200	0.355100
H231	H23	0.541300	0.688200	0.355100
H241	H24	0.541300	0.188200	0.855100
H251	H25	0.958700	0.688200	0.144900
H261	H26	0.958700	0.188200	0.644900
H271	H27	0.458700	0.688200	0.644900
H281	H28	0.458700	0.188200	0.144900
H291	H29	0.958700	0.311800	0.855100
H301	H30	0.958700	0.811800	0.355100
H311	H31	0.458700	0.311800	0.355100
H321	H32	0.458700	0.811800	0.855100
H331	H33	0.144900	0.041300	0.311800
H341	H34	0.144900	0.541300	0.811800
H351	H35	0.644900	0.041300	0.811800
H361	H36	0.644900	0.541300	0.311800
H371	H37	0.855100	0.041300	0.688200
H381	H38	0.855100	0.541300	0.188200
H391	H39	0.355100	0.041300	0.188200
H401	H40	0.355100	0.541300	0.688200
H411	H41	0.144900	0.958700	0.688200
H421	H42	0.144900	0.458700	0.188200
H431	H43	0.644900	0.958700	0.188200
H441	H44	0.644900	0.458700	0.688200
H451	H45	0.855100	0.958700	0.311800
H461	H46	0.855100	0.458700	0.811800
H471	H47	0.355100	0.958700	0.811800
H481	H48	0.355100	0.458700	0.311800
H491	H49	0.144900	0.311800	0.958700
H501	H50	0.144900	0.811800	0.458700
H511	H51	0.644900	0.311800	0.458700
H521	H52	0.644900	0.811800	0.958700
H531	H53	0.855100	0.688200	0.958700
H541	H54	0.855100	0.188200	0.458700
H551	H55	0.355100	0.688200	0.458700
H561	H56	0.355100	0.188200	0.958700
H571	H57	0.144900	0.688200	0.041300
H581	H58	0.144900	0.188200	0.541300
H591	H59	0.644900	0.688200	0.541300
H601	H60	0.644900	0.188200	0.041300
H611	H61	0.855100	0.311800	0.041300
H621	H62	0.855100	0.811800	0.541300
H631	H63	0.355100	0.311800	0.541300
H641	H64	0.355100	0.811800	0.041300
H651	H65	0.311800	0.041300	0.855100
H661	H66	0.311800	0.541300	0.355100
H671	H67	0.811800	0.041300	0.355100
H681	H68	0.811800	0.541300	0.855100
H691	H69	0.688200	0.041300	0.144900
H701	H70	0.688200	0.541300	0.644900
H711	H71	0.188200	0.041300	0.644900
H721	H72	0.188200	0.541300	0.144900
H731	H73	0.688200	0.958700	0.855100
H741	H74	0.688200	0.458700	0.355100
H751	H75	0.188200	0.958700	0.355100
H761	H76	0.188200	0.458700	0.855100
H771	H77	0.311800	0.958700	0.144900
H781	H78	0.311800	0.458700	0.644900
H791	H79	0.811800	0.958700	0.644900
H801	H80	0.811800	0.458700	0.144900
H811	H81	0.041300	0.144900	0.688200
H821	H82	0.041300	0.644900	0.188200
H831	H83	0.541300	0.144900	0.188200
H841	H84	0.541300	0.644900	0.688200
H851	H85	0.041300	0.855100	0.311800
H861	H86	0.041300	0.355100	0.811800
H871	H87	0.541300	0.855100	0.811800
H881	H88	0.541300	0.355100	0.311800
H891	H89	0.958700	0.144900	0.311800
H901	H90	0.958700	0.644900	0.811800
H911	H91	0.458700	0.144900	0.811800
H921	H92	0.458700	0.644900	0.311800
H931	H93	0.958700	0.855100	0.688200
H941	H94	0.958700	0.355100	0.188200
H951	H95	0.458700	0.855100	0.188200
H961	H96	0.458700	0.355100	0.688200
H971	H97	0.688200	0.855100	0.958700
H981	H98	0.688200	0.355100	0.458700
H991	H99	0.188200	0.855100	0.458700
H1001	H100	0.188200	0.355100	0.958700
H1011	H101	0.311800	0.144900	0.958700
H1021	H102	0.311800	0.644900	0.458700
H1031	H103	0.811800	0.144900	0.458700
H1041	H104	0.811800	0.644900	0.958700
H1051	H105	0.311800	0.855100	0.041300
H1061	H106	0.311800	0.355100	0.541300
H1071	H107	0.811800	0.855100	0.541300
H1081	H108	0.811800	0.355100	0.041300
H1091	H109	0.688200	0.144900	0.041300
H1101	H110	0.688200	0.644900	0.541300
H1111	H111	0.188200	0.144900	0.541300
H1121	H112	0.188200	0.644900	0.041300
H1131	H113	0.958700	0.688200	0.855100
H1141	H114	0.958700	0.188200	0.355100
H1151	H115	0.458700	0.688200	0.355100
H1161	H116	0.458700	0.188200	0.855100
H1171	H117	0.958700	0.311800	0.144900
H1181	H118	0.958700	0.811800	0.644900
H1191	H119	0.458700	0.311800	0.644900
H1201	H120	0.458700	0.811800	0.144900
H1211	H121	0.041300	0.311800	0.855100
H1221	H122	0.041300	0.811800	0.355100
H1231	H123	0.541300	0.311800	0.355100
H1241	H124	0.541300	0.811800	0.855100
H1251	H125	0.041300	0.688200	0.144900
H1261	H126	0.041300	0.188200	0.644900
H1271	H127	0.541300	0.688200	0.644900
H1281	H128	0.541300	0.188200	0.144900
H1291	H129	0.855100	0.958700	0.688200
H1301	H130	0.855100	0.458700	0.188200
H1311	H131	0.355100	0.958700	0.188200
H1321	H132	0.355100	0.458700	0.688200
H1331	H133	0.144900	0.958700	0.311800
H1341	H134	0.144900	0.458700	0.811800
H1351	H135	0.644900	0.958700	0.811800
H1361	H136	0.644900	0.458700	0.311800
H1371	H137	0.855100	0.041300	0.311800
H1381	H138	0.855100	0.541300	0.811800
H1391	H139	0.355100	0.041300	0.811800
H1401	H140	0.355100	0.541300	0.311800
H1411	H141	0.144900	0.041300	0.688200
H1421	H142	0.144900	0.541300	0.188200
H1431	H143	0.644900	0.041300	0.188200
H1441	H144	0.644900	0.541300	0.688200
H1451	H145	0.855100	0.688200	0.041300
H1461	H146	0.855100	0.188200	0.541300
H1471	H147	0.355100	0.688200	0.541300
H1481	H148	0.355100	0.188200	0.041300
H1491	H149	0.144900	0.311800	0.041300
H1501	H150	0.144900	0.811800	0.541300
H1511	H151	0.644900	0.311800	0.541300
H1521	H152	0.644900	0.811800	0.041300
H1531	H153	0.855100	0.311800	0.958700
H1541	H154	0.855100	0.811800	0.458700
H1551	H155	0.355100	0.311800	0.458700
H1561	H156	0.355100	0.811800	0.958700
H1571	H157	0.144900	0.688200	0.958700
H1581	H158	0.144900	0.188200	0.458700
H1591	H159	0.644900	0.688200	0.458700
H1601	H160	0.644900	0.188200	0.958700
H1611	H161	0.688200	0.958700	0.144900
H1621	H162	0.688200	0.458700	0.644900
H1631	H163	0.188200	0.958700	0.644900
H1641	H164	0.188200	0.458700	0.144900
H1651	H165	0.311800	0.958700	0.855100
H1661	H166	0.311800	0.458700	0.355100
H1671	H167	0.811800	0.958700	0.355100
H1681	H168	0.811800	0.458700	0.855100
H1691	H169	0.311800	0.041300	0.144900
H1701	H170	0.311800	0.541300	0.644900
H1711	H171	0.811800	0.041300	0.644900
H1721	H172	0.811800	0.541300	0.144900
H1731	H173	0.688200	0.041300	0.855100
H1741	H174	0.688200	0.541300	0.355100
H1751	H175	0.188200	0.041300	0.355100
H1761	H176	0.188200	0.541300	0.855100
H1771	H177	0.958700	0.855100	0.311800
H1781	H178	0.958700	0.355100	0.811800
H1791	H179	0.458700	0.855100	0.811800
H1801	H180	0.458700	0.355100	0.311800
H1811	H181	0.958700	0.144900	0.688200
H1821	H182	0.958700	0.644900	0.188200
H1831	H183	0.458700	0.144900	0.188200
H1841	H184	0.458700	0.644900	0.688200
H1851	H185	0.041300	0.855100	0.688200
H1861	H186	0.041300	0.355100	0.188200
H1871	H187	0.541300	0.855100	0.188200
H1881	H188	0.541300	0.355100	0.688200
H1891	H189	0.041300	0.144900	0.311800
H1901	H190	0.041300	0.644900	0.811800
H1911	H191	0.541300	0.144900	0.811800
H1921	H192	0.541300	0.644900	0.311800
Zn11	Zn1	0.206450	0.293550	0.206450
Zn21	Zn2	0.793550	0.706450	0.206450
Zn31	Zn3	0.293550	0.206450	0.206450
Zn41	Zn4	0.793550	0.293550	0.793550
Zn51	Zn5	0.293550	0.293550	0.293550
Zn61	Zn6	0.206450	0.706450	0.793550
Zn71	Zn7	0.206450	0.206450	0.293550
Zn81	Zn8	0.206450	0.793550	0.706450
Zn91	Zn9	0.793550	0.793550	0.293550
Zn101	Zn10	0.793550	0.206450	0.706450
Zn111	Zn11	0.293550	0.706450	0.706450
Zn121	Zn12	0.706450	0.206450	0.793550
Zn131	Zn13	0.706450	0.706450	0.293550
Zn141	Zn14	0.293550	0.793550	0.793550
Zn151	Zn15	0.706450	0.793550	0.206450
Zn161	Zn16	0.706450	0.293550	0.706450
Zn171	Zn17	0.293550	0.206450	0.793550
Zn181	Zn18	0.293550	0.706450	0.293550
Zn191	Zn19	0.706450	0.793550	0.793550
Zn201	Zn20	0.706450	0.293550	0.293550
Zn211	Zn21	0.206450	0.793550	0.293550
Zn221	Zn22	0.206450	0.293550	0.793550
Zn231	Zn23	0.293550	0.793550	0.206450
Zn241	Zn24	0.293550	0.293550	0.706450
Zn251	Zn25	0.706450	0.206450	0.206450
Zn261	Zn26	0.706450	0.706450	0.706450
Zn271	Zn27	0.206450	0.206450	0.706450
Zn281	Zn28	0.793550	0.206450	0.293550
Zn291	Zn29	0.793550	0.793550	0.706450
Zn301	Zn30	0.793550	0.293550	0.206450
Zn311	Zn31	0.206450	0.706450	0.206450
Zn321	Zn32	0.793550	0.706450	0.793550
O11	O1	0.250000	0.250000	0.250000
O21	O2	0.750000	0.750000	0.250000
O31	O3	0.750000	0.250000	0.750000
O41	O4	0.250000	0.750000	0.750000
O51	O5	0.250000	0.250000	0.750000
O61	O6	0.750000	0.750000	0.750000
O71	O7	0.750000	0.250000	0.250000
O81	O8	0.250000	0.750000	0.250000
O91	O9	0.218600	0.281400	0.133400
C11	C1	0.278900	0.221100	0.028200
C21	C2	0.320000	0.180000	0.027000
O101	O10	0.218600	0.781400	0.633400
C31	C3	0.278900	0.721100	0.528200
C41	C4	0.320000	0.680000	0.527000
O111	O11	0.781400	0.718600	0.133400
C51	C5	0.721100	0.778900	0.028200
C61	C6	0.680000	0.820000	0.027000
O121	O12	0.781400	0.218600	0.633400
C71	C7	0.721100	0.278900	0.528200
C81	C8	0.680000	0.320000	0.527000
O131	O13	0.281400	0.218600	0.133400
C91	C9	0.221100	0.278900	0.028200
C101	C10	0.180000	0.320000	0.027000
O141	O14	0.781400	0.281400	0.866600
C111	C11	0.721100	0.221100	0.971800
C121	C12	0.680000	0.180000	0.973000
O151	O15	0.781400	0.781400	0.366600
C131	C13	0.721100	0.721100	0.471800
C141	C14	0.680000	0.680000	0.473000
O161	O16	0.281400	0.281400	0.366600
C151	C15	0.221100	0.221100	0.471800
C161	C16	0.180000	0.180000	0.473000
O171	O17	0.218600	0.718600	0.866600
C171	C17	0.278900	0.778900	0.971800
C181	C18	0.320000	0.820000	0.973000
O181	O18	0.218600	0.218600	0.366600
C191	C19	0.278900	0.278900	0.471800
C201	C20	0.320000	0.320000	0.473000
O191	O19	0.133400	0.218600	0.281400
C211	C21	0.028200	0.278900	0.221100
C221	C22	0.027000	0.320000	0.180000
O201	O20	0.633400	0.218600	0.781400
C231	C23	0.528200	0.278900	0.721100
C241	C24	0.527000	0.320000	0.680000
O211	O21	0.133400	0.781400	0.718600
C251	C25	0.028200	0.721100	0.778900
C261	C26	0.027000	0.680000	0.820000
O221	O22	0.133400	0.281400	0.218600
C271	C27	0.028200	0.221100	0.278900
C281	C28	0.027000	0.180000	0.320000
O231	O23	0.633400	0.781400	0.218600
C291	C29	0.528200	0.721100	0.278900
C301	C30	0.527000	0.680000	0.320000
O241	O24	0.866600	0.781400	0.281400
C311	C31	0.971800	0.721100	0.221100
C321	C32	0.973000	0.680000	0.180000
O251	O25	0.366600	0.781400	0.781400
C331	C33	0.471800	0.721100	0.721100
C341	C34	0.473000	0.680000	0.680000
O261	O26	0.366600	0.281400	0.281400
C351	C35	0.471800	0.221100	0.221100
C361	C36	0.473000	0.180000	0.180000
O271	O27	0.866600	0.218600	0.718600
C371	C37	0.971800	0.278900	0.778900
C381	C38	0.973000	0.320000	0.820000
O281	O28	0.366600	0.218600	0.218600
C391	C39	0.471800	0.278900	0.278900
C401	C40	0.473000	0.320000	0.320000
O291	O29	0.281400	0.133400	0.218600
C411	C41	0.221100	0.028200	0.278900
C421	C42	0.180000	0.027000	0.320000
O301	O30	0.281400	0.633400	0.718600
C431	C43	0.221100	0.528200	0.778900
C441	C44	0.180000	0.527000	0.820000
O311	O31	0.718600	0.133400	0.781400
C451	C45	0.778900	0.028200	0.721100
C461	C46	0.820000	0.027000	0.680000
O321	O32	0.718600	0.633400	0.281400
C471	C47	0.778900	0.528200	0.221100
C481	C48	0.820000	0.527000	0.180000
O331	O33	0.218600	0.133400	0.281400
C491	C49	0.278900	0.028200	0.221100
C501	C50	0.320000	0.027000	0.180000
O341	O34	0.281400	0.866600	0.781400
C511	C51	0.221100	0.971800	0.721100
C521	C52	0.180000	0.973000	0.680000
O351	O35	0.281400	0.366600	0.281400
C531	C53	0.221100	0.471800	0.221100
C541	C54	0.180000	0.473000	0.180000
O361	O36	0.718600	0.866600	0.218600
C551	C55	0.778900	0.971800	0.278900
C561	C56	0.820000	0.973000	0.320000
O371	O37	0.718600	0.366600	0.718600
C571	C57	0.778900	0.471800	0.778900
C581	C58	0.820000	0.473000	0.820000
O381	O38	0.218600	0.366600	0.218600
C591	C59	0.278900	0.471800	0.278900
C601	C60	0.320000	0.473000	0.320000
O391	O39	0.281400	0.218600	0.866600
C611	C61	0.221100	0.278900	0.971800
C621	C62	0.180000	0.320000	0.973000
O401	O40	0.281400	0.718600	0.366600
C631	C63	0.221100	0.778900	0.471800
C641	C64	0.180000	0.820000	0.473000
O411	O41	0.718600	0.781400	0.866600
C651	C65	0.778900	0.721100	0.971800
C661	C66	0.820000	0.680000	0.973000
O421	O42	0.718600	0.281400	0.366600
C671	C67	0.778900	0.221100	0.471800
C681	C68	0.820000	0.180000	0.473000
O431	O43	0.218600	0.281400	0.866600
C691	C69	0.278900	0.221100	0.971800
C701	C70	0.320000	0.180000	0.973000
O441	O44	0.281400	0.781400	0.133400
C711	C71	0.221100	0.721100	0.028200
C721	C72	0.180000	0.680000	0.027000
O451	O45	0.281400	0.281400	0.633400
C731	C73	0.221100	0.221100	0.528200
C741	C74	0.180000	0.180000	0.527000
O461	O46	0.718600	0.218600	0.133400
C751	C75	0.778900	0.278900	0.028200
C761	C76	0.820000	0.320000	0.027000
O471	O47	0.718600	0.718600	0.633400
C771	C77	0.778900	0.778900	0.528200
C781	C78	0.820000	0.820000	0.527000
O481	O48	0.218600	0.218600	0.633400
C791	C79	0.278900	0.278900	0.528200
C801	C80	0.320000	0.320000	0.527000
O491	O49	0.218600	0.133400	0.718600
C811	C81	0.278900	0.028200	0.778900
C821	C82	0.320000	0.027000	0.820000
O501	O50	0.218600	0.633400	0.218600
C831	C83	0.278900	0.528200	0.278900
C841	C84	0.320000	0.527000	0.320000
O511	O51	0.781400	0.133400	0.281400
C851	C85	0.721100	0.028200	0.221100
C861	C86	0.680000	0.027000	0.180000
O521	O52	0.781400	0.633400	0.781400
C871	C87	0.721100	0.528200	0.721100
C881	C88	0.680000	0.527000	0.680000
O531	O53	0.281400	0.633400	0.281400
C891	C89	0.221100	0.528200	0.221100
C901	C90	0.180000	0.527000	0.180000
O541	O54	0.781400	0.866600	0.718600
C911	C91	0.721100	0.971800	0.778900
C921	C92	0.680000	0.973000	0.820000
O551	O55	0.781400	0.366600	0.218600
C931	C93	0.721100	0.471800	0.278900
C941	C94	0.680000	0.473000	0.320000
O561	O56	0.281400	0.866600	0.218600
C951	C95	0.221100	0.971800	0.278900
C961	C96	0.180000	0.973000	0.320000
O571	O57	0.218600	0.866600	0.281400
C971	C97	0.278900	0.971800	0.221100
C981	C98	0.320000	0.973000	0.180000
O581	O58	0.218600	0.366600	0.781400
C991	C99	0.278900	0.471800	0.721100
C1001	C100	0.320000	0.473000	0.680000
O591	O59	0.133400	0.281400	0.781400
C1011	C101	0.028200	0.221100	0.721100
C1021	C102	0.027000	0.180000	0.680000
O601	O60	0.633400	0.281400	0.281400
C1031	C103	0.528200	0.221100	0.221100
C1041	C104	0.527000	0.180000	0.180000
O611	O61	0.133400	0.718600	0.218600
C1051	C105	0.028200	0.778900	0.278900
C1061	C106	0.027000	0.820000	0.320000
O621	O62	0.633400	0.718600	0.718600
C1071	C107	0.528200	0.778900	0.778900
C1081	C108	0.527000	0.820000	0.820000
O631	O63	0.633400	0.218600	0.218600
C1091	C109	0.528200	0.278900	0.278900
C1101	C110	0.527000	0.320000	0.320000
O641	O64	0.866600	0.281400	0.218600
C1111	C111	0.971800	0.221100	0.278900
C1121	C112	0.973000	0.180000	0.320000
O651	O65	0.366600	0.281400	0.718600
C1131	C113	0.471800	0.221100	0.778900
C1141	C114	0.473000	0.180000	0.820000
O661	O66	0.866600	0.718600	0.781400
C1151	C115	0.971800	0.778900	0.721100
C1161	C116	0.973000	0.820000	0.680000
O671	O67	0.866600	0.218600	0.281400
C1171	C117	0.971800	0.278900	0.221100
C1181	C118	0.973000	0.320000	0.180000
O681	O68	0.366600	0.718600	0.281400
C1191	C119	0.471800	0.778900	0.221100
C1201	C120	0.473000	0.820000	0.180000
O691	O69	0.781400	0.718600	0.866600
C1211	C121	0.721100	0.778900	0.971800
C1221	C122	0.680000	0.820000	0.973000
O701	O70	0.781400	0.218600	0.366600
C1231	C123	0.721100	0.278900	0.471800
C1241	C124	0.680000	0.320000	0.473000
O711	O71	0.218600	0.781400	0.366600
C1251	C125	0.278900	0.721100	0.471800
C1261	C126	0.320000	0.680000	0.473000
O721	O72	0.218600	0.718600	0.133400
C1271	C127	0.278900	0.778900	0.028200
C1281	C128	0.320000	0.820000	0.027000
O731	O73	0.781400	0.281400	0.133400
C1291	C129	0.721100	0.221100	0.028200
C1301	C130	0.680000	0.180000	0.027000
O741	O74	0.781400	0.781400	0.633400
C1311	C131	0.721100	0.721100	0.528200
C1321	C132	0.680000	0.680000	0.527000
O751	O75	0.866600	0.781400	0.718600
C1331	C133	0.971800	0.721100	0.778900
C1341	C134	0.973000	0.680000	0.820000
O761	O76	0.366600	0.781400	0.218600
C1351	C135	0.471800	0.721100	0.278900
C1361	C136	0.473000	0.680000	0.320000
O771	O77	0.366600	0.218600	0.781400
C1371	C137	0.471800	0.278900	0.721100
C1381	C138	0.473000	0.320000	0.680000
O781	O78	0.133400	0.218600	0.718600
C1391	C139	0.028200	0.278900	0.778900
C1401	C140	0.027000	0.320000	0.820000
O791	O79	0.133400	0.781400	0.281400
C1411	C141	0.028200	0.721100	0.221100
C1421	C142	0.027000	0.680000	0.180000
O801	O80	0.633400	0.781400	0.781400
C1431	C143	0.528200	0.721100	0.721100
C1441	C144	0.527000	0.680000	0.680000
O811	O81	0.718600	0.866600	0.781400
C1451	C145	0.778900	0.971800	0.721100
C1461	C146	0.820000	0.973000	0.680000
O821	O82	0.718600	0.366600	0.281400
C1471	C147	0.778900	0.471800	0.221100
C1481	C148	0.820000	0.473000	0.180000
O831	O83	0.281400	0.366600	0.718600
C1491	C149	0.221100	0.471800	0.778900
C1501	C150	0.180000	0.473000	0.820000
O841	O84	0.718600	0.133400	0.218600
C1511	C151	0.778900	0.028200	0.278900
C1521	C152	0.820000	0.027000	0.320000
O851	O85	0.718600	0.633400	0.718600
C1531	C153	0.778900	0.528200	0.778900
C1541	C154	0.820000	0.527000	0.820000
O861	O86	0.281400	0.133400	0.781400
C1551	C155	0.221100	0.028200	0.721100
C1561	C156	0.180000	0.027000	0.680000
O871	O87	0.718600	0.781400	0.133400
C1571	C157	0.778900	0.721100	0.028200
C1581	C158	0.820000	0.680000	0.027000
O881	O88	0.718600	0.281400	0.633400
C1591	C159	0.778900	0.221100	0.528200
C1601	C160	0.820000	0.180000	0.527000
O891	O89	0.281400	0.718600	0.633400
C1611	C161	0.221100	0.778900	0.528200
C1621	C162	0.180000	0.820000	0.527000
O901	O90	0.718600	0.218600	0.866600
C1631	C163	0.778900	0.278900	0.971800
C1641	C164	0.820000	0.320000	0.973000
O911	O91	0.718600	0.718600	0.366600
C1651	C165	0.778900	0.778900	0.471800
C1661	C166	0.820000	0.820000	0.473000
O921	O92	0.281400	0.781400	0.866600
C1671	C167	0.221100	0.721100	0.971800
C1681	C168	0.180000	0.680000	0.973000
O931	O93	0.781400	0.866600	0.281400
C1691	C169	0.721100	0.971800	0.221100
C1701	C170	0.680000	0.973000	0.180000
O941	O94	0.781400	0.366600	0.781400
C1711	C171	0.721100	0.471800	0.721100
C1721	C172	0.680000	0.473000	0.680000
O951	O95	0.218600	0.866600	0.718600
C1731	C173	0.278900	0.971800	0.778900
C1741	C174	0.320000	0.973000	0.820000
O961	O96	0.218600	0.633400	0.781400
C1751	C175	0.278900	0.528200	0.721100
C1761	C176	0.320000	0.527000	0.680000
O971	O97	0.781400	0.133400	0.718600
C1771	C177	0.721100	0.028200	0.778900
C1781	C178	0.680000	0.027000	0.820000
O981	O98	0.781400	0.633400	0.218600
C1791	C179	0.721100	0.528200	0.278900
C1801	C180	0.680000	0.527000	0.320000
O991	O99	0.866600	0.718600	0.218600
C1811	C181	0.971800	0.778900	0.278900
C1821	C182	0.973000	0.820000	0.320000
O1001	O100	0.366600	0.718600	0.718600
C1831	C183	0.471800	0.778900	0.778900
C1841	C184	0.473000	0.820000	0.820000
O1011	O101	0.866600	0.281400	0.781400
C1851	C185	0.971800	0.221100	0.721100
C1861	C186	0.973000	0.180000	0.680000
O1021	O102	0.133400	0.718600	0.781400
C1871	C187	0.028200	0.778900	0.721100
C1881	C188	0.027000	0.820000	0.680000
O1031	O103	0.633400	0.718600	0.281400
C1891	C189	0.528200	0.778900	0.221100
C1901	C190	0.527000	0.820000	0.180000
O1041	O104	0.633400	0.281400	0.718600
C1911	C191	0.528200	0.221100	0.778900
C1921	C192	0.527000	0.180000	0.820000
C1931	C193	0.250000	0.250000	0.112000
C1941	C194	0.250000	0.250000	0.056500
C1951	C195	0.250000	0.750000	0.612000
C1961	C196	0.250000	0.750000	0.556500
C1971	C197	0.750000	0.750000	0.112000
C1981	C198	0.750000	0.750000	0.056500
C1991	C199	0.750000	0.250000	0.612000
C2001	C200	0.750000	0.250000	0.556500
C2011	C201	0.750000	0.250000	0.888000
C2021	C202	0.750000	0.250000	0.943500
C2031	C203	0.750000	0.750000	0.388000
C2041	C204	0.750000	0.750000	0.443500
C2051	C205	0.250000	0.250000	0.388000
C2061	C206	0.250000	0.250000	0.443500
C2071	C207	0.250000	0.750000	0.888000
C2081	C208	0.250000	0.750000	0.943500
C2091	C209	0.112000	0.250000	0.250000
C2101	C210	0.056500	0.250000	0.250000
C2111	C211	0.612000	0.250000	0.750000
C2121	C212	0.556500	0.250000	0.750000
C2131	C213	0.112000	0.750000	0.750000
C2141	C214	0.056500	0.750000	0.750000
C2151	C215	0.612000	0.750000	0.250000
C2161	C216	0.556500	0.750000	0.250000
C2171	C217	0.888000	0.750000	0.250000
C2181	C218	0.943500	0.750000	0.250000
C2191	C219	0.388000	0.750000	0.750000
C2201	C220	0.443500	0.750000	0.750000
C2211	C221	0.388000	0.250000	0.250000
C2221	C222	0.443500	0.250000	0.250000
C2231	C223	0.888000	0.250000	0.750000
C2241	C224	0.943500	0.250000	0.750000
C2251	C225	0.250000	0.112000	0.250000
C2261	C226	0.250000	0.056500	0.250000
C2271	C227	0.250000	0.612000	0.750000
C2281	C228	0.250000	0.556500	0.750000
C2291	C229	0.750000	0.112000	0.750000
C2301	C230	0.750000	0.056500	0.750000
C2311	C231	0.750000	0.612000	0.250000
C2321	C232	0.750000	0.556500	0.250000
C2331	C233	0.250000	0.888000	0.750000
C2341	C234	0.250000	0.943500	0.750000
C2351	C235	0.250000	0.388000	0.250000
C2361	C236	0.250000	0.443500	0.250000
C2371	C237	0.750000	0.888000	0.250000
C2381	C238	0.750000	0.943500	0.250000
C2391	C239	0.750000	0.388000	0.750000
C2401	C240	0.750000	0.443500	0.750000
C2411	C241	0.250000	0.250000	0.888000
C2421	C242	0.250000	0.250000	0.943500
C2431	C243	0.250000	0.750000	0.388000
C2441	C244	0.250000	0.750000	0.443500
C2451	C245	0.750000	0.750000	0.888000
C2461	C246	0.750000	0.750000	0.943500
C2471	C247	0.750000	0.250000	0.388000
C2481	C248	0.750000	0.250000	0.443500
C2491	C249	0.250000	0.750000	0.112000
C2501	C250	0.250000	0.750000	0.056500
C2511	C251	0.250000	0.250000	0.612000
C2521	C252	0.250000	0.250000	0.556500
C2531	C253	0.750000	0.250000	0.112000
C2541	C254	0.750000	0.250000	0.056500
C2551	C255	0.750000	0.750000	0.612000
C2561	C256	0.750000	0.750000	0.556500
C2571	C257	0.250000	0.112000	0.750000
C2581	C258	0.250000	0.056500	0.750000
C2591	C259	0.250000	0.612000	0.250000
C2601	C260	0.250000	0.556500	0.250000
C2611	C261	0.750000	0.112000	0.250000
C2621	C262	0.750000	0.056500	0.250000
C2631	C263	0.750000	0.612000	0.750000
C2641	C264	0.750000	0.556500	0.750000
C2651	C265	0.750000	0.888000	0.750000
C2661	C266	0.750000	0.943500	0.750000
C2671	C267	0.750000	0.388000	0.250000
C2681	C268	0.750000	0.443500	0.250000
C2691	C269	0.250000	0.888000	0.250000
C2701	C270	0.250000	0.943500	0.250000
C2711	C271	0.250000	0.388000	0.750000
C2721	C272	0.250000	0.443500	0.750000
C2731	C273	0.112000	0.250000	0.750000
C2741	C274	0.056500	0.250000	0.750000
C2751	C275	0.612000	0.250000	0.250000
C2761	C276	0.556500	0.250000	0.250000
C2771	C277	0.112000	0.750000	0.250000
C2781	C278	0.056500	0.750000	0.250000
C2791	C279	0.612000	0.750000	0.750000
C2801	C280	0.556500	0.750000	0.750000
C2811	C281	0.888000	0.250000	0.250000
C2821	C282	0.943500	0.250000	0.250000
C2831	C283	0.388000	0.250000	0.750000
C2841	C284	0.443500	0.250000	0.750000
C2851	C285	0.888000	0.750000	0.750000
C2861	C286	0.943500	0.750000	0.750000
C2871	C287	0.388000	0.750000	0.250000
C2881	C288	0.443500	0.750000	0.250000
