data_EFILUA_freeONLY_PM
_symmetry_space_group_name_H-M	'P1'
_cell_length_a	18.035000
_cell_length_b	10.513000
_cell_length_c	14.293000
_cell_angle_alpha	90.000000
_cell_angle_beta	90.000000
_cell_angle_gamma	90.000000
_symmetry_Int_Tables_number 1

loop_
_symmetry_equiv_pos_as_xyz
'x,y,z'

loop_
_atom_site_label
_atom_site_type_symbol
_atom_site_fract_x
_atom_site_fract_y
_atom_site_fract_z
Ga11	Ga1	0.702800	0.807900	0.648500
Ga21	Ga2	0.815000	0.624500	0.874700
Ga31	Ga3	0.890700	0.853600	0.557500
P11	P1	0.575100	0.642400	0.544400
P21	P2	0.704200	0.839500	0.874700
P31	P3	0.830700	0.613400	0.659800
O11	O1	0.750400	0.642400	0.636000
O21	O2	0.847500	0.662400	0.757900
O31	O3	0.791500	0.888100	0.610600
O41	O4	0.632800	0.839200	0.930000
O51	O5	0.602600	0.619300	0.444700
O61	O6	0.618300	0.751300	0.588400
O71	O7	0.884400	0.685400	0.594700
O81	O8	0.761400	0.756200	0.923900
O91	O9	0.688400	0.786200	0.778200
O101	O10	0.736100	0.974300	0.871600
O111	O11	0.585900	0.518600	0.599100
O121	O12	0.494300	0.681300	0.537900
O131	O13	0.844400	0.471900	0.651100
Ga41	Ga4	0.702800	0.307900	0.148500
Ga51	Ga5	0.815000	0.124500	0.374700
Ga61	Ga6	0.890700	0.353600	0.057500
P41	P4	0.575100	0.142400	0.044400
P51	P5	0.704200	0.339500	0.374700
P61	P6	0.830700	0.113400	0.159800
O141	O14	0.750400	0.142400	0.136000
O151	O15	0.847500	0.162400	0.257900
O161	O16	0.791500	0.388100	0.110600
O171	O17	0.632800	0.339200	0.430000
O181	O18	0.602600	0.119300	0.944700
O191	O19	0.618300	0.251300	0.088400
O201	O20	0.884400	0.185400	0.094700
O211	O21	0.761400	0.256200	0.423900
O221	O22	0.688400	0.286200	0.278200
O231	O23	0.736100	0.474300	0.371600
O241	O24	0.585900	0.018600	0.099100
O251	O25	0.494300	0.181300	0.037900
O261	O26	0.844400	0.971900	0.151100
Ga71	Ga7	0.297200	0.192100	0.648500
Ga81	Ga8	0.185000	0.375500	0.874700
Ga91	Ga9	0.109300	0.146400	0.557500
P71	P7	0.424900	0.357600	0.544400
P81	P8	0.295800	0.160500	0.874700
P91	P9	0.169300	0.386600	0.659800
O271	O27	0.249600	0.357600	0.636000
O281	O28	0.152500	0.337600	0.757900
O291	O29	0.208500	0.111900	0.610600
O301	O30	0.367200	0.160800	0.930000
O311	O31	0.397400	0.380700	0.444700
O321	O32	0.381700	0.248700	0.588400
O331	O33	0.115600	0.314600	0.594700
O341	O34	0.238600	0.243800	0.923900
O351	O35	0.311600	0.213800	0.778200
O361	O36	0.263900	0.025700	0.871600
O371	O37	0.414100	0.481400	0.599100
O381	O38	0.505700	0.318700	0.537900
O391	O39	0.155600	0.528100	0.651100
Ga101	Ga10	0.297200	0.692100	0.148500
Ga111	Ga11	0.185000	0.875500	0.374700
Ga121	Ga12	0.109300	0.646400	0.057500
P101	P10	0.424900	0.857600	0.044400
P111	P11	0.295800	0.660500	0.374700
P121	P12	0.169300	0.886600	0.159800
O401	O40	0.249600	0.857600	0.136000
O411	O41	0.152500	0.837600	0.257900
O421	O42	0.208500	0.611900	0.110600
O431	O43	0.367200	0.660800	0.430000
O441	O44	0.397400	0.880700	0.944700
O451	O45	0.381700	0.748700	0.088400
O461	O46	0.115600	0.814600	0.094700
O471	O47	0.238600	0.743800	0.423900
O481	O48	0.311600	0.713800	0.278200
O491	O49	0.263900	0.525700	0.371600
O501	O50	0.414100	0.981400	0.099100
O511	O51	0.505700	0.818700	0.037900
O521	O52	0.155600	0.028100	0.151100
Ga131	Ga13	0.202800	0.692100	0.648500
Ga141	Ga14	0.315000	0.875500	0.874700
Ga151	Ga15	0.390700	0.646400	0.557500
P131	P13	0.075100	0.857600	0.544400
P141	P14	0.204200	0.660500	0.874700
P151	P15	0.330700	0.886600	0.659800
O531	O53	0.250400	0.857600	0.636000
O541	O54	0.347500	0.837600	0.757900
O551	O55	0.291500	0.611900	0.610600
O561	O56	0.132800	0.660800	0.930000
O571	O57	0.102600	0.880700	0.444700
O581	O58	0.118300	0.748700	0.588400
O591	O59	0.384400	0.814600	0.594700
O601	O60	0.261400	0.743800	0.923900
O611	O61	0.188400	0.713800	0.778200
O621	O62	0.236100	0.525700	0.871600
O631	O63	0.085900	0.981400	0.599100
O641	O64	0.994300	0.818700	0.537900
O651	O65	0.344400	0.028100	0.651100
Ga161	Ga16	0.202800	0.192100	0.148500
Ga171	Ga17	0.315000	0.375500	0.374700
Ga181	Ga18	0.390700	0.146400	0.057500
P161	P16	0.075100	0.357600	0.044400
P171	P17	0.204200	0.160500	0.374700
P181	P18	0.330700	0.386600	0.159800
O661	O66	0.250400	0.357600	0.136000
O671	O67	0.347500	0.337600	0.257900
O681	O68	0.291500	0.111900	0.110600
O691	O69	0.132800	0.160800	0.430000
O701	O70	0.102600	0.380700	0.944700
O711	O71	0.118300	0.248700	0.088400
O721	O72	0.384400	0.314600	0.094700
O731	O73	0.261400	0.243800	0.423900
O741	O74	0.188400	0.213800	0.278200
O751	O75	0.236100	0.025700	0.371600
O761	O76	0.085900	0.481400	0.099100
O771	O77	0.994300	0.318700	0.037900
O781	O78	0.344400	0.528100	0.151100
Ga191	Ga19	0.797200	0.307900	0.648500
Ga201	Ga20	0.685000	0.124500	0.874700
Ga211	Ga21	0.609300	0.353600	0.557500
P191	P19	0.924900	0.142400	0.544400
P201	P20	0.795800	0.339500	0.874700
P211	P21	0.669300	0.113400	0.659800
O791	O79	0.749600	0.142400	0.636000
O801	O80	0.652500	0.162400	0.757900
O811	O81	0.708500	0.388100	0.610600
O821	O82	0.867200	0.339200	0.930000
O831	O83	0.897400	0.119300	0.444700
O841	O84	0.881700	0.251300	0.588400
O851	O85	0.615600	0.185400	0.594700
O861	O86	0.738600	0.256200	0.923900
O871	O87	0.811600	0.286200	0.778200
O881	O88	0.763900	0.474300	0.871600
O891	O89	0.914100	0.018600	0.599100
O901	O90	0.005700	0.181300	0.537900
O911	O91	0.655600	0.971900	0.651100
Ga221	Ga22	0.797200	0.807900	0.148500
Ga231	Ga23	0.685000	0.624500	0.374700
Ga241	Ga24	0.609300	0.853600	0.057500
P221	P22	0.924900	0.642400	0.044400
P231	P23	0.795800	0.839500	0.374700
P241	P24	0.669300	0.613400	0.159800
O921	O92	0.749600	0.642400	0.136000
O931	O93	0.652500	0.662400	0.257900
O941	O94	0.708500	0.888100	0.110600
O951	O95	0.867200	0.839200	0.430000
O961	O96	0.897400	0.619300	0.944700
O971	O97	0.881700	0.751300	0.088400
O981	O98	0.615600	0.685400	0.094700
O991	O99	0.738600	0.756200	0.423900
O1001	O100	0.811600	0.786200	0.278200
O1011	O101	0.763900	0.974300	0.371600
O1021	O102	0.914100	0.518600	0.099100
O1031	O103	0.005700	0.681300	0.037900
O1041	O104	0.655600	0.471900	0.151100
