data_EFIMOV_freeONLY_PM
_symmetry_space_group_name_H-M	'P1'
_cell_length_a	13.056000
_cell_length_b	13.056000
_cell_length_c	9.485000
_cell_angle_alpha	90.000000
_cell_angle_beta	90.000000
_cell_angle_gamma	120.000000
_symmetry_Int_Tables_number 1

loop_
_symmetry_equiv_pos_as_xyz
'x,y,z'

loop_
_atom_site_label
_atom_site_type_symbol
_atom_site_fract_x
_atom_site_fract_y
_atom_site_fract_z
H11	H1	0.873200	0.427400	0.176400
P11	P1	0.556550	0.887580	0.089910
O11	O1	0.617700	0.992100	0.992200
O21	O2	0.585300	0.793300	0.040300
O31	O3	0.420800	0.831200	0.083100
O41	O4	0.599100	0.926800	0.239200
Be11	Be1	0.663400	0.108300	0.900700
H21	H2	0.572600	0.445800	0.176400
P21	P2	0.112420	0.668970	0.089910
O51	O5	0.007900	0.625600	0.992200
O61	O6	0.206700	0.792000	0.040300
O71	O7	0.168800	0.589600	0.083100
O81	O8	0.073200	0.672300	0.239200
Be21	Be2	0.891700	0.555100	0.900700
H31	H3	0.554200	0.126800	0.176400
P31	P3	0.331030	0.443450	0.089910
O91	O9	0.374400	0.382300	0.992200
O101	O10	0.208000	0.414700	0.040300
O111	O11	0.410400	0.579200	0.083100
O121	O12	0.327700	0.400900	0.239200
Be31	Be3	0.444900	0.336600	0.900700
H41	H4	0.572600	0.126800	0.323600
P41	P4	0.112420	0.443450	0.410090
O131	O13	0.007900	0.382300	0.507800
O141	O14	0.206700	0.414700	0.459700
O151	O15	0.168800	0.579200	0.416900
O161	O16	0.073200	0.400900	0.260800
Be41	Be4	0.891700	0.336600	0.599300
H51	H5	0.554200	0.427400	0.323600
P51	P5	0.331030	0.887580	0.410090
O171	O17	0.374400	0.992100	0.507800
O181	O18	0.208000	0.793300	0.459700
O191	O19	0.410400	0.831200	0.416900
O201	O20	0.327700	0.926800	0.260800
Be51	Be5	0.444900	0.108300	0.599300
H61	H6	0.873200	0.445800	0.323600
P61	P6	0.556550	0.668970	0.410090
O211	O21	0.617700	0.625600	0.507800
O221	O22	0.585300	0.792000	0.459700
O231	O23	0.420800	0.589600	0.416900
O241	O24	0.599100	0.672300	0.260800
Be61	Be6	0.663400	0.555100	0.599300
H71	H7	0.126800	0.572600	0.823600
P71	P7	0.443450	0.112420	0.910090
O251	O25	0.382300	0.007900	0.007800
O261	O26	0.414700	0.206700	0.959700
O271	O27	0.579200	0.168800	0.916900
O281	O28	0.400900	0.073200	0.760800
Be71	Be7	0.336600	0.891700	0.099300
H81	H8	0.427400	0.554200	0.823600
P81	P8	0.887580	0.331030	0.910090
O291	O29	0.992100	0.374400	0.007800
O301	O30	0.793300	0.208000	0.959700
O311	O31	0.831200	0.410400	0.916900
O321	O32	0.926800	0.327700	0.760800
Be81	Be8	0.108300	0.444900	0.099300
H91	H9	0.445800	0.873200	0.823600
P91	P9	0.668970	0.556550	0.910090
O331	O33	0.625600	0.617700	0.007800
O341	O34	0.792000	0.585300	0.959700
O351	O35	0.589600	0.420800	0.916900
O361	O36	0.672300	0.599100	0.760800
Be91	Be9	0.555100	0.663400	0.099300
H101	H10	0.427400	0.873200	0.676400
P101	P10	0.887580	0.556550	0.589910
O371	O37	0.992100	0.617700	0.492200
O381	O38	0.793300	0.585300	0.540300
O391	O39	0.831200	0.420800	0.583100
O401	O40	0.926800	0.599100	0.739200
Be101	Be10	0.108300	0.663400	0.400700
H111	H11	0.445800	0.572600	0.676400
P111	P11	0.668970	0.112420	0.589910
O411	O41	0.625600	0.007900	0.492200
O421	O42	0.792000	0.206700	0.540300
O431	O43	0.589600	0.168800	0.583100
O441	O44	0.672300	0.073200	0.739200
Be111	Be11	0.555100	0.891700	0.400700
H121	H12	0.126800	0.554200	0.676400
P121	P12	0.443450	0.331030	0.589910
O451	O45	0.382300	0.374400	0.492200
O461	O46	0.414700	0.208000	0.540300
O471	O47	0.579200	0.410400	0.583100
O481	O48	0.400900	0.327700	0.739200
Be121	Be12	0.336600	0.444900	0.400700
Na11	Na1	0.333330	0.666670	0.250000
Na21	Na2	0.666670	0.333330	0.750000
Na31	Na3	0.666670	0.333330	0.081100
Na41	Na4	0.666670	0.333330	0.418900
Na51	Na5	0.333330	0.666670	0.918900
Na61	Na6	0.333330	0.666670	0.581100
O491	O49	0.835000	0.417500	0.250000
O501	O50	0.582500	0.417500	0.250000
O511	O51	0.582500	0.165000	0.250000
O521	O52	0.165000	0.582500	0.750000
O531	O53	0.417500	0.582500	0.750000
O541	O54	0.417500	0.835000	0.750000
