data_EGATIQ_freeONLY_PM
_symmetry_space_group_name_H-M	'P1'
_cell_length_a	17.054400
_cell_length_b	22.181600
_cell_length_c	24.863200
_cell_angle_alpha	90.000000
_cell_angle_beta	90.000000
_cell_angle_gamma	90.000000
_symmetry_Int_Tables_number 1

loop_
_symmetry_equiv_pos_as_xyz
'x,y,z'

loop_
_atom_site_label
_atom_site_type_symbol
_atom_site_fract_x
_atom_site_fract_y
_atom_site_fract_z
Zn11	Zn1	0.010310	0.666860	0.386190
Zn21	Zn2	0.489690	0.333140	0.886190
Zn31	Zn3	0.010310	0.833140	0.386190
Zn41	Zn4	0.489690	0.166860	0.886190
Ni11	Ni1	0.125600	0.750000	0.313200
Ni21	Ni2	0.374400	0.250000	0.813200
H11	H1	0.665200	0.022800	0.992000
H21	H2	0.786900	0.006900	0.027900
H31	H3	0.852400	0.172400	0.982200
H41	H4	0.729300	0.188000	0.946500
H51	H5	0.880500	0.026900	0.094400
H61	H6	0.114200	0.040100	0.079300
H71	H7	0.972300	0.122800	0.973700
H81	H8	0.919200	0.016200	0.186200
H91	H9	0.934200	0.951100	0.256900
H101	H10	0.118200	0.875800	0.183500
H111	H11	0.104200	0.941800	0.113400
H121	H12	0.197200	0.114100	0.055500
H131	H13	0.307100	0.144100	0.009900
H141	H14	0.185800	0.140500	0.872000
H151	H15	0.077100	0.107200	0.917600
H161	H16	0.233000	0.662700	0.255900
H171	H17	0.315000	0.659900	0.182800
H181	H18	0.834800	0.977200	0.492000
H191	H19	0.713100	0.993100	0.527900
H201	H20	0.647600	0.827600	0.482200
H211	H21	0.770700	0.812000	0.446500
H221	H22	0.619500	0.973100	0.594400
H231	H23	0.385800	0.959900	0.579300
H241	H24	0.527700	0.877200	0.473700
H251	H25	0.580800	0.983800	0.686200
H261	H26	0.565800	0.048900	0.756900
H271	H27	0.381800	0.124200	0.683500
H281	H28	0.395800	0.058200	0.613400
H291	H29	0.302800	0.885900	0.555500
H301	H30	0.192900	0.855900	0.509900
H311	H31	0.314200	0.859500	0.372000
H321	H32	0.422900	0.892800	0.417600
H331	H33	0.267000	0.337300	0.755900
H341	H34	0.185000	0.340100	0.682800
H351	H35	0.665200	0.477200	0.992000
H361	H36	0.786900	0.493100	0.027900
H371	H37	0.852400	0.327600	0.982200
H381	H38	0.729300	0.312000	0.946500
H391	H39	0.880500	0.473100	0.094400
H401	H40	0.114200	0.459900	0.079300
H411	H41	0.972300	0.377200	0.973700
H421	H42	0.919200	0.483800	0.186200
H431	H43	0.934200	0.548900	0.256900
H441	H44	0.118200	0.624200	0.183500
H451	H45	0.104200	0.558200	0.113400
H461	H46	0.197200	0.385900	0.055500
H471	H47	0.307100	0.355900	0.009900
H481	H48	0.185800	0.359500	0.872000
H491	H49	0.077100	0.392800	0.917600
H501	H50	0.233000	0.837300	0.255900
H511	H51	0.315000	0.840100	0.182800
H521	H52	0.834800	0.522800	0.492000
H531	H53	0.713100	0.506900	0.527900
H541	H54	0.647600	0.672400	0.482200
H551	H55	0.770700	0.688000	0.446500
H561	H56	0.619500	0.526900	0.594400
H571	H57	0.385800	0.540100	0.579300
H581	H58	0.527700	0.622800	0.473700
H591	H59	0.580800	0.516200	0.686200
H601	H60	0.565800	0.451100	0.756900
H611	H61	0.381800	0.375800	0.683500
H621	H62	0.395800	0.441800	0.613400
H631	H63	0.302800	0.614100	0.555500
H641	H64	0.192900	0.644100	0.509900
H651	H65	0.314200	0.640500	0.372000
H661	H66	0.422900	0.607200	0.417600
H671	H67	0.267000	0.162700	0.755900
H681	H68	0.185000	0.159900	0.682800
H691	H69	0.356000	0.750000	0.145000
H701	H70	0.144000	0.250000	0.645000
C11	C1	0.604800	0.116700	0.940400
C21	C2	0.684070	0.106330	0.965390
C31	C3	0.702700	0.053100	0.989900
C41	C4	0.775700	0.043520	0.011400
C51	C5	0.833510	0.088030	0.008940
C61	C6	0.814900	0.142050	0.984330
C71	C7	0.741100	0.151370	0.962800
C81	C8	0.913690	0.075980	0.030470
C91	C9	0.924220	0.041010	0.075920
C101	C10	0.998950	0.026380	0.094800
C111	C11	0.064010	0.049180	0.067090
C121	C12	0.055150	0.085290	0.021540
C131	C13	0.979110	0.098490	0.003840
C141	C14	0.009720	0.986580	0.141710
C151	C15	0.959700	0.988100	0.185480
C161	C16	0.968700	0.949100	0.227950
C171	C17	0.028400	0.906770	0.228250
C181	C18	0.078300	0.904380	0.184400
C191	C19	0.069500	0.943760	0.142190
C201	C20	0.038350	0.863740	0.274450
C211	C21	0.125020	0.107490	0.992230
C221	C22	0.194800	0.118900	0.018400
C231	C23	0.260800	0.137200	0.991180
C241	C24	0.258570	0.145620	0.935670
C251	C25	0.188600	0.134630	0.908990
C261	C26	0.123050	0.115220	0.936400
C271	C27	0.329200	0.165140	0.905940
C281	C28	0.248800	0.698900	0.240340
C291	C29	0.298500	0.696700	0.196830
C301	C30	0.895200	0.883300	0.440400
C311	C31	0.815930	0.893670	0.465390
C321	C32	0.797300	0.946900	0.489900
C331	C33	0.724300	0.956480	0.511400
C341	C34	0.666490	0.911970	0.508940
C351	C35	0.685100	0.857950	0.484330
C361	C36	0.758900	0.848630	0.462800
C371	C37	0.586310	0.924020	0.530470
C381	C38	0.575780	0.958990	0.575920
C391	C39	0.501050	0.973620	0.594800
C401	C40	0.435990	0.950820	0.567090
C411	C41	0.444850	0.914710	0.521540
C421	C42	0.520890	0.901510	0.503840
C431	C43	0.490280	0.013420	0.641710
C441	C44	0.540300	0.011900	0.685480
C451	C45	0.531300	0.050900	0.727950
C461	C46	0.471600	0.093230	0.728250
C471	C47	0.421700	0.095620	0.684400
C481	C48	0.430500	0.056240	0.642190
C491	C49	0.461650	0.136260	0.774450
C501	C50	0.374980	0.892510	0.492230
C511	C51	0.305200	0.881100	0.518400
C521	C52	0.239200	0.862800	0.491180
C531	C53	0.241430	0.854380	0.435670
C541	C54	0.311400	0.865370	0.408990
C551	C55	0.376950	0.884780	0.436400
C561	C56	0.170800	0.834860	0.405940
C571	C57	0.251200	0.301100	0.740340
C581	C58	0.201500	0.303300	0.696830
C591	C59	0.604800	0.383300	0.940400
C601	C60	0.684070	0.393670	0.965390
C611	C61	0.702700	0.446900	0.989900
C621	C62	0.775700	0.456480	0.011400
C631	C63	0.833510	0.411970	0.008940
C641	C64	0.814900	0.357950	0.984330
C651	C65	0.741100	0.348630	0.962800
C661	C66	0.913690	0.424020	0.030470
C671	C67	0.924220	0.458990	0.075920
C681	C68	0.998950	0.473620	0.094800
C691	C69	0.064010	0.450820	0.067090
C701	C70	0.055150	0.414710	0.021540
C711	C71	0.979110	0.401510	0.003840
C721	C72	0.009720	0.513420	0.141710
C731	C73	0.959700	0.511900	0.185480
C741	C74	0.968700	0.550900	0.227950
C751	C75	0.028400	0.593230	0.228250
C761	C76	0.078300	0.595620	0.184400
C771	C77	0.069500	0.556240	0.142190
C781	C78	0.038350	0.636260	0.274450
C791	C79	0.125020	0.392510	0.992230
C801	C80	0.194800	0.381100	0.018400
C811	C81	0.260800	0.362800	0.991180
C821	C82	0.258570	0.354380	0.935670
C831	C83	0.188600	0.365370	0.908990
C841	C84	0.123050	0.384780	0.936400
C851	C85	0.329200	0.334860	0.905940
C861	C86	0.248800	0.801100	0.240340
C871	C87	0.298500	0.803300	0.196830
C881	C88	0.895200	0.616700	0.440400
C891	C89	0.815930	0.606330	0.465390
C901	C90	0.797300	0.553100	0.489900
C911	C91	0.724300	0.543520	0.511400
C921	C92	0.666490	0.588030	0.508940
C931	C93	0.685100	0.642050	0.484330
C941	C94	0.758900	0.651370	0.462800
C951	C95	0.586310	0.575980	0.530470
C961	C96	0.575780	0.541010	0.575920
C971	C97	0.501050	0.526380	0.594800
C981	C98	0.435990	0.549180	0.567090
C991	C99	0.444850	0.585290	0.521540
C1001	C100	0.520890	0.598490	0.503840
C1011	C101	0.490280	0.486580	0.641710
C1021	C102	0.540300	0.488100	0.685480
C1031	C103	0.531300	0.449100	0.727950
C1041	C104	0.471600	0.406770	0.728250
C1051	C105	0.421700	0.404380	0.684400
C1061	C106	0.430500	0.443760	0.642190
C1071	C107	0.461650	0.363740	0.774450
C1081	C108	0.374980	0.607490	0.492230
C1091	C109	0.305200	0.618900	0.518400
C1101	C110	0.239200	0.637200	0.491180
C1111	C111	0.241430	0.645620	0.435670
C1121	C112	0.311400	0.634630	0.408990
C1131	C113	0.376950	0.615220	0.436400
C1141	C114	0.170800	0.665140	0.405940
C1151	C115	0.251200	0.198900	0.740340
C1161	C116	0.201500	0.196700	0.696830
C1171	C117	0.323000	0.750000	0.174800
C1181	C118	0.177000	0.250000	0.674800
N11	N1	0.222400	0.750000	0.261190
N21	N2	0.277600	0.250000	0.761190
O11	O1	0.592350	0.167530	0.919630
O21	O2	0.555100	0.076640	0.940910
O31	O3	0.006950	0.878810	0.318670
O41	O4	0.076840	0.816920	0.265220
O51	O5	0.394880	0.159730	0.928890
O61	O6	0.320040	0.184680	0.859080
O71	O7	0.907650	0.832470	0.419630
O81	O8	0.944900	0.923360	0.440910
O91	O9	0.493050	0.121190	0.818670
O101	O10	0.423160	0.183080	0.765220
O111	O11	0.105120	0.840270	0.428890
O121	O12	0.179960	0.815320	0.359080
O131	O13	0.592350	0.332470	0.919630
O141	O14	0.555100	0.423360	0.940910
O151	O15	0.006950	0.621190	0.318670
O161	O16	0.076840	0.683080	0.265220
O171	O17	0.394880	0.340270	0.928890
O181	O18	0.320040	0.315320	0.859080
O191	O19	0.907650	0.667530	0.419630
O201	O20	0.944900	0.576640	0.440910
O211	O21	0.493050	0.378810	0.818670
O221	O22	0.423160	0.316920	0.765220
O231	O23	0.105120	0.659730	0.428890
O241	O24	0.179960	0.684680	0.359080
O251	O25	0.018890	0.750000	0.355220
O261	O26	0.481110	0.250000	0.855220
Zn51	Zn5	0.989690	0.166860	0.613810
Zn61	Zn6	0.510310	0.833140	0.113810
Zn71	Zn7	0.989690	0.333140	0.613810
Zn81	Zn8	0.510310	0.666860	0.113810
Ni31	Ni3	0.874400	0.250000	0.686800
Ni41	Ni4	0.625600	0.750000	0.186800
H711	H71	0.334800	0.522800	0.008000
H721	H72	0.213100	0.506900	0.972100
H731	H73	0.147600	0.672400	0.017800
H741	H74	0.270700	0.688000	0.053500
H751	H75	0.119500	0.526900	0.905600
H761	H76	0.885800	0.540100	0.920700
H771	H77	0.027700	0.622800	0.026300
H781	H78	0.080800	0.516200	0.813800
H791	H79	0.065800	0.451100	0.743100
H801	H80	0.881800	0.375800	0.816500
H811	H81	0.895800	0.441800	0.886600
H821	H82	0.802800	0.614100	0.944500
H831	H83	0.692900	0.644100	0.990100
H841	H84	0.814200	0.640500	0.128000
H851	H85	0.922900	0.607200	0.082400
H861	H86	0.767000	0.162700	0.744100
H871	H87	0.685000	0.159900	0.817200
H881	H88	0.165200	0.477200	0.508000
H891	H89	0.286900	0.493100	0.472100
H901	H90	0.352400	0.327600	0.517800
H911	H91	0.229300	0.312000	0.553500
H921	H92	0.380500	0.473100	0.405600
H931	H93	0.614200	0.459900	0.420700
H941	H94	0.472300	0.377200	0.526300
H951	H95	0.419200	0.483800	0.313800
H961	H96	0.434200	0.548900	0.243100
H971	H97	0.618200	0.624200	0.316500
H981	H98	0.604200	0.558200	0.386600
H991	H99	0.697200	0.385900	0.444500
H1001	H100	0.807100	0.355900	0.490100
H1011	H101	0.685800	0.359500	0.628000
H1021	H102	0.577100	0.392800	0.582400
H1031	H103	0.733000	0.837300	0.244100
H1041	H104	0.815000	0.840100	0.317200
H1051	H105	0.334800	0.977200	0.008000
H1061	H106	0.213100	0.993100	0.972100
H1071	H107	0.147600	0.827600	0.017800
H1081	H108	0.270700	0.812000	0.053500
H1091	H109	0.119500	0.973100	0.905600
H1101	H110	0.885800	0.959900	0.920700
H1111	H111	0.027700	0.877200	0.026300
H1121	H112	0.080800	0.983800	0.813800
H1131	H113	0.065800	0.048900	0.743100
H1141	H114	0.881800	0.124200	0.816500
H1151	H115	0.895800	0.058200	0.886600
H1161	H116	0.802800	0.885900	0.944500
H1171	H117	0.692900	0.855900	0.990100
H1181	H118	0.814200	0.859500	0.128000
H1191	H119	0.922900	0.892800	0.082400
H1201	H120	0.767000	0.337300	0.744100
H1211	H121	0.685000	0.340100	0.817200
H1221	H122	0.165200	0.022800	0.508000
H1231	H123	0.286900	0.006900	0.472100
H1241	H124	0.352400	0.172400	0.517800
H1251	H125	0.229300	0.188000	0.553500
H1261	H126	0.380500	0.026900	0.405600
H1271	H127	0.614200	0.040100	0.420700
H1281	H128	0.472300	0.122800	0.526300
H1291	H129	0.419200	0.016200	0.313800
H1301	H130	0.434200	0.951100	0.243100
H1311	H131	0.618200	0.875800	0.316500
H1321	H132	0.604200	0.941800	0.386600
H1331	H133	0.697200	0.114100	0.444500
H1341	H134	0.807100	0.144100	0.490100
H1351	H135	0.685800	0.140500	0.628000
H1361	H136	0.577100	0.107200	0.582400
H1371	H137	0.733000	0.662700	0.244100
H1381	H138	0.815000	0.659900	0.317200
H1391	H139	0.644000	0.250000	0.855000
H1401	H140	0.856000	0.750000	0.355000
C1191	C119	0.395200	0.616700	0.059600
C1201	C120	0.315930	0.606330	0.034610
C1211	C121	0.297300	0.553100	0.010100
C1221	C122	0.224300	0.543520	0.988600
C1231	C123	0.166490	0.588030	0.991060
C1241	C124	0.185100	0.642050	0.015670
C1251	C125	0.258900	0.651370	0.037200
C1261	C126	0.086310	0.575980	0.969530
C1271	C127	0.075780	0.541010	0.924080
C1281	C128	0.001050	0.526380	0.905200
C1291	C129	0.935990	0.549180	0.932910
C1301	C130	0.944850	0.585290	0.978460
C1311	C131	0.020890	0.598490	0.996160
C1321	C132	0.990280	0.486580	0.858290
C1331	C133	0.040300	0.488100	0.814520
C1341	C134	0.031300	0.449100	0.772050
C1351	C135	0.971600	0.406770	0.771750
C1361	C136	0.921700	0.404380	0.815600
C1371	C137	0.930500	0.443760	0.857810
C1381	C138	0.961650	0.363740	0.725550
C1391	C139	0.874980	0.607490	0.007770
C1401	C140	0.805200	0.618900	0.981600
C1411	C141	0.739200	0.637200	0.008820
C1421	C142	0.741430	0.645620	0.064330
C1431	C143	0.811400	0.634630	0.091010
C1441	C144	0.876950	0.615220	0.063600
C1451	C145	0.670800	0.665140	0.094060
C1461	C146	0.751200	0.198900	0.759660
C1471	C147	0.701500	0.196700	0.803170
C1481	C148	0.104800	0.383300	0.559600
C1491	C149	0.184070	0.393670	0.534610
C1501	C150	0.202700	0.446900	0.510100
C1511	C151	0.275700	0.456480	0.488600
C1521	C152	0.333510	0.411970	0.491060
C1531	C153	0.314900	0.357950	0.515670
C1541	C154	0.241100	0.348630	0.537200
C1551	C155	0.413690	0.424020	0.469530
C1561	C156	0.424220	0.458990	0.424080
C1571	C157	0.498950	0.473620	0.405200
C1581	C158	0.564010	0.450820	0.432910
C1591	C159	0.555150	0.414710	0.478460
C1601	C160	0.479110	0.401510	0.496160
C1611	C161	0.509720	0.513420	0.358290
C1621	C162	0.459700	0.511900	0.314520
C1631	C163	0.468700	0.550900	0.272050
C1641	C164	0.528400	0.593230	0.271750
C1651	C165	0.578300	0.595620	0.315600
C1661	C166	0.569500	0.556240	0.357810
C1671	C167	0.538350	0.636260	0.225550
C1681	C168	0.625020	0.392510	0.507770
C1691	C169	0.694800	0.381100	0.481600
C1701	C170	0.760800	0.362800	0.508820
C1711	C171	0.758570	0.354380	0.564330
C1721	C172	0.688600	0.365370	0.591010
C1731	C173	0.623050	0.384780	0.563600
C1741	C174	0.829200	0.334860	0.594060
C1751	C175	0.748800	0.801100	0.259660
C1761	C176	0.798500	0.803300	0.303170
C1771	C177	0.395200	0.883300	0.059600
C1781	C178	0.315930	0.893670	0.034610
C1791	C179	0.297300	0.946900	0.010100
C1801	C180	0.224300	0.956480	0.988600
C1811	C181	0.166490	0.911970	0.991060
C1821	C182	0.185100	0.857950	0.015670
C1831	C183	0.258900	0.848630	0.037200
C1841	C184	0.086310	0.924020	0.969530
C1851	C185	0.075780	0.958990	0.924080
C1861	C186	0.001050	0.973620	0.905200
C1871	C187	0.935990	0.950820	0.932910
C1881	C188	0.944850	0.914710	0.978460
C1891	C189	0.020890	0.901510	0.996160
C1901	C190	0.990280	0.013420	0.858290
C1911	C191	0.040300	0.011900	0.814520
C1921	C192	0.031300	0.050900	0.772050
C1931	C193	0.971600	0.093230	0.771750
C1941	C194	0.921700	0.095620	0.815600
C1951	C195	0.930500	0.056240	0.857810
C1961	C196	0.961650	0.136260	0.725550
C1971	C197	0.874980	0.892510	0.007770
C1981	C198	0.805200	0.881100	0.981600
C1991	C199	0.739200	0.862800	0.008820
C2001	C200	0.741430	0.854380	0.064330
C2011	C201	0.811400	0.865370	0.091010
C2021	C202	0.876950	0.884780	0.063600
C2031	C203	0.670800	0.834860	0.094060
C2041	C204	0.751200	0.301100	0.759660
C2051	C205	0.701500	0.303300	0.803170
C2061	C206	0.104800	0.116700	0.559600
C2071	C207	0.184070	0.106330	0.534610
C2081	C208	0.202700	0.053100	0.510100
C2091	C209	0.275700	0.043520	0.488600
C2101	C210	0.333510	0.088030	0.491060
C2111	C211	0.314900	0.142050	0.515670
C2121	C212	0.241100	0.151370	0.537200
C2131	C213	0.413690	0.075980	0.469530
C2141	C214	0.424220	0.041010	0.424080
C2151	C215	0.498950	0.026380	0.405200
C2161	C216	0.564010	0.049180	0.432910
C2171	C217	0.555150	0.085290	0.478460
C2181	C218	0.479110	0.098490	0.496160
C2191	C219	0.509720	0.986580	0.358290
C2201	C220	0.459700	0.988100	0.314520
C2211	C221	0.468700	0.949100	0.272050
C2221	C222	0.528400	0.906770	0.271750
C2231	C223	0.578300	0.904380	0.315600
C2241	C224	0.569500	0.943760	0.357810
C2251	C225	0.538350	0.863740	0.225550
C2261	C226	0.625020	0.107490	0.507770
C2271	C227	0.694800	0.118900	0.481600
C2281	C228	0.760800	0.137200	0.508820
C2291	C229	0.758570	0.145620	0.564330
C2301	C230	0.688600	0.134630	0.591010
C2311	C231	0.623050	0.115220	0.563600
C2321	C232	0.829200	0.165140	0.594060
C2331	C233	0.748800	0.698900	0.259660
C2341	C234	0.798500	0.696700	0.303170
C2351	C235	0.677000	0.250000	0.825200
C2361	C236	0.823000	0.750000	0.325200
N31	N3	0.777600	0.250000	0.738810
N41	N4	0.722400	0.750000	0.238810
O271	O27	0.407650	0.667530	0.080370
O281	O28	0.444900	0.576640	0.059090
O291	O29	0.993050	0.378810	0.681330
O301	O30	0.923160	0.316920	0.734780
O311	O31	0.605120	0.659730	0.071110
O321	O32	0.679960	0.684680	0.140920
O331	O33	0.092350	0.332470	0.580370
O341	O34	0.055100	0.423360	0.559090
O351	O35	0.506950	0.621190	0.181330
O361	O36	0.576840	0.683080	0.234780
O371	O37	0.894880	0.340270	0.571110
O381	O38	0.820040	0.315320	0.640920
O391	O39	0.407650	0.832470	0.080370
O401	O40	0.444900	0.923360	0.059090
O411	O41	0.993050	0.121190	0.681330
O421	O42	0.923160	0.183080	0.734780
O431	O43	0.605120	0.840270	0.071110
O441	O44	0.679960	0.815320	0.140920
O451	O45	0.092350	0.167530	0.580370
O461	O46	0.055100	0.076640	0.559090
O471	O47	0.506950	0.878810	0.181330
O481	O48	0.576840	0.816920	0.234780
O491	O49	0.894880	0.159730	0.571110
O501	O50	0.820040	0.184680	0.640920
O511	O51	0.981110	0.250000	0.644780
O521	O52	0.518890	0.750000	0.144780
