data_EGATEM_freeONLY_PM
_symmetry_space_group_name_H-M	'P1'
_cell_length_a	16.989200
_cell_length_b	20.627100
_cell_length_c	25.830900
_cell_angle_alpha	90.000000
_cell_angle_beta	90.000000
_cell_angle_gamma	90.000000
_symmetry_Int_Tables_number 1

loop_
_symmetry_equiv_pos_as_xyz
'x,y,z'

loop_
_atom_site_label
_atom_site_type_symbol
_atom_site_fract_x
_atom_site_fract_y
_atom_site_fract_z
Zn11	Zn1	0.484680	0.838950	0.881470
Zn21	Zn2	0.015320	0.161050	0.381470
Zn31	Zn3	0.484680	0.661050	0.881470
Zn41	Zn4	0.015320	0.338950	0.381470
Co11	Co1	0.368470	0.750000	0.811340
Co21	Co2	0.131530	0.250000	0.311340
H11	H1	0.841700	0.484100	0.496300
H21	H2	0.719900	0.496900	0.533100
H31	H3	0.653900	0.324700	0.474200
H41	H4	0.775900	0.313800	0.436800
H51	H5	0.623700	0.467900	0.594500
H61	H6	0.390400	0.450600	0.578500
H71	H7	0.534100	0.378900	0.469800
H81	H8	0.583500	0.470000	0.685200
H91	H9	0.563400	0.532100	0.756500
H101	H10	0.377700	0.616200	0.687000
H111	H11	0.395300	0.551400	0.616400
H121	H12	0.308400	0.370000	0.550400
H131	H13	0.197200	0.347500	0.503500
H141	H14	0.318600	0.366900	0.372200
H151	H15	0.429200	0.395800	0.418500
H161	H16	0.259500	0.655400	0.754800
H171	H17	0.178600	0.653200	0.683400
H181	H18	0.658300	0.515900	0.996300
H191	H19	0.780100	0.503100	0.033100
H201	H20	0.846100	0.675300	0.974200
H211	H21	0.724100	0.686200	0.936800
H221	H22	0.876300	0.532100	0.094500
H231	H23	0.109600	0.549400	0.078500
H241	H24	0.965900	0.621100	0.969800
H251	H25	0.916500	0.530000	0.185200
H261	H26	0.936600	0.467900	0.256500
H271	H27	0.122300	0.383800	0.187000
H281	H28	0.104700	0.448600	0.116400
H291	H29	0.191600	0.630000	0.050400
H301	H30	0.302800	0.652500	0.003500
H311	H31	0.181400	0.633100	0.872200
H321	H32	0.070800	0.604200	0.918500
H331	H33	0.240500	0.344600	0.254800
H341	H34	0.321400	0.346800	0.183400
H351	H35	0.841700	0.015900	0.496300
H361	H36	0.719900	0.003100	0.533100
H371	H37	0.653900	0.175300	0.474200
H381	H38	0.775900	0.186200	0.436800
H391	H39	0.623700	0.032100	0.594500
H401	H40	0.390400	0.049400	0.578500
H411	H41	0.534100	0.121100	0.469800
H421	H42	0.583500	0.030000	0.685200
H431	H43	0.563400	0.967900	0.756500
H441	H44	0.377700	0.883800	0.687000
H451	H45	0.395300	0.948600	0.616400
H461	H46	0.308400	0.130000	0.550400
H471	H47	0.197200	0.152500	0.503500
H481	H48	0.318600	0.133100	0.372200
H491	H49	0.429200	0.104200	0.418500
H501	H50	0.259500	0.844600	0.754800
H511	H51	0.178600	0.846800	0.683400
H521	H52	0.658300	0.984100	0.996300
H531	H53	0.780100	0.996900	0.033100
H541	H54	0.846100	0.824700	0.974200
H551	H55	0.724100	0.813800	0.936800
H561	H56	0.876300	0.967900	0.094500
H571	H57	0.109600	0.950600	0.078500
H581	H58	0.965900	0.878900	0.969800
H591	H59	0.916500	0.970000	0.185200
H601	H60	0.936600	0.032100	0.256500
H611	H61	0.122300	0.116200	0.187000
H621	H62	0.104700	0.051400	0.116400
H631	H63	0.191600	0.870000	0.050400
H641	H64	0.302800	0.847500	0.003500
H651	H65	0.181400	0.866900	0.872200
H661	H66	0.070800	0.895800	0.918500
H671	H67	0.240500	0.155400	0.254800
H681	H68	0.321400	0.153200	0.183400
H691	H69	0.140000	0.750000	0.646200
H701	H70	0.360000	0.250000	0.146200
C11	C1	0.900500	0.390900	0.437600
C21	C2	0.822100	0.398500	0.462980
C31	C3	0.803800	0.452100	0.491600
C41	C4	0.730700	0.460000	0.513780
C51	C5	0.672300	0.412300	0.507350
C61	C6	0.691200	0.357300	0.478530
C71	C7	0.764500	0.350500	0.456330
C81	C8	0.591900	0.420900	0.529250
C91	C9	0.580300	0.453600	0.575700
C101	C10	0.505000	0.465400	0.594400
C111	C11	0.440900	0.442800	0.566200
C121	C12	0.450500	0.408700	0.519940
C131	C13	0.526600	0.399600	0.501370
C141	C14	0.491800	0.503300	0.642300
C151	C15	0.541700	0.499200	0.685640
C161	C16	0.530300	0.536800	0.728130
C171	C17	0.469600	0.582200	0.729800
C181	C18	0.419000	0.586600	0.686600
C191	C19	0.429700	0.548000	0.644340
C201	C20	0.457900	0.626400	0.774830
C211	C21	0.381200	0.388100	0.489970
C221	C22	0.310500	0.371100	0.514480
C231	C23	0.244200	0.356100	0.486370
C241	C24	0.247000	0.353500	0.432980
C251	C25	0.316400	0.368400	0.408120
C261	C26	0.382900	0.385700	0.435970
C271	C27	0.175600	0.338300	0.402000
C281	C28	0.244400	0.694400	0.739550
C291	C29	0.195300	0.692500	0.697060
C301	C30	0.599500	0.609100	0.937600
C311	C31	0.677900	0.601500	0.962980
C321	C32	0.696200	0.547900	0.991600
C331	C33	0.769300	0.540000	0.013780
C341	C34	0.827700	0.587700	0.007350
C351	C35	0.808800	0.642700	0.978530
C361	C36	0.735500	0.649500	0.956330
C371	C37	0.908100	0.579100	0.029250
C381	C38	0.919700	0.546400	0.075700
C391	C39	0.995000	0.534600	0.094400
C401	C40	0.059100	0.557200	0.066200
C411	C41	0.049500	0.591300	0.019940
C421	C42	0.973400	0.600400	0.001370
C431	C43	0.008200	0.496700	0.142300
C441	C44	0.958300	0.500800	0.185640
C451	C45	0.969700	0.463200	0.228130
C461	C46	0.030400	0.417800	0.229800
C471	C47	0.081000	0.413400	0.186600
C481	C48	0.070300	0.452000	0.144340
C491	C49	0.042100	0.373600	0.274830
C501	C50	0.118800	0.611900	0.989970
C511	C51	0.189500	0.628900	0.014480
C521	C52	0.255800	0.643900	0.986370
C531	C53	0.253000	0.646500	0.932980
C541	C54	0.183600	0.631600	0.908120
C551	C55	0.117100	0.614300	0.935970
C561	C56	0.324400	0.661700	0.902000
C571	C57	0.255600	0.305600	0.239550
C581	C58	0.304700	0.307500	0.197060
C591	C59	0.900500	0.109100	0.437600
C601	C60	0.822100	0.101500	0.462980
C611	C61	0.803800	0.047900	0.491600
C621	C62	0.730700	0.040000	0.513780
C631	C63	0.672300	0.087700	0.507350
C641	C64	0.691200	0.142700	0.478530
C651	C65	0.764500	0.149500	0.456330
C661	C66	0.591900	0.079100	0.529250
C671	C67	0.580300	0.046400	0.575700
C681	C68	0.505000	0.034600	0.594400
C691	C69	0.440900	0.057200	0.566200
C701	C70	0.450500	0.091300	0.519940
C711	C71	0.526600	0.100400	0.501370
C721	C72	0.491800	0.996700	0.642300
C731	C73	0.541700	0.000800	0.685640
C741	C74	0.530300	0.963200	0.728130
C751	C75	0.469600	0.917800	0.729800
C761	C76	0.419000	0.913400	0.686600
C771	C77	0.429700	0.952000	0.644340
C781	C78	0.457900	0.873600	0.774830
C791	C79	0.381200	0.111900	0.489970
C801	C80	0.310500	0.128900	0.514480
C811	C81	0.244200	0.143900	0.486370
C821	C82	0.247000	0.146500	0.432980
C831	C83	0.316400	0.131600	0.408120
C841	C84	0.382900	0.114300	0.435970
C851	C85	0.175600	0.161700	0.402000
C861	C86	0.244400	0.805600	0.739550
C871	C87	0.195300	0.807500	0.697060
C881	C88	0.599500	0.890900	0.937600
C891	C89	0.677900	0.898500	0.962980
C901	C90	0.696200	0.952100	0.991600
C911	C91	0.769300	0.960000	0.013780
C921	C92	0.827700	0.912300	0.007350
C931	C93	0.808800	0.857300	0.978530
C941	C94	0.735500	0.850500	0.956330
C951	C95	0.908100	0.920900	0.029250
C961	C96	0.919700	0.953600	0.075700
C971	C97	0.995000	0.965400	0.094400
C981	C98	0.059100	0.942800	0.066200
C991	C99	0.049500	0.908700	0.019940
C1001	C100	0.973400	0.899600	0.001370
C1011	C101	0.008200	0.003300	0.142300
C1021	C102	0.958300	0.999200	0.185640
C1031	C103	0.969700	0.036800	0.228130
C1041	C104	0.030400	0.082200	0.229800
C1051	C105	0.081000	0.086600	0.186600
C1061	C106	0.070300	0.048000	0.144340
C1071	C107	0.042100	0.126400	0.274830
C1081	C108	0.118800	0.888100	0.989970
C1091	C109	0.189500	0.871100	0.014480
C1101	C110	0.255800	0.856100	0.986370
C1111	C111	0.253000	0.853500	0.932980
C1121	C112	0.183600	0.868400	0.908120
C1131	C113	0.117100	0.885700	0.935970
C1141	C114	0.324400	0.838300	0.902000
C1151	C115	0.255600	0.194400	0.239550
C1161	C116	0.304700	0.192500	0.197060
C1171	C117	0.171800	0.750000	0.675400
C1181	C118	0.328200	0.250000	0.175400
N11	N1	0.271100	0.750000	0.759760
N21	N2	0.228900	0.250000	0.259760
O11	O1	0.912390	0.338130	0.413600
O21	O2	0.951160	0.434030	0.439880
O31	O3	0.488290	0.610070	0.817330
O41	O4	0.418240	0.677720	0.765910
O51	O5	0.108690	0.343630	0.424490
O61	O6	0.183890	0.321030	0.355960
O71	O7	0.587610	0.661870	0.913600
O81	O8	0.548840	0.565970	0.939880
O91	O9	0.011710	0.389930	0.317330
O101	O10	0.081760	0.322280	0.265910
O111	O11	0.391310	0.656370	0.924490
O121	O12	0.316110	0.678970	0.855960
O131	O13	0.912390	0.161870	0.413600
O141	O14	0.951160	0.065970	0.439880
O151	O15	0.488290	0.889930	0.817330
O161	O16	0.418240	0.822280	0.765910
O171	O17	0.108690	0.156370	0.424490
O181	O18	0.183890	0.178970	0.355960
O191	O19	0.587610	0.838130	0.913600
O201	O20	0.548840	0.934030	0.939880
O211	O21	0.011710	0.110070	0.317330
O221	O22	0.081760	0.177720	0.265910
O231	O23	0.391310	0.843630	0.924490
O241	O24	0.316110	0.821030	0.855960
O251	O25	0.477790	0.750000	0.851150
O261	O26	0.022210	0.250000	0.351150
Zn51	Zn5	0.515320	0.338950	0.118530
Zn61	Zn6	0.984680	0.661050	0.618530
Zn71	Zn7	0.515320	0.161050	0.118530
Zn81	Zn8	0.984680	0.838950	0.618530
Co31	Co3	0.631530	0.250000	0.188660
Co41	Co4	0.868470	0.750000	0.688660
H711	H71	0.158300	0.984100	0.503700
H721	H72	0.280100	0.996900	0.466900
H731	H73	0.346100	0.824700	0.525800
H741	H74	0.224100	0.813800	0.563200
H751	H75	0.376300	0.967900	0.405500
H761	H76	0.609600	0.950600	0.421500
H771	H77	0.465900	0.878900	0.530200
H781	H78	0.416500	0.970000	0.314800
H791	H79	0.436600	0.032100	0.243500
H801	H80	0.622300	0.116200	0.313000
H811	H81	0.604700	0.051400	0.383600
H821	H82	0.691600	0.870000	0.449600
H831	H83	0.802800	0.847500	0.496500
H841	H84	0.681400	0.866900	0.627800
H851	H85	0.570800	0.895800	0.581500
H861	H86	0.740500	0.155400	0.245200
H871	H87	0.821400	0.153200	0.316600
H881	H88	0.341700	0.015900	0.003700
H891	H89	0.219900	0.003100	0.966900
H901	H90	0.153900	0.175300	0.025800
H911	H91	0.275900	0.186200	0.063200
H921	H92	0.123700	0.032100	0.905500
H931	H93	0.890400	0.049400	0.921500
H941	H94	0.034100	0.121100	0.030200
H951	H95	0.083500	0.030000	0.814800
H961	H96	0.063400	0.967900	0.743500
H971	H97	0.877700	0.883800	0.813000
H981	H98	0.895300	0.948600	0.883600
H991	H99	0.808400	0.130000	0.949600
H1001	H100	0.697200	0.152500	0.996500
H1011	H101	0.818600	0.133100	0.127800
H1021	H102	0.929200	0.104200	0.081500
H1031	H103	0.759500	0.844600	0.745200
H1041	H104	0.678600	0.846800	0.816600
H1051	H105	0.158300	0.515900	0.503700
H1061	H106	0.280100	0.503100	0.466900
H1071	H107	0.346100	0.675300	0.525800
H1081	H108	0.224100	0.686200	0.563200
H1091	H109	0.376300	0.532100	0.405500
H1101	H110	0.609600	0.549400	0.421500
H1111	H111	0.465900	0.621100	0.530200
H1121	H112	0.416500	0.530000	0.314800
H1131	H113	0.436600	0.467900	0.243500
H1141	H114	0.622300	0.383800	0.313000
H1151	H115	0.604700	0.448600	0.383600
H1161	H116	0.691600	0.630000	0.449600
H1171	H117	0.802800	0.652500	0.496500
H1181	H118	0.681400	0.633100	0.627800
H1191	H119	0.570800	0.604200	0.581500
H1201	H120	0.740500	0.344600	0.245200
H1211	H121	0.821400	0.346800	0.316600
H1221	H122	0.341700	0.484100	0.003700
H1231	H123	0.219900	0.496900	0.966900
H1241	H124	0.153900	0.324700	0.025800
H1251	H125	0.275900	0.313800	0.063200
H1261	H126	0.123700	0.467900	0.905500
H1271	H127	0.890400	0.450600	0.921500
H1281	H128	0.034100	0.378900	0.030200
H1291	H129	0.083500	0.470000	0.814800
H1301	H130	0.063400	0.532100	0.743500
H1311	H131	0.877700	0.616200	0.813000
H1321	H132	0.895300	0.551400	0.883600
H1331	H133	0.808400	0.370000	0.949600
H1341	H134	0.697200	0.347500	0.996500
H1351	H135	0.818600	0.366900	0.127800
H1361	H136	0.929200	0.395800	0.081500
H1371	H137	0.759500	0.655400	0.745200
H1381	H138	0.678600	0.653200	0.816600
H1391	H139	0.860000	0.250000	0.353800
H1401	H140	0.640000	0.750000	0.853800
C1191	C119	0.099500	0.890900	0.562400
C1201	C120	0.177900	0.898500	0.537020
C1211	C121	0.196200	0.952100	0.508400
C1221	C122	0.269300	0.960000	0.486220
C1231	C123	0.327700	0.912300	0.492650
C1241	C124	0.308800	0.857300	0.521470
C1251	C125	0.235500	0.850500	0.543670
C1261	C126	0.408100	0.920900	0.470750
C1271	C127	0.419700	0.953600	0.424300
C1281	C128	0.495000	0.965400	0.405600
C1291	C129	0.559100	0.942800	0.433800
C1301	C130	0.549500	0.908700	0.480060
C1311	C131	0.473400	0.899600	0.498630
C1321	C132	0.508200	0.003300	0.357700
C1331	C133	0.458300	0.999200	0.314360
C1341	C134	0.469700	0.036800	0.271870
C1351	C135	0.530400	0.082200	0.270200
C1361	C136	0.581000	0.086600	0.313400
C1371	C137	0.570300	0.048000	0.355660
C1381	C138	0.542100	0.126400	0.225170
C1391	C139	0.618800	0.888100	0.510030
C1401	C140	0.689500	0.871100	0.485520
C1411	C141	0.755800	0.856100	0.513630
C1421	C142	0.753000	0.853500	0.567020
C1431	C143	0.683600	0.868400	0.591880
C1441	C144	0.617100	0.885700	0.564030
C1451	C145	0.824400	0.838300	0.598000
C1461	C146	0.755600	0.194400	0.260450
C1471	C147	0.804700	0.192500	0.302940
C1481	C148	0.400500	0.109100	0.062400
C1491	C149	0.322100	0.101500	0.037020
C1501	C150	0.303800	0.047900	0.008400
C1511	C151	0.230700	0.040000	0.986220
C1521	C152	0.172300	0.087700	0.992650
C1531	C153	0.191200	0.142700	0.021470
C1541	C154	0.264500	0.149500	0.043670
C1551	C155	0.091900	0.079100	0.970750
C1561	C156	0.080300	0.046400	0.924300
C1571	C157	0.005000	0.034600	0.905600
C1581	C158	0.940900	0.057200	0.933800
C1591	C159	0.950500	0.091300	0.980060
C1601	C160	0.026600	0.100400	0.998630
C1611	C161	0.991800	0.996700	0.857700
C1621	C162	0.041700	0.000800	0.814360
C1631	C163	0.030300	0.963200	0.771870
C1641	C164	0.969600	0.917800	0.770200
C1651	C165	0.919000	0.913400	0.813400
C1661	C166	0.929700	0.952000	0.855660
C1671	C167	0.957900	0.873600	0.725170
C1681	C168	0.881200	0.111900	0.010030
C1691	C169	0.810500	0.128900	0.985520
C1701	C170	0.744200	0.143900	0.013630
C1711	C171	0.747000	0.146500	0.067020
C1721	C172	0.816400	0.131600	0.091880
C1731	C173	0.882900	0.114300	0.064030
C1741	C174	0.675600	0.161700	0.098000
C1751	C175	0.744400	0.805600	0.760450
C1761	C176	0.695300	0.807500	0.802940
C1771	C177	0.099500	0.609100	0.562400
C1781	C178	0.177900	0.601500	0.537020
C1791	C179	0.196200	0.547900	0.508400
C1801	C180	0.269300	0.540000	0.486220
C1811	C181	0.327700	0.587700	0.492650
C1821	C182	0.308800	0.642700	0.521470
C1831	C183	0.235500	0.649500	0.543670
C1841	C184	0.408100	0.579100	0.470750
C1851	C185	0.419700	0.546400	0.424300
C1861	C186	0.495000	0.534600	0.405600
C1871	C187	0.559100	0.557200	0.433800
C1881	C188	0.549500	0.591300	0.480060
C1891	C189	0.473400	0.600400	0.498630
C1901	C190	0.508200	0.496700	0.357700
C1911	C191	0.458300	0.500800	0.314360
C1921	C192	0.469700	0.463200	0.271870
C1931	C193	0.530400	0.417800	0.270200
C1941	C194	0.581000	0.413400	0.313400
C1951	C195	0.570300	0.452000	0.355660
C1961	C196	0.542100	0.373600	0.225170
C1971	C197	0.618800	0.611900	0.510030
C1981	C198	0.689500	0.628900	0.485520
C1991	C199	0.755800	0.643900	0.513630
C2001	C200	0.753000	0.646500	0.567020
C2011	C201	0.683600	0.631600	0.591880
C2021	C202	0.617100	0.614300	0.564030
C2031	C203	0.824400	0.661700	0.598000
C2041	C204	0.755600	0.305600	0.260450
C2051	C205	0.804700	0.307500	0.302940
C2061	C206	0.400500	0.390900	0.062400
C2071	C207	0.322100	0.398500	0.037020
C2081	C208	0.303800	0.452100	0.008400
C2091	C209	0.230700	0.460000	0.986220
C2101	C210	0.172300	0.412300	0.992650
C2111	C211	0.191200	0.357300	0.021470
C2121	C212	0.264500	0.350500	0.043670
C2131	C213	0.091900	0.420900	0.970750
C2141	C214	0.080300	0.453600	0.924300
C2151	C215	0.005000	0.465400	0.905600
C2161	C216	0.940900	0.442800	0.933800
C2171	C217	0.950500	0.408700	0.980060
C2181	C218	0.026600	0.399600	0.998630
C2191	C219	0.991800	0.503300	0.857700
C2201	C220	0.041700	0.499200	0.814360
C2211	C221	0.030300	0.536800	0.771870
C2221	C222	0.969600	0.582200	0.770200
C2231	C223	0.919000	0.586600	0.813400
C2241	C224	0.929700	0.548000	0.855660
C2251	C225	0.957900	0.626400	0.725170
C2261	C226	0.881200	0.388100	0.010030
C2271	C227	0.810500	0.371100	0.985520
C2281	C228	0.744200	0.356100	0.013630
C2291	C229	0.747000	0.353500	0.067020
C2301	C230	0.816400	0.368400	0.091880
C2311	C231	0.882900	0.385700	0.064030
C2321	C232	0.675600	0.338300	0.098000
C2331	C233	0.744400	0.694400	0.760450
C2341	C234	0.695300	0.692500	0.802940
C2351	C235	0.828200	0.250000	0.324600
C2361	C236	0.671800	0.750000	0.824600
N31	N3	0.728900	0.250000	0.240240
N41	N4	0.771100	0.750000	0.740240
O271	O27	0.087610	0.838130	0.586400
O281	O28	0.048840	0.934030	0.560120
O291	O29	0.511710	0.110070	0.182670
O301	O30	0.581760	0.177720	0.234090
O311	O31	0.891310	0.843630	0.575510
O321	O32	0.816110	0.821030	0.644040
O331	O33	0.412390	0.161870	0.086400
O341	O34	0.451160	0.065970	0.060120
O351	O35	0.988290	0.889930	0.682670
O361	O36	0.918240	0.822280	0.734090
O371	O37	0.608690	0.156370	0.075510
O381	O38	0.683890	0.178970	0.144040
O391	O39	0.087610	0.661870	0.586400
O401	O40	0.048840	0.565970	0.560120
O411	O41	0.511710	0.389930	0.182670
O421	O42	0.581760	0.322280	0.234090
O431	O43	0.891310	0.656370	0.575510
O441	O44	0.816110	0.678970	0.644040
O451	O45	0.412390	0.338130	0.086400
O461	O46	0.451160	0.434030	0.060120
O471	O47	0.988290	0.610070	0.682670
O481	O48	0.918240	0.677720	0.734090
O491	O49	0.608690	0.343630	0.075510
O501	O50	0.683890	0.321030	0.144040
O511	O51	0.522210	0.250000	0.148850
O521	O52	0.977790	0.750000	0.648850
