data_EGELUY_SL_PM
_symmetry_space_group_name_H-M	'P1'
_cell_length_a	16.243000
_cell_length_b	6.635200
_cell_length_c	13.494300
_cell_angle_alpha	90.000000
_cell_angle_beta	90.000000
_cell_angle_gamma	90.000000
_symmetry_Int_Tables_number 1

loop_
_symmetry_equiv_pos_as_xyz
'x,y,z'

loop_
_atom_site_label
_atom_site_type_symbol
_atom_site_fract_x
_atom_site_fract_y
_atom_site_fract_z
C11	C1	0.211490	0.064950	0.777200
C21	C2	0.280990	0.064820	0.714820
O31	O3	0.074920	0.074140	0.910000
O41	O4	0.419530	0.073650	0.585330
H51	H5	0.185820	0.922190	0.800170
H61	H6	0.306390	0.922010	0.691610
C71	C7	0.288110	0.927140	0.278330
C81	C8	0.219780	0.929180	0.214190
O91	O9	0.421510	0.914730	0.414620
O101	O10	0.081110	0.923680	0.083910
H111	H11	0.313920	0.069150	0.302190
H121	H12	0.195320	0.072620	0.190450
C131	C13	0.786790	0.564950	0.223390
C141	C14	0.717770	0.564820	0.286480
O151	O15	0.922250	0.572840	0.089030
O161	O16	0.579360	0.573610	0.416360
H171	H17	0.812540	0.422140	0.200560
H181	H18	0.692620	0.422030	0.310160
C191	C19	0.712700	0.427120	0.721050
C201	C20	0.781010	0.429160	0.785320
O211	O21	0.578140	0.414680	0.586000
O221	O22	0.919320	0.422380	0.916620
H231	H23	0.686850	0.569110	0.697260
H241	H24	0.805400	0.572640	0.809160
C251	C25	0.786640	0.928090	0.223210
C261	C26	0.717600	0.927980	0.286450
O271	O27	0.920560	0.918570	0.086360
O281	O28	0.579150	0.916700	0.416960
H291	H29	0.812330	0.070850	0.200270
H301	H30	0.692340	0.070770	0.310180
C311	C31	0.713670	0.063980	0.722000
C321	C32	0.782040	0.066000	0.786270
O331	O33	0.577710	0.071950	0.587210
O341	O34	0.919730	0.079140	0.916800
H351	H35	0.688690	0.920450	0.699020
H361	H36	0.807310	0.923890	0.810900
C371	C37	0.211670	0.428110	0.777410
C381	C38	0.281180	0.428010	0.714860
O391	O39	0.076990	0.417220	0.913080
O401	O40	0.419730	0.416690	0.584710
H411	H41	0.186090	0.570860	0.800470
H421	H42	0.306720	0.570790	0.691590
C431	C43	0.287140	0.563920	0.277420
C441	C44	0.218740	0.565950	0.213280
O451	O45	0.421940	0.571950	0.413390
O461	O46	0.080290	0.577950	0.084290
H471	H47	0.312090	0.420450	0.300510
H481	H48	0.193410	0.423840	0.188780
Al491	Al49	0.999720	0.000660	0.000690
Al501	Al50	0.499260	0.993960	0.501240
Al511	Al51	0.999840	0.494800	0.000830
Al521	Al52	0.499590	0.494310	0.500470
O531	O53	0.001010	0.247360	0.055670
C541	C54	0.175820	0.246320	0.810100
C551	C55	0.317250	0.246340	0.682710
C561	C56	0.104380	0.246040	0.881360
C571	C57	0.390260	0.245480	0.613850
O581	O58	0.498400	0.743800	0.554060
C591	C59	0.322590	0.744690	0.311770
C601	C60	0.183360	0.748730	0.181240
C611	C61	0.393300	0.743450	0.383920
C621	C62	0.110280	0.750450	0.112660
O631	O63	0.999350	0.747650	0.960020
C641	C64	0.822000	0.746330	0.189690
C651	C65	0.681570	0.746330	0.318800
C661	C66	0.893000	0.746060	0.117800
C671	C67	0.608630	0.745470	0.387840
O681	O68	0.498690	0.243810	0.447860
C691	C69	0.678060	0.244650	0.687690
C701	C70	0.817370	0.248760	0.818580
C711	C71	0.606700	0.243530	0.616310
C721	C72	0.890140	0.250430	0.888010
H731	H73	0.497410	0.743400	0.617910
H741	H74	0.497090	0.243410	0.384040
H751	H75	0.002030	0.247300	0.119710
H761	H76	0.999350	0.747650	0.885910
