data_EGIFUV_freeONLY_PM
_symmetry_space_group_name_H-M	'P1'
_cell_length_a	27.156000
_cell_length_b	26.242000
_cell_length_c	13.294900
_cell_angle_alpha	90.000000
_cell_angle_beta	90.570000
_cell_angle_gamma	90.000000
_symmetry_Int_Tables_number 1

loop_
_symmetry_equiv_pos_as_xyz
'x,y,z'

loop_
_atom_site_label
_atom_site_type_symbol
_atom_site_fract_x
_atom_site_fract_y
_atom_site_fract_z
Cd11	Cd1	0.061740	0.420340	0.178770
Cd21	Cd2	0.087050	0.420140	0.874410
N11	N1	0.113800	0.374800	0.288700
N21	N2	0.140100	0.368600	0.777200
C11	C1	0.180500	0.318900	0.405100
C21	C2	0.190200	0.311100	0.633100
C31	C3	0.142400	0.318300	0.783100
H11	H1	0.127200	0.302500	0.837100
C41	C4	0.161700	0.382000	0.283600
H21	H2	0.172400	0.407100	0.239700
C51	C5	0.132100	0.311800	0.413800
H31	H3	0.120300	0.287900	0.459300
C61	C6	0.166300	0.287800	0.713600
H41	H4	0.166300	0.252500	0.720400
C71	C7	0.248100	0.255600	0.396200
H51	H5	0.245900	0.258500	0.326600
C81	C8	0.218500	0.279100	0.560100
C91	C9	0.197400	0.356000	0.337200
H61	H6	0.230700	0.362600	0.329000
C101	C10	0.186500	0.363200	0.625600
H71	H7	0.200500	0.380100	0.571400
C111	C11	0.162100	0.390300	0.697900
H81	H8	0.160700	0.425600	0.691700
C121	C12	0.217200	0.286700	0.459500
C131	C13	0.098800	0.340300	0.354300
H91	H9	0.065200	0.334700	0.361400
S11	S1	0.979480	0.407760	0.259600
C141	C14	0.975200	0.340800	0.278100
C151	C15	0.962500	0.321900	0.372900
H101	H10	0.955700	0.344700	0.424400
C161	C16	0.960000	0.270400	0.391900
H111	H11	0.951800	0.258700	0.455600
C171	C17	0.969700	0.236200	0.314900
H121	H12	0.967300	0.201400	0.326800
C181	C18	0.983100	0.253700	0.220000
H131	H13	0.990500	0.231000	0.168700
C191	C19	0.985100	0.305900	0.204300
H141	H14	0.993500	0.317800	0.140800
S21	S2	0.080780	0.365020	0.026650
C201	C20	0.139500	0.337400	0.052900
C211	C21	0.182800	0.359300	0.027300
H151	H15	0.182600	0.391000	0.996000
C221	C22	0.227600	0.335100	0.047000
H161	H16	0.256400	0.350800	0.025800
C231	C23	0.231200	0.289600	0.095800
H171	H17	0.261300	0.274900	0.113200
C241	C24	0.187100	0.267000	0.117200
H181	H18	0.187100	0.234300	0.144100
C251	C25	0.142300	0.291000	0.100500
H191	H19	0.113500	0.275400	0.121900
O11	O1	0.993800	0.465300	0.082100
O21	O2	0.039800	0.469600	0.032000
Cd31	Cd3	0.561740	0.920340	0.178770
Cd41	Cd4	0.587050	0.920140	0.874410
N31	N3	0.613800	0.874800	0.288700
N41	N4	0.640100	0.868600	0.777200
C261	C26	0.680500	0.818900	0.405100
C271	C27	0.690200	0.811100	0.633100
C281	C28	0.642400	0.818300	0.783100
H201	H20	0.627200	0.802500	0.837100
C291	C29	0.661700	0.882000	0.283600
H211	H21	0.672400	0.907100	0.239700
C301	C30	0.632100	0.811800	0.413800
H221	H22	0.620300	0.787900	0.459300
C311	C31	0.666300	0.787800	0.713600
H231	H23	0.666300	0.752500	0.720400
C321	C32	0.748100	0.755600	0.396200
H241	H24	0.745900	0.758500	0.326600
C331	C33	0.718500	0.779100	0.560100
C341	C34	0.697400	0.856000	0.337200
H251	H25	0.730700	0.862600	0.329000
C351	C35	0.686500	0.863200	0.625600
H261	H26	0.700500	0.880100	0.571400
C361	C36	0.662100	0.890300	0.697900
H271	H27	0.660700	0.925600	0.691700
C371	C37	0.717200	0.786700	0.459500
C381	C38	0.598800	0.840300	0.354300
H281	H28	0.565200	0.834700	0.361400
S31	S3	0.479480	0.907760	0.259600
C391	C39	0.475200	0.840800	0.278100
C401	C40	0.462500	0.821900	0.372900
H291	H29	0.455700	0.844700	0.424400
C411	C41	0.460000	0.770400	0.391900
H301	H30	0.451800	0.758700	0.455600
C421	C42	0.469700	0.736200	0.314900
H311	H31	0.467300	0.701400	0.326800
C431	C43	0.483100	0.753700	0.220000
H321	H32	0.490500	0.731000	0.168700
C441	C44	0.485100	0.805900	0.204300
H331	H33	0.493500	0.817800	0.140800
S41	S4	0.580780	0.865020	0.026650
C451	C45	0.639500	0.837400	0.052900
C461	C46	0.682800	0.859300	0.027300
H341	H34	0.682600	0.891000	0.996000
C471	C47	0.727600	0.835100	0.047000
H351	H35	0.756400	0.850800	0.025800
C481	C48	0.731200	0.789600	0.095800
H361	H36	0.761300	0.774900	0.113200
C491	C49	0.687100	0.767000	0.117200
H371	H37	0.687100	0.734300	0.144100
C501	C50	0.642300	0.791000	0.100500
H381	H38	0.613500	0.775400	0.121900
O31	O3	0.493800	0.965300	0.082100
O41	O4	0.539800	0.969600	0.032000
Cd51	Cd5	0.938260	0.420340	0.821230
Cd61	Cd6	0.912950	0.420140	0.125590
N51	N5	0.886200	0.374800	0.711300
N61	N6	0.859900	0.368600	0.222800
C511	C51	0.819500	0.318900	0.594900
C521	C52	0.809800	0.311100	0.366900
C531	C53	0.857600	0.318300	0.216900
H391	H39	0.872800	0.302500	0.162900
C541	C54	0.838300	0.382000	0.716400
H401	H40	0.827600	0.407100	0.760300
C551	C55	0.867900	0.311800	0.586200
H411	H41	0.879700	0.287900	0.540700
C561	C56	0.833700	0.287800	0.286400
H421	H42	0.833700	0.252500	0.279600
C571	C57	0.751900	0.255600	0.603800
H431	H43	0.754100	0.258500	0.673400
C581	C58	0.781500	0.279100	0.439900
C591	C59	0.802600	0.356000	0.662800
H441	H44	0.769300	0.362600	0.671000
C601	C60	0.813500	0.363200	0.374400
H451	H45	0.799500	0.380100	0.428600
C611	C61	0.837900	0.390300	0.302100
H461	H46	0.839300	0.425600	0.308300
C621	C62	0.782800	0.286700	0.540500
C631	C63	0.901200	0.340300	0.645700
H471	H47	0.934800	0.334700	0.638600
S51	S5	0.020520	0.407760	0.740400
C641	C64	0.024800	0.340800	0.721900
C651	C65	0.037500	0.321900	0.627100
H481	H48	0.044300	0.344700	0.575600
C661	C66	0.040000	0.270400	0.608100
H491	H49	0.048200	0.258700	0.544400
C671	C67	0.030300	0.236200	0.685100
H501	H50	0.032700	0.201400	0.673200
C681	C68	0.016900	0.253700	0.780000
H511	H51	0.009500	0.231000	0.831300
C691	C69	0.014900	0.305900	0.795700
H521	H52	0.006500	0.317800	0.859200
S61	S6	0.919220	0.365020	0.973350
C701	C70	0.860500	0.337400	0.947100
C711	C71	0.817200	0.359300	0.972700
H531	H53	0.817400	0.391000	0.004000
C721	C72	0.772400	0.335100	0.953000
H541	H54	0.743600	0.350800	0.974200
C731	C73	0.768800	0.289600	0.904200
H551	H55	0.738700	0.274900	0.886800
C741	C74	0.812900	0.267000	0.882800
H561	H56	0.812900	0.234300	0.855900
C751	C75	0.857700	0.291000	0.899500
H571	H57	0.886500	0.275400	0.878100
O51	O5	0.006200	0.465300	0.917900
O61	O6	0.960200	0.469600	0.968000
Cd71	Cd7	0.438260	0.920340	0.821230
Cd81	Cd8	0.412950	0.920140	0.125590
N71	N7	0.386200	0.874800	0.711300
N81	N8	0.359900	0.868600	0.222800
C761	C76	0.319500	0.818900	0.594900
C771	C77	0.309800	0.811100	0.366900
C781	C78	0.357600	0.818300	0.216900
H581	H58	0.372800	0.802500	0.162900
C791	C79	0.338300	0.882000	0.716400
H591	H59	0.327600	0.907100	0.760300
C801	C80	0.367900	0.811800	0.586200
H601	H60	0.379700	0.787900	0.540700
C811	C81	0.333700	0.787800	0.286400
H611	H61	0.333700	0.752500	0.279600
C821	C82	0.251900	0.755600	0.603800
H621	H62	0.254100	0.758500	0.673400
C831	C83	0.281500	0.779100	0.439900
C841	C84	0.302600	0.856000	0.662800
H631	H63	0.269300	0.862600	0.671000
C851	C85	0.313500	0.863200	0.374400
H641	H64	0.299500	0.880100	0.428600
C861	C86	0.337900	0.890300	0.302100
H651	H65	0.339300	0.925600	0.308300
C871	C87	0.282800	0.786700	0.540500
C881	C88	0.401200	0.840300	0.645700
H661	H66	0.434800	0.834700	0.638600
S71	S7	0.520520	0.907760	0.740400
C891	C89	0.524800	0.840800	0.721900
C901	C90	0.537500	0.821900	0.627100
H671	H67	0.544300	0.844700	0.575600
C911	C91	0.540000	0.770400	0.608100
H681	H68	0.548200	0.758700	0.544400
C921	C92	0.530300	0.736200	0.685100
H691	H69	0.532700	0.701400	0.673200
C931	C93	0.516900	0.753700	0.780000
H701	H70	0.509500	0.731000	0.831300
C941	C94	0.514900	0.805900	0.795700
H711	H71	0.506500	0.817800	0.859200
S81	S8	0.419220	0.865020	0.973350
C951	C95	0.360500	0.837400	0.947100
C961	C96	0.317200	0.859300	0.972700
H721	H72	0.317400	0.891000	0.004000
C971	C97	0.272400	0.835100	0.953000
H731	H73	0.243600	0.850800	0.974200
C981	C98	0.268800	0.789600	0.904200
H741	H74	0.238700	0.774900	0.886800
C991	C99	0.312900	0.767000	0.882800
H751	H75	0.312900	0.734300	0.855900
C1001	C100	0.357700	0.791000	0.899500
H761	H76	0.386500	0.775400	0.878100
O71	O7	0.506200	0.965300	0.917900
O81	O8	0.460200	0.969600	0.968000
Cd91	Cd9	0.938260	0.579660	0.821230
Cd101	Cd10	0.912950	0.579860	0.125590
N91	N9	0.886200	0.625200	0.711300
N101	N10	0.859900	0.631400	0.222800
C1011	C101	0.819500	0.681100	0.594900
C1021	C102	0.809800	0.688900	0.366900
C1031	C103	0.857600	0.681700	0.216900
H771	H77	0.872800	0.697500	0.162900
C1041	C104	0.838300	0.618000	0.716400
H781	H78	0.827600	0.592900	0.760300
C1051	C105	0.867900	0.688200	0.586200
H791	H79	0.879700	0.712100	0.540700
C1061	C106	0.833700	0.712200	0.286400
H801	H80	0.833700	0.747500	0.279600
C1071	C107	0.751900	0.744400	0.603800
H811	H81	0.754100	0.741500	0.673400
C1081	C108	0.781500	0.720900	0.439900
C1091	C109	0.802600	0.644000	0.662800
H821	H82	0.769300	0.637400	0.671000
C1101	C110	0.813500	0.636800	0.374400
H831	H83	0.799500	0.619900	0.428600
C1111	C111	0.837900	0.609700	0.302100
H841	H84	0.839300	0.574400	0.308300
C1121	C112	0.782800	0.713300	0.540500
C1131	C113	0.901200	0.659700	0.645700
H851	H85	0.934800	0.665300	0.638600
S91	S9	0.020520	0.592240	0.740400
C1141	C114	0.024800	0.659200	0.721900
C1151	C115	0.037500	0.678100	0.627100
H861	H86	0.044300	0.655300	0.575600
C1161	C116	0.040000	0.729600	0.608100
H871	H87	0.048200	0.741300	0.544400
C1171	C117	0.030300	0.763800	0.685100
H881	H88	0.032700	0.798600	0.673200
C1181	C118	0.016900	0.746300	0.780000
H891	H89	0.009500	0.769000	0.831300
C1191	C119	0.014900	0.694100	0.795700
H901	H90	0.006500	0.682200	0.859200
S101	S10	0.919220	0.634980	0.973350
C1201	C120	0.860500	0.662600	0.947100
C1211	C121	0.817200	0.640700	0.972700
H911	H91	0.817400	0.609000	0.004000
C1221	C122	0.772400	0.664900	0.953000
H921	H92	0.743600	0.649200	0.974200
C1231	C123	0.768800	0.710400	0.904200
H931	H93	0.738700	0.725100	0.886800
C1241	C124	0.812900	0.733000	0.882800
H941	H94	0.812900	0.765700	0.855900
C1251	C125	0.857700	0.709000	0.899500
H951	H95	0.886500	0.724600	0.878100
O91	O9	0.006200	0.534700	0.917900
O101	O10	0.960200	0.530400	0.968000
Cd111	Cd11	0.438260	0.079660	0.821230
Cd121	Cd12	0.412950	0.079860	0.125590
N111	N11	0.386200	0.125200	0.711300
N121	N12	0.359900	0.131400	0.222800
C1261	C126	0.319500	0.181100	0.594900
C1271	C127	0.309800	0.188900	0.366900
C1281	C128	0.357600	0.181700	0.216900
H961	H96	0.372800	0.197500	0.162900
C1291	C129	0.338300	0.118000	0.716400
H971	H97	0.327600	0.092900	0.760300
C1301	C130	0.367900	0.188200	0.586200
H981	H98	0.379700	0.212100	0.540700
C1311	C131	0.333700	0.212200	0.286400
H991	H99	0.333700	0.247500	0.279600
C1321	C132	0.251900	0.244400	0.603800
H1001	H100	0.254100	0.241500	0.673400
C1331	C133	0.281500	0.220900	0.439900
C1341	C134	0.302600	0.144000	0.662800
H1011	H101	0.269300	0.137400	0.671000
C1351	C135	0.313500	0.136800	0.374400
H1021	H102	0.299500	0.119900	0.428600
C1361	C136	0.337900	0.109700	0.302100
H1031	H103	0.339300	0.074400	0.308300
C1371	C137	0.282800	0.213300	0.540500
C1381	C138	0.401200	0.159700	0.645700
H1041	H104	0.434800	0.165300	0.638600
S111	S11	0.520520	0.092240	0.740400
C1391	C139	0.524800	0.159200	0.721900
C1401	C140	0.537500	0.178100	0.627100
H1051	H105	0.544300	0.155300	0.575600
C1411	C141	0.540000	0.229600	0.608100
H1061	H106	0.548200	0.241300	0.544400
C1421	C142	0.530300	0.263800	0.685100
H1071	H107	0.532700	0.298600	0.673200
C1431	C143	0.516900	0.246300	0.780000
H1081	H108	0.509500	0.269000	0.831300
C1441	C144	0.514900	0.194100	0.795700
H1091	H109	0.506500	0.182200	0.859200
S121	S12	0.419220	0.134980	0.973350
C1451	C145	0.360500	0.162600	0.947100
C1461	C146	0.317200	0.140700	0.972700
H1101	H110	0.317400	0.109000	0.004000
C1471	C147	0.272400	0.164900	0.953000
H1111	H111	0.243600	0.149200	0.974200
C1481	C148	0.268800	0.210400	0.904200
H1121	H112	0.238700	0.225100	0.886800
C1491	C149	0.312900	0.233000	0.882800
H1131	H113	0.312900	0.265700	0.855900
C1501	C150	0.357700	0.209000	0.899500
H1141	H114	0.386500	0.224600	0.878100
O111	O11	0.506200	0.034700	0.917900
O121	O12	0.460200	0.030400	0.968000
Cd131	Cd13	0.061740	0.579660	0.178770
Cd141	Cd14	0.087050	0.579860	0.874410
N131	N13	0.113800	0.625200	0.288700
N141	N14	0.140100	0.631400	0.777200
C1511	C151	0.180500	0.681100	0.405100
C1521	C152	0.190200	0.688900	0.633100
C1531	C153	0.142400	0.681700	0.783100
H1151	H115	0.127200	0.697500	0.837100
C1541	C154	0.161700	0.618000	0.283600
H1161	H116	0.172400	0.592900	0.239700
C1551	C155	0.132100	0.688200	0.413800
H1171	H117	0.120300	0.712100	0.459300
C1561	C156	0.166300	0.712200	0.713600
H1181	H118	0.166300	0.747500	0.720400
C1571	C157	0.248100	0.744400	0.396200
H1191	H119	0.245900	0.741500	0.326600
C1581	C158	0.218500	0.720900	0.560100
C1591	C159	0.197400	0.644000	0.337200
H1201	H120	0.230700	0.637400	0.329000
C1601	C160	0.186500	0.636800	0.625600
H1211	H121	0.200500	0.619900	0.571400
C1611	C161	0.162100	0.609700	0.697900
H1221	H122	0.160700	0.574400	0.691700
C1621	C162	0.217200	0.713300	0.459500
C1631	C163	0.098800	0.659700	0.354300
H1231	H123	0.065200	0.665300	0.361400
S131	S13	0.979480	0.592240	0.259600
C1641	C164	0.975200	0.659200	0.278100
C1651	C165	0.962500	0.678100	0.372900
H1241	H124	0.955700	0.655300	0.424400
C1661	C166	0.960000	0.729600	0.391900
H1251	H125	0.951800	0.741300	0.455600
C1671	C167	0.969700	0.763800	0.314900
H1261	H126	0.967300	0.798600	0.326800
C1681	C168	0.983100	0.746300	0.220000
H1271	H127	0.990500	0.769000	0.168700
C1691	C169	0.985100	0.694100	0.204300
H1281	H128	0.993500	0.682200	0.140800
S141	S14	0.080780	0.634980	0.026650
C1701	C170	0.139500	0.662600	0.052900
C1711	C171	0.182800	0.640700	0.027300
H1291	H129	0.182600	0.609000	0.996000
C1721	C172	0.227600	0.664900	0.047000
H1301	H130	0.256400	0.649200	0.025800
C1731	C173	0.231200	0.710400	0.095800
H1311	H131	0.261300	0.725100	0.113200
C1741	C174	0.187100	0.733000	0.117200
H1321	H132	0.187100	0.765700	0.144100
C1751	C175	0.142300	0.709000	0.100500
H1331	H133	0.113500	0.724600	0.121900
O131	O13	0.993800	0.534700	0.082100
O141	O14	0.039800	0.530400	0.032000
Cd151	Cd15	0.561740	0.079660	0.178770
Cd161	Cd16	0.587050	0.079860	0.874410
N151	N15	0.613800	0.125200	0.288700
N161	N16	0.640100	0.131400	0.777200
C1761	C176	0.680500	0.181100	0.405100
C1771	C177	0.690200	0.188900	0.633100
C1781	C178	0.642400	0.181700	0.783100
H1341	H134	0.627200	0.197500	0.837100
C1791	C179	0.661700	0.118000	0.283600
H1351	H135	0.672400	0.092900	0.239700
C1801	C180	0.632100	0.188200	0.413800
H1361	H136	0.620300	0.212100	0.459300
C1811	C181	0.666300	0.212200	0.713600
H1371	H137	0.666300	0.247500	0.720400
C1821	C182	0.748100	0.244400	0.396200
H1381	H138	0.745900	0.241500	0.326600
C1831	C183	0.718500	0.220900	0.560100
C1841	C184	0.697400	0.144000	0.337200
H1391	H139	0.730700	0.137400	0.329000
C1851	C185	0.686500	0.136800	0.625600
H1401	H140	0.700500	0.119900	0.571400
C1861	C186	0.662100	0.109700	0.697900
H1411	H141	0.660700	0.074400	0.691700
C1871	C187	0.717200	0.213300	0.459500
C1881	C188	0.598800	0.159700	0.354300
H1421	H142	0.565200	0.165300	0.361400
S151	S15	0.479480	0.092240	0.259600
C1891	C189	0.475200	0.159200	0.278100
C1901	C190	0.462500	0.178100	0.372900
H1431	H143	0.455700	0.155300	0.424400
C1911	C191	0.460000	0.229600	0.391900
H1441	H144	0.451800	0.241300	0.455600
C1921	C192	0.469700	0.263800	0.314900
H1451	H145	0.467300	0.298600	0.326800
C1931	C193	0.483100	0.246300	0.220000
H1461	H146	0.490500	0.269000	0.168700
C1941	C194	0.485100	0.194100	0.204300
H1471	H147	0.493500	0.182200	0.140800
S161	S16	0.580780	0.134980	0.026650
C1951	C195	0.639500	0.162600	0.052900
C1961	C196	0.682800	0.140700	0.027300
H1481	H148	0.682600	0.109000	0.996000
C1971	C197	0.727600	0.164900	0.047000
H1491	H149	0.756400	0.149200	0.025800
C1981	C198	0.731200	0.210400	0.095800
H1501	H150	0.761300	0.225100	0.113200
C1991	C199	0.687100	0.233000	0.117200
H1511	H151	0.687100	0.265700	0.144100
C2001	C200	0.642300	0.209000	0.100500
H1521	H152	0.613500	0.224600	0.121900
O151	O15	0.493800	0.034700	0.082100
O161	O16	0.539800	0.030400	0.032000
S171	S17	0.000000	0.500000	0.000000
S181	S18	0.500000	0.000000	0.000000
S191	S19	0.134900	0.500000	0.836700
C2011	C201	0.189100	0.500000	0.906000
C2021	C202	0.191300	0.500000	0.010500
H1531	H153	0.162200	0.500000	0.047000
C2031	C203	0.236400	0.500000	0.061000
H1541	H154	0.239200	0.500000	0.131000
C2041	C204	0.231200	0.500000	0.848000
H1551	H155	0.228400	0.500000	0.778400
C2051	C205	0.277500	0.500000	0.893000
H1561	H156	0.306500	0.500000	0.856800
C2061	C206	0.277000	0.500000	0.998000
H1571	H157	0.307700	0.500000	0.029600
S201	S20	0.110320	0.500000	0.215200
C2071	C207	0.109600	0.500000	0.350600
C2081	C208	0.068300	0.500000	0.404900
H1581	H158	0.038500	0.500000	0.369800
C2091	C209	0.066200	0.500000	0.506500
H1591	H159	0.036600	0.500000	0.541100
C2101	C210	0.110700	0.500000	0.554000
H1601	H160	0.110700	0.500000	0.623900
C2111	C211	0.154500	0.500000	0.508500
H1611	H161	0.184300	0.500000	0.543500
C2121	C212	0.151300	0.500000	0.405300
H1621	H162	0.180700	0.500000	0.370300
S211	S21	0.634900	0.000000	0.836700
C2131	C213	0.689100	0.000000	0.906000
C2141	C214	0.691300	0.000000	0.010500
H1631	H163	0.662200	0.000000	0.047000
C2151	C215	0.736400	0.000000	0.061000
H1641	H164	0.739200	0.000000	0.131000
C2161	C216	0.731200	0.000000	0.848000
H1651	H165	0.728400	0.000000	0.778400
C2171	C217	0.777500	0.000000	0.893000
H1661	H166	0.806500	0.000000	0.856800
C2181	C218	0.777000	0.000000	0.998000
H1671	H167	0.807700	0.000000	0.029600
S221	S22	0.610320	0.000000	0.215200
C2191	C219	0.609600	0.000000	0.350600
C2201	C220	0.568300	0.000000	0.404900
H1681	H168	0.538500	0.000000	0.369800
C2211	C221	0.566200	0.000000	0.506500
H1691	H169	0.536600	0.000000	0.541100
C2221	C222	0.610700	0.000000	0.554000
H1701	H170	0.610700	0.000000	0.623900
C2231	C223	0.654500	0.000000	0.508500
H1711	H171	0.684300	0.000000	0.543500
C2241	C224	0.651300	0.000000	0.405300
H1721	H172	0.680700	0.000000	0.370300
S231	S23	0.865100	0.500000	0.163300
C2251	C225	0.810900	0.500000	0.094000
C2261	C226	0.808700	0.500000	0.989500
H1731	H173	0.837800	0.500000	0.953000
C2271	C227	0.763600	0.500000	0.939000
H1741	H174	0.760800	0.500000	0.869000
C2281	C228	0.768800	0.500000	0.152000
H1751	H175	0.771600	0.500000	0.221600
C2291	C229	0.722500	0.500000	0.107000
H1761	H176	0.693500	0.500000	0.143200
C2301	C230	0.723000	0.500000	0.002000
H1771	H177	0.692300	0.500000	0.970400
S241	S24	0.889680	0.500000	0.784800
C2311	C231	0.890400	0.500000	0.649400
C2321	C232	0.931700	0.500000	0.595100
H1781	H178	0.961500	0.500000	0.630200
C2331	C233	0.933800	0.500000	0.493500
H1791	H179	0.963400	0.500000	0.458900
C2341	C234	0.889300	0.500000	0.446000
H1801	H180	0.889300	0.500000	0.376100
C2351	C235	0.845500	0.500000	0.491500
H1811	H181	0.815700	0.500000	0.456500
C2361	C236	0.848700	0.500000	0.594700
H1821	H182	0.819300	0.500000	0.629700
S251	S25	0.365100	0.000000	0.163300
C2371	C237	0.310900	0.000000	0.094000
C2381	C238	0.308700	0.000000	0.989500
H1831	H183	0.337800	0.000000	0.953000
C2391	C239	0.263600	0.000000	0.939000
H1841	H184	0.260800	0.000000	0.869000
C2401	C240	0.268800	0.000000	0.152000
H1851	H185	0.271600	0.000000	0.221600
C2411	C241	0.222500	0.000000	0.107000
H1861	H186	0.193500	0.000000	0.143200
C2421	C242	0.223000	0.000000	0.002000
H1871	H187	0.192300	0.000000	0.970400
S261	S26	0.389680	0.000000	0.784800
C2431	C243	0.390400	0.000000	0.649400
C2441	C244	0.431700	0.000000	0.595100
H1881	H188	0.461500	0.000000	0.630200
C2451	C245	0.433800	0.000000	0.493500
H1891	H189	0.463400	0.000000	0.458900
C2461	C246	0.389300	0.000000	0.446000
H1901	H190	0.389300	0.000000	0.376100
C2471	C247	0.345500	0.000000	0.491500
H1911	H191	0.315700	0.000000	0.456500
C2481	C248	0.348700	0.000000	0.594700
H1921	H192	0.319300	0.000000	0.629700
