data_EGOXII_freeONLY_PM
_symmetry_space_group_name_H-M	'P1'
_cell_length_a	18.618000
_cell_length_b	8.760100
_cell_length_c	17.484000
_cell_angle_alpha	90.000000
_cell_angle_beta	93.430000
_cell_angle_gamma	90.000000
_symmetry_Int_Tables_number 1

loop_
_symmetry_equiv_pos_as_xyz
'x,y,z'

loop_
_atom_site_label
_atom_site_type_symbol
_atom_site_fract_x
_atom_site_fract_y
_atom_site_fract_z
Zn11	Zn1	0.320580	0.974500	0.096840
Zn21	Zn2	0.015560	0.991220	0.115500
Zn31	Zn3	0.407250	0.481560	0.262410
Zn41	Zn4	0.159880	0.487740	0.089210
P11	P1	0.165240	0.845470	0.082240
H11	H1	0.165000	0.940000	0.025000
P21	P2	0.310700	0.333960	0.133060
H21	H2	0.372000	0.339000	0.100000
P31	P3	0.953640	0.740200	0.997680
H31	H3	0.004000	0.653000	0.023000
P41	P4	0.963330	0.019670	0.292590
H41	H4	0.984000	0.159000	0.319000
P51	P5	0.386410	0.017580	0.938140
H51	H5	0.451000	0.988000	0.968000
P61	P6	0.451050	0.800030	0.176050
H61	H6	0.471000	0.780000	0.103000
O11	O1	0.239100	0.848000	0.123900
O21	O2	0.283400	0.172300	0.123600
O31	O3	0.339200	0.930600	0.992300
O41	O4	0.394900	0.926400	0.175800
O51	O5	0.108200	0.896100	0.135800
O61	O6	0.947800	0.870900	0.053600
O71	O7	0.968600	0.024700	0.208100
O81	O8	0.977300	0.796200	0.919800
O91	O9	0.323000	0.373300	0.217100
O101	O10	0.380000	0.937400	0.860600
O111	O11	0.515800	0.835500	0.229200
O121	O12	0.418700	0.647700	0.192500
O131	O13	0.885800	0.645400	0.990200
O141	O14	0.148300	0.692600	0.045100
O151	O15	0.261100	0.446700	0.088900
O161	O16	0.889700	0.978500	0.317600
O171	O17	0.022300	0.912300	0.329600
H71	H7	0.003600	0.850500	0.357500
O181	O18	0.373800	0.184900	0.935300
Zn51	Zn5	0.679420	0.474500	0.403160
Zn61	Zn6	0.984440	0.491220	0.384500
Zn71	Zn7	0.592750	0.981560	0.237590
Zn81	Zn8	0.840120	0.987740	0.410790
P71	P7	0.834760	0.345470	0.417760
H81	H8	0.835000	0.440000	0.475000
P81	P8	0.689300	0.833960	0.366940
H91	H9	0.628000	0.839000	0.400000
P91	P9	0.046360	0.240200	0.502320
H101	H10	0.996000	0.153000	0.477000
P101	P10	0.036670	0.519670	0.207410
H111	H11	0.016000	0.659000	0.181000
P111	P11	0.613590	0.517580	0.561860
H121	H12	0.549000	0.488000	0.532000
P121	P12	0.548950	0.300030	0.323950
H131	H13	0.529000	0.280000	0.397000
O191	O19	0.760900	0.348000	0.376100
O201	O20	0.716600	0.672300	0.376400
O211	O21	0.660800	0.430600	0.507700
O221	O22	0.605100	0.426400	0.324200
O231	O23	0.891800	0.396100	0.364200
O241	O24	0.052200	0.370900	0.446400
O251	O25	0.031400	0.524700	0.291900
O261	O26	0.022700	0.296200	0.580200
O271	O27	0.677000	0.873300	0.282900
O281	O28	0.620000	0.437400	0.639400
O291	O29	0.484200	0.335500	0.270800
O301	O30	0.581300	0.147700	0.307500
O311	O31	0.114200	0.145400	0.509800
O321	O32	0.851700	0.192600	0.454900
O331	O33	0.738900	0.946700	0.411100
O341	O34	0.110300	0.478500	0.182400
O351	O35	0.977700	0.412300	0.170400
H141	H14	0.996400	0.350500	0.142500
O361	O36	0.626200	0.684900	0.564700
Zn91	Zn9	0.679420	0.025500	0.903160
Zn101	Zn10	0.984440	0.008780	0.884500
Zn111	Zn11	0.592750	0.518440	0.737590
Zn121	Zn12	0.840120	0.512260	0.910790
P131	P13	0.834760	0.154530	0.917760
H151	H15	0.835000	0.060000	0.975000
P141	P14	0.689300	0.666040	0.866940
H161	H16	0.628000	0.661000	0.900000
P151	P15	0.046360	0.259800	0.002320
H171	H17	0.996000	0.347000	0.977000
P161	P16	0.036670	0.980330	0.707410
H181	H18	0.016000	0.841000	0.681000
P171	P17	0.613590	0.982420	0.061860
H191	H19	0.549000	0.012000	0.032000
P181	P18	0.548950	0.199970	0.823950
H201	H20	0.529000	0.220000	0.897000
O371	O37	0.760900	0.152000	0.876100
O381	O38	0.716600	0.827700	0.876400
O391	O39	0.660800	0.069400	0.007700
O401	O40	0.605100	0.073600	0.824200
O411	O41	0.891800	0.103900	0.864200
O421	O42	0.052200	0.129100	0.946400
O431	O43	0.031400	0.975300	0.791900
O441	O44	0.022700	0.203800	0.080200
O451	O45	0.677000	0.626700	0.782900
O461	O46	0.620000	0.062600	0.139400
O471	O47	0.484200	0.164500	0.770800
O481	O48	0.581300	0.352300	0.807500
O491	O49	0.114200	0.354600	0.009800
O501	O50	0.851700	0.307400	0.954900
O511	O51	0.738900	0.553300	0.911100
O521	O52	0.110300	0.021500	0.682400
O531	O53	0.977700	0.087700	0.670400
H211	H21	0.996400	0.149500	0.642500
O541	O54	0.626200	0.815100	0.064700
Zn131	Zn13	0.320580	0.525500	0.596840
Zn141	Zn14	0.015560	0.508780	0.615500
Zn151	Zn15	0.407250	0.018440	0.762410
Zn161	Zn16	0.159880	0.012260	0.589210
P191	P19	0.165240	0.654530	0.582240
H221	H22	0.165000	0.560000	0.525000
P201	P20	0.310700	0.166040	0.633060
H231	H23	0.372000	0.161000	0.600000
P211	P21	0.953640	0.759800	0.497680
H241	H24	0.004000	0.847000	0.523000
P221	P22	0.963330	0.480330	0.792590
H251	H25	0.984000	0.341000	0.819000
P231	P23	0.386410	0.482420	0.438140
H261	H26	0.451000	0.512000	0.468000
P241	P24	0.451050	0.699970	0.676050
H271	H27	0.471000	0.720000	0.603000
O551	O55	0.239100	0.652000	0.623900
O561	O56	0.283400	0.327700	0.623600
O571	O57	0.339200	0.569400	0.492300
O581	O58	0.394900	0.573600	0.675800
O591	O59	0.108200	0.603900	0.635800
O601	O60	0.947800	0.629100	0.553600
O611	O61	0.968600	0.475300	0.708100
O621	O62	0.977300	0.703800	0.419800
O631	O63	0.323000	0.126700	0.717100
O641	O64	0.380000	0.562600	0.360600
O651	O65	0.515800	0.664500	0.729200
O661	O66	0.418700	0.852300	0.692500
O671	O67	0.885800	0.854600	0.490200
O681	O68	0.148300	0.807400	0.545100
O691	O69	0.261100	0.053300	0.588900
O701	O70	0.889700	0.521500	0.817600
O711	O71	0.022300	0.587700	0.829600
H281	H28	0.003600	0.649500	0.857500
O721	O72	0.373800	0.315100	0.435300
