data_EHAGUR_freeONLY_PM
_symmetry_space_group_name_H-M	'P1'
_cell_length_a	10.536300
_cell_length_b	11.469800
_cell_length_c	13.411400
_cell_angle_alpha	69.028000
_cell_angle_beta	78.406000
_cell_angle_gamma	63.414000
_symmetry_Int_Tables_number 1

loop_
_symmetry_equiv_pos_as_xyz
'x,y,z'

loop_
_atom_site_label
_atom_site_type_symbol
_atom_site_fract_x
_atom_site_fract_y
_atom_site_fract_z
U11	U1	0.623820	0.712450	0.836960
Dy11	Dy1	0.600330	0.229420	0.749300
C11	C1	0.996400	0.341500	0.853800
C21	C2	0.111000	0.312000	0.910500
H11	H1	0.095800	0.357700	0.959700
C31	C3	0.247900	0.215100	0.894700
C41	C4	0.266600	0.141900	0.823700
C51	C5	0.145700	0.164800	0.775100
H21	H2	0.155700	0.109600	0.734900
C61	C6	0.015500	0.265600	0.786100
C71	C7	0.626000	0.998700	0.451500
H31	H3	0.712600	0.998000	0.418300
C81	C8	0.618600	0.875700	0.506000
C91	C9	0.487900	0.875900	0.557100
C101	C10	0.862100	0.463000	0.860700
C111	C11	0.362300	0.192700	0.957900
C121	C12	0.408300	0.041000	0.794800
C131	C13	0.896400	0.291300	0.725000
C141	C14	0.468000	0.747400	0.622100
C151	C15	0.743100	0.745500	0.508400
O11	O1	0.531400	0.634200	0.945200
O21	O2	0.719100	0.788700	0.730600
O31	O3	0.068400	0.499800	0.609600
O41	O4	0.850400	0.535300	0.914800
O51	O5	0.761900	0.495000	0.803100
O61	O6	0.815000	0.233800	0.772000
O71	O7	0.887700	0.362300	0.628300
O81	O8	0.417000	0.920100	0.820000
O91	O9	0.502100	0.077100	0.751900
O101	O10	0.483600	0.174800	0.916700
O111	O11	0.326300	0.196500	0.052400
O121	O12	0.502000	0.695100	0.718400
O131	O13	0.410700	0.701500	0.581600
O141	O14	0.733000	0.633600	0.533600
O151	O15	0.866100	0.750500	0.479100
O161	O16	0.718100	0.152300	0.603500
H41	H4	0.671600	0.181100	0.544000
H51	H5	0.810200	0.093300	0.606900
O171	O17	0.608400	0.421000	0.604900
H61	H6	0.528400	0.485800	0.572100
H71	H7	0.691600	0.428700	0.582900
O181	O18	0.367900	0.376200	0.682200
H81	H8	0.316500	0.453200	0.700700
H91	H9	0.331900	0.354900	0.639200
O191	O19	0.523400	0.410200	0.825900
H101	H10	0.437000	0.479700	0.812500
H111	H11	0.580800	0.408900	0.868200
O201	O20	0.766900	0.010400	0.835800
H121	H12	0.742800	0.938700	0.858900
H131	H13	0.854600	0.998100	0.845500
U21	U2	0.376180	0.287550	0.163040
Dy21	Dy2	0.399670	0.770580	0.250700
C161	C16	0.003600	0.658500	0.146200
C171	C17	0.889000	0.688000	0.089500
H141	H14	0.904200	0.642300	0.040300
C181	C18	0.752100	0.784900	0.105300
C191	C19	0.733400	0.858100	0.176300
C201	C20	0.854300	0.835200	0.224900
H151	H15	0.844300	0.890400	0.265100
C211	C21	0.984500	0.734400	0.213900
C221	C22	0.374000	0.001300	0.548500
H161	H16	0.287400	0.002000	0.581700
C231	C23	0.381400	0.124300	0.494000
C241	C24	0.512100	0.124100	0.442900
C251	C25	0.137900	0.537000	0.139300
C261	C26	0.637700	0.807300	0.042100
C271	C27	0.591700	0.959000	0.205200
C281	C28	0.103600	0.708700	0.275000
C291	C29	0.532000	0.252600	0.377900
C301	C30	0.256900	0.254500	0.491600
O211	O21	0.468600	0.365800	0.054800
O221	O22	0.280900	0.211300	0.269400
O231	O23	0.931600	0.500200	0.390400
O241	O24	0.149600	0.464700	0.085200
O251	O25	0.238100	0.505000	0.196900
O261	O26	0.185000	0.766200	0.228000
O271	O27	0.112300	0.637700	0.371700
O281	O28	0.583000	0.079900	0.180000
O291	O29	0.497900	0.922900	0.248100
O301	O30	0.516400	0.825200	0.083300
O311	O31	0.673700	0.803500	0.947600
O321	O32	0.498000	0.304900	0.281600
O331	O33	0.589300	0.298500	0.418400
O341	O34	0.267000	0.366400	0.466400
O351	O35	0.133900	0.249500	0.520900
O361	O36	0.281900	0.847700	0.396500
H171	H17	0.328400	0.818900	0.456000
H181	H18	0.189800	0.906700	0.393100
O371	O37	0.391600	0.579000	0.395100
H191	H19	0.471600	0.514200	0.427900
H201	H20	0.308400	0.571300	0.417100
O381	O38	0.632100	0.623800	0.317800
H211	H21	0.683500	0.546800	0.299300
H221	H22	0.668100	0.645100	0.360800
O391	O39	0.476600	0.589800	0.174100
H231	H23	0.563000	0.520300	0.187500
H241	H24	0.419200	0.591100	0.131800
O401	O40	0.233100	0.989600	0.164200
H251	H25	0.257200	0.061300	0.141100
H261	H26	0.145400	0.001900	0.154500
U31	U3	0.000000	0.500000	0.500000
