data_EJIDUW02_freeONLY_PM
_symmetry_space_group_name_H-M	'P1'
_cell_length_a	9.241000
_cell_length_b	9.745950
_cell_length_c	10.661000
_cell_angle_alpha	67.711600
_cell_angle_beta	84.680000
_cell_angle_gamma	61.735200
_symmetry_Int_Tables_number 1

loop_
_symmetry_equiv_pos_as_xyz
'x,y,z'

loop_
_atom_site_label
_atom_site_type_symbol
_atom_site_fract_x
_atom_site_fract_y
_atom_site_fract_z
Nd11	Nd1	0.779690	0.456490	0.018390
Nd21	Nd2	0.220310	0.543510	0.981610
H11	H1	0.588300	0.962700	0.127900
H21	H2	0.564000	0.967000	0.272800
H31	H3	0.566200	0.699800	0.389500
H41	H4	0.638200	0.659700	0.249400
H51	H5	0.544800	0.462300	0.382000
H61	H6	0.361800	0.622000	0.373900
H71	H7	0.115900	0.277100	0.430500
H81	H8	0.176700	0.406200	0.356700
H91	H9	0.323600	0.939900	0.263900
H101	H10	0.379000	0.905400	0.135000
H111	H11	0.120200	0.197500	0.030000
H121	H12	0.052700	0.093700	0.081500
H131	H13	0.806100	0.109200	0.184900
H141	H14	0.650600	0.216100	0.167100
H151	H15	0.874100	0.477900	0.463400
H161	H16	0.901500	0.632800	0.367300
H171	H17	0.411700	0.037300	0.872100
H181	H18	0.436000	0.033000	0.727200
H191	H19	0.433800	0.300200	0.610500
H201	H20	0.361800	0.340300	0.750600
H211	H21	0.455200	0.537700	0.618000
H221	H22	0.638200	0.378000	0.626100
H231	H23	0.884100	0.722900	0.569500
H241	H24	0.823300	0.593800	0.643300
H251	H25	0.676400	0.060100	0.736100
H261	H26	0.621000	0.094600	0.865000
H271	H27	0.879800	0.802500	0.970000
H281	H28	0.947300	0.906300	0.918500
H291	H29	0.193900	0.890800	0.815100
H301	H30	0.349400	0.783900	0.832900
H311	H31	0.125900	0.522100	0.536600
H321	H32	0.098500	0.367200	0.632700
C11	C1	0.409300	0.585200	0.190540
C21	C2	0.513200	0.986500	0.189900
C31	C3	0.535500	0.699400	0.298500
C41	C4	0.992200	0.405100	0.250530
C51	C5	0.455500	0.587300	0.320800
C61	C6	0.078200	0.384300	0.374200
C71	C7	0.405600	0.174800	0.122100
C81	C8	0.421500	0.884900	0.214900
C91	C9	0.958400	0.505500	0.438800
C101	C10	0.590700	0.414800	0.809460
C111	C11	0.486800	0.013500	0.810100
C121	C12	0.464500	0.300600	0.701500
C131	C13	0.007800	0.594900	0.749470
C141	C14	0.544500	0.412700	0.679200
C151	C15	0.921800	0.615700	0.625800
C161	C16	0.594400	0.825200	0.877900
C171	C17	0.578500	0.115100	0.785100
C181	C18	0.041600	0.494500	0.561200
O11	O1	0.516600	0.548900	0.110820
O21	O2	0.028160	0.466800	0.132850
O31	O3	0.305210	0.237220	0.018840
O41	O4	0.263420	0.616900	0.166190
O51	O5	0.420710	0.270390	0.168020
O61	O6	0.877800	0.366300	0.263850
O71	O7	0.034300	0.192500	0.037380
O81	O8	0.745500	0.205800	0.150500
O91	O9	0.483400	0.451100	0.889180
O101	O10	0.971840	0.533200	0.867150
O111	O11	0.694790	0.762780	0.981160
O121	O12	0.736580	0.383100	0.833810
O131	O13	0.579290	0.729610	0.831980
O141	O14	0.122200	0.633700	0.736150
O151	O15	0.965700	0.807500	0.962620
O161	O16	0.254500	0.794200	0.849500
