data_EKIGOW_freeONLY_PM
_symmetry_space_group_name_H-M	'P1'
_cell_length_a	17.123200
_cell_length_b	17.123200
_cell_length_c	11.308600
_cell_angle_alpha	90.000000
_cell_angle_beta	90.000000
_cell_angle_gamma	90.000000
_symmetry_Int_Tables_number 1

loop_
_symmetry_equiv_pos_as_xyz
'x,y,z'

loop_
_atom_site_label
_atom_site_type_symbol
_atom_site_fract_x
_atom_site_fract_y
_atom_site_fract_z
N11	N1	0.832190	0.330590	0.148200
N21	N2	0.897880	0.422000	0.041700
N31	N3	0.821380	0.409940	0.862300
N41	N4	0.802930	0.335830	0.035000
O11	O1	0.707920	0.245720	0.066500
C11	C1	0.888700	0.383300	0.145400
H11	H1	0.920300	0.393200	0.210600
C21	C2	0.840700	0.391700	0.971800
C31	C3	0.761000	0.369400	0.817300
C41	C4	0.719800	0.312400	0.878900
H21	H2	0.679000	0.286300	0.841700
C51	C5	0.738700	0.293600	0.995400
C61	C6	0.738000	0.390800	0.692000
H31	H3	0.731000	0.446300	0.686500
H41	H4	0.690000	0.365000	0.671900
H51	H5	0.778300	0.374700	0.638400
N51	N5	0.332190	0.830590	0.648200
N61	N6	0.397880	0.922000	0.541700
N71	N7	0.321380	0.909940	0.362300
N81	N8	0.302930	0.835830	0.535000
O21	O2	0.207920	0.745720	0.566500
C71	C7	0.388700	0.883300	0.645400
H61	H6	0.420300	0.893200	0.710600
C81	C8	0.340700	0.891700	0.471800
C91	C9	0.261000	0.869400	0.317300
C101	C10	0.219800	0.812400	0.378900
H71	H7	0.179000	0.786300	0.341700
C111	C11	0.238700	0.793600	0.495400
C121	C12	0.238000	0.890800	0.192000
H81	H8	0.231000	0.946300	0.186500
H91	H9	0.190000	0.865000	0.171900
H101	H10	0.278300	0.874700	0.138400
N91	N9	0.667810	0.669410	0.648200
N101	N10	0.602120	0.578000	0.541700
N111	N11	0.678620	0.590060	0.362300
N121	N12	0.697070	0.664170	0.535000
O31	O3	0.792080	0.754280	0.566500
C131	C13	0.611300	0.616700	0.645400
H111	H11	0.579700	0.606800	0.710600
C141	C14	0.659300	0.608300	0.471800
C151	C15	0.739000	0.630600	0.317300
C161	C16	0.780200	0.687600	0.378900
H121	H12	0.821000	0.713700	0.341700
C171	C17	0.761300	0.706400	0.495400
C181	C18	0.762000	0.609200	0.192000
H131	H13	0.769000	0.553700	0.186500
H141	H14	0.810000	0.635000	0.171900
H151	H15	0.721700	0.625300	0.138400
N131	N13	0.167810	0.169410	0.148200
N141	N14	0.102120	0.078000	0.041700
N151	N15	0.178620	0.090060	0.862300
N161	N16	0.197070	0.164170	0.035000
O41	O4	0.292080	0.254280	0.066500
C191	C19	0.111300	0.116700	0.145400
H161	H16	0.079700	0.106800	0.210600
C201	C20	0.159300	0.108300	0.971800
C211	C21	0.239000	0.130600	0.817300
C221	C22	0.280200	0.187600	0.878900
H171	H17	0.321000	0.213700	0.841700
C231	C23	0.261300	0.206400	0.995400
C241	C24	0.262000	0.109200	0.692000
H181	H18	0.269000	0.053700	0.686500
H191	H19	0.310000	0.135000	0.671900
H201	H20	0.221700	0.125300	0.638400
N171	N17	0.419410	0.082190	0.398200
N181	N18	0.328000	0.147880	0.291700
N191	N19	0.340060	0.071380	0.112300
N201	N20	0.414170	0.052930	0.285000
O51	O5	0.504280	0.957920	0.316500
C251	C25	0.366700	0.138700	0.395400
H211	H21	0.356800	0.170300	0.460600
C261	C26	0.358300	0.090700	0.221800
C271	C27	0.380600	0.011000	0.067300
C281	C28	0.437600	0.969800	0.128900
H221	H22	0.463700	0.929000	0.091700
C291	C29	0.456400	0.988700	0.245400
C301	C30	0.359200	0.988000	0.942000
H231	H23	0.303700	0.981000	0.936500
H241	H24	0.385000	0.940000	0.921900
H251	H25	0.375300	0.028300	0.888400
N211	N21	0.919410	0.582190	0.898200
N221	N22	0.828000	0.647880	0.791700
N231	N23	0.840060	0.571380	0.612300
N241	N24	0.914170	0.552930	0.785000
O61	O6	0.004280	0.457920	0.816500
C311	C31	0.866700	0.638700	0.895400
H261	H26	0.856800	0.670300	0.960600
C321	C32	0.858300	0.590700	0.721800
C331	C33	0.880600	0.511000	0.567300
C341	C34	0.937600	0.469800	0.628900
H271	H27	0.963700	0.429000	0.591700
C351	C35	0.956400	0.488700	0.745400
C361	C36	0.859200	0.488000	0.442000
H281	H28	0.803700	0.481000	0.436500
H291	H29	0.885000	0.440000	0.421900
H301	H30	0.875300	0.528300	0.388400
N251	N25	0.080590	0.917810	0.898200
N261	N26	0.172000	0.852120	0.791700
N271	N27	0.159940	0.928620	0.612300
N281	N28	0.085830	0.947070	0.785000
O71	O7	0.995720	0.042080	0.816500
C371	C37	0.133300	0.861300	0.895400
H311	H31	0.143200	0.829700	0.960600
C381	C38	0.141700	0.909300	0.721800
C391	C39	0.119400	0.989000	0.567300
C401	C40	0.062400	0.030200	0.628900
H321	H32	0.036300	0.071000	0.591700
C411	C41	0.043600	0.011300	0.745400
C421	C42	0.140800	0.012000	0.442000
H331	H33	0.196300	0.019000	0.436500
H341	H34	0.115000	0.060000	0.421900
H351	H35	0.124700	0.971700	0.388400
N291	N29	0.580590	0.417810	0.398200
N301	N30	0.672000	0.352120	0.291700
N311	N31	0.659940	0.428620	0.112300
N321	N32	0.585830	0.447070	0.285000
O81	O8	0.495720	0.542080	0.316500
C431	C43	0.633300	0.361300	0.395400
H361	H36	0.643200	0.329700	0.460600
C441	C44	0.641700	0.409300	0.221800
C451	C45	0.619400	0.489000	0.067300
C461	C46	0.562400	0.530200	0.128900
H371	H37	0.536300	0.571000	0.091700
C471	C47	0.543600	0.511300	0.245400
C481	C48	0.640800	0.512000	0.942000
H381	H38	0.696300	0.519000	0.936500
H391	H39	0.615000	0.560000	0.921900
H401	H40	0.624700	0.471700	0.888400
N331	N33	0.167810	0.669410	0.851800
N341	N34	0.102120	0.578000	0.958300
N351	N35	0.178620	0.590060	0.137700
N361	N36	0.197070	0.664170	0.965000
O91	O9	0.292080	0.754280	0.933500
C491	C49	0.111300	0.616700	0.854600
H411	H41	0.079700	0.606800	0.789400
C501	C50	0.159300	0.608300	0.028200
C511	C51	0.239000	0.630600	0.182700
C521	C52	0.280200	0.687600	0.121100
H421	H42	0.321000	0.713700	0.158300
C531	C53	0.261300	0.706400	0.004600
C541	C54	0.262000	0.609200	0.308000
H431	H43	0.269000	0.553700	0.313500
H441	H44	0.310000	0.635000	0.328100
H451	H45	0.221700	0.625300	0.361600
N371	N37	0.667810	0.169410	0.351800
N381	N38	0.602120	0.078000	0.458300
N391	N39	0.678620	0.090060	0.637700
N401	N40	0.697070	0.164170	0.465000
O101	O10	0.792080	0.254280	0.433500
C551	C55	0.611300	0.116700	0.354600
H461	H46	0.579700	0.106800	0.289400
C561	C56	0.659300	0.108300	0.528200
C571	C57	0.739000	0.130600	0.682700
C581	C58	0.780200	0.187600	0.621100
H471	H47	0.821000	0.213700	0.658300
C591	C59	0.761300	0.206400	0.504600
C601	C60	0.762000	0.109200	0.808000
H481	H48	0.769000	0.053700	0.813500
H491	H49	0.810000	0.135000	0.828100
H501	H50	0.721700	0.125300	0.861600
N411	N41	0.332190	0.330590	0.351800
N421	N42	0.397880	0.422000	0.458300
N431	N43	0.321380	0.409940	0.637700
N441	N44	0.302930	0.335830	0.465000
O111	O11	0.207920	0.245720	0.433500
C611	C61	0.388700	0.383300	0.354600
H511	H51	0.420300	0.393200	0.289400
C621	C62	0.340700	0.391700	0.528200
C631	C63	0.261000	0.369400	0.682700
C641	C64	0.219800	0.312400	0.621100
H521	H52	0.179000	0.286300	0.658300
C651	C65	0.238700	0.293600	0.504600
C661	C66	0.238000	0.390800	0.808000
H531	H53	0.231000	0.446300	0.813500
H541	H54	0.190000	0.365000	0.828100
H551	H55	0.278300	0.374700	0.861600
N451	N45	0.832190	0.830590	0.851800
N461	N46	0.897880	0.922000	0.958300
N471	N47	0.821380	0.909940	0.137700
N481	N48	0.802930	0.835830	0.965000
O121	O12	0.707920	0.745720	0.933500
C671	C67	0.888700	0.883300	0.854600
H561	H56	0.920300	0.893200	0.789400
C681	C68	0.840700	0.891700	0.028200
C691	C69	0.761000	0.869400	0.182700
C701	C70	0.719800	0.812400	0.121100
H571	H57	0.679000	0.786300	0.158300
C711	C71	0.738700	0.793600	0.004600
C721	C72	0.738000	0.890800	0.308000
H581	H58	0.731000	0.946300	0.313500
H591	H59	0.690000	0.865000	0.328100
H601	H60	0.778300	0.874700	0.361600
N491	N49	0.580590	0.917810	0.601800
N501	N50	0.672000	0.852120	0.708300
N511	N51	0.659940	0.928620	0.887700
N521	N52	0.585830	0.947070	0.715000
O131	O13	0.495720	0.042080	0.683500
C731	C73	0.633300	0.861300	0.604600
H611	H61	0.643200	0.829700	0.539400
C741	C74	0.641700	0.909300	0.778200
C751	C75	0.619400	0.989000	0.932700
C761	C76	0.562400	0.030200	0.871100
H621	H62	0.536300	0.071000	0.908300
C771	C77	0.543600	0.011300	0.754600
C781	C78	0.640800	0.012000	0.058000
H631	H63	0.696300	0.019000	0.063500
H641	H64	0.615000	0.060000	0.078100
H651	H65	0.624700	0.971700	0.111600
N531	N53	0.080590	0.417810	0.101800
N541	N54	0.172000	0.352120	0.208300
N551	N55	0.159940	0.428620	0.387700
N561	N56	0.085830	0.447070	0.215000
O141	O14	0.995720	0.542080	0.183500
C791	C79	0.133300	0.361300	0.104600
H661	H66	0.143200	0.329700	0.039400
C801	C80	0.141700	0.409300	0.278200
C811	C81	0.119400	0.489000	0.432700
C821	C82	0.062400	0.530200	0.371100
H671	H67	0.036300	0.571000	0.408300
C831	C83	0.043600	0.511300	0.254600
C841	C84	0.140800	0.512000	0.558000
H681	H68	0.196300	0.519000	0.563500
H691	H69	0.115000	0.560000	0.578100
H701	H70	0.124700	0.471700	0.611600
N571	N57	0.919410	0.082190	0.101800
N581	N58	0.828000	0.147880	0.208300
N591	N59	0.840060	0.071380	0.387700
N601	N60	0.914170	0.052930	0.215000
O151	O15	0.004280	0.957920	0.183500
C851	C85	0.866700	0.138700	0.104600
H711	H71	0.856800	0.170300	0.039400
C861	C86	0.858300	0.090700	0.278200
C871	C87	0.880600	0.011000	0.432700
C881	C88	0.937600	0.969800	0.371100
H721	H72	0.963700	0.929000	0.408300
C891	C89	0.956400	0.988700	0.254600
C901	C90	0.859200	0.988000	0.558000
H731	H73	0.803700	0.981000	0.563500
H741	H74	0.885000	0.940000	0.578100
H751	H75	0.875300	0.028300	0.611600
N611	N61	0.419410	0.582190	0.601800
N621	N62	0.328000	0.647880	0.708300
N631	N63	0.340060	0.571380	0.887700
N641	N64	0.414170	0.552930	0.715000
O161	O16	0.504280	0.457920	0.683500
C911	C91	0.366700	0.638700	0.604600
H761	H76	0.356800	0.670300	0.539400
C921	C92	0.358300	0.590700	0.778200
C931	C93	0.380600	0.511000	0.932700
C941	C94	0.437600	0.469800	0.871100
H771	H77	0.463700	0.429000	0.908300
C951	C95	0.456400	0.488700	0.754600
C961	C96	0.359200	0.488000	0.058000
H781	H78	0.303700	0.481000	0.063500
H791	H79	0.385000	0.440000	0.078100
H801	H80	0.375300	0.528300	0.111600
Mn11	Mn1	0.000000	0.500000	0.000000
Mn21	Mn2	0.500000	0.000000	0.500000
Mn31	Mn3	0.500000	0.500000	0.500000
Mn41	Mn4	0.000000	0.000000	0.000000
Mn51	Mn5	0.250000	0.250000	0.250000
Mn61	Mn6	0.250000	0.750000	0.750000
Mn71	Mn7	0.750000	0.750000	0.750000
Mn81	Mn8	0.750000	0.250000	0.250000
