data_ELIKAM_freeONLY_PM
_symmetry_space_group_name_H-M	'P1'
_cell_length_a	9.398000
_cell_length_b	9.911000
_cell_length_c	11.422000
_cell_angle_alpha	93.965000
_cell_angle_beta	98.131000
_cell_angle_gamma	110.782000
_symmetry_Int_Tables_number 1

loop_
_symmetry_equiv_pos_as_xyz
'x,y,z'

loop_
_atom_site_label
_atom_site_type_symbol
_atom_site_fract_x
_atom_site_fract_y
_atom_site_fract_z
Pr11	Pr1	0.284280	0.545600	0.485120
Pr21	Pr2	0.715720	0.454400	0.514880
H11	H1	0.940200	0.397800	0.074000
H21	H2	0.849800	0.273700	0.882500
H31	H3	0.170100	0.095700	0.931400
H41	H4	0.263300	0.221900	0.117300
H51	H5	0.919700	0.866100	0.663700
H61	H6	0.319400	0.995100	0.538200
H71	H7	0.198600	0.286400	0.719100
H81	H8	0.059800	0.602200	0.926000
H91	H9	0.150200	0.726300	0.117500
H101	H10	0.829900	0.904300	0.068600
H111	H11	0.736700	0.778100	0.882700
H121	H12	0.080300	0.133900	0.336300
H131	H13	0.680600	0.004900	0.461800
H141	H14	0.801400	0.713600	0.280900
C11	C1	0.176600	0.410500	0.236500
C21	C2	0.116500	0.326500	0.116600
C31	C3	0.988700	0.339000	0.044600
C41	C4	0.934100	0.264400	0.929800
C51	C5	0.004500	0.177800	0.887000
C61	C6	0.125900	0.159200	0.959200
C71	C7	0.180200	0.233800	0.070600
C81	C8	0.048800	0.078600	0.706200
C91	C9	0.011400	0.938700	0.654900
C101	C10	0.111500	0.906400	0.589800
C111	C11	0.075400	0.755400	0.532900
C121	C12	0.248600	0.016800	0.577600
C131	C13	0.278400	0.157500	0.624100
C141	C14	0.178700	0.190800	0.688500
C151	C15	0.420300	0.274600	0.602400
C161	C16	0.823400	0.589500	0.763500
C171	C17	0.883500	0.673500	0.883400
C181	C18	0.011300	0.661000	0.955400
C191	C19	0.065900	0.735600	0.070200
C201	C20	0.995500	0.822200	0.113000
C211	C21	0.874100	0.840800	0.040800
C221	C22	0.819800	0.766200	0.929400
C231	C23	0.951200	0.921400	0.293800
C241	C24	0.988600	0.061300	0.345100
C251	C25	0.888500	0.093600	0.410200
C261	C26	0.924600	0.244600	0.467100
C271	C27	0.751400	0.983200	0.422400
C281	C28	0.721600	0.842500	0.375900
C291	C29	0.821300	0.809200	0.311500
C301	C30	0.579700	0.725400	0.397600
O11	O1	0.284900	0.389400	0.302300
O21	O2	0.122400	0.500300	0.273700
O31	O3	0.491300	0.719500	0.650000
O41	O4	0.944800	0.662200	0.531600
O51	O5	0.188200	0.542500	0.685100
O61	O6	0.178700	0.730200	0.488000
O71	O7	0.414700	0.394100	0.574400
O81	O8	0.546200	0.251800	0.611300
O91	O9	0.944400	0.106200	0.772900
O101	O10	0.715100	0.610600	0.697700
O111	O11	0.877600	0.499700	0.726300
O121	O12	0.508700	0.280500	0.350000
O131	O13	0.055200	0.337800	0.468400
O141	O14	0.811800	0.457500	0.314900
O151	O15	0.821300	0.269800	0.512000
O161	O16	0.585300	0.605900	0.425600
O171	O17	0.453800	0.748200	0.388700
O181	O18	0.055600	0.893800	0.227100
