data_ELIKUG_freeONLY_PM
_symmetry_space_group_name_H-M	'P1'
_cell_length_a	9.331000
_cell_length_b	9.841000
_cell_length_c	11.423000
_cell_angle_alpha	94.224000
_cell_angle_beta	98.510000
_cell_angle_gamma	110.952000
_symmetry_Int_Tables_number 1

loop_
_symmetry_equiv_pos_as_xyz
'x,y,z'

loop_
_atom_site_label
_atom_site_type_symbol
_atom_site_fract_x
_atom_site_fract_y
_atom_site_fract_z
Gd11	Gd1	0.281150	0.545610	0.985400
Gd21	Gd2	0.718850	0.454390	0.014600
H11	H1	0.681400	0.002300	0.962200
H21	H2	0.805000	0.712400	0.778900
H31	H3	0.081100	0.139300	0.836800
H41	H4	0.823500	0.899100	0.568200
H51	H5	0.730300	0.773100	0.381100
H61	H6	0.063000	0.602200	0.421700
H71	H7	0.155500	0.725800	0.615400
H81	H8	0.318600	0.997700	0.037800
H91	H9	0.195000	0.287600	0.221100
H101	H10	0.918900	0.860700	0.163200
H111	H11	0.176500	0.100900	0.431800
H121	H12	0.269700	0.226900	0.618900
H131	H13	0.937000	0.397800	0.578300
H141	H14	0.844500	0.274200	0.384600
C11	C1	0.923600	0.247500	0.966700
C21	C2	0.888500	0.093700	0.910500
C31	C3	0.752700	0.981600	0.922200
C41	C4	0.722700	0.838200	0.874400
C51	C5	0.824200	0.808600	0.809900
C61	C6	0.954000	0.921500	0.791300
C71	C7	0.989700	0.064200	0.845000
C81	C8	0.580900	0.717100	0.896900
C91	C9	0.997100	0.821800	0.611300
C101	C10	0.870200	0.837700	0.539200
C111	C11	0.816100	0.763400	0.427300
C121	C12	0.884300	0.672600	0.378500
C131	C13	0.013900	0.660700	0.451600
C141	C14	0.070200	0.735000	0.568100
C151	C15	0.823500	0.586900	0.259200
C161	C16	0.076400	0.752500	0.033300
C171	C17	0.111500	0.906300	0.089500
C181	C18	0.247300	0.018400	0.077800
C191	C19	0.277300	0.161800	0.125600
C201	C20	0.175800	0.191400	0.190100
C211	C21	0.046000	0.078500	0.208700
C221	C22	0.010300	0.935800	0.155000
C231	C23	0.419100	0.282900	0.103100
C241	C24	0.002900	0.178200	0.388700
C251	C25	0.129800	0.162300	0.460800
C261	C26	0.183900	0.236600	0.572700
C271	C27	0.115700	0.327400	0.621500
C281	C28	0.986100	0.339300	0.548400
C291	C29	0.929800	0.265000	0.431900
C301	C30	0.176500	0.413100	0.740800
O11	O1	0.054200	0.342300	0.968100
O21	O2	0.818000	0.270800	0.011300
O31	O3	0.189300	0.543300	0.180800
O41	O4	0.452900	0.736200	0.890000
O51	O5	0.488000	0.717300	0.144000
O61	O6	0.593700	0.600100	0.926000
O71	O7	0.715400	0.609600	0.191600
O81	O8	0.876700	0.494400	0.221700
O91	O9	0.057300	0.895000	0.725700
O101	O10	0.945800	0.657700	0.031900
O111	O11	0.182000	0.729200	0.988700
O121	O12	0.810700	0.456700	0.819200
O131	O13	0.547100	0.263800	0.110000
O141	O14	0.512000	0.282700	0.856000
O151	O15	0.406300	0.399900	0.074000
O161	O16	0.284600	0.390400	0.808400
O171	O17	0.123300	0.505600	0.778300
O181	O18	0.942700	0.105000	0.274300
