data_ELUQIM13_freeONLY_PM
_symmetry_space_group_name_H-M	'P1'
_cell_length_a	7.309000
_cell_length_b	7.309000
_cell_length_c	8.170100
_cell_angle_alpha	90.000000
_cell_angle_beta	90.000000
_cell_angle_gamma	120.000000
_symmetry_Int_Tables_number 1

loop_
_symmetry_equiv_pos_as_xyz
'x,y,z'

loop_
_atom_site_label
_atom_site_type_symbol
_atom_site_fract_x
_atom_site_fract_y
_atom_site_fract_z
O11	O1	0.110340	0.694830	0.105190
O21	O2	0.305170	0.415510	0.105190
O31	O3	0.584490	0.889660	0.105190
O41	O4	0.889660	0.305170	0.605190
O51	O5	0.694830	0.584490	0.605190
O61	O6	0.415510	0.110340	0.605190
O71	O7	0.694830	0.110340	0.894810
O81	O8	0.415510	0.305170	0.894810
O91	O9	0.889660	0.584490	0.894810
O101	O10	0.305170	0.889660	0.394810
O111	O11	0.584490	0.694830	0.394810
O121	O12	0.110340	0.415510	0.394810
Zn11	Zn1	0.333330	0.666670	0.250000
Zn21	Zn2	0.666670	0.333330	0.750000
C11	C1	0.000000	0.562200	0.000000
H11	H1	0.000000	0.434600	0.000000
C21	C2	0.437800	0.437800	0.000000
H21	H2	0.565400	0.565400	0.000000
C31	C3	0.562200	0.000000	0.000000
H31	H3	0.434600	0.000000	0.000000
C41	C4	0.000000	0.437800	0.500000
H41	H4	0.000000	0.565400	0.500000
C51	C5	0.562200	0.562200	0.500000
H51	H5	0.434600	0.434600	0.500000
C61	C6	0.437800	0.000000	0.500000
H61	H6	0.565400	0.000000	0.500000
