data_ELUZES_freeONLY_PM
_symmetry_space_group_name_H-M	'P1'
_cell_length_a	16.279800
_cell_length_b	13.924800
_cell_length_c	18.043900
_cell_angle_alpha	90.000000
_cell_angle_beta	106.082000
_cell_angle_gamma	90.000000
_symmetry_Int_Tables_number 1

loop_
_symmetry_equiv_pos_as_xyz
'x,y,z'

loop_
_atom_site_label
_atom_site_type_symbol
_atom_site_fract_x
_atom_site_fract_y
_atom_site_fract_z
Cd11	Cd1	0.188560	0.298110	0.158350
N11	N1	0.233770	0.367990	0.276500
C11	C1	0.244640	0.408160	0.333500
Ag11	Ag1	0.250970	0.491620	0.429730
C21	C2	0.243250	0.570600	0.524390
N21	N2	0.233610	0.615870	0.574120
N31	N3	0.114210	0.167540	0.098090
C31	C3	0.075350	0.106360	0.063370
Ag21	Ag2	0.927950	0.525200	0.176950
C41	C4	0.011420	0.424400	0.155640
N41	N4	0.063250	0.372630	0.149240
C51	C5	0.849940	0.636360	0.191950
N51	N5	0.802650	0.695920	0.193220
Cd21	Cd2	0.688560	0.798110	0.158350
N61	N6	0.733770	0.867990	0.276500
C61	C6	0.744640	0.908160	0.333500
Ag31	Ag3	0.750970	0.991620	0.429730
C71	C7	0.743250	0.070600	0.524390
N71	N7	0.733610	0.115870	0.574120
N81	N8	0.614210	0.667540	0.098090
C81	C8	0.575350	0.606360	0.063370
Ag41	Ag4	0.427950	0.025200	0.176950
C91	C9	0.511420	0.924400	0.155640
N91	N9	0.563250	0.872630	0.149240
C101	C10	0.349940	0.136360	0.191950
N101	N10	0.302650	0.195920	0.193220
Cd31	Cd3	0.811440	0.298110	0.341650
N111	N11	0.766230	0.367990	0.223500
C111	C11	0.755360	0.408160	0.166500
Ag51	Ag5	0.749030	0.491620	0.070270
C121	C12	0.756750	0.570600	0.975610
N121	N12	0.766390	0.615870	0.925880
N131	N13	0.885790	0.167540	0.401910
C131	C13	0.924650	0.106360	0.436630
Ag61	Ag6	0.072050	0.525200	0.323050
C141	C14	0.988580	0.424400	0.344360
N141	N14	0.936750	0.372630	0.350760
C151	C15	0.150060	0.636360	0.308050
N151	N15	0.197350	0.695920	0.306780
Cd41	Cd4	0.311440	0.798110	0.341650
N161	N16	0.266230	0.867990	0.223500
C161	C16	0.255360	0.908160	0.166500
Ag71	Ag7	0.249030	0.991620	0.070270
C171	C17	0.256750	0.070600	0.975610
N171	N17	0.266390	0.115870	0.925880
N181	N18	0.385790	0.667540	0.401910
C181	C18	0.424650	0.606360	0.436630
Ag81	Ag8	0.572050	0.025200	0.323050
C191	C19	0.488580	0.924400	0.344360
N191	N19	0.436750	0.872630	0.350760
C201	C20	0.650060	0.136360	0.308050
N201	N20	0.697350	0.195920	0.306780
Cd51	Cd5	0.811440	0.701890	0.841650
N211	N21	0.766230	0.632010	0.723500
C211	C21	0.755360	0.591840	0.666500
Ag91	Ag9	0.749030	0.508380	0.570270
C221	C22	0.756750	0.429400	0.475610
N221	N22	0.766390	0.384130	0.425880
N231	N23	0.885790	0.832460	0.901910
C231	C23	0.924650	0.893640	0.936630
Ag101	Ag10	0.072050	0.474800	0.823050
C241	C24	0.988580	0.575600	0.844360
N241	N24	0.936750	0.627370	0.850760
C251	C25	0.150060	0.363640	0.808050
N251	N25	0.197350	0.304080	0.806780
Cd61	Cd6	0.311440	0.201890	0.841650
N261	N26	0.266230	0.132010	0.723500
C261	C26	0.255360	0.091840	0.666500
Ag111	Ag11	0.249030	0.008380	0.570270
C271	C27	0.256750	0.929400	0.475610
N271	N27	0.266390	0.884130	0.425880
N281	N28	0.385790	0.332460	0.901910
C281	C28	0.424650	0.393640	0.936630
Ag121	Ag12	0.572050	0.974800	0.823050
C291	C29	0.488580	0.075600	0.844360
N291	N29	0.436750	0.127370	0.850760
C301	C30	0.650060	0.863640	0.808050
N301	N30	0.697350	0.804080	0.806780
Cd71	Cd7	0.188560	0.701890	0.658350
N311	N31	0.233770	0.632010	0.776500
C311	C31	0.244640	0.591840	0.833500
Ag131	Ag13	0.250970	0.508380	0.929730
C321	C32	0.243250	0.429400	0.024390
N321	N32	0.233610	0.384130	0.074120
N331	N33	0.114210	0.832460	0.598090
C331	C33	0.075350	0.893640	0.563370
Ag141	Ag14	0.927950	0.474800	0.676950
C341	C34	0.011420	0.575600	0.655640
N341	N34	0.063250	0.627370	0.649240
C351	C35	0.849940	0.363640	0.691950
N351	N35	0.802650	0.304080	0.693220
Cd81	Cd8	0.688560	0.201890	0.658350
N361	N36	0.733770	0.132010	0.776500
C361	C36	0.744640	0.091840	0.833500
Ag151	Ag15	0.750970	0.008380	0.929730
C371	C37	0.743250	0.929400	0.024390
N371	N37	0.733610	0.884130	0.074120
N381	N38	0.614210	0.332460	0.598090
C381	C38	0.575350	0.393640	0.563370
Ag161	Ag16	0.427950	0.974800	0.676950
C391	C39	0.511420	0.075600	0.655640
N391	N39	0.563250	0.127370	0.649240
C401	C40	0.349940	0.863640	0.691950
N401	N40	0.302650	0.804080	0.693220
Ag171	Ag17	0.000000	0.000000	0.000000
Ag181	Ag18	0.500000	0.500000	0.000000
Ag191	Ag19	0.000000	0.000000	0.500000
Ag201	Ag20	0.500000	0.500000	0.500000
