data_EMIHAK_charged_PM
_symmetry_space_group_name_H-M	'P1'
_cell_length_a	22.483500
_cell_length_b	22.522000
_cell_length_c	34.484100
_cell_angle_alpha	90.000000
_cell_angle_beta	90.000000
_cell_angle_gamma	90.000000
_symmetry_Int_Tables_number 1

loop_
_symmetry_equiv_pos_as_xyz
'x,y,z'

loop_
_atom_site_label
_atom_site_type_symbol
_atom_site_fract_x
_atom_site_fract_y
_atom_site_fract_z
In11	In1	0.521230	0.546180	0.840990
In21	In2	0.573120	0.402890	0.884720
In31	In3	0.657410	0.483280	0.793520
In41	In4	0.657680	0.564810	0.900260
In51	In5	0.645460	0.272120	0.930450
In61	In6	0.726320	0.331760	0.842980
In71	In7	0.725610	0.413380	0.949010
In81	In8	0.800280	0.411420	0.763250
In91	In9	0.810280	0.491900	0.857800
In101	In10	0.799800	0.561680	0.955920
In111	In11	0.478770	0.953820	0.340990
In121	In12	0.426880	0.097110	0.384720
In131	In13	0.342590	0.016720	0.293520
In141	In14	0.342320	0.935190	0.400260
In151	In15	0.354540	0.227880	0.430450
In161	In16	0.273680	0.168240	0.342980
In171	In17	0.274390	0.086620	0.449010
In181	In18	0.199720	0.088580	0.263250
In191	In19	0.189720	0.008100	0.357800
In201	In20	0.200200	0.938320	0.455920
In211	In21	0.021230	0.453820	0.659010
In221	In22	0.073120	0.597110	0.615280
In231	In23	0.157410	0.516720	0.706480
In241	In24	0.157680	0.435190	0.599740
In251	In25	0.145460	0.727880	0.569550
In261	In26	0.226320	0.668240	0.657020
In271	In27	0.225610	0.586620	0.550990
In281	In28	0.300280	0.588580	0.736750
In291	In29	0.310280	0.508100	0.642200
In301	In30	0.299800	0.438320	0.544080
In311	In31	0.978770	0.046180	0.159010
In321	In32	0.926880	0.902890	0.115280
In331	In33	0.842590	0.983280	0.206480
In341	In34	0.842320	0.064810	0.099740
In351	In35	0.854540	0.772120	0.069550
In361	In36	0.773680	0.831760	0.157020
In371	In37	0.774390	0.913380	0.050990
In381	In38	0.699720	0.911420	0.236750
In391	In39	0.689720	0.991900	0.142200
In401	In40	0.700200	0.061680	0.044080
H11	H1	0.420800	0.543400	0.776700
H21	H2	0.448900	0.669100	0.888400
H31	H3	0.280800	0.692900	0.809500
H41	H4	0.393700	0.731400	0.939400
H51	H5	0.342500	0.774200	0.923200
H61	H6	0.410400	0.785800	0.911600
H71	H7	0.261200	0.762200	0.893300
H81	H8	0.246800	0.772500	0.848400
H91	H9	0.298100	0.810300	0.869000
H101	H10	0.691600	0.192600	0.002900
H111	H11	0.537100	0.170000	0.910100
H121	H12	0.594300	0.008000	0.986900
H131	H13	0.479200	0.962100	0.942100
H141	H14	0.546800	0.941600	0.936300
H151	H15	0.511600	0.972400	0.901300
H161	H16	0.472400	0.033200	0.879800
H171	H17	0.473200	0.102600	0.869900
H181	H18	0.432400	0.078200	0.904400
H191	H19	0.579200	0.956600	0.276700
H201	H20	0.551100	0.830900	0.388400
H211	H21	0.719200	0.807100	0.309500
H221	H22	0.606300	0.768600	0.439400
H231	H23	0.657500	0.725800	0.423200
H241	H24	0.589600	0.714200	0.411600
H251	H25	0.738800	0.737800	0.393300
H261	H26	0.753200	0.727500	0.348400
H271	H27	0.701900	0.689700	0.369000
H281	H28	0.308400	0.307400	0.502900
H291	H29	0.462900	0.330000	0.410100
H301	H30	0.405700	0.492000	0.486900
H311	H31	0.520800	0.537900	0.442100
H321	H32	0.453200	0.558400	0.436300
H331	H33	0.488400	0.527600	0.401300
H341	H34	0.527600	0.466800	0.379800
H351	H35	0.526800	0.397400	0.369900
H361	H36	0.567600	0.421800	0.404400
H371	H37	0.920800	0.456600	0.723300
H381	H38	0.948900	0.330900	0.611600
H391	H39	0.780800	0.307100	0.690500
H401	H40	0.893700	0.268600	0.560600
H411	H41	0.842500	0.225800	0.576800
H421	H42	0.910400	0.214200	0.588400
H431	H43	0.761200	0.237800	0.606700
H441	H44	0.746800	0.227500	0.651600
H451	H45	0.798100	0.189700	0.631000
H461	H46	0.191600	0.807400	0.497100
H471	H47	0.037100	0.830000	0.589900
H481	H48	0.094300	0.992000	0.513100
H491	H49	0.979200	0.037900	0.557900
H501	H50	0.046800	0.058400	0.563700
H511	H51	0.011600	0.027600	0.598700
H521	H52	0.972400	0.966800	0.620200
H531	H53	0.973200	0.897400	0.630100
H541	H54	0.932400	0.921800	0.595600
H551	H55	0.079200	0.043400	0.223300
H561	H56	0.051100	0.169100	0.111600
H571	H57	0.219200	0.192900	0.190500
H581	H58	0.106300	0.231400	0.060600
H591	H59	0.157500	0.274200	0.076800
H601	H60	0.089600	0.285800	0.088400
H611	H61	0.238800	0.262200	0.106700
H621	H62	0.253200	0.272500	0.151600
H631	H63	0.201900	0.310300	0.131000
H641	H64	0.808400	0.692600	0.997100
H651	H65	0.962900	0.670000	0.089900
H661	H66	0.905700	0.508000	0.013100
H671	H67	0.020800	0.462100	0.057900
H681	H68	0.953200	0.441600	0.063700
H691	H69	0.988400	0.472400	0.098700
H701	H70	0.027600	0.533200	0.120200
H711	H71	0.026800	0.602600	0.130100
H721	H72	0.067600	0.578200	0.095600
C11	C1	0.407900	0.574500	0.793400
C21	C2	0.404200	0.635800	0.839800
C31	C3	0.414200	0.673300	0.872900
C41	C4	0.373100	0.714400	0.881300
C51	C5	0.323200	0.724600	0.857300
C61	C6	0.314900	0.687700	0.825400
C71	C7	0.355600	0.643300	0.816500
C81	C8	0.380600	0.755200	0.917200
C91	C9	0.278400	0.771500	0.867900
C101	C10	0.662500	0.168900	0.990200
C111	C11	0.596500	0.141100	0.951600
C121	C12	0.549700	0.136500	0.924600
C131	C13	0.522800	0.082300	0.919900
C141	C14	0.539100	0.034400	0.943700
C151	C15	0.583000	0.040600	0.971100
C161	C16	0.609400	0.093600	0.975100
C171	C17	0.517000	0.971700	0.930000
C181	C18	0.470000	0.073000	0.890800
C191	C19	0.592100	0.925500	0.293400
C201	C20	0.595800	0.864200	0.339800
C211	C21	0.585800	0.826700	0.372900
C221	C22	0.626900	0.785600	0.381300
C231	C23	0.676800	0.775400	0.357300
C241	C24	0.685100	0.812300	0.325400
C251	C25	0.644400	0.856700	0.316500
C261	C26	0.619400	0.744800	0.417200
C271	C27	0.721600	0.728500	0.367900
C281	C28	0.337500	0.331100	0.490200
C291	C29	0.403500	0.358900	0.451600
C301	C30	0.450300	0.363500	0.424600
C311	C31	0.477200	0.417700	0.419900
C321	C32	0.460900	0.465600	0.443700
C331	C33	0.417000	0.459400	0.471100
C341	C34	0.390600	0.406400	0.475100
C351	C35	0.483000	0.528300	0.430000
C361	C36	0.530000	0.427000	0.390800
C371	C37	0.907900	0.425500	0.706600
C381	C38	0.904200	0.364200	0.660200
C391	C39	0.914200	0.326700	0.627100
C401	C40	0.873100	0.285600	0.618700
C411	C41	0.823200	0.275400	0.642700
C421	C42	0.814900	0.312300	0.674600
C431	C43	0.855600	0.356700	0.683500
C441	C44	0.880600	0.244800	0.582800
C451	C45	0.778400	0.228500	0.632100
C461	C46	0.162500	0.831100	0.509800
C471	C47	0.096500	0.858900	0.548400
C481	C48	0.049700	0.863500	0.575400
C491	C49	0.022800	0.917700	0.580100
C501	C50	0.039100	0.965600	0.556300
C511	C51	0.083000	0.959400	0.528900
C521	C52	0.109400	0.906400	0.524900
C531	C53	0.017000	0.028300	0.570000
C541	C54	0.970000	0.927000	0.609200
C551	C55	0.092100	0.074500	0.206600
C561	C56	0.095800	0.135800	0.160200
C571	C57	0.085800	0.173300	0.127100
C581	C58	0.126900	0.214400	0.118700
C591	C59	0.176800	0.224600	0.142700
C601	C60	0.185100	0.187700	0.174600
C611	C61	0.144400	0.143300	0.183500
C621	C62	0.119400	0.255200	0.082800
C631	C63	0.221600	0.271500	0.132100
C641	C64	0.837500	0.668900	0.009800
C651	C65	0.903500	0.641100	0.048400
C661	C66	0.950300	0.636500	0.075400
C671	C67	0.977200	0.582300	0.080100
C681	C68	0.960900	0.534400	0.056300
C691	C69	0.917000	0.540600	0.028900
C701	C70	0.890600	0.593600	0.024900
C711	C71	0.983000	0.471700	0.070000
C721	C72	0.030000	0.573000	0.109200
S11	S1	0.482920	0.453100	0.866970
S21	S2	0.566900	0.535000	0.777530
S31	S3	0.567200	0.616100	0.884480
S41	S4	0.548100	0.309900	0.915450
S51	S5	0.632280	0.385330	0.824530
S61	S6	0.632200	0.466020	0.930350
S71	S7	0.715800	0.463800	0.736310
S81	S8	0.716110	0.545520	0.839950
S91	S9	0.711800	0.622500	0.947320
S101	S10	0.697900	0.238860	0.872530
S111	S11	0.703000	0.320100	0.980120
S121	S12	0.783200	0.311200	0.785520
S131	S13	0.785130	0.394310	0.888770
S141	S14	0.785900	0.470800	0.992270
S151	S15	0.869410	0.470100	0.801450
S161	S16	0.863200	0.558800	0.899540
S171	S17	0.517080	0.046900	0.366970
S181	S18	0.433100	0.965000	0.277530
S191	S19	0.432800	0.883900	0.384480
S201	S20	0.451900	0.190100	0.415450
S211	S21	0.367720	0.114670	0.324530
S221	S22	0.367800	0.033980	0.430350
S231	S23	0.284200	0.036200	0.236310
S241	S24	0.283890	0.954480	0.339950
S251	S25	0.288200	0.877500	0.447320
S261	S26	0.302100	0.261140	0.372530
S271	S27	0.297000	0.179900	0.480120
S281	S28	0.216800	0.188800	0.285520
S291	S29	0.214870	0.105690	0.388770
S301	S30	0.214100	0.029200	0.492270
S311	S31	0.130590	0.029900	0.301450
S321	S32	0.136800	0.941200	0.399540
S331	S33	0.982920	0.546900	0.633030
S341	S34	0.066900	0.465000	0.722470
S351	S35	0.067200	0.383900	0.615520
S361	S36	0.048100	0.690100	0.584550
S371	S37	0.132280	0.614670	0.675470
S381	S38	0.132200	0.533980	0.569650
S391	S39	0.215800	0.536200	0.763690
S401	S40	0.216110	0.454480	0.660050
S411	S41	0.211800	0.377500	0.552680
S421	S42	0.197900	0.761140	0.627470
S431	S43	0.203000	0.679900	0.519880
S441	S44	0.283200	0.688800	0.714480
S451	S45	0.285130	0.605690	0.611230
S461	S46	0.285900	0.529200	0.507730
S471	S47	0.369410	0.529900	0.698550
S481	S48	0.363200	0.441200	0.600460
S491	S49	0.017080	0.953100	0.133030
S501	S50	0.933100	0.035000	0.222470
S511	S51	0.932800	0.116100	0.115520
S521	S52	0.951900	0.809900	0.084550
S531	S53	0.867720	0.885330	0.175470
S541	S54	0.867800	0.966020	0.069650
S551	S55	0.784200	0.963800	0.263690
S561	S56	0.783890	0.045520	0.160050
S571	S57	0.788200	0.122500	0.052680
S581	S58	0.802100	0.738860	0.127470
S591	S59	0.797000	0.820100	0.019880
S601	S60	0.716800	0.811200	0.214480
S611	S61	0.714870	0.894310	0.111230
S621	S62	0.714100	0.970800	0.007730
S631	S63	0.630590	0.970100	0.198550
S641	S64	0.636800	0.058800	0.100460
N11	N1	0.438700	0.590500	0.824000
N21	N2	0.357400	0.604200	0.786900
N31	N3	0.630800	0.189000	0.961000
N41	N4	0.651300	0.113200	0.000900
N51	N5	0.561300	0.909500	0.324000
N61	N6	0.642600	0.895800	0.286900
N71	N7	0.369200	0.311000	0.461000
N81	N8	0.348700	0.386800	0.500900
N91	N9	0.938700	0.409500	0.676000
N101	N10	0.857400	0.395800	0.713100
N111	N11	0.130800	0.811000	0.539000
N121	N12	0.151300	0.886800	0.499100
N131	N13	0.061300	0.090500	0.176000
N141	N14	0.142600	0.104200	0.213100
N151	N15	0.869200	0.689000	0.039000
N161	N16	0.848700	0.613200	0.999100
In411	In41	0.478770	0.453820	0.159010
In421	In42	0.426880	0.597110	0.115280
In431	In43	0.342590	0.516720	0.206480
In441	In44	0.342320	0.435190	0.099740
In451	In45	0.354540	0.727880	0.069550
In461	In46	0.273680	0.668240	0.157020
In471	In47	0.274390	0.586620	0.050990
In481	In48	0.199720	0.588580	0.236750
In491	In49	0.189720	0.508100	0.142200
In501	In50	0.200200	0.438320	0.044080
In511	In51	0.521230	0.046180	0.659010
In521	In52	0.573120	0.902890	0.615280
In531	In53	0.657410	0.983280	0.706480
In541	In54	0.657680	0.064810	0.599740
In551	In55	0.645460	0.772120	0.569550
In561	In56	0.726320	0.831760	0.657020
In571	In57	0.725610	0.913380	0.550990
In581	In58	0.800280	0.911420	0.736750
In591	In59	0.810280	0.991900	0.642200
In601	In60	0.799800	0.061680	0.544080
In611	In61	0.978770	0.546180	0.340990
In621	In62	0.926880	0.402890	0.384720
In631	In63	0.842590	0.483280	0.293520
In641	In64	0.842320	0.564810	0.400260
In651	In65	0.854540	0.272120	0.430450
In661	In66	0.773680	0.331760	0.342980
In671	In67	0.774390	0.413380	0.449010
In681	In68	0.699720	0.411420	0.263250
In691	In69	0.689720	0.491900	0.357800
In701	In70	0.700200	0.561680	0.455920
In711	In71	0.021230	0.953820	0.840990
In721	In72	0.073120	0.097110	0.884720
In731	In73	0.157410	0.016720	0.793520
In741	In74	0.157680	0.935190	0.900260
In751	In75	0.145460	0.227880	0.930450
In761	In76	0.226320	0.168240	0.842980
In771	In77	0.225610	0.086620	0.949010
In781	In78	0.300280	0.088580	0.763250
In791	In79	0.310280	0.008100	0.857800
In801	In80	0.299800	0.938320	0.955920
H731	H73	0.579200	0.456600	0.223300
H741	H74	0.551100	0.330900	0.111600
H751	H75	0.719200	0.307100	0.190500
H761	H76	0.606300	0.268600	0.060600
H771	H77	0.657500	0.225800	0.076800
H781	H78	0.589600	0.214200	0.088400
H791	H79	0.738800	0.237800	0.106700
H801	H80	0.753200	0.227500	0.151600
H811	H81	0.701900	0.189700	0.131000
H821	H82	0.308400	0.807400	0.997100
H831	H83	0.462900	0.830000	0.089900
H841	H84	0.405700	0.992000	0.013100
H851	H85	0.520800	0.037900	0.057900
H861	H86	0.453200	0.058400	0.063700
H871	H87	0.488400	0.027600	0.098700
H881	H88	0.527600	0.966800	0.120200
H891	H89	0.526800	0.897400	0.130100
H901	H90	0.567600	0.921800	0.095600
H911	H91	0.420800	0.043400	0.723300
H921	H92	0.448900	0.169100	0.611600
H931	H93	0.280800	0.192900	0.690500
H941	H94	0.393700	0.231400	0.560600
H951	H95	0.342500	0.274200	0.576800
H961	H96	0.410400	0.285800	0.588400
H971	H97	0.261200	0.262200	0.606700
H981	H98	0.246800	0.272500	0.651600
H991	H99	0.298100	0.310300	0.631000
H1001	H100	0.691600	0.692600	0.497100
H1011	H101	0.537100	0.670000	0.589900
H1021	H102	0.594300	0.508000	0.513100
H1031	H103	0.479200	0.462100	0.557900
H1041	H104	0.546800	0.441600	0.563700
H1051	H105	0.511600	0.472400	0.598700
H1061	H106	0.472400	0.533200	0.620200
H1071	H107	0.473200	0.602600	0.630100
H1081	H108	0.432400	0.578200	0.595600
H1091	H109	0.079200	0.543400	0.276700
H1101	H110	0.051100	0.669100	0.388400
H1111	H111	0.219200	0.692900	0.309500
H1121	H112	0.106300	0.731400	0.439400
H1131	H113	0.157500	0.774200	0.423200
H1141	H114	0.089600	0.785800	0.411600
H1151	H115	0.238800	0.762200	0.393300
H1161	H116	0.253200	0.772500	0.348400
H1171	H117	0.201900	0.810300	0.369000
H1181	H118	0.808400	0.192600	0.502900
H1191	H119	0.962900	0.170000	0.410100
H1201	H120	0.905700	0.008000	0.486900
H1211	H121	0.020800	0.962100	0.442100
H1221	H122	0.953200	0.941600	0.436300
H1231	H123	0.988400	0.972400	0.401300
H1241	H124	0.027600	0.033200	0.379800
H1251	H125	0.026800	0.102600	0.369900
H1261	H126	0.067600	0.078200	0.404400
H1271	H127	0.920800	0.956600	0.776700
H1281	H128	0.948900	0.830900	0.888400
H1291	H129	0.780800	0.807100	0.809500
H1301	H130	0.893700	0.768600	0.939400
H1311	H131	0.842500	0.725800	0.923200
H1321	H132	0.910400	0.714200	0.911600
H1331	H133	0.761200	0.737800	0.893300
H1341	H134	0.746800	0.727500	0.848400
H1351	H135	0.798100	0.689700	0.869000
H1361	H136	0.191600	0.307400	0.002900
H1371	H137	0.037100	0.330000	0.910100
H1381	H138	0.094300	0.492000	0.986900
H1391	H139	0.979200	0.537900	0.942100
H1401	H140	0.046800	0.558400	0.936300
H1411	H141	0.011600	0.527600	0.901300
H1421	H142	0.972400	0.466800	0.879800
H1431	H143	0.973200	0.397400	0.869900
H1441	H144	0.932400	0.421800	0.904400
C731	C73	0.592100	0.425500	0.206600
C741	C74	0.595800	0.364200	0.160200
C751	C75	0.585800	0.326700	0.127100
C761	C76	0.626900	0.285600	0.118700
C771	C77	0.676800	0.275400	0.142700
C781	C78	0.685100	0.312300	0.174600
C791	C79	0.644400	0.356700	0.183500
C801	C80	0.619400	0.244800	0.082800
C811	C81	0.721600	0.228500	0.132100
C821	C82	0.337500	0.831100	0.009800
C831	C83	0.403500	0.858900	0.048400
C841	C84	0.450300	0.863500	0.075400
C851	C85	0.477200	0.917700	0.080100
C861	C86	0.460900	0.965600	0.056300
C871	C87	0.417000	0.959400	0.028900
C881	C88	0.390600	0.906400	0.024900
C891	C89	0.483000	0.028300	0.070000
C901	C90	0.530000	0.927000	0.109200
C911	C91	0.407900	0.074500	0.706600
C921	C92	0.404200	0.135800	0.660200
C931	C93	0.414200	0.173300	0.627100
C941	C94	0.373100	0.214400	0.618700
C951	C95	0.323200	0.224600	0.642700
C961	C96	0.314900	0.187700	0.674600
C971	C97	0.355600	0.143300	0.683500
C981	C98	0.380600	0.255200	0.582800
C991	C99	0.278400	0.271500	0.632100
C1001	C100	0.662500	0.668900	0.509800
C1011	C101	0.596500	0.641100	0.548400
C1021	C102	0.549700	0.636500	0.575400
C1031	C103	0.522800	0.582300	0.580100
C1041	C104	0.539100	0.534400	0.556300
C1051	C105	0.583000	0.540600	0.528900
C1061	C106	0.609400	0.593600	0.524900
C1071	C107	0.517000	0.471700	0.570000
C1081	C108	0.470000	0.573000	0.609200
C1091	C109	0.092100	0.574500	0.293400
C1101	C110	0.095800	0.635800	0.339800
C1111	C111	0.085800	0.673300	0.372900
C1121	C112	0.126900	0.714400	0.381300
C1131	C113	0.176800	0.724600	0.357300
C1141	C114	0.185100	0.687700	0.325400
C1151	C115	0.144400	0.643300	0.316500
C1161	C116	0.119400	0.755200	0.417200
C1171	C117	0.221600	0.771500	0.367900
C1181	C118	0.837500	0.168900	0.490200
C1191	C119	0.903500	0.141100	0.451600
C1201	C120	0.950300	0.136500	0.424600
C1211	C121	0.977200	0.082300	0.419900
C1221	C122	0.960900	0.034400	0.443700
C1231	C123	0.917000	0.040600	0.471100
C1241	C124	0.890600	0.093600	0.475100
C1251	C125	0.983000	0.971700	0.430000
C1261	C126	0.030000	0.073000	0.390800
C1271	C127	0.907900	0.925500	0.793400
C1281	C128	0.904200	0.864200	0.839800
C1291	C129	0.914200	0.826700	0.872900
C1301	C130	0.873100	0.785600	0.881300
C1311	C131	0.823200	0.775400	0.857300
C1321	C132	0.814900	0.812300	0.825400
C1331	C133	0.855600	0.856700	0.816500
C1341	C134	0.880600	0.744800	0.917200
C1351	C135	0.778400	0.728500	0.867900
C1361	C136	0.162500	0.331100	0.990200
C1371	C137	0.096500	0.358900	0.951600
C1381	C138	0.049700	0.363500	0.924600
C1391	C139	0.022800	0.417700	0.919900
C1401	C140	0.039100	0.465600	0.943700
C1411	C141	0.083000	0.459400	0.971100
C1421	C142	0.109400	0.406400	0.975100
C1431	C143	0.017000	0.528300	0.930000
C1441	C144	0.970000	0.427000	0.890800
S651	S65	0.517080	0.546900	0.133030
S661	S66	0.433100	0.465000	0.222470
S671	S67	0.432800	0.383900	0.115520
S681	S68	0.451900	0.690100	0.084550
S691	S69	0.367720	0.614670	0.175470
S701	S70	0.367800	0.533980	0.069650
S711	S71	0.284200	0.536200	0.263690
S721	S72	0.283890	0.454480	0.160050
S731	S73	0.288200	0.377500	0.052680
S741	S74	0.302100	0.761140	0.127470
S751	S75	0.297000	0.679900	0.019880
S761	S76	0.216800	0.688800	0.214480
S771	S77	0.214870	0.605690	0.111230
S781	S78	0.214100	0.529200	0.007730
S791	S79	0.130590	0.529900	0.198550
S801	S80	0.136800	0.441200	0.100460
S811	S81	0.482920	0.953100	0.633030
S821	S82	0.566900	0.035000	0.722470
S831	S83	0.567200	0.116100	0.615520
S841	S84	0.548100	0.809900	0.584550
S851	S85	0.632280	0.885330	0.675470
S861	S86	0.632200	0.966020	0.569650
S871	S87	0.715800	0.963800	0.763690
S881	S88	0.716110	0.045520	0.660050
S891	S89	0.711800	0.122500	0.552680
S901	S90	0.697900	0.738860	0.627470
S911	S91	0.703000	0.820100	0.519880
S921	S92	0.783200	0.811200	0.714480
S931	S93	0.785130	0.894310	0.611230
S941	S94	0.785900	0.970800	0.507730
S951	S95	0.869410	0.970100	0.698550
S961	S96	0.863200	0.058800	0.600460
S971	S97	0.017080	0.453100	0.366970
S981	S98	0.933100	0.535000	0.277530
S991	S99	0.932800	0.616100	0.384480
S1001	S100	0.951900	0.309900	0.415450
S1011	S101	0.867720	0.385330	0.324530
S1021	S102	0.867800	0.466020	0.430350
S1031	S103	0.784200	0.463800	0.236310
S1041	S104	0.783890	0.545520	0.339950
S1051	S105	0.788200	0.622500	0.447320
S1061	S106	0.802100	0.238860	0.372530
S1071	S107	0.797000	0.320100	0.480120
S1081	S108	0.716800	0.311200	0.285520
S1091	S109	0.714870	0.394310	0.388770
S1101	S110	0.714100	0.470800	0.492270
S1111	S111	0.630590	0.470100	0.301450
S1121	S112	0.636800	0.558800	0.399540
S1131	S113	0.982920	0.046900	0.866970
S1141	S114	0.066900	0.965000	0.777530
S1151	S115	0.067200	0.883900	0.884480
S1161	S116	0.048100	0.190100	0.915450
S1171	S117	0.132280	0.114670	0.824530
S1181	S118	0.132200	0.033980	0.930350
S1191	S119	0.215800	0.036200	0.736310
S1201	S120	0.216110	0.954480	0.839950
S1211	S121	0.211800	0.877500	0.947320
S1221	S122	0.197900	0.261140	0.872530
S1231	S123	0.203000	0.179900	0.980120
S1241	S124	0.283200	0.188800	0.785520
S1251	S125	0.285130	0.105690	0.888770
S1261	S126	0.285900	0.029200	0.992270
S1271	S127	0.369410	0.029900	0.801450
S1281	S128	0.363200	0.941200	0.899540
N171	N17	0.561300	0.409500	0.176000
N181	N18	0.642600	0.395800	0.213100
N191	N19	0.369200	0.811000	0.039000
N201	N20	0.348700	0.886800	0.999100
N211	N21	0.438700	0.090500	0.676000
N221	N22	0.357400	0.104200	0.713100
N231	N23	0.630800	0.689000	0.539000
N241	N24	0.651300	0.613200	0.499100
N251	N25	0.061300	0.590500	0.324000
N261	N26	0.142600	0.604200	0.286900
N271	N27	0.869200	0.189000	0.461000
N281	N28	0.848700	0.113200	0.500900
N291	N29	0.938700	0.909500	0.824000
N301	N30	0.857400	0.895800	0.786900
N311	N31	0.130800	0.311000	0.961000
N321	N32	0.151300	0.386800	0.000900
