data_EMOFIX_freeONLY_PM
_symmetry_space_group_name_H-M	'P1'
_cell_length_a	8.045000
_cell_length_b	17.549000
_cell_length_c	18.014000
_cell_angle_alpha	90.000000
_cell_angle_beta	108.093000
_cell_angle_gamma	90.000000
_symmetry_Int_Tables_number 1

loop_
_symmetry_equiv_pos_as_xyz
'x,y,z'

loop_
_atom_site_label
_atom_site_type_symbol
_atom_site_fract_x
_atom_site_fract_y
_atom_site_fract_z
Zn11	Zn1	0.118990	0.191310	0.733410
O11	O1	0.206700	0.183000	0.644500
O21	O2	0.445600	0.117900	0.705900
O31	O3	0.731400	0.082300	0.490300
O41	O4	0.091400	0.267700	0.372500
O51	O5	0.286700	0.247500	0.313800
N11	N1	0.897500	0.249000	0.682600
N21	N2	0.642100	0.301700	0.662600
N31	N3	0.942200	0.588000	0.738500
N41	N4	0.078000	0.494900	0.701800
C11	C1	0.231000	0.239600	0.371700
C21	C2	0.341100	0.195400	0.441100
C31	C3	0.295500	0.192700	0.509300
H11	H1	0.196700	0.218500	0.512300
C41	C4	0.397000	0.151900	0.572900
C51	C5	0.588000	0.116800	0.500500
C61	C6	0.488700	0.157400	0.437100
H21	H2	0.520400	0.159400	0.391700
C71	C7	0.543500	0.113400	0.568900
H31	H3	0.611400	0.085500	0.611500
C81	C8	0.349300	0.149400	0.647800
C91	C9	0.685800	0.313300	0.597000
H41	H4	0.620600	0.339200	0.552500
C101	C10	0.845600	0.279100	0.609200
H51	H5	0.907800	0.276900	0.573500
C111	C11	0.770500	0.263600	0.712500
H61	H6	0.771400	0.249100	0.762300
C121	C12	0.484700	0.329700	0.679200
H71	H7	0.388200	0.332400	0.631000
H81	H8	0.452800	0.294400	0.714000
C131	C13	0.516600	0.406200	0.715900
H91	H9	0.540400	0.441700	0.679200
H101	H10	0.620200	0.403800	0.761300
C141	C14	0.364800	0.437100	0.741300
H111	H11	0.332600	0.399500	0.773900
H121	H12	0.402700	0.482700	0.772300
C151	C15	0.876700	0.520100	0.754300
H131	H13	0.787200	0.514600	0.776400
C161	C16	0.065200	0.570000	0.708500
H141	H14	0.135100	0.605300	0.693700
C171	C17	0.209500	0.455300	0.673800
H151	H15	0.160000	0.408800	0.646900
H161	H16	0.243500	0.487700	0.637300
C181	C18	0.961200	0.462800	0.732900
H171	H17	0.943500	0.411000	0.738300
C191	C19	0.841200	0.037400	0.553000
H181	H18	0.786000	0.988900	0.556500
H191	H19	0.863500	0.064000	0.602400
C201	C20	0.016500	0.024700	0.533300
H201	H20	0.061200	0.073200	0.522000
H211	H21	0.103500	0.002000	0.577700
Zn21	Zn2	0.881010	0.691310	0.766590
O61	O6	0.793300	0.683000	0.855500
O71	O7	0.554400	0.617900	0.794100
O81	O8	0.268600	0.582300	0.009700
O91	O9	0.908600	0.767700	0.127500
O101	O10	0.713300	0.747500	0.186200
N51	N5	0.102500	0.749000	0.817400
N61	N6	0.357900	0.801700	0.837400
N71	N7	0.057800	0.088000	0.761500
N81	N8	0.922000	0.994900	0.798200
C211	C21	0.769000	0.739600	0.128300
C221	C22	0.658900	0.695400	0.058900
C231	C23	0.704500	0.692700	0.990700
H221	H22	0.803300	0.718500	0.987700
C241	C24	0.603000	0.651900	0.927100
C251	C25	0.412000	0.616800	0.999500
C261	C26	0.511300	0.657400	0.062900
H231	H23	0.479600	0.659400	0.108300
C271	C27	0.456500	0.613400	0.931100
H241	H24	0.388600	0.585500	0.888500
C281	C28	0.650700	0.649400	0.852200
C291	C29	0.314200	0.813300	0.903000
H251	H25	0.379400	0.839200	0.947500
C301	C30	0.154400	0.779100	0.890800
H261	H26	0.092200	0.776900	0.926500
C311	C31	0.229500	0.763600	0.787500
H271	H27	0.228600	0.749100	0.737700
C321	C32	0.515300	0.829700	0.820800
H281	H28	0.611800	0.832400	0.869000
H291	H29	0.547200	0.794400	0.786000
C331	C33	0.483400	0.906200	0.784100
H301	H30	0.459600	0.941700	0.820800
H311	H31	0.379800	0.903800	0.738700
C341	C34	0.635200	0.937100	0.758700
H321	H32	0.667400	0.899500	0.726100
H331	H33	0.597300	0.982700	0.727700
C351	C35	0.123300	0.020100	0.745700
H341	H34	0.212800	0.014600	0.723600
C361	C36	0.934800	0.070000	0.791500
H351	H35	0.864900	0.105300	0.806300
C371	C37	0.790500	0.955300	0.826200
H361	H36	0.840000	0.908800	0.853100
H371	H37	0.756500	0.987700	0.862700
C381	C38	0.038800	0.962800	0.767100
H381	H38	0.056500	0.911000	0.761700
C391	C39	0.158800	0.537400	0.947000
H391	H39	0.214000	0.488900	0.943500
H401	H40	0.136500	0.564000	0.897600
C401	C40	0.983500	0.524700	0.966700
H411	H41	0.938800	0.573200	0.978000
H421	H42	0.896500	0.502000	0.922300
Zn31	Zn3	0.881010	0.808690	0.266590
O111	O11	0.793300	0.817000	0.355500
O121	O12	0.554400	0.882100	0.294100
O131	O13	0.268600	0.917700	0.509700
O141	O14	0.908600	0.732300	0.627500
O151	O15	0.713300	0.752500	0.686200
N91	N9	0.102500	0.751000	0.317400
N101	N10	0.357900	0.698300	0.337400
N111	N11	0.057800	0.412000	0.261500
N121	N12	0.922000	0.505100	0.298200
C411	C41	0.769000	0.760400	0.628300
C421	C42	0.658900	0.804600	0.558900
C431	C43	0.704500	0.807300	0.490700
H431	H43	0.803300	0.781500	0.487700
C441	C44	0.603000	0.848100	0.427100
C451	C45	0.412000	0.883200	0.499500
C461	C46	0.511300	0.842600	0.562900
H441	H44	0.479600	0.840600	0.608300
C471	C47	0.456500	0.886600	0.431100
H451	H45	0.388600	0.914500	0.388500
C481	C48	0.650700	0.850600	0.352200
C491	C49	0.314200	0.686700	0.403000
H461	H46	0.379400	0.660800	0.447500
C501	C50	0.154400	0.720900	0.390800
H471	H47	0.092200	0.723100	0.426500
C511	C51	0.229500	0.736400	0.287500
H481	H48	0.228600	0.750900	0.237700
C521	C52	0.515300	0.670300	0.320800
H491	H49	0.611800	0.667600	0.369000
H501	H50	0.547200	0.705600	0.286000
C531	C53	0.483400	0.593800	0.284100
H511	H51	0.459600	0.558300	0.320800
H521	H52	0.379800	0.596200	0.238700
C541	C54	0.635200	0.562900	0.258700
H531	H53	0.667400	0.600500	0.226100
H541	H54	0.597300	0.517300	0.227700
C551	C55	0.123300	0.479900	0.245700
H551	H55	0.212800	0.485400	0.223600
C561	C56	0.934800	0.430000	0.291500
H561	H56	0.864900	0.394700	0.306300
C571	C57	0.790500	0.544700	0.326200
H571	H57	0.840000	0.591200	0.353100
H581	H58	0.756500	0.512300	0.362700
C581	C58	0.038800	0.537200	0.267100
H591	H59	0.056500	0.589000	0.261700
C591	C59	0.158800	0.962600	0.447000
H601	H60	0.214000	0.011100	0.443500
H611	H61	0.136500	0.936000	0.397600
C601	C60	0.983500	0.975300	0.466700
H621	H62	0.938800	0.926800	0.478000
H631	H63	0.896500	0.998000	0.422300
Zn41	Zn4	0.118990	0.308690	0.233410
O161	O16	0.206700	0.317000	0.144500
O171	O17	0.445600	0.382100	0.205900
O181	O18	0.731400	0.417700	0.990300
O191	O19	0.091400	0.232300	0.872500
O201	O20	0.286700	0.252500	0.813800
N131	N13	0.897500	0.251000	0.182600
N141	N14	0.642100	0.198300	0.162600
N151	N15	0.942200	0.912000	0.238500
N161	N16	0.078000	0.005100	0.201800
C611	C61	0.231000	0.260400	0.871700
C621	C62	0.341100	0.304600	0.941100
C631	C63	0.295500	0.307300	0.009300
H641	H64	0.196700	0.281500	0.012300
C641	C64	0.397000	0.348100	0.072900
C651	C65	0.588000	0.383200	0.000500
C661	C66	0.488700	0.342600	0.937100
H651	H65	0.520400	0.340600	0.891700
C671	C67	0.543500	0.386600	0.068900
H661	H66	0.611400	0.414500	0.111500
C681	C68	0.349300	0.350600	0.147800
C691	C69	0.685800	0.186700	0.097000
H671	H67	0.620600	0.160800	0.052500
C701	C70	0.845600	0.220900	0.109200
H681	H68	0.907800	0.223100	0.073500
C711	C71	0.770500	0.236400	0.212500
H691	H69	0.771400	0.250900	0.262300
C721	C72	0.484700	0.170300	0.179200
H701	H70	0.388200	0.167600	0.131000
H711	H71	0.452800	0.205600	0.214000
C731	C73	0.516600	0.093800	0.215900
H721	H72	0.540400	0.058300	0.179200
H731	H73	0.620200	0.096200	0.261300
C741	C74	0.364800	0.062900	0.241300
H741	H74	0.332600	0.100500	0.273900
H751	H75	0.402700	0.017300	0.272300
C751	C75	0.876700	0.979900	0.254300
H761	H76	0.787200	0.985400	0.276400
C761	C76	0.065200	0.930000	0.208500
H771	H77	0.135100	0.894700	0.193700
C771	C77	0.209500	0.044700	0.173800
H781	H78	0.160000	0.091200	0.146900
H791	H79	0.243500	0.012300	0.137300
C781	C78	0.961200	0.037200	0.232900
H801	H80	0.943500	0.089000	0.238300
C791	C79	0.841200	0.462600	0.053000
H811	H81	0.786000	0.511100	0.056500
H821	H82	0.863500	0.436000	0.102400
C801	C80	0.016500	0.475300	0.033300
H831	H83	0.061200	0.426800	0.022000
H841	H84	0.103500	0.498000	0.077700
