data_ENANIS_freeONLY_PM
_symmetry_space_group_name_H-M	'P1'
_cell_length_a	12.334800
_cell_length_b	9.936000
_cell_length_c	17.825900
_cell_angle_alpha	90.000000
_cell_angle_beta	90.000000
_cell_angle_gamma	90.000000
_symmetry_Int_Tables_number 1

loop_
_symmetry_equiv_pos_as_xyz
'x,y,z'

loop_
_atom_site_label
_atom_site_type_symbol
_atom_site_fract_x
_atom_site_fract_y
_atom_site_fract_z
O11	O1	0.354500	0.448600	0.917220
O21	O2	0.279600	0.260000	0.877000
N11	N1	0.528800	0.048900	0.168700
N21	N2	0.472000	0.955200	0.208600
N31	N3	0.633000	0.995200	0.262300
C11	C1	0.338500	0.321800	0.922000
C21	C2	0.393600	0.248100	0.984600
C31	C3	0.475500	0.306400	0.024800
H11	H1	0.500900	0.391200	0.011300
C41	C4	0.520700	0.240600	0.085500
H21	H2	0.576500	0.280300	0.112700
C51	C5	0.482100	0.114900	0.105100
C61	C6	0.401100	0.054600	0.065800
H31	H3	0.375700	0.969800	0.079200
C71	C7	0.357500	0.123100	0.005300
H41	H4	0.302000	0.083100	0.977900
C81	C8	0.537100	0.927600	0.264000
H51	H5	0.519400	0.866700	0.301700
C91	C9	0.624100	0.069600	0.200900
H61	H6	0.677100	0.127900	0.183000
O31	O3	0.145500	0.551400	0.917220
O41	O4	0.220400	0.740000	0.877000
N41	N4	0.971200	0.951100	0.168700
N51	N5	0.028000	0.044800	0.208600
N61	N6	0.867000	0.004800	0.262300
C101	C10	0.161500	0.678200	0.922000
C111	C11	0.106400	0.751900	0.984600
C121	C12	0.024500	0.693600	0.024800
H71	H7	0.999100	0.608800	0.011300
C131	C13	0.979300	0.759400	0.085500
H81	H8	0.923500	0.719700	0.112700
C141	C14	0.017900	0.885100	0.105100
C151	C15	0.098900	0.945400	0.065800
H91	H9	0.124300	0.030200	0.079200
C161	C16	0.142500	0.876900	0.005300
H101	H10	0.198000	0.916900	0.977900
C171	C17	0.962900	0.072400	0.264000
H111	H11	0.980600	0.133300	0.301700
C181	C18	0.875900	0.930400	0.200900
H121	H12	0.822900	0.872100	0.183000
O51	O5	0.854500	0.051400	0.417220
O61	O6	0.779600	0.240000	0.377000
N71	N7	0.028800	0.451100	0.668700
N81	N8	0.972000	0.544800	0.708600
N91	N9	0.133000	0.504800	0.762300
C191	C19	0.838500	0.178200	0.422000
C201	C20	0.893600	0.251900	0.484600
C211	C21	0.975500	0.193600	0.524800
H131	H13	0.000900	0.108800	0.511300
C221	C22	0.020700	0.259400	0.585500
H141	H14	0.076500	0.219700	0.612700
C231	C23	0.982100	0.385100	0.605100
C241	C24	0.901100	0.445400	0.565800
H151	H15	0.875700	0.530200	0.579200
C251	C25	0.857500	0.376900	0.505300
H161	H16	0.802000	0.416900	0.477900
C261	C26	0.037100	0.572400	0.764000
H171	H17	0.019400	0.633300	0.801700
C271	C27	0.124100	0.430400	0.700900
H181	H18	0.177100	0.372100	0.683000
O71	O7	0.645500	0.948600	0.417220
O81	O8	0.720400	0.760000	0.377000
N101	N10	0.471200	0.548900	0.668700
N111	N11	0.528000	0.455200	0.708600
N121	N12	0.367000	0.495200	0.762300
C281	C28	0.661500	0.821800	0.422000
C291	C29	0.606400	0.748100	0.484600
C301	C30	0.524500	0.806400	0.524800
H191	H19	0.499100	0.891200	0.511300
C311	C31	0.479300	0.740600	0.585500
H201	H20	0.423500	0.780300	0.612700
C321	C32	0.517900	0.614900	0.605100
C331	C33	0.598900	0.554600	0.565800
H211	H21	0.624300	0.469800	0.579200
C341	C34	0.642500	0.623100	0.505300
H221	H22	0.698000	0.583100	0.477900
C351	C35	0.462900	0.427600	0.764000
H231	H23	0.480600	0.366700	0.801700
C361	C36	0.375900	0.569600	0.700900
H241	H24	0.322900	0.627900	0.683000
Cu11	Cu1	0.250000	0.500000	0.838160
Cu21	Cu2	0.750000	0.000000	0.338160
O91	O9	0.145500	0.948600	0.582780
O101	O10	0.220400	0.760000	0.623000
N131	N13	0.971200	0.548900	0.331300
N141	N14	0.028000	0.455200	0.291400
N151	N15	0.867000	0.495200	0.237700
C371	C37	0.161500	0.821800	0.578000
C381	C38	0.106400	0.748100	0.515400
C391	C39	0.024500	0.806400	0.475200
H251	H25	0.999100	0.891200	0.488700
C401	C40	0.979300	0.740600	0.414500
H261	H26	0.923500	0.780300	0.387300
C411	C41	0.017900	0.614900	0.394900
C421	C42	0.098900	0.554600	0.434200
H271	H27	0.124300	0.469800	0.420800
C431	C43	0.142500	0.623100	0.494700
H281	H28	0.198000	0.583100	0.522100
C441	C44	0.962900	0.427600	0.236000
H291	H29	0.980600	0.366700	0.198300
C451	C45	0.875900	0.569600	0.299100
H301	H30	0.822900	0.627900	0.317000
O111	O11	0.354500	0.051400	0.582780
O121	O12	0.279600	0.240000	0.623000
N161	N16	0.528800	0.451100	0.331300
N171	N17	0.472000	0.544800	0.291400
N181	N18	0.633000	0.504800	0.237700
C461	C46	0.338500	0.178200	0.578000
C471	C47	0.393600	0.251900	0.515400
C481	C48	0.475500	0.193600	0.475200
H311	H31	0.500900	0.108800	0.488700
C491	C49	0.520700	0.259400	0.414500
H321	H32	0.576500	0.219700	0.387300
C501	C50	0.482100	0.385100	0.394900
C511	C51	0.401100	0.445400	0.434200
H331	H33	0.375700	0.530200	0.420800
C521	C52	0.357500	0.376900	0.494700
H341	H34	0.302000	0.416900	0.522100
C531	C53	0.537100	0.572400	0.236000
H351	H35	0.519400	0.633300	0.198300
C541	C54	0.624100	0.430400	0.299100
H361	H36	0.677100	0.372100	0.317000
O131	O13	0.645500	0.551400	0.082780
O141	O14	0.720400	0.740000	0.123000
N191	N19	0.471200	0.951100	0.831300
N201	N20	0.528000	0.044800	0.791400
N211	N21	0.367000	0.004800	0.737700
C551	C55	0.661500	0.678200	0.078000
C561	C56	0.606400	0.751900	0.015400
C571	C57	0.524500	0.693600	0.975200
H371	H37	0.499100	0.608800	0.988700
C581	C58	0.479300	0.759400	0.914500
H381	H38	0.423500	0.719700	0.887300
C591	C59	0.517900	0.885100	0.894900
C601	C60	0.598900	0.945400	0.934200
H391	H39	0.624300	0.030200	0.920800
C611	C61	0.642500	0.876900	0.994700
H401	H40	0.698000	0.916900	0.022100
C621	C62	0.462900	0.072400	0.736000
H411	H41	0.480600	0.133300	0.698300
C631	C63	0.375900	0.930400	0.799100
H421	H42	0.322900	0.872100	0.817000
O151	O15	0.854500	0.448600	0.082780
O161	O16	0.779600	0.260000	0.123000
N221	N22	0.028800	0.048900	0.831300
N231	N23	0.972000	0.955200	0.791400
N241	N24	0.133000	0.995200	0.737700
C641	C64	0.838500	0.321800	0.078000
C651	C65	0.893600	0.248100	0.015400
C661	C66	0.975500	0.306400	0.975200
H431	H43	0.000900	0.391200	0.988700
C671	C67	0.020700	0.240600	0.914500
H441	H44	0.076500	0.280300	0.887300
C681	C68	0.982100	0.114900	0.894900
C691	C69	0.901100	0.054600	0.934200
H451	H45	0.875700	0.969800	0.920800
C701	C70	0.857500	0.123100	0.994700
H461	H46	0.802000	0.083100	0.022100
C711	C71	0.037100	0.927600	0.736000
H471	H47	0.019400	0.866700	0.698300
C721	C72	0.124100	0.069600	0.799100
H481	H48	0.177100	0.127900	0.817000
Cu31	Cu3	0.250000	0.000000	0.661840
Cu41	Cu4	0.750000	0.500000	0.161840
