data_ENEQOF_freeONLY_PM
_symmetry_space_group_name_H-M	'P1'
_cell_length_a	12.842300
_cell_length_b	12.946700
_cell_length_c	23.967800
_cell_angle_alpha	81.481000
_cell_angle_beta	86.357000
_cell_angle_gamma	70.630000
_symmetry_Int_Tables_number 1

loop_
_symmetry_equiv_pos_as_xyz
'x,y,z'

loop_
_atom_site_label
_atom_site_type_symbol
_atom_site_fract_x
_atom_site_fract_y
_atom_site_fract_z
Cu11	Cu1	0.475220	0.235550	0.731070
Cu21	Cu2	0.528390	0.233970	0.228800
O11	O1	0.380500	0.356600	0.768900
O21	O2	0.580000	0.117500	0.694400
O31	O3	0.334200	0.799800	0.816100
O41	O4	0.467700	0.363900	0.173900
O51	O5	0.570500	0.184400	0.795900
O61	O6	0.594100	0.108900	0.285900
O71	O7	0.396900	0.301900	0.660800
O81	O8	0.467300	0.112800	0.185600
C11	C1	0.202600	0.370200	0.797300
H11	H1	0.230400	0.310700	0.826600
C21	C2	0.089800	0.424500	0.793200
H21	H2	0.041200	0.404700	0.821000
C31	C3	0.047400	0.507500	0.748900
C41	C4	0.122600	0.535000	0.711200
H31	H3	0.096700	0.592900	0.680900
C51	C5	0.234200	0.480700	0.716300
H41	H4	0.284500	0.499000	0.689000
C61	C6	0.738900	0.573500	0.763600
H51	H5	0.687700	0.541500	0.782900
C71	C7	0.849600	0.521100	0.770400
H61	H6	0.874000	0.453400	0.795000
C81	C8	0.927100	0.563000	0.742700
C91	C9	0.885700	0.665800	0.708300
H71	H7	0.935300	0.701400	0.690500
C101	C10	0.774900	0.714200	0.700500
H81	H8	0.748800	0.779400	0.674300
C111	C11	0.714500	0.979700	0.743000
H91	H9	0.662400	0.942700	0.754500
C121	C12	0.825600	0.930800	0.759100
H101	H10	0.848300	0.862300	0.783200
C131	C13	0.902100	0.983900	0.739200
C141	C14	0.863700	0.084000	0.705900
H111	H11	0.913400	0.122000	0.691100
C151	C15	0.754600	0.128700	0.693900
H121	H12	0.729100	0.199300	0.671800
C161	C16	0.191600	0.951000	0.778000
H131	H13	0.235100	0.996700	0.780400
C171	C17	0.086900	0.996000	0.759700
H141	H14	0.058400	0.073600	0.748700
C181	C18	0.020300	0.933500	0.756600
C191	C19	0.068400	0.820800	0.770600
H151	H15	0.026300	0.773600	0.768200
C201	C20	0.176100	0.775600	0.788100
H161	H16	0.208700	0.697800	0.796700
C211	C21	0.559400	0.365000	0.087300
H171	H17	0.614100	0.385700	0.103400
C221	C22	0.567100	0.351000	0.031800
H181	H18	0.626800	0.362800	0.009300
C231	C23	0.490600	0.320400	0.008300
C241	C24	0.400300	0.311800	0.041400
H191	H19	0.342000	0.296700	0.025300
C251	C25	0.395300	0.325000	0.096600
H201	H20	0.334500	0.316700	0.119300
C261	C26	0.459900	0.211300	0.875500
H211	H21	0.416100	0.173600	0.862400
C271	C27	0.437300	0.246800	0.927300
H221	H22	0.375200	0.237500	0.948500
C281	C28	0.501900	0.295300	0.949300
C291	C29	0.580800	0.322000	0.911900
H231	H23	0.622900	0.363500	0.923300
C301	C30	0.597000	0.291000	0.860400
H241	H24	0.648500	0.312600	0.835300
C311	C31	0.504200	0.081900	0.370300
H251	H25	0.473500	0.035800	0.354300
C321	C32	0.480700	0.102000	0.426100
H261	H26	0.431900	0.070700	0.448200
C331	C33	0.528500	0.167800	0.449700
C341	C34	0.598000	0.212400	0.415600
H271	H27	0.632200	0.257100	0.430400
C351	C35	0.618400	0.192700	0.360400
H281	H28	0.665800	0.224100	0.337100
C361	C36	0.527400	0.275100	0.586600
H291	H29	0.570400	0.307200	0.604800
C371	C37	0.559100	0.242300	0.534100
H301	H30	0.624500	0.251500	0.516600
C381	C38	0.498500	0.197100	0.507300
C391	C39	0.404100	0.182400	0.534800
H311	H31	0.360400	0.150200	0.517300
C401	C40	0.375100	0.214900	0.587000
H321	H32	0.311300	0.204000	0.605800
C411	C41	0.573000	0.065500	0.107000
H331	H33	0.633800	0.075900	0.123700
C421	C42	0.584500	0.035100	0.055300
H341	H34	0.653500	0.023100	0.036000
C431	C43	0.494200	0.019900	0.028200
C441	C44	0.396000	0.035100	0.060500
H351	H35	0.334100	0.025900	0.044700
C451	C45	0.388000	0.062000	0.112200
H361	H36	0.321400	0.067900	0.133600
N11	N1	0.271600	0.401100	0.760300
N21	N2	0.701800	0.671400	0.729300
N31	N3	0.683200	0.077700	0.711800
N41	N4	0.233900	0.842000	0.792700
N51	N5	0.474400	0.349500	0.119500
N61	N6	0.541500	0.228700	0.843500
N71	N7	0.571100	0.129600	0.339900
N81	N8	0.434900	0.261500	0.612200
N91	N9	0.474500	0.081600	0.135700
O91	O9	0.365800	0.119900	0.759300
H371	H37	0.299000	0.154800	0.750500
H381	H38	0.389800	0.062500	0.742800
O101	O10	0.597800	0.718800	0.718800
Cu31	Cu3	0.524780	0.764450	0.268930
Cu41	Cu4	0.471610	0.766030	0.771200
O111	O11	0.619500	0.643400	0.231100
O121	O12	0.420000	0.882500	0.305600
O131	O13	0.665800	0.200200	0.183900
O141	O14	0.532300	0.636100	0.826100
O151	O15	0.429500	0.815600	0.204100
O161	O16	0.405900	0.891100	0.714100
O171	O17	0.603100	0.698100	0.339200
O181	O18	0.532700	0.887200	0.814400
C461	C46	0.797400	0.629800	0.202700
H391	H39	0.769600	0.689300	0.173400
C471	C47	0.910200	0.575500	0.206800
H401	H40	0.958800	0.595300	0.179000
C481	C48	0.952600	0.492500	0.251100
C491	C49	0.877400	0.465000	0.288800
H411	H41	0.903300	0.407100	0.319100
C501	C50	0.765800	0.519300	0.283700
H421	H42	0.715500	0.501000	0.311000
C511	C51	0.261100	0.426500	0.236400
H431	H43	0.312300	0.458500	0.217100
C521	C52	0.150400	0.478900	0.229600
H441	H44	0.126000	0.546600	0.205000
C531	C53	0.072900	0.437000	0.257300
C541	C54	0.114300	0.334200	0.291700
H451	H45	0.064700	0.298600	0.309500
C551	C55	0.225100	0.285800	0.299500
H461	H46	0.251200	0.220600	0.325700
C561	C56	0.285500	0.020300	0.257000
H471	H47	0.337600	0.057300	0.245500
C571	C57	0.174400	0.069200	0.240900
H481	H48	0.151700	0.137700	0.216800
C581	C58	0.097900	0.016100	0.260800
C591	C59	0.136300	0.916000	0.294100
H491	H49	0.086600	0.878000	0.308900
C601	C60	0.245400	0.871300	0.306100
H501	H50	0.270900	0.800700	0.328200
C611	C61	0.808400	0.049000	0.222000
H511	H51	0.764900	0.003300	0.219600
C621	C62	0.913100	0.004000	0.240300
H521	H52	0.941600	0.926400	0.251300
C631	C63	0.979700	0.066500	0.243400
C641	C64	0.931600	0.179200	0.229400
H531	H53	0.973700	0.226400	0.231800
C651	C65	0.823900	0.224400	0.211900
H541	H54	0.791300	0.302200	0.203300
C661	C66	0.440600	0.635000	0.912700
H551	H55	0.385900	0.614300	0.896600
C671	C67	0.432900	0.649000	0.968200
H561	H56	0.373200	0.637200	0.990700
C681	C68	0.509400	0.679600	0.991700
C691	C69	0.599700	0.688200	0.958600
H571	H57	0.658000	0.703300	0.974700
C701	C70	0.604700	0.675000	0.903400
H581	H58	0.665500	0.683300	0.880700
C711	C71	0.540100	0.788700	0.124500
H591	H59	0.583900	0.826400	0.137600
C721	C72	0.562700	0.753200	0.072700
H601	H60	0.624800	0.762500	0.051500
C731	C73	0.498100	0.704700	0.050700
C741	C74	0.419200	0.678000	0.088100
H611	H61	0.377100	0.636500	0.076700
C751	C75	0.403000	0.709000	0.139600
H621	H62	0.351500	0.687400	0.164700
C761	C76	0.495800	0.918100	0.629700
H631	H63	0.526500	0.964200	0.645700
C771	C77	0.519300	0.898000	0.573900
H641	H64	0.568100	0.929300	0.551800
C781	C78	0.471500	0.832200	0.550300
C791	C79	0.402000	0.787600	0.584400
H651	H65	0.367800	0.742900	0.569600
C801	C80	0.381600	0.807300	0.639600
H661	H66	0.334200	0.775900	0.662900
C811	C81	0.472600	0.724900	0.413400
H671	H67	0.429600	0.692800	0.395200
C821	C82	0.440900	0.757700	0.465900
H681	H68	0.375500	0.748500	0.483400
C831	C83	0.501500	0.802900	0.492700
C841	C84	0.595900	0.817600	0.465200
H691	H69	0.639600	0.849800	0.482700
C851	C85	0.624900	0.785100	0.413000
H701	H70	0.688700	0.796000	0.394200
C861	C86	0.427000	0.934500	0.893000
H711	H71	0.366200	0.924100	0.876300
C871	C87	0.415500	0.964900	0.944700
H721	H72	0.346500	0.976900	0.964000
C881	C88	0.505800	0.980100	0.971800
C891	C89	0.604000	0.964900	0.939500
H731	H73	0.665900	0.974100	0.955300
C901	C90	0.612000	0.938000	0.887800
H741	H74	0.678600	0.932100	0.866400
N101	N10	0.728400	0.598900	0.239700
N111	N11	0.298200	0.328600	0.270700
N121	N12	0.316800	0.922300	0.288200
N131	N13	0.766100	0.158000	0.207300
N141	N14	0.525600	0.650500	0.880500
N151	N15	0.458500	0.771300	0.156500
N161	N16	0.428900	0.870400	0.660100
N171	N17	0.565100	0.738500	0.387800
N181	N18	0.525500	0.918400	0.864300
O191	O19	0.634200	0.880100	0.240700
H751	H75	0.701000	0.845200	0.249500
H761	H76	0.610200	0.937500	0.257200
O201	O20	0.402200	0.281200	0.281200
