data_ENITOL_freeONLY_PM
_symmetry_space_group_name_H-M	'P1'
_cell_length_a	14.152900
_cell_length_b	23.406000
_cell_length_c	23.832500
_cell_angle_alpha	90.000000
_cell_angle_beta	90.000000
_cell_angle_gamma	90.000000
_symmetry_Int_Tables_number 1

loop_
_symmetry_equiv_pos_as_xyz
'x,y,z'

loop_
_atom_site_label
_atom_site_type_symbol
_atom_site_fract_x
_atom_site_fract_y
_atom_site_fract_z
Zn11	Zn1	0.439630	0.138420	0.985990
Zn21	Zn2	0.060370	0.361580	0.985990
Zn31	Zn3	0.060370	0.138420	0.514010
Zn41	Zn4	0.439630	0.361580	0.514010
Zn51	Zn5	0.560370	0.861580	0.014010
Zn61	Zn6	0.939630	0.638420	0.014010
Zn71	Zn7	0.939630	0.861580	0.485990
Zn81	Zn8	0.560370	0.638420	0.485990
Zn91	Zn9	0.000000	0.500000	0.000000
Zn101	Zn10	0.500000	0.000000	0.000000
Zn111	Zn11	0.500000	0.500000	0.500000
Zn121	Zn12	0.000000	0.000000	0.500000
Si11	Si1	0.437800	0.485830	0.860330
Si21	Si2	0.062200	0.014170	0.860330
Si31	Si3	0.062200	0.485830	0.639670
Si41	Si4	0.437800	0.014170	0.639670
Si51	Si5	0.562200	0.514170	0.139670
Si61	Si6	0.937800	0.985830	0.139670
Si71	Si7	0.937800	0.514170	0.360330
Si81	Si8	0.562200	0.985830	0.360330
H11	H1	0.289100	0.408500	0.895600
H21	H2	0.281200	0.316100	0.932900
H31	H3	0.567200	0.309900	0.939300
H41	H4	0.575100	0.402300	0.902100
H51	H5	0.636200	0.471600	0.825400
H61	H6	0.781800	0.498000	0.862300
H71	H7	0.650800	0.605800	0.968500
H81	H8	0.505900	0.576300	0.935600
H91	H9	0.292000	0.562500	0.811500
H101	H10	0.161900	0.612900	0.846100
H111	H11	0.220500	0.557700	0.001700
H121	H12	0.353800	0.510500	0.968900
H131	H13	0.360200	0.396900	0.787000
H141	H14	0.359000	0.379400	0.690500
H151	H15	0.494300	0.527900	0.662600
H161	H16	0.497300	0.546300	0.758600
H171	H17	0.210900	0.091500	0.895600
H181	H18	0.218800	0.183900	0.932900
H191	H19	0.932800	0.190100	0.939300
H201	H20	0.924900	0.097700	0.902100
H211	H21	0.863800	0.028400	0.825400
H221	H22	0.718200	0.002000	0.862300
H231	H23	0.849200	0.894200	0.968500
H241	H24	0.994100	0.923700	0.935600
H251	H25	0.208000	0.937500	0.811500
H261	H26	0.338100	0.887100	0.846100
H271	H27	0.279500	0.942300	0.001700
H281	H28	0.146200	0.989500	0.968900
H291	H29	0.139800	0.103100	0.787000
H301	H30	0.141000	0.120600	0.690500
H311	H31	0.005700	0.972100	0.662600
H321	H32	0.002700	0.953700	0.758600
H331	H33	0.210900	0.408500	0.604400
H341	H34	0.218800	0.316100	0.567100
H351	H35	0.932800	0.309900	0.560700
H361	H36	0.924900	0.402300	0.597900
H371	H37	0.863800	0.471600	0.674600
H381	H38	0.718200	0.498000	0.637700
H391	H39	0.849200	0.605800	0.531500
H401	H40	0.994100	0.576300	0.564400
H411	H41	0.208000	0.562500	0.688500
H421	H42	0.338100	0.612900	0.653900
H431	H43	0.279500	0.557700	0.498300
H441	H44	0.146200	0.510500	0.531100
H451	H45	0.139800	0.396900	0.713000
H461	H46	0.141000	0.379400	0.809500
H471	H47	0.005700	0.527900	0.837400
H481	H48	0.002700	0.546300	0.741400
H491	H49	0.289100	0.091500	0.604400
H501	H50	0.281200	0.183900	0.567100
H511	H51	0.567200	0.190100	0.560700
H521	H52	0.575100	0.097700	0.597900
H531	H53	0.636200	0.028400	0.674600
H541	H54	0.781800	0.002000	0.637700
H551	H55	0.650800	0.894200	0.531500
H561	H56	0.505900	0.923700	0.564400
H571	H57	0.292000	0.937500	0.688500
H581	H58	0.161900	0.887100	0.653900
H591	H59	0.220500	0.942300	0.498300
H601	H60	0.353800	0.989500	0.531100
H611	H61	0.360200	0.103100	0.713000
H621	H62	0.359000	0.120600	0.809500
H631	H63	0.494300	0.972100	0.837400
H641	H64	0.497300	0.953700	0.741400
H651	H65	0.710900	0.591500	0.104400
H661	H66	0.718800	0.683900	0.067100
H671	H67	0.432800	0.690100	0.060700
H681	H68	0.424900	0.597700	0.097900
H691	H69	0.363800	0.528400	0.174600
H701	H70	0.218200	0.502000	0.137700
H711	H71	0.349200	0.394200	0.031500
H721	H72	0.494100	0.423700	0.064400
H731	H73	0.708000	0.437500	0.188500
H741	H74	0.838100	0.387100	0.153900
H751	H75	0.779500	0.442300	0.998300
H761	H76	0.646200	0.489500	0.031100
H771	H77	0.639800	0.603100	0.213000
H781	H78	0.641000	0.620600	0.309500
H791	H79	0.505700	0.472100	0.337400
H801	H80	0.502700	0.453700	0.241400
H811	H81	0.789100	0.908500	0.104400
H821	H82	0.781200	0.816100	0.067100
H831	H83	0.067200	0.809900	0.060700
H841	H84	0.075100	0.902300	0.097900
H851	H85	0.136200	0.971600	0.174600
H861	H86	0.281800	0.998000	0.137700
H871	H87	0.150800	0.105800	0.031500
H881	H88	0.005900	0.076300	0.064400
H891	H89	0.792000	0.062500	0.188500
H901	H90	0.661900	0.112900	0.153900
H911	H91	0.720500	0.057700	0.998300
H921	H92	0.853800	0.010500	0.031100
H931	H93	0.860200	0.896900	0.213000
H941	H94	0.859000	0.879400	0.309500
H951	H95	0.994300	0.027900	0.337400
H961	H96	0.997300	0.046300	0.241400
H971	H97	0.789100	0.591500	0.395600
H981	H98	0.781200	0.683900	0.432900
H991	H99	0.067200	0.690100	0.439300
H1001	H100	0.075100	0.597700	0.402100
H1011	H101	0.136200	0.528400	0.325400
H1021	H102	0.281800	0.502000	0.362300
H1031	H103	0.150800	0.394200	0.468500
H1041	H104	0.005900	0.423700	0.435600
H1051	H105	0.792000	0.437500	0.311500
H1061	H106	0.661900	0.387100	0.346100
H1071	H107	0.720500	0.442300	0.501700
H1081	H108	0.853800	0.489500	0.468900
H1091	H109	0.860200	0.603100	0.287000
H1101	H110	0.859000	0.620600	0.190500
H1111	H111	0.994300	0.472100	0.162600
H1121	H112	0.997300	0.453700	0.258600
H1131	H113	0.710900	0.908500	0.395600
H1141	H114	0.718800	0.816100	0.432900
H1151	H115	0.432800	0.809900	0.439300
H1161	H116	0.424900	0.902300	0.402100
H1171	H117	0.363800	0.971600	0.325400
H1181	H118	0.218200	0.998000	0.362300
H1191	H119	0.349200	0.105800	0.468500
H1201	H120	0.494100	0.076300	0.435600
H1211	H121	0.708000	0.062500	0.311500
H1221	H122	0.838100	0.112900	0.346100
H1231	H123	0.779500	0.057700	0.501700
H1241	H124	0.646200	0.010500	0.468900
H1251	H125	0.639800	0.896900	0.287000
H1261	H126	0.641000	0.879400	0.190500
H1271	H127	0.505700	0.027900	0.162600
H1281	H128	0.502700	0.046300	0.258600
C11	C1	0.432800	0.414100	0.895400
C21	C2	0.345500	0.388500	0.904500
C31	C3	0.340800	0.333600	0.926600
C41	C4	0.423400	0.304300	0.939600
C51	C5	0.510700	0.329900	0.930500
C61	C6	0.515400	0.384800	0.908300
C71	C7	0.419000	0.243500	0.961900
C81	C8	0.553900	0.519940	0.878050
C91	C9	0.638700	0.497800	0.855830
C101	C10	0.725600	0.513700	0.877590
C111	C11	0.731100	0.551660	0.920680
C121	C12	0.647600	0.576840	0.940640
C131	C13	0.561700	0.560000	0.920280
C141	C14	0.822500	0.564900	0.949110
C151	C15	0.336600	0.529750	0.886120
C161	C16	0.277900	0.561100	0.850480
C171	C17	0.199500	0.590380	0.870660
C181	C18	0.177000	0.586280	0.926610
C191	C19	0.234700	0.558090	0.962700
C201	C20	0.314000	0.529980	0.943110
C211	C21	0.086500	0.611640	0.947260
C221	C22	0.430700	0.472850	0.783430
C231	C23	0.388400	0.423600	0.762070
C241	C24	0.387200	0.413400	0.704430
C251	C25	0.426400	0.452040	0.667170
C261	C26	0.467200	0.501150	0.687830
C271	C27	0.469400	0.512000	0.745160
C281	C28	0.427500	0.439100	0.605400
C291	C29	0.067200	0.085900	0.895400
C301	C30	0.154500	0.111500	0.904500
C311	C31	0.159200	0.166400	0.926600
C321	C32	0.076600	0.195700	0.939600
C331	C33	0.989300	0.170100	0.930500
C341	C34	0.984600	0.115200	0.908300
C351	C35	0.081000	0.256500	0.961900
C361	C36	0.946100	0.980060	0.878050
C371	C37	0.861300	0.002200	0.855830
C381	C38	0.774400	0.986300	0.877590
C391	C39	0.768900	0.948340	0.920680
C401	C40	0.852400	0.923160	0.940640
C411	C41	0.938300	0.940000	0.920280
C421	C42	0.677500	0.935100	0.949110
C431	C43	0.163400	0.970250	0.886120
C441	C44	0.222100	0.938900	0.850480
C451	C45	0.300500	0.909620	0.870660
C461	C46	0.323000	0.913720	0.926610
C471	C47	0.265300	0.941910	0.962700
C481	C48	0.186000	0.970020	0.943110
C491	C49	0.413500	0.888360	0.947260
C501	C50	0.069300	0.027150	0.783430
C511	C51	0.111600	0.076400	0.762070
C521	C52	0.112800	0.086600	0.704430
C531	C53	0.073600	0.047960	0.667170
C541	C54	0.032800	0.998850	0.687830
C551	C55	0.030600	0.988000	0.745160
C561	C56	0.072500	0.060900	0.605400
C571	C57	0.067200	0.414100	0.604600
C581	C58	0.154500	0.388500	0.595500
C591	C59	0.159200	0.333600	0.573400
C601	C60	0.076600	0.304300	0.560400
C611	C61	0.989300	0.329900	0.569500
C621	C62	0.984600	0.384800	0.591700
C631	C63	0.081000	0.243500	0.538100
C641	C64	0.946100	0.519940	0.621950
C651	C65	0.861300	0.497800	0.644170
C661	C66	0.774400	0.513700	0.622410
C671	C67	0.768900	0.551660	0.579320
C681	C68	0.852400	0.576840	0.559360
C691	C69	0.938300	0.560000	0.579720
C701	C70	0.677500	0.564900	0.550890
C711	C71	0.163400	0.529750	0.613880
C721	C72	0.222100	0.561100	0.649520
C731	C73	0.300500	0.590380	0.629340
C741	C74	0.323000	0.586280	0.573390
C751	C75	0.265300	0.558090	0.537300
C761	C76	0.186000	0.529980	0.556890
C771	C77	0.413500	0.611640	0.552740
C781	C78	0.069300	0.472850	0.716570
C791	C79	0.111600	0.423600	0.737930
C801	C80	0.112800	0.413400	0.795570
C811	C81	0.073600	0.452040	0.832830
C821	C82	0.032800	0.501150	0.812170
C831	C83	0.030600	0.512000	0.754840
C841	C84	0.072500	0.439100	0.894600
C851	C85	0.432800	0.085900	0.604600
C861	C86	0.345500	0.111500	0.595500
C871	C87	0.340800	0.166400	0.573400
C881	C88	0.423400	0.195700	0.560400
C891	C89	0.510700	0.170100	0.569500
C901	C90	0.515400	0.115200	0.591700
C911	C91	0.419000	0.256500	0.538100
C921	C92	0.553900	0.980060	0.621950
C931	C93	0.638700	0.002200	0.644170
C941	C94	0.725600	0.986300	0.622410
C951	C95	0.731100	0.948340	0.579320
C961	C96	0.647600	0.923160	0.559360
C971	C97	0.561700	0.940000	0.579720
C981	C98	0.822500	0.935100	0.550890
C991	C99	0.336600	0.970250	0.613880
C1001	C100	0.277900	0.938900	0.649520
C1011	C101	0.199500	0.909620	0.629340
C1021	C102	0.177000	0.913720	0.573390
C1031	C103	0.234700	0.941910	0.537300
C1041	C104	0.314000	0.970020	0.556890
C1051	C105	0.086500	0.888360	0.552740
C1061	C106	0.430700	0.027150	0.716570
C1071	C107	0.388400	0.076400	0.737930
C1081	C108	0.387200	0.086600	0.795570
C1091	C109	0.426400	0.047960	0.832830
C1101	C110	0.467200	0.998850	0.812170
C1111	C111	0.469400	0.988000	0.754840
C1121	C112	0.427500	0.060900	0.894600
C1131	C113	0.567200	0.585900	0.104600
C1141	C114	0.654500	0.611500	0.095500
C1151	C115	0.659200	0.666400	0.073400
C1161	C116	0.576600	0.695700	0.060400
C1171	C117	0.489300	0.670100	0.069500
C1181	C118	0.484600	0.615200	0.091700
C1191	C119	0.581000	0.756500	0.038100
C1201	C120	0.446100	0.480060	0.121950
C1211	C121	0.361300	0.502200	0.144170
C1221	C122	0.274400	0.486300	0.122410
C1231	C123	0.268900	0.448340	0.079320
C1241	C124	0.352400	0.423160	0.059360
C1251	C125	0.438300	0.440000	0.079720
C1261	C126	0.177500	0.435100	0.050890
C1271	C127	0.663400	0.470250	0.113880
C1281	C128	0.722100	0.438900	0.149520
C1291	C129	0.800500	0.409620	0.129340
C1301	C130	0.823000	0.413720	0.073390
C1311	C131	0.765300	0.441910	0.037300
C1321	C132	0.686000	0.470020	0.056890
C1331	C133	0.913500	0.388360	0.052740
C1341	C134	0.569300	0.527150	0.216570
C1351	C135	0.611600	0.576400	0.237930
C1361	C136	0.612800	0.586600	0.295570
C1371	C137	0.573600	0.547960	0.332830
C1381	C138	0.532800	0.498850	0.312170
C1391	C139	0.530600	0.488000	0.254840
C1401	C140	0.572500	0.560900	0.394600
C1411	C141	0.932800	0.914100	0.104600
C1421	C142	0.845500	0.888500	0.095500
C1431	C143	0.840800	0.833600	0.073400
C1441	C144	0.923400	0.804300	0.060400
C1451	C145	0.010700	0.829900	0.069500
C1461	C146	0.015400	0.884800	0.091700
C1471	C147	0.919000	0.743500	0.038100
C1481	C148	0.053900	0.019940	0.121950
C1491	C149	0.138700	0.997800	0.144170
C1501	C150	0.225600	0.013700	0.122410
C1511	C151	0.231100	0.051660	0.079320
C1521	C152	0.147600	0.076840	0.059360
C1531	C153	0.061700	0.060000	0.079720
C1541	C154	0.322500	0.064900	0.050890
C1551	C155	0.836600	0.029750	0.113880
C1561	C156	0.777900	0.061100	0.149520
C1571	C157	0.699500	0.090380	0.129340
C1581	C158	0.677000	0.086280	0.073390
C1591	C159	0.734700	0.058090	0.037300
C1601	C160	0.814000	0.029980	0.056890
C1611	C161	0.586500	0.111640	0.052740
C1621	C162	0.930700	0.972850	0.216570
C1631	C163	0.888400	0.923600	0.237930
C1641	C164	0.887200	0.913400	0.295570
C1651	C165	0.926400	0.952040	0.332830
C1661	C166	0.967200	0.001150	0.312170
C1671	C167	0.969400	0.012000	0.254840
C1681	C168	0.927500	0.939100	0.394600
C1691	C169	0.932800	0.585900	0.395400
C1701	C170	0.845500	0.611500	0.404500
C1711	C171	0.840800	0.666400	0.426600
C1721	C172	0.923400	0.695700	0.439600
C1731	C173	0.010700	0.670100	0.430500
C1741	C174	0.015400	0.615200	0.408300
C1751	C175	0.919000	0.756500	0.461900
C1761	C176	0.053900	0.480060	0.378050
C1771	C177	0.138700	0.502200	0.355830
C1781	C178	0.225600	0.486300	0.377590
C1791	C179	0.231100	0.448340	0.420680
C1801	C180	0.147600	0.423160	0.440640
C1811	C181	0.061700	0.440000	0.420280
C1821	C182	0.322500	0.435100	0.449110
C1831	C183	0.836600	0.470250	0.386120
C1841	C184	0.777900	0.438900	0.350480
C1851	C185	0.699500	0.409620	0.370660
C1861	C186	0.677000	0.413720	0.426610
C1871	C187	0.734700	0.441910	0.462700
C1881	C188	0.814000	0.470020	0.443110
C1891	C189	0.586500	0.388360	0.447260
C1901	C190	0.930700	0.527150	0.283430
C1911	C191	0.888400	0.576400	0.262070
C1921	C192	0.887200	0.586600	0.204430
C1931	C193	0.926400	0.547960	0.167170
C1941	C194	0.967200	0.498850	0.187830
C1951	C195	0.969400	0.488000	0.245160
C1961	C196	0.927500	0.560900	0.105400
C1971	C197	0.567200	0.914100	0.395400
C1981	C198	0.654500	0.888500	0.404500
C1991	C199	0.659200	0.833600	0.426600
C2001	C200	0.576600	0.804300	0.439600
C2011	C201	0.489300	0.829900	0.430500
C2021	C202	0.484600	0.884800	0.408300
C2031	C203	0.581000	0.743500	0.461900
C2041	C204	0.446100	0.019940	0.378050
C2051	C205	0.361300	0.997800	0.355830
C2061	C206	0.274400	0.013700	0.377590
C2071	C207	0.268900	0.051660	0.420680
C2081	C208	0.352400	0.076840	0.440640
C2091	C209	0.438300	0.060000	0.420280
C2101	C210	0.177500	0.064900	0.449110
C2111	C211	0.663400	0.029750	0.386120
C2121	C212	0.722100	0.061100	0.350480
C2131	C213	0.800500	0.090380	0.370660
C2141	C214	0.823000	0.086280	0.426610
C2151	C215	0.765300	0.058090	0.462700
C2161	C216	0.686000	0.029980	0.443110
C2171	C217	0.913500	0.111640	0.447260
C2181	C218	0.569300	0.972850	0.283430
C2191	C219	0.611600	0.923600	0.262070
C2201	C220	0.612800	0.913400	0.204430
C2211	C221	0.573600	0.952040	0.167170
C2221	C222	0.532800	0.001150	0.187830
C2231	C223	0.530600	0.012000	0.245160
C2241	C224	0.572500	0.939100	0.105400
O11	O1	0.342200	0.223000	0.976000
O21	O2	0.491300	0.214800	0.967000
O31	O3	0.882800	0.525370	0.951090
O41	O4	0.832790	0.614650	0.968070
O51	O5	0.047200	0.651010	0.922390
O61	O6	0.051600	0.590720	0.993030
O71	O7	0.414300	0.389000	0.590500
O81	O8	0.442800	0.480510	0.573690
O91	O9	0.157800	0.277000	0.976000
O101	O10	0.008700	0.285200	0.967000
O111	O11	0.617200	0.974630	0.951090
O121	O12	0.667210	0.885350	0.968070
O131	O13	0.452800	0.848990	0.922390
O141	O14	0.448400	0.909280	0.993030
O151	O15	0.085700	0.111000	0.590500
O161	O16	0.057200	0.019490	0.573690
O171	O17	0.157800	0.223000	0.524000
O181	O18	0.008700	0.214800	0.533000
O191	O19	0.617200	0.525370	0.548910
O201	O20	0.667210	0.614650	0.531930
O211	O21	0.452800	0.651010	0.577610
O221	O22	0.448400	0.590720	0.506970
O231	O23	0.085700	0.389000	0.909500
O241	O24	0.057200	0.480510	0.926310
O251	O25	0.342200	0.277000	0.524000
O261	O26	0.491300	0.285200	0.533000
O271	O27	0.882800	0.974630	0.548910
O281	O28	0.832790	0.885350	0.531930
O291	O29	0.047200	0.848990	0.577610
O301	O30	0.051600	0.909280	0.506970
O311	O31	0.414300	0.111000	0.909500
O321	O32	0.442800	0.019490	0.926310
O331	O33	0.657800	0.777000	0.024000
O341	O34	0.508700	0.785200	0.033000
O351	O35	0.117200	0.474630	0.048910
O361	O36	0.167210	0.385350	0.031930
O371	O37	0.952800	0.348990	0.077610
O381	O38	0.948400	0.409280	0.006970
O391	O39	0.585700	0.611000	0.409500
O401	O40	0.557200	0.519490	0.426310
O411	O41	0.842200	0.723000	0.024000
O421	O42	0.991300	0.714800	0.033000
O431	O43	0.382800	0.025370	0.048910
O441	O44	0.332790	0.114650	0.031930
O451	O45	0.547200	0.151010	0.077610
O461	O46	0.551600	0.090720	0.006970
O471	O47	0.914300	0.889000	0.409500
O481	O48	0.942800	0.980510	0.426310
O491	O49	0.842200	0.777000	0.476000
O501	O50	0.991300	0.785200	0.467000
O511	O51	0.382800	0.474630	0.451090
O521	O52	0.332790	0.385350	0.468070
O531	O53	0.547200	0.348990	0.422390
O541	O54	0.551600	0.409280	0.493030
O551	O55	0.914300	0.611000	0.090500
O561	O56	0.942800	0.519490	0.073690
O571	O57	0.657800	0.723000	0.476000
O581	O58	0.508700	0.714800	0.467000
O591	O59	0.117200	0.025370	0.451090
O601	O60	0.167210	0.114650	0.468070
O611	O61	0.952800	0.151010	0.422390
O621	O62	0.948400	0.090720	0.493030
O631	O63	0.585700	0.889000	0.090500
O641	O64	0.557200	0.980510	0.073690
