data_ENITAX_freeONLY_PM
_symmetry_space_group_name_H-M	'P1'
_cell_length_a	12.371000
_cell_length_b	12.371000
_cell_length_c	24.068900
_cell_angle_alpha	90.000000
_cell_angle_beta	90.000000
_cell_angle_gamma	90.000000
_symmetry_Int_Tables_number 1

loop_
_symmetry_equiv_pos_as_xyz
'x,y,z'

loop_
_atom_site_label
_atom_site_type_symbol
_atom_site_fract_x
_atom_site_fract_y
_atom_site_fract_z
Cu11	Cu1	0.892600	0.500000	0.000000
Cu21	Cu2	0.107400	0.500000	0.000000
Cu31	Cu3	0.500000	0.892600	0.500000
Cu41	Cu4	0.500000	0.107400	0.500000
Si11	Si1	0.000000	0.000000	0.750000
Si21	Si2	0.000000	0.000000	0.250000
H11	H1	0.837400	0.870000	0.804900
H21	H2	0.840600	0.733500	0.872700
H31	H3	0.162600	0.130000	0.804900
H41	H4	0.159400	0.266500	0.872700
H51	H5	0.130000	0.837400	0.304900
H61	H6	0.266500	0.840600	0.372700
H71	H7	0.870000	0.162600	0.304900
H81	H8	0.733500	0.159400	0.372700
H91	H9	0.162600	0.870000	0.195100
H101	H10	0.159400	0.733500	0.127300
H111	H11	0.837400	0.130000	0.195100
H121	H12	0.840600	0.266500	0.127300
H131	H13	0.870000	0.837400	0.695100
H141	H14	0.733500	0.840600	0.627300
H151	H15	0.130000	0.162600	0.695100
H161	H16	0.266500	0.159400	0.627300
H171	H17	0.162600	0.130000	0.195100
H181	H18	0.159400	0.266500	0.127300
H191	H19	0.837400	0.870000	0.195100
H201	H20	0.840600	0.733500	0.127300
H211	H21	0.870000	0.162600	0.695100
H221	H22	0.733500	0.159400	0.627300
H231	H23	0.130000	0.837400	0.695100
H241	H24	0.266500	0.840600	0.627300
H251	H25	0.837400	0.130000	0.804900
H261	H26	0.840600	0.266500	0.872700
H271	H27	0.162600	0.870000	0.804900
H281	H28	0.159400	0.733500	0.872700
H291	H29	0.130000	0.162600	0.304900
H301	H30	0.266500	0.159400	0.372700
H311	H31	0.870000	0.837400	0.304900
H321	H32	0.733500	0.840600	0.372700
C11	C1	0.904400	0.843200	0.818300
C21	C2	0.906800	0.762900	0.859500
C31	C3	0.095600	0.156800	0.818300
C41	C4	0.093200	0.237100	0.859500
C51	C5	0.156800	0.904400	0.318300
C61	C6	0.237100	0.906800	0.359500
C71	C7	0.843200	0.095600	0.318300
C81	C8	0.762900	0.093200	0.359500
C91	C9	0.095600	0.843200	0.181700
C101	C10	0.093200	0.762900	0.140500
C111	C11	0.904400	0.156800	0.181700
C121	C12	0.906800	0.237100	0.140500
C131	C13	0.843200	0.904400	0.681700
C141	C14	0.762900	0.906800	0.640500
C151	C15	0.156800	0.095600	0.681700
C161	C16	0.237100	0.093200	0.640500
C171	C17	0.095600	0.156800	0.181700
C181	C18	0.093200	0.237100	0.140500
C191	C19	0.904400	0.843200	0.181700
C201	C20	0.906800	0.762900	0.140500
C211	C21	0.843200	0.095600	0.681700
C221	C22	0.762900	0.093200	0.640500
C231	C23	0.156800	0.904400	0.681700
C241	C24	0.237100	0.906800	0.640500
C251	C25	0.904400	0.156800	0.818300
C261	C26	0.906800	0.237100	0.859500
C271	C27	0.095600	0.843200	0.818300
C281	C28	0.093200	0.762900	0.859500
C291	C29	0.156800	0.095600	0.318300
C301	C30	0.237100	0.093200	0.359500
C311	C31	0.843200	0.904400	0.318300
C321	C32	0.762900	0.906800	0.359500
C331	C33	0.000000	0.882600	0.797700
C341	C34	0.000000	0.726800	0.880600
C351	C35	0.000000	0.641900	0.926800
C361	C36	0.000000	0.117400	0.797700
C371	C37	0.000000	0.273200	0.880600
C381	C38	0.000000	0.358100	0.926800
C391	C39	0.117400	0.000000	0.297700
C401	C40	0.273200	0.000000	0.380600
C411	C41	0.358100	0.000000	0.426800
C421	C42	0.882600	0.000000	0.297700
C431	C43	0.726800	0.000000	0.380600
C441	C44	0.641900	0.000000	0.426800
C451	C45	0.000000	0.882600	0.202300
C461	C46	0.000000	0.726800	0.119400
C471	C47	0.000000	0.641900	0.073200
C481	C48	0.000000	0.117400	0.202300
C491	C49	0.000000	0.273200	0.119400
C501	C50	0.000000	0.358100	0.073200
C511	C51	0.882600	0.000000	0.702300
C521	C52	0.726800	0.000000	0.619400
C531	C53	0.641900	0.000000	0.573200
C541	C54	0.117400	0.000000	0.702300
C551	C55	0.273200	0.000000	0.619400
C561	C56	0.358100	0.000000	0.573200
O11	O1	0.909200	0.612200	0.943170
O21	O2	0.090800	0.387800	0.943170
O31	O3	0.387800	0.909200	0.443170
O41	O4	0.612200	0.090800	0.443170
O51	O5	0.090800	0.612200	0.056830
O61	O6	0.909200	0.387800	0.056830
O71	O7	0.612200	0.909200	0.556830
O81	O8	0.387800	0.090800	0.556830
O91	O9	0.090800	0.387800	0.056830
O101	O10	0.909200	0.612200	0.056830
O111	O11	0.612200	0.090800	0.556830
O121	O12	0.387800	0.909200	0.556830
O131	O13	0.909200	0.387800	0.943170
O141	O14	0.090800	0.612200	0.943170
O151	O15	0.387800	0.090800	0.443170
O161	O16	0.612200	0.909200	0.443170
