data_EPUXET_freeONLY_PM
_symmetry_space_group_name_H-M	'P1'
_cell_length_a	13.188500
_cell_length_b	18.112900
_cell_length_c	24.841000
_cell_angle_alpha	90.000000
_cell_angle_beta	90.000000
_cell_angle_gamma	90.000000
_symmetry_Int_Tables_number 1

loop_
_symmetry_equiv_pos_as_xyz
'x,y,z'

loop_
_atom_site_label
_atom_site_type_symbol
_atom_site_fract_x
_atom_site_fract_y
_atom_site_fract_z
Cd11	Cd1	0.832740	0.979390	0.324560
Cd21	Cd2	0.913300	0.897830	0.848360
Cd31	Cd3	0.667260	0.020610	0.824560
Cd41	Cd4	0.586700	0.102170	0.348360
Cd51	Cd5	0.167260	0.479390	0.175440
Cd61	Cd6	0.086700	0.397830	0.651640
Cd71	Cd7	0.332740	0.520610	0.675440
Cd81	Cd8	0.413300	0.602170	0.151640
H11	H1	0.048000	0.789700	0.272000
H21	H2	0.945300	0.760300	0.249200
H31	H3	0.108300	0.723300	0.188300
H41	H4	0.999000	0.715100	0.164000
H51	H5	0.957500	0.770700	0.077300
H61	H6	0.040500	0.805500	0.040200
H71	H7	0.942100	0.903700	0.075400
H81	H8	0.887700	0.825000	0.153100
H91	H9	0.924000	0.901800	0.175200
H101	H10	0.097200	0.916100	0.209200
H111	H11	0.168200	0.847800	0.218800
H121	H12	0.103800	0.928400	0.071200
H131	H13	0.058500	0.961800	0.123700
H141	H14	0.226100	0.913100	0.141500
H151	H15	0.242600	0.782900	0.128900
H161	H16	0.209200	0.818800	0.074400
H171	H17	0.180900	0.696000	0.056200
H181	H18	0.070200	0.668400	0.063700
H191	H19	0.652000	0.875000	0.262300
H201	H20	0.534200	0.867400	0.267900
H211	H21	0.464100	0.990300	0.193800
H221	H22	0.419400	0.909900	0.191200
H231	H23	0.658400	0.815200	0.178100
H241	H24	0.541400	0.800100	0.181300
H251	H25	0.425300	0.838600	0.104900
H261	H26	0.470800	0.874600	0.052600
H271	H27	0.401400	0.966400	0.107200
H281	H28	0.537700	0.003000	0.058200
H291	H29	0.532900	0.046400	0.112900
H301	H30	0.732900	0.874500	0.099200
H311	H31	0.667200	0.895900	0.048900
H321	H32	0.701900	0.004100	0.098000
H331	H33	0.723900	0.946700	0.182100
H341	H34	0.647200	0.012400	0.187900
H351	H35	0.595500	0.768500	0.041800
H361	H36	0.675100	0.750800	0.086900
H371	H37	0.033200	0.035700	0.265400
H381	H38	0.092100	0.114100	0.196900
H391	H39	0.807900	0.170100	0.167400
H401	H40	0.756800	0.093300	0.233900
H411	H41	0.069500	0.199200	0.129500
H421	H42	0.972600	0.249100	0.133000
H431	H43	0.814400	0.714300	0.530100
H441	H44	0.788300	0.784300	0.563800
H451	H45	0.719300	0.762200	0.453200
H461	H46	0.714400	0.841500	0.381900
H471	H47	0.947600	0.949800	0.436300
H481	H48	0.961100	0.869900	0.505700
H491	H49	0.799300	0.966900	0.956000
H501	H50	0.829500	0.042000	0.026100
H511	H51	0.113000	0.063900	0.978800
H521	H52	0.078800	0.995400	0.907000
H531	H53	0.085700	0.111600	0.059400
H541	H54	0.005900	0.068900	0.094000
H551	H55	0.977300	0.206900	0.047300
H561	H56	0.889100	0.163000	0.075400
H571	H57	0.958000	0.799900	0.581300
H581	H58	0.980200	0.726700	0.550100
H591	H59	0.856200	0.682100	0.618700
H601	H60	0.973600	0.674900	0.623500
H611	H61	0.803800	0.695200	0.706600
H621	H62	0.805000	0.758900	0.787900
H631	H63	0.031900	0.876000	0.736600
H641	H64	0.035400	0.810900	0.656100
H651	H65	0.452000	0.210300	0.772000
H661	H66	0.554700	0.239700	0.749200
H671	H67	0.391700	0.276700	0.688300
H681	H68	0.501000	0.284900	0.664000
H691	H69	0.542500	0.229300	0.577300
H701	H70	0.459500	0.194500	0.540200
H711	H71	0.557900	0.096300	0.575400
H721	H72	0.612300	0.175000	0.653100
H731	H73	0.576000	0.098200	0.675200
H741	H74	0.402800	0.083900	0.709200
H751	H75	0.331800	0.152200	0.718800
H761	H76	0.396200	0.071600	0.571200
H771	H77	0.441500	0.038200	0.623700
H781	H78	0.273900	0.086900	0.641500
H791	H79	0.257400	0.217100	0.628900
H801	H80	0.290800	0.181200	0.574400
H811	H81	0.319100	0.304000	0.556200
H821	H82	0.429800	0.331600	0.563700
H831	H83	0.848000	0.125000	0.762300
H841	H84	0.965800	0.132600	0.767900
H851	H85	0.035900	0.009700	0.693800
H861	H86	0.080600	0.090100	0.691200
H871	H87	0.841600	0.184800	0.678100
H881	H88	0.958600	0.199900	0.681300
H891	H89	0.074700	0.161400	0.604900
H901	H90	0.029200	0.125400	0.552600
H911	H91	0.098600	0.033600	0.607200
H921	H92	0.962300	0.997000	0.558200
H931	H93	0.967100	0.953600	0.612900
H941	H94	0.767100	0.125500	0.599200
H951	H95	0.832800	0.104100	0.548900
H961	H96	0.798100	0.995900	0.598000
H971	H97	0.776100	0.053300	0.682100
H981	H98	0.852800	0.987600	0.687900
H991	H99	0.904500	0.231500	0.541800
H1001	H100	0.824900	0.249200	0.586900
H1011	H101	0.466800	0.964300	0.765400
H1021	H102	0.407900	0.885900	0.696900
H1031	H103	0.692100	0.829900	0.667400
H1041	H104	0.743200	0.906700	0.733900
H1051	H105	0.430500	0.800800	0.629500
H1061	H106	0.527400	0.750900	0.633000
H1071	H107	0.685600	0.285700	0.030100
H1081	H108	0.711700	0.215700	0.063800
H1091	H109	0.780700	0.237800	0.953200
H1101	H110	0.785600	0.158500	0.881900
H1111	H111	0.552400	0.050200	0.936300
H1121	H112	0.538900	0.130100	0.005700
H1131	H113	0.700700	0.033100	0.456000
H1141	H114	0.670500	0.958000	0.526100
H1151	H115	0.387000	0.936100	0.478800
H1161	H116	0.421200	0.004600	0.407000
H1171	H117	0.414300	0.888400	0.559400
H1181	H118	0.494100	0.931100	0.594000
H1191	H119	0.522700	0.793100	0.547300
H1201	H120	0.610900	0.837000	0.575400
H1211	H121	0.542000	0.200100	0.081300
H1221	H122	0.519800	0.273300	0.050100
H1231	H123	0.643800	0.317900	0.118700
H1241	H124	0.526400	0.325100	0.123500
H1251	H125	0.696200	0.304800	0.206600
H1261	H126	0.695000	0.241100	0.287900
H1271	H127	0.468100	0.124000	0.236600
H1281	H128	0.464600	0.189100	0.156100
H1291	H129	0.952000	0.289700	0.228000
H1301	H130	0.054700	0.260300	0.250800
H1311	H131	0.891700	0.223300	0.311700
H1321	H132	0.001000	0.215100	0.336000
H1331	H133	0.042500	0.270700	0.422700
H1341	H134	0.959500	0.305500	0.459800
H1351	H135	0.057900	0.403700	0.424600
H1361	H136	0.112300	0.325000	0.346900
H1371	H137	0.076000	0.401800	0.324800
H1381	H138	0.902800	0.416100	0.290800
H1391	H139	0.831800	0.347800	0.281200
H1401	H140	0.896200	0.428400	0.428800
H1411	H141	0.941500	0.461800	0.376300
H1421	H142	0.773900	0.413100	0.358500
H1431	H143	0.757400	0.282900	0.371100
H1441	H144	0.790800	0.318800	0.425600
H1451	H145	0.819100	0.196000	0.443800
H1461	H146	0.929800	0.168400	0.436300
H1471	H147	0.348000	0.375000	0.237700
H1481	H148	0.465800	0.367400	0.232100
H1491	H149	0.535900	0.490300	0.306200
H1501	H150	0.580600	0.409900	0.308800
H1511	H151	0.341600	0.315200	0.321900
H1521	H152	0.458600	0.300100	0.318700
H1531	H153	0.574700	0.338600	0.395100
H1541	H154	0.529200	0.374600	0.447400
H1551	H155	0.598600	0.466400	0.392800
H1561	H156	0.462300	0.503000	0.441800
H1571	H157	0.467100	0.546400	0.387100
H1581	H158	0.267100	0.374500	0.400800
H1591	H159	0.332800	0.395900	0.451100
H1601	H160	0.298100	0.504100	0.402000
H1611	H161	0.276100	0.446700	0.317900
H1621	H162	0.352800	0.512400	0.312100
H1631	H163	0.404500	0.268500	0.458200
H1641	H164	0.324900	0.250800	0.413100
H1651	H165	0.966800	0.535700	0.234600
H1661	H166	0.907900	0.614100	0.303100
H1671	H167	0.192100	0.670100	0.332600
H1681	H168	0.243200	0.593300	0.266100
H1691	H169	0.930500	0.699200	0.370500
H1701	H170	0.027400	0.749100	0.367000
H1711	H171	0.185600	0.214300	0.969900
H1721	H172	0.211700	0.284300	0.936200
H1731	H173	0.280700	0.262200	0.046800
H1741	H174	0.285600	0.341500	0.118100
H1751	H175	0.052400	0.449800	0.063700
H1761	H176	0.038900	0.369900	0.994300
H1771	H177	0.200700	0.466900	0.544000
H1781	H178	0.170500	0.542000	0.473900
H1791	H179	0.887000	0.563900	0.521200
H1801	H180	0.921200	0.495400	0.593000
H1811	H181	0.914300	0.611600	0.440600
H1821	H182	0.994100	0.568900	0.406000
H1831	H183	0.022700	0.706900	0.452700
H1841	H184	0.110900	0.663000	0.424600
H1851	H185	0.042000	0.299900	0.918700
H1861	H186	0.019800	0.226700	0.949900
H1871	H187	0.143800	0.182100	0.881300
H1881	H188	0.026400	0.174900	0.876500
H1891	H189	0.196200	0.195200	0.793400
H1901	H190	0.195000	0.258900	0.712100
H1911	H191	0.968100	0.376000	0.763400
H1921	H192	0.964600	0.310900	0.843900
H1931	H193	0.548000	0.710300	0.728000
H1941	H194	0.445300	0.739700	0.750800
H1951	H195	0.608300	0.776700	0.811700
H1961	H196	0.499000	0.784900	0.836000
H1971	H197	0.457500	0.729300	0.922700
H1981	H198	0.540500	0.694500	0.959800
H1991	H199	0.442100	0.596300	0.924600
H2001	H200	0.387700	0.675000	0.846900
H2011	H201	0.424000	0.598200	0.824800
H2021	H202	0.597200	0.583900	0.790800
H2031	H203	0.668200	0.652200	0.781200
H2041	H204	0.603800	0.571600	0.928800
H2051	H205	0.558500	0.538200	0.876300
H2061	H206	0.726100	0.586900	0.858500
H2071	H207	0.742600	0.717100	0.871100
H2081	H208	0.709200	0.681200	0.925600
H2091	H209	0.680900	0.804000	0.943800
H2101	H210	0.570200	0.831600	0.936300
H2111	H211	0.152000	0.625000	0.737700
H2121	H212	0.034200	0.632600	0.732100
H2131	H213	0.964100	0.509700	0.806200
H2141	H214	0.919400	0.590100	0.808800
H2151	H215	0.158400	0.684800	0.821900
H2161	H216	0.041400	0.699900	0.818700
H2171	H217	0.925300	0.661400	0.895100
H2181	H218	0.970800	0.625400	0.947400
H2191	H219	0.901400	0.533600	0.892800
H2201	H220	0.037700	0.497000	0.941800
H2211	H221	0.032900	0.453600	0.887100
H2221	H222	0.232900	0.625500	0.900800
H2231	H223	0.167200	0.604100	0.951100
H2241	H224	0.201900	0.495900	0.902000
H2251	H225	0.223900	0.553300	0.817900
H2261	H226	0.147200	0.487600	0.812100
H2271	H227	0.095500	0.731500	0.958200
H2281	H228	0.175100	0.749200	0.913100
H2291	H229	0.533200	0.464300	0.734600
H2301	H230	0.592100	0.385900	0.803100
H2311	H231	0.307900	0.329900	0.832600
H2321	H232	0.256800	0.406700	0.766100
H2331	H233	0.569500	0.300800	0.870500
H2341	H234	0.472600	0.250900	0.867000
H2351	H235	0.314400	0.785700	0.469900
H2361	H236	0.288300	0.715700	0.436200
H2371	H237	0.219300	0.737800	0.546800
H2381	H238	0.214400	0.658500	0.618100
H2391	H239	0.447600	0.550200	0.563700
H2401	H240	0.461100	0.630100	0.494300
H2411	H241	0.299300	0.533100	0.044000
H2421	H242	0.329500	0.458000	0.973900
H2431	H243	0.613000	0.436100	0.021200
H2441	H244	0.578800	0.504600	0.093000
H2451	H245	0.585700	0.388400	0.940600
H2461	H246	0.505900	0.431100	0.906000
H2471	H247	0.477300	0.293100	0.952700
H2481	H248	0.389100	0.337000	0.924600
H2491	H249	0.458000	0.700100	0.418700
H2501	H250	0.480200	0.773300	0.449900
H2511	H251	0.356200	0.817900	0.381300
H2521	H252	0.473600	0.825100	0.376500
H2531	H253	0.303800	0.804800	0.293400
H2541	H254	0.305000	0.741100	0.212100
H2551	H255	0.531900	0.624000	0.263400
H2561	H256	0.535400	0.689100	0.343900
C11	C1	0.935000	0.863900	0.277900
C21	C2	0.989700	0.802900	0.250200
C31	C3	0.027500	0.818100	0.191500
C41	C4	0.057600	0.747400	0.166100
C51	C5	0.100900	0.759500	0.108700
C61	C6	0.018400	0.800800	0.077300
C71	C7	0.990900	0.877700	0.098300
C81	C8	0.946000	0.857100	0.157100
C91	C9	0.118300	0.868900	0.194500
C101	C10	0.076900	0.915800	0.106300
C111	C11	0.166400	0.881000	0.139900
C121	C12	0.187300	0.808100	0.110800
C131	C13	0.129700	0.685300	0.083100
C141	C14	0.167300	0.621000	0.114300
C151	C15	0.584900	0.970000	0.287800
C161	C16	0.588000	0.899700	0.255400
C171	C17	0.473200	0.941700	0.178100
C181	C18	0.576500	0.910400	0.194700
C191	C19	0.592300	0.834200	0.168100
C201	C20	0.585000	0.839000	0.105900
C211	C21	0.478000	0.870900	0.091400
C221	C22	0.468300	0.946800	0.116800
C231	C23	0.543700	0.998200	0.097000
C241	C24	0.667100	0.892800	0.087900
C251	C25	0.650200	0.969900	0.111500
C261	C26	0.656900	0.963900	0.172100
C271	C27	0.605200	0.764800	0.080400
C281	C28	0.533500	0.704200	0.103400
C291	C29	0.986800	0.062700	0.245300
C301	C30	0.023000	0.110600	0.204000
C311	C31	0.955500	0.150900	0.175100
C321	C32	0.855900	0.143300	0.186700
C331	C33	0.825700	0.097000	0.226400
C341	C34	0.996000	0.198800	0.128400
C351	C35	0.839000	0.762800	0.540300
C361	C36	0.841700	0.808900	0.490100
C371	C37	0.766600	0.800100	0.450700
C381	C38	0.764100	0.849100	0.407800
C391	C39	0.900900	0.911600	0.439500
C401	C40	0.907800	0.864000	0.481500
C411	C41	0.863400	0.987600	0.959800
C421	C42	0.882500	0.030900	0.002800
C431	C43	0.979500	0.060300	0.013900
C441	C44	0.047800	0.044900	0.975200
C451	C45	0.027100	0.003600	0.931800
C461	C46	0.013900	0.101300	0.063100
C471	C47	0.961900	0.170800	0.074900
C481	C48	0.930500	0.751800	0.572400
C491	C49	0.918500	0.710300	0.621800
C501	C50	0.915500	0.749300	0.673900
C511	C51	0.850600	0.732900	0.712000
C521	C52	0.851100	0.771900	0.761200
C531	C53	0.983600	0.839400	0.731000
C541	C54	0.986300	0.800900	0.681900
C551	C55	0.565000	0.136100	0.777900
C561	C56	0.510300	0.197100	0.750200
C571	C57	0.472500	0.181900	0.691500
C581	C58	0.442400	0.252600	0.666100
C591	C59	0.399100	0.240500	0.608700
C601	C60	0.481600	0.199200	0.577300
C611	C61	0.509100	0.122300	0.598300
C621	C62	0.554000	0.142900	0.657100
C631	C63	0.381700	0.131100	0.694500
C641	C64	0.423100	0.084200	0.606300
C651	C65	0.333600	0.119000	0.639900
C661	C66	0.312700	0.191900	0.610800
C671	C67	0.370300	0.314700	0.583100
C681	C68	0.332700	0.379000	0.614300
C691	C69	0.915100	0.030000	0.787800
C701	C70	0.912000	0.100300	0.755400
C711	C71	0.026800	0.058300	0.678100
C721	C72	0.923500	0.089600	0.694700
C731	C73	0.907700	0.165800	0.668100
C741	C74	0.915000	0.161000	0.605900
C751	C75	0.022000	0.129100	0.591400
C761	C76	0.031700	0.053200	0.616800
C771	C77	0.956300	0.001800	0.597000
C781	C78	0.832900	0.107200	0.587900
C791	C79	0.849800	0.030100	0.611500
C801	C80	0.843100	0.036100	0.672100
C811	C81	0.894800	0.235200	0.580400
C821	C82	0.966500	0.295800	0.603400
C831	C83	0.513200	0.937300	0.745300
C841	C84	0.477000	0.889400	0.704000
C851	C85	0.544500	0.849100	0.675100
C861	C86	0.644100	0.856700	0.686700
C871	C87	0.674300	0.903000	0.726400
C881	C88	0.504000	0.801200	0.628400
C891	C89	0.661000	0.237200	0.040300
C901	C90	0.658300	0.191100	0.990100
C911	C91	0.733400	0.199900	0.950700
C921	C92	0.735900	0.150900	0.907800
C931	C93	0.599100	0.088400	0.939500
C941	C94	0.592200	0.136000	0.981500
C951	C95	0.636600	0.012400	0.459800
C961	C96	0.617500	0.969100	0.502800
C971	C97	0.520500	0.939700	0.513900
C981	C98	0.452200	0.955100	0.475200
C991	C99	0.472900	0.996400	0.431800
C1001	C100	0.486100	0.898700	0.563100
C1011	C101	0.538100	0.829200	0.574900
C1021	C102	0.569500	0.248200	0.072400
C1031	C103	0.581500	0.289700	0.121800
C1041	C104	0.584500	0.250700	0.173900
C1051	C105	0.649400	0.267100	0.212000
C1061	C106	0.648900	0.228100	0.261200
C1071	C107	0.516400	0.160600	0.231000
C1081	C108	0.513700	0.199100	0.181900
C1091	C109	0.065000	0.363900	0.222100
C1101	C110	0.010300	0.302900	0.249800
C1111	C111	0.972500	0.318100	0.308500
C1121	C112	0.942400	0.247400	0.333900
C1131	C113	0.899100	0.259500	0.391300
C1141	C114	0.981600	0.300800	0.422700
C1151	C115	0.009100	0.377700	0.401700
C1161	C116	0.054000	0.357100	0.342900
C1171	C117	0.881700	0.368900	0.305500
C1181	C118	0.923100	0.415800	0.393700
C1191	C119	0.833600	0.381000	0.360100
C1201	C120	0.812700	0.308100	0.389200
C1211	C121	0.870300	0.185300	0.416900
C1221	C122	0.832700	0.121000	0.385700
C1231	C123	0.415100	0.470000	0.212200
C1241	C124	0.412000	0.399700	0.244600
C1251	C125	0.526800	0.441700	0.321900
C1261	C126	0.423500	0.410400	0.305300
C1271	C127	0.407700	0.334200	0.331900
C1281	C128	0.415000	0.339000	0.394100
C1291	C129	0.522000	0.370900	0.408600
C1301	C130	0.531700	0.446800	0.383200
C1311	C131	0.456300	0.498200	0.403000
C1321	C132	0.332900	0.392800	0.412100
C1331	C133	0.349800	0.469900	0.388500
C1341	C134	0.343100	0.463900	0.327900
C1351	C135	0.394800	0.264800	0.419600
C1361	C136	0.466500	0.204200	0.396600
C1371	C137	0.013200	0.562700	0.254700
C1381	C138	0.977000	0.610600	0.296000
C1391	C139	0.044500	0.650900	0.324900
C1401	C140	0.144100	0.643300	0.313300
C1411	C141	0.174300	0.597000	0.273600
C1421	C142	0.004000	0.698800	0.371600
C1431	C143	0.161000	0.262800	0.959700
C1441	C144	0.158300	0.308900	0.009900
C1451	C145	0.233400	0.300100	0.049300
C1461	C146	0.235900	0.349100	0.092200
C1471	C147	0.099100	0.411600	0.060500
C1481	C148	0.092200	0.364000	0.018500
C1491	C149	0.136600	0.487600	0.540200
C1501	C150	0.117500	0.530900	0.497200
C1511	C151	0.020500	0.560300	0.486100
C1521	C152	0.952200	0.544900	0.524800
C1531	C153	0.972900	0.503600	0.568200
C1541	C154	0.986100	0.601300	0.436900
C1551	C155	0.038100	0.670800	0.425100
C1561	C156	0.069500	0.251800	0.927600
C1571	C157	0.081500	0.210300	0.878200
C1581	C158	0.084500	0.249300	0.826100
C1591	C159	0.149400	0.232900	0.788000
C1601	C160	0.148900	0.271900	0.738800
C1611	C161	0.016400	0.339400	0.769000
C1621	C162	0.013700	0.300900	0.818100
C1631	C163	0.435000	0.636100	0.722100
C1641	C164	0.489700	0.697100	0.749800
C1651	C165	0.527500	0.681900	0.808500
C1661	C166	0.557600	0.752600	0.833900
C1671	C167	0.600900	0.740500	0.891300
C1681	C168	0.518400	0.699200	0.922700
C1691	C169	0.490900	0.622300	0.901700
C1701	C170	0.446000	0.642900	0.842900
C1711	C171	0.618300	0.631100	0.805500
C1721	C172	0.576900	0.584200	0.893700
C1731	C173	0.666400	0.619000	0.860100
C1741	C174	0.687300	0.691900	0.889200
C1751	C175	0.629700	0.814700	0.916900
C1761	C176	0.667300	0.879000	0.885700
C1771	C177	0.084900	0.530000	0.712200
C1781	C178	0.088000	0.600300	0.744600
C1791	C179	0.973200	0.558300	0.821900
C1801	C180	0.076500	0.589600	0.805300
C1811	C181	0.092300	0.665800	0.831900
C1821	C182	0.085000	0.661000	0.894100
C1831	C183	0.978000	0.629100	0.908600
C1841	C184	0.968300	0.553200	0.883200
C1851	C185	0.043700	0.501800	0.903000
C1861	C186	0.167100	0.607200	0.912100
C1871	C187	0.150200	0.530100	0.888500
C1881	C188	0.156900	0.536100	0.827900
C1891	C189	0.105200	0.735200	0.919600
C1901	C190	0.033500	0.795800	0.896600
C1911	C191	0.486800	0.437300	0.754700
C1921	C192	0.523000	0.389400	0.796000
C1931	C193	0.455500	0.349100	0.824900
C1941	C194	0.355900	0.356700	0.813300
C1951	C195	0.325700	0.403000	0.773600
C1961	C196	0.496000	0.301200	0.871600
C1971	C197	0.339000	0.737200	0.459700
C1981	C198	0.341700	0.691100	0.509900
C1991	C199	0.266600	0.699900	0.549300
C2001	C200	0.264100	0.650900	0.592200
C2011	C201	0.400900	0.588400	0.560500
C2021	C202	0.407800	0.636000	0.518500
C2031	C203	0.363400	0.512400	0.040200
C2041	C204	0.382500	0.469100	0.997200
C2051	C205	0.479500	0.439700	0.986100
C2061	C206	0.547800	0.455100	0.024800
C2071	C207	0.527100	0.496400	0.068200
C2081	C208	0.513900	0.398700	0.936900
C2091	C209	0.461900	0.329200	0.925100
C2101	C210	0.430500	0.748200	0.427600
C2111	C211	0.418500	0.789700	0.378200
C2121	C212	0.415500	0.750700	0.326100
C2131	C213	0.350600	0.767100	0.288000
C2141	C214	0.351100	0.728100	0.238800
C2151	C215	0.483600	0.660600	0.269000
C2161	C216	0.486300	0.699100	0.318100
N11	N1	0.891200	0.055900	0.255500
N21	N2	0.824100	0.904000	0.400600
N31	N3	0.935300	0.973200	0.921800
N41	N4	0.915400	0.826800	0.770300
N51	N5	0.608800	0.944100	0.755500
N61	N6	0.675900	0.096000	0.900600
N71	N7	0.564700	0.026800	0.421800
N81	N8	0.584600	0.173200	0.270300
N91	N9	0.108800	0.555900	0.244500
N101	N10	0.175900	0.404000	0.099400
N111	N11	0.064700	0.473200	0.578200
N121	N12	0.084600	0.326800	0.729700
N131	N13	0.391200	0.444100	0.744500
N141	N14	0.324100	0.596000	0.599400
N151	N15	0.435300	0.526800	0.078200
N161	N16	0.415400	0.673200	0.229700
O11	O1	0.841200	0.866500	0.275500
O21	O2	0.986700	0.910000	0.304600
O31	O3	0.100100	0.571300	0.117600
O41	O4	0.242300	0.622500	0.136900
O51	O5	0.664800	0.997900	0.305000
O61	O6	0.500700	0.003800	0.296500
O71	O7	0.577500	0.653600	0.132300
O81	O8	0.444300	0.703800	0.096500
O91	O9	0.658800	0.133500	0.775500
O101	O10	0.513300	0.090000	0.804600
O111	O11	0.399900	0.428700	0.617600
O121	O12	0.257700	0.377500	0.636900
O131	O13	0.835200	0.002100	0.805000
O141	O14	0.999300	0.996200	0.796500
O151	O15	0.922500	0.346400	0.632300
O161	O16	0.055700	0.296200	0.596500
O171	O17	0.158800	0.366500	0.224500
O181	O18	0.013300	0.410000	0.195400
O191	O19	0.899900	0.071300	0.382400
O201	O20	0.757700	0.122500	0.363100
O211	O21	0.335200	0.497900	0.195000
O221	O22	0.499300	0.503800	0.203500
O231	O23	0.422500	0.153600	0.367700
O241	O24	0.555700	0.203800	0.403500
O251	O25	0.341200	0.633500	0.724500
O261	O26	0.486700	0.590000	0.695400
O271	O27	0.600100	0.928700	0.882400
O281	O28	0.742300	0.877500	0.863100
O291	O29	0.164800	0.502100	0.695000
O301	O30	0.000700	0.496200	0.703500
O311	O31	0.077500	0.846400	0.867700
O321	O32	0.944300	0.796200	0.903500
