data_EQOCIW_freeONLY_PM
_symmetry_space_group_name_H-M	'P1'
_cell_length_a	8.882970
_cell_length_b	9.935500
_cell_length_c	14.505200
_cell_angle_alpha	82.132600
_cell_angle_beta	72.169900
_cell_angle_gamma	63.446600
_symmetry_Int_Tables_number 1

loop_
_symmetry_equiv_pos_as_xyz
'x,y,z'

loop_
_atom_site_label
_atom_site_type_symbol
_atom_site_fract_x
_atom_site_fract_y
_atom_site_fract_z
Co11	Co1	0.025000	0.581160	0.872420
Co21	Co2	0.478580	0.418840	0.127580
Co31	Co3	0.147420	0.081160	0.627580
Co41	Co4	0.856160	0.918840	0.372420
H11	H1	0.734700	0.472800	0.950400
H21	H2	0.825200	0.714000	0.098600
H31	H3	0.603300	0.648400	0.201200
H41	H4	0.204500	0.257000	0.768400
H51	H5	0.797500	0.616000	0.732000
H61	H6	0.841600	0.417800	0.633000
H71	H7	0.157900	0.527200	0.049600
H81	H8	0.637800	0.286000	0.901400
H91	H9	0.452900	0.351600	0.798800
H101	H10	0.229900	0.743000	0.231600
H111	H11	0.145500	0.384000	0.268000
H121	H12	0.892400	0.582200	0.367000
H131	H13	0.935100	0.972800	0.549600
H141	H14	0.173800	0.214000	0.401400
H151	H15	0.054500	0.148400	0.298800
H161	H16	0.222900	0.757000	0.731600
H171	H17	0.779500	0.116000	0.768000
H181	H18	0.724600	0.917800	0.867000
H191	H19	0.457500	0.027200	0.450400
H201	H20	0.789200	0.786000	0.598600
H211	H21	0.501700	0.851600	0.701200
H221	H22	0.711500	0.243000	0.268400
H231	H23	0.663500	0.884000	0.232000
H241	H24	0.509400	0.082200	0.133000
C11	C1	0.732200	0.522000	0.001200
C21	C2	0.780700	0.655600	0.081000
C31	C3	0.660900	0.617600	0.137200
C41	C4	0.109100	0.323000	0.746200
C51	C5	0.886500	0.518800	0.727400
C61	C6	0.911200	0.410000	0.672000
C71	C7	0.255400	0.478000	0.998800
C81	C8	0.517300	0.344400	0.919000
C91	C9	0.415700	0.382400	0.862800
C101	C10	0.178300	0.677000	0.253800
C111	C11	0.132700	0.481200	0.272600
C121	C12	0.993200	0.590000	0.328000
C131	C13	0.983400	0.022000	0.498800
C141	C14	0.111700	0.155600	0.419000
C151	C15	0.048100	0.117600	0.362800
C161	C16	0.105300	0.823000	0.753800
C171	C17	0.863900	0.018800	0.772600
C181	C18	0.833200	0.910000	0.828000
C191	C19	0.504200	0.978000	0.501200
C201	C20	0.686300	0.844400	0.581000
C211	C21	0.528500	0.882400	0.637200
C221	C22	0.682100	0.177000	0.246200
C231	C23	0.655300	0.981200	0.227400
C241	C24	0.571200	0.090000	0.172000
N11	N1	0.829900	0.595400	0.992600
N21	N2	0.630700	0.527000	0.090400
N31	N3	0.010800	0.466600	0.776400
N41	N4	0.056240	0.285400	0.682320
N51	N5	0.417900	0.404600	0.007400
N61	N6	0.248100	0.473000	0.909600
N71	N7	0.253800	0.533400	0.223600
N81	N8	0.023960	0.714600	0.317680
N91	N9	0.072500	0.095400	0.507400
N101	N10	0.971100	0.027000	0.409600
N111	N11	0.037200	0.966600	0.723600
N121	N12	0.988560	0.785400	0.817680
N131	N13	0.675300	0.904600	0.492600
N141	N14	0.407700	0.973000	0.590400
N151	N15	0.727400	0.033400	0.276400
N161	N16	0.591640	0.214600	0.182320
