data_EREFEN01_SL_PM
_symmetry_space_group_name_H-M	'P1'
_cell_length_a	13.174100
_cell_length_b	13.219000
_cell_length_c	14.028800
_cell_angle_alpha	82.989000
_cell_angle_beta	82.369000
_cell_angle_gamma	84.054000
_symmetry_Int_Tables_number 1

loop_
_symmetry_equiv_pos_as_xyz
'x,y,z'

loop_
_atom_site_label
_atom_site_type_symbol
_atom_site_fract_x
_atom_site_fract_y
_atom_site_fract_z
Zn11	Zn1	0.363970	0.171970	0.799010
Zn21	Zn2	0.373840	0.177610	0.588830
H31	H3	0.339900	0.495900	0.805300
H41	H4	0.338000	0.659200	0.867100
H51	H5	0.344400	0.843600	0.856000
H61	H6	0.398900	0.511800	0.519800
H71	H7	0.407200	0.685700	0.513400
H81	H8	0.386300	0.846600	0.583400
H91	H9	0.049900	0.180100	0.589000
H101	H10	0.890800	0.164600	0.522400
H111	H11	0.711000	0.161400	0.534400
H121	H12	0.851000	0.178000	0.876400
H131	H13	0.026400	0.173700	0.870100
H141	H14	0.691900	0.169800	0.806900
H151	H15	0.238700	0.272300	0.956700
H161	H16	0.491700	0.093900	0.121500
H171	H17	0.493900	0.091200	0.956800
H181	H18	0.341700	0.342600	0.254100
H191	H19	0.350800	0.331300	0.418500
H201	H20	0.385600	0.031600	0.440300
H211	H21	0.384200	0.033800	0.275000
C221	C22	0.366700	0.372000	0.670300
C231	C23	0.367600	0.485000	0.662500
C241	C24	0.352300	0.534700	0.744000
C251	C25	0.347600	0.693800	0.803600
C261	C26	0.352300	0.812100	0.797800
C271	C27	0.387300	0.542900	0.578300
C281	C28	0.391100	0.648400	0.575000
C291	C29	0.365500	0.864000	0.721800
C301	C30	0.376300	0.809900	0.646000
C311	C31	0.354300	0.640800	0.739800
C321	C32	0.373900	0.700500	0.651300
C331	C33	0.369500	0.977300	0.710500
C341	C34	0.172000	0.181900	0.720900
C351	C35	0.057600	0.180300	0.729200
C361	C36	0.009600	0.178700	0.650500
C371	C37	0.852700	0.168200	0.584500
C381	C38	0.740200	0.165300	0.592100
C391	C39	0.890800	0.176500	0.814800
C401	C40	0.997100	0.176500	0.811400
C411	C41	0.680600	0.167500	0.669600
C421	C42	0.730800	0.170400	0.744800
C431	C43	0.902300	0.175200	0.654700
C441	C44	0.840700	0.174500	0.739200
C451	C45	0.567200	0.165100	0.679700
C461	C46	0.290700	0.235400	0.991200
C471	C47	0.286100	0.243800	0.088800
C481	C48	0.360400	0.188200	0.140600
C491	C49	0.438300	0.131400	0.089200
C501	C50	0.438800	0.129200	0.991200
C511	C51	0.359500	0.187200	0.246400
C521	C52	0.350900	0.277700	0.290700
C531	C53	0.356100	0.269800	0.388800
C541	C54	0.377200	0.095500	0.401800
C551	C55	0.375000	0.096400	0.303300
C561	C56	0.058600	0.412200	0.138300
C571	C57	0.907400	0.552300	0.191700
C581	C58	0.075800	0.465100	0.204000
C591	C59	0.994100	0.537700	0.229500
C601	C60	0.884500	0.490800	0.123100
C611	C61	0.963800	0.414400	0.093000
N621	N62	0.364200	0.178600	0.943000
N631	N63	0.205400	0.306600	0.138000
N641	N64	0.144300	0.348700	0.092700
N651	N65	0.368100	0.181200	0.444500
O661	O66	0.357000	0.323800	0.753400
O671	O67	0.374500	0.330600	0.593400
O681	O68	0.221000	0.188000	0.639000
O691	O69	0.210000	0.176900	0.799200
O701	O70	0.527200	0.164600	0.602700
O711	O71	0.518200	0.162200	0.762700
O721	O72	0.368200	0.018200	0.787500
O731	O73	0.374500	0.024100	0.627900
H741	H74	0.152610	0.383640	0.786080
H751	H75	0.992340	0.414060	0.712110
H761	H76	0.193560	0.496610	0.905190
H771	H77	0.041920	0.641830	0.961130
H781	H78	0.151890	0.450860	0.235880
Zn791	Zn79	0.636030	0.828030	0.200990
Zn801	Zn80	0.626160	0.822390	0.411170
H811	H81	0.660100	0.504100	0.194700
H821	H82	0.662000	0.340800	0.132900
H831	H83	0.655600	0.156400	0.144000
H841	H84	0.601100	0.488200	0.480200
H851	H85	0.592800	0.314300	0.486600
H861	H86	0.613700	0.153400	0.416600
H871	H87	0.950100	0.819900	0.411000
H881	H88	0.109200	0.835400	0.477600
H891	H89	0.289000	0.838600	0.465600
H901	H90	0.149000	0.822000	0.123600
H911	H91	0.973600	0.826300	0.129900
H921	H92	0.308100	0.830200	0.193100
H931	H93	0.761300	0.727700	0.043300
H941	H94	0.508300	0.906100	0.878500
H951	H95	0.506100	0.908800	0.043200
H961	H96	0.658300	0.657400	0.745900
H971	H97	0.649200	0.668700	0.581500
H981	H98	0.614400	0.968400	0.559700
H991	H99	0.615800	0.966200	0.725000
C1001	C100	0.633300	0.628000	0.329700
C1011	C101	0.632400	0.515000	0.337500
C1021	C102	0.647700	0.465300	0.256000
C1031	C103	0.652400	0.306200	0.196400
C1041	C104	0.647700	0.187900	0.202200
C1051	C105	0.612700	0.457100	0.421700
C1061	C106	0.608900	0.351600	0.425000
C1071	C107	0.634500	0.136000	0.278200
C1081	C108	0.623700	0.190100	0.354000
C1091	C109	0.645700	0.359200	0.260200
C1101	C110	0.626100	0.299500	0.348700
C1111	C111	0.630500	0.022700	0.289500
C1121	C112	0.828000	0.818100	0.279100
C1131	C113	0.942400	0.819700	0.270800
C1141	C114	0.990400	0.821300	0.349500
C1151	C115	0.147300	0.831800	0.415500
C1161	C116	0.259800	0.834700	0.407900
C1171	C117	0.109200	0.823500	0.185200
C1181	C118	0.002900	0.823500	0.188600
C1191	C119	0.319400	0.832500	0.330400
C1201	C120	0.269200	0.829600	0.255200
C1211	C121	0.097700	0.824800	0.345300
C1221	C122	0.159300	0.825500	0.260800
C1231	C123	0.432800	0.834900	0.320300
C1241	C124	0.709300	0.764600	0.008800
C1251	C125	0.713900	0.756200	0.911200
C1261	C126	0.639600	0.811800	0.859400
C1271	C127	0.561700	0.868600	0.910800
C1281	C128	0.561200	0.870800	0.008800
C1291	C129	0.640500	0.812800	0.753600
C1301	C130	0.649100	0.722300	0.709300
C1311	C131	0.643900	0.730200	0.611200
C1321	C132	0.622800	0.904500	0.598200
C1331	C133	0.625000	0.903600	0.696700
C1341	C134	0.941400	0.587800	0.861700
C1351	C135	0.092600	0.447700	0.808300
C1361	C136	0.924200	0.534900	0.796000
C1371	C137	0.005900	0.462300	0.770500
C1381	C138	0.115500	0.509200	0.876900
C1391	C139	0.036200	0.585600	0.907000
N1401	N140	0.635800	0.821400	0.057000
N1411	N141	0.794600	0.693400	0.862000
N1421	N142	0.855700	0.651300	0.907300
N1431	N143	0.631900	0.818800	0.555500
O1441	O144	0.643000	0.676200	0.246600
O1451	O145	0.625500	0.669400	0.406600
O1461	O146	0.779000	0.812000	0.361000
O1471	O147	0.790000	0.823100	0.200800
O1481	O148	0.472800	0.835400	0.397300
O1491	O149	0.481800	0.837800	0.237300
O1501	O150	0.631800	0.981800	0.212500
O1511	O151	0.625500	0.975900	0.372100
H1521	H152	0.847390	0.616360	0.213920
H1531	H153	0.007660	0.585940	0.287890
H1541	H154	0.806440	0.503390	0.094810
H1551	H155	0.958080	0.358170	0.038870
H1561	H156	0.848110	0.549140	0.764120
