data_ERELIX_freeONLY_PM
_symmetry_space_group_name_H-M	'P1'
_cell_length_a	11.450700
_cell_length_b	11.463500
_cell_length_c	21.121000
_cell_angle_alpha	90.000000
_cell_angle_beta	90.000000
_cell_angle_gamma	90.000000
_symmetry_Int_Tables_number 1

loop_
_symmetry_equiv_pos_as_xyz
'x,y,z'

loop_
_atom_site_label
_atom_site_type_symbol
_atom_site_fract_x
_atom_site_fract_y
_atom_site_fract_z
C11	C1	0.046900	0.747500	0.703100
C21	C2	0.045200	0.628400	0.700800
C31	C3	0.747000	0.962800	0.700200
C41	C4	0.627500	0.961500	0.698400
H11	H1	0.083200	0.788400	0.669800
H21	H2	0.078500	0.590000	0.666000
H31	H3	0.788900	0.936700	0.665200
H41	H4	0.588500	0.934900	0.662200
C51	C5	0.953100	0.252500	0.703100
C61	C6	0.954800	0.371600	0.700800
C71	C7	0.253000	0.037200	0.700200
C81	C8	0.372500	0.038500	0.698400
H51	H5	0.916800	0.211600	0.669800
H61	H6	0.921500	0.410000	0.666000
H71	H7	0.211100	0.063300	0.665200
H81	H8	0.411500	0.065100	0.662200
C91	C9	0.953100	0.747500	0.796900
C101	C10	0.954800	0.628400	0.799200
C111	C11	0.253000	0.962800	0.799800
C121	C12	0.372500	0.961500	0.801600
H91	H9	0.916800	0.788400	0.830200
H101	H10	0.921500	0.590000	0.834000
H111	H11	0.211100	0.936700	0.834800
H121	H12	0.411500	0.934900	0.837800
C131	C13	0.046900	0.252500	0.796900
C141	C14	0.045200	0.371600	0.799200
C151	C15	0.747000	0.037200	0.799800
C161	C16	0.627500	0.038500	0.801600
H131	H13	0.083200	0.211600	0.830200
H141	H14	0.078500	0.410000	0.834000
H151	H15	0.788900	0.063300	0.834800
H161	H16	0.588500	0.065100	0.837800
C171	C17	0.953100	0.252500	0.296900
C181	C18	0.954800	0.371600	0.299200
C191	C19	0.253000	0.037200	0.299800
C201	C20	0.372500	0.038500	0.301600
H171	H17	0.916800	0.211600	0.330200
H181	H18	0.921500	0.410000	0.334000
H191	H19	0.211100	0.063300	0.334800
H201	H20	0.411500	0.065100	0.337800
C211	C21	0.046900	0.747500	0.296900
C221	C22	0.045200	0.628400	0.299200
C231	C23	0.747000	0.962800	0.299800
C241	C24	0.627500	0.961500	0.301600
H211	H21	0.083200	0.788400	0.330200
H221	H22	0.078500	0.590000	0.334000
H231	H23	0.788900	0.936700	0.334800
H241	H24	0.588500	0.934900	0.337800
C251	C25	0.046900	0.252500	0.203100
C261	C26	0.045200	0.371600	0.200800
C271	C27	0.747000	0.037200	0.200200
C281	C28	0.627500	0.038500	0.198400
H251	H25	0.083200	0.211600	0.169800
H261	H26	0.078500	0.410000	0.166000
H271	H27	0.788900	0.063300	0.165200
H281	H28	0.588500	0.065100	0.162200
C291	C29	0.953100	0.747500	0.203100
C301	C30	0.954800	0.628400	0.200800
C311	C31	0.253000	0.962800	0.200200
C321	C32	0.372500	0.961500	0.198400
H291	H29	0.916800	0.788400	0.169800
H301	H30	0.921500	0.590000	0.166000
H311	H31	0.211100	0.936700	0.165200
H321	H32	0.411500	0.934900	0.162200
Au11	Au1	0.000000	0.000000	0.500000
Au21	Au2	0.000000	0.000000	0.000000
Br11	Br1	0.796990	0.938910	0.500000
Br21	Br2	0.203010	0.061090	0.500000
Br31	Br3	0.203010	0.938910	0.000000
Br41	Br4	0.796990	0.061090	0.000000
Zn11	Zn1	0.000000	0.000000	0.750000
Zn21	Zn2	0.000000	0.000000	0.250000
N11	N1	0.000000	0.000000	0.647900
C331	C33	0.000000	0.000000	0.594300
N21	N2	0.000000	0.000000	0.852100
C341	C34	0.000000	0.000000	0.905700
N31	N3	0.000000	0.000000	0.352100
C351	C35	0.000000	0.000000	0.405700
N41	N4	0.000000	0.000000	0.147900
C361	C36	0.000000	0.000000	0.094300
N51	N5	0.000000	0.810000	0.750000
C371	C37	0.000000	0.564500	0.750000
N61	N6	0.000000	0.190000	0.750000
C381	C38	0.000000	0.435500	0.750000
N71	N7	0.000000	0.190000	0.250000
C391	C39	0.000000	0.435500	0.250000
N81	N8	0.000000	0.810000	0.250000
C401	C40	0.000000	0.564500	0.250000
N91	N9	0.809100	0.000000	0.750000
C411	C41	0.564300	0.000000	0.750000
N101	N10	0.190900	0.000000	0.750000
C421	C42	0.435700	0.000000	0.750000
N111	N11	0.190900	0.000000	0.250000
C431	C43	0.435700	0.000000	0.250000
N121	N12	0.809100	0.000000	0.250000
C441	C44	0.564300	0.000000	0.250000
C451	C45	0.571000	0.409000	0.211500
C461	C46	0.640000	0.444000	0.167200
C471	C47	0.719000	0.339100	0.138300
C481	C48	0.775000	0.392000	0.088000
H331	H33	0.616600	0.364800	0.240800
H341	H34	0.518000	0.358300	0.190600
H351	H35	0.692300	0.497500	0.187000
H361	H36	0.596200	0.484000	0.135800
H371	H37	0.775500	0.308000	0.166900
H381	H38	0.669500	0.278300	0.124100
H391	H39	0.821400	0.337000	0.065300
H401	H40	0.823300	0.452700	0.103400
H411	H41	0.717200	0.423100	0.060600
C491	C49	0.429000	0.591000	0.211500
C501	C50	0.360000	0.556000	0.167200
C511	C51	0.281000	0.660900	0.138300
C521	C52	0.225000	0.608000	0.088000
H421	H42	0.383400	0.635200	0.240800
H431	H43	0.482000	0.641700	0.190600
H441	H44	0.307700	0.502500	0.187000
H451	H45	0.403800	0.516000	0.135800
H461	H46	0.224500	0.692000	0.166900
H471	H47	0.330500	0.721700	0.124100
H481	H48	0.178600	0.663000	0.065300
H491	H49	0.176700	0.547300	0.103400
H501	H50	0.282800	0.576900	0.060600
C531	C53	0.429000	0.409000	0.288500
C541	C54	0.360000	0.444000	0.332800
C551	C55	0.281000	0.339100	0.361700
C561	C56	0.225000	0.392000	0.412000
H511	H51	0.383400	0.364800	0.259200
H521	H52	0.482000	0.358300	0.309400
H531	H53	0.307700	0.497500	0.313000
H541	H54	0.403800	0.484000	0.364200
H551	H55	0.224500	0.308000	0.333100
H561	H56	0.330500	0.278300	0.375900
H571	H57	0.178600	0.337000	0.434700
H581	H58	0.176700	0.452700	0.396600
H591	H59	0.282800	0.423100	0.439400
C571	C57	0.571000	0.591000	0.288500
C581	C58	0.640000	0.556000	0.332800
C591	C59	0.719000	0.660900	0.361700
C601	C60	0.775000	0.608000	0.412000
H601	H60	0.616600	0.635200	0.259200
H611	H61	0.518000	0.641700	0.309400
H621	H62	0.692300	0.502500	0.313000
H631	H63	0.596200	0.516000	0.364200
H641	H64	0.775500	0.692000	0.333100
H651	H65	0.669500	0.721700	0.375900
H661	H66	0.821400	0.663000	0.434700
H671	H67	0.823300	0.547300	0.396600
H681	H68	0.717200	0.576900	0.439400
N131	N13	0.500000	0.500000	0.250000
C611	C61	0.429000	0.591000	0.788500
C621	C62	0.360000	0.556000	0.832800
C631	C63	0.281000	0.660900	0.861700
C641	C64	0.225000	0.608000	0.912000
H691	H69	0.383400	0.635200	0.759200
H701	H70	0.482000	0.641700	0.809400
H711	H71	0.307700	0.502500	0.813000
H721	H72	0.403800	0.516000	0.864200
H731	H73	0.224500	0.692000	0.833100
H741	H74	0.330500	0.721700	0.875900
H751	H75	0.178600	0.663000	0.934700
H761	H76	0.176700	0.547300	0.896600
H771	H77	0.282800	0.576900	0.939400
C651	C65	0.571000	0.409000	0.788500
C661	C66	0.640000	0.444000	0.832800
C671	C67	0.719000	0.339100	0.861700
C681	C68	0.775000	0.392000	0.912000
H781	H78	0.616600	0.364800	0.759200
H791	H79	0.518000	0.358300	0.809400
H801	H80	0.692300	0.497500	0.813000
H811	H81	0.596200	0.484000	0.864200
H821	H82	0.775500	0.308000	0.833100
H831	H83	0.669500	0.278300	0.875900
H841	H84	0.821400	0.337000	0.934700
H851	H85	0.823300	0.452700	0.896600
H861	H86	0.717200	0.423100	0.939400
C691	C69	0.571000	0.591000	0.711500
C701	C70	0.640000	0.556000	0.667200
C711	C71	0.719000	0.660900	0.638300
C721	C72	0.775000	0.608000	0.588000
H871	H87	0.616600	0.635200	0.740800
H881	H88	0.518000	0.641700	0.690600
H891	H89	0.692300	0.502500	0.687000
H901	H90	0.596200	0.516000	0.635800
H911	H91	0.775500	0.692000	0.666900
H921	H92	0.669500	0.721700	0.624100
H931	H93	0.821400	0.663000	0.565300
H941	H94	0.823300	0.547300	0.603400
H951	H95	0.717200	0.576900	0.560600
C731	C73	0.429000	0.409000	0.711500
C741	C74	0.360000	0.444000	0.667200
C751	C75	0.281000	0.339100	0.638300
C761	C76	0.225000	0.392000	0.588000
H961	H96	0.383400	0.364800	0.740800
H971	H97	0.482000	0.358300	0.690600
H981	H98	0.307700	0.497500	0.687000
H991	H99	0.403800	0.484000	0.635800
H1001	H100	0.224500	0.308000	0.666900
H1011	H101	0.330500	0.278300	0.624100
H1021	H102	0.178600	0.337000	0.565300
H1031	H103	0.176700	0.452700	0.603400
H1041	H104	0.282800	0.423100	0.560600
N141	N14	0.500000	0.500000	0.750000
