data_EROCIZ_freeONLY_PM
_symmetry_space_group_name_H-M	'P1'
_cell_length_a	17.523800
_cell_length_b	21.485800
_cell_length_c	22.255500
_cell_angle_alpha	106.510000
_cell_angle_beta	105.257000
_cell_angle_gamma	105.879000
_symmetry_Int_Tables_number 1

loop_
_symmetry_equiv_pos_as_xyz
'x,y,z'

loop_
_atom_site_label
_atom_site_type_symbol
_atom_site_fract_x
_atom_site_fract_y
_atom_site_fract_z
U11	U1	0.970260	0.418880	0.015400
U21	U2	0.889310	0.398340	0.824400
O11	O1	0.878900	0.291790	0.982680
O21	O2	0.883400	0.326030	0.899880
O31	O3	0.869300	0.506300	0.825200
O41	O4	0.990800	0.597700	0.881400
N11	N1	0.590000	0.090400	0.655400
H11	H1	0.565400	0.057200	0.668400
H21	H2	0.641500	0.090200	0.658000
C11	C1	0.913200	0.569400	0.843100
C21	C2	0.599100	0.159700	0.701200
H31	H3	0.543100	0.162500	0.692400
H41	H4	0.634100	0.196200	0.691500
O51	O5	0.943300	0.219100	0.781300
C31	C3	0.917300	0.684700	0.836000
H51	H5	0.974000	0.704500	0.865300
C41	C4	0.706900	0.200900	0.911400
H61	H6	0.729200	0.211200	0.957400
N21	N2	0.986600	0.385100	0.563200
H71	H7	0.029400	0.375300	0.553800
H81	H8	0.006800	0.413900	0.606300
C51	C5	0.638200	0.172600	0.773900
N31	N3	0.933100	0.844200	0.898600
H91	H9	0.958300	0.829900	0.929500
H101	H10	0.879600	0.835400	0.896400
C61	C6	0.758100	0.230700	0.879800
C71	C7	0.748400	0.626400	0.752500
H111	H11	0.691300	0.606700	0.723800
C81	C8	0.845300	0.284900	0.922300
C91	C9	0.926600	0.287100	0.651400
H121	H12	0.893000	0.312400	0.661300
C101	C10	0.948800	0.283300	0.595800
C111	C11	0.723000	0.215400	0.811600
H131	H13	0.757000	0.234200	0.790400
C121	C12	0.931500	0.803000	0.833500
H141	H14	0.989400	0.809300	0.836100
H151	H15	0.906500	0.819400	0.799700
C131	C13	0.871700	0.614100	0.816600
C141	C14	0.623900	0.156700	0.873600
H161	H16	0.590500	0.135800	0.894100
C151	C15	0.787000	0.585300	0.774500
H171	H17	0.755900	0.537800	0.761000
C161	C16	0.880200	0.726300	0.812700
C171	C17	0.793800	0.696400	0.772500
H181	H18	0.766500	0.724400	0.759100
C181	C18	0.918200	0.319500	0.551800
H191	H19	0.897200	0.288200	0.504900
H201	H20	0.871100	0.330400	0.560700
C191	C19	0.953700	0.253600	0.692800
C201	C20	0.925600	0.254200	0.750400
C211	C21	0.537600	0.074400	0.584200
H211	H21	0.481400	0.073900	0.581900
H221	H22	0.563700	0.111800	0.571100
C221	C22	0.952400	0.419800	0.519400
H231	H23	0.908900	0.433400	0.532300
H241	H24	0.925500	0.386300	0.473000
C231	C23	0.002600	0.247700	0.583500
H251	H25	0.020200	0.246400	0.547400
C241	C24	0.527800	0.007000	0.535300
H261	H26	0.502600	0.969300	0.548500
H271	H27	0.583600	0.007600	0.536100
C251	C25	0.977800	0.920800	0.921400
H281	H28	0.950300	0.936800	0.888200
H291	H29	0.036300	0.930700	0.924000
C261	C26	0.589200	0.142600	0.805700
H301	H30	0.532400	0.112800	0.781000
C271	C27	0.978000	0.960800	0.989000
H311	H31	0.006800	0.945700	0.022400
H321	H32	0.919600	0.950100	0.986600
C281	C28	0.029800	0.214000	0.625200
H331	H33	0.064000	0.189100	0.615900
C291	C29	0.006600	0.217700	0.679500
H341	H34	0.026000	0.196200	0.707800
C301	C30	0.018800	0.483200	0.523000
H351	H35	0.062600	0.470000	0.510200
H361	H36	0.045500	0.517100	0.569200
O61	O6	0.879700	0.430810	0.029430
O71	O7	0.781300	0.372260	0.817960
O81	O8	0.949700	0.464980	0.933980
O91	O9	0.879000	0.289300	0.762320
O101	O10	0.993300	0.426200	0.823200
O111	O11	0.830200	0.391900	0.708800
O121	O12	0.059100	0.400100	0.003500
H371	H37	0.783000	0.394000	0.690000
H381	H38	0.853000	0.421000	0.694000
U31	U3	0.029740	0.581120	0.984600
U41	U4	0.110690	0.601660	0.175600
O131	O13	0.121100	0.708210	0.017320
O141	O14	0.116600	0.673970	0.100120
O151	O15	0.130700	0.493700	0.174800
O161	O16	0.009200	0.402300	0.118600
N41	N4	0.410000	0.909600	0.344600
H391	H39	0.434600	0.942800	0.331600
H401	H40	0.358500	0.909800	0.342000
C311	C31	0.086800	0.430600	0.156900
C321	C32	0.400900	0.840300	0.298800
H411	H41	0.456900	0.837500	0.307600
H421	H42	0.365900	0.803800	0.308500
O171	O17	0.056700	0.780900	0.218700
C331	C33	0.082700	0.315300	0.164000
H431	H43	0.026000	0.295500	0.134700
C341	C34	0.293100	0.799100	0.088600
H441	H44	0.270800	0.788800	0.042600
N51	N5	0.013400	0.614900	0.436800
H451	H45	0.970600	0.624700	0.446200
H461	H46	0.993200	0.586100	0.393700
C351	C35	0.361800	0.827400	0.226100
N61	N6	0.066900	0.155800	0.101400
H471	H47	0.041700	0.170100	0.070500
H481	H48	0.120400	0.164600	0.103600
C361	C36	0.241900	0.769300	0.120200
C371	C37	0.251600	0.373600	0.247500
H491	H49	0.308700	0.393300	0.276200
C381	C38	0.154700	0.715100	0.077700
C391	C39	0.073400	0.712900	0.348600
H501	H50	0.107000	0.687600	0.338700
C401	C40	0.051200	0.716700	0.404200
C411	C41	0.277000	0.784600	0.188400
H511	H51	0.243000	0.765800	0.209600
C421	C42	0.068500	0.197000	0.166500
H521	H52	0.010600	0.190700	0.163900
H531	H53	0.093500	0.180600	0.200300
C431	C43	0.128300	0.385900	0.183400
C441	C44	0.376100	0.843300	0.126400
H541	H54	0.409500	0.864200	0.105900
C451	C45	0.213000	0.414700	0.225500
H551	H55	0.244100	0.462200	0.239000
C461	C46	0.119800	0.273700	0.187300
C471	C47	0.206200	0.303600	0.227500
H561	H56	0.233500	0.275600	0.240900
C481	C48	0.081800	0.680500	0.448200
H571	H57	0.102800	0.711800	0.495100
H581	H58	0.128900	0.669600	0.439300
C491	C49	0.046300	0.746400	0.307200
C501	C50	0.074400	0.745800	0.249600
C511	C51	0.462400	0.925600	0.415800
H591	H59	0.518600	0.926100	0.418100
H601	H60	0.436300	0.888200	0.428900
C521	C52	0.047600	0.580200	0.480600
H611	H61	0.091100	0.566600	0.467700
H621	H62	0.074500	0.613700	0.527000
C531	C53	0.997400	0.752300	0.416500
H631	H63	0.979800	0.753600	0.452600
C541	C54	0.472200	0.993000	0.464700
H641	H64	0.497400	0.030700	0.451500
H651	H65	0.416400	0.992400	0.463900
C551	C55	0.022200	0.079200	0.078600
H661	H66	0.049700	0.063200	0.111800
H671	H67	0.963700	0.069300	0.076000
C561	C56	0.410800	0.857400	0.194300
H681	H68	0.467600	0.887200	0.219000
C571	C57	0.022000	0.039200	0.011000
H691	H69	0.993200	0.054300	0.977600
H701	H70	0.080400	0.049900	0.013400
C581	C58	0.970200	0.786000	0.374800
H711	H71	0.936000	0.810900	0.384100
C591	C59	0.993400	0.782300	0.320500
H721	H72	0.974000	0.803800	0.292200
C601	C60	0.981200	0.516800	0.477000
H731	H73	0.937400	0.530000	0.489800
H741	H74	0.954500	0.482900	0.430800
O181	O18	0.120300	0.569190	0.970570
O191	O19	0.218700	0.627740	0.182040
O201	O20	0.050300	0.535020	0.066020
O211	O21	0.121000	0.710700	0.237680
O221	O22	0.006700	0.573800	0.176800
O231	O23	0.169800	0.608100	0.291200
O241	O24	0.940900	0.599900	0.996500
H751	H75	0.217000	0.606000	0.310000
H761	H76	0.147000	0.579000	0.306000
O251	O25	0.497000	0.723800	0.096400
O261	O26	0.469100	0.488000	0.189600
N71	N7	0.396600	0.559300	0.170500
O271	O27	0.652600	0.495500	0.195400
O281	O28	0.302900	0.373900	0.045900
N81	N8	0.771500	0.598000	0.038300
N91	N9	0.764200	0.504200	0.079300
N101	N10	0.295800	0.571700	0.026300
O291	O29	0.683900	0.730200	0.098800
N111	N11	0.679700	0.614100	0.238000
N121	N12	0.280000	0.477700	0.066900
C611	C61	0.236900	0.511400	0.028900
H771	H77	0.193100	0.522400	0.044600
N131	N13	0.409200	0.656100	0.132100
C621	C62	0.801300	0.542900	0.043800
H781	H78	0.863800	0.559800	0.062100
N141	N14	0.546000	0.707800	0.195400
N151	N15	0.751300	0.576400	0.178700
N161	N16	0.682900	0.704500	0.192400
C631	C63	0.791600	0.530300	0.151600
H791	H79	0.853000	0.555500	0.170900
H801	H80	0.779200	0.490900	0.165300
C641	C64	0.330100	0.640800	0.079600
H811	H81	0.338900	0.675600	0.059700
H821	H82	0.288000	0.645100	0.099700
N171	N17	0.767300	0.673800	0.141000
C651	C65	0.414600	0.633500	0.188300
H831	H83	0.381500	0.649700	0.214100
N181	N18	0.536000	0.608400	0.229000
C661	C66	0.806100	0.666200	0.091200
H841	H84	0.800700	0.700000	0.070900
H851	H85	0.866600	0.678000	0.113900
C671	C67	0.273300	0.413500	0.027100
C681	C68	0.731100	0.676300	0.234300
H861	H86	0.766800	0.712200	0.279400
C691	C69	0.467200	0.546100	0.195300
C701	C70	0.691000	0.556200	0.202800
C711	C71	0.312500	0.503700	0.139500
H871	H87	0.315200	0.465300	0.153500
H881	H88	0.273100	0.521100	0.155600
C721	C72	0.785300	0.652100	0.197100
H891	H89	0.846100	0.673600	0.225600
C731	C73	0.484700	0.697900	0.137100
C741	C74	0.512300	0.667300	0.230300
H901	H90	0.524100	0.697400	0.276700
C751	C75	0.634600	0.745700	0.213600
H911	H91	0.660200	0.769500	0.262300
H921	H92	0.640500	0.781400	0.194600
C761	C76	0.708700	0.705400	0.139300
C771	C77	0.617200	0.610900	0.270100
H931	H93	0.607100	0.569700	0.281300
H941	H94	0.640800	0.651700	0.312000
O301	O30	0.677700	0.391900	0.057100
C781	C78	0.711100	0.437100	0.038200
O311	O31	0.503000	0.276200	0.903600
O321	O32	0.530900	0.512000	0.810400
N191	N19	0.603400	0.440700	0.829500
O331	O33	0.347400	0.504500	0.804600
O341	O34	0.697100	0.626100	0.954100
N201	N20	0.228500	0.402000	0.961700
N211	N21	0.235800	0.495800	0.920700
N221	N22	0.704200	0.428300	0.973700
O351	O35	0.316100	0.269800	0.901200
N231	N23	0.320300	0.385900	0.762000
N241	N24	0.720000	0.522300	0.933100
C791	C79	0.763100	0.488600	0.971100
H951	H95	0.806900	0.477600	0.955400
N251	N25	0.590800	0.343900	0.867900
C801	C80	0.198700	0.457100	0.956200
H961	H96	0.136200	0.440200	0.937900
N261	N26	0.454000	0.292200	0.804600
N271	N27	0.248700	0.423600	0.821300
N281	N28	0.317100	0.295500	0.807600
C811	C81	0.208400	0.469700	0.848400
H971	H97	0.147000	0.444500	0.829100
H981	H98	0.220800	0.509100	0.834700
C821	C82	0.669900	0.359200	0.920400
H991	H99	0.661100	0.324400	0.940300
H1001	H100	0.712000	0.354900	0.900300
N291	N29	0.232700	0.326200	0.859000
C831	C83	0.585400	0.366500	0.811700
H1011	H101	0.618500	0.350300	0.785900
N301	N30	0.464000	0.391600	0.771000
C841	C84	0.193900	0.333800	0.908800
H1021	H102	0.199300	0.300000	0.929100
H1031	H103	0.133400	0.322000	0.886100
C851	C85	0.726700	0.586500	0.972900
C861	C86	0.268900	0.323700	0.765700
H1041	H104	0.233200	0.287800	0.720600
C871	C87	0.532800	0.453900	0.804700
C881	C88	0.309000	0.443800	0.797200
C891	C89	0.687500	0.496300	0.860500
H1051	H105	0.684800	0.534700	0.846500
H1061	H106	0.726900	0.478900	0.844400
C901	C90	0.214700	0.347900	0.802900
H1071	H107	0.153900	0.326400	0.774400
C911	C91	0.515300	0.302100	0.862900
C921	C92	0.487700	0.332700	0.769700
H1081	H108	0.475900	0.302600	0.723300
C931	C93	0.365400	0.254300	0.786400
H1091	H109	0.339800	0.230500	0.737700
H1101	H110	0.359500	0.218600	0.805400
C941	C94	0.291300	0.294600	0.860700
C951	C95	0.382800	0.389100	0.729900
H1111	H111	0.392900	0.430300	0.718700
H1121	H112	0.359200	0.348300	0.688000
O361	O36	0.322300	0.608100	0.942900
C961	C96	0.288900	0.562900	0.961800
O371	O37	0.975700	0.039100	0.208000
O381	O38	0.824000	0.914000	0.782600
O391	O39	0.118600	0.230100	0.028200
O401	O40	0.912900	0.169300	0.016000
O411	O41	0.759900	0.821700	0.874300
N311	N31	0.044300	0.174800	0.913400
N321	N32	0.790400	0.084500	0.930000
O421	O42	0.835100	0.086300	0.101600
N331	N33	0.859700	0.032000	0.807100
N341	N34	0.766300	0.967400	0.064100
N351	N35	0.742000	0.017900	0.993000
N361	N36	0.759000	0.977700	0.836300
N371	N37	0.863900	0.933900	0.136200
N381	N38	0.896600	0.138600	0.904000
N391	N39	0.006400	0.066500	0.817800
N401	N40	0.732000	0.857900	0.970400
N411	N41	0.825900	0.823100	0.044200
N421	N42	0.710300	0.910800	0.901100
C971	C97	0.972900	0.194500	0.912300
H1131	H113	0.959200	0.210500	0.875600
H1141	H114	0.988800	0.233700	0.954000
C981	C98	0.815600	0.969100	0.806300
C991	C99	0.686000	0.947500	0.953800
H1151	H115	0.626300	0.942800	0.936900
C1001	C100	0.871400	0.134900	0.956000
C1011	C101	0.738200	0.073700	0.969200
H1161	H116	0.679400	0.062700	0.941900
H1171	H117	0.756400	0.117000	0.007700
C1021	C102	0.948300	0.975500	0.179300
C1031	C103	0.850000	0.860500	0.116200
H1181	H118	0.810100	0.836800	0.133600
C1041	C104	0.797600	0.960500	0.128400
H1191	H119	0.818300	0.006200	0.164300
H1201	H120	0.750100	0.929900	0.133900
C1051	C105	0.834000	0.087800	0.839600
H1211	H121	0.814200	0.110100	0.809200
C1061	C106	0.762200	0.048500	0.857500
H1221	H122	0.707800	0.050700	0.834000
C1071	C107	0.741500	0.802800	0.994600
H1231	H123	0.699200	0.790800	0.014400
H1241	H124	0.730400	0.761200	0.956500
C1081	C108	0.702500	0.911000	0.003500
H1251	H125	0.650500	0.889600	0.010800
C1091	C109	0.112700	0.196900	0.971800
C1101	C110	0.693500	0.919500	0.835900
H1261	H126	0.687300	0.876800	0.801700
H1271	H127	0.639700	0.925900	0.823400
C1111	C111	0.061000	0.140100	0.854000
H1281	H128	0.059600	0.165600	0.823900
C1121	C112	0.786800	0.029800	0.056900
C1131	C113	0.735300	0.860300	0.911900
C1141	C114	0.919800	0.041900	0.773900
H1291	H129	0.906400	0.997800	0.738100
H1301	H130	0.913100	0.075300	0.753400
O431	O43	0.024300	0.960900	0.792000
O441	O44	0.176000	0.086000	0.217400
O451	O45	0.881400	0.769900	0.971800
O461	O46	0.087100	0.830700	0.984000
O471	O47	0.240100	0.178300	0.125700
N431	N43	0.955700	0.825200	0.086600
N441	N44	0.209600	0.915500	0.070000
O481	O48	0.164900	0.913700	0.898400
N451	N45	0.140300	0.968000	0.192900
N461	N46	0.233700	0.032600	0.935900
N471	N47	0.258000	0.982100	0.007000
N481	N48	0.241000	0.022300	0.163700
N491	N49	0.136100	0.066100	0.863800
N501	N50	0.103400	0.861400	0.096000
N511	N51	0.993600	0.933500	0.182200
N521	N52	0.268000	0.142100	0.029600
N531	N53	0.174100	0.176900	0.955800
N541	N54	0.289700	0.089200	0.098900
C1151	C115	0.027100	0.805500	0.087700
H1311	H131	0.040800	0.789500	0.124400
H1321	H132	0.011200	0.766300	0.046000
C1161	C116	0.184400	0.030900	0.193700
C1171	C117	0.314000	0.052500	0.046200
H1331	H133	0.373700	0.057200	0.063100
C1181	C118	0.128600	0.865100	0.044000
C1191	C119	0.261800	0.926300	0.030800
H1341	H134	0.320600	0.937300	0.058100
H1351	H135	0.243600	0.883000	0.992300
C1201	C120	0.051700	0.024500	0.820700
C1211	C121	0.150000	0.139500	0.883800
H1361	H136	0.189900	0.163200	0.866400
C1221	C122	0.202400	0.039500	0.871600
H1371	H137	0.181700	0.993800	0.835700
H1381	H138	0.249900	0.070100	0.866100
C1231	C123	0.166000	0.912200	0.160400
H1391	H139	0.185800	0.889900	0.190800
C1241	C124	0.237800	0.951500	0.142500
H1401	H140	0.292200	0.949300	0.166000
C1251	C125	0.258500	0.197200	0.005400
H1411	H141	0.300800	0.209200	0.985600
H1421	H142	0.269600	0.238800	0.043500
C1261	C126	0.297500	0.089000	0.996500
H1431	H143	0.349500	0.110400	0.989200
C1271	C127	0.887300	0.803100	0.028200
C1281	C128	0.306500	0.080500	0.164100
H1441	H144	0.312700	0.123200	0.198300
H1451	H145	0.360300	0.074100	0.176600
C1291	C129	0.939000	0.859900	0.146000
H1461	H146	0.940400	0.834400	0.176100
C1301	C130	0.213200	0.970200	0.943100
C1311	C131	0.264700	0.139700	0.088100
C1321	C132	0.080200	0.958100	0.226100
H1471	H147	0.093600	0.002200	0.261900
H1481	H148	0.086900	0.924700	0.246600
O491	O49	0.253200	0.611800	0.480900
O501	O50	0.867400	0.638500	0.448100
O511	O51	0.124300	0.464700	0.690400
O521	O52	0.044000	0.721800	0.593700
O531	O53	0.248400	0.712100	0.614500
N551	N55	0.170900	0.584900	0.735300
N561	N56	0.212300	0.680500	0.696900
N571	N57	0.300300	0.562300	0.555300
N581	N58	0.300300	0.639800	0.658400
C1331	C133	0.302000	0.494000	0.551700
H1491	H149	0.360400	0.495500	0.567900
N591	N59	0.941000	0.667900	0.627200
C1341	C134	0.107700	0.586300	0.764400
H1501	H150	0.133600	0.624700	0.808200
H1511	H151	0.088400	0.543100	0.771600
N601	N60	0.074700	0.687200	0.681900
N611	N61	0.242300	0.537400	0.681200
N621	N62	0.033100	0.594400	0.723300
N631	N63	0.250400	0.461200	0.583200
C1351	C135	0.258300	0.561100	0.494100
C1361	C136	0.174200	0.523000	0.701300
C1371	C137	0.270800	0.482900	0.654400
H1521	H152	0.332200	0.499400	0.676900
H1531	H153	0.244900	0.442800	0.664200
C1381	C138	0.345500	0.624200	0.614600
H1541	H154	0.362800	0.663500	0.601300
H1551	H155	0.397100	0.620600	0.640100
C1391	C139	0.028600	0.659800	0.721100
H1561	H156	0.046200	0.695000	0.766400
C1401	C140	0.237500	0.644100	0.739800
H1571	H157	0.270600	0.676700	0.786700
N641	N64	0.815400	0.608100	0.524800
C1411	C141	0.935000	0.640700	0.679600
H1581	H158	0.906400	0.662300	0.706700
C1421	C142	0.164400	0.725000	0.709400
H1591	H159	0.182300	0.749600	0.757600
H1601	H160	0.177700	0.759900	0.690000
C1431	C143	0.869700	0.673100	0.582000
H1611	H161	0.891000	0.708900	0.565500
H1621	H162	0.835700	0.688000	0.606800
C1441	C144	0.746000	0.552300	0.523400
H1631	H163	0.709200	0.570100	0.543900
C1451	C145	0.816000	0.600300	0.462300
C1461	C146	0.292700	0.610300	0.707700
H1641	H164	0.348700	0.621800	0.741400
C1471	C147	0.021900	0.696100	0.631700
C1481	C148	0.252200	0.680300	0.652300
O541	O54	0.943400	0.478000	0.674800
N651	N65	0.899100	0.564300	0.655600
N661	N66	0.775500	0.507400	0.552700
C1491	C149	0.957400	0.539600	0.683500
C1501	C150	0.809300	0.524200	0.624600
H1651	H165	0.779900	0.550300	0.646000
H1661	H166	0.797700	0.481000	0.632400
O551	O55	0.746800	0.388200	0.519100
O561	O56	0.132600	0.361500	0.551900
O571	O57	0.875700	0.535300	0.309600
O581	O58	0.956000	0.278200	0.406300
O591	O59	0.751600	0.287900	0.385500
N671	N67	0.829100	0.415100	0.264700
N681	N68	0.787700	0.319500	0.303100
N691	N69	0.699700	0.437700	0.444700
N701	N70	0.699700	0.360200	0.341600
C1511	C151	0.698000	0.506000	0.448300
H1671	H167	0.639600	0.504500	0.432100
N711	N71	0.059000	0.332100	0.372800
C1521	C152	0.892300	0.413700	0.235600
H1681	H168	0.866400	0.375300	0.191800
H1691	H169	0.911600	0.456900	0.228400
N721	N72	0.925300	0.312800	0.318100
N731	N73	0.757700	0.462600	0.318800
N741	N74	0.966900	0.405600	0.276700
N751	N75	0.749600	0.538800	0.416800
C1531	C153	0.741700	0.438900	0.505900
C1541	C154	0.825800	0.477000	0.298700
C1551	C155	0.729200	0.517100	0.345600
H1701	H170	0.667800	0.500600	0.323100
H1711	H171	0.755100	0.557200	0.335800
C1561	C156	0.654500	0.375800	0.385400
H1721	H172	0.637200	0.336500	0.398700
H1731	H173	0.602900	0.379400	0.359900
C1571	C157	0.971400	0.340200	0.278900
H1741	H174	0.953800	0.305000	0.233600
C1581	C158	0.762500	0.355900	0.260200
H1751	H175	0.729400	0.323300	0.213300
N761	N76	0.184600	0.391900	0.475200
C1591	C159	0.065000	0.359300	0.320400
H1761	H176	0.093600	0.337700	0.293300
C1601	C160	0.835600	0.275000	0.290600
H1771	H177	0.817700	0.250400	0.242400
H1781	H178	0.822300	0.240100	0.310000
C1611	C161	0.130300	0.326900	0.418000
H1791	H179	0.109000	0.291100	0.434500
H1801	H180	0.164300	0.312000	0.393200
C1621	C162	0.254000	0.447700	0.476600
H1811	H181	0.290800	0.429900	0.456100
C1631	C163	0.184000	0.399700	0.537700
C1641	C164	0.707300	0.389700	0.292300
H1821	H182	0.651300	0.378200	0.258600
C1651	C165	0.978100	0.303900	0.368300
C1661	C166	0.747800	0.319700	0.347700
O601	O60	0.056600	0.522000	0.325200
N771	N77	0.100900	0.435700	0.344400
N781	N78	0.224500	0.492600	0.447300
C1671	C167	0.042600	0.460400	0.316500
C1681	C168	0.190700	0.475800	0.375400
H1831	H183	0.220100	0.449700	0.354000
H1841	H184	0.202300	0.519000	0.367600
O611	O61	0.269800	0.960300	0.324700
O621	O62	0.601700	0.966300	0.335800
O631	O63	0.592400	0.243700	0.589300
O641	O64	0.738800	0.165400	0.616800
O651	O65	0.440300	0.029200	0.302000
O661	O66	0.409400	0.173200	0.612900
N791	N79	0.289200	0.081300	0.531600
N801	N80	0.429900	0.129100	0.368300
N811	N81	0.360600	0.162700	0.503400
N821	N82	0.620000	0.213800	0.490000
N831	N83	0.728100	0.014200	0.430900
N841	N84	0.560700	0.127800	0.376700
N851	N85	0.228200	0.998000	0.415200
N861	N86	0.490500	0.211500	0.485500
C1691	C169	0.285400	0.118900	0.441700
H1851	H185	0.252700	0.146100	0.427600
C1701	C170	0.426300	0.225100	0.509000
H1861	H186	0.399200	0.248300	0.483600
H1871	H187	0.453300	0.257100	0.555900
N871	N87	0.730800	0.169700	0.511300
N881	N88	0.783300	0.096300	0.545800
C1711	C171	0.784500	0.082500	0.479500
H1881	H188	0.842800	0.092200	0.480300
C1721	C172	0.486800	0.198200	0.416900
H1891	H189	0.475600	0.234600	0.402000
N891	N89	0.302300	0.077300	0.385900
C1731	C173	0.747100	0.132800	0.455600
H1901	H190	0.788000	0.164700	0.444700
N901	N90	0.673300	0.085900	0.396700
C1741	C174	0.576300	0.198300	0.421100
H1911	H191	0.605400	0.233700	0.406400
C1751	C175	0.359300	0.142800	0.556400
C1761	C176	0.569500	0.224700	0.527900
C1771	C177	0.709000	0.229600	0.520700
H1921	H192	0.739900	0.259200	0.502300
H1931	H193	0.727500	0.256100	0.568700
C1781	C178	0.267100	0.008000	0.371100
C1791	C179	0.472600	0.088500	0.344300
C1801	C180	0.620800	0.109900	0.353400
H1941	H194	0.627000	0.112900	0.314000
C1811	C181	0.737600	0.949600	0.424700
H1951	H195	0.797200	0.956800	0.433500
H1961	H196	0.705100	0.916800	0.378400
C1821	C182	0.233700	0.062700	0.462400
H1971	H197	0.177400	0.064100	0.459200
C1831	C183	0.660600	0.017000	0.382400
C1841	C184	0.339400	0.104400	0.344000
H1981	H198	0.316900	0.067800	0.299400
H1991	H199	0.321900	0.142500	0.339600
C1851	C185	0.824600	0.069600	0.592100
H2001	H200	0.876100	0.066900	0.585100
H2011	H201	0.841300	0.102300	0.637900
C1861	C186	0.749600	0.144700	0.564400
O671	O67	0.730200	0.039700	0.675300
O681	O68	0.398300	0.033700	0.664200
O691	O69	0.407600	0.756300	0.410700
O701	O70	0.261200	0.834600	0.383200
O711	O71	0.559700	0.970800	0.698000
O721	O72	0.590600	0.826800	0.387100
N911	N91	0.710800	0.918700	0.468400
N921	N92	0.570100	0.870900	0.631700
N931	N93	0.639400	0.837300	0.496600
N941	N94	0.380000	0.786200	0.510000
N951	N95	0.271900	0.985800	0.569100
N961	N96	0.439300	0.872200	0.623300
N971	N97	0.771800	0.002000	0.584800
N981	N98	0.509500	0.788500	0.514500
C1871	C187	0.714600	0.881100	0.558300
H2021	H202	0.747300	0.853900	0.572400
C1881	C188	0.573700	0.774900	0.491000
H2031	H203	0.600800	0.751700	0.516400
H2041	H204	0.546700	0.742900	0.444100
N991	N99	0.269200	0.830300	0.488700
N1001	N100	0.216700	0.903700	0.454200
C1891	C189	0.215500	0.917500	0.520500
H2051	H205	0.157200	0.907800	0.519700
C1901	C190	0.513200	0.801800	0.583100
H2061	H206	0.524400	0.765400	0.598000
N1011	N101	0.697700	0.922700	0.614100
C1911	C191	0.252900	0.867200	0.544400
H2071	H207	0.212000	0.835300	0.555300
N1021	N102	0.326700	0.914100	0.603300
C1921	C192	0.423700	0.801700	0.578900
H2081	H208	0.394600	0.766300	0.593600
C1931	C193	0.640700	0.857200	0.443600
C1941	C194	0.430500	0.775300	0.472100
C1951	C195	0.291000	0.770400	0.479300
H2091	H209	0.260100	0.740800	0.497700
H2101	H210	0.272500	0.743900	0.431300
C1961	C196	0.732900	0.992000	0.628900
C1971	C197	0.527400	0.911500	0.655700
C1981	C198	0.379200	0.890100	0.646600
H2111	H211	0.373000	0.887100	0.686000
C1991	C199	0.262400	0.050400	0.575300
H2121	H212	0.202800	0.043200	0.566500
H2131	H213	0.294900	0.083200	0.621600
C2001	C200	0.766300	0.937300	0.537600
H2141	H214	0.822600	0.935900	0.540800
C2011	C201	0.339400	0.983000	0.617600
C2021	C202	0.660600	0.895600	0.656000
H2151	H215	0.683100	0.932200	0.700600
H2161	H216	0.678100	0.857500	0.660400
C2031	C203	0.175400	0.930400	0.407900
H2171	H217	0.123900	0.933100	0.414900
H2181	H218	0.158700	0.897700	0.362100
C2041	C204	0.250400	0.855300	0.435600
