data_ERUFUS_freeONLY_PM
_symmetry_space_group_name_H-M	'P1'
_cell_length_a	7.358000
_cell_length_b	9.996960
_cell_length_c	15.057800
_cell_angle_alpha	109.387000
_cell_angle_beta	98.498000
_cell_angle_gamma	90.000000
_symmetry_Int_Tables_number 1

loop_
_symmetry_equiv_pos_as_xyz
'x,y,z'

loop_
_atom_site_label
_atom_site_type_symbol
_atom_site_fract_x
_atom_site_fract_y
_atom_site_fract_z
Cd11	Cd1	0.000000	0.500000	0.500000
Cd21	Cd2	0.500000	0.000000	0.500000
H11	H1	0.823800	0.474400	0.676400
H21	H2	0.759700	0.594900	0.825400
H31	H3	0.876200	0.958200	0.784000
H41	H4	0.943800	0.826900	0.637000
H51	H5	0.676200	0.798000	0.323600
H61	H6	0.740300	0.769500	0.174600
H71	H7	0.623800	0.174200	0.216000
H81	H8	0.556200	0.189900	0.363000
H91	H9	0.176200	0.525600	0.323600
H101	H10	0.240300	0.405100	0.174600
H111	H11	0.123800	0.041800	0.216000
H121	H12	0.056200	0.173100	0.363000
H131	H13	0.323800	0.202000	0.676400
H141	H14	0.259700	0.230500	0.825400
H151	H15	0.376200	0.825800	0.784000
H161	H16	0.443800	0.810100	0.637000
C11	C1	0.839000	0.572990	0.699180
C21	C2	0.798600	0.644640	0.788680
C31	C3	0.816700	0.791810	0.823420
C41	C4	0.868200	0.859580	0.764560
C51	C5	0.908400	0.779420	0.675840
C61	C6	0.779900	0.870350	0.920500
C71	C7	0.606500	0.650070	0.443140
C81	C8	0.661000	0.873810	0.300820
C91	C9	0.701400	0.855960	0.211320
C101	C10	0.683300	0.968390	0.176580
C111	C11	0.631800	0.095020	0.235440
C121	C12	0.591600	0.103580	0.324160
C131	C13	0.720100	0.949850	0.079500
C141	C14	0.893500	0.206930	0.556860
C151	C15	0.161000	0.427010	0.300820
C161	C16	0.201400	0.355360	0.211320
C171	C17	0.183300	0.208190	0.176580
C181	C18	0.131800	0.140420	0.235440
C191	C19	0.091600	0.220580	0.324160
C201	C20	0.220100	0.129650	0.079500
C211	C21	0.393500	0.349930	0.556860
C221	C22	0.339000	0.126190	0.699180
C231	C23	0.298600	0.144040	0.788680
C241	C24	0.316700	0.031610	0.823420
C251	C25	0.368200	0.904980	0.764560
C261	C26	0.408400	0.896420	0.675840
C271	C27	0.279900	0.050150	0.920500
C281	C28	0.106500	0.793070	0.443140
S11	S1	0.659130	0.483790	0.396840
S21	S2	0.840870	0.086950	0.603160
S31	S3	0.340870	0.516210	0.603160
S41	S4	0.159130	0.913050	0.396840
S51	S5	0.750000	0.785870	0.000000
S61	S6	0.250000	0.214130	0.000000
N11	N1	0.898700	0.637450	0.643300
N21	N2	0.767100	0.006850	0.953700
N31	N3	0.570400	0.766490	0.475180
N41	N4	0.601300	0.994150	0.356700
N51	N5	0.732900	0.053150	0.046300
N61	N6	0.929600	0.291310	0.524820
N71	N7	0.101300	0.362550	0.356700
N81	N8	0.232900	0.993150	0.046300
N91	N9	0.429600	0.233510	0.524820
N101	N10	0.398700	0.005850	0.643300
N111	N11	0.267100	0.946850	0.953700
N121	N12	0.070400	0.708690	0.475180
