data_ERUNIQ_freeONLY_PM
_symmetry_space_group_name_H-M	'P1'
_cell_length_a	13.814700
_cell_length_b	13.814700
_cell_length_c	19.491100
_cell_angle_alpha	90.000000
_cell_angle_beta	90.000000
_cell_angle_gamma	90.000000
_symmetry_Int_Tables_number 1

loop_
_symmetry_equiv_pos_as_xyz
'x,y,z'

loop_
_atom_site_label
_atom_site_type_symbol
_atom_site_fract_x
_atom_site_fract_y
_atom_site_fract_z
Co11	Co1	0.179660	0.784450	0.095700
N11	N1	0.275200	0.763500	0.182890
O11	O1	0.100490	0.819690	0.008130
O21	O2	0.307200	0.794300	0.039140
O31	O3	0.175400	0.944000	0.101180
N21	N2	0.179100	0.632000	0.073130
O41	O4	0.061100	0.770000	0.160380
C11	C1	0.250500	0.713800	0.236800
C21	C2	0.367500	0.797500	0.182400
Co21	Co2	0.150170	0.956870	0.988360
H11	H1	0.113500	0.781500	0.975200
C31	C3	0.336400	0.850700	0.992400
H21	H2	0.237300	0.973000	0.116300
H31	H3	0.120900	0.969000	0.129100
C41	C4	0.223600	0.596900	0.018100
C51	C5	0.131000	0.567100	0.108800
H41	H4	0.185000	0.693700	0.240500
C61	C6	0.313100	0.688400	0.288900
C71	C7	0.435100	0.776400	0.232300
H51	H5	0.386700	0.838100	0.145500
O51	O5	0.289200	0.916600	0.964760
O61	O6	0.123500	0.954000	0.882100
C81	C8	0.439400	0.834800	0.967400
H61	H6	0.262200	0.640600	0.992200
C91	C9	0.218400	0.503100	0.995200
C101	C10	0.123500	0.471500	0.089700
H71	H7	0.099800	0.587300	0.149800
H81	H8	0.290300	0.651700	0.326800
C111	C11	0.409400	0.716500	0.286000
H91	H9	0.498500	0.802800	0.229800
H101	H10	0.251000	0.483300	0.954700
H111	H11	0.088100	0.427900	0.117800
C121	C12	0.481100	0.688100	0.340500
Co31	Co3	0.820340	0.215550	0.095700
N31	N3	0.724800	0.236500	0.182890
O71	O7	0.899510	0.180310	0.008130
O81	O8	0.692800	0.205700	0.039140
O91	O9	0.824600	0.056000	0.101180
N41	N4	0.820900	0.368000	0.073130
O101	O10	0.938900	0.230000	0.160380
C131	C13	0.749500	0.286200	0.236800
C141	C14	0.632500	0.202500	0.182400
Co41	Co4	0.849830	0.043130	0.988360
H121	H12	0.886500	0.218500	0.975200
C151	C15	0.663600	0.149300	0.992400
H131	H13	0.762700	0.027000	0.116300
H141	H14	0.879100	0.031000	0.129100
C161	C16	0.776400	0.403100	0.018100
C171	C17	0.869000	0.432900	0.108800
H151	H15	0.815000	0.306300	0.240500
C181	C18	0.686900	0.311600	0.288900
C191	C19	0.564900	0.223600	0.232300
H161	H16	0.613300	0.161900	0.145500
O111	O11	0.710800	0.083400	0.964760
O121	O12	0.876500	0.046000	0.882100
C201	C20	0.560600	0.165200	0.967400
H171	H17	0.737800	0.359400	0.992200
C211	C21	0.781600	0.496900	0.995200
C221	C22	0.876500	0.528500	0.089700
H181	H18	0.900200	0.412700	0.149800
H191	H19	0.709700	0.348300	0.326800
C231	C23	0.590600	0.283500	0.286000
H201	H20	0.501500	0.197200	0.229800
H211	H21	0.749000	0.516700	0.954700
H221	H22	0.911900	0.572100	0.117800
C241	C24	0.518900	0.311900	0.340500
Co51	Co5	0.784450	0.820340	0.904300
N51	N5	0.763500	0.724800	0.817110
O131	O13	0.819690	0.899510	0.991870
O141	O14	0.794300	0.692800	0.960860
O151	O15	0.944000	0.824600	0.898820
N61	N6	0.632000	0.820900	0.926870
O161	O16	0.770000	0.938900	0.839620
C251	C25	0.713800	0.749500	0.763200
C261	C26	0.797500	0.632500	0.817600
Co61	Co6	0.956870	0.849830	0.011640
H231	H23	0.781500	0.886500	0.024800
C271	C27	0.850700	0.663600	0.007600
H241	H24	0.973000	0.762700	0.883700
H251	H25	0.969000	0.879100	0.870900
C281	C28	0.596900	0.776400	0.981900
C291	C29	0.567100	0.869000	0.891200
H261	H26	0.693700	0.815000	0.759500
C301	C30	0.688400	0.686900	0.711100
C311	C31	0.776400	0.564900	0.767700
H271	H27	0.838100	0.613300	0.854500
O171	O17	0.916600	0.710800	0.035240
O181	O18	0.954000	0.876500	0.117900
C321	C32	0.834800	0.560600	0.032600
H281	H28	0.640600	0.737800	0.007800
C331	C33	0.503100	0.781600	0.004800
C341	C34	0.471500	0.876500	0.910300
H291	H29	0.587300	0.900200	0.850200
H301	H30	0.651700	0.709700	0.673200
C351	C35	0.716500	0.590600	0.714000
H311	H31	0.802800	0.501500	0.770200
H321	H32	0.483300	0.749000	0.045300
H331	H33	0.427900	0.911900	0.882200
C361	C36	0.688100	0.518900	0.659500
Co71	Co7	0.215550	0.179660	0.904300
N71	N7	0.236500	0.275200	0.817110
O191	O19	0.180310	0.100490	0.991870
O201	O20	0.205700	0.307200	0.960860
O211	O21	0.056000	0.175400	0.898820
N81	N8	0.368000	0.179100	0.926870
O221	O22	0.230000	0.061100	0.839620
C371	C37	0.286200	0.250500	0.763200
C381	C38	0.202500	0.367500	0.817600
Co81	Co8	0.043130	0.150170	0.011640
H341	H34	0.218500	0.113500	0.024800
C391	C39	0.149300	0.336400	0.007600
H351	H35	0.027000	0.237300	0.883700
H361	H36	0.031000	0.120900	0.870900
C401	C40	0.403100	0.223600	0.981900
C411	C41	0.432900	0.131000	0.891200
H371	H37	0.306300	0.185000	0.759500
C421	C42	0.311600	0.313100	0.711100
C431	C43	0.223600	0.435100	0.767700
H381	H38	0.161900	0.386700	0.854500
O231	O23	0.083400	0.289200	0.035240
O241	O24	0.046000	0.123500	0.117900
C441	C44	0.165200	0.439400	0.032600
H391	H39	0.359400	0.262200	0.007800
C451	C45	0.496900	0.218400	0.004800
C461	C46	0.528500	0.123500	0.910300
H401	H40	0.412700	0.099800	0.850200
H411	H41	0.348300	0.290300	0.673200
C471	C47	0.283500	0.409400	0.714000
H421	H42	0.197200	0.498500	0.770200
H431	H43	0.516700	0.251000	0.045300
H441	H44	0.572100	0.088100	0.882200
C481	C48	0.311900	0.481100	0.659500
Co91	Co9	0.320340	0.284450	0.404300
N91	N9	0.224800	0.263500	0.317110
O251	O25	0.399510	0.319690	0.491870
O261	O26	0.192800	0.294300	0.460860
O271	O27	0.324600	0.444000	0.398820
N101	N10	0.320900	0.132000	0.426870
O281	O28	0.438900	0.270000	0.339620
C491	C49	0.249500	0.213800	0.263200
C501	C50	0.132500	0.297500	0.317600
Co101	Co10	0.349830	0.456870	0.511640
H451	H45	0.386500	0.281500	0.524800
C511	C51	0.163600	0.350700	0.507600
H461	H46	0.262700	0.473000	0.383700
H471	H47	0.379100	0.469000	0.370900
C521	C52	0.276400	0.096900	0.481900
C531	C53	0.369000	0.067100	0.391200
H481	H48	0.315000	0.193700	0.259500
C541	C54	0.186900	0.188400	0.211100
C551	C55	0.064900	0.276400	0.267700
H491	H49	0.113300	0.338100	0.354500
O291	O29	0.210800	0.416600	0.535240
O301	O30	0.376500	0.454000	0.617900
C561	C56	0.060600	0.334800	0.532600
H501	H50	0.237800	0.140600	0.507800
C571	C57	0.281600	0.003100	0.504800
C581	C58	0.376500	0.971500	0.410300
H511	H51	0.400200	0.087300	0.350200
H521	H52	0.209700	0.151700	0.173200
C591	C59	0.090600	0.216500	0.214000
H531	H53	0.001500	0.302800	0.270200
H541	H54	0.249000	0.983300	0.545300
H551	H55	0.411900	0.927900	0.382200
C601	C60	0.018900	0.188100	0.159500
Co111	Co11	0.679660	0.715550	0.404300
N111	N11	0.775200	0.736500	0.317110
O311	O31	0.600490	0.680310	0.491870
O321	O32	0.807200	0.705700	0.460860
O331	O33	0.675400	0.556000	0.398820
N121	N12	0.679100	0.868000	0.426870
O341	O34	0.561100	0.730000	0.339620
C611	C61	0.750500	0.786200	0.263200
C621	C62	0.867500	0.702500	0.317600
Co121	Co12	0.650170	0.543130	0.511640
H561	H56	0.613500	0.718500	0.524800
C631	C63	0.836400	0.649300	0.507600
H571	H57	0.737300	0.527000	0.383700
H581	H58	0.620900	0.531000	0.370900
C641	C64	0.723600	0.903100	0.481900
C651	C65	0.631000	0.932900	0.391200
H591	H59	0.685000	0.806300	0.259500
C661	C66	0.813100	0.811600	0.211100
C671	C67	0.935100	0.723600	0.267700
H601	H60	0.886700	0.661900	0.354500
O351	O35	0.789200	0.583400	0.535240
O361	O36	0.623500	0.546000	0.617900
C681	C68	0.939400	0.665200	0.532600
H611	H61	0.762200	0.859400	0.507800
C691	C69	0.718400	0.996900	0.504800
C701	C70	0.623500	0.028500	0.410300
H621	H62	0.599800	0.912700	0.350200
H631	H63	0.790300	0.848300	0.173200
C711	C71	0.909400	0.783500	0.214000
H641	H64	0.998500	0.697200	0.270200
H651	H65	0.751000	0.016700	0.545300
H661	H66	0.588100	0.072100	0.382200
C721	C72	0.981100	0.811900	0.159500
Co131	Co13	0.715550	0.320340	0.595700
N131	N13	0.736500	0.224800	0.682890
O371	O37	0.680310	0.399510	0.508130
O381	O38	0.705700	0.192800	0.539140
O391	O39	0.556000	0.324600	0.601180
N141	N14	0.868000	0.320900	0.573130
O401	O40	0.730000	0.438900	0.660380
C731	C73	0.786200	0.249500	0.736800
C741	C74	0.702500	0.132500	0.682400
Co141	Co14	0.543130	0.349830	0.488360
H671	H67	0.718500	0.386500	0.475200
C751	C75	0.649300	0.163600	0.492400
H681	H68	0.527000	0.262700	0.616300
H691	H69	0.531000	0.379100	0.629100
C761	C76	0.903100	0.276400	0.518100
C771	C77	0.932900	0.369000	0.608800
H701	H70	0.806300	0.315000	0.740500
C781	C78	0.811600	0.186900	0.788900
C791	C79	0.723600	0.064900	0.732300
H711	H71	0.661900	0.113300	0.645500
O411	O41	0.583400	0.210800	0.464760
O421	O42	0.546000	0.376500	0.382100
C801	C80	0.665200	0.060600	0.467400
H721	H72	0.859400	0.237800	0.492200
C811	C81	0.996900	0.281600	0.495200
C821	C82	0.028500	0.376500	0.589700
H731	H73	0.912700	0.400200	0.649800
H741	H74	0.848300	0.209700	0.826800
C831	C83	0.783500	0.090600	0.786000
H751	H75	0.697200	0.001500	0.729800
H761	H76	0.016700	0.249000	0.454700
H771	H77	0.072100	0.411900	0.617800
C841	C84	0.811900	0.018900	0.840500
Co151	Co15	0.284450	0.679660	0.595700
N151	N15	0.263500	0.775200	0.682890
O431	O43	0.319690	0.600490	0.508130
O441	O44	0.294300	0.807200	0.539140
O451	O45	0.444000	0.675400	0.601180
N161	N16	0.132000	0.679100	0.573130
O461	O46	0.270000	0.561100	0.660380
C851	C85	0.213800	0.750500	0.736800
C861	C86	0.297500	0.867500	0.682400
Co161	Co16	0.456870	0.650170	0.488360
H781	H78	0.281500	0.613500	0.475200
C871	C87	0.350700	0.836400	0.492400
H791	H79	0.473000	0.737300	0.616300
H801	H80	0.469000	0.620900	0.629100
C881	C88	0.096900	0.723600	0.518100
C891	C89	0.067100	0.631000	0.608800
H811	H81	0.193700	0.685000	0.740500
C901	C90	0.188400	0.813100	0.788900
C911	C91	0.276400	0.935100	0.732300
H821	H82	0.338100	0.886700	0.645500
O471	O47	0.416600	0.789200	0.464760
O481	O48	0.454000	0.623500	0.382100
C921	C92	0.334800	0.939400	0.467400
H831	H83	0.140600	0.762200	0.492200
C931	C93	0.003100	0.718400	0.495200
C941	C94	0.971500	0.623500	0.589700
H841	H84	0.087300	0.599800	0.649800
H851	H85	0.151700	0.790300	0.826800
C951	C95	0.216500	0.909400	0.786000
H861	H86	0.302800	0.998500	0.729800
H871	H87	0.983300	0.751000	0.454700
H881	H88	0.927900	0.588100	0.617800
C961	C96	0.188100	0.981100	0.840500
O491	O49	0.000000	0.000000	0.000000
O501	O50	0.500000	0.500000	0.500000
