data_ESARAT_freeONLY_PM
_symmetry_space_group_name_H-M	'P1'
_cell_length_a	28.947000
_cell_length_b	8.332100
_cell_length_c	18.328300
_cell_angle_alpha	90.000000
_cell_angle_beta	114.792000
_cell_angle_gamma	90.000000
_symmetry_Int_Tables_number 1

loop_
_symmetry_equiv_pos_as_xyz
'x,y,z'

loop_
_atom_site_label
_atom_site_type_symbol
_atom_site_fract_x
_atom_site_fract_y
_atom_site_fract_z
Zn11	Zn1	0.306390	0.222070	0.115870
N11	N1	0.384100	0.795400	0.134700
O11	O1	0.375600	0.303500	0.230800
N21	N2	0.333800	0.999200	0.120000
N31	N3	0.484600	0.526000	0.511900
O21	O2	0.301700	0.366100	0.206200
C11	C1	0.309800	0.638400	0.467600
C21	C2	0.431400	0.515600	0.456200
C31	C3	0.327900	0.510500	0.358600
H11	H1	0.293300	0.510900	0.325000
C41	C4	0.345300	0.574600	0.435200
C51	C5	0.430500	0.701000	0.151300
H21	H2	0.455300	0.769300	0.143800
H31	H3	0.422300	0.614300	0.112600
C61	C6	0.424800	0.068800	0.153800
H41	H4	0.444400	0.077500	0.210800
H51	H5	0.411900	0.172600	0.132000
H61	H6	0.446000	0.028600	0.129300
C71	C7	0.362500	0.445400	0.332500
C81	C8	0.381500	0.956600	0.137200
H71	H7	0.493300	0.464600	0.203900
C91	C9	0.397600	0.579000	0.484000
H81	H8	0.409600	0.624300	0.535000
C101	C10	0.413600	0.447700	0.380300
H91	H9	0.436400	0.404000	0.362000
C111	C11	0.337100	0.734100	0.116600
H101	H10	0.328100	0.626200	0.111800
C121	C12	0.306000	0.860800	0.107000
H111	H11	0.271300	0.855000	0.093700
C131	C13	0.454100	0.631100	0.234900
H121	H12	0.463300	0.717900	0.273700
H131	H13	0.429100	0.564800	0.242900
C141	C14	0.346000	0.365900	0.251600
O31	O3	0.495200	0.619700	0.585800
O41	O4	0.326520	0.659500	0.542400
O51	O5	0.265800	0.663600	0.418900
Zn21	Zn2	0.806390	0.722070	0.115870
N41	N4	0.884100	0.295400	0.134700
O61	O6	0.875600	0.803500	0.230800
N51	N5	0.833800	0.499200	0.120000
N61	N6	0.984600	0.026000	0.511900
O71	O7	0.801700	0.866100	0.206200
C151	C15	0.809800	0.138400	0.467600
C161	C16	0.931400	0.015600	0.456200
C171	C17	0.827900	0.010500	0.358600
H141	H14	0.793300	0.010900	0.325000
C181	C18	0.845300	0.074600	0.435200
C191	C19	0.930500	0.201000	0.151300
H151	H15	0.955300	0.269300	0.143800
H161	H16	0.922300	0.114300	0.112600
C201	C20	0.924800	0.568800	0.153800
H171	H17	0.944400	0.577500	0.210800
H181	H18	0.911900	0.672600	0.132000
H191	H19	0.946000	0.528600	0.129300
C211	C21	0.862500	0.945400	0.332500
C221	C22	0.881500	0.456600	0.137200
H201	H20	0.993300	0.964600	0.203900
C231	C23	0.897600	0.079000	0.484000
H211	H21	0.909600	0.124300	0.535000
C241	C24	0.913600	0.947700	0.380300
H221	H22	0.936400	0.904000	0.362000
C251	C25	0.837100	0.234100	0.116600
H231	H23	0.828100	0.126200	0.111800
C261	C26	0.806000	0.360800	0.107000
H241	H24	0.771300	0.355000	0.093700
C271	C27	0.954100	0.131100	0.234900
H251	H25	0.963300	0.217900	0.273700
H261	H26	0.929100	0.064800	0.242900
C281	C28	0.846000	0.865900	0.251600
O81	O8	0.995200	0.119700	0.585800
O91	O9	0.826520	0.159500	0.542400
O101	O10	0.765800	0.163600	0.418900
Zn31	Zn3	0.693610	0.222070	0.384130
N71	N7	0.615900	0.795400	0.365300
O111	O11	0.624400	0.303500	0.269200
N81	N8	0.666200	0.999200	0.380000
N91	N9	0.515400	0.526000	0.988100
O121	O12	0.698300	0.366100	0.293800
C291	C29	0.690200	0.638400	0.032400
C301	C30	0.568600	0.515600	0.043800
C311	C31	0.672100	0.510500	0.141400
H271	H27	0.706700	0.510900	0.175000
C321	C32	0.654700	0.574600	0.064800
C331	C33	0.569500	0.701000	0.348700
H281	H28	0.544700	0.769300	0.356200
H291	H29	0.577700	0.614300	0.387400
C341	C34	0.575200	0.068800	0.346200
H301	H30	0.555600	0.077500	0.289200
H311	H31	0.588100	0.172600	0.368000
H321	H32	0.554000	0.028600	0.370700
C351	C35	0.637500	0.445400	0.167500
C361	C36	0.618500	0.956600	0.362800
H331	H33	0.506700	0.464600	0.296100
C371	C37	0.602400	0.579000	0.016000
H341	H34	0.590400	0.624300	0.965000
C381	C38	0.586400	0.447700	0.119700
H351	H35	0.563600	0.404000	0.138000
C391	C39	0.662900	0.734100	0.383400
H361	H36	0.671900	0.626200	0.388200
C401	C40	0.694000	0.860800	0.393000
H371	H37	0.728700	0.855000	0.406300
C411	C41	0.545900	0.631100	0.265100
H381	H38	0.536700	0.717900	0.226300
H391	H39	0.570900	0.564800	0.257100
C421	C42	0.654000	0.365900	0.248400
O131	O13	0.504800	0.619700	0.914200
O141	O14	0.673480	0.659500	0.957600
O151	O15	0.734200	0.663600	0.081100
Zn41	Zn4	0.193610	0.722070	0.384130
N101	N10	0.115900	0.295400	0.365300
O161	O16	0.124400	0.803500	0.269200
N111	N11	0.166200	0.499200	0.380000
N121	N12	0.015400	0.026000	0.988100
O171	O17	0.198300	0.866100	0.293800
C431	C43	0.190200	0.138400	0.032400
C441	C44	0.068600	0.015600	0.043800
C451	C45	0.172100	0.010500	0.141400
H401	H40	0.206700	0.010900	0.175000
C461	C46	0.154700	0.074600	0.064800
C471	C47	0.069500	0.201000	0.348700
H411	H41	0.044700	0.269300	0.356200
H421	H42	0.077700	0.114300	0.387400
C481	C48	0.075200	0.568800	0.346200
H431	H43	0.055600	0.577500	0.289200
H441	H44	0.088100	0.672600	0.368000
H451	H45	0.054000	0.528600	0.370700
C491	C49	0.137500	0.945400	0.167500
C501	C50	0.118500	0.456600	0.362800
H461	H46	0.006700	0.964600	0.296100
C511	C51	0.102400	0.079000	0.016000
H471	H47	0.090400	0.124300	0.965000
C521	C52	0.086400	0.947700	0.119700
H481	H48	0.063600	0.904000	0.138000
C531	C53	0.162900	0.234100	0.383400
H491	H49	0.171900	0.126200	0.388200
C541	C54	0.194000	0.360800	0.393000
H501	H50	0.228700	0.355000	0.406300
C551	C55	0.045900	0.131100	0.265100
H511	H51	0.036700	0.217900	0.226300
H521	H52	0.070900	0.064800	0.257100
C561	C56	0.154000	0.865900	0.248400
O181	O18	0.004800	0.119700	0.914200
O191	O19	0.173480	0.159500	0.957600
O201	O20	0.234200	0.163600	0.081100
Zn51	Zn5	0.693610	0.777930	0.884130
N131	N13	0.615900	0.204600	0.865300
O211	O21	0.624400	0.696500	0.769200
N141	N14	0.666200	0.000800	0.880000
N151	N15	0.515400	0.474000	0.488100
O221	O22	0.698300	0.633900	0.793800
C571	C57	0.690200	0.361600	0.532400
C581	C58	0.568600	0.484400	0.543800
C591	C59	0.672100	0.489500	0.641400
H531	H53	0.706700	0.489100	0.675000
C601	C60	0.654700	0.425400	0.564800
C611	C61	0.569500	0.299000	0.848700
H541	H54	0.544700	0.230700	0.856200
H551	H55	0.577700	0.385700	0.887400
C621	C62	0.575200	0.931200	0.846200
H561	H56	0.555600	0.922500	0.789200
H571	H57	0.588100	0.827400	0.868000
H581	H58	0.554000	0.971400	0.870700
C631	C63	0.637500	0.554600	0.667500
C641	C64	0.618500	0.043400	0.862800
H591	H59	0.506700	0.535400	0.796100
C651	C65	0.602400	0.421000	0.516000
H601	H60	0.590400	0.375700	0.465000
C661	C66	0.586400	0.552300	0.619700
H611	H61	0.563600	0.596000	0.638000
C671	C67	0.662900	0.265900	0.883400
H621	H62	0.671900	0.373800	0.888200
C681	C68	0.694000	0.139200	0.893000
H631	H63	0.728700	0.145000	0.906300
C691	C69	0.545900	0.368900	0.765100
H641	H64	0.536700	0.282100	0.726300
H651	H65	0.570900	0.435200	0.757100
C701	C70	0.654000	0.634100	0.748400
O231	O23	0.504800	0.380300	0.414200
O241	O24	0.673480	0.340500	0.457600
O251	O25	0.734200	0.336400	0.581100
Zn61	Zn6	0.193610	0.277930	0.884130
N161	N16	0.115900	0.704600	0.865300
O261	O26	0.124400	0.196500	0.769200
N171	N17	0.166200	0.500800	0.880000
N181	N18	0.015400	0.974000	0.488100
O271	O27	0.198300	0.133900	0.793800
C711	C71	0.190200	0.861600	0.532400
C721	C72	0.068600	0.984400	0.543800
C731	C73	0.172100	0.989500	0.641400
H661	H66	0.206700	0.989100	0.675000
C741	C74	0.154700	0.925400	0.564800
C751	C75	0.069500	0.799000	0.848700
H671	H67	0.044700	0.730700	0.856200
H681	H68	0.077700	0.885700	0.887400
C761	C76	0.075200	0.431200	0.846200
H691	H69	0.055600	0.422500	0.789200
H701	H70	0.088100	0.327400	0.868000
H711	H71	0.054000	0.471400	0.870700
C771	C77	0.137500	0.054600	0.667500
C781	C78	0.118500	0.543400	0.862800
H721	H72	0.006700	0.035400	0.796100
C791	C79	0.102400	0.921000	0.516000
H731	H73	0.090400	0.875700	0.465000
C801	C80	0.086400	0.052300	0.619700
H741	H74	0.063600	0.096000	0.638000
C811	C81	0.162900	0.765900	0.883400
H751	H75	0.171900	0.873800	0.888200
C821	C82	0.194000	0.639200	0.893000
H761	H76	0.228700	0.645000	0.906300
C831	C83	0.045900	0.868900	0.765100
H771	H77	0.036700	0.782100	0.726300
H781	H78	0.070900	0.935200	0.757100
C841	C84	0.154000	0.134100	0.748400
O281	O28	0.004800	0.880300	0.414200
O291	O29	0.173480	0.840500	0.457600
O301	O30	0.234200	0.836400	0.581100
Zn71	Zn7	0.306390	0.777930	0.615870
N191	N19	0.384100	0.204600	0.634700
O311	O31	0.375600	0.696500	0.730800
N201	N20	0.333800	0.000800	0.620000
N211	N21	0.484600	0.474000	0.011900
O321	O32	0.301700	0.633900	0.706200
C851	C85	0.309800	0.361600	0.967600
C861	C86	0.431400	0.484400	0.956200
C871	C87	0.327900	0.489500	0.858600
H791	H79	0.293300	0.489100	0.825000
C881	C88	0.345300	0.425400	0.935200
C891	C89	0.430500	0.299000	0.651300
H801	H80	0.455300	0.230700	0.643800
H811	H81	0.422300	0.385700	0.612600
C901	C90	0.424800	0.931200	0.653800
H821	H82	0.444400	0.922500	0.710800
H831	H83	0.411900	0.827400	0.632000
H841	H84	0.446000	0.971400	0.629300
C911	C91	0.362500	0.554600	0.832500
C921	C92	0.381500	0.043400	0.637200
H851	H85	0.493300	0.535400	0.703900
C931	C93	0.397600	0.421000	0.984000
H861	H86	0.409600	0.375700	0.035000
C941	C94	0.413600	0.552300	0.880300
H871	H87	0.436400	0.596000	0.862000
C951	C95	0.337100	0.265900	0.616600
H881	H88	0.328100	0.373800	0.611800
C961	C96	0.306000	0.139200	0.607000
H891	H89	0.271300	0.145000	0.593700
C971	C97	0.454100	0.368900	0.734900
H901	H90	0.463300	0.282100	0.773700
H911	H91	0.429100	0.435200	0.742900
C981	C98	0.346000	0.634100	0.751600
O331	O33	0.495200	0.380300	0.085800
O341	O34	0.326520	0.340500	0.042400
O351	O35	0.265800	0.336400	0.918900
Zn81	Zn8	0.806390	0.277930	0.615870
N221	N22	0.884100	0.704600	0.634700
O361	O36	0.875600	0.196500	0.730800
N231	N23	0.833800	0.500800	0.620000
N241	N24	0.984600	0.974000	0.011900
O371	O37	0.801700	0.133900	0.706200
C991	C99	0.809800	0.861600	0.967600
C1001	C100	0.931400	0.984400	0.956200
C1011	C101	0.827900	0.989500	0.858600
H921	H92	0.793300	0.989100	0.825000
C1021	C102	0.845300	0.925400	0.935200
C1031	C103	0.930500	0.799000	0.651300
H931	H93	0.955300	0.730700	0.643800
H941	H94	0.922300	0.885700	0.612600
C1041	C104	0.924800	0.431200	0.653800
H951	H95	0.944400	0.422500	0.710800
H961	H96	0.911900	0.327400	0.632000
H971	H97	0.946000	0.471400	0.629300
C1051	C105	0.862500	0.054600	0.832500
C1061	C106	0.881500	0.543400	0.637200
H981	H98	0.993300	0.035400	0.703900
C1071	C107	0.897600	0.921000	0.984000
H991	H99	0.909600	0.875700	0.035000
C1081	C108	0.913600	0.052300	0.880300
H1001	H100	0.936400	0.096000	0.862000
C1091	C109	0.837100	0.765900	0.616600
H1011	H101	0.828100	0.873800	0.611800
C1101	C110	0.806000	0.639200	0.607000
H1021	H102	0.771300	0.645000	0.593700
C1111	C111	0.954100	0.868900	0.734900
H1031	H103	0.963300	0.782100	0.773700
H1041	H104	0.929100	0.935200	0.742900
C1121	C112	0.846000	0.134100	0.751600
O381	O38	0.995200	0.880300	0.085800
O391	O39	0.826520	0.840500	0.042400
O401	O40	0.765800	0.836400	0.918900
C1131	C113	0.500000	0.533200	0.250000
C1141	C114	0.000000	0.033200	0.250000
C1151	C115	0.500000	0.466800	0.750000
C1161	C116	0.000000	0.966800	0.750000
