data_ESASAU_freeONLY_PM
_symmetry_space_group_name_H-M	'P1'
_cell_length_a	27.621300
_cell_length_b	10.512100
_cell_length_c	14.761400
_cell_angle_alpha	90.000000
_cell_angle_beta	117.048000
_cell_angle_gamma	90.000000
_symmetry_Int_Tables_number 1

loop_
_symmetry_equiv_pos_as_xyz
'x,y,z'

loop_
_atom_site_label
_atom_site_type_symbol
_atom_site_fract_x
_atom_site_fract_y
_atom_site_fract_z
Zn11	Zn1	0.790920	0.640000	0.535480
O11	O1	0.834090	0.736500	0.668000
O21	O2	0.830890	0.250500	0.975000
O31	O3	0.766390	0.101600	0.915300
O41	O4	0.769700	0.887400	0.611600
N11	N1	0.827250	0.472100	0.543200
C11	C1	0.843850	0.070600	0.891600
C21	C2	0.816150	0.997900	0.804800
H11	H1	0.778500	0.003200	0.768800
N21	N2	0.858200	0.277100	0.573800
C31	C3	0.844710	0.916800	0.771500
C41	C4	0.811100	0.148800	0.930800
C51	C5	0.813680	0.840100	0.675300
N31	N3	0.986000	0.966800	0.963600
C61	C6	0.900300	0.067600	0.944900
H21	H2	0.918700	0.120000	0.001000
C71	C7	0.901100	0.906600	0.827500
H31	H3	0.920100	0.848500	0.808300
C81	C8	0.835900	0.371700	0.602600
C91	C9	0.928900	0.984200	0.912600
C101	C10	0.876500	0.152500	0.623100
H41	H4	0.858900	0.085300	0.573900
H51	H5	0.866300	0.143200	0.677500
C111	C11	0.844700	0.439300	0.472300
H61	H6	0.843400	0.491700	0.420500
C121	C12	0.821800	0.362700	0.689000
H71	H7	0.817100	0.447700	0.709300
H81	H8	0.851600	0.322800	0.746600
C131	C13	0.863900	0.318600	0.490300
H91	H9	0.878000	0.272900	0.453800
C141	C14	0.769700	0.285700	0.660100
H101	H10	0.740100	0.325000	0.603000
H111	H11	0.761600	0.283400	0.716700
H121	H12	0.774800	0.200600	0.642400
C151	C15	0.937800	0.140200	0.666100
H131	H13	0.949300	0.060700	0.703300
H141	H14	0.947100	0.136700	0.610200
C161	C16	0.968800	0.248200	0.736100
H151	H15	0.965100	0.242100	0.798200
H161	H16	0.952800	0.328300	0.703600
O51	O5	0.001900	0.876500	0.921300
Zn21	Zn2	0.290920	0.140000	0.535480
O61	O6	0.334090	0.236500	0.668000
O71	O7	0.330890	0.750500	0.975000
O81	O8	0.266390	0.601600	0.915300
O91	O9	0.269700	0.387400	0.611600
N41	N4	0.327250	0.972100	0.543200
C171	C17	0.343850	0.570600	0.891600
C181	C18	0.316150	0.497900	0.804800
H171	H17	0.278500	0.503200	0.768800
N51	N5	0.358200	0.777100	0.573800
C191	C19	0.344710	0.416800	0.771500
C201	C20	0.311100	0.648800	0.930800
C211	C21	0.313680	0.340100	0.675300
N61	N6	0.486000	0.466800	0.963600
C221	C22	0.400300	0.567600	0.944900
H181	H18	0.418700	0.620000	0.001000
C231	C23	0.401100	0.406600	0.827500
H191	H19	0.420100	0.348500	0.808300
C241	C24	0.335900	0.871700	0.602600
C251	C25	0.428900	0.484200	0.912600
C261	C26	0.376500	0.652500	0.623100
H201	H20	0.358900	0.585300	0.573900
H211	H21	0.366300	0.643200	0.677500
C271	C27	0.344700	0.939300	0.472300
H221	H22	0.343400	0.991700	0.420500
C281	C28	0.321800	0.862700	0.689000
H231	H23	0.317100	0.947700	0.709300
H241	H24	0.351600	0.822800	0.746600
C291	C29	0.363900	0.818600	0.490300
H251	H25	0.378000	0.772900	0.453800
C301	C30	0.269700	0.785700	0.660100
H261	H26	0.240100	0.825000	0.603000
H271	H27	0.261600	0.783400	0.716700
H281	H28	0.274800	0.700600	0.642400
C311	C31	0.437800	0.640200	0.666100
H291	H29	0.449300	0.560700	0.703300
H301	H30	0.447100	0.636700	0.610200
C321	C32	0.468800	0.748200	0.736100
H311	H31	0.465100	0.742100	0.798200
H321	H32	0.452800	0.828300	0.703600
O101	O10	0.501900	0.376500	0.921300
Zn31	Zn3	0.209080	0.640000	0.964520
O111	O11	0.165910	0.736500	0.832000
O121	O12	0.169110	0.250500	0.525000
O131	O13	0.233610	0.101600	0.584700
O141	O14	0.230300	0.887400	0.888400
N71	N7	0.172750	0.472100	0.956800
C331	C33	0.156150	0.070600	0.608400
C341	C34	0.183850	0.997900	0.695200
H331	H33	0.221500	0.003200	0.731200
N81	N8	0.141800	0.277100	0.926200
C351	C35	0.155290	0.916800	0.728500
C361	C36	0.188900	0.148800	0.569200
C371	C37	0.186320	0.840100	0.824700
N91	N9	0.014000	0.966800	0.536400
C381	C38	0.099700	0.067600	0.555100
H341	H34	0.081300	0.120000	0.499000
C391	C39	0.098900	0.906600	0.672500
H351	H35	0.079900	0.848500	0.691700
C401	C40	0.164100	0.371700	0.897400
C411	C41	0.071100	0.984200	0.587400
C421	C42	0.123500	0.152500	0.876900
H361	H36	0.141100	0.085300	0.926100
H371	H37	0.133700	0.143200	0.822500
C431	C43	0.155300	0.439300	0.027700
H381	H38	0.156600	0.491700	0.079500
C441	C44	0.178200	0.362700	0.811000
H391	H39	0.182900	0.447700	0.790700
H401	H40	0.148400	0.322800	0.753400
C451	C45	0.136100	0.318600	0.009700
H411	H41	0.122000	0.272900	0.046200
C461	C46	0.230300	0.285700	0.839900
H421	H42	0.259900	0.325000	0.897000
H431	H43	0.238400	0.283400	0.783300
H441	H44	0.225200	0.200600	0.857600
C471	C47	0.062200	0.140200	0.833900
H451	H45	0.050700	0.060700	0.796700
H461	H46	0.052900	0.136700	0.889800
C481	C48	0.031200	0.248200	0.763900
H471	H47	0.034900	0.242100	0.701800
H481	H48	0.047200	0.328300	0.796400
O151	O15	0.998100	0.876500	0.578700
Zn41	Zn4	0.709080	0.140000	0.964520
O161	O16	0.665910	0.236500	0.832000
O171	O17	0.669110	0.750500	0.525000
O181	O18	0.733610	0.601600	0.584700
O191	O19	0.730300	0.387400	0.888400
N101	N10	0.672750	0.972100	0.956800
C491	C49	0.656150	0.570600	0.608400
C501	C50	0.683850	0.497900	0.695200
H491	H49	0.721500	0.503200	0.731200
N111	N11	0.641800	0.777100	0.926200
C511	C51	0.655290	0.416800	0.728500
C521	C52	0.688900	0.648800	0.569200
C531	C53	0.686320	0.340100	0.824700
N121	N12	0.514000	0.466800	0.536400
C541	C54	0.599700	0.567600	0.555100
H501	H50	0.581300	0.620000	0.499000
C551	C55	0.598900	0.406600	0.672500
H511	H51	0.579900	0.348500	0.691700
C561	C56	0.664100	0.871700	0.897400
C571	C57	0.571100	0.484200	0.587400
C581	C58	0.623500	0.652500	0.876900
H521	H52	0.641100	0.585300	0.926100
H531	H53	0.633700	0.643200	0.822500
C591	C59	0.655300	0.939300	0.027700
H541	H54	0.656600	0.991700	0.079500
C601	C60	0.678200	0.862700	0.811000
H551	H55	0.682900	0.947700	0.790700
H561	H56	0.648400	0.822800	0.753400
C611	C61	0.636100	0.818600	0.009700
H571	H57	0.622000	0.772900	0.046200
C621	C62	0.730300	0.785700	0.839900
H581	H58	0.759900	0.825000	0.897000
H591	H59	0.738400	0.783400	0.783300
H601	H60	0.725200	0.700600	0.857600
C631	C63	0.562200	0.640200	0.833900
H611	H61	0.550700	0.560700	0.796700
H621	H62	0.552900	0.636700	0.889800
C641	C64	0.531200	0.748200	0.763900
H631	H63	0.534900	0.742100	0.701800
H641	H64	0.547200	0.828300	0.796400
O201	O20	0.498100	0.376500	0.578700
Zn51	Zn5	0.209080	0.360000	0.464520
O211	O21	0.165910	0.263500	0.332000
O221	O22	0.169110	0.749500	0.025000
O231	O23	0.233610	0.898400	0.084700
O241	O24	0.230300	0.112600	0.388400
N131	N13	0.172750	0.527900	0.456800
C651	C65	0.156150	0.929400	0.108400
C661	C66	0.183850	0.002100	0.195200
H651	H65	0.221500	0.996800	0.231200
N141	N14	0.141800	0.722900	0.426200
C671	C67	0.155290	0.083200	0.228500
C681	C68	0.188900	0.851200	0.069200
C691	C69	0.186320	0.159900	0.324700
N151	N15	0.014000	0.033200	0.036400
C701	C70	0.099700	0.932400	0.055100
H661	H66	0.081300	0.880000	0.999000
C711	C71	0.098900	0.093400	0.172500
H671	H67	0.079900	0.151500	0.191700
C721	C72	0.164100	0.628300	0.397400
C731	C73	0.071100	0.015800	0.087400
C741	C74	0.123500	0.847500	0.376900
H681	H68	0.141100	0.914700	0.426100
H691	H69	0.133700	0.856800	0.322500
C751	C75	0.155300	0.560700	0.527700
H701	H70	0.156600	0.508300	0.579500
C761	C76	0.178200	0.637300	0.311000
H711	H71	0.182900	0.552300	0.290700
H721	H72	0.148400	0.677200	0.253400
C771	C77	0.136100	0.681400	0.509700
H731	H73	0.122000	0.727100	0.546200
C781	C78	0.230300	0.714300	0.339900
H741	H74	0.259900	0.675000	0.397000
H751	H75	0.238400	0.716600	0.283300
H761	H76	0.225200	0.799400	0.357600
C791	C79	0.062200	0.859800	0.333900
H771	H77	0.050700	0.939300	0.296700
H781	H78	0.052900	0.863300	0.389800
C801	C80	0.031200	0.751800	0.263900
H791	H79	0.034900	0.757900	0.201800
H801	H80	0.047200	0.671700	0.296400
O251	O25	0.998100	0.123500	0.078700
Zn61	Zn6	0.709080	0.860000	0.464520
O261	O26	0.665910	0.763500	0.332000
O271	O27	0.669110	0.249500	0.025000
O281	O28	0.733610	0.398400	0.084700
O291	O29	0.730300	0.612600	0.388400
N161	N16	0.672750	0.027900	0.456800
C811	C81	0.656150	0.429400	0.108400
C821	C82	0.683850	0.502100	0.195200
H811	H81	0.721500	0.496800	0.231200
N171	N17	0.641800	0.222900	0.426200
C831	C83	0.655290	0.583200	0.228500
C841	C84	0.688900	0.351200	0.069200
C851	C85	0.686320	0.659900	0.324700
N181	N18	0.514000	0.533200	0.036400
C861	C86	0.599700	0.432400	0.055100
H821	H82	0.581300	0.380000	0.999000
C871	C87	0.598900	0.593400	0.172500
H831	H83	0.579900	0.651500	0.191700
C881	C88	0.664100	0.128300	0.397400
C891	C89	0.571100	0.515800	0.087400
C901	C90	0.623500	0.347500	0.376900
H841	H84	0.641100	0.414700	0.426100
H851	H85	0.633700	0.356800	0.322500
C911	C91	0.655300	0.060700	0.527700
H861	H86	0.656600	0.008300	0.579500
C921	C92	0.678200	0.137300	0.311000
H871	H87	0.682900	0.052300	0.290700
H881	H88	0.648400	0.177200	0.253400
C931	C93	0.636100	0.181400	0.509700
H891	H89	0.622000	0.227100	0.546200
C941	C94	0.730300	0.214300	0.339900
H901	H90	0.759900	0.175000	0.397000
H911	H91	0.738400	0.216600	0.283300
H921	H92	0.725200	0.299400	0.357600
C951	C95	0.562200	0.359800	0.333900
H931	H93	0.550700	0.439300	0.296700
H941	H94	0.552900	0.363300	0.389800
C961	C96	0.531200	0.251800	0.263900
H951	H95	0.534900	0.257900	0.201800
H961	H96	0.547200	0.171700	0.296400
O301	O30	0.498100	0.623500	0.078700
Zn71	Zn7	0.790920	0.360000	0.035480
O311	O31	0.834090	0.263500	0.168000
O321	O32	0.830890	0.749500	0.475000
O331	O33	0.766390	0.898400	0.415300
O341	O34	0.769700	0.112600	0.111600
N191	N19	0.827250	0.527900	0.043200
C971	C97	0.843850	0.929400	0.391600
C981	C98	0.816150	0.002100	0.304800
H971	H97	0.778500	0.996800	0.268800
N201	N20	0.858200	0.722900	0.073800
C991	C99	0.844710	0.083200	0.271500
C1001	C100	0.811100	0.851200	0.430800
C1011	C101	0.813680	0.159900	0.175300
N211	N21	0.986000	0.033200	0.463600
C1021	C102	0.900300	0.932400	0.444900
H981	H98	0.918700	0.880000	0.501000
C1031	C103	0.901100	0.093400	0.327500
H991	H99	0.920100	0.151500	0.308300
C1041	C104	0.835900	0.628300	0.102600
C1051	C105	0.928900	0.015800	0.412600
C1061	C106	0.876500	0.847500	0.123100
H1001	H100	0.858900	0.914700	0.073900
H1011	H101	0.866300	0.856800	0.177500
C1071	C107	0.844700	0.560700	0.972300
H1021	H102	0.843400	0.508300	0.920500
C1081	C108	0.821800	0.637300	0.189000
H1031	H103	0.817100	0.552300	0.209300
H1041	H104	0.851600	0.677200	0.246600
C1091	C109	0.863900	0.681400	0.990300
H1051	H105	0.878000	0.727100	0.953800
C1101	C110	0.769700	0.714300	0.160100
H1061	H106	0.740100	0.675000	0.103000
H1071	H107	0.761600	0.716600	0.216700
H1081	H108	0.774800	0.799400	0.142400
C1111	C111	0.937800	0.859800	0.166100
H1091	H109	0.949300	0.939300	0.203300
H1101	H110	0.947100	0.863300	0.110200
C1121	C112	0.968800	0.751800	0.236100
H1111	H111	0.965100	0.757900	0.298200
H1121	H112	0.952800	0.671700	0.203600
O351	O35	0.001900	0.123500	0.421300
Zn81	Zn8	0.290920	0.860000	0.035480
O361	O36	0.334090	0.763500	0.168000
O371	O37	0.330890	0.249500	0.475000
O381	O38	0.266390	0.398400	0.415300
O391	O39	0.269700	0.612600	0.111600
N221	N22	0.327250	0.027900	0.043200
C1131	C113	0.343850	0.429400	0.391600
C1141	C114	0.316150	0.502100	0.304800
H1131	H113	0.278500	0.496800	0.268800
N231	N23	0.358200	0.222900	0.073800
C1151	C115	0.344710	0.583200	0.271500
C1161	C116	0.311100	0.351200	0.430800
C1171	C117	0.313680	0.659900	0.175300
N241	N24	0.486000	0.533200	0.463600
C1181	C118	0.400300	0.432400	0.444900
H1141	H114	0.418700	0.380000	0.501000
C1191	C119	0.401100	0.593400	0.327500
H1151	H115	0.420100	0.651500	0.308300
C1201	C120	0.335900	0.128300	0.102600
C1211	C121	0.428900	0.515800	0.412600
C1221	C122	0.376500	0.347500	0.123100
H1161	H116	0.358900	0.414700	0.073900
H1171	H117	0.366300	0.356800	0.177500
C1231	C123	0.344700	0.060700	0.972300
H1181	H118	0.343400	0.008300	0.920500
C1241	C124	0.321800	0.137300	0.189000
H1191	H119	0.317100	0.052300	0.209300
H1201	H120	0.351600	0.177200	0.246600
C1251	C125	0.363900	0.181400	0.990300
H1211	H121	0.378000	0.227100	0.953800
C1261	C126	0.269700	0.214300	0.160100
H1221	H122	0.240100	0.175000	0.103000
H1231	H123	0.261600	0.216600	0.216700
H1241	H124	0.274800	0.299400	0.142400
C1271	C127	0.437800	0.359800	0.166100
H1251	H125	0.449300	0.439300	0.203300
H1261	H126	0.447100	0.363300	0.110200
C1281	C128	0.468800	0.251800	0.236100
H1271	H127	0.465100	0.257900	0.298200
H1281	H128	0.452800	0.171700	0.203600
O401	O40	0.501900	0.623500	0.421300
