data_ESEVIH_freeONLY_PM
_symmetry_space_group_name_H-M	'P1'
_cell_length_a	11.669500
_cell_length_b	16.323500
_cell_length_c	16.323500
_cell_angle_alpha	90.000000
_cell_angle_beta	90.000000
_cell_angle_gamma	90.000000
_symmetry_Int_Tables_number 1

loop_
_symmetry_equiv_pos_as_xyz
'x,y,z'

loop_
_atom_site_label
_atom_site_type_symbol
_atom_site_fract_x
_atom_site_fract_y
_atom_site_fract_z
Zn11	Zn1	0.135610	0.386100	0.347430
Zn21	Zn2	0.135610	0.613900	0.652570
Zn31	Zn3	0.135610	0.652570	0.386100
Zn41	Zn4	0.135610	0.347430	0.613900
Zn51	Zn5	0.364390	0.113900	0.847430
Zn61	Zn6	0.364390	0.886100	0.152570
Zn71	Zn7	0.364390	0.847430	0.886100
Zn81	Zn8	0.364390	0.152570	0.113900
Zn91	Zn9	0.864390	0.613900	0.652570
Zn101	Zn10	0.864390	0.386100	0.347430
Zn111	Zn11	0.864390	0.347430	0.613900
Zn121	Zn12	0.864390	0.652570	0.386100
Zn131	Zn13	0.635610	0.886100	0.152570
Zn141	Zn14	0.635610	0.113900	0.847430
Zn151	Zn15	0.635610	0.152570	0.113900
Zn161	Zn16	0.635610	0.847430	0.886100
H11	H1	0.172000	0.152000	0.240000
H21	H2	0.172000	0.848000	0.760000
H31	H3	0.172000	0.760000	0.152000
H41	H4	0.172000	0.240000	0.848000
H51	H5	0.328000	0.348000	0.740000
H61	H6	0.328000	0.652000	0.260000
H71	H7	0.328000	0.740000	0.652000
H81	H8	0.328000	0.260000	0.348000
H91	H9	0.828000	0.848000	0.760000
H101	H10	0.828000	0.152000	0.240000
H111	H11	0.828000	0.240000	0.848000
H121	H12	0.828000	0.760000	0.152000
H131	H13	0.672000	0.652000	0.260000
H141	H14	0.672000	0.348000	0.740000
H151	H15	0.672000	0.260000	0.348000
H161	H16	0.672000	0.740000	0.652000
H171	H17	0.000000	0.483000	0.401000
H181	H18	0.000000	0.950000	0.171000
H191	H19	0.000000	0.517000	0.599000
H201	H20	0.000000	0.050000	0.829000
H211	H21	0.000000	0.599000	0.483000
H221	H22	0.000000	0.829000	0.950000
H231	H23	0.000000	0.401000	0.517000
H241	H24	0.000000	0.171000	0.050000
H251	H25	0.500000	0.017000	0.901000
H261	H26	0.500000	0.550000	0.671000
H271	H27	0.500000	0.983000	0.099000
H281	H28	0.500000	0.450000	0.329000
H291	H29	0.500000	0.901000	0.983000
H301	H30	0.500000	0.671000	0.450000
H311	H31	0.500000	0.099000	0.017000
H321	H32	0.500000	0.329000	0.550000
C11	C1	0.102800	0.125000	0.232800
C21	C2	0.103500	0.045300	0.202800
C31	C3	0.214300	0.002600	0.184700
C41	C4	0.102800	0.875000	0.767200
C51	C5	0.103500	0.954700	0.797200
C61	C6	0.214300	0.997400	0.815300
C71	C7	0.102800	0.767200	0.125000
C81	C8	0.103500	0.797200	0.045300
C91	C9	0.214300	0.815300	0.002600
C101	C10	0.102800	0.232800	0.875000
C111	C11	0.103500	0.202800	0.954700
C121	C12	0.214300	0.184700	0.997400
C131	C13	0.397200	0.375000	0.732800
C141	C14	0.396500	0.454700	0.702800
C151	C15	0.285700	0.497400	0.684700
C161	C16	0.397200	0.625000	0.267200
C171	C17	0.396500	0.545300	0.297200
C181	C18	0.285700	0.502600	0.315300
C191	C19	0.397200	0.732800	0.625000
C201	C20	0.396500	0.702800	0.545300
C211	C21	0.285700	0.684700	0.502600
C221	C22	0.397200	0.267200	0.375000
C231	C23	0.396500	0.297200	0.454700
C241	C24	0.285700	0.315300	0.497400
C251	C25	0.897200	0.875000	0.767200
C261	C26	0.896500	0.954700	0.797200
C271	C27	0.785700	0.997400	0.815300
C281	C28	0.897200	0.125000	0.232800
C291	C29	0.896500	0.045300	0.202800
C301	C30	0.785700	0.002600	0.184700
C311	C31	0.897200	0.232800	0.875000
C321	C32	0.896500	0.202800	0.954700
C331	C33	0.785700	0.184700	0.997400
C341	C34	0.897200	0.767200	0.125000
C351	C35	0.896500	0.797200	0.045300
C361	C36	0.785700	0.815300	0.002600
C371	C37	0.602800	0.625000	0.267200
C381	C38	0.603500	0.545300	0.297200
C391	C39	0.714300	0.502600	0.315300
C401	C40	0.602800	0.375000	0.732800
C411	C41	0.603500	0.454700	0.702800
C421	C42	0.714300	0.497400	0.684700
C431	C43	0.602800	0.267200	0.375000
C441	C44	0.603500	0.297200	0.454700
C451	C45	0.714300	0.315300	0.497400
C461	C46	0.602800	0.732800	0.625000
C471	C47	0.603500	0.702800	0.545300
C481	C48	0.714300	0.684700	0.502600
C491	C49	0.000000	0.164200	0.249600
C501	C50	0.000000	0.004800	0.189800
C511	C51	0.000000	0.248400	0.285300
C521	C52	0.000000	0.835800	0.750400
C531	C53	0.000000	0.995200	0.810200
C541	C54	0.000000	0.751600	0.714700
C551	C55	0.000000	0.750400	0.164200
C561	C56	0.000000	0.810200	0.004800
C571	C57	0.000000	0.714700	0.248400
C581	C58	0.000000	0.249600	0.835800
C591	C59	0.000000	0.189800	0.995200
C601	C60	0.000000	0.285300	0.751600
C611	C61	0.500000	0.335800	0.749600
C621	C62	0.500000	0.495200	0.689800
C631	C63	0.500000	0.251600	0.785300
C641	C64	0.500000	0.664200	0.250400
C651	C65	0.500000	0.504800	0.310200
C661	C66	0.500000	0.748400	0.214700
C671	C67	0.500000	0.749600	0.664200
C681	C68	0.500000	0.689800	0.504800
C691	C69	0.500000	0.785300	0.748400
C701	C70	0.500000	0.250400	0.335800
C711	C71	0.500000	0.310200	0.495200
C721	C72	0.500000	0.214700	0.251600
O11	O1	0.095700	0.279900	0.300100
O21	O2	0.301100	0.042200	0.165900
O31	O3	0.215400	0.925700	0.189900
O41	O4	0.095700	0.720100	0.699900
O51	O5	0.301100	0.957800	0.834100
O61	O6	0.215400	0.074300	0.810100
O71	O7	0.095700	0.699900	0.279900
O81	O8	0.301100	0.834100	0.042200
O91	O9	0.215400	0.810100	0.925700
O101	O10	0.095700	0.300100	0.720100
O111	O11	0.301100	0.165900	0.957800
O121	O12	0.215400	0.189900	0.074300
O131	O13	0.404300	0.220100	0.800100
O141	O14	0.198900	0.457800	0.665900
O151	O15	0.284600	0.574300	0.689900
O161	O16	0.404300	0.779900	0.199900
O171	O17	0.198900	0.542200	0.334100
O181	O18	0.284600	0.425700	0.310100
O191	O19	0.404300	0.800100	0.779900
O201	O20	0.198900	0.665900	0.542200
O211	O21	0.284600	0.689900	0.425700
O221	O22	0.404300	0.199900	0.220100
O231	O23	0.198900	0.334100	0.457800
O241	O24	0.284600	0.310100	0.574300
O251	O25	0.904300	0.720100	0.699900
O261	O26	0.698900	0.957800	0.834100
O271	O27	0.784600	0.074300	0.810100
O281	O28	0.904300	0.279900	0.300100
O291	O29	0.698900	0.042200	0.165900
O301	O30	0.784600	0.925700	0.189900
O311	O31	0.904300	0.300100	0.720100
O321	O32	0.698900	0.165900	0.957800
O331	O33	0.784600	0.189900	0.074300
O341	O34	0.904300	0.699900	0.279900
O351	O35	0.698900	0.834100	0.042200
O361	O36	0.784600	0.810100	0.925700
O371	O37	0.595700	0.779900	0.199900
O381	O38	0.801100	0.542200	0.334100
O391	O39	0.715400	0.425700	0.310100
O401	O40	0.595700	0.220100	0.800100
O411	O41	0.801100	0.457800	0.665900
O421	O42	0.715400	0.574300	0.689900
O431	O43	0.595700	0.199900	0.220100
O441	O44	0.801100	0.334100	0.457800
O451	O45	0.715400	0.310100	0.574300
O461	O46	0.595700	0.800100	0.779900
O471	O47	0.801100	0.665900	0.542200
O481	O48	0.715400	0.689900	0.425700
O491	O49	0.000000	0.431000	0.395500
O501	O50	0.000000	0.569000	0.604500
O511	O51	0.000000	0.604500	0.431000
O521	O52	0.000000	0.395500	0.569000
O531	O53	0.500000	0.069000	0.895500
O541	O54	0.500000	0.931000	0.104500
O551	O55	0.500000	0.895500	0.931000
O561	O56	0.500000	0.104500	0.069000
