data_ESIGES01_freeONLY_PM
_symmetry_space_group_name_H-M	'P1'
_cell_length_a	9.974000
_cell_length_b	9.180400
_cell_length_c	27.538500
_cell_angle_alpha	90.000000
_cell_angle_beta	90.000000
_cell_angle_gamma	90.000000
_symmetry_Int_Tables_number 1

loop_
_symmetry_equiv_pos_as_xyz
'x,y,z'

loop_
_atom_site_label
_atom_site_type_symbol
_atom_site_fract_x
_atom_site_fract_y
_atom_site_fract_z
Zn11	Zn1	0.621280	0.327500	0.057960
Zn21	Zn2	0.434160	0.679790	0.960540
P11	P1	0.722280	0.578820	0.984730
P21	P2	0.326990	0.418450	0.034940
O11	O1	0.621600	0.699800	0.974810
O21	O2	0.699200	0.502500	0.032790
O31	O3	0.864800	0.633800	0.984060
O41	O4	0.706900	0.459400	0.944190
H11	H1	0.664700	0.493300	0.921200
O51	O5	0.438300	0.305600	0.040140
O61	O6	0.191400	0.351300	0.028610
O71	O7	0.349600	0.521300	0.993140
O81	O8	0.324700	0.513000	0.083140
H21	H2	0.312600	0.459500	0.106600
O91	O9	0.632300	0.360500	0.127940
O101	O10	0.605900	0.345000	0.392130
O111	O11	0.779800	0.196600	0.152600
O121	O12	0.423800	0.458500	0.365080
C11	C1	0.695500	0.295300	0.160100
C21	C2	0.663200	0.334900	0.212100
C31	C3	0.729700	0.270600	0.250100
H31	H3	0.800400	0.207600	0.243500
C41	C4	0.694700	0.296600	0.297400
H41	H4	0.744500	0.255800	0.322600
C51	C5	0.585900	0.383400	0.307700
C61	C6	0.518400	0.451900	0.269800
H51	H5	0.447000	0.513900	0.276500
C71	C7	0.557600	0.427900	0.222700
H61	H6	0.512600	0.474600	0.197500
C81	C8	0.533900	0.398900	0.358900
Zn31	Zn3	0.378720	0.672500	0.557960
Zn41	Zn4	0.565840	0.320210	0.460540
P31	P3	0.277720	0.421180	0.484730
P41	P4	0.673010	0.581550	0.534940
O131	O13	0.378400	0.300200	0.474810
O141	O14	0.300800	0.497500	0.532790
O151	O15	0.135200	0.366200	0.484060
O161	O16	0.293100	0.540600	0.444190
H71	H7	0.335300	0.506700	0.421200
O171	O17	0.561700	0.694400	0.540140
O181	O18	0.808600	0.648700	0.528610
O191	O19	0.650400	0.478700	0.493140
O201	O20	0.675300	0.487000	0.583140
H81	H8	0.687400	0.540500	0.606600
O211	O21	0.367700	0.639500	0.627940
O221	O22	0.394100	0.655000	0.892130
O231	O23	0.220200	0.803400	0.652600
O241	O24	0.576200	0.541500	0.865080
C91	C9	0.304500	0.704700	0.660100
C101	C10	0.336800	0.665100	0.712100
C111	C11	0.270300	0.729400	0.750100
H91	H9	0.199600	0.792400	0.743500
C121	C12	0.305300	0.703400	0.797400
H101	H10	0.255500	0.744200	0.822600
C131	C13	0.414100	0.616600	0.807700
C141	C14	0.481600	0.548100	0.769800
H111	H11	0.553000	0.486100	0.776500
C151	C15	0.442400	0.572100	0.722700
H121	H12	0.487400	0.525400	0.697500
C161	C16	0.466100	0.601100	0.858900
Zn51	Zn5	0.121280	0.172500	0.057960
Zn61	Zn6	0.934160	0.820210	0.960540
P51	P5	0.222280	0.921180	0.984730
P61	P6	0.826990	0.081550	0.034940
O251	O25	0.121600	0.800200	0.974810
O261	O26	0.199200	0.997500	0.032790
O271	O27	0.364800	0.866200	0.984060
O281	O28	0.206900	0.040600	0.944190
H131	H13	0.164700	0.006700	0.921200
O291	O29	0.938300	0.194400	0.040140
O301	O30	0.691400	0.148700	0.028610
O311	O31	0.849600	0.978700	0.993140
O321	O32	0.824700	0.987000	0.083140
H141	H14	0.812600	0.040500	0.106600
O331	O33	0.132300	0.139500	0.127940
O341	O34	0.105900	0.155000	0.392130
O351	O35	0.279800	0.303400	0.152600
O361	O36	0.923800	0.041500	0.365080
C171	C17	0.195500	0.204700	0.160100
C181	C18	0.163200	0.165100	0.212100
C191	C19	0.229700	0.229400	0.250100
H151	H15	0.300400	0.292400	0.243500
C201	C20	0.194700	0.203400	0.297400
H161	H16	0.244500	0.244200	0.322600
C211	C21	0.085900	0.116600	0.307700
C221	C22	0.018400	0.048100	0.269800
H171	H17	0.947000	0.986100	0.276500
C231	C23	0.057600	0.072100	0.222700
H181	H18	0.012600	0.025400	0.197500
C241	C24	0.033900	0.101100	0.358900
Zn71	Zn7	0.878720	0.827500	0.557960
Zn81	Zn8	0.065840	0.179790	0.460540
P71	P7	0.777720	0.078820	0.484730
P81	P8	0.173010	0.918450	0.534940
O371	O37	0.878400	0.199800	0.474810
O381	O38	0.800800	0.002500	0.532790
O391	O39	0.635200	0.133800	0.484060
O401	O40	0.793100	0.959400	0.444190
H191	H19	0.835300	0.993300	0.421200
O411	O41	0.061700	0.805600	0.540140
O421	O42	0.308600	0.851300	0.528610
O431	O43	0.150400	0.021300	0.493140
O441	O44	0.175300	0.013000	0.583140
H201	H20	0.187400	0.959500	0.606600
O451	O45	0.867700	0.860500	0.627940
O461	O46	0.894100	0.845000	0.892130
O471	O47	0.720200	0.696600	0.652600
O481	O48	0.076200	0.958500	0.865080
C251	C25	0.804500	0.795300	0.660100
C261	C26	0.836800	0.834900	0.712100
C271	C27	0.770300	0.770600	0.750100
H211	H21	0.699600	0.707600	0.743500
C281	C28	0.805300	0.796600	0.797400
H221	H22	0.755500	0.755800	0.822600
C291	C29	0.914100	0.883400	0.807700
C301	C30	0.981600	0.951900	0.769800
H231	H23	0.053000	0.013900	0.776500
C311	C31	0.942400	0.927900	0.722700
H241	H24	0.987400	0.974600	0.697500
C321	C32	0.966100	0.898900	0.858900
