data_ESURER03_freeONLY_PM
_symmetry_space_group_name_H-M	'P1'
_cell_length_a	17.852400
_cell_length_b	12.617700
_cell_length_c	11.188100
_cell_angle_alpha	90.000000
_cell_angle_beta	94.819900
_cell_angle_gamma	90.000000
_symmetry_Int_Tables_number 1

loop_
_symmetry_equiv_pos_as_xyz
'x,y,z'

loop_
_atom_site_label
_atom_site_type_symbol
_atom_site_fract_x
_atom_site_fract_y
_atom_site_fract_z
Co11	Co1	0.421340	0.559270	0.500550
N11	N1	0.873960	0.934700	0.162400
N21	N2	0.910920	0.983100	0.256000
N31	N3	0.877230	0.970300	0.356300
C11	C1	0.811800	0.887600	0.205300
C21	C2	0.814800	0.910900	0.328100
C31	C3	0.759800	0.873500	0.400700
H11	H1	0.762200	0.888300	0.483300
C41	C4	0.702700	0.814800	0.345200
H21	H2	0.665100	0.788500	0.391100
C51	C5	0.698400	0.792000	0.220300
C61	C6	0.753000	0.827400	0.149100
H31	H3	0.750800	0.811800	0.066700
C71	C7	0.633000	0.726600	0.168300
O11	O1	0.520290	0.580600	0.431900
H41	H4	0.545000	0.640000	0.467000
O21	O2	0.635840	0.690300	0.062900
O31	O3	0.580980	0.712400	0.235000
Co21	Co2	0.921340	0.059270	0.500550
N41	N4	0.373960	0.434700	0.162400
N51	N5	0.410920	0.483100	0.256000
N61	N6	0.377230	0.470300	0.356300
C81	C8	0.311800	0.387600	0.205300
C91	C9	0.314800	0.410900	0.328100
C101	C10	0.259800	0.373500	0.400700
H51	H5	0.262200	0.388300	0.483300
C111	C11	0.202700	0.314800	0.345200
H61	H6	0.165100	0.288500	0.391100
C121	C12	0.198400	0.292000	0.220300
C131	C13	0.253000	0.327400	0.149100
H71	H7	0.250800	0.311800	0.066700
C141	C14	0.133000	0.226600	0.168300
O41	O4	0.020290	0.080600	0.431900
H81	H8	0.045000	0.140000	0.467000
O51	O5	0.135840	0.190300	0.062900
O61	O6	0.080980	0.212400	0.235000
Co31	Co3	0.578660	0.559270	0.999450
N71	N7	0.126040	0.934700	0.337600
N81	N8	0.089080	0.983100	0.244000
N91	N9	0.122770	0.970300	0.143700
C151	C15	0.188200	0.887600	0.294700
C161	C16	0.185200	0.910900	0.171900
C171	C17	0.240200	0.873500	0.099300
H91	H9	0.237800	0.888300	0.016700
C181	C18	0.297300	0.814800	0.154800
H101	H10	0.334900	0.788500	0.108900
C191	C19	0.301600	0.792000	0.279700
C201	C20	0.247000	0.827400	0.350900
H111	H11	0.249200	0.811800	0.433300
C211	C21	0.367000	0.726600	0.331700
O71	O7	0.479710	0.580600	0.068100
H121	H12	0.455000	0.640000	0.033000
O81	O8	0.364160	0.690300	0.437100
O91	O9	0.419020	0.712400	0.265000
Co41	Co4	0.078660	0.059270	0.999450
N101	N10	0.626040	0.434700	0.337600
N111	N11	0.589080	0.483100	0.244000
N121	N12	0.622770	0.470300	0.143700
C221	C22	0.688200	0.387600	0.294700
C231	C23	0.685200	0.410900	0.171900
C241	C24	0.740200	0.373500	0.099300
H131	H13	0.737800	0.388300	0.016700
C251	C25	0.797300	0.314800	0.154800
H141	H14	0.834900	0.288500	0.108900
C261	C26	0.801600	0.292000	0.279700
C271	C27	0.747000	0.327400	0.350900
H151	H15	0.749200	0.311800	0.433300
C281	C28	0.867000	0.226600	0.331700
O101	O10	0.979710	0.080600	0.068100
H161	H16	0.955000	0.140000	0.033000
O111	O11	0.864160	0.190300	0.437100
O121	O12	0.919020	0.212400	0.265000
Co51	Co5	0.578660	0.440730	0.499450
N131	N13	0.126040	0.065300	0.837600
N141	N14	0.089080	0.016900	0.744000
N151	N15	0.122770	0.029700	0.643700
C291	C29	0.188200	0.112400	0.794700
C301	C30	0.185200	0.089100	0.671900
C311	C31	0.240200	0.126500	0.599300
H171	H17	0.237800	0.111700	0.516700
C321	C32	0.297300	0.185200	0.654800
H181	H18	0.334900	0.211500	0.608900
C331	C33	0.301600	0.208000	0.779700
C341	C34	0.247000	0.172600	0.850900
H191	H19	0.249200	0.188200	0.933300
C351	C35	0.367000	0.273400	0.831700
O131	O13	0.479710	0.419400	0.568100
H201	H20	0.455000	0.360000	0.533000
O141	O14	0.364160	0.309700	0.937100
O151	O15	0.419020	0.287600	0.765000
Co61	Co6	0.078660	0.940730	0.499450
N161	N16	0.626040	0.565300	0.837600
N171	N17	0.589080	0.516900	0.744000
N181	N18	0.622770	0.529700	0.643700
C361	C36	0.688200	0.612400	0.794700
C371	C37	0.685200	0.589100	0.671900
C381	C38	0.740200	0.626500	0.599300
H211	H21	0.737800	0.611700	0.516700
C391	C39	0.797300	0.685200	0.654800
H221	H22	0.834900	0.711500	0.608900
C401	C40	0.801600	0.708000	0.779700
C411	C41	0.747000	0.672600	0.850900
H231	H23	0.749200	0.688200	0.933300
C421	C42	0.867000	0.773400	0.831700
O161	O16	0.979710	0.919400	0.568100
H241	H24	0.955000	0.860000	0.533000
O171	O17	0.864160	0.809700	0.937100
O181	O18	0.919020	0.787600	0.765000
Co71	Co7	0.421340	0.440730	0.000550
N191	N19	0.873960	0.065300	0.662400
N201	N20	0.910920	0.016900	0.756000
N211	N21	0.877230	0.029700	0.856300
C431	C43	0.811800	0.112400	0.705300
C441	C44	0.814800	0.089100	0.828100
C451	C45	0.759800	0.126500	0.900700
H251	H25	0.762200	0.111700	0.983300
C461	C46	0.702700	0.185200	0.845200
H261	H26	0.665100	0.211500	0.891100
C471	C47	0.698400	0.208000	0.720300
C481	C48	0.753000	0.172600	0.649100
H271	H27	0.750800	0.188200	0.566700
C491	C49	0.633000	0.273400	0.668300
O191	O19	0.520290	0.419400	0.931900
H281	H28	0.545000	0.360000	0.967000
O201	O20	0.635840	0.309700	0.562900
O211	O21	0.580980	0.287600	0.735000
Co81	Co8	0.921340	0.940730	0.000550
N221	N22	0.373960	0.565300	0.662400
N231	N23	0.410920	0.516900	0.756000
N241	N24	0.377230	0.529700	0.856300
C501	C50	0.311800	0.612400	0.705300
C511	C51	0.314800	0.589100	0.828100
C521	C52	0.259800	0.626500	0.900700
H291	H29	0.262200	0.611700	0.983300
C531	C53	0.202700	0.685200	0.845200
H301	H30	0.165100	0.711500	0.891100
C541	C54	0.198400	0.708000	0.720300
C551	C55	0.253000	0.672600	0.649100
H311	H31	0.250800	0.688200	0.566700
C561	C56	0.133000	0.773400	0.668300
O221	O22	0.020290	0.919400	0.931900
H321	H32	0.045000	0.860000	0.967000
O231	O23	0.135840	0.809700	0.562900
O241	O24	0.080980	0.787600	0.735000
Co91	Co9	0.500000	0.595770	0.250000
Co101	Co10	0.000000	0.095770	0.250000
Co111	Co11	0.500000	0.404230	0.750000
Co121	Co12	0.000000	0.904230	0.750000
