data_ESURER01_freeONLY_PM
_symmetry_space_group_name_H-M	'P1'
_cell_length_a	17.849100
_cell_length_b	12.653400
_cell_length_c	11.198400
_cell_angle_alpha	90.000000
_cell_angle_beta	94.865000
_cell_angle_gamma	90.000000
_symmetry_Int_Tables_number 1

loop_
_symmetry_equiv_pos_as_xyz
'x,y,z'

loop_
_atom_site_label
_atom_site_type_symbol
_atom_site_fract_x
_atom_site_fract_y
_atom_site_fract_z
Co11	Co1	0.421230	0.559020	0.500440
N11	N1	0.873970	0.934800	0.162100
N21	N2	0.910730	0.983000	0.255800
N31	N3	0.877380	0.970500	0.355900
C11	C1	0.811700	0.887500	0.205100
C21	C2	0.814900	0.910400	0.327900
C31	C3	0.759800	0.873100	0.400300
H11	H1	0.762100	0.887900	0.482800
C41	C4	0.703000	0.814400	0.345000
H21	H2	0.665500	0.788000	0.391100
C51	C5	0.698300	0.791500	0.220200
C61	C6	0.752800	0.827000	0.149200
H31	H3	0.750500	0.811300	0.066900
C71	C7	0.633100	0.726000	0.168600
O11	O1	0.520090	0.580100	0.432000
H41	H4	0.543000	0.641000	0.465000
O21	O2	0.636170	0.689700	0.063300
O31	O3	0.581040	0.711700	0.234900
Co21	Co2	0.921230	0.059020	0.500440
N41	N4	0.373970	0.434800	0.162100
N51	N5	0.410730	0.483000	0.255800
N61	N6	0.377380	0.470500	0.355900
C81	C8	0.311700	0.387500	0.205100
C91	C9	0.314900	0.410400	0.327900
C101	C10	0.259800	0.373100	0.400300
H51	H5	0.262100	0.387900	0.482800
C111	C11	0.203000	0.314400	0.345000
H61	H6	0.165500	0.288000	0.391100
C121	C12	0.198300	0.291500	0.220200
C131	C13	0.252800	0.327000	0.149200
H71	H7	0.250500	0.311300	0.066900
C141	C14	0.133100	0.226000	0.168600
O41	O4	0.020090	0.080100	0.432000
H81	H8	0.043000	0.141000	0.465000
O51	O5	0.136170	0.189700	0.063300
O61	O6	0.081040	0.211700	0.234900
Co31	Co3	0.578770	0.559020	0.999560
N71	N7	0.126030	0.934800	0.337900
N81	N8	0.089270	0.983000	0.244200
N91	N9	0.122620	0.970500	0.144100
C151	C15	0.188300	0.887500	0.294900
C161	C16	0.185100	0.910400	0.172100
C171	C17	0.240200	0.873100	0.099700
H91	H9	0.237900	0.887900	0.017200
C181	C18	0.297000	0.814400	0.155000
H101	H10	0.334500	0.788000	0.108900
C191	C19	0.301700	0.791500	0.279800
C201	C20	0.247200	0.827000	0.350800
H111	H11	0.249500	0.811300	0.433100
C211	C21	0.366900	0.726000	0.331400
O71	O7	0.479910	0.580100	0.068000
H121	H12	0.457000	0.641000	0.035000
O81	O8	0.363830	0.689700	0.436700
O91	O9	0.418960	0.711700	0.265100
Co41	Co4	0.078770	0.059020	0.999560
N101	N10	0.626030	0.434800	0.337900
N111	N11	0.589270	0.483000	0.244200
N121	N12	0.622620	0.470500	0.144100
C221	C22	0.688300	0.387500	0.294900
C231	C23	0.685100	0.410400	0.172100
C241	C24	0.740200	0.373100	0.099700
H131	H13	0.737900	0.387900	0.017200
C251	C25	0.797000	0.314400	0.155000
H141	H14	0.834500	0.288000	0.108900
C261	C26	0.801700	0.291500	0.279800
C271	C27	0.747200	0.327000	0.350800
H151	H15	0.749500	0.311300	0.433100
C281	C28	0.866900	0.226000	0.331400
O101	O10	0.979910	0.080100	0.068000
H161	H16	0.957000	0.141000	0.035000
O111	O11	0.863830	0.189700	0.436700
O121	O12	0.918960	0.211700	0.265100
Co51	Co5	0.578770	0.440980	0.499560
N131	N13	0.126030	0.065200	0.837900
N141	N14	0.089270	0.017000	0.744200
N151	N15	0.122620	0.029500	0.644100
C291	C29	0.188300	0.112500	0.794900
C301	C30	0.185100	0.089600	0.672100
C311	C31	0.240200	0.126900	0.599700
H171	H17	0.237900	0.112100	0.517200
C321	C32	0.297000	0.185600	0.655000
H181	H18	0.334500	0.212000	0.608900
C331	C33	0.301700	0.208500	0.779800
C341	C34	0.247200	0.173000	0.850800
H191	H19	0.249500	0.188700	0.933100
C351	C35	0.366900	0.274000	0.831400
O131	O13	0.479910	0.419900	0.568000
H201	H20	0.457000	0.359000	0.535000
O141	O14	0.363830	0.310300	0.936700
O151	O15	0.418960	0.288300	0.765100
Co61	Co6	0.078770	0.940980	0.499560
N161	N16	0.626030	0.565200	0.837900
N171	N17	0.589270	0.517000	0.744200
N181	N18	0.622620	0.529500	0.644100
C361	C36	0.688300	0.612500	0.794900
C371	C37	0.685100	0.589600	0.672100
C381	C38	0.740200	0.626900	0.599700
H211	H21	0.737900	0.612100	0.517200
C391	C39	0.797000	0.685600	0.655000
H221	H22	0.834500	0.712000	0.608900
C401	C40	0.801700	0.708500	0.779800
C411	C41	0.747200	0.673000	0.850800
H231	H23	0.749500	0.688700	0.933100
C421	C42	0.866900	0.774000	0.831400
O161	O16	0.979910	0.919900	0.568000
H241	H24	0.957000	0.859000	0.535000
O171	O17	0.863830	0.810300	0.936700
O181	O18	0.918960	0.788300	0.765100
Co71	Co7	0.421230	0.440980	0.000440
N191	N19	0.873970	0.065200	0.662100
N201	N20	0.910730	0.017000	0.755800
N211	N21	0.877380	0.029500	0.855900
C431	C43	0.811700	0.112500	0.705100
C441	C44	0.814900	0.089600	0.827900
C451	C45	0.759800	0.126900	0.900300
H251	H25	0.762100	0.112100	0.982800
C461	C46	0.703000	0.185600	0.845000
H261	H26	0.665500	0.212000	0.891100
C471	C47	0.698300	0.208500	0.720200
C481	C48	0.752800	0.173000	0.649200
H271	H27	0.750500	0.188700	0.566900
C491	C49	0.633100	0.274000	0.668600
O191	O19	0.520090	0.419900	0.932000
H281	H28	0.543000	0.359000	0.965000
O201	O20	0.636170	0.310300	0.563300
O211	O21	0.581040	0.288300	0.734900
Co81	Co8	0.921230	0.940980	0.000440
N221	N22	0.373970	0.565200	0.662100
N231	N23	0.410730	0.517000	0.755800
N241	N24	0.377380	0.529500	0.855900
C501	C50	0.311700	0.612500	0.705100
C511	C51	0.314900	0.589600	0.827900
C521	C52	0.259800	0.626900	0.900300
H291	H29	0.262100	0.612100	0.982800
C531	C53	0.203000	0.685600	0.845000
H301	H30	0.165500	0.712000	0.891100
C541	C54	0.198300	0.708500	0.720200
C551	C55	0.252800	0.673000	0.649200
H311	H31	0.250500	0.688700	0.566900
C561	C56	0.133100	0.774000	0.668600
O221	O22	0.020090	0.919900	0.932000
H321	H32	0.043000	0.859000	0.965000
O231	O23	0.136170	0.810300	0.563300
O241	O24	0.081040	0.788300	0.734900
Co91	Co9	0.500000	0.595530	0.250000
Co101	Co10	0.000000	0.095530	0.250000
Co111	Co11	0.500000	0.404470	0.750000
Co121	Co12	0.000000	0.904470	0.750000
