data_ESUVAR_freeONLY_PM
_symmetry_space_group_name_H-M	'P1'
_cell_length_a	10.852000
_cell_length_b	10.912600
_cell_length_c	11.147800
_cell_angle_alpha	84.499000
_cell_angle_beta	88.211000
_cell_angle_gamma	66.360000
_symmetry_Int_Tables_number 1

loop_
_symmetry_equiv_pos_as_xyz
'x,y,z'

loop_
_atom_site_label
_atom_site_type_symbol
_atom_site_fract_x
_atom_site_fract_y
_atom_site_fract_z
Co11	Co1	0.095100	0.893300	0.252200
Co21	Co2	0.967700	0.867700	0.001200
Co31	Co3	0.849800	0.014100	0.484900
N11	N1	0.799000	0.943200	0.331900
N21	N2	0.879000	0.941400	0.238200
N31	N3	0.831000	0.914400	0.139800
N41	N4	0.076100	0.176600	0.163500
N51	N5	0.089800	0.087100	0.258100
N61	N6	0.107000	0.128900	0.361800
C11	C1	0.695000	0.916500	0.293600
C21	C2	0.715000	0.898300	0.170800
C31	C3	0.624000	0.872000	0.104600
H11	H1	0.635400	0.862900	0.022500
C41	C4	0.515000	0.860000	0.164600
H21	H2	0.454100	0.839700	0.122900
C51	C5	0.497000	0.878000	0.286300
C61	C6	0.585000	0.908200	0.354300
H31	H3	0.570800	0.921700	0.435600
C71	C7	0.381000	0.867000	0.343600
C81	C8	0.085000	0.284400	0.209300
C91	C9	0.104500	0.254500	0.333000
C101	C10	0.118000	0.343300	0.407800
H41	H4	0.130700	0.322000	0.490500
C111	C11	0.111000	0.465800	0.352600
H51	H5	0.119100	0.528000	0.399700
C121	C12	0.092000	0.497400	0.229700
C131	C13	0.078000	0.408100	0.155300
H61	H6	0.065600	0.429900	0.072700
C141	C14	0.085000	0.631300	0.176400
O11	O1	0.096900	0.927100	0.067100
H71	H7	0.193000	0.873200	0.072800
O21	O2	0.057000	0.896000	0.428800
H81	H8	0.055800	0.822200	0.480200
O31	O3	0.350000	0.904500	0.450400
O41	O4	0.305000	0.823000	0.284500
O51	O5	0.043000	0.672800	0.068300
O61	O6	0.114000	0.698500	0.248400
Co41	Co4	0.904900	0.106700	0.747800
Co51	Co5	0.032300	0.132300	0.998800
Co61	Co6	0.150200	0.985900	0.515100
N71	N7	0.201000	0.056800	0.668100
N81	N8	0.121000	0.058600	0.761800
N91	N9	0.169000	0.085600	0.860200
N101	N10	0.923900	0.823400	0.836500
N111	N11	0.910200	0.912900	0.741900
N121	N12	0.893000	0.871100	0.638200
C151	C15	0.305000	0.083500	0.706400
C161	C16	0.285000	0.101700	0.829200
C171	C17	0.376000	0.128000	0.895400
H91	H9	0.364600	0.137100	0.977500
C181	C18	0.485000	0.140000	0.835400
H101	H10	0.545900	0.160300	0.877100
C191	C19	0.503000	0.122000	0.713700
C201	C20	0.415000	0.091800	0.645700
H111	H11	0.429200	0.078300	0.564400
C211	C21	0.619000	0.133000	0.656400
C221	C22	0.915000	0.715600	0.790700
C231	C23	0.895500	0.745500	0.667000
C241	C24	0.882000	0.656700	0.592200
H121	H12	0.869300	0.678000	0.509500
C251	C25	0.889000	0.534200	0.647400
H131	H13	0.880900	0.472000	0.600300
C261	C26	0.908000	0.502600	0.770300
C271	C27	0.922000	0.591900	0.844700
H141	H14	0.934400	0.570100	0.927300
C281	C28	0.915000	0.368700	0.823600
O71	O7	0.903100	0.072900	0.932900
H151	H15	0.807000	0.126800	0.927200
O81	O8	0.943000	0.104000	0.571200
H161	H16	0.944200	0.177800	0.519800
O91	O9	0.650000	0.095500	0.549600
O101	O10	0.695000	0.177000	0.715500
O111	O11	0.957000	0.327200	0.931700
O121	O12	0.886000	0.301500	0.751600
