data_ETAXIH_freeONLY_PM
_symmetry_space_group_name_H-M	'P1'
_cell_length_a	14.347000
_cell_length_b	14.347000
_cell_length_c	20.408000
_cell_angle_alpha	90.000000
_cell_angle_beta	90.000000
_cell_angle_gamma	120.000000
_symmetry_Int_Tables_number 1

loop_
_symmetry_equiv_pos_as_xyz
'x,y,z'

loop_
_atom_site_label
_atom_site_type_symbol
_atom_site_fract_x
_atom_site_fract_y
_atom_site_fract_z
Zn11	Zn1	0.773670	0.279180	0.994200
Zn21	Zn2	0.505510	0.226330	0.994200
Zn31	Zn3	0.720820	0.494490	0.994200
Zn41	Zn4	0.494490	0.720820	0.505800
Zn51	Zn5	0.279180	0.773670	0.505800
Zn61	Zn6	0.226330	0.505510	0.505800
Zn71	Zn7	0.226330	0.720820	0.005800
Zn81	Zn8	0.494490	0.773670	0.005800
Zn91	Zn9	0.279180	0.505510	0.005800
Zn101	Zn10	0.505510	0.279180	0.494200
Zn111	Zn11	0.720820	0.226330	0.494200
Zn121	Zn12	0.773670	0.494490	0.494200
Zn131	Zn13	0.637500	0.000000	0.750000
Zn141	Zn14	0.362500	0.362500	0.750000
Zn151	Zn15	0.000000	0.637500	0.750000
Zn161	Zn16	0.362500	0.000000	0.250000
Zn171	Zn17	0.637500	0.637500	0.250000
Zn181	Zn18	0.000000	0.362500	0.250000
H11	H1	0.600500	0.982800	0.122100
H21	H2	0.693100	0.102600	0.115100
H31	H3	0.762200	0.998400	0.162300
H41	H4	0.723300	0.921200	0.101600
H51	H5	0.852300	0.069500	0.035900
H61	H6	0.906600	0.033600	0.089200
H71	H7	0.896700	0.136400	0.100600
H81	H8	0.382300	0.399500	0.122100
H91	H9	0.409500	0.306900	0.115100
H101	H10	0.236200	0.237800	0.162300
H111	H11	0.197900	0.276700	0.101600
H121	H12	0.217200	0.147700	0.035900
H131	H13	0.127000	0.093400	0.089200
H141	H14	0.239700	0.103300	0.100600
H151	H15	0.017200	0.617700	0.122100
H161	H16	0.897400	0.590500	0.115100
H171	H17	0.001600	0.763800	0.162300
H181	H18	0.078800	0.802100	0.101600
H191	H19	0.930500	0.782800	0.035900
H201	H20	0.966400	0.873000	0.089200
H211	H21	0.863600	0.760300	0.100600
H221	H22	0.617700	0.017200	0.377900
H231	H23	0.590500	0.897400	0.384900
H241	H24	0.763800	0.001600	0.337700
H251	H25	0.802100	0.078800	0.398400
H261	H26	0.782800	0.930500	0.464100
H271	H27	0.873000	0.966400	0.410800
H281	H28	0.760300	0.863600	0.399400
H291	H29	0.982800	0.600500	0.377900
H301	H30	0.102600	0.693100	0.384900
H311	H31	0.998400	0.762200	0.337700
H321	H32	0.921200	0.723300	0.398400
H331	H33	0.069500	0.852300	0.464100
H341	H34	0.033600	0.906600	0.410800
H351	H35	0.136400	0.896700	0.399400
H361	H36	0.399500	0.382300	0.377900
H371	H37	0.306900	0.409500	0.384900
H381	H38	0.237800	0.236200	0.337700
H391	H39	0.276700	0.197900	0.398400
H401	H40	0.147700	0.217200	0.464100
H411	H41	0.093400	0.127000	0.410800
H421	H42	0.103300	0.239700	0.399400
H431	H43	0.399500	0.017200	0.877900
H441	H44	0.306900	0.897400	0.884900
H451	H45	0.237800	0.001600	0.837700
H461	H46	0.276700	0.078800	0.898400
H471	H47	0.147700	0.930500	0.964100
H481	H48	0.093400	0.966400	0.910800
H491	H49	0.103300	0.863600	0.899400
H501	H50	0.617700	0.600500	0.877900
H511	H51	0.590500	0.693100	0.884900
H521	H52	0.763800	0.762200	0.837700
H531	H53	0.802100	0.723300	0.898400
H541	H54	0.782800	0.852300	0.964100
H551	H55	0.873000	0.906600	0.910800
H561	H56	0.760300	0.896700	0.899400
H571	H57	0.982800	0.382300	0.877900
H581	H58	0.102600	0.409500	0.884900
H591	H59	0.998400	0.236200	0.837700
H601	H60	0.921200	0.197900	0.898400
H611	H61	0.069500	0.217200	0.964100
H621	H62	0.033600	0.127000	0.910800
H631	H63	0.136400	0.239700	0.899400
H641	H64	0.382300	0.982800	0.622100
H651	H65	0.409500	0.102600	0.615100
H661	H66	0.236200	0.998400	0.662300
H671	H67	0.197900	0.921200	0.601600
H681	H68	0.217200	0.069500	0.535900
H691	H69	0.127000	0.033600	0.589200
H701	H70	0.239700	0.136400	0.600600
H711	H71	0.017200	0.399500	0.622100
H721	H72	0.897400	0.306900	0.615100
H731	H73	0.001600	0.237800	0.662300
H741	H74	0.078800	0.276700	0.601600
H751	H75	0.930500	0.147700	0.535900
H761	H76	0.966400	0.093400	0.589200
H771	H77	0.863600	0.103300	0.600600
H781	H78	0.600500	0.617700	0.622100
H791	H79	0.693100	0.590500	0.615100
H801	H80	0.762200	0.763800	0.662300
H811	H81	0.723300	0.802100	0.601600
H821	H82	0.852300	0.782800	0.535900
H831	H83	0.906600	0.873000	0.589200
H841	H84	0.896700	0.760300	0.600600
C11	C1	0.521500	0.882500	0.876900
C21	C2	0.697400	0.160600	0.869400
C31	C3	0.643900	0.026400	0.027100
C41	C4	0.588000	0.966300	0.926800
C51	C5	0.657800	0.079700	0.923300
C61	C6	0.666900	0.030000	0.099200
C71	C7	0.752000	0.995000	0.115200
C81	C8	0.862300	0.065300	0.082100
C91	C9	0.361000	0.478500	0.876900
C101	C10	0.463200	0.302600	0.869400
C111	C11	0.382500	0.356100	0.027100
C121	C12	0.378300	0.412000	0.926800
C131	C13	0.421900	0.342200	0.923300
C141	C14	0.363100	0.333100	0.099200
C151	C15	0.243000	0.248000	0.115200
C161	C16	0.203000	0.137700	0.082100
C171	C17	0.117500	0.639000	0.876900
C181	C18	0.839400	0.536800	0.869400
C191	C19	0.973600	0.617500	0.027100
C201	C20	0.033700	0.621700	0.926800
C211	C21	0.920300	0.578100	0.923300
C221	C22	0.970000	0.636900	0.099200
C231	C23	0.005000	0.757000	0.115200
C241	C24	0.934700	0.797000	0.082100
C251	C25	0.639000	0.117500	0.623100
C261	C26	0.536800	0.839400	0.630600
C271	C27	0.617500	0.973600	0.472900
C281	C28	0.621700	0.033700	0.573200
C291	C29	0.578100	0.920300	0.576700
C301	C30	0.636900	0.970000	0.400800
C311	C31	0.757000	0.005000	0.384800
C321	C32	0.797000	0.934700	0.417900
C331	C33	0.882500	0.521500	0.623100
C341	C34	0.160600	0.697400	0.630600
C351	C35	0.026400	0.643900	0.472900
C361	C36	0.966300	0.588000	0.573200
C371	C37	0.079700	0.657800	0.576700
C381	C38	0.030000	0.666900	0.400800
C391	C39	0.995000	0.752000	0.384800
C401	C40	0.065300	0.862300	0.417900
C411	C41	0.478500	0.361000	0.623100
C421	C42	0.302600	0.463200	0.630600
C431	C43	0.356100	0.382500	0.472900
C441	C44	0.412000	0.378300	0.573200
C451	C45	0.342200	0.421900	0.576700
C461	C46	0.333100	0.363100	0.400800
C471	C47	0.248000	0.243000	0.384800
C481	C48	0.137700	0.203000	0.417900
C491	C49	0.478500	0.117500	0.123100
C501	C50	0.302600	0.839400	0.130600
C511	C51	0.356100	0.973600	0.972900
C521	C52	0.412000	0.033700	0.073200
C531	C53	0.342200	0.920300	0.076700
C541	C54	0.333100	0.970000	0.900800
C551	C55	0.248000	0.005000	0.884800
C561	C56	0.137700	0.934700	0.917900
C571	C57	0.639000	0.521500	0.123100
C581	C58	0.536800	0.697400	0.130600
C591	C59	0.617500	0.643900	0.972900
C601	C60	0.621700	0.588000	0.073200
C611	C61	0.578100	0.657800	0.076700
C621	C62	0.636900	0.666900	0.900800
C631	C63	0.757000	0.752000	0.884800
C641	C64	0.797000	0.862300	0.917900
C651	C65	0.882500	0.361000	0.123100
C661	C66	0.160600	0.463200	0.130600
C671	C67	0.026400	0.382500	0.972900
C681	C68	0.966300	0.378300	0.073200
C691	C69	0.079700	0.421900	0.076700
C701	C70	0.030000	0.363100	0.900800
C711	C71	0.995000	0.243000	0.884800
C721	C72	0.065300	0.203000	0.917900
C731	C73	0.361000	0.882500	0.376900
C741	C74	0.463200	0.160600	0.369400
C751	C75	0.382500	0.026400	0.527100
C761	C76	0.378300	0.966300	0.426800
C771	C77	0.421900	0.079700	0.423300
C781	C78	0.363100	0.030000	0.599200
C791	C79	0.243000	0.995000	0.615200
C801	C80	0.203000	0.065300	0.582100
C811	C81	0.117500	0.478500	0.376900
C821	C82	0.839400	0.302600	0.369400
C831	C83	0.973600	0.356100	0.527100
C841	C84	0.033700	0.412000	0.426800
C851	C85	0.920300	0.342200	0.423300
C861	C86	0.970000	0.333100	0.599200
C871	C87	0.005000	0.248000	0.615200
C881	C88	0.934700	0.137700	0.582100
C891	C89	0.521500	0.639000	0.376900
C901	C90	0.697400	0.536800	0.369400
C911	C91	0.643900	0.617500	0.527100
C921	C92	0.588000	0.621700	0.426800
C931	C93	0.657800	0.578100	0.423300
C941	C94	0.666900	0.636900	0.599200
C951	C95	0.752000	0.757000	0.615200
C961	C96	0.862300	0.797000	0.582100
N11	N1	0.689100	0.115200	0.987400
N21	N2	0.580800	0.935200	0.992200
N31	N3	0.426100	0.310900	0.987400
N41	N4	0.354400	0.419200	0.992200
N51	N5	0.884800	0.573900	0.987400
N61	N6	0.064800	0.645600	0.992200
N71	N7	0.573900	0.884800	0.512600
N81	N8	0.645600	0.064800	0.507800
N91	N9	0.115200	0.689100	0.512600
N101	N10	0.935200	0.580800	0.507800
N111	N11	0.310900	0.426100	0.512600
N121	N12	0.419200	0.354400	0.507800
N131	N13	0.310900	0.884800	0.012600
N141	N14	0.419200	0.064800	0.007800
N151	N15	0.573900	0.689100	0.012600
N161	N16	0.645600	0.580800	0.007800
N171	N17	0.115200	0.426100	0.012600
N181	N18	0.935200	0.354400	0.007800
N191	N19	0.426100	0.115200	0.487400
N201	N20	0.354400	0.935200	0.492200
N211	N21	0.884800	0.310900	0.487400
N221	N22	0.064800	0.419200	0.492200
N231	N23	0.689100	0.573900	0.487400
N241	N24	0.580800	0.645600	0.492200
O11	O1	0.455900	0.787500	0.901000
O21	O2	0.526600	0.902800	0.816700
O31	O3	0.760200	0.260600	0.887800
O41	O4	0.674800	0.134400	0.810000
O51	O5	0.331600	0.544100	0.901000
O61	O6	0.376200	0.473400	0.816700
O71	O7	0.500400	0.239800	0.887800
O81	O8	0.459600	0.325200	0.810000
O91	O9	0.212500	0.668400	0.901000
O101	O10	0.097200	0.623800	0.816700
O111	O11	0.739400	0.499600	0.887800
O121	O12	0.865600	0.540400	0.810000
O131	O13	0.668400	0.212500	0.599000
O141	O14	0.623800	0.097200	0.683300
O151	O15	0.499600	0.739400	0.612200
O161	O16	0.540400	0.865600	0.690000
O171	O17	0.787500	0.455900	0.599000
O181	O18	0.902800	0.526600	0.683300
O191	O19	0.260600	0.760200	0.612200
O201	O20	0.134400	0.674800	0.690000
O211	O21	0.544100	0.331600	0.599000
O221	O22	0.473400	0.376200	0.683300
O231	O23	0.239800	0.500400	0.612200
O241	O24	0.325200	0.459600	0.690000
O251	O25	0.544100	0.212500	0.099000
O261	O26	0.473400	0.097200	0.183300
O271	O27	0.239800	0.739400	0.112200
O281	O28	0.325200	0.865600	0.190000
O291	O29	0.668400	0.455900	0.099000
O301	O30	0.623800	0.526600	0.183300
O311	O31	0.499600	0.760200	0.112200
O321	O32	0.540400	0.674800	0.190000
O331	O33	0.787500	0.331600	0.099000
O341	O34	0.902800	0.376200	0.183300
O351	O35	0.260600	0.500400	0.112200
O361	O36	0.134400	0.459600	0.190000
O371	O37	0.331600	0.787500	0.401000
O381	O38	0.376200	0.902800	0.316700
O391	O39	0.500400	0.260600	0.387800
O401	O40	0.459600	0.134400	0.310000
O411	O41	0.212500	0.544100	0.401000
O421	O42	0.097200	0.473400	0.316700
O431	O43	0.739400	0.239800	0.387800
O441	O44	0.865600	0.325200	0.310000
O451	O45	0.455900	0.668400	0.401000
O461	O46	0.526600	0.623800	0.316700
O471	O47	0.760200	0.499600	0.387800
O481	O48	0.674800	0.540400	0.310000
O491	O49	0.666670	0.333340	0.979100
O501	O50	0.333330	0.666660	0.520900
O511	O51	0.333330	0.666660	0.020900
O521	O52	0.666670	0.333340	0.479100
