data_ETECOX_freeONLY_PM
_symmetry_space_group_name_H-M	'P1'
_cell_length_a	26.076700
_cell_length_b	26.076700
_cell_length_c	8.946700
_cell_angle_alpha	90.000000
_cell_angle_beta	90.000000
_cell_angle_gamma	90.000000
_symmetry_Int_Tables_number 1

loop_
_symmetry_equiv_pos_as_xyz
'x,y,z'

loop_
_atom_site_label
_atom_site_type_symbol
_atom_site_fract_x
_atom_site_fract_y
_atom_site_fract_z
In11	In1	0.274330	0.142600	0.683620
S11	S1	0.388410	0.191160	0.642790
O11	O1	0.203880	0.104740	0.738600
O21	O2	0.142210	0.055470	0.646300
O31	O3	0.241150	0.118430	0.461000
O41	O4	0.182600	0.063490	0.373400
O51	O5	0.275660	0.202580	0.863900
O61	O6	0.267350	0.286550	0.903800
O71	O7	0.337330	0.176390	0.578100
O81	O8	0.382440	0.235380	0.737500
O91	O9	0.406870	0.147260	0.731100
O101	O10	0.420830	0.200980	0.512700
C11	C1	0.181220	0.082080	0.632300
C21	C2	0.203630	0.088710	0.473900
C31	C3	0.262490	0.246980	0.826600
In21	In2	0.774330	0.642600	0.183620
S21	S2	0.888410	0.691160	0.142790
O111	O11	0.703880	0.604740	0.238600
O121	O12	0.642210	0.555470	0.146300
O131	O13	0.741150	0.618430	0.961000
O141	O14	0.682600	0.563490	0.873400
O151	O15	0.775660	0.702580	0.363900
O161	O16	0.767350	0.786550	0.403800
O171	O17	0.837330	0.676390	0.078100
O181	O18	0.882440	0.735380	0.237500
O191	O19	0.906870	0.647260	0.231100
O201	O20	0.920830	0.700980	0.012700
C41	C4	0.681220	0.582080	0.132300
C51	C5	0.703630	0.588710	0.973900
C61	C6	0.762490	0.746980	0.326600
In31	In3	0.225670	0.857400	0.183620
S31	S3	0.111590	0.808840	0.142790
O211	O21	0.296120	0.895260	0.238600
O221	O22	0.357790	0.944530	0.146300
O231	O23	0.258850	0.881570	0.961000
O241	O24	0.317400	0.936510	0.873400
O251	O25	0.224340	0.797420	0.363900
O261	O26	0.232650	0.713450	0.403800
O271	O27	0.162670	0.823610	0.078100
O281	O28	0.117560	0.764620	0.237500
O291	O29	0.093130	0.852740	0.231100
O301	O30	0.079170	0.799020	0.012700
C71	C7	0.318780	0.917920	0.132300
C81	C8	0.296370	0.911290	0.973900
C91	C9	0.237510	0.753020	0.326600
In41	In4	0.725670	0.357400	0.683620
S41	S4	0.611590	0.308840	0.642790
O311	O31	0.796120	0.395260	0.738600
O321	O32	0.857790	0.444530	0.646300
O331	O33	0.758850	0.381570	0.461000
O341	O34	0.817400	0.436510	0.373400
O351	O35	0.724340	0.297420	0.863900
O361	O36	0.732650	0.213450	0.903800
O371	O37	0.662670	0.323610	0.578100
O381	O38	0.617560	0.264620	0.737500
O391	O39	0.593130	0.352740	0.731100
O401	O40	0.579170	0.299020	0.512700
C101	C10	0.818780	0.417920	0.632300
C111	C11	0.796370	0.411290	0.473900
C121	C12	0.737510	0.253020	0.826600
In51	In5	0.607400	0.524330	0.933620
S51	S5	0.558840	0.638410	0.892790
O411	O41	0.645260	0.453880	0.988600
O421	O42	0.694530	0.392210	0.896300
O431	O43	0.631570	0.491150	0.711000
O441	O44	0.686510	0.432600	0.623400
O451	O45	0.547420	0.525660	0.113900
O461	O46	0.463450	0.517350	0.153800
O471	O47	0.573610	0.587330	0.828100
O481	O48	0.514620	0.632440	0.987500
O491	O49	0.602740	0.656870	0.981100
O501	O50	0.549020	0.670830	0.762700
C131	C13	0.667920	0.431220	0.882300
C141	C14	0.661290	0.453630	0.723900
C151	C15	0.503020	0.512490	0.076600
In61	In6	0.107400	0.024330	0.433620
S61	S6	0.058840	0.138410	0.392790
O511	O51	0.145260	0.953880	0.488600
O521	O52	0.194530	0.892210	0.396300
O531	O53	0.131570	0.991150	0.211000
O541	O54	0.186510	0.932600	0.123400
O551	O55	0.047420	0.025660	0.613900
O561	O56	0.963450	0.017350	0.653800
O571	O57	0.073610	0.087330	0.328100
O581	O58	0.014620	0.132440	0.487500
O591	O59	0.102740	0.156870	0.481100
O601	O60	0.049020	0.170830	0.262700
C161	C16	0.167920	0.931220	0.382300
C171	C17	0.161290	0.953630	0.223900
C181	C18	0.003020	0.012490	0.576600
In71	In7	0.892600	0.475670	0.433620
S71	S7	0.941160	0.361590	0.392790
O611	O61	0.854740	0.546120	0.488600
O621	O62	0.805470	0.607790	0.396300
O631	O63	0.868430	0.508850	0.211000
O641	O64	0.813490	0.567400	0.123400
O651	O65	0.952580	0.474340	0.613900
O661	O66	0.036550	0.482650	0.653800
O671	O67	0.926390	0.412670	0.328100
O681	O68	0.985380	0.367560	0.487500
O691	O69	0.897260	0.343130	0.481100
O701	O70	0.950980	0.329170	0.262700
C191	C19	0.832080	0.568780	0.382300
C201	C20	0.838710	0.546370	0.223900
C211	C21	0.996980	0.487510	0.576600
In81	In8	0.392600	0.975670	0.933620
S81	S8	0.441160	0.861590	0.892790
O711	O71	0.354740	0.046120	0.988600
O721	O72	0.305470	0.107790	0.896300
O731	O73	0.368430	0.008850	0.711000
O741	O74	0.313490	0.067400	0.623400
O751	O75	0.452580	0.974340	0.113900
O761	O76	0.536550	0.982650	0.153800
O771	O77	0.426390	0.912670	0.828100
O781	O78	0.485380	0.867560	0.987500
O791	O79	0.397260	0.843130	0.981100
O801	O80	0.450980	0.829170	0.762700
C221	C22	0.332080	0.068780	0.882300
C231	C23	0.338710	0.046370	0.723900
C241	C24	0.496980	0.987510	0.076600
In91	In9	0.725670	0.857400	0.316380
S91	S9	0.611590	0.808840	0.357210
O811	O81	0.796120	0.895260	0.261400
O821	O82	0.857790	0.944530	0.353700
O831	O83	0.758850	0.881570	0.539000
O841	O84	0.817400	0.936510	0.626600
O851	O85	0.724340	0.797420	0.136100
O861	O86	0.732650	0.713450	0.096200
O871	O87	0.662670	0.823610	0.421900
O881	O88	0.617560	0.764620	0.262500
O891	O89	0.593130	0.852740	0.268900
O901	O90	0.579170	0.799020	0.487300
C251	C25	0.818780	0.917920	0.367700
C261	C26	0.796370	0.911290	0.526100
C271	C27	0.737510	0.753020	0.173400
In101	In10	0.225670	0.357400	0.816380
S101	S10	0.111590	0.308840	0.857210
O911	O91	0.296120	0.395260	0.761400
O921	O92	0.357790	0.444530	0.853700
O931	O93	0.258850	0.381570	0.039000
O941	O94	0.317400	0.436510	0.126600
O951	O95	0.224340	0.297420	0.636100
O961	O96	0.232650	0.213450	0.596200
O971	O97	0.162670	0.323610	0.921900
O981	O98	0.117560	0.264620	0.762500
O991	O99	0.093130	0.352740	0.768900
O1001	O100	0.079170	0.299020	0.987300
C281	C28	0.318780	0.417920	0.867700
C291	C29	0.296370	0.411290	0.026100
C301	C30	0.237510	0.253020	0.673400
In111	In11	0.774330	0.142600	0.816380
S111	S11	0.888410	0.191160	0.857210
O1011	O101	0.703880	0.104740	0.761400
O1021	O102	0.642210	0.055470	0.853700
O1031	O103	0.741150	0.118430	0.039000
O1041	O104	0.682600	0.063490	0.126600
O1051	O105	0.775660	0.202580	0.636100
O1061	O106	0.767350	0.286550	0.596200
O1071	O107	0.837330	0.176390	0.921900
O1081	O108	0.882440	0.235380	0.762500
O1091	O109	0.906870	0.147260	0.768900
O1101	O110	0.920830	0.200980	0.987300
C311	C31	0.681220	0.082080	0.867700
C321	C32	0.703630	0.088710	0.026100
C331	C33	0.762490	0.246980	0.673400
In121	In12	0.274330	0.642600	0.316380
S121	S12	0.388410	0.691160	0.357210
O1111	O111	0.203880	0.604740	0.261400
O1121	O112	0.142210	0.555470	0.353700
O1131	O113	0.241150	0.618430	0.539000
O1141	O114	0.182600	0.563490	0.626600
O1151	O115	0.275660	0.702580	0.136100
O1161	O116	0.267350	0.786550	0.096200
O1171	O117	0.337330	0.676390	0.421900
O1181	O118	0.382440	0.735380	0.262500
O1191	O119	0.406870	0.647260	0.268900
O1201	O120	0.420830	0.700980	0.487300
C341	C34	0.181220	0.582080	0.367700
C351	C35	0.203630	0.588710	0.526100
C361	C36	0.262490	0.746980	0.173400
In131	In13	0.392600	0.475670	0.066380
S131	S13	0.441160	0.361590	0.107210
O1211	O121	0.354740	0.546120	0.011400
O1221	O122	0.305470	0.607790	0.103700
O1231	O123	0.368430	0.508850	0.289000
O1241	O124	0.313490	0.567400	0.376600
O1251	O125	0.452580	0.474340	0.886100
O1261	O126	0.536550	0.482650	0.846200
O1271	O127	0.426390	0.412670	0.171900
O1281	O128	0.485380	0.367560	0.012500
O1291	O129	0.397260	0.343130	0.018900
O1301	O130	0.450980	0.329170	0.237300
C371	C37	0.332080	0.568780	0.117700
C381	C38	0.338710	0.546370	0.276100
C391	C39	0.496980	0.487510	0.923400
In141	In14	0.892600	0.975670	0.566380
S141	S14	0.941160	0.861590	0.607210
O1311	O131	0.854740	0.046120	0.511400
O1321	O132	0.805470	0.107790	0.603700
O1331	O133	0.868430	0.008850	0.789000
O1341	O134	0.813490	0.067400	0.876600
O1351	O135	0.952580	0.974340	0.386100
O1361	O136	0.036550	0.982650	0.346200
O1371	O137	0.926390	0.912670	0.671900
O1381	O138	0.985380	0.867560	0.512500
O1391	O139	0.897260	0.843130	0.518900
O1401	O140	0.950980	0.829170	0.737300
C401	C40	0.832080	0.068780	0.617700
C411	C41	0.838710	0.046370	0.776100
C421	C42	0.996980	0.987510	0.423400
In151	In15	0.107400	0.524330	0.566380
S151	S15	0.058840	0.638410	0.607210
O1411	O141	0.145260	0.453880	0.511400
O1421	O142	0.194530	0.392210	0.603700
O1431	O143	0.131570	0.491150	0.789000
O1441	O144	0.186510	0.432600	0.876600
O1451	O145	0.047420	0.525660	0.386100
O1461	O146	0.963450	0.517350	0.346200
O1471	O147	0.073610	0.587330	0.671900
O1481	O148	0.014620	0.632440	0.512500
O1491	O149	0.102740	0.656870	0.518900
O1501	O150	0.049020	0.670830	0.737300
C431	C43	0.167920	0.431220	0.617700
C441	C44	0.161290	0.453630	0.776100
C451	C45	0.003020	0.512490	0.423400
In161	In16	0.607400	0.024330	0.066380
S161	S16	0.558840	0.138410	0.107210
O1511	O151	0.645260	0.953880	0.011400
O1521	O152	0.694530	0.892210	0.103700
O1531	O153	0.631570	0.991150	0.289000
O1541	O154	0.686510	0.932600	0.376600
O1551	O155	0.547420	0.025660	0.886100
O1561	O156	0.463450	0.017350	0.846200
O1571	O157	0.573610	0.087330	0.171900
O1581	O158	0.514620	0.132440	0.012500
O1591	O159	0.602740	0.156870	0.018900
O1601	O160	0.549020	0.170830	0.237300
C461	C46	0.667920	0.931220	0.117700
C471	C47	0.661290	0.953630	0.276100
C481	C48	0.503020	0.012490	0.923400
