data_ETEJOD01_freeONLY_PM
_symmetry_space_group_name_H-M	'P1'
_cell_length_a	10.419500
_cell_length_b	11.174300
_cell_length_c	12.569000
_cell_angle_alpha	102.198000
_cell_angle_beta	108.537000
_cell_angle_gamma	98.944000
_symmetry_Int_Tables_number 1

loop_
_symmetry_equiv_pos_as_xyz
'x,y,z'

loop_
_atom_site_label
_atom_site_type_symbol
_atom_site_fract_x
_atom_site_fract_y
_atom_site_fract_z
Nd11	Nd1	0.398290	0.955600	0.319270
Nd21	Nd2	0.601710	0.044400	0.680730
H11	H1	0.568700	0.373600	0.706900
H21	H2	0.239100	0.102200	0.747400
H31	H3	0.351600	0.083000	0.971900
H41	H4	0.336500	0.221300	0.011200
H51	H5	0.427900	0.191100	0.935800
H61	H6	0.706200	0.310300	0.192500
H71	H7	0.662400	0.292700	0.057700
H81	H8	0.597100	0.379200	0.130300
H91	H9	0.494300	0.357700	0.335100
H101	H10	0.101400	0.938600	0.365100
H111	H11	0.867000	0.181600	0.115800
H121	H12	0.909200	0.129300	0.009100
H131	H13	0.876900	0.040800	0.083700
H141	H14	0.150700	0.311700	0.125300
H151	H15	0.068300	0.345300	0.207900
H161	H16	0.215500	0.317800	0.257800
H171	H17	0.594000	0.165000	0.247000
H181	H18	0.074000	0.984000	0.179000
H191	H19	0.431300	0.626400	0.293100
H201	H20	0.760900	0.897800	0.252600
H211	H21	0.648400	0.917000	0.028100
H221	H22	0.663500	0.778700	0.988800
H231	H23	0.572100	0.808900	0.064200
H241	H24	0.293800	0.689700	0.807500
H251	H25	0.337600	0.707300	0.942300
H261	H26	0.402900	0.620800	0.869700
H271	H27	0.505700	0.642300	0.664900
H281	H28	0.898600	0.061400	0.634900
H291	H29	0.133000	0.818400	0.884200
H301	H30	0.090800	0.870700	0.990900
H311	H31	0.123100	0.959200	0.916300
H321	H32	0.849300	0.688300	0.874700
H331	H33	0.931700	0.654700	0.792100
H341	H34	0.784500	0.682200	0.742200
H351	H35	0.406000	0.835000	0.753000
H361	H36	0.926000	0.016000	0.821000
C11	C1	0.528100	0.121500	0.170400
C21	C2	0.398700	0.170600	0.996300
C31	C3	0.630500	0.303700	0.122000
C41	C4	0.545600	0.251400	0.506100
C51	C5	0.524900	0.381700	0.505700
C61	C6	0.496300	0.414800	0.401600
C71	C7	0.529200	0.468500	0.604900
C81	C8	0.138800	0.517300	0.011000
C91	C9	0.956500	0.593100	0.063600
C101	C10	0.095800	0.611000	0.074400
C111	C11	0.200100	0.730800	0.153400
C121	C12	0.297400	0.033800	0.572900
C131	C13	0.144300	0.015700	0.536200
C141	C14	0.082400	0.052100	0.618400
C151	C15	0.060500	0.963600	0.419200
C161	C16	0.113600	0.072900	0.203500
C171	C17	0.916500	0.125400	0.086400
C181	C18	0.130500	0.295700	0.191100
C191	C19	0.471900	0.878500	0.829600
C201	C20	0.601300	0.829400	0.003700
C211	C21	0.369500	0.696300	0.878000
C221	C22	0.454400	0.748600	0.493900
C231	C23	0.475100	0.618300	0.494300
C241	C24	0.503700	0.585200	0.598400
C251	C25	0.470800	0.531500	0.395100
C261	C26	0.861200	0.482700	0.989000
C271	C27	0.043500	0.406900	0.936400
C281	C28	0.904200	0.389000	0.925600
C291	C29	0.799900	0.269200	0.846600
C301	C30	0.702600	0.966200	0.427100
C311	C31	0.855700	0.984300	0.463800
C321	C32	0.917600	0.947900	0.381600
C331	C33	0.939500	0.036400	0.580800
C341	C34	0.886400	0.927100	0.796500
C351	C35	0.083500	0.874600	0.913600
C361	C36	0.869500	0.704300	0.808900
N11	N1	0.517500	0.195200	0.100100
N21	N2	0.065500	0.163300	0.164300
N31	N3	0.482500	0.804800	0.899900
N41	N4	0.934500	0.836700	0.835700
O11	O1	0.226900	0.079800	0.262300
O21	O2	0.433800	0.029600	0.157500
O31	O3	0.522300	0.174000	0.409700
O41	O4	0.584500	0.228800	0.604300
O51	O5	0.556500	0.445000	0.712000
O61	O6	0.321200	0.752700	0.153700
O71	O7	0.352800	0.009100	0.497300
O81	O8	0.371000	0.071900	0.681000
O91	O9	0.157000	0.102800	0.734400
O101	O10	0.160700	0.809200	0.217300
O111	O11	0.899100	0.675900	0.117800
O121	O12	0.773100	0.920200	0.737700
O131	O13	0.566200	0.970400	0.842500
O141	O14	0.477700	0.826000	0.590300
O151	O15	0.415500	0.771200	0.395700
O161	O16	0.443500	0.555000	0.288000
O171	O17	0.678800	0.247300	0.846300
O181	O18	0.647200	0.990900	0.502700
O191	O19	0.629000	0.928100	0.319000
O201	O20	0.843000	0.897200	0.265600
O211	O21	0.839300	0.190800	0.782700
O221	O22	0.100900	0.324100	0.882200
