data_ETEJIX01_freeONLY_PM
_symmetry_space_group_name_H-M	'P1'
_cell_length_a	10.434000
_cell_length_b	11.163000
_cell_length_c	12.422000
_cell_angle_alpha	102.676000
_cell_angle_beta	106.313000
_cell_angle_gamma	99.415000
_symmetry_Int_Tables_number 1

loop_
_symmetry_equiv_pos_as_xyz
'x,y,z'

loop_
_atom_site_label
_atom_site_type_symbol
_atom_site_fract_x
_atom_site_fract_y
_atom_site_fract_z
La11	La1	0.403660	0.456940	0.816350
La21	La2	0.596340	0.543060	0.183650
H11	H1	0.879400	0.545100	0.577900
H21	H2	0.869800	0.681200	0.636900
H31	H3	0.909300	0.655600	0.522600
H41	H4	0.110000	0.445800	0.867300
H51	H5	0.341500	0.607300	0.492300
H61	H6	0.357000	0.753500	0.514500
H71	H7	0.428900	0.682800	0.433900
H81	H8	0.706600	0.825000	0.692500
H91	H9	0.658300	0.821400	0.560100
H101	H10	0.594000	0.895500	0.645500
H111	H11	0.160300	0.809900	0.628200
H121	H12	0.090800	0.849600	0.722700
H131	H13	0.227800	0.804800	0.756400
H141	H14	0.488900	0.853200	0.831800
H151	H15	0.120600	0.454900	0.422100
H161	H16	0.130200	0.318800	0.363100
H171	H17	0.090700	0.344400	0.477400
H181	H18	0.890000	0.554200	0.132700
H191	H19	0.658500	0.392700	0.507700
H201	H20	0.643000	0.246500	0.485500
H211	H21	0.571100	0.317200	0.566100
H221	H22	0.293400	0.175000	0.307500
H231	H23	0.341700	0.178600	0.439900
H241	H24	0.406000	0.104500	0.354500
H251	H25	0.839700	0.190100	0.371800
H261	H26	0.909200	0.150400	0.277300
H271	H27	0.772200	0.195200	0.243600
H281	H28	0.511100	0.146800	0.168200
C11	C1	0.918000	0.634000	0.594500
C21	C2	0.140700	0.011500	0.514900
C31	C3	0.074300	0.549400	0.118700
C41	C4	0.957000	0.099500	0.557200
C51	C5	0.065200	0.468200	0.920900
C61	C6	0.095300	0.111400	0.572300
C71	C7	0.540300	0.630200	0.667900
C81	C8	0.402700	0.686200	0.502500
C91	C9	0.629500	0.822300	0.627100
C101	C10	0.118900	0.576700	0.702500
C111	C11	0.142300	0.792900	0.695700
C121	C12	0.528700	0.883100	0.006500
C131	C13	0.294700	0.538600	0.078000
C141	C14	0.143200	0.518800	0.039500
C151	C15	0.198000	0.230100	0.645600
C161	C16	0.555900	0.756400	0.008200
C171	C17	0.493500	0.912500	0.899300
C181	C18	0.534200	0.972500	0.107700
C191	C19	0.082000	0.366000	0.405500
C201	C20	0.859300	0.988500	0.485100
C211	C21	0.925700	0.450600	0.881300
C221	C22	0.043000	0.900500	0.442800
C231	C23	0.934800	0.531800	0.079100
C241	C24	0.904700	0.888600	0.427700
C251	C25	0.459700	0.369800	0.332100
C261	C26	0.597300	0.313800	0.497500
C271	C27	0.370500	0.177700	0.372900
C281	C28	0.881100	0.423300	0.297500
C291	C29	0.857700	0.207100	0.304300
C301	C30	0.471300	0.116900	0.993500
C311	C31	0.705300	0.461400	0.922000
C321	C32	0.856800	0.481200	0.960500
C331	C33	0.802000	0.769900	0.354400
C341	C34	0.444100	0.243600	0.991800
C351	C35	0.506500	0.087500	0.100700
C361	C36	0.465800	0.027500	0.892300
N11	N1	0.522700	0.708700	0.601700
N21	N2	0.064300	0.664600	0.665300
N31	N3	0.477300	0.291300	0.398300
N41	N4	0.935700	0.335400	0.334700
O11	O1	0.142600	0.597800	0.236500
O21	O2	0.538800	0.677100	0.912400
O31	O3	0.240500	0.594500	0.764800
O41	O4	0.449500	0.531100	0.651600
O51	O5	0.596400	0.733500	0.107600
O61	O6	0.321900	0.246000	0.648200
O71	O7	0.160400	0.315800	0.708000
O81	O8	0.568700	0.952700	0.216200
O91	O9	0.355700	0.518700	0.002300
O101	O10	0.362000	0.576300	0.185700
O111	O11	0.899100	0.190600	0.603500
O121	O12	0.857400	0.402200	0.763500
O131	O13	0.461200	0.322900	0.087600
O141	O14	0.759500	0.405500	0.235200
O151	O15	0.550500	0.468900	0.348400
O161	O16	0.403600	0.266500	0.892400
O171	O17	0.678100	0.754000	0.351800
O181	O18	0.839600	0.684200	0.292000
O191	O19	0.431300	0.047300	0.783800
O201	O20	0.644300	0.481300	0.997700
O211	O21	0.638000	0.423700	0.814300
O221	O22	0.100900	0.809400	0.396500
