data_ETEQUQ_freeONLY_PM
_symmetry_space_group_name_H-M	'P1'
_cell_length_a	11.967700
_cell_length_b	12.201200
_cell_length_c	14.738600
_cell_angle_alpha	67.613000
_cell_angle_beta	74.527000
_cell_angle_gamma	63.724000
_symmetry_Int_Tables_number 1

loop_
_symmetry_equiv_pos_as_xyz
'x,y,z'

loop_
_atom_site_label
_atom_site_type_symbol
_atom_site_fract_x
_atom_site_fract_y
_atom_site_fract_z
Mo11	Mo1	0.279200	0.296880	0.324190
Mo21	Mo2	0.747300	0.805120	0.335910
Mo31	Mo3	0.529530	0.810780	0.332170
Mo41	Mo4	0.574480	0.292070	0.326560
Mo51	Mo5	0.774060	0.083700	0.329960
Mo61	Mo6	0.263630	0.093940	0.321710
Mn11	Mn1	0.261650	0.837020	0.008730
P11	P1	0.551760	0.108380	0.212320
P21	P2	0.385210	0.513080	0.158150
P31	P3	0.306160	0.903770	0.194540
P41	P4	0.934020	0.928380	0.164960
O11	O1	0.614000	0.115800	0.417600
O21	O2	0.586800	0.858600	0.420300
O31	O3	0.338600	0.118900	0.413100
O41	O4	0.814000	0.885500	0.405300
O51	O5	0.386700	0.332300	0.395600
O61	O6	0.675400	0.021800	0.261100
O71	O7	0.248000	0.256300	0.220800
O81	O8	0.347600	0.896300	0.396400
O91	O9	0.483700	0.224600	0.254700
O101	O10	0.675500	0.801500	0.234200
O111	O11	0.865900	0.094600	0.393100
O121	O12	0.716900	0.247500	0.228500
O131	O13	0.468500	0.028600	0.250600
O141	O14	0.118900	0.110700	0.382700
O151	O15	0.080700	0.866300	0.137400
O161	O16	0.137200	0.359900	0.383000
O171	O17	0.871800	0.992000	0.072600
O181	O18	0.576600	0.155000	0.101300
O191	O19	0.898300	0.813900	0.233700
O201	O20	0.252900	0.035700	0.212400
O211	O21	0.609800	0.363400	0.386500
O221	O22	0.913100	0.018100	0.224000
O231	O23	0.309400	0.925700	0.085600
O241	O24	0.494400	0.460500	0.218800
O251	O25	0.441700	0.828200	0.222800
O261	O26	0.548000	0.657700	0.396300
O271	O27	0.279500	0.469600	0.221600
O281	O28	0.433500	0.446400	0.073900
O291	O29	0.816300	0.651300	0.400300
O301	O30	0.222800	0.828600	0.258400
O311	O31	0.347300	0.653600	0.112500
O321	O32	0.190400	0.728100	0.962900
Mo71	Mo7	0.720800	0.703120	0.675810
Mo81	Mo8	0.252700	0.194880	0.664090
Mo91	Mo9	0.470470	0.189220	0.667830
Mo101	Mo10	0.425520	0.707930	0.673440
Mo111	Mo11	0.225940	0.916300	0.670040
Mo121	Mo12	0.736370	0.906060	0.678290
Mn21	Mn2	0.738350	0.162980	0.991270
P51	P5	0.448240	0.891620	0.787680
P61	P6	0.614790	0.486920	0.841850
P71	P7	0.693840	0.096230	0.805460
P81	P8	0.065980	0.071620	0.835040
O331	O33	0.386000	0.884200	0.582400
O341	O34	0.413200	0.141400	0.579700
O351	O35	0.661400	0.881100	0.586900
O361	O36	0.186000	0.114500	0.594700
O371	O37	0.613300	0.667700	0.604400
O381	O38	0.324600	0.978200	0.738900
O391	O39	0.752000	0.743700	0.779200
O401	O40	0.652400	0.103700	0.603600
O411	O41	0.516300	0.775400	0.745300
O421	O42	0.324500	0.198500	0.765800
O431	O43	0.134100	0.905400	0.606900
O441	O44	0.283100	0.752500	0.771500
O451	O45	0.531500	0.971400	0.749400
O461	O46	0.881100	0.889300	0.617300
O471	O47	0.919300	0.133700	0.862600
O481	O48	0.862800	0.640100	0.617000
O491	O49	0.128200	0.008000	0.927400
O501	O50	0.423400	0.845000	0.898700
O511	O51	0.101700	0.186100	0.766300
O521	O52	0.747100	0.964300	0.787600
O531	O53	0.390200	0.636600	0.613500
O541	O54	0.086900	0.981900	0.776000
O551	O55	0.690600	0.074300	0.914400
O561	O56	0.505600	0.539500	0.781200
O571	O57	0.558300	0.171800	0.777200
O581	O58	0.452000	0.342300	0.603700
O591	O59	0.720500	0.530400	0.778400
O601	O60	0.566500	0.553600	0.926100
O611	O61	0.183700	0.348700	0.599700
O621	O62	0.777200	0.171400	0.741600
O631	O63	0.652700	0.346400	0.887500
O641	O64	0.809600	0.271900	0.037100
Mn31	Mn3	0.500000	0.000000	0.500000
