data_ETEXEI_freeONLY_PM
_symmetry_space_group_name_H-M	'P1'
_cell_length_a	10.464700
_cell_length_b	15.572200
_cell_length_c	13.878400
_cell_angle_alpha	90.000000
_cell_angle_beta	96.829000
_cell_angle_gamma	90.000000
_symmetry_Int_Tables_number 1

loop_
_symmetry_equiv_pos_as_xyz
'x,y,z'

loop_
_atom_site_label
_atom_site_type_symbol
_atom_site_fract_x
_atom_site_fract_y
_atom_site_fract_z
Zn11	Zn1	0.533220	0.414420	0.390120
P11	P1	0.429470	0.606930	0.382290
P21	P2	0.708090	0.334380	0.229050
O11	O1	0.672480	0.389060	0.312440
O21	O2	0.851330	0.340080	0.221430
O31	O3	0.627690	0.355640	0.134260
O41	O4	0.528280	0.538110	0.372970
O51	O5	0.377800	0.606440	0.480260
O61	O6	0.479240	0.695530	0.361690
H11	H1	0.323900	0.595900	0.314000
H21	H2	0.684400	0.255800	0.248100
Zn21	Zn2	0.033220	0.914420	0.390120
P31	P3	0.929470	0.106930	0.382290
P41	P4	0.208090	0.834380	0.229050
O71	O7	0.172480	0.889060	0.312440
O81	O8	0.351330	0.840080	0.221430
O91	O9	0.127690	0.855640	0.134260
O101	O10	0.028280	0.038110	0.372970
O111	O11	0.877800	0.106440	0.480260
O121	O12	0.979240	0.195530	0.361690
H31	H3	0.823900	0.095900	0.314000
H41	H4	0.184400	0.755800	0.248100
Zn31	Zn3	0.466780	0.414420	0.109880
P51	P5	0.570530	0.606930	0.117710
P61	P6	0.291910	0.334380	0.270950
O131	O13	0.327520	0.389060	0.187560
O141	O14	0.148670	0.340080	0.278570
O151	O15	0.372310	0.355640	0.365740
O161	O16	0.471720	0.538110	0.127030
O171	O17	0.622200	0.606440	0.019740
O181	O18	0.520760	0.695530	0.138310
H51	H5	0.676100	0.595900	0.186000
H61	H6	0.315600	0.255800	0.251900
Zn41	Zn4	0.966780	0.914420	0.109880
P71	P7	0.070530	0.106930	0.117710
P81	P8	0.791910	0.834380	0.270950
O191	O19	0.827520	0.889060	0.187560
O201	O20	0.648670	0.840080	0.278570
O211	O21	0.872310	0.855640	0.365740
O221	O22	0.971720	0.038110	0.127030
O231	O23	0.122200	0.106440	0.019740
O241	O24	0.020760	0.195530	0.138310
H71	H7	0.176100	0.095900	0.186000
H81	H8	0.815600	0.755800	0.251900
Zn51	Zn5	0.466780	0.585580	0.609880
P91	P9	0.570530	0.393070	0.617710
P101	P10	0.291910	0.665620	0.770950
O251	O25	0.327520	0.610940	0.687560
O261	O26	0.148670	0.659920	0.778570
O271	O27	0.372310	0.644360	0.865740
O281	O28	0.471720	0.461890	0.627030
O291	O29	0.622200	0.393560	0.519740
O301	O30	0.520760	0.304470	0.638310
H91	H9	0.676100	0.404100	0.686000
H101	H10	0.315600	0.744200	0.751900
Zn61	Zn6	0.966780	0.085580	0.609880
P111	P11	0.070530	0.893070	0.617710
P121	P12	0.791910	0.165620	0.770950
O311	O31	0.827520	0.110940	0.687560
O321	O32	0.648670	0.159920	0.778570
O331	O33	0.872310	0.144360	0.865740
O341	O34	0.971720	0.961890	0.627030
O351	O35	0.122200	0.893560	0.519740
O361	O36	0.020760	0.804470	0.638310
H111	H11	0.176100	0.904100	0.686000
H121	H12	0.815600	0.244200	0.751900
Zn71	Zn7	0.533220	0.585580	0.890120
P131	P13	0.429470	0.393070	0.882290
P141	P14	0.708090	0.665620	0.729050
O371	O37	0.672480	0.610940	0.812440
O381	O38	0.851330	0.659920	0.721430
O391	O39	0.627690	0.644360	0.634260
O401	O40	0.528280	0.461890	0.872970
O411	O41	0.377800	0.393560	0.980260
O421	O42	0.479240	0.304470	0.861690
H131	H13	0.323900	0.404100	0.814000
H141	H14	0.684400	0.744200	0.748100
Zn81	Zn8	0.033220	0.085580	0.890120
P151	P15	0.929470	0.893070	0.882290
P161	P16	0.208090	0.165620	0.729050
O431	O43	0.172480	0.110940	0.812440
O441	O44	0.351330	0.159920	0.721430
O451	O45	0.127690	0.144360	0.634260
O461	O46	0.028280	0.961890	0.872970
O471	O47	0.877800	0.893560	0.980260
O481	O48	0.979240	0.804470	0.861690
H151	H15	0.823900	0.904100	0.814000
H161	H16	0.184400	0.244200	0.748100
Zn91	Zn9	0.000000	0.266170	0.250000
Zn101	Zn10	0.500000	0.766170	0.250000
Zn111	Zn11	0.000000	0.733830	0.750000
Zn121	Zn12	0.500000	0.233830	0.750000
