data_ETICIV_freeONLY_PM
_symmetry_space_group_name_H-M	'P1'
_cell_length_a	14.475000
_cell_length_b	16.613000
_cell_length_c	24.839000
_cell_angle_alpha	90.000000
_cell_angle_beta	95.062000
_cell_angle_gamma	90.000000
_symmetry_Int_Tables_number 1

loop_
_symmetry_equiv_pos_as_xyz
'x,y,z'

loop_
_atom_site_label
_atom_site_type_symbol
_atom_site_fract_x
_atom_site_fract_y
_atom_site_fract_z
Cd11	Cd1	0.375970	0.260260	0.486630
N11	N1	0.142100	0.786320	0.239750
C11	C1	0.091600	0.825420	0.200680
H11	H1	0.060900	0.795700	0.172900
C21	C2	0.082970	0.908020	0.199590
C31	C3	0.126950	0.952120	0.242220
H21	H2	0.122300	0.007900	0.242700
C41	C4	0.178100	0.911630	0.284270
C51	C5	0.181900	0.828900	0.280560
H31	H3	0.214700	0.801000	0.308600
N21	N2	0.984660	0.915170	0.112130
H41	H4	0.978600	0.864100	0.107300
N31	N3	0.027110	0.031270	0.152740
N41	N4	0.905090	0.118830	0.029970
C61	C6	0.031430	0.952290	0.155510
C71	C7	0.976500	0.046350	0.104030
C81	C8	0.949800	0.973510	0.078320
C91	C9	0.898000	0.973720	0.028470
H51	H5	0.878000	0.926300	0.011300
C101	C10	0.877900	0.048290	0.006000
H61	H6	0.843800	0.050300	0.972500
C111	C11	0.952500	0.118310	0.077770
H71	H7	0.970300	0.166900	0.094200
N51	N5	0.273790	0.924890	0.372510
H81	H8	0.284900	0.874600	0.378300
N61	N6	0.217910	0.037500	0.331350
N71	N7	0.336540	0.135960	0.450820
C121	C12	0.223600	0.956980	0.328930
C131	C13	0.268500	0.057060	0.379270
C141	C14	0.303200	0.987220	0.405260
C151	C15	0.355000	0.991640	0.455310
H91	H9	0.378300	0.946000	0.473500
C161	C16	0.369300	0.068100	0.476070
H101	H10	0.403500	0.073400	0.509400
C171	C17	0.288200	0.131360	0.403060
H111	H11	0.267300	0.178200	0.385400
O11	O1	0.995890	0.765400	0.428010
O21	O2	0.041230	0.706530	0.503370
O31	O3	0.138500	0.290370	0.430990
O41	O4	0.285850	0.326040	0.421980
C181	C18	0.056500	0.727900	0.456990
C191	C19	0.145200	0.707600	0.434800
H121	H12	0.195300	0.713800	0.463100
H131	H13	0.155800	0.745500	0.406200
C201	C20	0.147800	0.622450	0.412280
C211	C21	0.070300	0.575000	0.404150
H141	H14	0.012800	0.596100	0.410700
C221	C22	0.075900	0.495500	0.386140
H151	H15	0.022500	0.464200	0.381500
C231	C23	0.160100	0.462950	0.375130
C241	C24	0.237200	0.512400	0.380910
H161	H16	0.294000	0.492300	0.372400
C251	C25	0.232000	0.590800	0.399010
H171	H17	0.285000	0.622700	0.402300
C261	C26	0.168400	0.376100	0.359260
H181	H18	0.212800	0.371100	0.332400
H191	H19	0.108900	0.356600	0.343500
C271	C27	0.199800	0.326460	0.408160
Cd21	Cd2	0.875970	0.760260	0.486630
N81	N8	0.642100	0.286320	0.239750
C281	C28	0.591600	0.325420	0.200680
H201	H20	0.560900	0.295700	0.172900
C291	C29	0.582970	0.408020	0.199590
C301	C30	0.626950	0.452120	0.242220
H211	H21	0.622300	0.507900	0.242700
C311	C31	0.678100	0.411630	0.284270
C321	C32	0.681900	0.328900	0.280560
H221	H22	0.714700	0.301000	0.308600
N91	N9	0.484660	0.415170	0.112130
H231	H23	0.478600	0.364100	0.107300
N101	N10	0.527110	0.531270	0.152740
N111	N11	0.405090	0.618830	0.029970
C331	C33	0.531430	0.452290	0.155510
C341	C34	0.476500	0.546350	0.104030
C351	C35	0.449800	0.473510	0.078320
C361	C36	0.398000	0.473720	0.028470
H241	H24	0.378000	0.426300	0.011300
C371	C37	0.377900	0.548290	0.006000
H251	H25	0.343800	0.550300	0.972500
C381	C38	0.452500	0.618310	0.077770
H261	H26	0.470300	0.666900	0.094200
N121	N12	0.773790	0.424890	0.372510
H271	H27	0.784900	0.374600	0.378300
N131	N13	0.717910	0.537500	0.331350
N141	N14	0.836540	0.635960	0.450820
C391	C39	0.723600	0.456980	0.328930
C401	C40	0.768500	0.557060	0.379270
C411	C41	0.803200	0.487220	0.405260
C421	C42	0.855000	0.491640	0.455310
H281	H28	0.878300	0.446000	0.473500
C431	C43	0.869300	0.568100	0.476070
H291	H29	0.903500	0.573400	0.509400
C441	C44	0.788200	0.631360	0.403060
H301	H30	0.767300	0.678200	0.385400
O51	O5	0.495890	0.265400	0.428010
O61	O6	0.541230	0.206530	0.503370
O71	O7	0.638500	0.790370	0.430990
O81	O8	0.785850	0.826040	0.421980
C451	C45	0.556500	0.227900	0.456990
C461	C46	0.645200	0.207600	0.434800
H311	H31	0.695300	0.213800	0.463100
H321	H32	0.655800	0.245500	0.406200
C471	C47	0.647800	0.122450	0.412280
C481	C48	0.570300	0.075000	0.404150
H331	H33	0.512800	0.096100	0.410700
C491	C49	0.575900	0.995500	0.386140
H341	H34	0.522500	0.964200	0.381500
C501	C50	0.660100	0.962950	0.375130
C511	C51	0.737200	0.012400	0.380910
H351	H35	0.794000	0.992300	0.372400
C521	C52	0.732000	0.090800	0.399010
H361	H36	0.785000	0.122700	0.402300
C531	C53	0.668400	0.876100	0.359260
H371	H37	0.712800	0.871100	0.332400
H381	H38	0.608900	0.856600	0.343500
C541	C54	0.699800	0.826460	0.408160
Cd31	Cd3	0.624030	0.260260	0.013370
N151	N15	0.857900	0.786320	0.260250
C551	C55	0.908400	0.825420	0.299320
H391	H39	0.939100	0.795700	0.327100
C561	C56	0.917030	0.908020	0.300410
C571	C57	0.873050	0.952120	0.257780
H401	H40	0.877700	0.007900	0.257300
C581	C58	0.821900	0.911630	0.215730
C591	C59	0.818100	0.828900	0.219440
H411	H41	0.785300	0.801000	0.191400
N161	N16	0.015340	0.915170	0.387870
H421	H42	0.021400	0.864100	0.392700
N171	N17	0.972890	0.031270	0.347260
N181	N18	0.094910	0.118830	0.470030
C601	C60	0.968570	0.952290	0.344490
C611	C61	0.023500	0.046350	0.395970
C621	C62	0.050200	0.973510	0.421680
C631	C63	0.102000	0.973720	0.471530
H431	H43	0.122000	0.926300	0.488700
C641	C64	0.122100	0.048290	0.494000
H441	H44	0.156200	0.050300	0.527500
C651	C65	0.047500	0.118310	0.422230
H451	H45	0.029700	0.166900	0.405800
N191	N19	0.726210	0.924890	0.127490
H461	H46	0.715100	0.874600	0.121700
N201	N20	0.782090	0.037500	0.168650
N211	N21	0.663460	0.135960	0.049180
C661	C66	0.776400	0.956980	0.171070
C671	C67	0.731500	0.057060	0.120730
C681	C68	0.696800	0.987220	0.094740
C691	C69	0.645000	0.991640	0.044690
H471	H47	0.621700	0.946000	0.026500
C701	C70	0.630700	0.068100	0.023930
H481	H48	0.596500	0.073400	0.990600
C711	C71	0.711800	0.131360	0.096940
H491	H49	0.732700	0.178200	0.114600
O91	O9	0.004110	0.765400	0.071990
O101	O10	0.958770	0.706530	0.996630
O111	O11	0.861500	0.290370	0.069010
O121	O12	0.714150	0.326040	0.078020
C721	C72	0.943500	0.727900	0.043010
C731	C73	0.854800	0.707600	0.065200
H501	H50	0.804700	0.713800	0.036900
H511	H51	0.844200	0.745500	0.093800
C741	C74	0.852200	0.622450	0.087720
C751	C75	0.929700	0.575000	0.095850
H521	H52	0.987200	0.596100	0.089300
C761	C76	0.924100	0.495500	0.113860
H531	H53	0.977500	0.464200	0.118500
C771	C77	0.839900	0.462950	0.124870
C781	C78	0.762800	0.512400	0.119090
H541	H54	0.706000	0.492300	0.127600
C791	C79	0.768000	0.590800	0.100990
H551	H55	0.715000	0.622700	0.097700
C801	C80	0.831600	0.376100	0.140740
H561	H56	0.787200	0.371100	0.167600
H571	H57	0.891100	0.356600	0.156500
C811	C81	0.800200	0.326460	0.091840
Cd41	Cd4	0.124030	0.760260	0.013370
N221	N22	0.357900	0.286320	0.260250
C821	C82	0.408400	0.325420	0.299320
H581	H58	0.439100	0.295700	0.327100
C831	C83	0.417030	0.408020	0.300410
C841	C84	0.373050	0.452120	0.257780
H591	H59	0.377700	0.507900	0.257300
C851	C85	0.321900	0.411630	0.215730
C861	C86	0.318100	0.328900	0.219440
H601	H60	0.285300	0.301000	0.191400
N231	N23	0.515340	0.415170	0.387870
H611	H61	0.521400	0.364100	0.392700
N241	N24	0.472890	0.531270	0.347260
N251	N25	0.594910	0.618830	0.470030
C871	C87	0.468570	0.452290	0.344490
C881	C88	0.523500	0.546350	0.395970
C891	C89	0.550200	0.473510	0.421680
C901	C90	0.602000	0.473720	0.471530
H621	H62	0.622000	0.426300	0.488700
C911	C91	0.622100	0.548290	0.494000
H631	H63	0.656200	0.550300	0.527500
C921	C92	0.547500	0.618310	0.422230
H641	H64	0.529700	0.666900	0.405800
N261	N26	0.226210	0.424890	0.127490
H651	H65	0.215100	0.374600	0.121700
N271	N27	0.282090	0.537500	0.168650
N281	N28	0.163460	0.635960	0.049180
C931	C93	0.276400	0.456980	0.171070
C941	C94	0.231500	0.557060	0.120730
C951	C95	0.196800	0.487220	0.094740
C961	C96	0.145000	0.491640	0.044690
H661	H66	0.121700	0.446000	0.026500
C971	C97	0.130700	0.568100	0.023930
H671	H67	0.096500	0.573400	0.990600
C981	C98	0.211800	0.631360	0.096940
H681	H68	0.232700	0.678200	0.114600
O131	O13	0.504110	0.265400	0.071990
O141	O14	0.458770	0.206530	0.996630
O151	O15	0.361500	0.790370	0.069010
O161	O16	0.214150	0.826040	0.078020
C991	C99	0.443500	0.227900	0.043010
C1001	C100	0.354800	0.207600	0.065200
H691	H69	0.304700	0.213800	0.036900
H701	H70	0.344200	0.245500	0.093800
C1011	C101	0.352200	0.122450	0.087720
C1021	C102	0.429700	0.075000	0.095850
H711	H71	0.487200	0.096100	0.089300
C1031	C103	0.424100	0.995500	0.113860
H721	H72	0.477500	0.964200	0.118500
C1041	C104	0.339900	0.962950	0.124870
C1051	C105	0.262800	0.012400	0.119090
H731	H73	0.206000	0.992300	0.127600
C1061	C106	0.268000	0.090800	0.100990
H741	H74	0.215000	0.122700	0.097700
C1071	C107	0.331600	0.876100	0.140740
H751	H75	0.287200	0.871100	0.167600
H761	H76	0.391100	0.856600	0.156500
C1081	C108	0.300200	0.826460	0.091840
Cd51	Cd5	0.624030	0.739740	0.513370
N291	N29	0.857900	0.213680	0.760250
C1091	C109	0.908400	0.174580	0.799320
H771	H77	0.939100	0.204300	0.827100
C1101	C110	0.917030	0.091980	0.800410
C1111	C111	0.873050	0.047880	0.757780
H781	H78	0.877700	0.992100	0.757300
C1121	C112	0.821900	0.088370	0.715730
C1131	C113	0.818100	0.171100	0.719440
H791	H79	0.785300	0.199000	0.691400
N301	N30	0.015340	0.084830	0.887870
H801	H80	0.021400	0.135900	0.892700
N311	N31	0.972890	0.968730	0.847260
N321	N32	0.094910	0.881170	0.970030
C1141	C114	0.968570	0.047710	0.844490
C1151	C115	0.023500	0.953650	0.895970
C1161	C116	0.050200	0.026490	0.921680
C1171	C117	0.102000	0.026280	0.971530
H811	H81	0.122000	0.073700	0.988700
C1181	C118	0.122100	0.951710	0.994000
H821	H82	0.156200	0.949700	0.027500
C1191	C119	0.047500	0.881690	0.922230
H831	H83	0.029700	0.833100	0.905800
N331	N33	0.726210	0.075110	0.627490
H841	H84	0.715100	0.125400	0.621700
N341	N34	0.782090	0.962500	0.668650
N351	N35	0.663460	0.864040	0.549180
C1201	C120	0.776400	0.043020	0.671070
C1211	C121	0.731500	0.942940	0.620730
C1221	C122	0.696800	0.012780	0.594740
C1231	C123	0.645000	0.008360	0.544690
H851	H85	0.621700	0.054000	0.526500
C1241	C124	0.630700	0.931900	0.523930
H861	H86	0.596500	0.926600	0.490600
C1251	C125	0.711800	0.868640	0.596940
H871	H87	0.732700	0.821800	0.614600
O171	O17	0.004110	0.234600	0.571990
O181	O18	0.958770	0.293470	0.496630
O191	O19	0.861500	0.709630	0.569010
O201	O20	0.714150	0.673960	0.578020
C1261	C126	0.943500	0.272100	0.543010
C1271	C127	0.854800	0.292400	0.565200
H881	H88	0.804700	0.286200	0.536900
H891	H89	0.844200	0.254500	0.593800
C1281	C128	0.852200	0.377550	0.587720
C1291	C129	0.929700	0.425000	0.595850
H901	H90	0.987200	0.403900	0.589300
C1301	C130	0.924100	0.504500	0.613860
H911	H91	0.977500	0.535800	0.618500
C1311	C131	0.839900	0.537050	0.624870
C1321	C132	0.762800	0.487600	0.619090
H921	H92	0.706000	0.507700	0.627600
C1331	C133	0.768000	0.409200	0.600990
H931	H93	0.715000	0.377300	0.597700
C1341	C134	0.831600	0.623900	0.640740
H941	H94	0.787200	0.628900	0.667600
H951	H95	0.891100	0.643400	0.656500
C1351	C135	0.800200	0.673540	0.591840
Cd61	Cd6	0.124030	0.239740	0.513370
N361	N36	0.357900	0.713680	0.760250
C1361	C136	0.408400	0.674580	0.799320
H961	H96	0.439100	0.704300	0.827100
C1371	C137	0.417030	0.591980	0.800410
C1381	C138	0.373050	0.547880	0.757780
H971	H97	0.377700	0.492100	0.757300
C1391	C139	0.321900	0.588370	0.715730
C1401	C140	0.318100	0.671100	0.719440
H981	H98	0.285300	0.699000	0.691400
N371	N37	0.515340	0.584830	0.887870
H991	H99	0.521400	0.635900	0.892700
N381	N38	0.472890	0.468730	0.847260
N391	N39	0.594910	0.381170	0.970030
C1411	C141	0.468570	0.547710	0.844490
C1421	C142	0.523500	0.453650	0.895970
C1431	C143	0.550200	0.526490	0.921680
C1441	C144	0.602000	0.526280	0.971530
H1001	H100	0.622000	0.573700	0.988700
C1451	C145	0.622100	0.451710	0.994000
H1011	H101	0.656200	0.449700	0.027500
C1461	C146	0.547500	0.381690	0.922230
H1021	H102	0.529700	0.333100	0.905800
N401	N40	0.226210	0.575110	0.627490
H1031	H103	0.215100	0.625400	0.621700
N411	N41	0.282090	0.462500	0.668650
N421	N42	0.163460	0.364040	0.549180
C1471	C147	0.276400	0.543020	0.671070
C1481	C148	0.231500	0.442940	0.620730
C1491	C149	0.196800	0.512780	0.594740
C1501	C150	0.145000	0.508360	0.544690
H1041	H104	0.121700	0.554000	0.526500
C1511	C151	0.130700	0.431900	0.523930
H1051	H105	0.096500	0.426600	0.490600
C1521	C152	0.211800	0.368640	0.596940
H1061	H106	0.232700	0.321800	0.614600
O211	O21	0.504110	0.734600	0.571990
O221	O22	0.458770	0.793470	0.496630
O231	O23	0.361500	0.209630	0.569010
O241	O24	0.214150	0.173960	0.578020
C1531	C153	0.443500	0.772100	0.543010
C1541	C154	0.354800	0.792400	0.565200
H1071	H107	0.304700	0.786200	0.536900
H1081	H108	0.344200	0.754500	0.593800
C1551	C155	0.352200	0.877550	0.587720
C1561	C156	0.429700	0.925000	0.595850
H1091	H109	0.487200	0.903900	0.589300
C1571	C157	0.424100	0.004500	0.613860
H1101	H110	0.477500	0.035800	0.618500
C1581	C158	0.339900	0.037050	0.624870
C1591	C159	0.262800	0.987600	0.619090
H1111	H111	0.206000	0.007700	0.627600
C1601	C160	0.268000	0.909200	0.600990
H1121	H112	0.215000	0.877300	0.597700
C1611	C161	0.331600	0.123900	0.640740
H1131	H113	0.287200	0.128900	0.667600
H1141	H114	0.391100	0.143400	0.656500
C1621	C162	0.300200	0.173540	0.591840
Cd71	Cd7	0.375970	0.739740	0.986630
N431	N43	0.142100	0.213680	0.739750
C1631	C163	0.091600	0.174580	0.700680
H1151	H115	0.060900	0.204300	0.672900
C1641	C164	0.082970	0.091980	0.699590
C1651	C165	0.126950	0.047880	0.742220
H1161	H116	0.122300	0.992100	0.742700
C1661	C166	0.178100	0.088370	0.784270
C1671	C167	0.181900	0.171100	0.780560
H1171	H117	0.214700	0.199000	0.808600
N441	N44	0.984660	0.084830	0.612130
H1181	H118	0.978600	0.135900	0.607300
N451	N45	0.027110	0.968730	0.652740
N461	N46	0.905090	0.881170	0.529970
C1681	C168	0.031430	0.047710	0.655510
C1691	C169	0.976500	0.953650	0.604030
C1701	C170	0.949800	0.026490	0.578320
C1711	C171	0.898000	0.026280	0.528470
H1191	H119	0.878000	0.073700	0.511300
C1721	C172	0.877900	0.951710	0.506000
H1201	H120	0.843800	0.949700	0.472500
C1731	C173	0.952500	0.881690	0.577770
H1211	H121	0.970300	0.833100	0.594200
N471	N47	0.273790	0.075110	0.872510
H1221	H122	0.284900	0.125400	0.878300
N481	N48	0.217910	0.962500	0.831350
N491	N49	0.336540	0.864040	0.950820
C1741	C174	0.223600	0.043020	0.828930
C1751	C175	0.268500	0.942940	0.879270
C1761	C176	0.303200	0.012780	0.905260
C1771	C177	0.355000	0.008360	0.955310
H1231	H123	0.378300	0.054000	0.973500
C1781	C178	0.369300	0.931900	0.976070
H1241	H124	0.403500	0.926600	0.009400
C1791	C179	0.288200	0.868640	0.903060
H1251	H125	0.267300	0.821800	0.885400
O251	O25	0.995890	0.234600	0.928010
O261	O26	0.041230	0.293470	0.003370
O271	O27	0.138500	0.709630	0.930990
O281	O28	0.285850	0.673960	0.921980
C1801	C180	0.056500	0.272100	0.956990
C1811	C181	0.145200	0.292400	0.934800
H1261	H126	0.195300	0.286200	0.963100
H1271	H127	0.155800	0.254500	0.906200
C1821	C182	0.147800	0.377550	0.912280
C1831	C183	0.070300	0.425000	0.904150
H1281	H128	0.012800	0.403900	0.910700
C1841	C184	0.075900	0.504500	0.886140
H1291	H129	0.022500	0.535800	0.881500
C1851	C185	0.160100	0.537050	0.875130
C1861	C186	0.237200	0.487600	0.880910
H1301	H130	0.294000	0.507700	0.872400
C1871	C187	0.232000	0.409200	0.899010
H1311	H131	0.285000	0.377300	0.902300
C1881	C188	0.168400	0.623900	0.859260
H1321	H132	0.212800	0.628900	0.832400
H1331	H133	0.108900	0.643400	0.843500
C1891	C189	0.199800	0.673540	0.908160
Cd81	Cd8	0.875970	0.239740	0.986630
N501	N50	0.642100	0.713680	0.739750
C1901	C190	0.591600	0.674580	0.700680
H1341	H134	0.560900	0.704300	0.672900
C1911	C191	0.582970	0.591980	0.699590
C1921	C192	0.626950	0.547880	0.742220
H1351	H135	0.622300	0.492100	0.742700
C1931	C193	0.678100	0.588370	0.784270
C1941	C194	0.681900	0.671100	0.780560
H1361	H136	0.714700	0.699000	0.808600
N511	N51	0.484660	0.584830	0.612130
H1371	H137	0.478600	0.635900	0.607300
N521	N52	0.527110	0.468730	0.652740
N531	N53	0.405090	0.381170	0.529970
C1951	C195	0.531430	0.547710	0.655510
C1961	C196	0.476500	0.453650	0.604030
C1971	C197	0.449800	0.526490	0.578320
C1981	C198	0.398000	0.526280	0.528470
H1381	H138	0.378000	0.573700	0.511300
C1991	C199	0.377900	0.451710	0.506000
H1391	H139	0.343800	0.449700	0.472500
C2001	C200	0.452500	0.381690	0.577770
H1401	H140	0.470300	0.333100	0.594200
N541	N54	0.773790	0.575110	0.872510
H1411	H141	0.784900	0.625400	0.878300
N551	N55	0.717910	0.462500	0.831350
N561	N56	0.836540	0.364040	0.950820
C2011	C201	0.723600	0.543020	0.828930
C2021	C202	0.768500	0.442940	0.879270
C2031	C203	0.803200	0.512780	0.905260
C2041	C204	0.855000	0.508360	0.955310
H1421	H142	0.878300	0.554000	0.973500
C2051	C205	0.869300	0.431900	0.976070
H1431	H143	0.903500	0.426600	0.009400
C2061	C206	0.788200	0.368640	0.903060
H1441	H144	0.767300	0.321800	0.885400
O291	O29	0.495890	0.734600	0.928010
O301	O30	0.541230	0.793470	0.003370
O311	O31	0.638500	0.209630	0.930990
O321	O32	0.785850	0.173960	0.921980
C2071	C207	0.556500	0.772100	0.956990
C2081	C208	0.645200	0.792400	0.934800
H1451	H145	0.695300	0.786200	0.963100
H1461	H146	0.655800	0.754500	0.906200
C2091	C209	0.647800	0.877550	0.912280
C2101	C210	0.570300	0.925000	0.904150
H1471	H147	0.512800	0.903900	0.910700
C2111	C211	0.575900	0.004500	0.886140
H1481	H148	0.522500	0.035800	0.881500
C2121	C212	0.660100	0.037050	0.875130
C2131	C213	0.737200	0.987600	0.880910
H1491	H149	0.794000	0.007700	0.872400
C2141	C214	0.732000	0.909200	0.899010
H1501	H150	0.785000	0.877300	0.902300
C2151	C215	0.668400	0.123900	0.859260
H1511	H151	0.712800	0.128900	0.832400
H1521	H152	0.608900	0.143400	0.843500
C2161	C216	0.699800	0.173540	0.908160
