data_EVAKOB_charged_PM
_symmetry_space_group_name_H-M	'P1'
_cell_length_a	20.405600
_cell_length_b	20.405600
_cell_length_c	20.405600
_cell_angle_alpha	109.471000
_cell_angle_beta	109.471000
_cell_angle_gamma	109.471000
_symmetry_Int_Tables_number 1

loop_
_symmetry_equiv_pos_as_xyz
'x,y,z'

loop_
_atom_site_label
_atom_site_type_symbol
_atom_site_fract_x
_atom_site_fract_y
_atom_site_fract_z
Cu11	Cu1	0.500000	0.250000	0.750000
Cu21	Cu2	0.500000	0.750000	0.250000
Cu31	Cu3	0.250000	0.500000	0.750000
Cu41	Cu4	0.750000	0.500000	0.250000
Cu51	Cu5	0.750000	0.250000	0.500000
Cu61	Cu6	0.250000	0.750000	0.500000
H11	H1	0.597600	0.166700	0.673500
H21	H2	0.629300	0.245000	0.751100
H31	H3	0.456800	0.369200	0.538800
H41	H4	0.380600	0.287400	0.500000
H51	H5	0.493200	0.924100	0.326500
H61	H6	0.493900	0.878200	0.248900
H71	H7	0.830400	0.918000	0.461200
H81	H8	0.787400	0.880600	0.500000
H91	H9	0.506800	0.833300	0.430900
H101	H10	0.506100	0.755000	0.384300
H111	H11	0.169600	0.630800	0.087600
H121	H12	0.212600	0.712600	0.093200
H131	H13	0.402400	0.075900	0.569100
H141	H14	0.370700	0.121800	0.615700
H151	H15	0.543200	0.082000	0.912400
H161	H16	0.619400	0.119400	0.906800
H171	H17	0.430900	0.506800	0.833300
H181	H18	0.384300	0.506100	0.755000
H191	H19	0.087600	0.169600	0.630800
H201	H20	0.093200	0.212600	0.712600
H211	H21	0.569100	0.402400	0.075900
H221	H22	0.615700	0.370700	0.121800
H231	H23	0.912400	0.543200	0.082000
H241	H24	0.906800	0.619400	0.119400
H251	H25	0.673500	0.597600	0.166700
H261	H26	0.751100	0.629300	0.245000
H271	H27	0.538800	0.456800	0.369200
H281	H28	0.500000	0.380600	0.287400
H291	H29	0.326500	0.493200	0.924100
H301	H30	0.248900	0.493900	0.878200
H311	H31	0.461200	0.830400	0.918000
H321	H32	0.500000	0.787400	0.880600
H331	H33	0.924100	0.326500	0.493200
H341	H34	0.878200	0.248900	0.493900
H351	H35	0.918000	0.461200	0.830400
H361	H36	0.880600	0.500000	0.787400
H371	H37	0.166700	0.673500	0.597600
H381	H38	0.245000	0.751100	0.629300
H391	H39	0.369200	0.538800	0.456800
H401	H40	0.287400	0.500000	0.380600
H411	H41	0.075900	0.569100	0.402400
H421	H42	0.121800	0.615700	0.370700
H431	H43	0.082000	0.912400	0.543200
H441	H44	0.119400	0.906800	0.619400
H451	H45	0.833300	0.430900	0.506800
H461	H46	0.755000	0.384300	0.506100
H471	H47	0.630800	0.087600	0.169600
H481	H48	0.712600	0.093200	0.212600
H491	H49	0.924100	0.493200	0.326500
H501	H50	0.878200	0.493900	0.248900
H511	H51	0.918000	0.830400	0.461200
H521	H52	0.880600	0.787400	0.500000
H531	H53	0.166700	0.597600	0.673500
H541	H54	0.245000	0.629300	0.751100
H551	H55	0.369200	0.456800	0.538800
H561	H56	0.287400	0.380600	0.500000
H571	H57	0.075900	0.402400	0.569100
H581	H58	0.121800	0.370700	0.615700
H591	H59	0.082000	0.543200	0.912400
H601	H60	0.119400	0.619400	0.906800
H611	H61	0.833300	0.506800	0.430900
H621	H62	0.755000	0.506100	0.384300
H631	H63	0.630800	0.169600	0.087600
H641	H64	0.712600	0.212600	0.093200
H651	H65	0.597600	0.673500	0.166700
H661	H66	0.629300	0.751100	0.245000
H671	H67	0.456800	0.538800	0.369200
H681	H68	0.380600	0.500000	0.287400
H691	H69	0.493200	0.326500	0.924100
H701	H70	0.493900	0.248900	0.878200
H711	H71	0.830400	0.461200	0.918000
H721	H72	0.787400	0.500000	0.880600
H731	H73	0.506800	0.430900	0.833300
H741	H74	0.506100	0.384300	0.755000
H751	H75	0.169600	0.087600	0.630800
H761	H76	0.212600	0.093200	0.712600
H771	H77	0.402400	0.569100	0.075900
H781	H78	0.370700	0.615700	0.121800
H791	H79	0.543200	0.912400	0.082000
H801	H80	0.619400	0.906800	0.119400
H811	H81	0.430900	0.833300	0.506800
H821	H82	0.384300	0.755000	0.506100
H831	H83	0.087600	0.630800	0.169600
H841	H84	0.093200	0.712600	0.212600
H851	H85	0.569100	0.075900	0.402400
H861	H86	0.615700	0.121800	0.370700
H871	H87	0.912400	0.082000	0.543200
H881	H88	0.906800	0.119400	0.619400
H891	H89	0.673500	0.166700	0.597600
H901	H90	0.751100	0.245000	0.629300
H911	H91	0.538800	0.369200	0.456800
H921	H92	0.500000	0.287400	0.380600
H931	H93	0.326500	0.924100	0.493200
H941	H94	0.248900	0.878200	0.493900
H951	H95	0.461200	0.918000	0.830400
H961	H96	0.500000	0.880600	0.787400
H971	H97	0.737600	0.238800	0.737600
H981	H98	0.735200	0.313400	0.735200
H991	H99	0.407900	0.318800	0.407900
H1001	H100	0.396200	0.235800	0.396200
H1011	H101	0.501200	0.000000	0.262400
H1021	H102	0.578200	0.000000	0.264800
H1031	H103	0.910900	0.000000	0.592100
H1041	H104	0.839600	0.000000	0.603800
H1051	H105	0.498800	0.761200	0.498800
H1061	H106	0.421800	0.686600	0.421800
H1071	H107	0.089100	0.681200	0.089100
H1081	H108	0.160400	0.764200	0.160400
H1091	H109	0.262400	0.000000	0.501200
H1101	H110	0.264800	0.000000	0.578200
H1111	H111	0.592100	0.000000	0.910900
H1121	H112	0.603800	0.000000	0.839600
H1131	H113	0.498800	0.498800	0.761200
H1141	H114	0.421800	0.421800	0.686600
H1151	H115	0.089100	0.089100	0.681200
H1161	H116	0.160400	0.160400	0.764200
H1171	H117	0.501200	0.262400	0.000000
H1181	H118	0.578200	0.264800	0.000000
H1191	H119	0.910900	0.592100	0.000000
H1201	H120	0.839600	0.603800	0.000000
H1211	H121	0.737600	0.737600	0.238800
H1221	H122	0.735200	0.735200	0.313400
H1231	H123	0.407900	0.407900	0.318800
H1241	H124	0.396200	0.396200	0.235800
H1251	H125	0.262400	0.501200	0.000000
H1261	H126	0.264800	0.578200	0.000000
H1271	H127	0.592100	0.910900	0.000000
H1281	H128	0.603800	0.839600	0.000000
H1291	H129	0.000000	0.262400	0.501200
H1301	H130	0.000000	0.264800	0.578200
H1311	H131	0.000000	0.592100	0.910900
H1321	H132	0.000000	0.603800	0.839600
H1331	H133	0.238800	0.737600	0.737600
H1341	H134	0.313400	0.735200	0.735200
H1351	H135	0.318800	0.407900	0.407900
H1361	H136	0.235800	0.396200	0.396200
H1371	H137	0.000000	0.501200	0.262400
H1381	H138	0.000000	0.578200	0.264800
H1391	H139	0.000000	0.910900	0.592100
H1401	H140	0.000000	0.839600	0.603800
H1411	H141	0.761200	0.498800	0.498800
H1421	H142	0.686600	0.421800	0.421800
H1431	H143	0.681200	0.089100	0.089100
H1441	H144	0.764200	0.160400	0.160400
C11	C1	0.484000	0.290000	0.561200
C21	C2	0.575600	0.247600	0.650600
C31	C3	0.624300	0.224200	0.698900
C41	C4	0.434300	0.312200	0.509100
C51	C5	0.728800	0.922800	0.438800
C61	C6	0.597000	0.925000	0.349400
C71	C7	0.525300	0.925400	0.301100
C81	C8	0.803100	0.925200	0.490900
C91	C9	0.271200	0.710000	0.194000
C101	C10	0.403000	0.752400	0.328000
C111	C11	0.474700	0.775800	0.400100
C121	C12	0.196900	0.687800	0.122100
C131	C13	0.516000	0.077200	0.806000
C141	C14	0.424400	0.075000	0.672000
C151	C15	0.375700	0.074600	0.599900
C161	C16	0.565700	0.074800	0.877900
C171	C17	0.194000	0.271200	0.710000
C181	C18	0.328000	0.403000	0.752400
C191	C19	0.400100	0.474700	0.775800
C201	C20	0.122100	0.196900	0.687800
C211	C21	0.806000	0.516000	0.077200
C221	C22	0.672000	0.424400	0.075000
C231	C23	0.599900	0.375700	0.074600
C241	C24	0.877900	0.565700	0.074800
C251	C25	0.561200	0.484000	0.290000
C261	C26	0.650600	0.575600	0.247600
C271	C27	0.698900	0.624300	0.224200
C281	C28	0.509100	0.434300	0.312200
C291	C29	0.438800	0.728800	0.922800
C301	C30	0.349400	0.597000	0.925000
C311	C31	0.301100	0.525300	0.925400
C321	C32	0.490900	0.803100	0.925200
C331	C33	0.922800	0.438800	0.728800
C341	C34	0.925000	0.349400	0.597000
C351	C35	0.925400	0.301100	0.525300
C361	C36	0.925200	0.490900	0.803100
C371	C37	0.290000	0.561200	0.484000
C381	C38	0.247600	0.650600	0.575600
C391	C39	0.224200	0.698900	0.624300
C401	C40	0.312200	0.509100	0.434300
C411	C41	0.077200	0.806000	0.516000
C421	C42	0.075000	0.672000	0.424400
C431	C43	0.074600	0.599900	0.375700
C441	C44	0.074800	0.877900	0.565700
C451	C45	0.710000	0.194000	0.271200
C461	C46	0.752400	0.328000	0.403000
C471	C47	0.775800	0.400100	0.474700
C481	C48	0.687800	0.122100	0.196900
C491	C49	0.922800	0.728800	0.438800
C501	C50	0.925000	0.597000	0.349400
C511	C51	0.925400	0.525300	0.301100
C521	C52	0.925200	0.803100	0.490900
C531	C53	0.290000	0.484000	0.561200
C541	C54	0.247600	0.575600	0.650600
C551	C55	0.224200	0.624300	0.698900
C561	C56	0.312200	0.434300	0.509100
C571	C57	0.077200	0.516000	0.806000
C581	C58	0.075000	0.424400	0.672000
C591	C59	0.074600	0.375700	0.599900
C601	C60	0.074800	0.565700	0.877900
C611	C61	0.710000	0.271200	0.194000
C621	C62	0.752400	0.403000	0.328000
C631	C63	0.775800	0.474700	0.400100
C641	C64	0.687800	0.196900	0.122100
C651	C65	0.484000	0.561200	0.290000
C661	C66	0.575600	0.650600	0.247600
C671	C67	0.624300	0.698900	0.224200
C681	C68	0.434300	0.509100	0.312200
C691	C69	0.728800	0.438800	0.922800
C701	C70	0.597000	0.349400	0.925000
C711	C71	0.525300	0.301100	0.925400
C721	C72	0.803100	0.490900	0.925200
C731	C73	0.271200	0.194000	0.710000
C741	C74	0.403000	0.328000	0.752400
C751	C75	0.474700	0.400100	0.775800
C761	C76	0.196900	0.122100	0.687800
C771	C77	0.516000	0.806000	0.077200
C781	C78	0.424400	0.672000	0.075000
C791	C79	0.375700	0.599900	0.074600
C801	C80	0.565700	0.877900	0.074800
C811	C81	0.194000	0.710000	0.271200
C821	C82	0.328000	0.752400	0.403000
C831	C83	0.400100	0.775800	0.474700
C841	C84	0.122100	0.687800	0.196900
C851	C85	0.806000	0.077200	0.516000
C861	C86	0.672000	0.075000	0.424400
C871	C87	0.599900	0.074600	0.375700
C881	C88	0.877900	0.074800	0.565700
C891	C89	0.561200	0.290000	0.484000
C901	C90	0.650600	0.247600	0.575600
C911	C91	0.698900	0.224200	0.624300
C921	C92	0.509100	0.312200	0.434300
C931	C93	0.438800	0.922800	0.728800
C941	C94	0.349400	0.925000	0.597000
C951	C95	0.301100	0.925400	0.525300
C961	C96	0.490900	0.925200	0.803100
C971	C97	0.543500	0.277600	0.543500
C981	C98	0.588100	0.255800	0.588100
C991	C99	0.707200	0.255800	0.707200
C1001	C100	0.431300	0.292800	0.431300
C1011	C101	0.734100	0.000000	0.456500
C1021	C102	0.667700	0.000000	0.411900
C1031	C103	0.548600	0.000000	0.292800
C1041	C104	0.861500	0.000000	0.568700
C1051	C105	0.265900	0.722400	0.265900
C1061	C106	0.332300	0.744200	0.332300
C1071	C107	0.451400	0.744200	0.451400
C1081	C108	0.138500	0.707200	0.138500
C1091	C109	0.456500	0.000000	0.734100
C1101	C110	0.411900	0.000000	0.667700
C1111	C111	0.292800	0.000000	0.548600
C1121	C112	0.568700	0.000000	0.861500
C1131	C113	0.265900	0.265900	0.722400
C1141	C114	0.332300	0.332300	0.744200
C1151	C115	0.451400	0.451400	0.744200
C1161	C116	0.138500	0.138500	0.707200
C1171	C117	0.734100	0.456500	0.000000
C1181	C118	0.667700	0.411900	0.000000
C1191	C119	0.548600	0.292800	0.000000
C1201	C120	0.861500	0.568700	0.000000
C1211	C121	0.543500	0.543500	0.277600
C1221	C122	0.588100	0.588100	0.255800
C1231	C123	0.707200	0.707200	0.255800
C1241	C124	0.431300	0.431300	0.292800
C1251	C125	0.456500	0.734100	0.000000
C1261	C126	0.411900	0.667700	0.000000
C1271	C127	0.292800	0.548600	0.000000
C1281	C128	0.568700	0.861500	0.000000
C1291	C129	0.000000	0.456500	0.734100
C1301	C130	0.000000	0.411900	0.667700
C1311	C131	0.000000	0.292800	0.548600
C1321	C132	0.000000	0.568700	0.861500
C1331	C133	0.277600	0.543500	0.543500
C1341	C134	0.255800	0.588100	0.588100
C1351	C135	0.255800	0.707200	0.707200
C1361	C136	0.292800	0.431300	0.431300
C1371	C137	0.000000	0.734100	0.456500
C1381	C138	0.000000	0.667700	0.411900
C1391	C139	0.000000	0.548600	0.292800
C1401	C140	0.000000	0.861500	0.568700
C1411	C141	0.722400	0.265900	0.265900
C1421	C142	0.744200	0.332300	0.332300
C1431	C143	0.744200	0.451400	0.451400
C1441	C144	0.707200	0.138500	0.138500
N11	N1	0.520000	0.258800	0.662600
N21	N2	0.471500	0.278400	0.614700
N31	N3	0.596200	0.857400	0.337400
N41	N4	0.663700	0.856800	0.385300
N51	N5	0.403800	0.741200	0.261200
N61	N6	0.336300	0.721600	0.193100
N71	N7	0.480000	0.142600	0.738800
N81	N8	0.528500	0.143200	0.806900
N91	N9	0.261200	0.403800	0.741200
N101	N10	0.193100	0.336300	0.721600
N111	N11	0.738800	0.480000	0.142600
N121	N12	0.806900	0.528500	0.143200
N131	N13	0.662600	0.520000	0.258800
N141	N14	0.614700	0.471500	0.278400
N151	N15	0.337400	0.596200	0.857400
N161	N16	0.385300	0.663700	0.856800
N171	N17	0.857400	0.337400	0.596200
N181	N18	0.856800	0.385300	0.663700
N191	N19	0.258800	0.662600	0.520000
N201	N20	0.278400	0.614700	0.471500
N211	N21	0.142600	0.738800	0.480000
N221	N22	0.143200	0.806900	0.528500
N231	N23	0.741200	0.261200	0.403800
N241	N24	0.721600	0.193100	0.336300
N251	N25	0.857400	0.596200	0.337400
N261	N26	0.856800	0.663700	0.385300
N271	N27	0.258800	0.520000	0.662600
N281	N28	0.278400	0.471500	0.614700
N291	N29	0.142600	0.480000	0.738800
N301	N30	0.143200	0.528500	0.806900
N311	N31	0.741200	0.403800	0.261200
N321	N32	0.721600	0.336300	0.193100
N331	N33	0.520000	0.662600	0.258800
N341	N34	0.471500	0.614700	0.278400
N351	N35	0.596200	0.337400	0.857400
N361	N36	0.663700	0.385300	0.856800
N371	N37	0.403800	0.261200	0.741200
N381	N38	0.336300	0.193100	0.721600
N391	N39	0.480000	0.738800	0.142600
N401	N40	0.528500	0.806900	0.143200
N411	N41	0.261200	0.741200	0.403800
N421	N42	0.193100	0.721600	0.336300
N431	N43	0.738800	0.142600	0.480000
N441	N44	0.806900	0.143200	0.528500
N451	N45	0.662600	0.258800	0.520000
N461	N46	0.614700	0.278400	0.471500
N471	N47	0.337400	0.857400	0.596200
N481	N48	0.385300	0.856800	0.663700
N491	N49	0.547000	0.547000	0.547000
O11	O1	0.528100	0.528100	0.591200
O21	O2	0.591200	0.528100	0.528100
O31	O3	0.528100	0.591200	0.528100
N501	N50	0.000000	0.000000	0.453000
O41	O4	0.936900	0.936900	0.408800
O51	O5	0.000000	0.063100	0.471900
O61	O6	0.063100	0.000000	0.471900
N511	N51	0.000000	0.453000	0.000000
O71	O7	0.063100	0.471900	0.000000
O81	O8	0.000000	0.471900	0.063100
O91	O9	0.936900	0.408800	0.936900
N521	N52	0.453000	0.000000	0.000000
O101	O10	0.471900	0.063100	0.000000
O111	O11	0.408800	0.936900	0.936900
O121	O12	0.471900	0.000000	0.063100
