data_EVEGUH_freeONLY_PM
_symmetry_space_group_name_H-M	'P1'
_cell_length_a	15.647500
_cell_length_b	15.647500
_cell_length_c	15.647500
_cell_angle_alpha	90.000000
_cell_angle_beta	90.000000
_cell_angle_gamma	90.000000
_symmetry_Int_Tables_number 1

loop_
_symmetry_equiv_pos_as_xyz
'x,y,z'

loop_
_atom_site_label
_atom_site_type_symbol
_atom_site_fract_x
_atom_site_fract_y
_atom_site_fract_z
N11	N1	0.411590	0.822470	0.195200
C11	C1	0.389900	0.902600	0.215900
N21	N2	0.088410	0.677530	0.195200
C21	C2	0.110100	0.597400	0.215900
N31	N3	0.088410	0.822470	0.304800
C31	C3	0.110100	0.902600	0.284100
N41	N4	0.411590	0.677530	0.304800
C41	C4	0.389900	0.597400	0.284100
N51	N5	0.195200	0.411590	0.822470
C51	C5	0.215900	0.389900	0.902600
N61	N6	0.195200	0.088410	0.677530
C61	C6	0.215900	0.110100	0.597400
N71	N7	0.304800	0.088410	0.822470
C71	C7	0.284100	0.110100	0.902600
N81	N8	0.304800	0.411590	0.677530
C81	C8	0.284100	0.389900	0.597400
N91	N9	0.822470	0.195200	0.411590
C91	C9	0.902600	0.215900	0.389900
N101	N10	0.677530	0.195200	0.088410
C101	C10	0.597400	0.215900	0.110100
N111	N11	0.822470	0.304800	0.088410
C111	C11	0.902600	0.284100	0.110100
N121	N12	0.677530	0.304800	0.411590
C121	C12	0.597400	0.284100	0.389900
N131	N13	0.322470	0.911590	0.804800
C131	C13	0.402600	0.889900	0.784100
N141	N14	0.177530	0.588410	0.804800
C141	C14	0.097400	0.610100	0.784100
N151	N15	0.322470	0.588410	0.695200
C151	C15	0.402600	0.610100	0.715900
N161	N16	0.177530	0.911590	0.695200
C161	C16	0.097400	0.889900	0.715900
N171	N17	0.911590	0.695200	0.177530
C171	C17	0.889900	0.715900	0.097400
N181	N18	0.588410	0.695200	0.322470
C181	C18	0.610100	0.715900	0.402600
N191	N19	0.588410	0.804800	0.177530
C191	C19	0.610100	0.784100	0.097400
N201	N20	0.911590	0.804800	0.322470
C201	C20	0.889900	0.784100	0.402600
N211	N21	0.695200	0.322470	0.588410
C211	C21	0.715900	0.402600	0.610100
N221	N22	0.695200	0.177530	0.911590
C221	C22	0.715900	0.097400	0.889900
N231	N23	0.804800	0.322470	0.911590
C231	C23	0.784100	0.402600	0.889900
N241	N24	0.804800	0.177530	0.588410
C241	C24	0.784100	0.097400	0.610100
N251	N25	0.588410	0.177530	0.804800
C251	C25	0.610100	0.097400	0.784100
N261	N26	0.911590	0.322470	0.804800
C261	C26	0.889900	0.402600	0.784100
N271	N27	0.911590	0.177530	0.695200
C271	C27	0.889900	0.097400	0.715900
N281	N28	0.588410	0.322470	0.695200
C281	C28	0.610100	0.402600	0.715900
N291	N29	0.804800	0.588410	0.177530
C291	C29	0.784100	0.610100	0.097400
N301	N30	0.804800	0.911590	0.322470
C301	C30	0.784100	0.889900	0.402600
N311	N31	0.695200	0.911590	0.177530
C311	C31	0.715900	0.889900	0.097400
N321	N32	0.695200	0.588410	0.322470
C321	C32	0.715900	0.610100	0.402600
N331	N33	0.177530	0.804800	0.588410
C331	C33	0.097400	0.784100	0.610100
N341	N34	0.322470	0.804800	0.911590
C341	C34	0.402600	0.784100	0.889900
N351	N35	0.177530	0.695200	0.911590
C351	C35	0.097400	0.715900	0.889900
N361	N36	0.322470	0.695200	0.588410
C361	C36	0.402600	0.715900	0.610100
N371	N37	0.677530	0.088410	0.195200
C371	C37	0.597400	0.110100	0.215900
N381	N38	0.822470	0.411590	0.195200
C381	C38	0.902600	0.389900	0.215900
N391	N39	0.677530	0.411590	0.304800
C391	C39	0.597400	0.389900	0.284100
N401	N40	0.822470	0.088410	0.304800
C401	C40	0.902600	0.110100	0.284100
N411	N41	0.088410	0.304800	0.822470
C411	C41	0.110100	0.284100	0.902600
N421	N42	0.411590	0.304800	0.677530
C421	C42	0.389900	0.284100	0.597400
N431	N43	0.411590	0.195200	0.822470
C431	C43	0.389900	0.215900	0.902600
N441	N44	0.088410	0.195200	0.677530
C441	C44	0.110100	0.215900	0.597400
N451	N45	0.304800	0.677530	0.411590
C451	C45	0.284100	0.597400	0.389900
N461	N46	0.304800	0.822470	0.088410
C461	C46	0.284100	0.902600	0.110100
N471	N47	0.195200	0.677530	0.088410
C471	C47	0.215900	0.597400	0.110100
N481	N48	0.195200	0.822470	0.411590
C481	C48	0.215900	0.902600	0.389900
Cu11	Cu1	0.500000	0.750000	0.250000
Cu21	Cu2	0.000000	0.750000	0.250000
Cu31	Cu3	0.250000	0.500000	0.750000
Cu41	Cu4	0.250000	0.000000	0.750000
Cu51	Cu5	0.750000	0.250000	0.500000
Cu61	Cu6	0.750000	0.250000	0.000000
Cu71	Cu7	0.500000	0.250000	0.750000
Cu81	Cu8	0.000000	0.250000	0.750000
Cu91	Cu9	0.750000	0.500000	0.250000
Cu101	Cu10	0.750000	0.000000	0.250000
Cu111	Cu11	0.250000	0.750000	0.500000
Cu121	Cu12	0.250000	0.750000	0.000000
C491	C49	0.372100	0.782900	0.127900
C501	C50	0.326900	0.947100	0.173100
O11	O1	0.396200	0.712300	0.103800
C511	C51	0.127900	0.717100	0.127900
C521	C52	0.173100	0.552900	0.173100
O21	O2	0.103800	0.787700	0.103800
C531	C53	0.127900	0.782900	0.372100
C541	C54	0.173100	0.947100	0.326900
O31	O3	0.103800	0.712300	0.396200
C551	C55	0.372100	0.717100	0.372100
C561	C56	0.326900	0.552900	0.326900
O41	O4	0.396200	0.787700	0.396200
C571	C57	0.127900	0.372100	0.782900
C581	C58	0.173100	0.326900	0.947100
O51	O5	0.103800	0.396200	0.712300
C591	C59	0.127900	0.127900	0.717100
C601	C60	0.173100	0.173100	0.552900
O61	O6	0.103800	0.103800	0.787700
C611	C61	0.372100	0.127900	0.782900
C621	C62	0.326900	0.173100	0.947100
O71	O7	0.396200	0.103800	0.712300
C631	C63	0.372100	0.372100	0.717100
C641	C64	0.326900	0.326900	0.552900
O81	O8	0.396200	0.396200	0.787700
C651	C65	0.782900	0.127900	0.372100
C661	C66	0.947100	0.173100	0.326900
O91	O9	0.712300	0.103800	0.396200
C671	C67	0.717100	0.127900	0.127900
C681	C68	0.552900	0.173100	0.173100
O101	O10	0.787700	0.103800	0.103800
C691	C69	0.782900	0.372100	0.127900
C701	C70	0.947100	0.326900	0.173100
O111	O11	0.712300	0.396200	0.103800
C711	C71	0.717100	0.372100	0.372100
C721	C72	0.552900	0.326900	0.326900
O121	O12	0.787700	0.396200	0.396200
C731	C73	0.282900	0.872100	0.872100
C741	C74	0.447100	0.826900	0.826900
O131	O13	0.212300	0.896200	0.896200
C751	C75	0.217100	0.627900	0.872100
C761	C76	0.052900	0.673100	0.826900
O141	O14	0.287700	0.603800	0.896200
C771	C77	0.282900	0.627900	0.627900
C781	C78	0.447100	0.673100	0.673100
O151	O15	0.212300	0.603800	0.603800
C791	C79	0.217100	0.872100	0.627900
C801	C80	0.052900	0.826900	0.673100
O161	O16	0.287700	0.896200	0.603800
C811	C81	0.872100	0.627900	0.217100
C821	C82	0.826900	0.673100	0.052900
O171	O17	0.896200	0.603800	0.287700
C831	C83	0.627900	0.627900	0.282900
C841	C84	0.673100	0.673100	0.447100
O181	O18	0.603800	0.603800	0.212300
C851	C85	0.627900	0.872100	0.217100
C861	C86	0.673100	0.826900	0.052900
O191	O19	0.603800	0.896200	0.287700
C871	C87	0.872100	0.872100	0.282900
C881	C88	0.826900	0.826900	0.447100
O201	O20	0.896200	0.896200	0.212300
C891	C89	0.627900	0.282900	0.627900
C901	C90	0.673100	0.447100	0.673100
O211	O21	0.603800	0.212300	0.603800
C911	C91	0.627900	0.217100	0.872100
C921	C92	0.673100	0.052900	0.826900
O221	O22	0.603800	0.287700	0.896200
C931	C93	0.872100	0.282900	0.872100
C941	C94	0.826900	0.447100	0.826900
O231	O23	0.896200	0.212300	0.896200
C951	C95	0.872100	0.217100	0.627900
C961	C96	0.826900	0.052900	0.673100
O241	O24	0.896200	0.287700	0.603800
