data_EVOMOR01_freeONLY_PM
_symmetry_space_group_name_H-M	'P1'
_cell_length_a	8.852000
_cell_length_b	11.686000
_cell_length_c	17.847000
_cell_angle_alpha	90.000000
_cell_angle_beta	90.000000
_cell_angle_gamma	99.670000
_symmetry_Int_Tables_number 1

loop_
_symmetry_equiv_pos_as_xyz
'x,y,z'

loop_
_atom_site_label
_atom_site_type_symbol
_atom_site_fract_x
_atom_site_fract_y
_atom_site_fract_z
Mn11	Mn1	0.794120	0.381270	0.170150
Mn21	Mn2	0.705880	0.618730	0.670150
Mn31	Mn3	0.205880	0.618730	0.829850
Mn41	Mn4	0.294120	0.381270	0.329850
H11	H1	0.980900	0.187000	0.235700
H21	H2	0.983700	0.992700	0.237100
H31	H3	0.616100	0.948400	0.106200
H41	H4	0.623800	0.144100	0.108200
H51	H5	0.951000	0.615200	0.246900
H61	H6	0.958300	0.810800	0.250200
H71	H7	0.635800	0.774700	0.091700
H81	H8	0.637900	0.578900	0.093100
H91	H9	0.719000	0.386200	0.881700
H101	H10	0.885700	0.401400	0.914400
H111	H11	0.883800	0.591900	0.943900
H121	H12	0.707100	0.578800	0.928400
H131	H13	0.480000	0.372000	0.169500
H141	H14	0.548000	0.353000	0.104000
H151	H15	0.519100	0.813000	0.735700
H161	H16	0.516300	0.007300	0.737100
H171	H17	0.883900	0.051600	0.606200
H181	H18	0.876200	0.855900	0.608200
H191	H19	0.549000	0.384800	0.746900
H201	H20	0.541700	0.189200	0.750200
H211	H21	0.864200	0.225300	0.591700
H221	H22	0.862100	0.421100	0.593100
H231	H23	0.781000	0.613800	0.381700
H241	H24	0.614300	0.598600	0.414400
H251	H25	0.616200	0.408100	0.443900
H261	H26	0.792900	0.421200	0.428400
H271	H27	0.020000	0.628000	0.669500
H281	H28	0.952000	0.647000	0.604000
H291	H29	0.019100	0.813000	0.764300
H301	H30	0.016300	0.007300	0.762900
H311	H31	0.383900	0.051600	0.893800
H321	H32	0.376200	0.855900	0.891800
H331	H33	0.049000	0.384800	0.753100
H341	H34	0.041700	0.189200	0.749800
H351	H35	0.364200	0.225300	0.908300
H361	H36	0.362100	0.421100	0.906900
H371	H37	0.281000	0.613800	0.118300
H381	H38	0.114300	0.598600	0.085600
H391	H39	0.116200	0.408100	0.056100
H401	H40	0.292900	0.421200	0.071600
H411	H41	0.520000	0.628000	0.830500
H421	H42	0.452000	0.647000	0.896000
H431	H43	0.480900	0.187000	0.264300
H441	H44	0.483700	0.992700	0.262900
H451	H45	0.116100	0.948400	0.393800
H461	H46	0.123800	0.144100	0.391800
H471	H47	0.451000	0.615200	0.253100
H481	H48	0.458300	0.810800	0.249800
H491	H49	0.135800	0.774700	0.408300
H501	H50	0.137900	0.578900	0.406900
H511	H51	0.219000	0.386200	0.618300
H521	H52	0.385700	0.401400	0.585600
H531	H53	0.383800	0.591900	0.556100
H541	H54	0.207100	0.578800	0.571600
H551	H55	0.980000	0.372000	0.330500
H561	H56	0.048000	0.353000	0.396000
C11	C1	0.905500	0.138400	0.209200
C21	C2	0.907900	0.021100	0.210300
C31	C3	0.799600	0.945700	0.172160
C41	C4	0.692300	0.995100	0.133400
C51	C5	0.697700	0.113300	0.135000
C61	C6	0.886600	0.647700	0.215100
C71	C7	0.891400	0.765800	0.217400
C81	C8	0.797100	0.818100	0.171150
C91	C9	0.701500	0.744600	0.124100
C101	C10	0.703500	0.626500	0.125100
C111	C11	0.721200	0.382700	0.997070
C121	C12	0.785900	0.423900	0.920700
C131	C13	0.801100	0.554000	0.912280
C141	C14	0.833600	0.589000	0.831670
C151	C15	0.594500	0.861600	0.709200
C161	C16	0.592100	0.978900	0.710300
C171	C17	0.700400	0.054300	0.672160
C181	C18	0.807700	0.004900	0.633400
C191	C19	0.802300	0.886700	0.635000
C201	C20	0.613400	0.352300	0.715100
C211	C21	0.608600	0.234200	0.717400
C221	C22	0.702900	0.181900	0.671150
C231	C23	0.798500	0.255400	0.624100
C241	C24	0.796500	0.373500	0.625100
C251	C25	0.778800	0.617300	0.497070
C261	C26	0.714100	0.576100	0.420700
C271	C27	0.698900	0.446000	0.412280
C281	C28	0.666400	0.411000	0.331670
C291	C29	0.094500	0.861600	0.790800
C301	C30	0.092100	0.978900	0.789700
C311	C31	0.200400	0.054300	0.827840
C321	C32	0.307700	0.004900	0.866600
C331	C33	0.302300	0.886700	0.865000
C341	C34	0.113400	0.352300	0.784900
C351	C35	0.108600	0.234200	0.782600
C361	C36	0.202900	0.181900	0.828850
C371	C37	0.298500	0.255400	0.875900
C381	C38	0.296500	0.373500	0.874900
C391	C39	0.278800	0.617300	0.002930
C401	C40	0.214100	0.576100	0.079300
C411	C41	0.198900	0.446000	0.087720
C421	C42	0.166400	0.411000	0.168330
C431	C43	0.405500	0.138400	0.290800
C441	C44	0.407900	0.021100	0.289700
C451	C45	0.299600	0.945700	0.327840
C461	C46	0.192300	0.995100	0.366600
C471	C47	0.197700	0.113300	0.365000
C481	C48	0.386600	0.647700	0.284900
C491	C49	0.391400	0.765800	0.282600
C501	C50	0.297100	0.818100	0.328850
C511	C51	0.201500	0.744600	0.375900
C521	C52	0.203500	0.626500	0.374900
C531	C53	0.221200	0.382700	0.502930
C541	C54	0.285900	0.423900	0.579300
C551	C55	0.301100	0.554000	0.587720
C561	C56	0.333600	0.589000	0.668330
N11	N1	0.801700	0.185900	0.172370
N21	N2	0.794800	0.577800	0.169870
N31	N3	0.698300	0.814100	0.672370
N41	N4	0.705200	0.422200	0.669870
N51	N5	0.198300	0.814100	0.827630
N61	N6	0.205200	0.422200	0.830130
N71	N7	0.301700	0.185900	0.327630
N81	N8	0.294800	0.577800	0.330130
O11	O1	0.816200	0.385800	0.049560
O21	O2	0.581700	0.350900	0.002550
O31	O3	0.725700	0.612100	0.792310
O41	O4	0.965400	0.588000	0.806340
O51	O5	0.549900	0.341400	0.147380
O61	O6	0.683800	0.614200	0.549560
O71	O7	0.918300	0.649100	0.502550
O81	O8	0.774300	0.387900	0.292310
O91	O9	0.534600	0.412000	0.306340
O101	O10	0.950100	0.658600	0.647380
O111	O11	0.183800	0.614200	0.950440
O121	O12	0.418300	0.649100	0.997450
O131	O13	0.274300	0.387900	0.207690
O141	O14	0.034600	0.412000	0.193660
O151	O15	0.450100	0.658600	0.852620
O161	O16	0.316200	0.385800	0.450440
O171	O17	0.081700	0.350900	0.497450
O181	O18	0.225700	0.612100	0.707690
O191	O19	0.465400	0.588000	0.693660
O201	O20	0.049900	0.341400	0.352620
