data_EWECOY_freeONLY_PM
_symmetry_space_group_name_H-M	'P1'
_cell_length_a	15.750000
_cell_length_b	14.501000
_cell_length_c	19.363000
_cell_angle_alpha	90.000000
_cell_angle_beta	113.670000
_cell_angle_gamma	90.000000
_symmetry_Int_Tables_number 1

loop_
_symmetry_equiv_pos_as_xyz
'x,y,z'

loop_
_atom_site_label
_atom_site_type_symbol
_atom_site_fract_x
_atom_site_fract_y
_atom_site_fract_z
Cd11	Cd1	0.206240	0.856870	0.463260
Cd21	Cd2	0.655090	0.300500	0.348240
Cd31	Cd3	0.766990	0.419760	0.215200
N11	N1	0.432600	0.498800	0.287300
O11	O1	0.090900	0.953300	0.385170
O21	O2	0.883400	0.226500	0.106320
O31	O3	0.789900	0.298300	0.148220
O41	O4	0.304700	0.973200	0.501860
O51	O5	0.667500	0.246600	0.476980
O61	O6	0.868400	0.127400	0.460740
O71	O7	0.737100	0.166700	0.364400
O81	O8	0.777800	0.382800	0.414880
O91	O9	0.650100	0.171500	0.728330
O101	O10	0.507900	0.193400	0.720320
O111	O11	0.541700	0.226300	0.372770
O121	O12	0.577600	0.441500	0.346900
O131	O13	0.708600	0.530300	0.272000
O141	O14	0.847500	0.371400	0.334930
O151	O15	0.103900	0.991000	0.277380
O161	O16	0.314900	0.996100	0.390920
C11	C1	0.068300	0.996500	0.325100
C21	C2	0.987300	0.062300	0.305400
C31	C3	0.850800	0.235800	0.154600
C41	C4	0.881400	0.174900	0.222900
C51	C5	0.956500	0.114600	0.239600
C61	C6	0.585000	0.218100	0.443200
C71	C7	0.536200	0.176400	0.487900
C81	C8	0.570900	0.192500	0.565500
C91	C9	0.525300	0.154700	0.607400
C101	C10	0.338200	0.011400	0.460200
C111	C11	0.415200	0.080100	0.495800
C121	C12	0.458300	0.120200	0.453400
C131	C13	0.821000	0.143200	0.391600
C141	C14	0.868300	0.130300	0.338400
C151	C15	0.944500	0.072300	0.355700
C161	C16	0.834400	0.180400	0.270300
C171	C17	0.844300	0.397300	0.395400
C181	C18	0.925200	0.450300	0.449600
C191	C19	0.985600	0.494400	0.423900
C201	C20	0.939200	0.456400	0.526000
C211	C21	0.562200	0.174300	0.690300
C221	C22	0.490800	0.432300	0.322800
C231	C23	0.463100	0.586500	0.272900
C241	C24	0.332400	0.480600	0.256600
C251	C25	0.447500	0.099400	0.573100
Cd41	Cd4	0.793760	0.356870	0.036740
Cd51	Cd5	0.344910	0.800500	0.151760
Cd61	Cd6	0.233010	0.919760	0.284800
N21	N2	0.567400	0.998800	0.212700
O171	O17	0.909100	0.453300	0.114830
O181	O18	0.116600	0.726500	0.393680
O191	O19	0.210100	0.798300	0.351780
O201	O20	0.695300	0.473200	0.998140
O211	O21	0.332500	0.746600	0.023020
O221	O22	0.131600	0.627400	0.039260
O231	O23	0.262900	0.666700	0.135600
O241	O24	0.222200	0.882800	0.085120
O251	O25	0.349900	0.671500	0.771670
O261	O26	0.492100	0.693400	0.779680
O271	O27	0.458300	0.726300	0.127230
O281	O28	0.422400	0.941500	0.153100
O291	O29	0.291400	0.030300	0.228000
O301	O30	0.152500	0.871400	0.165070
O311	O31	0.896100	0.491000	0.222620
O321	O32	0.685100	0.496100	0.109080
C261	C26	0.931700	0.496500	0.174900
C271	C27	0.012700	0.562300	0.194600
C281	C28	0.149200	0.735800	0.345400
C291	C29	0.118600	0.674900	0.277100
C301	C30	0.043500	0.614600	0.260400
C311	C31	0.415000	0.718100	0.056800
C321	C32	0.463800	0.676400	0.012100
C331	C33	0.429100	0.692500	0.934500
C341	C34	0.474700	0.654700	0.892600
C351	C35	0.661800	0.511400	0.039800
C361	C36	0.584800	0.580100	0.004200
C371	C37	0.541700	0.620200	0.046600
C381	C38	0.179000	0.643200	0.108400
C391	C39	0.131700	0.630300	0.161600
C401	C40	0.055500	0.572300	0.144300
C411	C41	0.165600	0.680400	0.229700
C421	C42	0.155700	0.897300	0.104600
C431	C43	0.074800	0.950300	0.050400
C441	C44	0.014400	0.994400	0.076100
C451	C45	0.060800	0.956400	0.974000
C461	C46	0.437800	0.674300	0.809700
C471	C47	0.509200	0.932300	0.177200
C481	C48	0.536900	0.086500	0.227100
C491	C49	0.667600	0.980600	0.243400
C501	C50	0.552500	0.599400	0.926900
Cd71	Cd7	0.793760	0.143130	0.536740
Cd81	Cd8	0.344910	0.699500	0.651760
Cd91	Cd9	0.233010	0.580240	0.784800
N31	N3	0.567400	0.501200	0.712700
O331	O33	0.909100	0.046700	0.614830
O341	O34	0.116600	0.773500	0.893680
O351	O35	0.210100	0.701700	0.851780
O361	O36	0.695300	0.026800	0.498140
O371	O37	0.332500	0.753400	0.523020
O381	O38	0.131600	0.872600	0.539260
O391	O39	0.262900	0.833300	0.635600
O401	O40	0.222200	0.617200	0.585120
O411	O41	0.349900	0.828500	0.271670
O421	O42	0.492100	0.806600	0.279680
O431	O43	0.458300	0.773700	0.627230
O441	O44	0.422400	0.558500	0.653100
O451	O45	0.291400	0.469700	0.728000
O461	O46	0.152500	0.628600	0.665070
O471	O47	0.896100	0.009000	0.722620
O481	O48	0.685100	0.003900	0.609080
C511	C51	0.931700	0.003500	0.674900
C521	C52	0.012700	0.937700	0.694600
C531	C53	0.149200	0.764200	0.845400
C541	C54	0.118600	0.825100	0.777100
C551	C55	0.043500	0.885400	0.760400
C561	C56	0.415000	0.781900	0.556800
C571	C57	0.463800	0.823600	0.512100
C581	C58	0.429100	0.807500	0.434500
C591	C59	0.474700	0.845300	0.392600
C601	C60	0.661800	0.988600	0.539800
C611	C61	0.584800	0.919900	0.504200
C621	C62	0.541700	0.879800	0.546600
C631	C63	0.179000	0.856800	0.608400
C641	C64	0.131700	0.869700	0.661600
C651	C65	0.055500	0.927700	0.644300
C661	C66	0.165600	0.819600	0.729700
C671	C67	0.155700	0.602700	0.604600
C681	C68	0.074800	0.549700	0.550400
C691	C69	0.014400	0.505600	0.576100
C701	C70	0.060800	0.543600	0.474000
C711	C71	0.437800	0.825700	0.309700
C721	C72	0.509200	0.567700	0.677200
C731	C73	0.536900	0.413500	0.727100
C741	C74	0.667600	0.519400	0.743400
C751	C75	0.552500	0.900600	0.426900
Cd101	Cd10	0.206240	0.643130	0.963260
Cd111	Cd11	0.655090	0.199500	0.848240
Cd121	Cd12	0.766990	0.080240	0.715200
N41	N4	0.432600	0.001200	0.787300
O491	O49	0.090900	0.546700	0.885170
O501	O50	0.883400	0.273500	0.606320
O511	O51	0.789900	0.201700	0.648220
O521	O52	0.304700	0.526800	0.001860
O531	O53	0.667500	0.253400	0.976980
O541	O54	0.868400	0.372600	0.960740
O551	O55	0.737100	0.333300	0.864400
O561	O56	0.777800	0.117200	0.914880
O571	O57	0.650100	0.328500	0.228330
O581	O58	0.507900	0.306600	0.220320
O591	O59	0.541700	0.273700	0.872770
O601	O60	0.577600	0.058500	0.846900
O611	O61	0.708600	0.969700	0.772000
O621	O62	0.847500	0.128600	0.834930
O631	O63	0.103900	0.509000	0.777380
O641	O64	0.314900	0.503900	0.890920
C761	C76	0.068300	0.503500	0.825100
C771	C77	0.987300	0.437700	0.805400
C781	C78	0.850800	0.264200	0.654600
C791	C79	0.881400	0.325100	0.722900
C801	C80	0.956500	0.385400	0.739600
C811	C81	0.585000	0.281900	0.943200
C821	C82	0.536200	0.323600	0.987900
C831	C83	0.570900	0.307500	0.065500
C841	C84	0.525300	0.345300	0.107400
C851	C85	0.338200	0.488600	0.960200
C861	C86	0.415200	0.419900	0.995800
C871	C87	0.458300	0.379800	0.953400
C881	C88	0.821000	0.356800	0.891600
C891	C89	0.868300	0.369700	0.838400
C901	C90	0.944500	0.427700	0.855700
C911	C91	0.834400	0.319600	0.770300
C921	C92	0.844300	0.102700	0.895400
C931	C93	0.925200	0.049700	0.949600
C941	C94	0.985600	0.005600	0.923900
C951	C95	0.939200	0.043600	0.026000
C961	C96	0.562200	0.325700	0.190300
C971	C97	0.490800	0.067700	0.822800
C981	C98	0.463100	0.913500	0.772900
C991	C99	0.332400	0.019400	0.756600
C1001	C100	0.447500	0.400600	0.073100
