data_EWIDUK_SL_PM
_symmetry_space_group_name_H-M	'P1'
_cell_length_a	14.753300
_cell_length_b	14.753300
_cell_length_c	14.753300
_cell_angle_alpha	109.471000
_cell_angle_beta	109.471000
_cell_angle_gamma	109.471000
_symmetry_Int_Tables_number 1

loop_
_symmetry_equiv_pos_as_xyz
'x,y,z'

loop_
_atom_site_label
_atom_site_type_symbol
_atom_site_fract_x
_atom_site_fract_y
_atom_site_fract_z
Zn11	Zn1	0.750000	0.250000	0.500000
Zn21	Zn2	0.250000	0.750000	0.500000
Zn31	Zn3	0.500000	0.250000	0.750000
Zn41	Zn4	0.500000	0.750000	0.250000
Zn51	Zn5	0.250000	0.500000	0.750000
Zn61	Zn6	0.750000	0.500000	0.250000
C71	C7	0.677200	0.212840	0.269260
C81	C8	0.943580	0.407940	0.730740
C91	C9	0.056420	0.787160	0.464360
C101	C10	0.322800	0.592060	0.535640
C111	C11	0.464360	0.056420	0.787160
C121	C12	0.535640	0.322800	0.592060
C131	C13	0.269260	0.677200	0.212840
C141	C14	0.730740	0.943580	0.407940
C151	C15	0.407940	0.730740	0.943580
C161	C16	0.212840	0.269260	0.677200
C171	C17	0.592060	0.535640	0.322800
C181	C18	0.787160	0.464360	0.056420
C191	C19	0.407940	0.943580	0.730740
C201	C20	0.212840	0.677200	0.269260
C211	C21	0.592060	0.322800	0.535640
C221	C22	0.787160	0.056420	0.464360
C231	C23	0.677200	0.269260	0.212840
C241	C24	0.943580	0.730740	0.407940
C251	C25	0.056420	0.464360	0.787160
C261	C26	0.322800	0.535640	0.592060
C271	C27	0.464360	0.787160	0.056420
C281	C28	0.535640	0.592060	0.322800
C291	C29	0.269260	0.212840	0.677200
C301	C30	0.730740	0.407940	0.943580
C311	C31	0.813440	0.493330	0.493330
C321	C32	0.755960	0.386890	0.386890
C331	C33	0.000000	0.320110	0.506670
C341	C34	0.000000	0.369070	0.613110
C351	C35	0.000000	0.506670	0.320110
C361	C36	0.000000	0.613110	0.369070
C371	C37	0.186560	0.679890	0.679890
C381	C38	0.244040	0.630930	0.630930
C391	C39	0.320110	0.000000	0.506670
C401	C40	0.369070	0.000000	0.613110
C411	C41	0.679890	0.186560	0.679890
C421	C42	0.630930	0.244040	0.630930
C431	C43	0.493330	0.813440	0.493330
C441	C44	0.386890	0.755960	0.386890
C451	C45	0.506670	0.000000	0.320110
C461	C46	0.613110	0.000000	0.369070
C471	C47	0.320110	0.506670	0.000000
C481	C48	0.369070	0.613110	0.000000
C491	C49	0.493330	0.493330	0.813440
C501	C50	0.386890	0.386890	0.755960
C511	C51	0.679890	0.679890	0.186560
C521	C52	0.630930	0.630930	0.244040
C531	C53	0.506670	0.320110	0.000000
C541	C54	0.613110	0.369070	0.000000
N551	N55	0.727170	0.287380	0.379790
N561	N56	0.907590	0.347380	0.620210
N571	N57	0.092410	0.712620	0.439790
N581	N58	0.272830	0.652620	0.560210
N591	N59	0.439790	0.092410	0.712620
N601	N60	0.560210	0.272830	0.652620
N611	N61	0.379790	0.727170	0.287380
N621	N62	0.620210	0.907590	0.347380
N631	N63	0.347380	0.620210	0.907590
N641	N64	0.287380	0.379790	0.727170
N651	N65	0.652620	0.560210	0.272830
N661	N66	0.712620	0.439790	0.092410
N671	N67	0.347380	0.907590	0.620210
N681	N68	0.287380	0.727170	0.379790
N691	N69	0.652620	0.272830	0.560210
N701	N70	0.712620	0.092410	0.439790
N711	N71	0.727170	0.379790	0.287380
N721	N72	0.907590	0.620210	0.347380
N731	N73	0.092410	0.439790	0.712620
N741	N74	0.272830	0.560210	0.652620
N751	N75	0.439790	0.712620	0.092410
N761	N76	0.560210	0.652620	0.272830
N771	N77	0.379790	0.287380	0.727170
N781	N78	0.620210	0.347380	0.907590
H791	H79	0.639210	0.118840	0.222570
H801	H80	0.896260	0.416640	0.777430
H811	H81	0.360790	0.583360	0.479620
H821	H82	0.520380	0.103740	0.881160
H831	H83	0.479620	0.360790	0.583360
H841	H84	0.222570	0.639210	0.118840
H851	H85	0.777430	0.896260	0.416640
H861	H86	0.416640	0.777430	0.896260
H871	H87	0.118840	0.222570	0.639210
H881	H88	0.583360	0.479620	0.360790
H891	H89	0.881160	0.520380	0.103740
H901	H90	0.118840	0.639210	0.222570
H911	H91	0.583360	0.360790	0.479620
H921	H92	0.881160	0.103740	0.520380
H931	H93	0.639210	0.222570	0.118840
H941	H94	0.896260	0.777430	0.416640
H951	H95	0.103740	0.520380	0.881160
H961	H96	0.360790	0.479620	0.583360
H971	H97	0.520380	0.881160	0.103740
H981	H98	0.479620	0.583360	0.360790
H991	H99	0.222570	0.118840	0.639210
H1001	H100	0.777430	0.416640	0.896260
H1011	H101	0.862040	0.565110	0.484540
H1021	H102	0.872900	0.489490	0.562980
H1031	H103	0.749250	0.506620	0.513690
H1041	H104	0.051800	0.389550	0.497120
H1051	H105	0.911190	0.269830	0.434200
H1061	H106	0.037010	0.263580	0.507460
H1071	H107	0.023480	0.501260	0.253040
H1081	H108	0.913710	0.433830	0.282020
H1091	H109	0.062810	0.503690	0.387910
H1101	H110	0.127100	0.616600	0.690090
H1111	H111	0.137960	0.703070	0.622510
H1121	H112	0.250750	0.757360	0.764440
H1131	H113	0.302380	0.922180	0.435650
H1141	H114	0.381140	0.076700	0.512690
H1151	H115	0.239450	0.001120	0.490440
H1161	H116	0.737520	0.172590	0.648300
H1171	H117	0.610520	0.103150	0.654490
H1181	H118	0.729000	0.240080	0.774240
H1191	H119	0.562330	0.875280	0.490770
H1201	H120	0.515380	0.749540	0.505000
H1211	H121	0.483510	0.859360	0.565450
H1221	H122	0.433920	0.914620	0.284920
H1231	H123	0.499750	0.020270	0.250810
H1241	H124	0.505120	0.065120	0.387230
H1251	H125	0.389480	0.492630	0.043980
H1261	H126	0.262480	0.435070	0.910780
H1271	H127	0.271000	0.511080	0.045240
H1281	H128	0.500260	0.520520	0.751070
H1291	H129	0.566080	0.480700	0.851010
H1301	H130	0.494880	0.560000	0.882110
H1311	H131	0.618860	0.695570	0.131550
H1321	H132	0.697620	0.619800	0.133270
H1331	H133	0.760550	0.761670	0.250990
H1341	H134	0.484620	0.234160	0.989630
H1351	H135	0.437670	0.312950	0.928440
H1361	H136	0.516490	0.375850	0.081930
H1371	H137	0.416640	0.896260	0.777430
H1381	H138	0.103740	0.881160	0.520380
