data_EWUGEK_freeONLY_PM
_symmetry_space_group_name_H-M	'P1'
_cell_length_a	30.353000
_cell_length_b	4.859500
_cell_length_c	18.323000
_cell_angle_alpha	90.000000
_cell_angle_beta	118.123000
_cell_angle_gamma	90.000000
_symmetry_Int_Tables_number 1

loop_
_symmetry_equiv_pos_as_xyz
'x,y,z'

loop_
_atom_site_label
_atom_site_type_symbol
_atom_site_fract_x
_atom_site_fract_y
_atom_site_fract_z
C11	C1	0.828700	0.288000	0.092300
C21	C2	0.880600	0.151000	0.140100
H11	H1	0.876200	0.950600	0.136400
C31	C3	0.911800	0.232000	0.097500
H21	H2	0.896200	0.158600	0.041800
H31	H3	0.912200	0.431400	0.093600
C41	C4	0.965000	0.127000	0.144500
H41	H4	0.965100	0.927700	0.140100
H51	H5	0.984700	0.201300	0.119900
C51	C5	0.960100	0.112000	0.273100
H61	H6	0.977100	0.168000	0.330600
H71	H7	0.958300	0.912400	0.271200
C61	C6	0.907300	0.233000	0.230700
H81	H8	0.888700	0.165800	0.258000
H91	H9	0.909200	0.431500	0.235300
C71	C7	0.021700	0.407000	0.262300
C81	C8	0.074300	0.675000	0.371000
C91	C9	0.075400	0.701000	0.250000
C101	C10	0.175600	0.734000	0.712600
C111	C11	0.137000	0.826000	0.626400
H101	H10	0.123000	0.000900	0.632200
C121	C12	0.164700	0.879000	0.576000
H111	H11	0.182400	0.714100	0.575300
H121	H12	0.189200	0.024000	0.602500
C131	C13	0.128600	0.965000	0.486100
H131	H13	0.114700	0.145500	0.485800
H141	H14	0.146500	0.975800	0.454200
C141	C14	0.060300	0.711000	0.491700
H151	H15	0.036900	0.562400	0.464100
H161	H16	0.041200	0.873300	0.490000
C151	C15	0.094600	0.631000	0.581400
H171	H17	0.075000	0.621200	0.610500
H181	H18	0.108100	0.449400	0.582500
C161	C16	0.200200	0.735000	0.116900
C171	C17	0.158400	0.858000	0.128500
H191	H19	0.149600	0.036000	0.099900
C181	C18	0.113200	0.684000	0.093700
H201	H20	0.123000	0.496300	0.112500
H211	H21	0.098700	0.684300	0.033900
C191	C19	0.074000	0.774000	0.117000
H221	H22	0.058200	0.940900	0.087200
H231	H23	0.048500	0.632600	0.100700
C201	C20	0.135600	0.012000	0.240000
H241	H24	0.147500	0.022200	0.299200
H251	H25	0.124800	0.193500	0.216700
C211	C21	0.177700	0.910000	0.222700
H261	H26	0.191600	0.741400	0.253000
H271	H27	0.204100	0.046900	0.242100
N11	N1	0.987800	0.206000	0.232000
N21	N2	0.035600	0.493000	0.340600
N31	N3	0.096400	0.771000	0.330700
N41	N4	0.039700	0.514000	0.213100
N51	N5	0.088700	0.766000	0.449200
N61	N6	0.094900	0.822000	0.203500
O11	O1	0.824700	0.526000	0.101800
O21	O2	0.793300	0.128000	0.042600
O31	O3	0.188100	0.474000	0.712300
H281	H28	0.209200	0.463800	0.696400
O41	O4	0.190000	0.868000	0.773400
O51	O5	0.240000	0.866000	0.137000
O61	O6	0.196100	0.495000	0.090300
Cd11	Cd1	0.759380	0.780000	0.086130
C221	C22	0.328700	0.788000	0.092300
C231	C23	0.380600	0.651000	0.140100
H291	H29	0.376200	0.450600	0.136400
C241	C24	0.411800	0.732000	0.097500
H301	H30	0.396200	0.658600	0.041800
H311	H31	0.412200	0.931400	0.093600
C251	C25	0.465000	0.627000	0.144500
H321	H32	0.465100	0.427700	0.140100
H331	H33	0.484700	0.701300	0.119900
C261	C26	0.460100	0.612000	0.273100
H341	H34	0.477100	0.668000	0.330600
H351	H35	0.458300	0.412400	0.271200
C271	C27	0.407300	0.733000	0.230700
H361	H36	0.388700	0.665800	0.258000
H371	H37	0.409200	0.931500	0.235300
C281	C28	0.521700	0.907000	0.262300
C291	C29	0.574300	0.175000	0.371000
C301	C30	0.575400	0.201000	0.250000
C311	C31	0.675600	0.234000	0.712600
C321	C32	0.637000	0.326000	0.626400
H381	H38	0.623000	0.500900	0.632200
C331	C33	0.664700	0.379000	0.576000
H391	H39	0.682400	0.214100	0.575300
H401	H40	0.689200	0.524000	0.602500
C341	C34	0.628600	0.465000	0.486100
H411	H41	0.614700	0.645500	0.485800
H421	H42	0.646500	0.475800	0.454200
C351	C35	0.560300	0.211000	0.491700
H431	H43	0.536900	0.062400	0.464100
H441	H44	0.541200	0.373300	0.490000
C361	C36	0.594600	0.131000	0.581400
H451	H45	0.575000	0.121200	0.610500
H461	H46	0.608100	0.949400	0.582500
C371	C37	0.700200	0.235000	0.116900
C381	C38	0.658400	0.358000	0.128500
H471	H47	0.649600	0.536000	0.099900
C391	C39	0.613200	0.184000	0.093700
H481	H48	0.623000	0.996300	0.112500
H491	H49	0.598700	0.184300	0.033900
C401	C40	0.574000	0.274000	0.117000
H501	H50	0.558200	0.440900	0.087200
H511	H51	0.548500	0.132600	0.100700
C411	C41	0.635600	0.512000	0.240000
H521	H52	0.647500	0.522200	0.299200
H531	H53	0.624800	0.693500	0.216700
C421	C42	0.677700	0.410000	0.222700
H541	H54	0.691600	0.241400	0.253000
H551	H55	0.704100	0.546900	0.242100
N71	N7	0.487800	0.706000	0.232000
N81	N8	0.535600	0.993000	0.340600
N91	N9	0.596400	0.271000	0.330700
N101	N10	0.539700	0.014000	0.213100
N111	N11	0.588700	0.266000	0.449200
N121	N12	0.594900	0.322000	0.203500
O71	O7	0.324700	0.026000	0.101800
O81	O8	0.293300	0.628000	0.042600
O91	O9	0.688100	0.974000	0.712300
H561	H56	0.709200	0.963800	0.696400
O101	O10	0.690000	0.368000	0.773400
O111	O11	0.740000	0.366000	0.137000
O121	O12	0.696100	0.995000	0.090300
Cd21	Cd2	0.259380	0.280000	0.086130
C431	C43	0.171300	0.288000	0.907700
C441	C44	0.119400	0.151000	0.859900
H571	H57	0.123800	0.950600	0.863600
C451	C45	0.088200	0.232000	0.902500
H581	H58	0.103800	0.158600	0.958200
H591	H59	0.087800	0.431400	0.906400
C461	C46	0.035000	0.127000	0.855500
H601	H60	0.034900	0.927700	0.859900
H611	H61	0.015300	0.201300	0.880100
C471	C47	0.039900	0.112000	0.726900
H621	H62	0.022900	0.168000	0.669400
H631	H63	0.041700	0.912400	0.728800
C481	C48	0.092700	0.233000	0.769300
H641	H64	0.111300	0.165800	0.742000
H651	H65	0.090800	0.431500	0.764700
C491	C49	0.978300	0.407000	0.737700
C501	C50	0.925700	0.675000	0.629000
C511	C51	0.924600	0.701000	0.750000
C521	C52	0.824400	0.734000	0.287400
C531	C53	0.863000	0.826000	0.373600
H661	H66	0.877000	0.000900	0.367800
C541	C54	0.835300	0.879000	0.424000
H671	H67	0.817600	0.714100	0.424700
H681	H68	0.810800	0.024000	0.397500
C551	C55	0.871400	0.965000	0.513900
H691	H69	0.885300	0.145500	0.514200
H701	H70	0.853500	0.975800	0.545800
C561	C56	0.939700	0.711000	0.508300
H711	H71	0.963100	0.562400	0.535900
H721	H72	0.958800	0.873300	0.510000
C571	C57	0.905400	0.631000	0.418600
H731	H73	0.925000	0.621200	0.389500
H741	H74	0.891900	0.449400	0.417500
C581	C58	0.799800	0.735000	0.883100
C591	C59	0.841600	0.858000	0.871500
H751	H75	0.850400	0.036000	0.900100
C601	C60	0.886800	0.684000	0.906300
H761	H76	0.877000	0.496300	0.887500
H771	H77	0.901300	0.684300	0.966100
C611	C61	0.926000	0.774000	0.883000
H781	H78	0.941800	0.940900	0.912800
H791	H79	0.951500	0.632600	0.899300
C621	C62	0.864400	0.012000	0.760000
H801	H80	0.852500	0.022200	0.700800
H811	H81	0.875200	0.193500	0.783300
C631	C63	0.822300	0.910000	0.777300
H821	H82	0.808400	0.741400	0.747000
H831	H83	0.795900	0.046900	0.757900
N131	N13	0.012200	0.206000	0.768000
N141	N14	0.964400	0.493000	0.659400
N151	N15	0.903600	0.771000	0.669300
N161	N16	0.960300	0.514000	0.786900
N171	N17	0.911300	0.766000	0.550800
N181	N18	0.905100	0.822000	0.796500
O131	O13	0.175300	0.526000	0.898200
O141	O14	0.206700	0.128000	0.957400
O151	O15	0.811900	0.474000	0.287700
H841	H84	0.790800	0.463800	0.303600
O161	O16	0.810000	0.868000	0.226600
O171	O17	0.760000	0.866000	0.863000
O181	O18	0.803900	0.495000	0.909700
Cd31	Cd3	0.240620	0.780000	0.913870
C641	C64	0.671300	0.788000	0.907700
C651	C65	0.619400	0.651000	0.859900
H851	H85	0.623800	0.450600	0.863600
C661	C66	0.588200	0.732000	0.902500
H861	H86	0.603800	0.658600	0.958200
H871	H87	0.587800	0.931400	0.906400
C671	C67	0.535000	0.627000	0.855500
H881	H88	0.534900	0.427700	0.859900
H891	H89	0.515300	0.701300	0.880100
C681	C68	0.539900	0.612000	0.726900
H901	H90	0.522900	0.668000	0.669400
H911	H91	0.541700	0.412400	0.728800
C691	C69	0.592700	0.733000	0.769300
H921	H92	0.611300	0.665800	0.742000
H931	H93	0.590800	0.931500	0.764700
C701	C70	0.478300	0.907000	0.737700
C711	C71	0.425700	0.175000	0.629000
C721	C72	0.424600	0.201000	0.750000
C731	C73	0.324400	0.234000	0.287400
C741	C74	0.363000	0.326000	0.373600
H941	H94	0.377000	0.500900	0.367800
C751	C75	0.335300	0.379000	0.424000
H951	H95	0.317600	0.214100	0.424700
H961	H96	0.310800	0.524000	0.397500
C761	C76	0.371400	0.465000	0.513900
H971	H97	0.385300	0.645500	0.514200
H981	H98	0.353500	0.475800	0.545800
C771	C77	0.439700	0.211000	0.508300
H991	H99	0.463100	0.062400	0.535900
H1001	H100	0.458800	0.373300	0.510000
C781	C78	0.405400	0.131000	0.418600
H1011	H101	0.425000	0.121200	0.389500
H1021	H102	0.391900	0.949400	0.417500
C791	C79	0.299800	0.235000	0.883100
C801	C80	0.341600	0.358000	0.871500
H1031	H103	0.350400	0.536000	0.900100
C811	C81	0.386800	0.184000	0.906300
H1041	H104	0.377000	0.996300	0.887500
H1051	H105	0.401300	0.184300	0.966100
C821	C82	0.426000	0.274000	0.883000
H1061	H106	0.441800	0.440900	0.912800
H1071	H107	0.451500	0.132600	0.899300
C831	C83	0.364400	0.512000	0.760000
H1081	H108	0.352500	0.522200	0.700800
H1091	H109	0.375200	0.693500	0.783300
C841	C84	0.322300	0.410000	0.777300
H1101	H110	0.308400	0.241400	0.747000
H1111	H111	0.295900	0.546900	0.757900
N191	N19	0.512200	0.706000	0.768000
N201	N20	0.464400	0.993000	0.659400
N211	N21	0.403600	0.271000	0.669300
N221	N22	0.460300	0.014000	0.786900
N231	N23	0.411300	0.266000	0.550800
N241	N24	0.405100	0.322000	0.796500
O191	O19	0.675300	0.026000	0.898200
O201	O20	0.706700	0.628000	0.957400
O211	O21	0.311900	0.974000	0.287700
H1121	H112	0.290800	0.963800	0.303600
O221	O22	0.310000	0.368000	0.226600
O231	O23	0.260000	0.366000	0.863000
O241	O24	0.303900	0.995000	0.909700
Cd41	Cd4	0.740620	0.280000	0.913870
