data_EXEMUR_freeONLY_PM
_symmetry_space_group_name_H-M	'P1'
_cell_length_a	18.196000
_cell_length_b	18.196000
_cell_length_c	15.127000
_cell_angle_alpha	90.000000
_cell_angle_beta	90.000000
_cell_angle_gamma	120.000000
_symmetry_Int_Tables_number 1

loop_
_symmetry_equiv_pos_as_xyz
'x,y,z'

loop_
_atom_site_label
_atom_site_type_symbol
_atom_site_fract_x
_atom_site_fract_y
_atom_site_fract_z
C11	C1	0.056700	0.324800	0.821900
C21	C2	0.966100	0.271600	0.853300
C31	C3	0.941400	0.198100	0.899700
H11	H1	0.981700	0.181300	0.913700
C41	C4	0.909200	0.297600	0.838600
H21	H2	0.926600	0.349800	0.808900
C51	C5	0.857500	0.148400	0.926200
H31	H3	0.839800	0.096800	0.957200
C61	C6	0.826000	0.249000	0.866500
H41	H4	0.786700	0.268100	0.856700
C71	C7	0.800800	0.174500	0.907400
C81	C8	0.678500	0.152300	0.989800
H51	H5	0.712100	0.208600	0.011400
C91	C9	0.668600	0.041500	0.911400
H61	H6	0.695300	0.017000	0.878200
C101	C10	0.596200	0.105200	0.017100
H71	H7	0.574400	0.128400	0.058900
C111	C11	0.584500	0.992800	0.935000
H81	H8	0.553000	0.935500	0.915900
C121	C12	0.545300	0.026000	0.985700
N11	N1	0.712300	0.122500	0.935100
O11	O1	0.113900	0.315100	0.854700
O21	O2	0.071800	0.377200	0.763300
Cl11	Cl1	0.229700	0.540430	0.646070
C131	C13	0.675200	0.731900	0.821900
C141	C14	0.728400	0.694500	0.853300
C151	C15	0.801900	0.743300	0.899700
H91	H9	0.818700	0.800400	0.913700
C161	C16	0.702400	0.611600	0.838600
H101	H10	0.650200	0.576800	0.808900
C171	C17	0.851600	0.709100	0.926200
H111	H11	0.903200	0.743000	0.957200
C181	C18	0.751000	0.577000	0.866500
H121	H12	0.731900	0.518600	0.856700
C191	C19	0.825500	0.626300	0.907400
C201	C20	0.847700	0.526200	0.989800
H131	H13	0.791400	0.503500	0.011400
C211	C21	0.958500	0.627100	0.911400
H141	H14	0.983000	0.678300	0.878200
C221	C22	0.894800	0.491000	0.017100
H151	H15	0.871600	0.446000	0.058900
C231	C23	0.007200	0.591700	0.935000
H161	H16	0.064500	0.617500	0.915900
C241	C24	0.974000	0.519300	0.985700
N21	N2	0.877500	0.589800	0.935100
O31	O3	0.684900	0.798800	0.854700
O41	O4	0.622800	0.694600	0.763300
Cl21	Cl2	0.459570	0.689270	0.646070
C251	C25	0.268100	0.943300	0.821900
C261	C26	0.305500	0.033900	0.853300
C271	C27	0.256700	0.058600	0.899700
H171	H17	0.199600	0.018300	0.913700
C281	C28	0.388400	0.090800	0.838600
H181	H18	0.423200	0.073400	0.808900
C291	C29	0.290900	0.142500	0.926200
H191	H19	0.257000	0.160200	0.957200
C301	C30	0.423000	0.174000	0.866500
H201	H20	0.481400	0.213300	0.856700
C311	C31	0.373700	0.199200	0.907400
C321	C32	0.473800	0.321500	0.989800
H211	H21	0.496500	0.287900	0.011400
C331	C33	0.372900	0.331400	0.911400
H221	H22	0.321700	0.304700	0.878200
C341	C34	0.509000	0.403800	0.017100
H231	H23	0.554000	0.425600	0.058900
C351	C35	0.408300	0.415500	0.935000
H241	H24	0.382500	0.447000	0.915900
C361	C36	0.480700	0.454700	0.985700
N31	N3	0.410200	0.287700	0.935100
O51	O5	0.201200	0.886100	0.854700
O61	O6	0.305400	0.928200	0.763300
Cl31	Cl3	0.310730	0.770300	0.646070
C371	C37	0.675200	0.943300	0.678100
C381	C38	0.728400	0.033900	0.646700
C391	C39	0.801900	0.058600	0.600300
H251	H25	0.818700	0.018300	0.586300
C401	C40	0.702400	0.090800	0.661400
H261	H26	0.650200	0.073400	0.691100
C411	C41	0.851600	0.142500	0.573800
H271	H27	0.903200	0.160200	0.542800
C421	C42	0.751000	0.174000	0.633500
H281	H28	0.731900	0.213300	0.643300
C431	C43	0.825500	0.199200	0.592600
C441	C44	0.847700	0.321500	0.510200
H291	H29	0.791400	0.287900	0.488600
C451	C45	0.958500	0.331400	0.588600
H301	H30	0.983000	0.304700	0.621800
C461	C46	0.894800	0.403800	0.482900
H311	H31	0.871600	0.425600	0.441100
C471	C47	0.007200	0.415500	0.565000
H321	H32	0.064500	0.447000	0.584100
C481	C48	0.974000	0.454700	0.514300
N41	N4	0.877500	0.287700	0.564900
O71	O7	0.684900	0.886100	0.645300
O81	O8	0.622800	0.928200	0.736700
Cl41	Cl4	0.459570	0.770300	0.853930
C491	C49	0.268100	0.324800	0.678100
C501	C50	0.305500	0.271600	0.646700
C511	C51	0.256700	0.198100	0.600300
H331	H33	0.199600	0.181300	0.586300
C521	C52	0.388400	0.297600	0.661400
H341	H34	0.423200	0.349800	0.691100
C531	C53	0.290900	0.148400	0.573800
H351	H35	0.257000	0.096800	0.542800
C541	C54	0.423000	0.249000	0.633500
H361	H36	0.481400	0.268100	0.643300
C551	C55	0.373700	0.174500	0.592600
C561	C56	0.473800	0.152300	0.510200
H371	H37	0.496500	0.208600	0.488600
C571	C57	0.372900	0.041500	0.588600
H381	H38	0.321700	0.017000	0.621800
C581	C58	0.509000	0.105200	0.482900
H391	H39	0.554000	0.128400	0.441100
C591	C59	0.408300	0.992800	0.565000
H401	H40	0.382500	0.935500	0.584100
C601	C60	0.480700	0.026000	0.514300
N51	N5	0.410200	0.122500	0.564900
O91	O9	0.201200	0.315100	0.645300
O101	O10	0.305400	0.377200	0.736700
Cl51	Cl5	0.310730	0.540430	0.853930
C611	C61	0.056700	0.731900	0.678100
C621	C62	0.966100	0.694500	0.646700
C631	C63	0.941400	0.743300	0.600300
H411	H41	0.981700	0.800400	0.586300
C641	C64	0.909200	0.611600	0.661400
H421	H42	0.926600	0.576800	0.691100
C651	C65	0.857500	0.709100	0.573800
H431	H43	0.839800	0.743000	0.542800
C661	C66	0.826000	0.577000	0.633500
H441	H44	0.786700	0.518600	0.643300
C671	C67	0.800800	0.626300	0.592600
C681	C68	0.678500	0.526200	0.510200
H451	H45	0.712100	0.503500	0.488600
C691	C69	0.668600	0.627100	0.588600
H461	H46	0.695300	0.678300	0.621800
C701	C70	0.596200	0.491000	0.482900
H471	H47	0.574400	0.446000	0.441100
C711	C71	0.584500	0.591700	0.565000
H481	H48	0.553000	0.617500	0.584100
C721	C72	0.545300	0.519300	0.514300
N61	N6	0.712300	0.589800	0.564900
O111	O11	0.113900	0.798800	0.645300
O121	O12	0.071800	0.694600	0.736700
Cl61	Cl6	0.229700	0.689270	0.853930
C731	C73	0.943300	0.675200	0.178100
C741	C74	0.033900	0.728400	0.146700
C751	C75	0.058600	0.801900	0.100300
H491	H49	0.018300	0.818700	0.086300
C761	C76	0.090800	0.702400	0.161400
H501	H50	0.073400	0.650200	0.191100
C771	C77	0.142500	0.851600	0.073800
H511	H51	0.160200	0.903200	0.042800
C781	C78	0.174000	0.751000	0.133500
H521	H52	0.213300	0.731900	0.143300
C791	C79	0.199200	0.825500	0.092600
C801	C80	0.321500	0.847700	0.010200
H531	H53	0.287900	0.791400	0.988600
C811	C81	0.331400	0.958500	0.088600
H541	H54	0.304700	0.983000	0.121800
C821	C82	0.403800	0.894800	0.982900
H551	H55	0.425600	0.871600	0.941100
C831	C83	0.415500	0.007200	0.065000
H561	H56	0.447000	0.064500	0.084100
C841	C84	0.454700	0.974000	0.014300
N71	N7	0.287700	0.877500	0.064900
O131	O13	0.886100	0.684900	0.145300
O141	O14	0.928200	0.622800	0.236700
Cl71	Cl7	0.770300	0.459570	0.353930
C851	C85	0.324800	0.268100	0.178100
C861	C86	0.271600	0.305500	0.146700
C871	C87	0.198100	0.256700	0.100300
H571	H57	0.181300	0.199600	0.086300
C881	C88	0.297600	0.388400	0.161400
H581	H58	0.349800	0.423200	0.191100
C891	C89	0.148400	0.290900	0.073800
H591	H59	0.096800	0.257000	0.042800
C901	C90	0.249000	0.423000	0.133500
H601	H60	0.268100	0.481400	0.143300
C911	C91	0.174500	0.373700	0.092600
C921	C92	0.152300	0.473800	0.010200
H611	H61	0.208600	0.496500	0.988600
C931	C93	0.041500	0.372900	0.088600
H621	H62	0.017000	0.321700	0.121800
C941	C94	0.105200	0.509000	0.982900
H631	H63	0.128400	0.554000	0.941100
C951	C95	0.992800	0.408300	0.065000
H641	H64	0.935500	0.382500	0.084100
C961	C96	0.026000	0.480700	0.014300
N81	N8	0.122500	0.410200	0.064900
O151	O15	0.315100	0.201200	0.145300
O161	O16	0.377200	0.305400	0.236700
Cl81	Cl8	0.540430	0.310730	0.353930
C971	C97	0.731900	0.056700	0.178100
C981	C98	0.694500	0.966100	0.146700
C991	C99	0.743300	0.941400	0.100300
H651	H65	0.800400	0.981700	0.086300
C1001	C100	0.611600	0.909200	0.161400
H661	H66	0.576800	0.926600	0.191100
C1011	C101	0.709100	0.857500	0.073800
H671	H67	0.743000	0.839800	0.042800
C1021	C102	0.577000	0.826000	0.133500
H681	H68	0.518600	0.786700	0.143300
C1031	C103	0.626300	0.800800	0.092600
C1041	C104	0.526200	0.678500	0.010200
H691	H69	0.503500	0.712100	0.988600
C1051	C105	0.627100	0.668600	0.088600
H701	H70	0.678300	0.695300	0.121800
C1061	C106	0.491000	0.596200	0.982900
H711	H71	0.446000	0.574400	0.941100
C1071	C107	0.591700	0.584500	0.065000
H721	H72	0.617500	0.553000	0.084100
C1081	C108	0.519300	0.545300	0.014300
N91	N9	0.589800	0.712300	0.064900
O171	O17	0.798800	0.113900	0.145300
O181	O18	0.694600	0.071800	0.236700
Cl91	Cl9	0.689270	0.229700	0.353930
C1091	C109	0.324800	0.056700	0.321900
C1101	C110	0.271600	0.966100	0.353300
C1111	C111	0.198100	0.941400	0.399700
H731	H73	0.181300	0.981700	0.413700
C1121	C112	0.297600	0.909200	0.338600
H741	H74	0.349800	0.926600	0.308900
C1131	C113	0.148400	0.857500	0.426200
H751	H75	0.096800	0.839800	0.457200
C1141	C114	0.249000	0.826000	0.366500
H761	H76	0.268100	0.786700	0.356700
C1151	C115	0.174500	0.800800	0.407400
C1161	C116	0.152300	0.678500	0.489800
H771	H77	0.208600	0.712100	0.511400
C1171	C117	0.041500	0.668600	0.411400
H781	H78	0.017000	0.695300	0.378200
C1181	C118	0.105200	0.596200	0.517100
H791	H79	0.128400	0.574400	0.558900
C1191	C119	0.992800	0.584500	0.435000
H801	H80	0.935500	0.553000	0.415900
C1201	C120	0.026000	0.545300	0.485700
N101	N10	0.122500	0.712300	0.435100
O191	O19	0.315100	0.113900	0.354700
O201	O20	0.377200	0.071800	0.263300
Cl101	Cl10	0.540430	0.229700	0.146070
C1211	C121	0.731900	0.675200	0.321900
C1221	C122	0.694500	0.728400	0.353300
C1231	C123	0.743300	0.801900	0.399700
H811	H81	0.800400	0.818700	0.413700
C1241	C124	0.611600	0.702400	0.338600
H821	H82	0.576800	0.650200	0.308900
C1251	C125	0.709100	0.851600	0.426200
H831	H83	0.743000	0.903200	0.457200
C1261	C126	0.577000	0.751000	0.366500
H841	H84	0.518600	0.731900	0.356700
C1271	C127	0.626300	0.825500	0.407400
C1281	C128	0.526200	0.847700	0.489800
H851	H85	0.503500	0.791400	0.511400
C1291	C129	0.627100	0.958500	0.411400
H861	H86	0.678300	0.983000	0.378200
C1301	C130	0.491000	0.894800	0.517100
H871	H87	0.446000	0.871600	0.558900
C1311	C131	0.591700	0.007200	0.435000
H881	H88	0.617500	0.064500	0.415900
C1321	C132	0.519300	0.974000	0.485700
N111	N11	0.589800	0.877500	0.435100
O211	O21	0.798800	0.684900	0.354700
O221	O22	0.694600	0.622800	0.263300
Cl111	Cl11	0.689270	0.459570	0.146070
C1331	C133	0.943300	0.268100	0.321900
C1341	C134	0.033900	0.305500	0.353300
C1351	C135	0.058600	0.256700	0.399700
H891	H89	0.018300	0.199600	0.413700
C1361	C136	0.090800	0.388400	0.338600
H901	H90	0.073400	0.423200	0.308900
C1371	C137	0.142500	0.290900	0.426200
H911	H91	0.160200	0.257000	0.457200
C1381	C138	0.174000	0.423000	0.366500
H921	H92	0.213300	0.481400	0.356700
C1391	C139	0.199200	0.373700	0.407400
C1401	C140	0.321500	0.473800	0.489800
H931	H93	0.287900	0.496500	0.511400
C1411	C141	0.331400	0.372900	0.411400
H941	H94	0.304700	0.321700	0.378200
C1421	C142	0.403800	0.509000	0.517100
H951	H95	0.425600	0.554000	0.558900
C1431	C143	0.415500	0.408300	0.435000
H961	H96	0.447000	0.382500	0.415900
C1441	C144	0.454700	0.480700	0.485700
N121	N12	0.287700	0.410200	0.435100
O231	O23	0.886100	0.201200	0.354700
O241	O24	0.928200	0.305400	0.263300
Cl121	Cl12	0.770300	0.310730	0.146070
Cd11	Cd1	0.333330	0.666670	0.750000
Cd21	Cd2	0.666670	0.333330	0.250000
Cd31	Cd3	0.211500	0.423000	0.750000
Cd41	Cd4	0.577000	0.788500	0.750000
Cd51	Cd5	0.211500	0.788500	0.750000
Cd61	Cd6	0.788500	0.577000	0.250000
Cd71	Cd7	0.423000	0.211500	0.250000
Cd81	Cd8	0.788500	0.211500	0.250000
