data_EXEQIJ_freeONLY_PM
_symmetry_space_group_name_H-M	'P1'
_cell_length_a	22.280000
_cell_length_b	22.200000
_cell_length_c	11.198000
_cell_angle_alpha	90.000000
_cell_angle_beta	90.931000
_cell_angle_gamma	90.000000
_symmetry_Int_Tables_number 1

loop_
_symmetry_equiv_pos_as_xyz
'x,y,z'

loop_
_atom_site_label
_atom_site_type_symbol
_atom_site_fract_x
_atom_site_fract_y
_atom_site_fract_z
Cu11	Cu1	0.247210	0.180290	0.967730
S11	S1	0.085550	0.175180	0.911120
N11	N1	0.247680	0.088120	0.973800
N21	N2	0.251980	0.770980	0.030200
O11	O1	0.143810	0.175010	0.974600
C11	C1	0.031790	0.177100	0.026600
H11	H1	0.037200	0.141600	0.079100
H21	H2	0.037900	0.213700	0.075700
C21	C2	0.250800	0.896800	0.007300
N31	N3	0.247850	0.179000	0.784600
O21	O2	0.076460	0.227870	0.838300
O31	O3	0.075180	0.119310	0.845300
C31	C3	0.248600	0.181700	0.400800
C41	C4	0.303300	0.865900	0.031400
H31	H3	0.340100	0.887200	0.040200
N41	N4	0.247870	0.183050	0.149700
C51	C5	0.292400	0.206000	0.724100
H41	H4	0.323100	0.226000	0.768600
C61	C6	0.248100	0.180900	0.534200
C71	C7	0.249400	0.962700	0.995000
C81	C8	0.297300	0.161400	0.339100
H51	H5	0.331900	0.147300	0.381000
C91	C9	0.200600	0.205100	0.336500
H61	H6	0.166800	0.221100	0.376600
C101	C10	0.202300	0.205100	0.211500
H71	H7	0.169200	0.221700	0.168500
C111	C11	0.291500	0.993200	0.926700
H81	H8	0.322000	0.971500	0.886700
C121	C12	0.203900	0.153800	0.719700
H91	H9	0.172100	0.134500	0.760200
C131	C13	0.295800	0.206300	0.601200
H101	H10	0.329500	0.223100	0.562600
C141	C14	0.198000	0.863000	0.995200
H111	H11	0.160700	0.882600	0.980300
C151	C15	0.206700	0.059200	0.040200
H121	H12	0.177100	0.082200	0.080000
C161	C16	0.288200	0.055600	0.917800
H131	H13	0.316400	0.075900	0.869200
C171	C17	0.200500	0.801500	0.005200
H141	H14	0.164500	0.779200	0.994000
C181	C18	0.295700	0.161700	0.214900
H151	H15	0.329300	0.146400	0.173600
C191	C19	0.302300	0.803500	0.043000
H161	H16	0.338900	0.783100	0.060700
C201	C20	0.202400	0.154400	0.596100
H171	H17	0.169600	0.136500	0.554000
C211	C21	0.206500	0.997400	0.051900
H181	H18	0.176900	0.978500	0.099100
Cu21	Cu2	0.747210	0.680290	0.967730
S21	S2	0.585550	0.675180	0.911120
N51	N5	0.747680	0.588120	0.973800
N61	N6	0.751980	0.270980	0.030200
O41	O4	0.643810	0.675010	0.974600
C221	C22	0.531790	0.677100	0.026600
H191	H19	0.537200	0.641600	0.079100
H201	H20	0.537900	0.713700	0.075700
C231	C23	0.750800	0.396800	0.007300
N71	N7	0.747850	0.679000	0.784600
O51	O5	0.576460	0.727870	0.838300
O61	O6	0.575180	0.619310	0.845300
C241	C24	0.748600	0.681700	0.400800
C251	C25	0.803300	0.365900	0.031400
H211	H21	0.840100	0.387200	0.040200
N81	N8	0.747870	0.683050	0.149700
C261	C26	0.792400	0.706000	0.724100
H221	H22	0.823100	0.726000	0.768600
C271	C27	0.748100	0.680900	0.534200
C281	C28	0.749400	0.462700	0.995000
C291	C29	0.797300	0.661400	0.339100
H231	H23	0.831900	0.647300	0.381000
C301	C30	0.700600	0.705100	0.336500
H241	H24	0.666800	0.721100	0.376600
C311	C31	0.702300	0.705100	0.211500
H251	H25	0.669200	0.721700	0.168500
C321	C32	0.791500	0.493200	0.926700
H261	H26	0.822000	0.471500	0.886700
C331	C33	0.703900	0.653800	0.719700
H271	H27	0.672100	0.634500	0.760200
C341	C34	0.795800	0.706300	0.601200
H281	H28	0.829500	0.723100	0.562600
C351	C35	0.698000	0.363000	0.995200
H291	H29	0.660700	0.382600	0.980300
C361	C36	0.706700	0.559200	0.040200
H301	H30	0.677100	0.582200	0.080000
C371	C37	0.788200	0.555600	0.917800
H311	H31	0.816400	0.575900	0.869200
C381	C38	0.700500	0.301500	0.005200
H321	H32	0.664500	0.279200	0.994000
C391	C39	0.795700	0.661700	0.214900
H331	H33	0.829300	0.646400	0.173600
C401	C40	0.802300	0.303500	0.043000
H341	H34	0.838900	0.283100	0.060700
C411	C41	0.702400	0.654400	0.596100
H351	H35	0.669600	0.636500	0.554000
C421	C42	0.706500	0.497400	0.051900
H361	H36	0.676900	0.478500	0.099100
Cu31	Cu3	0.752790	0.180290	0.032270
S31	S3	0.914450	0.175180	0.088880
N91	N9	0.752320	0.088120	0.026200
N101	N10	0.748020	0.770980	0.969800
O71	O7	0.856190	0.175010	0.025400
C431	C43	0.968210	0.177100	0.973400
H371	H37	0.962800	0.141600	0.920900
H381	H38	0.962100	0.213700	0.924300
C441	C44	0.749200	0.896800	0.992700
N111	N11	0.752150	0.179000	0.215400
O81	O8	0.923540	0.227870	0.161700
O91	O9	0.924820	0.119310	0.154700
C451	C45	0.751400	0.181700	0.599200
C461	C46	0.696700	0.865900	0.968600
H391	H39	0.659900	0.887200	0.959800
N121	N12	0.752130	0.183050	0.850300
C471	C47	0.707600	0.206000	0.275900
H401	H40	0.676900	0.226000	0.231400
C481	C48	0.751900	0.180900	0.465800
C491	C49	0.750600	0.962700	0.005000
C501	C50	0.702700	0.161400	0.660900
H411	H41	0.668100	0.147300	0.619000
C511	C51	0.799400	0.205100	0.663500
H421	H42	0.833200	0.221100	0.623400
C521	C52	0.797700	0.205100	0.788500
H431	H43	0.830800	0.221700	0.831500
C531	C53	0.708500	0.993200	0.073300
H441	H44	0.678000	0.971500	0.113300
C541	C54	0.796100	0.153800	0.280300
H451	H45	0.827900	0.134500	0.239800
C551	C55	0.704200	0.206300	0.398800
H461	H46	0.670500	0.223100	0.437400
C561	C56	0.802000	0.863000	0.004800
H471	H47	0.839300	0.882600	0.019700
C571	C57	0.793300	0.059200	0.959800
H481	H48	0.822900	0.082200	0.920000
C581	C58	0.711800	0.055600	0.082200
H491	H49	0.683600	0.075900	0.130800
C591	C59	0.799500	0.801500	0.994800
H501	H50	0.835500	0.779200	0.006000
C601	C60	0.704300	0.161700	0.785100
H511	H51	0.670700	0.146400	0.826400
C611	C61	0.697700	0.803500	0.957000
H521	H52	0.661100	0.783100	0.939300
C621	C62	0.797600	0.154400	0.403900
H531	H53	0.830400	0.136500	0.446000
C631	C63	0.793500	0.997400	0.948100
H541	H54	0.823100	0.978500	0.900900
Cu41	Cu4	0.252790	0.680290	0.032270
S41	S4	0.414450	0.675180	0.088880
N131	N13	0.252320	0.588120	0.026200
N141	N14	0.248020	0.270980	0.969800
O101	O10	0.356190	0.675010	0.025400
C641	C64	0.468210	0.677100	0.973400
H551	H55	0.462800	0.641600	0.920900
H561	H56	0.462100	0.713700	0.924300
C651	C65	0.249200	0.396800	0.992700
N151	N15	0.252150	0.679000	0.215400
O111	O11	0.423540	0.727870	0.161700
O121	O12	0.424820	0.619310	0.154700
C661	C66	0.251400	0.681700	0.599200
C671	C67	0.196700	0.365900	0.968600
H571	H57	0.159900	0.387200	0.959800
N161	N16	0.252130	0.683050	0.850300
C681	C68	0.207600	0.706000	0.275900
H581	H58	0.176900	0.726000	0.231400
C691	C69	0.251900	0.680900	0.465800
C701	C70	0.250600	0.462700	0.005000
C711	C71	0.202700	0.661400	0.660900
H591	H59	0.168100	0.647300	0.619000
C721	C72	0.299400	0.705100	0.663500
H601	H60	0.333200	0.721100	0.623400
C731	C73	0.297700	0.705100	0.788500
H611	H61	0.330800	0.721700	0.831500
C741	C74	0.208500	0.493200	0.073300
H621	H62	0.178000	0.471500	0.113300
C751	C75	0.296100	0.653800	0.280300
H631	H63	0.327900	0.634500	0.239800
C761	C76	0.204200	0.706300	0.398800
H641	H64	0.170500	0.723100	0.437400
C771	C77	0.302000	0.363000	0.004800
H651	H65	0.339300	0.382600	0.019700
C781	C78	0.293300	0.559200	0.959800
H661	H66	0.322900	0.582200	0.920000
C791	C79	0.211800	0.555600	0.082200
H671	H67	0.183600	0.575900	0.130800
C801	C80	0.299500	0.301500	0.994800
H681	H68	0.335500	0.279200	0.006000
C811	C81	0.204300	0.661700	0.785100
H691	H69	0.170700	0.646400	0.826400
C821	C82	0.197700	0.303500	0.957000
H701	H70	0.161100	0.283100	0.939300
C831	C83	0.297600	0.654400	0.403900
H711	H71	0.330400	0.636500	0.446000
C841	C84	0.293500	0.497400	0.948100
H721	H72	0.323100	0.478500	0.900900
N171	N17	0.408150	0.354690	0.520500
N181	N18	0.090880	0.358400	0.523000
C851	C85	0.283010	0.356700	0.532500
C861	C86	0.215460	0.357500	0.533600
C871	C87	0.312100	0.336000	0.429700
H731	H73	0.289600	0.323500	0.361300
C881	C88	0.183400	0.329100	0.621000
H741	H74	0.203400	0.309600	0.686000
C891	C89	0.123700	0.387200	0.441100
H751	H75	0.103400	0.408700	0.379300
C901	C90	0.379900	0.374500	0.618900
H761	H76	0.403400	0.388600	0.684600
C911	C91	0.185200	0.386800	0.442800
H771	H77	0.206700	0.406600	0.381700
C921	C92	0.121300	0.329500	0.612100
H781	H78	0.099100	0.308700	0.670900
C931	C93	0.318400	0.375100	0.627700
H791	H79	0.300400	0.388200	0.699400
C941	C94	0.373500	0.334300	0.430300
H801	H80	0.392800	0.317600	0.362800
C951	C95	0.484000	0.172700	0.600700
H811	H81	0.472600	0.152100	0.671200
C961	C96	0.484700	0.235600	0.598200
H821	H82	0.474100	0.257400	0.667700
C971	C97	0.005500	0.172700	0.396000
H831	H83	0.008300	0.152400	0.321600
C981	C98	0.966600	0.979300	0.420700
H841	H84	0.941800	0.958200	0.365000
C991	C99	0.474400	0.041500	0.406200
H851	H85	0.456600	0.061900	0.339900
C1001	C100	0.006800	0.234100	0.399700
H861	H86	0.012900	0.255600	0.327500
C1011	C101	0.475000	0.979200	0.409900
H871	H87	0.456800	0.957600	0.345700
C1021	C102	0.966700	0.041200	0.416800
H881	H88	0.944000	0.061900	0.357200
N191	N19	0.908150	0.854690	0.520500
N201	N20	0.590880	0.858400	0.523000
C1031	C103	0.783010	0.856700	0.532500
C1041	C104	0.715460	0.857500	0.533600
C1051	C105	0.812100	0.836000	0.429700
H891	H89	0.789600	0.823500	0.361300
C1061	C106	0.683400	0.829100	0.621000
H901	H90	0.703400	0.809600	0.686000
C1071	C107	0.623700	0.887200	0.441100
H911	H91	0.603400	0.908700	0.379300
C1081	C108	0.879900	0.874500	0.618900
H921	H92	0.903400	0.888600	0.684600
C1091	C109	0.685200	0.886800	0.442800
H931	H93	0.706700	0.906600	0.381700
C1101	C110	0.621300	0.829500	0.612100
H941	H94	0.599100	0.808700	0.670900
C1111	C111	0.818400	0.875100	0.627700
H951	H95	0.800400	0.888200	0.699400
C1121	C112	0.873500	0.834300	0.430300
H961	H96	0.892800	0.817600	0.362800
C1131	C113	0.984000	0.672700	0.600700
H971	H97	0.972600	0.652100	0.671200
C1141	C114	0.984700	0.735600	0.598200
H981	H98	0.974100	0.757400	0.667700
C1151	C115	0.505500	0.672700	0.396000
H991	H99	0.508300	0.652400	0.321600
C1161	C116	0.466600	0.479300	0.420700
H1001	H100	0.441800	0.458200	0.365000
C1171	C117	0.974400	0.541500	0.406200
H1011	H101	0.956600	0.561900	0.339900
C1181	C118	0.506800	0.734100	0.399700
H1021	H102	0.512900	0.755600	0.327500
C1191	C119	0.975000	0.479200	0.409900
H1031	H103	0.956800	0.457600	0.345700
C1201	C120	0.466700	0.541200	0.416800
H1041	H104	0.444000	0.561900	0.357200
N211	N21	0.591850	0.354690	0.479500
N221	N22	0.909120	0.358400	0.477000
C1211	C121	0.716990	0.356700	0.467500
C1221	C122	0.784540	0.357500	0.466400
C1231	C123	0.687900	0.336000	0.570300
H1051	H105	0.710400	0.323500	0.638700
C1241	C124	0.816600	0.329100	0.379000
H1061	H106	0.796600	0.309600	0.314000
C1251	C125	0.876300	0.387200	0.558900
H1071	H107	0.896600	0.408700	0.620700
C1261	C126	0.620100	0.374500	0.381100
H1081	H108	0.596600	0.388600	0.315400
C1271	C127	0.814800	0.386800	0.557200
H1091	H109	0.793300	0.406600	0.618300
C1281	C128	0.878700	0.329500	0.387900
H1101	H110	0.900900	0.308700	0.329100
C1291	C129	0.681600	0.375100	0.372300
H1111	H111	0.699600	0.388200	0.300600
C1301	C130	0.626500	0.334300	0.569700
H1121	H112	0.607200	0.317600	0.637200
C1311	C131	0.516000	0.172700	0.399300
H1131	H113	0.527400	0.152100	0.328800
C1321	C132	0.515300	0.235600	0.401800
H1141	H114	0.525900	0.257400	0.332300
C1331	C133	0.994500	0.172700	0.604000
H1151	H115	0.991700	0.152400	0.678400
C1341	C134	0.033400	0.979300	0.579300
H1161	H116	0.058200	0.958200	0.635000
C1351	C135	0.525600	0.041500	0.593800
H1171	H117	0.543400	0.061900	0.660100
C1361	C136	0.993200	0.234100	0.600300
H1181	H118	0.987100	0.255600	0.672500
C1371	C137	0.525000	0.979200	0.590100
H1191	H119	0.543200	0.957600	0.654300
C1381	C138	0.033300	0.041200	0.583200
H1201	H120	0.056000	0.061900	0.642800
N231	N23	0.091850	0.854690	0.479500
N241	N24	0.409120	0.858400	0.477000
C1391	C139	0.216990	0.856700	0.467500
C1401	C140	0.284540	0.857500	0.466400
C1411	C141	0.187900	0.836000	0.570300
H1211	H121	0.210400	0.823500	0.638700
C1421	C142	0.316600	0.829100	0.379000
H1221	H122	0.296600	0.809600	0.314000
C1431	C143	0.376300	0.887200	0.558900
H1231	H123	0.396600	0.908700	0.620700
C1441	C144	0.120100	0.874500	0.381100
H1241	H124	0.096600	0.888600	0.315400
C1451	C145	0.314800	0.886800	0.557200
H1251	H125	0.293300	0.906600	0.618300
C1461	C146	0.378700	0.829500	0.387900
H1261	H126	0.400900	0.808700	0.329100
C1471	C147	0.181600	0.875100	0.372300
H1271	H127	0.199600	0.888200	0.300600
C1481	C148	0.126500	0.834300	0.569700
H1281	H128	0.107200	0.817600	0.637200
C1491	C149	0.016000	0.672700	0.399300
H1291	H129	0.027400	0.652100	0.328800
C1501	C150	0.015300	0.735600	0.401800
H1301	H130	0.025900	0.757400	0.332300
C1511	C151	0.494500	0.672700	0.604000
H1311	H131	0.491700	0.652400	0.678400
C1521	C152	0.533400	0.479300	0.579300
H1321	H132	0.558200	0.458200	0.635000
C1531	C153	0.025600	0.541500	0.593800
H1331	H133	0.043400	0.561900	0.660100
C1541	C154	0.493200	0.734100	0.600300
H1341	H134	0.487100	0.755600	0.672500
C1551	C155	0.025000	0.479200	0.590100
H1351	H135	0.043200	0.457600	0.654300
C1561	C156	0.533300	0.541200	0.583200
H1361	H136	0.556000	0.561900	0.642800
Cu51	Cu5	0.500000	0.357000	0.500000
N251	N25	0.500000	0.948300	0.500000
N261	N26	0.500000	0.265600	0.500000
C1571	C157	0.500000	0.074200	0.500000
C1581	C158	0.500000	0.140200	0.500000
Cu61	Cu6	0.000000	0.857000	0.500000
N271	N27	0.000000	0.448300	0.500000
N281	N28	0.000000	0.765600	0.500000
C1591	C159	0.000000	0.574200	0.500000
C1601	C160	0.000000	0.640200	0.500000
Cu71	Cu7	0.000000	0.357190	0.500000
N291	N29	0.000000	0.265200	0.500000
N301	N30	0.000000	0.946800	0.500000
C1611	C161	0.000000	0.140200	0.500000
C1621	C162	0.000000	0.072700	0.500000
Cu81	Cu8	0.500000	0.857190	0.500000
N311	N31	0.500000	0.765200	0.500000
N321	N32	0.500000	0.446800	0.500000
C1631	C163	0.500000	0.640200	0.500000
C1641	C164	0.500000	0.572700	0.500000
