data_EXOZEX_freeONLY_PM
_symmetry_space_group_name_H-M	'P1'
_cell_length_a	8.911400
_cell_length_b	11.390000
_cell_length_c	13.213700
_cell_angle_alpha	115.530000
_cell_angle_beta	92.995500
_cell_angle_gamma	90.000000
_symmetry_Int_Tables_number 1

loop_
_symmetry_equiv_pos_as_xyz
'x,y,z'

loop_
_atom_site_label
_atom_site_type_symbol
_atom_site_fract_x
_atom_site_fract_y
_atom_site_fract_z
Cu11	Cu1	0.000000	0.000000	0.000000
Cu21	Cu2	0.627770	0.030320	0.060640
Cu31	Cu3	0.372230	0.969680	0.939360
H11	H1	0.950700	0.154600	0.447000
H21	H2	0.755800	0.661700	0.766600
H31	H3	0.681800	0.597100	0.835800
H41	H4	0.456000	0.561700	0.709400
H51	H5	0.559900	0.595400	0.632600
H61	H6	0.920200	0.206500	0.019000
H71	H7	0.750100	0.085800	0.308800
H81	H8	0.049300	0.707600	0.553000
H91	H9	0.244200	0.895100	0.233400
H101	H10	0.318200	0.761300	0.164200
H111	H11	0.544000	0.852300	0.290600
H121	H12	0.440100	0.962800	0.367400
H131	H13	0.079800	0.187500	0.981000
H141	H14	0.249900	0.777000	0.691200
H151	H15	0.049300	0.845400	0.553000
H161	H16	0.244200	0.338300	0.233400
H171	H17	0.318200	0.402900	0.164200
H181	H18	0.544000	0.438300	0.290600
H191	H19	0.440100	0.404600	0.367400
H201	H20	0.079800	0.793500	0.981000
H211	H21	0.249900	0.914200	0.691200
H221	H22	0.950700	0.292400	0.447000
H231	H23	0.755800	0.104900	0.766600
H241	H24	0.681800	0.238700	0.835800
H251	H25	0.456000	0.147700	0.709400
H261	H26	0.559900	0.037200	0.632600
H271	H27	0.920200	0.812500	0.019000
H281	H28	0.750100	0.223000	0.308800
C11	C1	0.593600	0.775800	0.866600
C21	C2	0.660900	0.645200	0.791600
C31	C3	0.558600	0.560300	0.687600
C41	C4	0.718300	0.387400	0.558600
C51	C5	0.406400	0.909200	0.133400
C61	C6	0.339100	0.853600	0.208400
C71	C7	0.441400	0.872700	0.312400
C81	C8	0.281700	0.828800	0.441400
C91	C9	0.406400	0.224200	0.133400
C101	C10	0.339100	0.354800	0.208400
C111	C11	0.441400	0.439700	0.312400
C121	C12	0.281700	0.612600	0.441400
C131	C13	0.593600	0.090800	0.866600
C141	C14	0.660900	0.146400	0.791600
C151	C15	0.558600	0.127300	0.687600
C161	C16	0.718300	0.171200	0.558600
C171	C17	0.925700	0.112600	0.225200
C181	C18	0.812100	0.158500	0.317000
C191	C19	0.887500	0.218100	0.436200
C201	C20	0.559200	0.341900	0.683800
C211	C21	0.074300	0.887400	0.774800
C221	C22	0.187900	0.841500	0.683000
C231	C23	0.112500	0.781900	0.563800
C241	C24	0.440800	0.658100	0.316200
N11	N1	0.611100	0.423400	0.637000
N21	N2	0.388900	0.786400	0.363000
N31	N3	0.388900	0.576600	0.363000
N41	N4	0.611100	0.213600	0.637000
N51	N5	0.769600	0.260900	0.521800
N61	N6	0.230400	0.739100	0.478200
O11	O1	0.677400	0.852600	0.950200
O21	O2	0.461000	0.799070	0.845140
O31	O3	0.763700	0.462900	0.522200
O41	O4	0.322600	0.902400	0.049800
O51	O5	0.539000	0.953930	0.154860
O61	O6	0.236300	0.940700	0.477800
O71	O7	0.322600	0.147400	0.049800
O81	O8	0.539000	0.200930	0.154860
O91	O9	0.236300	0.537100	0.477800
O101	O10	0.677400	0.097600	0.950200
O111	O11	0.461000	0.046070	0.845140
O121	O12	0.763700	0.059300	0.522200
O131	O13	0.862900	0.061500	0.123000
O141	O14	0.063400	0.122700	0.245400
O151	O15	0.471700	0.380200	0.760400
O161	O16	0.137100	0.938500	0.877000
O171	O17	0.936600	0.877300	0.754600
O181	O18	0.528300	0.619800	0.239600
O191	O19	0.000000	0.172400	0.000000
O201	O20	0.000000	0.827600	0.000000
