data_EZEQUX_freeONLY_PM
_symmetry_space_group_name_H-M	'P1'
_cell_length_a	18.165200
_cell_length_b	17.246600
_cell_length_c	13.492100
_cell_angle_alpha	90.000000
_cell_angle_beta	129.400000
_cell_angle_gamma	90.000000
_symmetry_Int_Tables_number 1

loop_
_symmetry_equiv_pos_as_xyz
'x,y,z'

loop_
_atom_site_label
_atom_site_type_symbol
_atom_site_fract_x
_atom_site_fract_y
_atom_site_fract_z
O11	O1	0.099320	0.278470	0.889380
O21	O2	0.088780	0.111020	0.879000
O31	O3	0.075470	0.800890	0.186850
O41	O4	0.230740	0.810910	0.352210
O51	O5	0.231260	0.146870	0.059260
N11	N1	0.072980	0.339490	0.921700
C11	C1	0.156590	0.830200	0.243500
C21	C2	0.015170	0.466110	0.983100
C31	C3	0.162200	0.100740	0.992600
C41	C4	0.059300	0.474910	0.928900
C51	C5	0.088300	0.411160	0.900200
C61	C6	0.166120	0.026410	0.055000
C71	C7	0.242500	0.942190	0.237600
C81	C8	0.162710	0.895340	0.174100
C91	C9	0.085600	0.912950	0.047900
C101	C10	0.087700	0.977420	0.989100
C111	C11	0.243700	0.007420	0.178900
C121	C12	0.031500	0.328340	0.975100
C131	C13	0.002100	0.390550	0.005500
H11	H1	0.075000	0.523000	0.917000
H21	H2	0.974000	0.381000	0.046000
H31	H3	0.034000	0.992000	0.903000
H41	H4	0.119000	0.416800	0.869000
H51	H5	0.022000	0.276000	0.986000
H61	H6	0.029000	0.877000	0.008000
H71	H7	0.298000	0.041000	0.224000
H81	H8	0.301000	0.929000	0.328000
O61	O6	0.599320	0.778470	0.889380
O71	O7	0.588780	0.611020	0.879000
O81	O8	0.575470	0.300890	0.186850
O91	O9	0.730740	0.310910	0.352210
O101	O10	0.731260	0.646870	0.059260
N21	N2	0.572980	0.839490	0.921700
C141	C14	0.656590	0.330200	0.243500
C151	C15	0.515170	0.966110	0.983100
C161	C16	0.662200	0.600740	0.992600
C171	C17	0.559300	0.974910	0.928900
C181	C18	0.588300	0.911160	0.900200
C191	C19	0.666120	0.526410	0.055000
C201	C20	0.742500	0.442190	0.237600
C211	C21	0.662710	0.395340	0.174100
C221	C22	0.585600	0.412950	0.047900
C231	C23	0.587700	0.477420	0.989100
C241	C24	0.743700	0.507420	0.178900
C251	C25	0.531500	0.828340	0.975100
C261	C26	0.502100	0.890550	0.005500
H91	H9	0.575000	0.023000	0.917000
H101	H10	0.474000	0.881000	0.046000
H111	H11	0.534000	0.492000	0.903000
H121	H12	0.619000	0.916800	0.869000
H131	H13	0.522000	0.776000	0.986000
H141	H14	0.529000	0.377000	0.008000
H151	H15	0.798000	0.541000	0.224000
H161	H16	0.801000	0.429000	0.328000
O111	O11	0.900680	0.278470	0.610620
O121	O12	0.911220	0.111020	0.621000
O131	O13	0.924530	0.800890	0.313150
O141	O14	0.769260	0.810910	0.147790
O151	O15	0.768740	0.146870	0.440740
N31	N3	0.927020	0.339490	0.578300
C271	C27	0.843410	0.830200	0.256500
C281	C28	0.984830	0.466110	0.516900
C291	C29	0.837800	0.100740	0.507400
C301	C30	0.940700	0.474910	0.571100
C311	C31	0.911700	0.411160	0.599800
C321	C32	0.833880	0.026410	0.445000
C331	C33	0.757500	0.942190	0.262400
C341	C34	0.837290	0.895340	0.325900
C351	C35	0.914400	0.912950	0.452100
C361	C36	0.912300	0.977420	0.510900
C371	C37	0.756300	0.007420	0.321100
C381	C38	0.968500	0.328340	0.524900
C391	C39	0.997900	0.390550	0.494500
H171	H17	0.925000	0.523000	0.583000
H181	H18	0.026000	0.381000	0.454000
H191	H19	0.966000	0.992000	0.597000
H201	H20	0.881000	0.416800	0.631000
H211	H21	0.978000	0.276000	0.514000
H221	H22	0.971000	0.877000	0.492000
H231	H23	0.702000	0.041000	0.276000
H241	H24	0.699000	0.929000	0.172000
O161	O16	0.400680	0.778470	0.610620
O171	O17	0.411220	0.611020	0.621000
O181	O18	0.424530	0.300890	0.313150
O191	O19	0.269260	0.310910	0.147790
O201	O20	0.268740	0.646870	0.440740
N41	N4	0.427020	0.839490	0.578300
C401	C40	0.343410	0.330200	0.256500
C411	C41	0.484830	0.966110	0.516900
C421	C42	0.337800	0.600740	0.507400
C431	C43	0.440700	0.974910	0.571100
C441	C44	0.411700	0.911160	0.599800
C451	C45	0.333880	0.526410	0.445000
C461	C46	0.257500	0.442190	0.262400
C471	C47	0.337290	0.395340	0.325900
C481	C48	0.414400	0.412950	0.452100
C491	C49	0.412300	0.477420	0.510900
C501	C50	0.256300	0.507420	0.321100
C511	C51	0.468500	0.828340	0.524900
C521	C52	0.497900	0.890550	0.494500
H251	H25	0.425000	0.023000	0.583000
H261	H26	0.526000	0.881000	0.454000
H271	H27	0.466000	0.492000	0.597000
H281	H28	0.381000	0.916800	0.631000
H291	H29	0.478000	0.776000	0.514000
H301	H30	0.471000	0.377000	0.492000
H311	H31	0.202000	0.541000	0.276000
H321	H32	0.199000	0.429000	0.172000
O211	O21	0.900680	0.721530	0.110620
O221	O22	0.911220	0.888980	0.121000
O231	O23	0.924530	0.199110	0.813150
O241	O24	0.769260	0.189090	0.647790
O251	O25	0.768740	0.853130	0.940740
N51	N5	0.927020	0.660510	0.078300
C531	C53	0.843410	0.169800	0.756500
C541	C54	0.984830	0.533890	0.016900
C551	C55	0.837800	0.899260	0.007400
C561	C56	0.940700	0.525090	0.071100
C571	C57	0.911700	0.588840	0.099800
C581	C58	0.833880	0.973590	0.945000
C591	C59	0.757500	0.057810	0.762400
C601	C60	0.837290	0.104660	0.825900
C611	C61	0.914400	0.087050	0.952100
C621	C62	0.912300	0.022580	0.010900
C631	C63	0.756300	0.992580	0.821100
C641	C64	0.968500	0.671660	0.024900
C651	C65	0.997900	0.609450	0.994500
H331	H33	0.925000	0.477000	0.083000
H341	H34	0.026000	0.619000	0.954000
H351	H35	0.966000	0.008000	0.097000
H361	H36	0.881000	0.583200	0.131000
H371	H37	0.978000	0.724000	0.014000
H381	H38	0.971000	0.123000	0.992000
H391	H39	0.702000	0.959000	0.776000
H401	H40	0.699000	0.071000	0.672000
O261	O26	0.400680	0.221530	0.110620
O271	O27	0.411220	0.388980	0.121000
O281	O28	0.424530	0.699110	0.813150
O291	O29	0.269260	0.689090	0.647790
O301	O30	0.268740	0.353130	0.940740
N61	N6	0.427020	0.160510	0.078300
C661	C66	0.343410	0.669800	0.756500
C671	C67	0.484830	0.033890	0.016900
C681	C68	0.337800	0.399260	0.007400
C691	C69	0.440700	0.025090	0.071100
C701	C70	0.411700	0.088840	0.099800
C711	C71	0.333880	0.473590	0.945000
C721	C72	0.257500	0.557810	0.762400
C731	C73	0.337290	0.604660	0.825900
C741	C74	0.414400	0.587050	0.952100
C751	C75	0.412300	0.522580	0.010900
C761	C76	0.256300	0.492580	0.821100
C771	C77	0.468500	0.171660	0.024900
C781	C78	0.497900	0.109450	0.994500
H411	H41	0.425000	0.977000	0.083000
H421	H42	0.526000	0.119000	0.954000
H431	H43	0.466000	0.508000	0.097000
H441	H44	0.381000	0.083200	0.131000
H451	H45	0.478000	0.224000	0.014000
H461	H46	0.471000	0.623000	0.992000
H471	H47	0.202000	0.459000	0.776000
H481	H48	0.199000	0.571000	0.672000
O311	O31	0.099320	0.721530	0.389380
O321	O32	0.088780	0.888980	0.379000
O331	O33	0.075470	0.199110	0.686850
O341	O34	0.230740	0.189090	0.852210
O351	O35	0.231260	0.853130	0.559260
N71	N7	0.072980	0.660510	0.421700
C791	C79	0.156590	0.169800	0.743500
C801	C80	0.015170	0.533890	0.483100
C811	C81	0.162200	0.899260	0.492600
C821	C82	0.059300	0.525090	0.428900
C831	C83	0.088300	0.588840	0.400200
C841	C84	0.166120	0.973590	0.555000
C851	C85	0.242500	0.057810	0.737600
C861	C86	0.162710	0.104660	0.674100
C871	C87	0.085600	0.087050	0.547900
C881	C88	0.087700	0.022580	0.489100
C891	C89	0.243700	0.992580	0.678900
C901	C90	0.031500	0.671660	0.475100
C911	C91	0.002100	0.609450	0.505500
H491	H49	0.075000	0.477000	0.417000
H501	H50	0.974000	0.619000	0.546000
H511	H51	0.034000	0.008000	0.403000
H521	H52	0.119000	0.583200	0.369000
H531	H53	0.022000	0.724000	0.486000
H541	H54	0.029000	0.123000	0.508000
H551	H55	0.298000	0.959000	0.724000
H561	H56	0.301000	0.071000	0.828000
O361	O36	0.599320	0.221530	0.389380
O371	O37	0.588780	0.388980	0.379000
O381	O38	0.575470	0.699110	0.686850
O391	O39	0.730740	0.689090	0.852210
O401	O40	0.731260	0.353130	0.559260
N81	N8	0.572980	0.160510	0.421700
C921	C92	0.656590	0.669800	0.743500
C931	C93	0.515170	0.033890	0.483100
C941	C94	0.662200	0.399260	0.492600
C951	C95	0.559300	0.025090	0.428900
C961	C96	0.588300	0.088840	0.400200
C971	C97	0.666120	0.473590	0.555000
C981	C98	0.742500	0.557810	0.737600
C991	C99	0.662710	0.604660	0.674100
C1001	C100	0.585600	0.587050	0.547900
C1011	C101	0.587700	0.522580	0.489100
C1021	C102	0.743700	0.492580	0.678900
C1031	C103	0.531500	0.171660	0.475100
C1041	C104	0.502100	0.109450	0.505500
H571	H57	0.575000	0.977000	0.417000
H581	H58	0.474000	0.119000	0.546000
H591	H59	0.534000	0.508000	0.403000
H601	H60	0.619000	0.083200	0.369000
H611	H61	0.522000	0.224000	0.486000
H621	H62	0.529000	0.623000	0.508000
H631	H63	0.798000	0.459000	0.724000
H641	H64	0.801000	0.571000	0.828000
Mg11	Mg1	0.000000	0.193470	0.750000
Mg21	Mg2	0.500000	0.693470	0.750000
Mg31	Mg3	0.000000	0.806530	0.250000
Mg41	Mg4	0.500000	0.306530	0.250000
Mg51	Mg5	0.250000	0.250000	0.000000
Mg61	Mg6	0.750000	0.250000	0.500000
Mg71	Mg7	0.750000	0.750000	0.000000
Mg81	Mg8	0.250000	0.750000	0.500000
