data_EZOBUR02_freeONLY_PM
_symmetry_space_group_name_H-M	'P1'
_cell_length_a	15.426800
_cell_length_b	17.601300
_cell_length_c	31.407600
_cell_angle_alpha	95.207900
_cell_angle_beta	104.217000
_cell_angle_gamma	90.000000
_symmetry_Int_Tables_number 1

loop_
_symmetry_equiv_pos_as_xyz
'x,y,z'

loop_
_atom_site_label
_atom_site_type_symbol
_atom_site_fract_x
_atom_site_fract_y
_atom_site_fract_z
Cu11	Cu1	0.900010	0.480560	0.691120
Cu21	Cu2	0.901240	0.363640	0.415280
Cu31	Cu3	0.208890	0.019440	0.308880
Cu41	Cu4	0.485960	0.136360	0.584720
Cu51	Cu5	0.099990	0.519440	0.308880
Cu61	Cu6	0.098760	0.636360	0.584720
Cu71	Cu7	0.791110	0.980560	0.691120
Cu81	Cu8	0.514040	0.863640	0.415280
Cu91	Cu9	0.000000	0.500000	0.000000
Cu101	Cu10	0.000000	0.000000	0.000000
Cu111	Cu11	0.739880	0.750000	0.000000
Cu121	Cu12	0.260120	0.250000	0.000000
H11	H1	0.934700	0.536900	0.904200
H21	H2	0.874200	0.618700	0.013800
H31	H3	0.775700	0.716400	0.905800
H41	H4	0.965900	0.585900	0.846200
H51	H5	0.831900	0.660900	0.729800
H61	H6	0.717900	0.702200	0.762200
H71	H7	0.724400	0.684300	0.835200
H81	H8	0.070300	0.660900	0.841600
H91	H9	0.093700	0.704500	0.803000
H101	H10	0.168700	0.656600	0.833400
H111	H11	0.058200	0.513300	0.831600
H121	H12	0.155400	0.508000	0.822000
H131	H13	0.070400	0.469900	0.786400
H141	H14	0.119300	0.634800	0.737200
H151	H15	0.107600	0.543900	0.729000
H161	H16	0.192500	0.581800	0.764800
H171	H17	0.921900	0.594800	0.530800
H181	H18	0.029100	0.565400	0.655200
H191	H19	0.786500	0.482400	0.600600
H201	H20	0.853600	0.507500	0.476400
H211	H21	0.592700	0.463900	0.413800
H221	H22	0.554200	0.489200	0.480400
H231	H23	0.663100	0.523000	0.545600
H241	H24	0.601400	0.538800	0.368200
H251	H25	0.682300	0.581700	0.356000
H261	H26	0.605700	0.538000	0.317800
H271	H27	0.792500	0.509900	0.326600
H281	H28	0.794900	0.418800	0.324800
H291	H29	0.719100	0.459000	0.290400
H301	H30	0.601700	0.389700	0.364200
H311	H31	0.601100	0.387400	0.313000
H321	H32	0.678800	0.346600	0.346200
H331	H33	0.989100	0.247600	0.680200
H341	H34	0.686900	0.460600	0.756800
H351	H35	0.909500	0.130800	0.360200
H361	H36	0.839900	0.266100	0.525400
H371	H37	0.194000	0.684200	0.022600
H381	H38	0.538300	0.903500	0.946600
H391	H39	0.030500	0.963100	0.095800
H401	H40	0.860400	0.881300	0.986200
H411	H41	0.869900	0.783600	0.094200
H421	H42	0.119700	0.914100	0.153800
H431	H43	0.102100	0.839100	0.270200
H441	H44	0.955700	0.797800	0.237800
H451	H45	0.889200	0.815700	0.164800
H461	H46	0.228700	0.839100	0.158400
H471	H47	0.290700	0.795500	0.197000
H481	H48	0.335300	0.843400	0.166600
H491	H49	0.226600	0.986700	0.168400
H501	H50	0.333400	0.992000	0.178000
H511	H51	0.284000	0.030100	0.213600
H521	H52	0.382100	0.865200	0.262800
H531	H53	0.378600	0.956100	0.271000
H541	H54	0.427700	0.918200	0.235200
H551	H55	0.391100	0.905200	0.469200
H561	H56	0.373900	0.934600	0.344800
H571	H57	0.185900	0.017600	0.399400
H581	H58	0.377200	0.992500	0.523600
H591	H59	0.178900	0.036100	0.586200
H601	H60	0.073800	0.010800	0.519600
H611	H61	0.117500	0.977000	0.454400
H621	H62	0.233200	0.961200	0.631800
H631	H63	0.326300	0.918300	0.644000
H641	H64	0.287900	0.962000	0.682200
H651	H65	0.465900	0.990100	0.673400
H661	H66	0.470100	0.081200	0.675200
H671	H67	0.428700	0.041000	0.709600
H681	H68	0.237500	0.110300	0.635800
H691	H69	0.288100	0.112600	0.687000
H701	H70	0.332600	0.153400	0.653800
H711	H71	0.308900	0.252400	0.319800
H721	H72	0.930100	0.039400	0.243200
H731	H73	0.549300	0.369200	0.639800
H741	H74	0.314500	0.233900	0.474600
H751	H75	0.171400	0.815800	0.977400
H761	H76	0.591700	0.596500	0.053400
H771	H77	0.065300	0.463100	0.095800
H781	H78	0.125800	0.381300	0.986200
H791	H79	0.224300	0.283600	0.094200
H801	H80	0.034100	0.414100	0.153800
H811	H81	0.168100	0.339100	0.270200
H821	H82	0.282100	0.297800	0.237800
H831	H83	0.275600	0.315700	0.164800
H841	H84	0.929700	0.339100	0.158400
H851	H85	0.906300	0.295500	0.197000
H861	H86	0.831300	0.343400	0.166600
H871	H87	0.941800	0.486700	0.168400
H881	H88	0.844600	0.492000	0.178000
H891	H89	0.929600	0.530100	0.213600
H901	H90	0.880700	0.365200	0.262800
H911	H91	0.892400	0.456100	0.271000
H921	H92	0.807500	0.418200	0.235200
H931	H93	0.078100	0.405200	0.469200
H941	H94	0.970900	0.434600	0.344800
H951	H95	0.213500	0.517600	0.399400
H961	H96	0.146400	0.492500	0.523600
H971	H97	0.407300	0.536100	0.586200
H981	H98	0.445800	0.510800	0.519600
H991	H99	0.336900	0.477000	0.454400
H1001	H100	0.398600	0.461200	0.631800
H1011	H101	0.317700	0.418300	0.644000
H1021	H102	0.394300	0.462000	0.682200
H1031	H103	0.207500	0.490100	0.673400
H1041	H104	0.205100	0.581200	0.675200
H1051	H105	0.280900	0.541000	0.709600
H1061	H106	0.398300	0.610300	0.635800
H1071	H107	0.398900	0.612600	0.687000
H1081	H108	0.321200	0.653400	0.653800
H1091	H109	0.010900	0.752400	0.319800
H1101	H110	0.313100	0.539400	0.243200
H1111	H111	0.090500	0.869200	0.639800
H1121	H112	0.160100	0.733900	0.474600
H1131	H113	0.806000	0.315800	0.977400
H1141	H114	0.461700	0.096500	0.053400
H1151	H115	0.969500	0.036900	0.904200
H1161	H116	0.139600	0.118700	0.013800
H1171	H117	0.130100	0.216400	0.905800
H1181	H118	0.880300	0.085900	0.846200
H1191	H119	0.897900	0.160900	0.729800
H1201	H120	0.044300	0.202200	0.762200
H1211	H121	0.110800	0.184300	0.835200
H1221	H122	0.771300	0.160900	0.841600
H1231	H123	0.709300	0.204500	0.803000
H1241	H124	0.664700	0.156600	0.833400
H1251	H125	0.773400	0.013300	0.831600
H1261	H126	0.666600	0.008000	0.822000
H1271	H127	0.716000	0.969900	0.786400
H1281	H128	0.617900	0.134800	0.737200
H1291	H129	0.621400	0.043900	0.729000
H1301	H130	0.572300	0.081800	0.764800
H1311	H131	0.608900	0.094800	0.530800
H1321	H132	0.626100	0.065400	0.655200
H1331	H133	0.814100	0.982400	0.600600
H1341	H134	0.622800	0.007500	0.476400
H1351	H135	0.821100	0.963900	0.413800
H1361	H136	0.926200	0.989200	0.480400
H1371	H137	0.882500	0.023000	0.545600
H1381	H138	0.766800	0.038800	0.368200
H1391	H139	0.673700	0.081700	0.356000
H1401	H140	0.712100	0.038000	0.317800
H1411	H141	0.534100	0.009900	0.326600
H1421	H142	0.529900	0.918800	0.324800
H1431	H143	0.571300	0.959000	0.290400
H1441	H144	0.762500	0.889700	0.364200
H1451	H145	0.711900	0.887400	0.313000
H1461	H146	0.667400	0.846600	0.346200
H1471	H147	0.691100	0.747600	0.680200
H1481	H148	0.069900	0.960600	0.756800
H1491	H149	0.450700	0.630800	0.360200
H1501	H150	0.685500	0.766100	0.525400
H1511	H151	0.828600	0.184200	0.022600
H1521	H152	0.408300	0.403500	0.946600
C11	C1	0.904990	0.573500	0.919380
C21	C2	0.869060	0.621400	0.983120
C31	C3	0.811110	0.677900	0.920420
C41	C4	0.854060	0.627200	0.896120
C51	C5	0.846760	0.634400	0.848520
C61	C6	0.915310	0.609400	0.829220
C71	C7	0.909910	0.618700	0.785020
C81	C8	0.835660	0.653900	0.759920
C91	C9	0.768170	0.678100	0.779140
C101	C10	0.772260	0.668200	0.822720
C111	C11	0.076400	0.587700	0.786800
C121	C12	0.104860	0.658800	0.819120
C131	C13	0.091460	0.513000	0.808720
C141	C14	0.128640	0.587000	0.751280
C151	C15	0.918370	0.574160	0.557340
C161	C16	0.979860	0.558100	0.630120
C171	C17	0.838290	0.509350	0.598380
C181	C18	0.841170	0.534430	0.558140
C191	C19	0.769300	0.516930	0.517400
C201	C20	0.792740	0.503190	0.477280
C211	C21	0.727320	0.483200	0.438440
C221	C22	0.637650	0.477800	0.439900
C231	C23	0.615220	0.492600	0.479640
C241	C24	0.679850	0.512500	0.518500
C251	C25	0.695360	0.464100	0.352520
C261	C26	0.641340	0.537200	0.348280
C271	C27	0.755860	0.462800	0.320720
C281	C28	0.639290	0.390300	0.343180
C291	C29	0.817940	0.250400	0.643480
C301	C30	0.884200	0.316500	0.662000
C311	C31	0.973390	0.299700	0.678780
C321	C32	0.041220	0.356100	0.693640
C331	C33	0.137430	0.329500	0.706060
C341	C34	0.619060	0.545600	0.692520
C351	C35	0.712050	0.510200	0.704500
C361	C36	0.732720	0.468900	0.742240
C371	C37	0.816180	0.440300	0.758760
C381	C38	0.829430	0.396000	0.799260
C391	C39	0.013040	0.146900	0.440480
C401	C40	0.963030	0.206400	0.411860
C411	C41	0.914800	0.183800	0.369600
C421	C42	0.873340	0.235200	0.339880
C431	C43	0.828490	0.203300	0.292780
C441	C44	0.993500	0.338400	0.559800
C451	C45	0.928550	0.343600	0.514500
C461	C46	0.851430	0.295700	0.503460
C471	C47	0.791930	0.289700	0.462660
C481	C48	0.708020	0.239700	0.455440
C491	C49	0.208160	0.595400	0.953920
C501	C50	0.145910	0.588500	0.984020
C511	C51	0.152000	0.643300	0.019200
C521	C52	0.100230	0.642400	0.050060
C531	C53	0.117740	0.709400	0.086080
C541	C54	0.641870	0.875300	0.891940
C551	C55	0.648980	0.851500	0.938360
C561	C56	0.587000	0.874400	0.960800
C571	C57	0.592220	0.856400	0.004040
C581	C58	0.510440	0.883500	0.022880
C591	C59	0.985610	0.926500	0.080620
C601	C60	0.885940	0.878600	0.016880
C611	C61	0.890690	0.822100	0.079580
C621	C62	0.957940	0.872800	0.103880
C631	C63	0.998240	0.865600	0.151480
C641	C64	0.086090	0.890600	0.170780
C651	C65	0.124890	0.881300	0.214980
C661	C66	0.075740	0.846100	0.240080
C671	C67	0.989030	0.821900	0.220860
C681	C68	0.949540	0.831800	0.177280
C691	C69	0.289600	0.912300	0.213200
C701	C70	0.285740	0.841200	0.180880
C711	C71	0.282740	0.987000	0.191280
C721	C72	0.377360	0.913000	0.248720
C731	C73	0.361030	0.925840	0.442660
C741	C74	0.349740	0.941900	0.369880
C751	C75	0.239910	0.990650	0.401620
C761	C76	0.283030	0.965570	0.441860
C771	C77	0.251900	0.983070	0.482600
C781	C78	0.315460	0.996810	0.522720
C791	C79	0.288880	0.016800	0.561560
C801	C80	0.197750	0.022200	0.560100
C811	C81	0.135580	0.007400	0.520360
C821	C82	0.161350	0.987500	0.481500
C831	C83	0.342840	0.035900	0.647480
C841	C84	0.293060	0.962800	0.651720
C851	C85	0.435140	0.037200	0.679280
C861	C86	0.296110	0.109700	0.656820
C871	C87	0.174460	0.249600	0.356520
C881	C88	0.222200	0.183500	0.338000
C891	C89	0.294610	0.200300	0.321220
C901	C90	0.347580	0.143900	0.306360
C911	C91	0.431370	0.170500	0.293940
C921	C92	0.926540	0.954400	0.307480
C931	C93	0.007550	0.989800	0.295500
C941	C94	0.990480	0.031100	0.257760
C951	C95	0.057420	0.059700	0.241240
C961	C96	0.030170	0.104000	0.200740
C971	C97	0.572560	0.353100	0.559520
C981	C98	0.551170	0.293600	0.588140
C991	C99	0.545200	0.316200	0.630400
C1001	C100	0.533460	0.264800	0.660120
C1011	C101	0.535710	0.296700	0.707220
C1021	C102	0.433700	0.161600	0.440200
C1031	C103	0.414050	0.156400	0.485500
C1041	C104	0.347970	0.204300	0.496540
C1051	C105	0.329270	0.210300	0.537340
C1061	C106	0.252580	0.260300	0.544560
C1071	C107	0.254240	0.904600	0.046080
C1081	C108	0.161890	0.911500	0.015980
C1091	C109	0.132800	0.856700	0.980800
C1101	C110	0.050170	0.857600	0.949940
C1111	C111	0.031660	0.790600	0.913920
C1121	C112	0.749930	0.624700	0.108060
C1131	C113	0.710620	0.648500	0.061640
C1141	C114	0.626200	0.625600	0.039200
C1151	C115	0.588180	0.643600	0.995960
C1161	C116	0.487560	0.616500	0.977120
C1171	C117	0.095010	0.426500	0.080620
C1181	C118	0.130940	0.378600	0.016880
C1191	C119	0.188890	0.322100	0.079580
C1201	C120	0.145940	0.372800	0.103880
C1211	C121	0.153240	0.365600	0.151480
C1221	C122	0.084690	0.390600	0.170780
C1231	C123	0.090090	0.381300	0.214980
C1241	C124	0.164340	0.346100	0.240080
C1251	C125	0.231830	0.321900	0.220860
C1261	C126	0.227740	0.331800	0.177280
C1271	C127	0.923600	0.412300	0.213200
C1281	C128	0.895140	0.341200	0.180880
C1291	C129	0.908540	0.487000	0.191280
C1301	C130	0.871360	0.413000	0.248720
C1311	C131	0.081630	0.425840	0.442660
C1321	C132	0.020140	0.441900	0.369880
C1331	C133	0.161710	0.490650	0.401620
C1341	C134	0.158830	0.465570	0.441860
C1351	C135	0.230700	0.483070	0.482600
C1361	C136	0.207260	0.496810	0.522720
C1371	C137	0.272680	0.516800	0.561560
C1381	C138	0.362350	0.522200	0.560100
C1391	C139	0.384780	0.507400	0.520360
C1401	C140	0.320150	0.487500	0.481500
C1411	C141	0.304640	0.535900	0.647480
C1421	C142	0.358660	0.462800	0.651720
C1431	C143	0.244140	0.537200	0.679280
C1441	C144	0.360710	0.609700	0.656820
C1451	C145	0.182060	0.749600	0.356520
C1461	C146	0.115800	0.683500	0.338000
C1471	C147	0.026610	0.700300	0.321220
C1481	C148	0.958780	0.643900	0.306360
C1491	C149	0.862570	0.670500	0.293940
C1501	C150	0.380940	0.454400	0.307480
C1511	C151	0.287950	0.489800	0.295500
C1521	C152	0.267280	0.531100	0.257760
C1531	C153	0.183820	0.559700	0.241240
C1541	C154	0.170570	0.604000	0.200740
C1551	C155	0.986960	0.853100	0.559520
C1561	C156	0.036970	0.793600	0.588140
C1571	C157	0.085200	0.816200	0.630400
C1581	C158	0.126660	0.764800	0.660120
C1591	C159	0.171510	0.796700	0.707220
C1601	C160	0.006500	0.661600	0.440200
C1611	C161	0.071450	0.656400	0.485500
C1621	C162	0.148570	0.704300	0.496540
C1631	C163	0.208070	0.710300	0.537340
C1641	C164	0.291980	0.760300	0.544560
C1651	C165	0.791840	0.404600	0.046080
C1661	C166	0.854090	0.411500	0.015980
C1671	C167	0.848000	0.356700	0.980800
C1681	C168	0.899770	0.357600	0.949940
C1691	C169	0.882260	0.290600	0.913920
C1701	C170	0.358130	0.124700	0.108060
C1711	C171	0.351020	0.148500	0.061640
C1721	C172	0.413000	0.125600	0.039200
C1731	C173	0.407780	0.143600	0.995960
C1741	C174	0.489560	0.116500	0.977120
C1751	C175	0.014390	0.073500	0.919380
C1761	C176	0.114060	0.121400	0.983120
C1771	C177	0.109310	0.177900	0.920420
C1781	C178	0.042060	0.127200	0.896120
C1791	C179	0.001760	0.134400	0.848520
C1801	C180	0.913910	0.109400	0.829220
C1811	C181	0.875110	0.118700	0.785020
C1821	C182	0.924260	0.153900	0.759920
C1831	C183	0.010970	0.178100	0.779140
C1841	C184	0.050460	0.168200	0.822720
C1851	C185	0.710400	0.087700	0.786800
C1861	C186	0.714260	0.158800	0.819120
C1871	C187	0.717260	0.013000	0.808720
C1881	C188	0.622640	0.087000	0.751280
C1891	C189	0.638970	0.074160	0.557340
C1901	C190	0.650260	0.058100	0.630120
C1911	C191	0.760090	0.009350	0.598380
C1921	C192	0.716970	0.034430	0.558140
C1931	C193	0.748100	0.016930	0.517400
C1941	C194	0.684540	0.003190	0.477280
C1951	C195	0.711120	0.983200	0.438440
C1961	C196	0.802250	0.977800	0.439900
C1971	C197	0.864420	0.992600	0.479640
C1981	C198	0.838650	0.012500	0.518500
C1991	C199	0.657160	0.964100	0.352520
C2001	C200	0.706940	0.037200	0.348280
C2011	C201	0.564860	0.962800	0.320720
C2021	C202	0.703890	0.890300	0.343180
C2031	C203	0.825540	0.750400	0.643480
C2041	C204	0.777800	0.816500	0.662000
C2051	C205	0.705390	0.799700	0.678780
C2061	C206	0.652420	0.856100	0.693640
C2071	C207	0.568630	0.829500	0.706060
C2081	C208	0.073460	0.045600	0.692520
C2091	C209	0.992450	0.010200	0.704500
C2101	C210	0.009520	0.968900	0.742240
C2111	C211	0.942580	0.940300	0.758760
C2121	C212	0.969830	0.896000	0.799260
C2131	C213	0.427440	0.646900	0.440480
C2141	C214	0.448830	0.706400	0.411860
C2151	C215	0.454800	0.683800	0.369600
C2161	C216	0.466540	0.735200	0.339880
C2171	C217	0.464290	0.703300	0.292780
C2181	C218	0.566300	0.838400	0.559800
C2191	C219	0.585950	0.843600	0.514500
C2201	C220	0.652030	0.795700	0.503460
C2211	C221	0.670730	0.789700	0.462660
C2221	C222	0.747420	0.739700	0.455440
C2231	C223	0.745760	0.095400	0.953920
C2241	C224	0.838110	0.088500	0.984020
C2251	C225	0.867200	0.143300	0.019200
C2261	C226	0.949830	0.142400	0.050060
C2271	C227	0.968340	0.209400	0.086080
C2281	C228	0.250070	0.375300	0.891940
C2291	C229	0.289380	0.351500	0.938360
C2301	C230	0.373800	0.374400	0.960800
C2311	C231	0.411820	0.356400	0.004040
C2321	C232	0.512440	0.383500	0.022880
N11	N1	0.914130	0.571180	0.963060
N21	N2	0.817780	0.674570	0.963560
N31	N3	0.978150	0.593800	0.764100
N41	N4	0.988010	0.584360	0.592580
N51	N5	0.906720	0.522220	0.634240
N61	N6	0.755890	0.467960	0.399040
N71	N7	0.951070	0.928820	0.036940
N81	N8	0.854220	0.825430	0.036440
N91	N9	0.214050	0.906200	0.235900
N101	N10	0.395430	0.915640	0.407420
N111	N11	0.272480	0.977780	0.365760
N121	N12	0.356850	0.032040	0.600960
N131	N13	0.085870	0.428820	0.036940
N141	N14	0.182220	0.325430	0.036440
N151	N15	0.021850	0.406200	0.235900
N161	N16	0.011990	0.415640	0.407420
N171	N17	0.093280	0.477780	0.365760
N181	N18	0.244110	0.532040	0.600960
N191	N19	0.048930	0.071180	0.963060
N201	N20	0.145780	0.174570	0.963560
N211	N21	0.785950	0.093800	0.764100
N221	N22	0.604570	0.084360	0.592580
N231	N23	0.727520	0.022220	0.634240
N241	N24	0.643150	0.967960	0.399040
O11	O1	0.954110	0.580330	0.721540
O21	O2	0.840970	0.460140	0.403120
O31	O3	0.847620	0.380820	0.659060
O41	O4	0.033460	0.426400	0.696880
O51	O5	0.759240	0.522310	0.679260
O61	O6	0.887510	0.445120	0.745940
O71	O7	0.973390	0.272770	0.432100
O81	O8	0.869590	0.305930	0.346480
O91	O9	0.949920	0.392150	0.492300
O101	O10	0.795780	0.320140	0.427740
O111	O11	0.094540	0.530190	0.972540
O121	O12	0.042490	0.595400	0.052280
O131	O13	0.717090	0.810860	0.950580
O141	O14	0.650630	0.819600	0.027460
O151	O15	0.232570	0.919670	0.278460
O161	O16	0.437850	0.039860	0.596880
O171	O17	0.188560	0.119180	0.340940
O181	O18	0.336580	0.073600	0.303120
O191	O19	0.079980	0.977690	0.320740
O201	O20	0.141570	0.054880	0.254060
O211	O21	0.541290	0.227230	0.567900
O221	O22	0.523110	0.194070	0.653520
O231	O23	0.457620	0.107850	0.507700
O241	O24	0.368040	0.179860	0.572260
O251	O25	0.122000	0.969810	0.027460
O261	O26	0.990210	0.904600	0.947720
O271	O27	0.766510	0.689140	0.049420
O281	O28	0.623170	0.680400	0.972540
O291	O29	0.045890	0.419670	0.278460
O301	O30	0.159030	0.539860	0.596880
O311	O31	0.152380	0.619180	0.340940
O321	O32	0.966540	0.573600	0.303120
O331	O33	0.240760	0.477690	0.320740
O341	O34	0.112490	0.554880	0.254060
O351	O35	0.026610	0.727230	0.567900
O361	O36	0.130410	0.694070	0.653520
O371	O37	0.050080	0.607850	0.507700
O381	O38	0.204220	0.679860	0.572260
O391	O39	0.905460	0.469810	0.027460
O401	O40	0.957510	0.404600	0.947720
O411	O41	0.282910	0.189140	0.049420
O421	O42	0.349370	0.180400	0.972540
O431	O43	0.767430	0.080330	0.721540
O441	O44	0.562150	0.960140	0.403120
O451	O45	0.811440	0.880820	0.659060
O461	O46	0.663420	0.926400	0.696880
O471	O47	0.920020	0.022310	0.679260
O481	O48	0.858430	0.945120	0.745940
O491	O49	0.458710	0.772770	0.432100
O501	O50	0.476890	0.805930	0.346480
O511	O51	0.542380	0.892150	0.492300
O521	O52	0.631960	0.820140	0.427740
O531	O53	0.878000	0.030190	0.972540
O541	O54	0.009790	0.095400	0.052280
O551	O55	0.233490	0.310860	0.950580
O561	O56	0.376830	0.319600	0.027460
F11	F1	0.788520	0.252200	0.598040
F21	F2	0.849280	0.182400	0.649760
F31	F3	0.748270	0.250700	0.658340
F41	F4	0.146670	0.259700	0.718340
F51	F5	0.192210	0.379300	0.734420
F61	F6	0.168910	0.328300	0.666820
F71	F7	0.624840	0.617600	0.679080
F81	F8	0.564360	0.506900	0.661320
F91	F9	0.572750	0.536000	0.725100
F101	F10	0.828830	0.327800	0.791860
F111	F11	0.773660	0.410100	0.824320
F121	F12	0.914260	0.417000	0.829320
F131	F13	0.986620	0.150400	0.480440
F141	F14	0.991680	0.073500	0.422960
F151	F15	0.102460	0.158200	0.450720
F161	F16	0.823520	0.123700	0.290440
F171	F17	0.752800	0.237500	0.276400
F181	F18	0.693950	0.216000	0.492900
F191	F19	0.635300	0.272600	0.435800
F201	F20	0.718570	0.175300	0.429340
F211	F21	0.979690	0.392600	0.590580
F221	F22	0.075660	0.348400	0.557920
F231	F23	0.006960	0.270100	0.572720
F241	F24	0.271890	0.550800	0.960380
F251	F25	0.243270	0.669000	0.957540
F261	F26	0.165260	0.577000	0.910720
F271	F27	0.120660	0.776800	0.073120
F281	F28	0.047940	0.706900	0.110680
F291	F29	0.189250	0.700500	0.116700
F301	F30	0.585040	0.933600	0.882280
F311	F31	0.709430	0.898400	0.884460
F321	F32	0.614820	0.807100	0.864240
F331	F33	0.431970	0.886300	0.990740
F341	F34	0.506600	0.847500	0.056000
F351	F35	0.542700	0.950600	0.051400
F361	F36	0.190480	0.247800	0.401960
F371	F37	0.199520	0.317600	0.350240
F381	F38	0.089930	0.249300	0.341660
F391	F39	0.428330	0.240300	0.281660
F401	F40	0.457790	0.120700	0.265580
F411	F41	0.502090	0.171700	0.333180
F421	F42	0.945760	0.882400	0.320920
F431	F43	0.903040	0.993100	0.338680
F441	F44	0.847650	0.964000	0.274900
F451	F45	0.036970	0.172200	0.208140
F461	F46	0.949340	0.089900	0.175680
F471	F47	0.084940	0.083000	0.170680
F481	F48	0.506180	0.349600	0.519560
F491	F49	0.568720	0.426500	0.577040
F501	F50	0.651740	0.341800	0.549280
F511	F51	0.533080	0.376300	0.709560
F521	F52	0.476400	0.262500	0.723600
F531	F53	0.201050	0.284000	0.507100
F541	F54	0.199500	0.227400	0.564200
F551	F55	0.289230	0.324700	0.570660
F561	F56	0.389110	0.107400	0.409420
F571	F57	0.517740	0.151600	0.442080
F581	F58	0.434240	0.229900	0.427280
F591	F59	0.311510	0.949200	0.039620
F601	F60	0.285730	0.831000	0.042460
F611	F61	0.254540	0.923000	0.089280
F621	F62	0.047540	0.723200	0.926880
F631	F63	0.937260	0.793100	0.889320
F641	F64	0.072550	0.799500	0.883300
F651	F65	0.702760	0.566400	0.117720
F661	F66	0.824970	0.601600	0.115540
F671	F67	0.750580	0.692900	0.135760
F681	F68	0.441230	0.613700	0.009260
F691	F69	0.450600	0.652500	0.944000
F701	F70	0.491300	0.549400	0.948600
F711	F71	0.211480	0.747800	0.401960
F721	F72	0.150720	0.817600	0.350240
F731	F73	0.251730	0.749300	0.341660
F741	F74	0.853330	0.740300	0.281660
F751	F75	0.807790	0.620700	0.265580
F761	F76	0.831090	0.671700	0.333180
F771	F77	0.375160	0.382400	0.320920
F781	F78	0.435640	0.493100	0.338680
F791	F79	0.427250	0.464000	0.274900
F801	F80	0.171170	0.672200	0.208140
F811	F81	0.226340	0.589900	0.175680
F821	F82	0.085740	0.583000	0.170680
F831	F83	0.013380	0.849600	0.519560
F841	F84	0.008320	0.926500	0.577040
F851	F85	0.897540	0.841800	0.549280
F861	F86	0.176480	0.876300	0.709560
F871	F87	0.247200	0.762500	0.723600
F881	F88	0.306050	0.784000	0.507100
F891	F89	0.364700	0.727400	0.564200
F901	F90	0.281430	0.824700	0.570660
F911	F91	0.020310	0.607400	0.409420
F921	F92	0.924340	0.651600	0.442080
F931	F93	0.993040	0.729900	0.427280
F941	F94	0.728110	0.449200	0.039620
F951	F95	0.756730	0.331000	0.042460
F961	F96	0.834740	0.423000	0.089280
F971	F97	0.879340	0.223200	0.926880
F981	F98	0.952060	0.293100	0.889320
F991	F99	0.810750	0.299500	0.883300
F1001	F100	0.414960	0.066400	0.117720
F1011	F101	0.290570	0.101600	0.115540
F1021	F102	0.385180	0.192900	0.135760
F1031	F103	0.568030	0.113700	0.009260
F1041	F104	0.493400	0.152500	0.944000
F1051	F105	0.457300	0.049400	0.948600
F1061	F106	0.809520	0.752200	0.598040
F1071	F107	0.800480	0.682400	0.649760
F1081	F108	0.910070	0.750700	0.658340
F1091	F109	0.571670	0.759700	0.718340
F1101	F110	0.542210	0.879300	0.734420
F1111	F111	0.497910	0.828300	0.666820
F1121	F112	0.054240	0.117600	0.679080
F1131	F113	0.096960	0.006900	0.661320
F1141	F114	0.152350	0.036000	0.725100
F1151	F115	0.963030	0.827800	0.791860
F1161	F116	0.050660	0.910100	0.824320
F1171	F117	0.915060	0.917000	0.829320
F1181	F118	0.493820	0.650400	0.480440
F1191	F119	0.431280	0.573500	0.422960
F1201	F120	0.348260	0.658200	0.450720
F1211	F121	0.466920	0.623700	0.290440
F1221	F122	0.523600	0.737500	0.276400
F1231	F123	0.798950	0.716000	0.492900
F1241	F124	0.800500	0.772600	0.435800
F1251	F125	0.710770	0.675300	0.429340
F1261	F126	0.610890	0.892600	0.590580
F1271	F127	0.482260	0.848400	0.557920
F1281	F128	0.565760	0.770100	0.572720
F1291	F129	0.688490	0.050800	0.960380
F1301	F130	0.714270	0.169000	0.957540
F1311	F131	0.745460	0.077000	0.910720
F1321	F132	0.952460	0.276800	0.073120
F1331	F133	0.062740	0.206900	0.110680
F1341	F134	0.927450	0.200500	0.116700
F1351	F135	0.297240	0.433600	0.882280
F1361	F136	0.175030	0.398400	0.884460
F1371	F137	0.249420	0.307100	0.864240
F1381	F138	0.558770	0.386300	0.990740
F1391	F139	0.549400	0.347500	0.056000
F1401	F140	0.508700	0.450600	0.051400
