data_EZUCOS_SL_PM
_symmetry_space_group_name_H-M	'P1'
_cell_length_a	25.462700
_cell_length_b	9.886800
_cell_length_c	21.952600
_cell_angle_alpha	90.000000
_cell_angle_beta	130.156800
_cell_angle_gamma	90.000000
_symmetry_Int_Tables_number 1

loop_
_symmetry_equiv_pos_as_xyz
'x,y,z'

loop_
_atom_site_label
_atom_site_type_symbol
_atom_site_fract_x
_atom_site_fract_y
_atom_site_fract_z
Cd11	Cd1	0.732010	0.410640	0.061640
H21	H2	0.762000	0.325200	0.226200
H31	H3	0.729300	0.364200	0.300100
H41	H4	0.599800	0.649100	0.140400
H51	H5	0.640000	0.607400	0.075600
H61	H6	0.493800	0.815800	0.179200
H71	H7	0.379000	0.791500	0.071600
H81	H8	0.400700	0.408500	0.056100
H91	H9	0.515100	0.416000	0.162400
H101	H10	0.603600	0.244700	0.338600
H111	H11	0.620900	0.267400	0.282500
H121	H12	0.709000	0.380000	0.441000
C131	C13	0.729000	0.391100	0.208900
C141	C14	0.709400	0.413400	0.253700
C151	C15	0.659100	0.511300	0.228600
C161	C16	0.633100	0.583000	0.159500
C171	C17	0.656900	0.555700	0.120300
C181	C18	0.519500	0.618900	0.182200
C191	C19	0.476500	0.732100	0.154600
C201	C20	0.407100	0.715800	0.089400
C211	C21	0.420200	0.491500	0.080700
C221	C22	0.489000	0.494700	0.144400
C231	C23	0.722300	0.618000	0.404900
C241	C24	0.677400	0.501500	0.352100
C251	C25	0.678100	0.384700	0.381400
C261	C26	0.640800	0.258100	0.337700
C271	C27	0.687400	0.135200	0.373500
N281	N28	0.703400	0.458300	0.142100
N291	N29	0.633600	0.527500	0.268300
N301	N30	0.588500	0.636800	0.244400
N311	N31	0.378300	0.601200	0.051000
O321	O32	0.717360	0.723100	0.369200
O331	O33	0.762070	0.604400	0.479600
O341	O34	0.661300	0.020200	0.347200
O351	O35	0.751220	0.151800	0.429500
H361	H36	0.391130	0.735430	0.224310
Cd371	Cd37	0.232010	0.910640	0.061640
H381	H38	0.262000	0.825200	0.226200
H391	H39	0.229300	0.864200	0.300100
H401	H40	0.099800	0.149100	0.140400
H411	H41	0.140000	0.107400	0.075600
H421	H42	0.993800	0.315800	0.179200
H431	H43	0.879000	0.291500	0.071600
H441	H44	0.900700	0.908500	0.056100
H451	H45	0.015100	0.916000	0.162400
H461	H46	0.103600	0.744700	0.338600
H471	H47	0.120900	0.767400	0.282500
H481	H48	0.209000	0.880000	0.441000
C491	C49	0.229000	0.891100	0.208900
C501	C50	0.209400	0.913400	0.253700
C511	C51	0.159100	0.011300	0.228600
C521	C52	0.133100	0.083000	0.159500
C531	C53	0.156900	0.055700	0.120300
C541	C54	0.019500	0.118900	0.182200
C551	C55	0.976500	0.232100	0.154600
C561	C56	0.907100	0.215800	0.089400
C571	C57	0.920200	0.991500	0.080700
C581	C58	0.989000	0.994700	0.144400
C591	C59	0.222300	0.118000	0.404900
C601	C60	0.177400	0.001500	0.352100
C611	C61	0.178100	0.884700	0.381400
C621	C62	0.140800	0.758100	0.337700
C631	C63	0.187400	0.635200	0.373500
N641	N64	0.203400	0.958300	0.142100
N651	N65	0.133600	0.027500	0.268300
N661	N66	0.088500	0.136800	0.244400
N671	N67	0.878300	0.101200	0.051000
O681	O68	0.217360	0.223100	0.369200
O691	O69	0.262070	0.104400	0.479600
O701	O70	0.161300	0.520200	0.347200
O711	O71	0.251220	0.651800	0.429500
H721	H72	0.891130	0.235430	0.224310
Cd731	Cd73	0.267990	0.410640	0.438360
H741	H74	0.238000	0.325200	0.273800
H751	H75	0.270700	0.364200	0.199900
H761	H76	0.400200	0.649100	0.359600
H771	H77	0.360000	0.607400	0.424400
H781	H78	0.506200	0.815800	0.320800
H791	H79	0.621000	0.791500	0.428400
H801	H80	0.599300	0.408500	0.443900
H811	H81	0.484900	0.416000	0.337600
H821	H82	0.396400	0.244700	0.161400
H831	H83	0.379100	0.267400	0.217500
H841	H84	0.291000	0.380000	0.059000
C851	C85	0.271000	0.391100	0.291100
C861	C86	0.290600	0.413400	0.246300
C871	C87	0.340900	0.511300	0.271400
C881	C88	0.366900	0.583000	0.340500
C891	C89	0.343100	0.555700	0.379700
C901	C90	0.480500	0.618900	0.317800
C911	C91	0.523500	0.732100	0.345400
C921	C92	0.592900	0.715800	0.410600
C931	C93	0.579800	0.491500	0.419300
C941	C94	0.511000	0.494700	0.355600
C951	C95	0.277700	0.618000	0.095100
C961	C96	0.322600	0.501500	0.147900
C971	C97	0.321900	0.384700	0.118600
C981	C98	0.359200	0.258100	0.162300
C991	C99	0.312600	0.135200	0.126500
N1001	N100	0.296600	0.458300	0.357900
N1011	N101	0.366400	0.527500	0.231700
N1021	N102	0.411500	0.636800	0.255600
N1031	N103	0.621700	0.601200	0.449000
O1041	O104	0.282640	0.723100	0.130800
O1051	O105	0.237930	0.604400	0.020400
O1061	O106	0.338700	0.020200	0.152800
O1071	O107	0.248780	0.151800	0.070500
H1081	H108	0.608870	0.735430	0.275690
Cd1091	Cd109	0.767990	0.910640	0.438360
H1101	H110	0.738000	0.825200	0.273800
H1111	H111	0.770700	0.864200	0.199900
H1121	H112	0.900200	0.149100	0.359600
H1131	H113	0.860000	0.107400	0.424400
H1141	H114	0.006200	0.315800	0.320800
H1151	H115	0.121000	0.291500	0.428400
H1161	H116	0.099300	0.908500	0.443900
H1171	H117	0.984900	0.916000	0.337600
H1181	H118	0.896400	0.744700	0.161400
H1191	H119	0.879100	0.767400	0.217500
H1201	H120	0.791000	0.880000	0.059000
C1211	C121	0.771000	0.891100	0.291100
C1221	C122	0.790600	0.913400	0.246300
C1231	C123	0.840900	0.011300	0.271400
C1241	C124	0.866900	0.083000	0.340500
C1251	C125	0.843100	0.055700	0.379700
C1261	C126	0.980500	0.118900	0.317800
C1271	C127	0.023500	0.232100	0.345400
C1281	C128	0.092900	0.215800	0.410600
C1291	C129	0.079800	0.991500	0.419300
C1301	C130	0.011000	0.994700	0.355600
C1311	C131	0.777700	0.118000	0.095100
C1321	C132	0.822600	0.001500	0.147900
C1331	C133	0.821900	0.884700	0.118600
C1341	C134	0.859200	0.758100	0.162300
C1351	C135	0.812600	0.635200	0.126500
N1361	N136	0.796600	0.958300	0.357900
N1371	N137	0.866400	0.027500	0.231700
N1381	N138	0.911500	0.136800	0.255600
N1391	N139	0.121700	0.101200	0.449000
O1401	O140	0.782640	0.223100	0.130800
O1411	O141	0.737930	0.104400	0.020400
O1421	O142	0.838700	0.520200	0.152800
O1431	O143	0.748780	0.651800	0.070500
H1441	H144	0.108870	0.235430	0.275690
Cd1451	Cd145	0.267990	0.589360	0.938360
H1461	H146	0.238000	0.674800	0.773800
H1471	H147	0.270700	0.635800	0.699900
H1481	H148	0.400200	0.350900	0.859600
H1491	H149	0.360000	0.392600	0.924400
H1501	H150	0.506200	0.184200	0.820800
H1511	H151	0.621000	0.208500	0.928400
H1521	H152	0.599300	0.591500	0.943900
H1531	H153	0.484900	0.584000	0.837600
H1541	H154	0.396400	0.755300	0.661400
H1551	H155	0.379100	0.732600	0.717500
H1561	H156	0.291000	0.620000	0.559000
C1571	C157	0.271000	0.608900	0.791100
C1581	C158	0.290600	0.586600	0.746300
C1591	C159	0.340900	0.488700	0.771400
C1601	C160	0.366900	0.417000	0.840500
C1611	C161	0.343100	0.444300	0.879700
C1621	C162	0.480500	0.381100	0.817800
C1631	C163	0.523500	0.267900	0.845400
C1641	C164	0.592900	0.284200	0.910600
C1651	C165	0.579800	0.508500	0.919300
C1661	C166	0.511000	0.505300	0.855600
C1671	C167	0.277700	0.382000	0.595100
C1681	C168	0.322600	0.498500	0.647900
C1691	C169	0.321900	0.615300	0.618600
C1701	C170	0.359200	0.741900	0.662300
C1711	C171	0.312600	0.864800	0.626500
N1721	N172	0.296600	0.541700	0.857900
N1731	N173	0.366400	0.472500	0.731700
N1741	N174	0.411500	0.363200	0.755600
N1751	N175	0.621700	0.398800	0.949000
O1761	O176	0.282640	0.276900	0.630800
O1771	O177	0.237930	0.395600	0.520400
O1781	O178	0.338700	0.979800	0.652800
O1791	O179	0.248780	0.848200	0.570500
H1801	H180	0.608870	0.264570	0.775690
Cd1811	Cd181	0.767990	0.089360	0.938360
H1821	H182	0.738000	0.174800	0.773800
H1831	H183	0.770700	0.135800	0.699900
H1841	H184	0.900200	0.850900	0.859600
H1851	H185	0.860000	0.892600	0.924400
H1861	H186	0.006200	0.684200	0.820800
H1871	H187	0.121000	0.708500	0.928400
H1881	H188	0.099300	0.091500	0.943900
H1891	H189	0.984900	0.084000	0.837600
H1901	H190	0.896400	0.255300	0.661400
H1911	H191	0.879100	0.232600	0.717500
H1921	H192	0.791000	0.120000	0.559000
C1931	C193	0.771000	0.108900	0.791100
C1941	C194	0.790600	0.086600	0.746300
C1951	C195	0.840900	0.988700	0.771400
C1961	C196	0.866900	0.917000	0.840500
C1971	C197	0.843100	0.944300	0.879700
C1981	C198	0.980500	0.881100	0.817800
C1991	C199	0.023500	0.767900	0.845400
C2001	C200	0.092900	0.784200	0.910600
C2011	C201	0.079800	0.008500	0.919300
C2021	C202	0.011000	0.005300	0.855600
C2031	C203	0.777700	0.882000	0.595100
C2041	C204	0.822600	0.998500	0.647900
C2051	C205	0.821900	0.115300	0.618600
C2061	C206	0.859200	0.241900	0.662300
C2071	C207	0.812600	0.364800	0.626500
N2081	N208	0.796600	0.041700	0.857900
N2091	N209	0.866400	0.972500	0.731700
N2101	N210	0.911500	0.863200	0.755600
N2111	N211	0.121700	0.898800	0.949000
O2121	O212	0.782640	0.776900	0.630800
O2131	O213	0.737930	0.895600	0.520400
O2141	O214	0.838700	0.479800	0.652800
O2151	O215	0.748780	0.348200	0.570500
H2161	H216	0.108870	0.764570	0.775690
Cd2171	Cd217	0.732010	0.589360	0.561640
H2181	H218	0.762000	0.674800	0.726200
H2191	H219	0.729300	0.635800	0.800100
H2201	H220	0.599800	0.350900	0.640400
H2211	H221	0.640000	0.392600	0.575600
H2221	H222	0.493800	0.184200	0.679200
H2231	H223	0.379000	0.208500	0.571600
H2241	H224	0.400700	0.591500	0.556100
H2251	H225	0.515100	0.584000	0.662400
H2261	H226	0.603600	0.755300	0.838600
H2271	H227	0.620900	0.732600	0.782500
H2281	H228	0.709000	0.620000	0.941000
C2291	C229	0.729000	0.608900	0.708900
C2301	C230	0.709400	0.586600	0.753700
C2311	C231	0.659100	0.488700	0.728600
C2321	C232	0.633100	0.417000	0.659500
C2331	C233	0.656900	0.444300	0.620300
C2341	C234	0.519500	0.381100	0.682200
C2351	C235	0.476500	0.267900	0.654600
C2361	C236	0.407100	0.284200	0.589400
C2371	C237	0.420200	0.508500	0.580700
C2381	C238	0.489000	0.505300	0.644400
C2391	C239	0.722300	0.382000	0.904900
C2401	C240	0.677400	0.498500	0.852100
C2411	C241	0.678100	0.615300	0.881400
C2421	C242	0.640800	0.741900	0.837700
C2431	C243	0.687400	0.864800	0.873500
N2441	N244	0.703400	0.541700	0.642100
N2451	N245	0.633600	0.472500	0.768300
N2461	N246	0.588500	0.363200	0.744400
N2471	N247	0.378300	0.398800	0.551000
O2481	O248	0.717360	0.276900	0.869200
O2491	O249	0.762070	0.395600	0.979600
O2501	O250	0.661300	0.979800	0.847200
O2511	O251	0.751220	0.848200	0.929500
H2521	H252	0.391130	0.264570	0.724310
Cd2531	Cd253	0.232010	0.089360	0.561640
H2541	H254	0.262000	0.174800	0.726200
H2551	H255	0.229300	0.135800	0.800100
H2561	H256	0.099800	0.850900	0.640400
H2571	H257	0.140000	0.892600	0.575600
H2581	H258	0.993800	0.684200	0.679200
H2591	H259	0.879000	0.708500	0.571600
H2601	H260	0.900700	0.091500	0.556100
H2611	H261	0.015100	0.084000	0.662400
H2621	H262	0.103600	0.255300	0.838600
H2631	H263	0.120900	0.232600	0.782500
H2641	H264	0.209000	0.120000	0.941000
C2651	C265	0.229000	0.108900	0.708900
C2661	C266	0.209400	0.086600	0.753700
C2671	C267	0.159100	0.988700	0.728600
C2681	C268	0.133100	0.917000	0.659500
C2691	C269	0.156900	0.944300	0.620300
C2701	C270	0.019500	0.881100	0.682200
C2711	C271	0.976500	0.767900	0.654600
C2721	C272	0.907100	0.784200	0.589400
C2731	C273	0.920200	0.008500	0.580700
C2741	C274	0.989000	0.005300	0.644400
C2751	C275	0.222300	0.882000	0.904900
C2761	C276	0.177400	0.998500	0.852100
C2771	C277	0.178100	0.115300	0.881400
C2781	C278	0.140800	0.241900	0.837700
C2791	C279	0.187400	0.364800	0.873500
N2801	N280	0.203400	0.041700	0.642100
N2811	N281	0.133600	0.972500	0.768300
N2821	N282	0.088500	0.863200	0.744400
N2831	N283	0.878300	0.898800	0.551000
O2841	O284	0.217360	0.776900	0.869200
O2851	O285	0.262070	0.895600	0.979600
O2861	O286	0.161300	0.479800	0.847200
O2871	O287	0.251220	0.348200	0.929500
H2881	H288	0.891130	0.764570	0.724310
