data_FABFOF_ion_b_PM
_symmetry_space_group_name_H-M	'P1'
_cell_length_a	9.592000
_cell_length_b	9.592000
_cell_length_c	11.021000
_cell_angle_alpha	91.420400
_cell_angle_beta	91.420400
_cell_angle_gamma	105.979500
_symmetry_Int_Tables_number 1

loop_
_symmetry_equiv_pos_as_xyz
'x,y,z'

loop_
_atom_site_label
_atom_site_type_symbol
_atom_site_fract_x
_atom_site_fract_y
_atom_site_fract_z
C11	C1	0.500200	0.119600	0.423840
C21	C2	0.493410	0.235120	0.336800
C31	C3	0.519880	0.145730	0.551170
C41	C4	0.516550	0.030270	0.627860
H51	H5	0.532240	0.053280	0.724870
C61	C6	0.544890	0.290850	0.609000
N71	N7	0.841770	0.747550	0.531140
O81	O8	0.515640	0.378940	0.375760
O91	O9	0.467480	0.204160	0.229120
O101	O10	0.653470	0.386960	0.587860
O111	O11	0.447410	0.316010	0.692350
C121	C12	0.882760	0.501820	0.082070
C131	C13	0.767230	0.507990	0.169230
C141	C14	0.856900	0.483530	0.954610
C151	C15	0.972480	0.487150	0.877960
H161	H16	0.949670	0.472110	0.780890
C171	C17	0.711810	0.458800	0.896630
N181	N18	0.253440	0.133590	0.956340
O191	O19	0.623660	0.487120	0.130170
O201	O20	0.797930	0.532260	0.277090
O211	O21	0.615330	0.350670	0.918120
O221	O22	0.686920	0.555920	0.812810
C231	C23	0.496970	0.887570	0.582070
C241	C24	0.503410	0.772090	0.669210
C251	C25	0.477610	0.861470	0.454680
C261	C26	0.480730	0.976910	0.378030
H271	H27	0.464910	0.953910	0.281030
C281	C28	0.453000	0.716360	0.396790
N291	N29	0.142160	0.281490	0.460490
O301	O30	0.481550	0.628350	0.630190
O311	O31	0.528760	0.802940	0.776930
O321	O32	0.344730	0.619930	0.418090
O331	O33	0.550460	0.691570	0.313270
C341	C34	0.115020	0.505900	0.923850
C351	C35	0.230520	0.499140	0.836780
C361	C36	0.140920	0.524520	0.051270
C371	C37	0.025310	0.520660	0.127940
H381	H38	0.048090	0.535370	0.225020
C391	C39	0.286050	0.549410	0.109100
N401	N40	0.737440	0.850870	0.039600
O411	O41	0.374090	0.519780	0.875910
O421	O42	0.199800	0.474680	0.728930
O431	O43	0.382250	0.657910	0.087910
O441	O44	0.311220	0.451870	0.192390
Zn451	Zn45	0.500400	0.502230	0.252940
Zn461	Zn46	0.497370	0.505190	0.752830
H471	H47	0.876830	0.812500	0.457110
H481	H48	0.827700	0.812400	0.604800
H491	H49	0.918830	0.693470	0.554630
H501	H50	0.238650	0.127430	0.861950
H511	H51	0.225850	0.224360	0.991060
H521	H52	0.361910	0.142400	0.979090
H531	H53	0.146430	0.260640	0.367420
H541	H54	0.080930	0.354780	0.474860
H551	H55	0.247190	0.325750	0.496590
H561	H56	0.770600	0.920300	0.967900
H571	H57	0.680710	0.897740	0.100750
H581	H58	0.828300	0.833190	0.083910
H591	H59	0.670110	0.751950	0.005740
H601	H60	0.743220	0.671560	0.507880
H611	H61	0.094230	0.184780	0.503140
H621	H62	0.187430	0.039980	0.993300
