data_FABGUM_freeONLY_PM
_symmetry_space_group_name_H-M	'P1'
_cell_length_a	8.701100
_cell_length_b	20.857000
_cell_length_c	8.286800
_cell_angle_alpha	90.000000
_cell_angle_beta	90.000000
_cell_angle_gamma	90.000000
_symmetry_Int_Tables_number 1

loop_
_symmetry_equiv_pos_as_xyz
'x,y,z'

loop_
_atom_site_label
_atom_site_type_symbol
_atom_site_fract_x
_atom_site_fract_y
_atom_site_fract_z
N11	N1	0.619300	0.927200	0.917700
C11	C1	0.684800	0.873700	0.872300
H11	H1	0.698600	0.861100	0.764300
H21	H2	0.874500	0.771400	0.095900
N21	N2	0.119300	0.427200	0.917700
C21	C2	0.184800	0.373700	0.872300
H31	H3	0.198600	0.361100	0.764300
H41	H4	0.374500	0.271400	0.095900
N31	N3	0.380700	0.072800	0.917700
C31	C3	0.315200	0.126300	0.872300
H51	H5	0.301400	0.138900	0.764300
H61	H6	0.125500	0.228600	0.095900
N41	N4	0.880700	0.572800	0.917700
C41	C4	0.815200	0.626300	0.872300
H71	H7	0.801400	0.638900	0.764300
H81	H8	0.625500	0.728600	0.095900
N51	N5	0.380700	0.927200	0.582300
C51	C5	0.315200	0.873700	0.627700
H91	H9	0.301400	0.861100	0.735700
H101	H10	0.125500	0.771400	0.404100
N61	N6	0.880700	0.427200	0.582300
C61	C6	0.815200	0.373700	0.627700
H111	H11	0.801400	0.361100	0.735700
H121	H12	0.625500	0.271400	0.404100
N71	N7	0.619300	0.072800	0.582300
C71	C7	0.684800	0.126300	0.627700
H131	H13	0.698600	0.138900	0.735700
H141	H14	0.874500	0.228600	0.404100
N81	N8	0.119300	0.572800	0.582300
C81	C8	0.184800	0.626300	0.627700
H151	H15	0.198600	0.638900	0.735700
H161	H16	0.374500	0.728600	0.404100
N91	N9	0.380700	0.072800	0.082300
C91	C9	0.315200	0.126300	0.127700
H171	H17	0.301400	0.138900	0.235700
H181	H18	0.125500	0.228600	0.904100
N101	N10	0.880700	0.572800	0.082300
C101	C10	0.815200	0.626300	0.127700
H191	H19	0.801400	0.638900	0.235700
H201	H20	0.625500	0.728600	0.904100
N111	N11	0.619300	0.927200	0.082300
C111	C11	0.684800	0.873700	0.127700
H211	H21	0.698600	0.861100	0.235700
H221	H22	0.874500	0.771400	0.904100
N121	N12	0.119300	0.427200	0.082300
C121	C12	0.184800	0.373700	0.127700
H231	H23	0.198600	0.361100	0.235700
H241	H24	0.374500	0.271400	0.904100
N131	N13	0.619300	0.072800	0.417700
C131	C13	0.684800	0.126300	0.372300
H251	H25	0.698600	0.138900	0.264300
H261	H26	0.874500	0.228600	0.595900
N141	N14	0.119300	0.572800	0.417700
C141	C14	0.184800	0.626300	0.372300
H271	H27	0.198600	0.638900	0.264300
H281	H28	0.374500	0.728600	0.595900
N151	N15	0.380700	0.927200	0.417700
C151	C15	0.315200	0.873700	0.372300
H291	H29	0.301400	0.861100	0.264300
H301	H30	0.125500	0.771400	0.595900
N161	N16	0.880700	0.427200	0.417700
C161	C16	0.815200	0.373700	0.372300
H311	H31	0.801400	0.361100	0.264300
H321	H32	0.625500	0.271400	0.595900
Ag11	Ag1	0.500000	0.000000	0.750000
Ag21	Ag2	0.000000	0.500000	0.750000
Ag31	Ag3	0.500000	0.000000	0.250000
Ag41	Ag4	0.000000	0.500000	0.250000
N171	N17	0.729500	0.839100	0.000000
C171	C17	0.809300	0.775400	0.000000
N181	N18	0.229500	0.339100	0.000000
C181	C18	0.309300	0.275400	0.000000
N191	N19	0.270500	0.160900	0.000000
C191	C19	0.190700	0.224600	0.000000
N201	N20	0.770500	0.660900	0.000000
C201	C20	0.690700	0.724600	0.000000
N211	N21	0.270500	0.839100	0.500000
C211	C21	0.190700	0.775400	0.500000
N221	N22	0.770500	0.339100	0.500000
C221	C22	0.690700	0.275400	0.500000
N231	N23	0.729500	0.160900	0.500000
C231	C23	0.809300	0.224600	0.500000
N241	N24	0.229500	0.660900	0.500000
C241	C24	0.309300	0.724600	0.500000
