data_FAFDEX_freeONLY_PM
_symmetry_space_group_name_H-M	'P1'
_cell_length_a	5.847800
_cell_length_b	9.108000
_cell_length_c	11.034900
_cell_angle_alpha	91.713000
_cell_angle_beta	93.054000
_cell_angle_gamma	97.672000
_symmetry_Int_Tables_number 1

loop_
_symmetry_equiv_pos_as_xyz
'x,y,z'

loop_
_atom_site_label
_atom_site_type_symbol
_atom_site_fract_x
_atom_site_fract_y
_atom_site_fract_z
K11	K1	0.177900	0.954200	0.574800
Mn11	Mn1	0.556800	0.854710	0.844980
H11	H1	0.166000	0.937000	0.865000
H21	H2	0.116000	0.297000	0.658000
H31	H3	0.752000	0.593000	0.781000
H41	H4	0.900000	0.626000	0.561000
H51	H5	0.025000	0.937000	0.302000
H61	H6	0.377000	0.844000	0.072000
H71	H7	0.565000	0.855000	0.638000
H81	H8	0.704000	0.991000	0.632000
H91	H9	0.268700	0.154400	0.968900
H101	H10	0.055000	0.288700	0.851700
H111	H11	0.366300	0.449000	0.923500
H121	H12	0.466100	0.468300	0.675100
H131	H13	0.742400	0.550500	0.393300
H141	H14	0.004900	0.687600	0.280800
H151	H15	0.682800	0.948200	0.171500
H161	H16	0.664400	0.639600	0.162200
C11	C1	0.558200	0.190000	0.873700
C21	C2	0.303400	0.149600	0.884900
C31	C3	0.200900	0.269900	0.818400
C41	C4	0.393800	0.401100	0.847900
C51	C5	0.435100	0.516800	0.751900
C61	C6	0.221700	0.598900	0.734300
C71	C7	0.513800	0.702100	0.393200
C81	C8	0.751700	0.657800	0.408300
C91	C9	0.878400	0.738900	0.307700
C101	C10	0.688100	0.858500	0.124500
C111	C11	0.678900	0.730800	0.209600
C121	C12	0.910700	0.875000	0.055100
O11	O1	0.701700	0.107600	0.869700
O21	O2	0.609400	0.333100	0.859600
O31	O3	0.249600	0.005100	0.836900
O41	O4	0.173100	0.231600	0.694700
O51	O5	0.628200	0.623100	0.790600
O61	O6	0.036300	0.519700	0.694700
O71	O7	0.243500	0.733200	0.760700
O81	O8	0.380600	0.716000	0.471800
O91	O9	0.470700	0.736200	0.278200
O101	O10	0.847200	0.696000	0.528200
O111	O11	0.958400	0.885500	0.352000
O121	O12	0.495100	0.833900	0.037200
O131	O13	0.892000	0.860800	0.941200
O141	O14	0.096900	0.902600	0.117600
O151	O15	0.686700	0.909200	0.667600
