data_FAHBIC_freeONLY_PM
_symmetry_space_group_name_H-M	'P1'
_cell_length_a	8.738300
_cell_length_b	18.160400
_cell_length_c	6.707200
_cell_angle_alpha	90.000000
_cell_angle_beta	90.000000
_cell_angle_gamma	90.000000
_symmetry_Int_Tables_number 1

loop_
_symmetry_equiv_pos_as_xyz
'x,y,z'

loop_
_atom_site_label
_atom_site_type_symbol
_atom_site_fract_x
_atom_site_fract_y
_atom_site_fract_z
Dy11	Dy1	0.744150	0.605540	0.405910
O11	O1	0.721500	0.654100	0.737300
O21	O2	0.854100	0.510340	0.223800
O31	O3	0.654100	0.501680	0.593600
O41	O4	0.103110	0.784120	0.408200
C11	C1	0.986700	0.753300	0.343100
H11	H1	0.929500	0.777900	0.247200
C21	C2	0.528900	0.478070	0.646700
H21	H2	0.446000	0.501700	0.587900
C31	C3	0.984000	0.495900	0.162500
H31	H3	0.055300	0.533800	0.170400
C41	C4	0.738100	0.622190	0.901800
H41	H4	0.739200	0.571000	0.899600
O51	O5	0.030200	0.437590	0.092500
O61	O6	0.493900	0.429540	0.762000
O71	O7	0.941740	0.691710	0.397800
O81	O8	0.753000	0.651800	0.065600
Dy21	Dy2	0.255850	0.394460	0.905910
O91	O9	0.278500	0.345900	0.237300
O101	O10	0.145900	0.489660	0.723800
O111	O11	0.345900	0.498320	0.093600
O121	O12	0.896890	0.215880	0.908200
C51	C5	0.013300	0.246700	0.843100
H51	H5	0.070500	0.222100	0.747200
C61	C6	0.471100	0.521930	0.146700
H61	H6	0.554000	0.498300	0.087900
C71	C7	0.016000	0.504100	0.662500
H71	H7	0.944700	0.466200	0.670400
C81	C8	0.261900	0.377810	0.401800
H81	H8	0.260800	0.429000	0.399600
O131	O13	0.969800	0.562410	0.592500
O141	O14	0.506100	0.570460	0.262000
O151	O15	0.058260	0.308290	0.897800
O161	O16	0.247000	0.348200	0.565600
Dy31	Dy3	0.244150	0.894460	0.405910
O171	O17	0.221500	0.845900	0.737300
O181	O18	0.354100	0.989660	0.223800
O191	O19	0.154100	0.998320	0.593600
O201	O20	0.603110	0.715880	0.408200
C91	C9	0.486700	0.746700	0.343100
H91	H9	0.429500	0.722100	0.247200
C101	C10	0.028900	0.021930	0.646700
H101	H10	0.946000	0.998300	0.587900
C111	C11	0.484000	0.004100	0.162500
H111	H11	0.555300	0.966200	0.170400
C121	C12	0.238100	0.877810	0.901800
H121	H12	0.239200	0.929000	0.899600
O211	O21	0.530200	0.062410	0.092500
O221	O22	0.993900	0.070460	0.762000
O231	O23	0.441740	0.808290	0.397800
O241	O24	0.253000	0.848200	0.065600
Dy41	Dy4	0.755850	0.105540	0.905910
O251	O25	0.778500	0.154100	0.237300
O261	O26	0.645900	0.010340	0.723800
O271	O27	0.845900	0.001680	0.093600
O281	O28	0.396890	0.284120	0.908200
C131	C13	0.513300	0.253300	0.843100
H131	H13	0.570500	0.277900	0.747200
C141	C14	0.971100	0.978070	0.146700
H141	H14	0.054000	0.001700	0.087900
C151	C15	0.516000	0.995900	0.662500
H151	H15	0.444700	0.033800	0.670400
C161	C16	0.761900	0.122190	0.401800
H161	H16	0.760800	0.071000	0.399600
O291	O29	0.469800	0.937590	0.592500
O301	O30	0.006100	0.929540	0.262000
O311	O31	0.558260	0.191710	0.897800
O321	O32	0.747000	0.151800	0.565600
