data_FAHPOV_freeONLY_PM
_symmetry_space_group_name_H-M	'P1'
_cell_length_a	19.807000
_cell_length_b	27.714000
_cell_length_c	27.847000
_cell_angle_alpha	90.000000
_cell_angle_beta	90.000000
_cell_angle_gamma	90.000000
_symmetry_Int_Tables_number 1

loop_
_symmetry_equiv_pos_as_xyz
'x,y,z'

loop_
_atom_site_label
_atom_site_type_symbol
_atom_site_fract_x
_atom_site_fract_y
_atom_site_fract_z
Zn11	Zn1	0.311440	0.942370	0.618010
Zn21	Zn2	0.188560	0.557630	0.118010
Zn31	Zn3	0.311440	0.057630	0.618010
Zn41	Zn4	0.188560	0.442370	0.118010
Zn51	Zn5	0.199590	0.000000	0.562060
Zn61	Zn6	0.198760	0.000000	0.675770
Zn71	Zn7	0.300410	0.500000	0.062060
Zn81	Zn8	0.301240	0.500000	0.175770
H11	H1	0.358100	0.851500	0.499000
H21	H2	0.363700	0.795600	0.436500
H31	H3	0.194700	0.847600	0.383100
H41	H4	0.188300	0.906100	0.443700
H51	H5	0.189900	0.735900	0.268300
H61	H6	0.177300	0.671200	0.215400
H71	H7	0.337300	0.608600	0.272200
H81	H8	0.347600	0.672500	0.326100
H91	H9	0.642000	0.073400	0.621800
H101	H10	0.524600	0.072300	0.622100
H111	H11	0.141900	0.648500	0.999000
H121	H12	0.136300	0.704400	0.936500
H131	H13	0.305300	0.652400	0.883100
H141	H14	0.311700	0.593900	0.943700
H151	H15	0.310100	0.764100	0.768300
H161	H16	0.322700	0.828800	0.715400
H171	H17	0.162700	0.891400	0.772200
H181	H18	0.152400	0.827500	0.826100
H191	H19	0.858000	0.426600	0.121800
H201	H20	0.975400	0.427700	0.122100
H211	H21	0.358100	0.148500	0.499000
H221	H22	0.363700	0.204400	0.436500
H231	H23	0.194700	0.152400	0.383100
H241	H24	0.188300	0.093900	0.443700
H251	H25	0.189900	0.264100	0.268300
H261	H26	0.177300	0.328800	0.215400
H271	H27	0.337300	0.391400	0.272200
H281	H28	0.347600	0.327500	0.326100
H291	H29	0.642000	0.926600	0.621800
H301	H30	0.524600	0.927700	0.622100
H311	H31	0.141900	0.351500	0.999000
H321	H32	0.136300	0.295600	0.936500
H331	H33	0.305300	0.347600	0.883100
H341	H34	0.311700	0.406100	0.943700
H351	H35	0.310100	0.235900	0.768300
H361	H36	0.322700	0.171200	0.715400
H371	H37	0.162700	0.108600	0.772200
H381	H38	0.152400	0.172500	0.826100
H391	H39	0.858000	0.573400	0.121800
H401	H40	0.975400	0.572300	0.122100
H411	H41	0.991600	0.000000	0.683500
H421	H42	0.873600	0.000000	0.687600
H431	H43	0.868400	0.000000	0.543400
H441	H44	0.985000	0.000000	0.541400
H451	H45	0.508400	0.500000	0.183500
H461	H46	0.626400	0.500000	0.187600
H471	H47	0.631600	0.500000	0.043400
H481	H48	0.515000	0.500000	0.041400
C11	C1	0.266000	0.917300	0.520600
C21	C2	0.270900	0.882300	0.479800
C31	C3	0.323000	0.850800	0.475800
C41	C4	0.326300	0.817000	0.438200
C51	C5	0.276300	0.814500	0.403600
C61	C6	0.228700	0.847500	0.407200
C71	C7	0.223500	0.882800	0.443900
C81	C8	0.276400	0.779600	0.369000
C91	C9	0.275400	0.749100	0.338800
C101	C10	0.270000	0.711700	0.302000
C111	C11	0.221500	0.710200	0.269500
C121	C12	0.214600	0.672200	0.236800
C131	C13	0.260200	0.638000	0.236000
C141	C14	0.307800	0.635600	0.270200
C151	C15	0.312800	0.673400	0.302600
C161	C16	0.254200	0.593500	0.204200
C171	C17	0.618300	0.043600	0.621800
C181	C18	0.548700	0.042700	0.622800
C191	C19	0.234000	0.582700	0.020600
C201	C20	0.229100	0.617700	0.979800
C211	C21	0.177000	0.649200	0.975800
C221	C22	0.173700	0.683000	0.938200
C231	C23	0.223700	0.685500	0.903600
C241	C24	0.271300	0.652500	0.907200
C251	C25	0.276500	0.617200	0.943900
C261	C26	0.223600	0.720400	0.869000
C271	C27	0.224600	0.750900	0.838800
C281	C28	0.230000	0.788300	0.802000
C291	C29	0.278500	0.789800	0.769500
C301	C30	0.285400	0.827800	0.736800
C311	C31	0.239800	0.862000	0.736000
C321	C32	0.192200	0.864400	0.770200
C331	C33	0.187200	0.826600	0.802600
C341	C34	0.245800	0.906500	0.704200
C351	C35	0.881700	0.456400	0.121800
C361	C36	0.951300	0.457300	0.122800
C371	C37	0.266000	0.082700	0.520600
C381	C38	0.270900	0.117700	0.479800
C391	C39	0.323000	0.149200	0.475800
C401	C40	0.326300	0.183000	0.438200
C411	C41	0.276300	0.185500	0.403600
C421	C42	0.228700	0.152500	0.407200
C431	C43	0.223500	0.117200	0.443900
C441	C44	0.276400	0.220400	0.369000
C451	C45	0.275400	0.250900	0.338800
C461	C46	0.270000	0.288300	0.302000
C471	C47	0.221500	0.289800	0.269500
C481	C48	0.214600	0.327800	0.236800
C491	C49	0.260200	0.362000	0.236000
C501	C50	0.307800	0.364400	0.270200
C511	C51	0.312800	0.326600	0.302600
C521	C52	0.254200	0.406500	0.204200
C531	C53	0.618300	0.956400	0.621800
C541	C54	0.548700	0.957300	0.622800
C551	C55	0.234000	0.417300	0.020600
C561	C56	0.229100	0.382300	0.979800
C571	C57	0.177000	0.350800	0.975800
C581	C58	0.173700	0.317000	0.938200
C591	C59	0.223700	0.314500	0.903600
C601	C60	0.271300	0.347500	0.907200
C611	C61	0.276500	0.382800	0.943900
C621	C62	0.223600	0.279600	0.869000
C631	C63	0.224600	0.249100	0.838800
C641	C64	0.230000	0.211700	0.802000
C651	C65	0.278500	0.210200	0.769500
C661	C66	0.285400	0.172200	0.736800
C671	C67	0.239800	0.138000	0.736000
C681	C68	0.192200	0.135600	0.770200
C691	C69	0.187200	0.173400	0.802600
C701	C70	0.245800	0.093500	0.704200
C711	C71	0.881700	0.543600	0.121800
C721	C72	0.951300	0.542700	0.122800
C731	C73	0.075500	0.000000	0.611500
C741	C74	0.997600	0.000000	0.611200
C751	C75	0.965700	0.000000	0.654800
C761	C76	0.895500	0.000000	0.657300
C771	C77	0.857200	0.000000	0.614900
C781	C78	0.892600	0.000000	0.572800
C791	C79	0.962400	0.000000	0.571500
C801	C80	0.784900	0.000000	0.615600
C811	C81	0.725300	0.000000	0.618400
C821	C82	0.653000	0.000000	0.620800
C831	C83	0.513000	0.000000	0.624800
C841	C84	0.435400	0.000000	0.623600
C851	C85	0.424500	0.500000	0.111500
C861	C86	0.502400	0.500000	0.111200
C871	C87	0.534300	0.500000	0.154800
C881	C88	0.604500	0.500000	0.157300
C891	C89	0.642800	0.500000	0.114900
C901	C90	0.607400	0.500000	0.072800
C911	C91	0.537600	0.500000	0.071500
C921	C92	0.715100	0.500000	0.115600
C931	C93	0.774700	0.500000	0.118400
C941	C94	0.847000	0.500000	0.120800
C951	C95	0.987000	0.500000	0.124800
C961	C96	0.064600	0.500000	0.123600
O11	O1	0.310110	0.915430	0.551870
O21	O2	0.217600	0.945760	0.519000
O31	O3	0.205200	0.599900	0.170500
O41	O4	0.296600	0.561800	0.204100
O51	O5	0.407590	0.040370	0.623120
O61	O6	0.189890	0.584570	0.051870
O71	O7	0.282400	0.554240	0.019000
O81	O8	0.294800	0.900100	0.670500
O91	O9	0.203400	0.938200	0.704100
O101	O10	0.092410	0.459630	0.123120
O111	O11	0.310110	0.084570	0.551870
O121	O12	0.217600	0.054240	0.519000
O131	O13	0.205200	0.400100	0.170500
O141	O14	0.296600	0.438200	0.204100
O151	O15	0.407590	0.959630	0.623120
O161	O16	0.189890	0.415430	0.051870
O171	O17	0.282400	0.445760	0.019000
O181	O18	0.294800	0.099900	0.670500
O191	O19	0.203400	0.061800	0.704100
O201	O20	0.092410	0.540370	0.123120
O211	O21	0.255930	0.000000	0.618300
O221	O22	0.104100	0.000000	0.652260
O231	O23	0.102200	0.000000	0.570930
O241	O24	0.244070	0.500000	0.118300
O251	O25	0.395900	0.500000	0.152260
O261	O26	0.397800	0.500000	0.070930
Zn91	Zn9	0.688560	0.942370	0.381990
Zn101	Zn10	0.811440	0.557630	0.881990
Zn111	Zn11	0.688560	0.057630	0.381990
Zn121	Zn12	0.811440	0.442370	0.881990
Zn131	Zn13	0.800410	0.000000	0.437940
Zn141	Zn14	0.801240	0.000000	0.324230
Zn151	Zn15	0.699590	0.500000	0.937940
Zn161	Zn16	0.698760	0.500000	0.824230
H491	H49	0.641900	0.851500	0.501000
H501	H50	0.636300	0.795600	0.563500
H511	H51	0.805300	0.847600	0.616900
H521	H52	0.811700	0.906100	0.556300
H531	H53	0.810100	0.735900	0.731700
H541	H54	0.822700	0.671200	0.784600
H551	H55	0.662700	0.608600	0.727800
H561	H56	0.652400	0.672500	0.673900
H571	H57	0.358000	0.073400	0.378200
H581	H58	0.475400	0.072300	0.377900
H591	H59	0.858100	0.648500	0.001000
H601	H60	0.863700	0.704400	0.063500
H611	H61	0.694700	0.652400	0.116900
H621	H62	0.688300	0.593900	0.056300
H631	H63	0.689900	0.764100	0.231700
H641	H64	0.677300	0.828800	0.284600
H651	H65	0.837300	0.891400	0.227800
H661	H66	0.847600	0.827500	0.173900
H671	H67	0.142000	0.426600	0.878200
H681	H68	0.024600	0.427700	0.877900
H691	H69	0.641900	0.148500	0.501000
H701	H70	0.636300	0.204400	0.563500
H711	H71	0.805300	0.152400	0.616900
H721	H72	0.811700	0.093900	0.556300
H731	H73	0.810100	0.264100	0.731700
H741	H74	0.822700	0.328800	0.784600
H751	H75	0.662700	0.391400	0.727800
H761	H76	0.652400	0.327500	0.673900
H771	H77	0.358000	0.926600	0.378200
H781	H78	0.475400	0.927700	0.377900
H791	H79	0.858100	0.351500	0.001000
H801	H80	0.863700	0.295600	0.063500
H811	H81	0.694700	0.347600	0.116900
H821	H82	0.688300	0.406100	0.056300
H831	H83	0.689900	0.235900	0.231700
H841	H84	0.677300	0.171200	0.284600
H851	H85	0.837300	0.108600	0.227800
H861	H86	0.847600	0.172500	0.173900
H871	H87	0.142000	0.573400	0.878200
H881	H88	0.024600	0.572300	0.877900
H891	H89	0.008400	0.000000	0.316500
H901	H90	0.126400	0.000000	0.312400
H911	H91	0.131600	0.000000	0.456600
H921	H92	0.015000	0.000000	0.458600
H931	H93	0.491600	0.500000	0.816500
H941	H94	0.373600	0.500000	0.812400
H951	H95	0.368400	0.500000	0.956600
H961	H96	0.485000	0.500000	0.958600
C971	C97	0.734000	0.917300	0.479400
C981	C98	0.729100	0.882300	0.520200
C991	C99	0.677000	0.850800	0.524200
C1001	C100	0.673700	0.817000	0.561800
C1011	C101	0.723700	0.814500	0.596400
C1021	C102	0.771300	0.847500	0.592800
C1031	C103	0.776500	0.882800	0.556100
C1041	C104	0.723600	0.779600	0.631000
C1051	C105	0.724600	0.749100	0.661200
C1061	C106	0.730000	0.711700	0.698000
C1071	C107	0.778500	0.710200	0.730500
C1081	C108	0.785400	0.672200	0.763200
C1091	C109	0.739800	0.638000	0.764000
C1101	C110	0.692200	0.635600	0.729800
C1111	C111	0.687200	0.673400	0.697400
C1121	C112	0.745800	0.593500	0.795800
C1131	C113	0.381700	0.043600	0.378200
C1141	C114	0.451300	0.042700	0.377200
C1151	C115	0.766000	0.582700	0.979400
C1161	C116	0.770900	0.617700	0.020200
C1171	C117	0.823000	0.649200	0.024200
C1181	C118	0.826300	0.683000	0.061800
C1191	C119	0.776300	0.685500	0.096400
C1201	C120	0.728700	0.652500	0.092800
C1211	C121	0.723500	0.617200	0.056100
C1221	C122	0.776400	0.720400	0.131000
C1231	C123	0.775400	0.750900	0.161200
C1241	C124	0.770000	0.788300	0.198000
C1251	C125	0.721500	0.789800	0.230500
C1261	C126	0.714600	0.827800	0.263200
C1271	C127	0.760200	0.862000	0.264000
C1281	C128	0.807800	0.864400	0.229800
C1291	C129	0.812800	0.826600	0.197400
C1301	C130	0.754200	0.906500	0.295800
C1311	C131	0.118300	0.456400	0.878200
C1321	C132	0.048700	0.457300	0.877200
C1331	C133	0.734000	0.082700	0.479400
C1341	C134	0.729100	0.117700	0.520200
C1351	C135	0.677000	0.149200	0.524200
C1361	C136	0.673700	0.183000	0.561800
C1371	C137	0.723700	0.185500	0.596400
C1381	C138	0.771300	0.152500	0.592800
C1391	C139	0.776500	0.117200	0.556100
C1401	C140	0.723600	0.220400	0.631000
C1411	C141	0.724600	0.250900	0.661200
C1421	C142	0.730000	0.288300	0.698000
C1431	C143	0.778500	0.289800	0.730500
C1441	C144	0.785400	0.327800	0.763200
C1451	C145	0.739800	0.362000	0.764000
C1461	C146	0.692200	0.364400	0.729800
C1471	C147	0.687200	0.326600	0.697400
C1481	C148	0.745800	0.406500	0.795800
C1491	C149	0.381700	0.956400	0.378200
C1501	C150	0.451300	0.957300	0.377200
C1511	C151	0.766000	0.417300	0.979400
C1521	C152	0.770900	0.382300	0.020200
C1531	C153	0.823000	0.350800	0.024200
C1541	C154	0.826300	0.317000	0.061800
C1551	C155	0.776300	0.314500	0.096400
C1561	C156	0.728700	0.347500	0.092800
C1571	C157	0.723500	0.382800	0.056100
C1581	C158	0.776400	0.279600	0.131000
C1591	C159	0.775400	0.249100	0.161200
C1601	C160	0.770000	0.211700	0.198000
C1611	C161	0.721500	0.210200	0.230500
C1621	C162	0.714600	0.172200	0.263200
C1631	C163	0.760200	0.138000	0.264000
C1641	C164	0.807800	0.135600	0.229800
C1651	C165	0.812800	0.173400	0.197400
C1661	C166	0.754200	0.093500	0.295800
C1671	C167	0.118300	0.543600	0.878200
C1681	C168	0.048700	0.542700	0.877200
C1691	C169	0.924500	0.000000	0.388500
C1701	C170	0.002400	0.000000	0.388800
C1711	C171	0.034300	0.000000	0.345200
C1721	C172	0.104500	0.000000	0.342700
C1731	C173	0.142800	0.000000	0.385100
C1741	C174	0.107400	0.000000	0.427200
C1751	C175	0.037600	0.000000	0.428500
C1761	C176	0.215100	0.000000	0.384400
C1771	C177	0.274700	0.000000	0.381600
C1781	C178	0.347000	0.000000	0.379200
C1791	C179	0.487000	0.000000	0.375200
C1801	C180	0.564600	0.000000	0.376400
C1811	C181	0.575500	0.500000	0.888500
C1821	C182	0.497600	0.500000	0.888800
C1831	C183	0.465700	0.500000	0.845200
C1841	C184	0.395500	0.500000	0.842700
C1851	C185	0.357200	0.500000	0.885100
C1861	C186	0.392600	0.500000	0.927200
C1871	C187	0.462400	0.500000	0.928500
C1881	C188	0.284900	0.500000	0.884400
C1891	C189	0.225300	0.500000	0.881600
C1901	C190	0.153000	0.500000	0.879200
C1911	C191	0.013000	0.500000	0.875200
C1921	C192	0.935400	0.500000	0.876400
O271	O27	0.689890	0.915430	0.448130
O281	O28	0.782400	0.945760	0.481000
O291	O29	0.794800	0.599900	0.829500
O301	O30	0.703400	0.561800	0.795900
O311	O31	0.592410	0.040370	0.376880
O321	O32	0.810110	0.584570	0.948130
O331	O33	0.717600	0.554240	0.981000
O341	O34	0.705200	0.900100	0.329500
O351	O35	0.796600	0.938200	0.295900
O361	O36	0.907590	0.459630	0.876880
O371	O37	0.689890	0.084570	0.448130
O381	O38	0.782400	0.054240	0.481000
O391	O39	0.794800	0.400100	0.829500
O401	O40	0.703400	0.438200	0.795900
O411	O41	0.592410	0.959630	0.376880
O421	O42	0.810110	0.415430	0.948130
O431	O43	0.717600	0.445760	0.981000
O441	O44	0.705200	0.099900	0.329500
O451	O45	0.796600	0.061800	0.295900
O461	O46	0.907590	0.540370	0.876880
O471	O47	0.744070	0.000000	0.381700
O481	O48	0.895900	0.000000	0.347740
O491	O49	0.897800	0.000000	0.429070
O501	O50	0.755930	0.500000	0.881700
O511	O51	0.604100	0.500000	0.847740
O521	O52	0.602200	0.500000	0.929070
