data_FAJZOI_freeONLY_PM
_symmetry_space_group_name_H-M	'P1'
_cell_length_a	16.699500
_cell_length_b	16.699500
_cell_length_c	26.757900
_cell_angle_alpha	90.000000
_cell_angle_beta	90.000000
_cell_angle_gamma	90.000000
_symmetry_Int_Tables_number 1

loop_
_symmetry_equiv_pos_as_xyz
'x,y,z'

loop_
_atom_site_label
_atom_site_type_symbol
_atom_site_fract_x
_atom_site_fract_y
_atom_site_fract_z
C11	C1	0.501400	0.336700	0.795700
C21	C2	0.502800	0.273700	0.759320
C31	C3	0.437500	0.264300	0.727200
H11	H1	0.394000	0.298900	0.729400
C41	C4	0.437800	0.203000	0.692100
H21	H2	0.394800	0.198300	0.670100
C51	C5	0.500300	0.148900	0.688770
C61	C6	0.567600	0.161200	0.720900
H31	H3	0.611600	0.127300	0.718400
C71	C7	0.568700	0.221800	0.755400
H41	H4	0.612900	0.228600	0.776100
C81	C8	0.499700	0.076500	0.653530
C91	C9	0.574800	0.076100	0.620000
H51	H5	0.575100	0.123600	0.599200
H61	H6	0.622400	0.077000	0.640700
H71	H7	0.547000	0.000200	0.707500
C101	C10	0.424200	0.075000	0.620800
H81	H8	0.422600	0.122500	0.600000
H91	H9	0.377000	0.074900	0.641900
C111	C11	0.575900	0.001400	0.586920
H101	H10	0.500900	0.953100	0.533900
C121	C12	0.853800	0.992700	0.460600
C131	C13	0.785100	0.994500	0.493200
C141	C14	0.712000	0.005900	0.471600
H111	H11	0.707500	0.012300	0.437200
C151	C15	0.644300	0.007900	0.501800
H121	H12	0.594300	0.015500	0.487400
C161	C16	0.650400	0.998600	0.553800
C171	C17	0.724500	0.990000	0.573700
H131	H13	0.729600	0.986200	0.608300
C181	C18	0.793100	0.986600	0.544500
H141	H14	0.843200	0.979200	0.559000
N11	N1	0.502400	0.388100	0.823760
N21	N2	0.905600	0.989500	0.432300
C191	C19	0.001400	0.836700	0.295700
C201	C20	0.002800	0.773700	0.259320
C211	C21	0.937500	0.764300	0.227200
H151	H15	0.894000	0.798900	0.229400
C221	C22	0.937800	0.703000	0.192100
H161	H16	0.894800	0.698300	0.170100
C231	C23	0.000300	0.648900	0.188770
C241	C24	0.067600	0.661200	0.220900
H171	H17	0.111600	0.627300	0.218400
C251	C25	0.068700	0.721800	0.255400
H181	H18	0.112900	0.728600	0.276100
C261	C26	0.999700	0.576500	0.153530
C271	C27	0.074800	0.576100	0.120000
H191	H19	0.075100	0.623600	0.099200
H201	H20	0.122400	0.577000	0.140700
H211	H21	0.047000	0.500200	0.207500
C281	C28	0.924200	0.575000	0.120800
H221	H22	0.922600	0.622500	0.100000
H231	H23	0.877000	0.574900	0.141900
C291	C29	0.075900	0.501400	0.086920
H241	H24	0.000900	0.453100	0.033900
C301	C30	0.353800	0.492700	0.960600
C311	C31	0.285100	0.494500	0.993200
C321	C32	0.212000	0.505900	0.971600
H251	H25	0.207500	0.512300	0.937200
C331	C33	0.144300	0.507900	0.001800
H261	H26	0.094300	0.515500	0.987400
C341	C34	0.150400	0.498600	0.053800
C351	C35	0.224500	0.490000	0.073700
H271	H27	0.229600	0.486200	0.108300
C361	C36	0.293100	0.486600	0.044500
H281	H28	0.343200	0.479200	0.059000
N31	N3	0.002400	0.888100	0.323760
N41	N4	0.405600	0.489500	0.932300
C371	C37	0.498600	0.663300	0.795700
C381	C38	0.497200	0.726300	0.759320
C391	C39	0.562500	0.735700	0.727200
H291	H29	0.606000	0.701100	0.729400
C401	C40	0.562200	0.797000	0.692100
H301	H30	0.605200	0.801700	0.670100
C411	C41	0.499700	0.851100	0.688770
C421	C42	0.432400	0.838800	0.720900
H311	H31	0.388400	0.872700	0.718400
C431	C43	0.431300	0.778200	0.755400
H321	H32	0.387100	0.771400	0.776100
C441	C44	0.500300	0.923500	0.653530
C451	C45	0.425200	0.923900	0.620000
H331	H33	0.424900	0.876400	0.599200
H341	H34	0.377600	0.923000	0.640700
H351	H35	0.453000	0.999800	0.707500
C461	C46	0.575800	0.925000	0.620800
H361	H36	0.577400	0.877500	0.600000
H371	H37	0.623000	0.925100	0.641900
C471	C47	0.424100	0.998600	0.586920
H381	H38	0.499100	0.046900	0.533900
C481	C48	0.146200	0.007300	0.460600
C491	C49	0.214900	0.005500	0.493200
C501	C50	0.288000	0.994100	0.471600
H391	H39	0.292500	0.987700	0.437200
C511	C51	0.355700	0.992100	0.501800
H401	H40	0.405700	0.984500	0.487400
C521	C52	0.349600	0.001400	0.553800
C531	C53	0.275500	0.010000	0.573700
H411	H41	0.270400	0.013800	0.608300
C541	C54	0.206900	0.013400	0.544500
H421	H42	0.156800	0.020800	0.559000
N51	N5	0.497600	0.611900	0.823760
N61	N6	0.094400	0.010500	0.432300
C551	C55	0.998600	0.163300	0.295700
C561	C56	0.997200	0.226300	0.259320
C571	C57	0.062500	0.235700	0.227200
H431	H43	0.106000	0.201100	0.229400
C581	C58	0.062200	0.297000	0.192100
H441	H44	0.105200	0.301700	0.170100
C591	C59	0.999700	0.351100	0.188770
C601	C60	0.932400	0.338800	0.220900
H451	H45	0.888400	0.372700	0.218400
C611	C61	0.931300	0.278200	0.255400
H461	H46	0.887100	0.271400	0.276100
C621	C62	0.000300	0.423500	0.153530
C631	C63	0.925200	0.423900	0.120000
H471	H47	0.924900	0.376400	0.099200
H481	H48	0.877600	0.423000	0.140700
H491	H49	0.953000	0.499800	0.207500
C641	C64	0.075800	0.425000	0.120800
H501	H50	0.077400	0.377500	0.100000
H511	H51	0.123000	0.425100	0.141900
C651	C65	0.924100	0.498600	0.086920
H521	H52	0.999100	0.546900	0.033900
C661	C66	0.646200	0.507300	0.960600
C671	C67	0.714900	0.505500	0.993200
C681	C68	0.788000	0.494100	0.971600
H531	H53	0.792500	0.487700	0.937200
C691	C69	0.855700	0.492100	0.001800
H541	H54	0.905700	0.484500	0.987400
C701	C70	0.849600	0.501400	0.053800
C711	C71	0.775500	0.510000	0.073700
H551	H55	0.770400	0.513800	0.108300
C721	C72	0.706900	0.513400	0.044500
H561	H56	0.656800	0.520800	0.059000
N71	N7	0.997600	0.111900	0.323760
N81	N8	0.594400	0.510500	0.932300
C731	C73	0.500000	0.000000	0.686200
C741	C74	0.500000	0.000000	0.555200
C751	C75	0.000000	0.500000	0.186200
C761	C76	0.000000	0.500000	0.055200
Ag11	Ag1	0.500000	0.500000	0.871860
Ag21	Ag2	0.000000	0.000000	0.371860
C771	C77	0.336700	0.498600	0.204300
C781	C78	0.273700	0.497200	0.240680
C791	C79	0.264300	0.562500	0.272800
H571	H57	0.298900	0.606000	0.270600
C801	C80	0.203000	0.562200	0.307900
H581	H58	0.198300	0.605200	0.329900
C811	C81	0.148900	0.499700	0.311230
C821	C82	0.161200	0.432400	0.279100
H591	H59	0.127300	0.388400	0.281600
C831	C83	0.221800	0.431300	0.244600
H601	H60	0.228600	0.387100	0.223900
C841	C84	0.076500	0.500300	0.346470
C851	C85	0.076100	0.425200	0.380000
H611	H61	0.123600	0.424900	0.400800
H621	H62	0.077000	0.377600	0.359300
H631	H63	0.000200	0.453000	0.292500
C861	C86	0.075000	0.575800	0.379200
H641	H64	0.122500	0.577400	0.400000
H651	H65	0.074900	0.623000	0.358100
C871	C87	0.001400	0.424100	0.413080
H661	H66	0.953100	0.499100	0.466100
C881	C88	0.992700	0.146200	0.539400
C891	C89	0.994500	0.214900	0.506800
C901	C90	0.005900	0.288000	0.528400
H671	H67	0.012300	0.292500	0.562800
C911	C91	0.007900	0.355700	0.498200
H681	H68	0.015500	0.405700	0.512600
C921	C92	0.998600	0.349600	0.446200
C931	C93	0.990000	0.275500	0.426300
H691	H69	0.986200	0.270400	0.391700
C941	C94	0.986600	0.206900	0.455500
H701	H70	0.979200	0.156800	0.441000
N91	N9	0.388100	0.497600	0.176240
N101	N10	0.989500	0.094400	0.567700
C951	C95	0.836700	0.998600	0.704300
C961	C96	0.773700	0.997200	0.740680
C971	C97	0.764300	0.062500	0.772800
H711	H71	0.798900	0.106000	0.770600
C981	C98	0.703000	0.062200	0.807900
H721	H72	0.698300	0.105200	0.829900
C991	C99	0.648900	0.999700	0.811230
C1001	C100	0.661200	0.932400	0.779100
H731	H73	0.627300	0.888400	0.781600
C1011	C101	0.721800	0.931300	0.744600
H741	H74	0.728600	0.887100	0.723900
C1021	C102	0.576500	0.000300	0.846470
C1031	C103	0.576100	0.925200	0.880000
H751	H75	0.623600	0.924900	0.900800
H761	H76	0.577000	0.877600	0.859300
H771	H77	0.500200	0.953000	0.792500
C1041	C104	0.575000	0.075800	0.879200
H781	H78	0.622500	0.077400	0.900000
H791	H79	0.574900	0.123000	0.858100
C1051	C105	0.501400	0.924100	0.913080
H801	H80	0.453100	0.999100	0.966100
C1061	C106	0.492700	0.646200	0.039400
C1071	C107	0.494500	0.714900	0.006800
C1081	C108	0.505900	0.788000	0.028400
H811	H81	0.512300	0.792500	0.062800
C1091	C109	0.507900	0.855700	0.998200
H821	H82	0.515500	0.905700	0.012600
C1101	C110	0.498600	0.849600	0.946200
C1111	C111	0.490000	0.775500	0.926300
H831	H83	0.486200	0.770400	0.891700
C1121	C112	0.486600	0.706900	0.955500
H841	H84	0.479200	0.656800	0.941000
N111	N11	0.888100	0.997600	0.676240
N121	N12	0.489500	0.594400	0.067700
C1131	C113	0.663300	0.501400	0.204300
C1141	C114	0.726300	0.502800	0.240680
C1151	C115	0.735700	0.437500	0.272800
H851	H85	0.701100	0.394000	0.270600
C1161	C116	0.797000	0.437800	0.307900
H861	H86	0.801700	0.394800	0.329900
C1171	C117	0.851100	0.500300	0.311230
C1181	C118	0.838800	0.567600	0.279100
H871	H87	0.872700	0.611600	0.281600
C1191	C119	0.778200	0.568700	0.244600
H881	H88	0.771400	0.612900	0.223900
C1201	C120	0.923500	0.499700	0.346470
C1211	C121	0.923900	0.574800	0.380000
H891	H89	0.876400	0.575100	0.400800
H901	H90	0.923000	0.622400	0.359300
H911	H91	0.999800	0.547000	0.292500
C1221	C122	0.925000	0.424200	0.379200
H921	H92	0.877500	0.422600	0.400000
H931	H93	0.925100	0.377000	0.358100
C1231	C123	0.998600	0.575900	0.413080
H941	H94	0.046900	0.500900	0.466100
C1241	C124	0.007300	0.853800	0.539400
C1251	C125	0.005500	0.785100	0.506800
C1261	C126	0.994100	0.712000	0.528400
H951	H95	0.987700	0.707500	0.562800
C1271	C127	0.992100	0.644300	0.498200
H961	H96	0.984500	0.594300	0.512600
C1281	C128	0.001400	0.650400	0.446200
C1291	C129	0.010000	0.724500	0.426300
H971	H97	0.013800	0.729600	0.391700
C1301	C130	0.013400	0.793100	0.455500
H981	H98	0.020800	0.843200	0.441000
N131	N13	0.611900	0.502400	0.176240
N141	N14	0.010500	0.905600	0.567700
C1311	C131	0.163300	0.001400	0.704300
C1321	C132	0.226300	0.002800	0.740680
C1331	C133	0.235700	0.937500	0.772800
H991	H99	0.201100	0.894000	0.770600
C1341	C134	0.297000	0.937800	0.807900
H1001	H100	0.301700	0.894800	0.829900
C1351	C135	0.351100	0.000300	0.811230
C1361	C136	0.338800	0.067600	0.779100
H1011	H101	0.372700	0.111600	0.781600
C1371	C137	0.278200	0.068700	0.744600
H1021	H102	0.271400	0.112900	0.723900
C1381	C138	0.423500	0.999700	0.846470
C1391	C139	0.423900	0.074800	0.880000
H1031	H103	0.376400	0.075100	0.900800
H1041	H104	0.423000	0.122400	0.859300
H1051	H105	0.499800	0.047000	0.792500
C1401	C140	0.425000	0.924200	0.879200
H1061	H106	0.377500	0.922600	0.900000
H1071	H107	0.425100	0.877000	0.858100
C1411	C141	0.498600	0.075900	0.913080
H1081	H108	0.546900	0.000900	0.966100
C1421	C142	0.507300	0.353800	0.039400
C1431	C143	0.505500	0.285100	0.006800
C1441	C144	0.494100	0.212000	0.028400
H1091	H109	0.487700	0.207500	0.062800
C1451	C145	0.492100	0.144300	0.998200
H1101	H110	0.484500	0.094300	0.012600
C1461	C146	0.501400	0.150400	0.946200
C1471	C147	0.510000	0.224500	0.926300
H1111	H111	0.513800	0.229600	0.891700
C1481	C148	0.513400	0.293100	0.955500
H1121	H112	0.520800	0.343200	0.941000
N151	N15	0.111900	0.002400	0.676240
N161	N16	0.510500	0.405600	0.067700
C1491	C149	0.000000	0.500000	0.313800
C1501	C150	0.000000	0.500000	0.444800
C1511	C151	0.500000	0.000000	0.813800
C1521	C152	0.500000	0.000000	0.944800
Ag31	Ag3	0.500000	0.500000	0.128140
Ag41	Ag4	0.000000	0.000000	0.628140
C1531	C153	0.998600	0.336700	0.954300
C1541	C154	0.997200	0.273700	0.990680
C1551	C155	0.062500	0.264300	0.022800
H1131	H113	0.106000	0.298900	0.020600
C1561	C156	0.062200	0.203000	0.057900
H1141	H114	0.105200	0.198300	0.079900
C1571	C157	0.999700	0.148900	0.061230
C1581	C158	0.932400	0.161200	0.029100
H1151	H115	0.888400	0.127300	0.031600
C1591	C159	0.931300	0.221800	0.994600
H1161	H116	0.887100	0.228600	0.973900
C1601	C160	0.000300	0.076500	0.096470
C1611	C161	0.925200	0.076100	0.130000
H1171	H117	0.924900	0.123600	0.150800
H1181	H118	0.877600	0.077000	0.109300
H1191	H119	0.953000	0.000200	0.042500
C1621	C162	0.075800	0.075000	0.129200
H1201	H120	0.077400	0.122500	0.150000
H1211	H121	0.123000	0.074900	0.108100
C1631	C163	0.924100	0.001400	0.163080
H1221	H122	0.999100	0.953100	0.216100
C1641	C164	0.646200	0.992700	0.289400
C1651	C165	0.714900	0.994500	0.256800
C1661	C166	0.788000	0.005900	0.278400
H1231	H123	0.792500	0.012300	0.312800
C1671	C167	0.855700	0.007900	0.248200
H1241	H124	0.905700	0.015500	0.262600
C1681	C168	0.849600	0.998600	0.196200
C1691	C169	0.775500	0.990000	0.176300
H1251	H125	0.770400	0.986200	0.141700
C1701	C170	0.706900	0.986600	0.205500
H1261	H126	0.656800	0.979200	0.191000
N171	N17	0.997600	0.388100	0.926240
N181	N18	0.594400	0.989500	0.317700
C1711	C171	0.498600	0.836700	0.454300
C1721	C172	0.497200	0.773700	0.490680
C1731	C173	0.562500	0.764300	0.522800
H1271	H127	0.606000	0.798900	0.520600
C1741	C174	0.562200	0.703000	0.557900
H1281	H128	0.605200	0.698300	0.579900
C1751	C175	0.499700	0.648900	0.561230
C1761	C176	0.432400	0.661200	0.529100
H1291	H129	0.388400	0.627300	0.531600
C1771	C177	0.431300	0.721800	0.494600
H1301	H130	0.387100	0.728600	0.473900
C1781	C178	0.500300	0.576500	0.596470
C1791	C179	0.425200	0.576100	0.630000
H1311	H131	0.424900	0.623600	0.650800
H1321	H132	0.377600	0.577000	0.609300
H1331	H133	0.453000	0.500200	0.542500
C1801	C180	0.575800	0.575000	0.629200
H1341	H134	0.577400	0.622500	0.650000
H1351	H135	0.623000	0.574900	0.608100
C1811	C181	0.424100	0.501400	0.663080
H1361	H136	0.499100	0.453100	0.716100
C1821	C182	0.146200	0.492700	0.789400
C1831	C183	0.214900	0.494500	0.756800
C1841	C184	0.288000	0.505900	0.778400
H1371	H137	0.292500	0.512300	0.812800
C1851	C185	0.355700	0.507900	0.748200
H1381	H138	0.405700	0.515500	0.762600
C1861	C186	0.349600	0.498600	0.696200
C1871	C187	0.275500	0.490000	0.676300
H1391	H139	0.270400	0.486200	0.641700
C1881	C188	0.206900	0.486600	0.705500
H1401	H140	0.156800	0.479200	0.691000
N191	N19	0.497600	0.888100	0.426240
N201	N20	0.094400	0.489500	0.817700
C1891	C189	0.001400	0.663300	0.954300
C1901	C190	0.002800	0.726300	0.990680
C1911	C191	0.937500	0.735700	0.022800
H1411	H141	0.894000	0.701100	0.020600
C1921	C192	0.937800	0.797000	0.057900
H1421	H142	0.894800	0.801700	0.079900
C1931	C193	0.000300	0.851100	0.061230
C1941	C194	0.067600	0.838800	0.029100
H1431	H143	0.111600	0.872700	0.031600
C1951	C195	0.068700	0.778200	0.994600
H1441	H144	0.112900	0.771400	0.973900
C1961	C196	0.999700	0.923500	0.096470
C1971	C197	0.074800	0.923900	0.130000
H1451	H145	0.075100	0.876400	0.150800
H1461	H146	0.122400	0.923000	0.109300
H1471	H147	0.047000	0.999800	0.042500
C1981	C198	0.924200	0.925000	0.129200
H1481	H148	0.922600	0.877500	0.150000
H1491	H149	0.877000	0.925100	0.108100
C1991	C199	0.075900	0.998600	0.163080
H1501	H150	0.000900	0.046900	0.216100
C2001	C200	0.353800	0.007300	0.289400
C2011	C201	0.285100	0.005500	0.256800
C2021	C202	0.212000	0.994100	0.278400
H1511	H151	0.207500	0.987700	0.312800
C2031	C203	0.144300	0.992100	0.248200
H1521	H152	0.094300	0.984500	0.262600
C2041	C204	0.150400	0.001400	0.196200
C2051	C205	0.224500	0.010000	0.176300
H1531	H153	0.229600	0.013800	0.141700
C2061	C206	0.293100	0.013400	0.205500
H1541	H154	0.343200	0.020800	0.191000
N211	N21	0.002400	0.611900	0.926240
N221	N22	0.405600	0.010500	0.317700
C2071	C207	0.501400	0.163300	0.454300
C2081	C208	0.502800	0.226300	0.490680
C2091	C209	0.437500	0.235700	0.522800
H1551	H155	0.394000	0.201100	0.520600
C2101	C210	0.437800	0.297000	0.557900
H1561	H156	0.394800	0.301700	0.579900
C2111	C211	0.500300	0.351100	0.561230
C2121	C212	0.567600	0.338800	0.529100
H1571	H157	0.611600	0.372700	0.531600
C2131	C213	0.568700	0.278200	0.494600
H1581	H158	0.612900	0.271400	0.473900
C2141	C214	0.499700	0.423500	0.596470
C2151	C215	0.574800	0.423900	0.630000
H1591	H159	0.575100	0.376400	0.650800
H1601	H160	0.622400	0.423000	0.609300
H1611	H161	0.547000	0.499800	0.542500
C2161	C216	0.424200	0.425000	0.629200
H1621	H162	0.422600	0.377500	0.650000
H1631	H163	0.377000	0.425100	0.608100
C2171	C217	0.575900	0.498600	0.663080
H1641	H164	0.500900	0.546900	0.716100
C2181	C218	0.853800	0.507300	0.789400
C2191	C219	0.785100	0.505500	0.756800
C2201	C220	0.712000	0.494100	0.778400
H1651	H165	0.707500	0.487700	0.812800
C2211	C221	0.644300	0.492100	0.748200
H1661	H166	0.594300	0.484500	0.762600
C2221	C222	0.650400	0.501400	0.696200
C2231	C223	0.724500	0.510000	0.676300
H1671	H167	0.729600	0.513800	0.641700
C2241	C224	0.793100	0.513400	0.705500
H1681	H168	0.843200	0.520800	0.691000
N231	N23	0.502400	0.111900	0.426240
N241	N24	0.905600	0.510500	0.817700
C2251	C225	0.000000	0.000000	0.063800
C2261	C226	0.000000	0.000000	0.194800
C2271	C227	0.500000	0.500000	0.563800
C2281	C228	0.500000	0.500000	0.694800
Ag51	Ag5	0.000000	0.500000	0.878140
Ag61	Ag6	0.500000	0.000000	0.378140
C2291	C229	0.163300	0.498600	0.545700
C2301	C230	0.226300	0.497200	0.509320
C2311	C231	0.235700	0.562500	0.477200
H1691	H169	0.201100	0.606000	0.479400
C2321	C232	0.297000	0.562200	0.442100
H1701	H170	0.301700	0.605200	0.420100
C2331	C233	0.351100	0.499700	0.438770
C2341	C234	0.338800	0.432400	0.470900
H1711	H171	0.372700	0.388400	0.468400
C2351	C235	0.278200	0.431300	0.505400
H1721	H172	0.271400	0.387100	0.526100
C2361	C236	0.423500	0.500300	0.403530
C2371	C237	0.423900	0.425200	0.370000
H1731	H173	0.376400	0.424900	0.349200
H1741	H174	0.423000	0.377600	0.390700
H1751	H175	0.499800	0.453000	0.457500
C2381	C238	0.425000	0.575800	0.370800
H1761	H176	0.377500	0.577400	0.350000
H1771	H177	0.425100	0.623000	0.391900
C2391	C239	0.498600	0.424100	0.336920
H1781	H178	0.546900	0.499100	0.283900
C2401	C240	0.507300	0.146200	0.210600
C2411	C241	0.505500	0.214900	0.243200
C2421	C242	0.494100	0.288000	0.221600
H1791	H179	0.487700	0.292500	0.187200
C2431	C243	0.492100	0.355700	0.251800
H1801	H180	0.484500	0.405700	0.237400
C2441	C244	0.501400	0.349600	0.303800
C2451	C245	0.510000	0.275500	0.323700
H1811	H181	0.513800	0.270400	0.358300
C2461	C246	0.513400	0.206900	0.294500
H1821	H182	0.520800	0.156800	0.309000
N251	N25	0.111900	0.497600	0.573760
N261	N26	0.510500	0.094400	0.182300
C2471	C247	0.663300	0.998600	0.045700
C2481	C248	0.726300	0.997200	0.009320
C2491	C249	0.735700	0.062500	0.977200
H1831	H183	0.701100	0.106000	0.979400
C2501	C250	0.797000	0.062200	0.942100
H1841	H184	0.801700	0.105200	0.920100
C2511	C251	0.851100	0.999700	0.938770
C2521	C252	0.838800	0.932400	0.970900
H1851	H185	0.872700	0.888400	0.968400
C2531	C253	0.778200	0.931300	0.005400
H1861	H186	0.771400	0.887100	0.026100
C2541	C254	0.923500	0.000300	0.903530
C2551	C255	0.923900	0.925200	0.870000
H1871	H187	0.876400	0.924900	0.849200
H1881	H188	0.923000	0.877600	0.890700
H1891	H189	0.999800	0.953000	0.957500
C2561	C256	0.925000	0.075800	0.870800
H1901	H190	0.877500	0.077400	0.850000
H1911	H191	0.925100	0.123000	0.891900
C2571	C257	0.998600	0.924100	0.836920
H1921	H192	0.046900	0.999100	0.783900
C2581	C258	0.007300	0.646200	0.710600
C2591	C259	0.005500	0.714900	0.743200
C2601	C260	0.994100	0.788000	0.721600
H1931	H193	0.987700	0.792500	0.687200
C2611	C261	0.992100	0.855700	0.751800
H1941	H194	0.984500	0.905700	0.737400
C2621	C262	0.001400	0.849600	0.803800
C2631	C263	0.010000	0.775500	0.823700
H1951	H195	0.013800	0.770400	0.858300
C2641	C264	0.013400	0.706900	0.794500
H1961	H196	0.020800	0.656800	0.809000
N271	N27	0.611900	0.997600	0.073760
N281	N28	0.010500	0.594400	0.682300
C2651	C265	0.836700	0.501400	0.545700
C2661	C266	0.773700	0.502800	0.509320
C2671	C267	0.764300	0.437500	0.477200
H1971	H197	0.798900	0.394000	0.479400
C2681	C268	0.703000	0.437800	0.442100
H1981	H198	0.698300	0.394800	0.420100
C2691	C269	0.648900	0.500300	0.438770
C2701	C270	0.661200	0.567600	0.470900
H1991	H199	0.627300	0.611600	0.468400
C2711	C271	0.721800	0.568700	0.505400
H2001	H200	0.728600	0.612900	0.526100
C2721	C272	0.576500	0.499700	0.403530
C2731	C273	0.576100	0.574800	0.370000
H2011	H201	0.623600	0.575100	0.349200
H2021	H202	0.577000	0.622400	0.390700
H2031	H203	0.500200	0.547000	0.457500
C2741	C274	0.575000	0.424200	0.370800
H2041	H204	0.622500	0.422600	0.350000
H2051	H205	0.574900	0.377000	0.391900
C2751	C275	0.501400	0.575900	0.336920
H2061	H206	0.453100	0.500900	0.283900
C2761	C276	0.492700	0.853800	0.210600
C2771	C277	0.494500	0.785100	0.243200
C2781	C278	0.505900	0.712000	0.221600
H2071	H207	0.512300	0.707500	0.187200
C2791	C279	0.507900	0.644300	0.251800
H2081	H208	0.515500	0.594300	0.237400
C2801	C280	0.498600	0.650400	0.303800
C2811	C281	0.490000	0.724500	0.323700
H2091	H209	0.486200	0.729600	0.358300
C2821	C282	0.486600	0.793100	0.294500
H2101	H210	0.479200	0.843200	0.309000
N291	N29	0.888100	0.502400	0.573760
N301	N30	0.489500	0.905600	0.182300
C2831	C283	0.336700	0.001400	0.045700
C2841	C284	0.273700	0.002800	0.009320
C2851	C285	0.264300	0.937500	0.977200
H2111	H211	0.298900	0.894000	0.979400
C2861	C286	0.203000	0.937800	0.942100
H2121	H212	0.198300	0.894800	0.920100
C2871	C287	0.148900	0.000300	0.938770
C2881	C288	0.161200	0.067600	0.970900
H2131	H213	0.127300	0.111600	0.968400
C2891	C289	0.221800	0.068700	0.005400
H2141	H214	0.228600	0.112900	0.026100
C2901	C290	0.076500	0.999700	0.903530
C2911	C291	0.076100	0.074800	0.870000
H2151	H215	0.123600	0.075100	0.849200
H2161	H216	0.077000	0.122400	0.890700
H2171	H217	0.000200	0.047000	0.957500
C2921	C292	0.075000	0.924200	0.870800
H2181	H218	0.122500	0.922600	0.850000
H2191	H219	0.074900	0.877000	0.891900
C2931	C293	0.001400	0.075900	0.836920
H2201	H220	0.953100	0.000900	0.783900
C2941	C294	0.992700	0.353800	0.710600
C2951	C295	0.994500	0.285100	0.743200
C2961	C296	0.005900	0.212000	0.721600
H2211	H221	0.012300	0.207500	0.687200
C2971	C297	0.007900	0.144300	0.751800
H2221	H222	0.015500	0.094300	0.737400
C2981	C298	0.998600	0.150400	0.803800
C2991	C299	0.990000	0.224500	0.823700
H2231	H223	0.986200	0.229600	0.858300
C3001	C300	0.986600	0.293100	0.794500
H2241	H224	0.979200	0.343200	0.809000
N311	N31	0.388100	0.002400	0.073760
N321	N32	0.989500	0.405600	0.682300
C3011	C301	0.500000	0.500000	0.436200
C3021	C302	0.500000	0.500000	0.305200
C3031	C303	0.000000	0.000000	0.936200
C3041	C304	0.000000	0.000000	0.805200
Ag71	Ag7	0.000000	0.500000	0.621860
Ag81	Ag8	0.500000	0.000000	0.121860
