data_FAKLUA_freeONLY_PM
_symmetry_space_group_name_H-M	'P1'
_cell_length_a	12.744700
_cell_length_b	12.744700
_cell_length_c	10.710700
_cell_angle_alpha	90.000000
_cell_angle_beta	90.000000
_cell_angle_gamma	120.000000
_symmetry_Int_Tables_number 1

loop_
_symmetry_equiv_pos_as_xyz
'x,y,z'

loop_
_atom_site_label
_atom_site_type_symbol
_atom_site_fract_x
_atom_site_fract_y
_atom_site_fract_z
N11	N1	0.468400	0.664800	0.115500
C11	C1	0.458800	0.566400	0.435800
H11	H1	0.429600	0.612000	0.393000
C21	C2	0.507100	0.614300	0.169900
N21	N2	0.335200	0.803600	0.115500
C31	C3	0.433600	0.892400	0.435800
H21	H2	0.388000	0.817600	0.393000
C41	C4	0.385700	0.892800	0.169900
N31	N3	0.196400	0.531600	0.115500
C51	C5	0.107600	0.541200	0.435800
H31	H3	0.182400	0.570400	0.393000
C61	C6	0.107200	0.492900	0.169900
N41	N4	0.335200	0.531600	0.884500
C71	C7	0.433600	0.541200	0.564200
H41	H4	0.388000	0.570400	0.607000
C81	C8	0.385700	0.492900	0.830100
N51	N5	0.196400	0.664800	0.884500
C91	C9	0.107600	0.566400	0.564200
H51	H5	0.182400	0.612000	0.607000
C101	C10	0.107200	0.614300	0.830100
N61	N6	0.468400	0.803600	0.884500
C111	C11	0.458800	0.892400	0.564200
H61	H6	0.429600	0.817600	0.607000
C121	C12	0.507100	0.892800	0.830100
N71	N7	0.531600	0.335200	0.884500
C131	C13	0.541200	0.433600	0.564200
H71	H7	0.570400	0.388000	0.607000
C141	C14	0.492900	0.385700	0.830100
N81	N8	0.664800	0.196400	0.884500
C151	C15	0.566400	0.107600	0.564200
H81	H8	0.612000	0.182400	0.607000
C161	C16	0.614300	0.107200	0.830100
N91	N9	0.803600	0.468400	0.884500
C171	C17	0.892400	0.458800	0.564200
H91	H9	0.817600	0.429600	0.607000
C181	C18	0.892800	0.507100	0.830100
N101	N10	0.664800	0.468400	0.115500
C191	C19	0.566400	0.458800	0.435800
H101	H10	0.612000	0.429600	0.393000
C201	C20	0.614300	0.507100	0.169900
N111	N11	0.803600	0.335200	0.115500
C211	C21	0.892400	0.433600	0.435800
H111	H11	0.817600	0.388000	0.393000
C221	C22	0.892800	0.385700	0.169900
N121	N12	0.531600	0.196400	0.115500
C231	C23	0.541200	0.107600	0.435800
H121	H12	0.570400	0.182400	0.393000
C241	C24	0.492900	0.107200	0.169900
Zn11	Zn1	0.333330	0.666670	0.000000
Zn21	Zn2	0.666670	0.333330	0.000000
C251	C25	0.552600	0.552600	0.237400
C261	C26	0.525500	0.525500	0.371800
C271	C27	0.447400	0.000000	0.237400
C281	C28	0.474500	0.000000	0.371800
C291	C29	0.000000	0.447400	0.237400
C301	C30	0.000000	0.474500	0.371800
C311	C31	0.447400	0.447400	0.762600
C321	C32	0.474500	0.474500	0.628200
C331	C33	0.000000	0.552600	0.762600
C341	C34	0.000000	0.525500	0.628200
C351	C35	0.552600	0.000000	0.762600
C361	C36	0.525500	0.000000	0.628200
