data_FAKMAH_freeONLY_PM
_symmetry_space_group_name_H-M	'P1'
_cell_length_a	12.881400
_cell_length_b	12.881400
_cell_length_c	22.059100
_cell_angle_alpha	90.000000
_cell_angle_beta	90.000000
_cell_angle_gamma	120.000000
_symmetry_Int_Tables_number 1

loop_
_symmetry_equiv_pos_as_xyz
'x,y,z'

loop_
_atom_site_label
_atom_site_type_symbol
_atom_site_fract_x
_atom_site_fract_y
_atom_site_fract_z
Mn11	Mn1	0.333330	0.666660	0.500000
Mn21	Mn2	0.666670	0.333340	0.000000
Mn31	Mn3	0.666670	0.333340	0.500000
Mn41	Mn4	0.333330	0.666660	0.000000
H11	H1	0.524700	0.180800	0.302800
H21	H2	0.656100	0.475300	0.302800
H31	H3	0.819200	0.343900	0.302800
H41	H4	0.475300	0.819200	0.802800
H51	H5	0.343900	0.524700	0.802800
H61	H6	0.180800	0.656100	0.802800
H71	H7	0.343900	0.819200	0.197200
H81	H8	0.180800	0.524700	0.197200
H91	H9	0.475300	0.656100	0.197200
H101	H10	0.656100	0.180800	0.697200
H111	H11	0.819200	0.475300	0.697200
H121	H12	0.524700	0.343900	0.697200
H131	H13	0.475300	0.819200	0.697200
H141	H14	0.343900	0.524700	0.697200
H151	H15	0.180800	0.656100	0.697200
H161	H16	0.524700	0.180800	0.197200
H171	H17	0.656100	0.475300	0.197200
H181	H18	0.819200	0.343900	0.197200
H191	H19	0.656100	0.180800	0.802800
H201	H20	0.819200	0.475300	0.802800
H211	H21	0.524700	0.343900	0.802800
H221	H22	0.343900	0.819200	0.302800
H231	H23	0.180800	0.524700	0.302800
H241	H24	0.475300	0.656100	0.302800
C11	C1	0.374800	0.892500	0.414170
C21	C2	0.487000	0.106700	0.281650
C31	C3	0.517700	0.625200	0.414170
C41	C4	0.619700	0.513000	0.281650
C51	C5	0.107500	0.482300	0.414170
C61	C6	0.893300	0.380300	0.281650
C71	C7	0.625200	0.107500	0.914170
C81	C8	0.513000	0.893300	0.781650
C91	C9	0.482300	0.374800	0.914170
C101	C10	0.380300	0.487000	0.781650
C111	C11	0.892500	0.517700	0.914170
C121	C12	0.106700	0.619700	0.781650
C131	C13	0.482300	0.107500	0.085830
C141	C14	0.380300	0.893300	0.218350
C151	C15	0.892500	0.374800	0.085830
C161	C16	0.106700	0.487000	0.218350
C171	C17	0.625200	0.517700	0.085830
C181	C18	0.513000	0.619700	0.218350
C191	C19	0.517700	0.892500	0.585830
C201	C20	0.619700	0.106700	0.718350
C211	C21	0.107500	0.625200	0.585830
C221	C22	0.893300	0.513000	0.718350
C231	C23	0.374800	0.482300	0.585830
C241	C24	0.487000	0.380300	0.718350
C251	C25	0.625200	0.107500	0.585830
C261	C26	0.513000	0.893300	0.718350
C271	C27	0.482300	0.374800	0.585830
C281	C28	0.380300	0.487000	0.718350
C291	C29	0.892500	0.517700	0.585830
C301	C30	0.106700	0.619700	0.718350
C311	C31	0.374800	0.892500	0.085830
C321	C32	0.487000	0.106700	0.218350
C331	C33	0.517700	0.625200	0.085830
C341	C34	0.619700	0.513000	0.218350
C351	C35	0.107500	0.482300	0.085830
C361	C36	0.893300	0.380300	0.218350
C371	C37	0.517700	0.892500	0.914170
C381	C38	0.619700	0.106700	0.781650
C391	C39	0.107500	0.625200	0.914170
C401	C40	0.893300	0.513000	0.781650
C411	C41	0.374800	0.482300	0.914170
C421	C42	0.487000	0.380300	0.781650
C431	C43	0.482300	0.107500	0.414170
C441	C44	0.380300	0.893300	0.281650
C451	C45	0.892500	0.374800	0.414170
C461	C46	0.106700	0.487000	0.281650
C471	C47	0.625200	0.517700	0.414170
C481	C48	0.513000	0.619700	0.281650
C491	C49	0.432600	0.000000	0.314120
C501	C50	0.428900	0.000000	0.380700
C511	C51	0.567400	0.567400	0.314120
C521	C52	0.571100	0.571100	0.380700
C531	C53	0.000000	0.432600	0.314120
C541	C54	0.000000	0.428900	0.380700
C551	C55	0.567400	0.000000	0.814120
C561	C56	0.571100	0.000000	0.880700
C571	C57	0.432600	0.432600	0.814120
C581	C58	0.428900	0.428900	0.880700
C591	C59	0.000000	0.567400	0.814120
C601	C60	0.000000	0.571100	0.880700
C611	C61	0.432600	0.000000	0.185880
C621	C62	0.428900	0.000000	0.119300
C631	C63	0.000000	0.432600	0.185880
C641	C64	0.000000	0.428900	0.119300
C651	C65	0.567400	0.567400	0.185880
C661	C66	0.571100	0.571100	0.119300
C671	C67	0.567400	0.000000	0.685880
C681	C68	0.571100	0.000000	0.619300
C691	C69	0.000000	0.567400	0.685880
C701	C70	0.000000	0.571100	0.619300
C711	C71	0.432600	0.432600	0.685880
C721	C72	0.428900	0.428900	0.619300
N11	N1	0.334000	0.807000	0.441760
N21	N2	0.473000	0.666000	0.441760
N31	N3	0.193000	0.527000	0.441760
N41	N4	0.666000	0.193000	0.941760
N51	N5	0.527000	0.334000	0.941760
N61	N6	0.807000	0.473000	0.941760
N71	N7	0.527000	0.193000	0.058240
N81	N8	0.807000	0.334000	0.058240
N91	N9	0.666000	0.473000	0.058240
N101	N10	0.473000	0.807000	0.558240
N111	N11	0.193000	0.666000	0.558240
N121	N12	0.334000	0.527000	0.558240
N131	N13	0.666000	0.193000	0.558240
N141	N14	0.527000	0.334000	0.558240
N151	N15	0.807000	0.473000	0.558240
N161	N16	0.334000	0.807000	0.058240
N171	N17	0.473000	0.666000	0.058240
N181	N18	0.193000	0.527000	0.058240
N191	N19	0.473000	0.807000	0.941760
N201	N20	0.193000	0.666000	0.941760
N211	N21	0.334000	0.527000	0.941760
N221	N22	0.527000	0.193000	0.441760
N231	N23	0.807000	0.334000	0.441760
N241	N24	0.666000	0.473000	0.441760
