data_FAKNIR_freeONLY_PM
_symmetry_space_group_name_H-M	'P1'
_cell_length_a	14.535600
_cell_length_b	15.898900
_cell_length_c	17.255400
_cell_angle_alpha	112.547000
_cell_angle_beta	111.545000
_cell_angle_gamma	95.787000
_symmetry_Int_Tables_number 1

loop_
_symmetry_equiv_pos_as_xyz
'x,y,z'

loop_
_atom_site_label
_atom_site_type_symbol
_atom_site_fract_x
_atom_site_fract_y
_atom_site_fract_z
C11	C1	0.534800	0.708900	0.638700
C21	C2	0.546800	0.852300	0.756000
H11	H1	0.509500	0.814400	0.770300
C31	C3	0.583600	0.944700	0.807600
C41	C4	0.660900	0.003800	0.808100
H21	H2	0.685600	0.980200	0.763700
C51	C5	0.701200	0.097800	0.874600
H31	H3	0.753000	0.137500	0.874900
C61	C6	0.664800	0.132600	0.940400
C71	C7	0.588000	0.074300	0.940300
H41	H4	0.563000	0.098500	0.984400
C81	C8	0.547600	0.979300	0.874300
H51	H5	0.496800	0.939300	0.874900
C91	C9	0.701400	0.240400	0.007500
C101	C10	0.381200	0.612100	0.507600
H61	H6	0.422300	0.577000	0.486900
C111	C11	0.286000	0.600900	0.448800
C121	C12	0.232600	0.669000	0.460100
H71	H7	0.264100	0.728200	0.512100
C131	C13	0.132500	0.649100	0.394000
H81	H8	0.097700	0.695500	0.401900
C141	C14	0.083700	0.560800	0.316500
C151	C15	0.137900	0.492100	0.305800
H91	H9	0.106400	0.432400	0.254400
C161	C16	0.237100	0.512500	0.370800
H101	H10	0.272200	0.466400	0.362700
C171	C17	0.978600	0.552800	0.260200
C181	C18	0.629000	0.655500	0.752700
H111	H11	0.687400	0.683600	0.751400
C191	C19	0.634600	0.615800	0.803300
C201	C20	0.739600	0.623100	0.862300
H121	H12	0.795600	0.654700	0.860400
C211	C21	0.753000	0.581500	0.921100
H131	H13	0.819700	0.587000	0.961000
C221	C22	0.671900	0.532500	0.922700
C231	C23	0.572500	0.522800	0.868600
H141	H14	0.518600	0.491300	0.873100
C241	C24	0.552700	0.562500	0.804200
H151	H15	0.485300	0.552800	0.762900
C251	C25	0.692500	0.492100	0.986200
C261	C26	0.591900	0.706100	0.535900
H161	H16	0.576800	0.764100	0.550500
C271	C27	0.624200	0.664800	0.463400
C281	C28	0.632500	0.574200	0.438200
H171	H17	0.615000	0.539500	0.466100
C291	C29	0.666900	0.534200	0.371100
H181	H18	0.674300	0.473200	0.355400
C301	C30	0.690200	0.584100	0.327400
C311	C31	0.681200	0.674800	0.354000
H191	H19	0.698300	0.709300	0.325800
C321	C32	0.647700	0.716900	0.420900
H201	H20	0.641100	0.778100	0.437100
C331	C33	0.717300	0.540100	0.246500
C341	C34	0.717200	0.767000	0.074700
C351	C35	0.803400	0.822200	0.082400
H211	H21	0.869000	0.823100	0.119600
C361	C36	0.791100	0.876700	0.033700
H221	H22	0.848600	0.914000	0.038700
C371	C37	0.693000	0.874600	0.978300
H231	H23	0.684700	0.910500	0.945800
C381	C38	0.607600	0.819600	0.970900
H241	H24	0.542100	0.818700	0.933200
C391	C39	0.618100	0.765600	0.018900
C401	C40	0.606900	0.674800	0.085800
H251	H25	0.576900	0.632000	0.100200
Cd11	Cd1	0.762310	0.422090	0.111160
Cd21	Cd2	0.829430	0.661520	0.186440
N11	N1	0.707600	0.706900	0.116000
N21	N2	0.553100	0.712900	0.030900
O11	O1	0.566600	0.815100	0.679700
O21	O2	0.782100	0.291800	0.016000
O31	O3	0.649400	0.275100	0.047000
O41	O4	0.420400	0.681500	0.606500
O51	O5	0.930000	0.461100	0.193300
O61	O6	0.935400	0.610000	0.268400
O71	O7	0.525800	0.655900	0.695100
O81	O8	0.625700	0.433900	0.978600
O91	O9	0.780300	0.516600	0.048500
O101	O10	0.584900	0.651700	0.582900
O111	O11	0.739100	0.462800	0.231400
O121	O12	0.707400	0.588600	0.201600
O131	O13	0.896200	0.802800	0.323200
H261	H26	0.940300	0.834500	0.306900
H271	H27	0.925500	0.775700	0.364400
C411	C41	0.465200	0.291100	0.361300
C421	C42	0.453200	0.147700	0.244000
H281	H28	0.490500	0.185600	0.229700
C431	C43	0.416400	0.055300	0.192400
C441	C44	0.339100	0.996200	0.191900
H291	H29	0.314400	0.019800	0.236300
C451	C45	0.298800	0.902200	0.125400
H301	H30	0.247000	0.862500	0.125100
C461	C46	0.335200	0.867400	0.059600
C471	C47	0.412000	0.925700	0.059700
H311	H31	0.437000	0.901500	0.015600
C481	C48	0.452400	0.020700	0.125700
H321	H32	0.503200	0.060700	0.125100
C491	C49	0.298600	0.759600	0.992500
C501	C50	0.618800	0.387900	0.492400
H331	H33	0.577700	0.423000	0.513100
C511	C51	0.714000	0.399100	0.551200
C521	C52	0.767400	0.331000	0.539900
H341	H34	0.735900	0.271800	0.487900
C531	C53	0.867500	0.350900	0.606000
H351	H35	0.902300	0.304500	0.598100
C541	C54	0.916300	0.439200	0.683500
C551	C55	0.862100	0.507900	0.694200
H361	H36	0.893600	0.567600	0.745600
C561	C56	0.762900	0.487500	0.629200
H371	H37	0.727800	0.533600	0.637300
C571	C57	0.021400	0.447200	0.739800
C581	C58	0.371000	0.344500	0.247300
H381	H38	0.312600	0.316400	0.248600
C591	C59	0.365400	0.384200	0.196700
C601	C60	0.260400	0.376900	0.137700
H391	H39	0.204400	0.345300	0.139600
C611	C61	0.247000	0.418500	0.078900
H401	H40	0.180300	0.413000	0.039000
C621	C62	0.328100	0.467500	0.077300
C631	C63	0.427500	0.477200	0.131400
H411	H41	0.481400	0.508700	0.126900
C641	C64	0.447300	0.437500	0.195800
H421	H42	0.514700	0.447200	0.237100
C651	C65	0.307500	0.507900	0.013800
C661	C66	0.408100	0.293900	0.464100
H431	H43	0.423200	0.235900	0.449500
C671	C67	0.375800	0.335200	0.536600
C681	C68	0.367500	0.425800	0.561800
H441	H44	0.385000	0.460500	0.533900
C691	C69	0.333100	0.465800	0.628900
H451	H45	0.325700	0.526800	0.644600
C701	C70	0.309800	0.415900	0.672600
C711	C71	0.318800	0.325200	0.646000
H461	H46	0.301700	0.290700	0.674200
C721	C72	0.352300	0.283100	0.579100
H471	H47	0.358900	0.221900	0.562900
C731	C73	0.282700	0.459900	0.753500
C741	C74	0.282800	0.233000	0.925300
C751	C75	0.196600	0.177800	0.917600
H481	H48	0.131000	0.176900	0.880400
C761	C76	0.208900	0.123300	0.966300
H491	H49	0.151400	0.086000	0.961300
C771	C77	0.307000	0.125400	0.021700
H501	H50	0.315300	0.089500	0.054200
C781	C78	0.392400	0.180400	0.029100
H511	H51	0.457900	0.181300	0.066800
C791	C79	0.381900	0.234400	0.981100
C801	C80	0.393100	0.325200	0.914200
H521	H52	0.423100	0.368000	0.899800
Cd31	Cd3	0.237690	0.577910	0.888840
Cd41	Cd4	0.170570	0.338480	0.813560
N31	N3	0.292400	0.293100	0.884000
N41	N4	0.446900	0.287100	0.969100
O141	O14	0.433400	0.184900	0.320300
O151	O15	0.217900	0.708200	0.984000
O161	O16	0.350600	0.724900	0.953000
O171	O17	0.579600	0.318500	0.393500
O181	O18	0.070000	0.538900	0.806700
O191	O19	0.064600	0.390000	0.731600
O201	O20	0.474200	0.344100	0.304900
O211	O21	0.374300	0.566100	0.021400
O221	O22	0.219700	0.483400	0.951500
O231	O23	0.415100	0.348300	0.417100
O241	O24	0.260900	0.537200	0.768600
O251	O25	0.292600	0.411400	0.798400
O261	O26	0.103800	0.197200	0.676800
H531	H53	0.059700	0.165500	0.693100
H541	H54	0.074500	0.224300	0.635600
