data_FALQIU_freeONLY_PM
_symmetry_space_group_name_H-M	'P1'
_cell_length_a	7.414700
_cell_length_b	13.661400
_cell_length_c	13.661400
_cell_angle_alpha	120.000000
_cell_angle_beta	90.000000
_cell_angle_gamma	90.000000
_symmetry_Int_Tables_number 1

loop_
_symmetry_equiv_pos_as_xyz
'x,y,z'

loop_
_atom_site_label
_atom_site_type_symbol
_atom_site_fract_x
_atom_site_fract_y
_atom_site_fract_z
Pr11	Pr1	0.340050	0.666670	0.333340
Pr21	Pr2	0.659950	0.333330	0.666660
Cu11	Cu1	0.000000	0.000000	0.500000
Cu21	Cu2	0.000000	0.500000	0.000000
Cu31	Cu3	0.000000	0.500000	0.500000
H11	H1	0.859800	0.029200	0.674800
H21	H2	0.952400	0.856900	0.655200
H31	H3	0.767500	0.817400	0.547700
H41	H4	0.639300	0.932600	0.718400
H51	H5	0.494200	0.871200	0.623300
H61	H6	0.539600	0.998700	0.668000
H71	H7	0.004700	0.006100	0.793100
H81	H8	0.201400	0.991800	0.745800
H91	H9	0.114300	0.896200	0.761800
H101	H10	0.859800	0.645600	0.970800
H111	H11	0.952400	0.798300	0.143100
H121	H12	0.767500	0.730300	0.182600
H131	H13	0.639300	0.785800	0.067400
H141	H14	0.494200	0.752100	0.128800
H151	H15	0.539600	0.669300	0.001300
H161	H16	0.004700	0.787000	0.993900
H171	H17	0.201400	0.754000	0.008200
H181	H18	0.114300	0.865600	0.103800
H191	H19	0.859800	0.325200	0.354400
H201	H20	0.952400	0.344800	0.201700
H211	H21	0.767500	0.452300	0.269700
H221	H22	0.639300	0.281600	0.214200
H231	H23	0.494200	0.376700	0.247900
H241	H24	0.539600	0.332000	0.330700
H251	H25	0.004700	0.206900	0.213000
H261	H26	0.201400	0.254200	0.246000
H271	H27	0.114300	0.238200	0.134400
H281	H28	0.140200	0.970800	0.325200
H291	H29	0.047600	0.143100	0.344800
H301	H30	0.232500	0.182600	0.452300
H311	H31	0.360700	0.067400	0.281600
H321	H32	0.505800	0.128800	0.376700
H331	H33	0.460400	0.001300	0.332000
H341	H34	0.995300	0.993900	0.206900
H351	H35	0.798600	0.008200	0.254200
H361	H36	0.885700	0.103800	0.238200
H371	H37	0.140200	0.354400	0.029200
H381	H38	0.047600	0.201700	0.856900
H391	H39	0.232500	0.269700	0.817400
H401	H40	0.360700	0.214200	0.932600
H411	H41	0.505800	0.247900	0.871200
H421	H42	0.460400	0.330700	0.998700
H431	H43	0.995300	0.213000	0.006100
H441	H44	0.798600	0.246000	0.991800
H451	H45	0.885700	0.134400	0.896200
H461	H46	0.140200	0.674800	0.645600
H471	H47	0.047600	0.655200	0.798300
H481	H48	0.232500	0.547700	0.730300
H491	H49	0.360700	0.718400	0.785800
H501	H50	0.505800	0.623300	0.752100
H511	H51	0.460400	0.668000	0.669300
H521	H52	0.995300	0.793100	0.787000
H531	H53	0.798600	0.745800	0.754000
H541	H54	0.885700	0.761800	0.865600
C11	C1	0.137400	0.820640	0.545010
C21	C2	0.033300	0.909800	0.648250
C31	C3	0.730900	0.893000	0.563800
C41	C4	0.685100	0.877910	0.448560
C51	C5	0.588400	0.926900	0.651100
C61	C6	0.091200	0.953000	0.741600
C71	C7	0.137400	0.724370	0.179360
C81	C8	0.033300	0.738450	0.090200
C91	C9	0.730900	0.670800	0.107000
C101	C10	0.685100	0.570650	0.122090
C111	C11	0.588400	0.724200	0.073100
C121	C12	0.091200	0.788600	0.047000
C131	C13	0.137400	0.454990	0.275630
C141	C14	0.033300	0.351750	0.261550
C151	C15	0.730900	0.436200	0.329200
C161	C16	0.685100	0.551440	0.429350
C171	C17	0.588400	0.348900	0.275800
C181	C18	0.091200	0.258400	0.211400
C191	C19	0.862600	0.179360	0.454990
C201	C20	0.966700	0.090200	0.351750
C211	C21	0.269100	0.107000	0.436200
C221	C22	0.314900	0.122090	0.551440
C231	C23	0.411600	0.073100	0.348900
C241	C24	0.908800	0.047000	0.258400
C251	C25	0.862600	0.275630	0.820640
C261	C26	0.966700	0.261550	0.909800
C271	C27	0.269100	0.329200	0.893000
C281	C28	0.314900	0.429350	0.877910
C291	C29	0.411600	0.275800	0.926900
C301	C30	0.908800	0.211400	0.953000
C311	C31	0.862600	0.545010	0.724370
C321	C32	0.966700	0.648250	0.738450
C331	C33	0.269100	0.563800	0.670800
C341	C34	0.314900	0.448560	0.570650
C351	C35	0.411600	0.651100	0.724200
C361	C36	0.908800	0.741600	0.788600
N11	N1	0.893800	0.963330	0.612920
N21	N2	0.893800	0.649590	0.036670
N31	N3	0.893800	0.387080	0.350410
N41	N4	0.106200	0.036670	0.387080
N51	N5	0.106200	0.350410	0.963330
N61	N6	0.106200	0.612920	0.649590
O11	O1	0.241200	0.755710	0.556410
O21	O2	0.120300	0.819030	0.453070
O31	O3	0.788300	0.921560	0.406920
O41	O4	0.550800	0.819480	0.398850
O51	O5	0.241200	0.800700	0.244290
O61	O6	0.120300	0.634040	0.180970
O71	O7	0.788300	0.485360	0.078440
O81	O8	0.550800	0.579370	0.180520
O91	O9	0.241200	0.443590	0.199300
O101	O10	0.120300	0.546930	0.365960
O111	O11	0.788300	0.593080	0.514640
O121	O12	0.550800	0.601150	0.420630
O131	O13	0.758800	0.244290	0.443590
O141	O14	0.879700	0.180970	0.546930
O151	O15	0.211700	0.078440	0.593080
O161	O16	0.449200	0.180520	0.601150
O171	O17	0.758800	0.199300	0.755710
O181	O18	0.879700	0.365960	0.819030
O191	O19	0.211700	0.514640	0.921560
O201	O20	0.449200	0.420630	0.819480
O211	O21	0.758800	0.556410	0.800700
O221	O22	0.879700	0.453070	0.634040
O231	O23	0.211700	0.406920	0.485360
O241	O24	0.449200	0.398850	0.579370
