data_FALQEQ_freeONLY_PM
_symmetry_space_group_name_H-M	'P1'
_cell_length_a	7.493500
_cell_length_b	13.622400
_cell_length_c	13.622400
_cell_angle_alpha	120.000000
_cell_angle_beta	90.000000
_cell_angle_gamma	90.000000
_symmetry_Int_Tables_number 1

loop_
_symmetry_equiv_pos_as_xyz
'x,y,z'

loop_
_atom_site_label
_atom_site_type_symbol
_atom_site_fract_x
_atom_site_fract_y
_atom_site_fract_z
La11	La1	0.341020	0.333330	0.666660
La21	La2	0.658980	0.666670	0.333340
Cu11	Cu1	0.000000	0.000000	0.500000
Cu21	Cu2	0.000000	0.500000	0.000000
Cu31	Cu3	0.000000	0.500000	0.500000
H11	H1	0.860100	0.968100	0.645000
H21	H2	0.953100	0.142300	0.802900
H31	H3	0.768400	0.183100	0.731200
H41	H4	0.641400	0.065500	0.787400
H51	H5	0.541100	0.997500	0.668000
H61	H6	0.494700	0.128000	0.752600
H71	H7	0.019000	0.989900	0.787900
H81	H8	0.137600	0.100600	0.861800
H91	H9	0.208900	0.002800	0.741700
H101	H10	0.860100	0.676900	0.031900
H111	H11	0.953100	0.660600	0.857700
H121	H12	0.768400	0.548100	0.816900
H131	H13	0.641400	0.721900	0.934500
H141	H14	0.541100	0.670500	0.002500
H151	H15	0.494700	0.624600	0.872000
H161	H16	0.019000	0.798000	0.010100
H171	H17	0.137600	0.761200	0.899400
H181	H18	0.208900	0.738900	0.997200
H191	H19	0.860100	0.355000	0.323100
H201	H20	0.953100	0.197100	0.339400
H211	H21	0.768400	0.268800	0.451900
H221	H22	0.641400	0.212600	0.278100
H231	H23	0.541100	0.332000	0.329500
H241	H24	0.494700	0.247400	0.375400
H251	H25	0.019000	0.212100	0.202000
H261	H26	0.137600	0.138200	0.238800
H271	H27	0.208900	0.258300	0.261100
H281	H28	0.139900	0.031900	0.355000
H291	H29	0.046900	0.857700	0.197100
H301	H30	0.231600	0.816900	0.268800
H311	H31	0.358600	0.934500	0.212600
H321	H32	0.458900	0.002500	0.332000
H331	H33	0.505300	0.872000	0.247400
H341	H34	0.981000	0.010100	0.212100
H351	H35	0.862400	0.899400	0.138200
H361	H36	0.791100	0.997200	0.258300
H371	H37	0.139900	0.323100	0.968100
H381	H38	0.046900	0.339400	0.142300
H391	H39	0.231600	0.451900	0.183100
H401	H40	0.358600	0.278100	0.065500
H411	H41	0.458900	0.329500	0.997500
H421	H42	0.505300	0.375400	0.128000
H431	H43	0.981000	0.202000	0.989900
H441	H44	0.862400	0.238800	0.100600
H451	H45	0.791100	0.261100	0.002800
H461	H46	0.139900	0.645000	0.676900
H471	H47	0.046900	0.802900	0.660600
H481	H48	0.231600	0.731200	0.548100
H491	H49	0.358600	0.787400	0.721900
H501	H50	0.458900	0.668000	0.670500
H511	H51	0.505300	0.752600	0.624600
H521	H52	0.981000	0.787900	0.798000
H531	H53	0.862400	0.861800	0.761200
H541	H54	0.791100	0.741700	0.738900
C11	C1	0.136500	0.177420	0.724010
C21	C2	0.032100	0.089300	0.739100
C31	C3	0.732200	0.105600	0.670400
C41	C4	0.687100	0.120360	0.570160
C51	C5	0.590100	0.071200	0.724200
C61	C6	0.102600	0.043500	0.784700
C71	C7	0.136500	0.546590	0.822580
C81	C8	0.032100	0.649800	0.910700
C91	C9	0.732200	0.564800	0.894400
C101	C10	0.687100	0.449800	0.879640
C111	C11	0.590100	0.653000	0.928800
C121	C12	0.102600	0.741200	0.956500
C131	C13	0.136500	0.275990	0.453410
C141	C14	0.032100	0.260900	0.350200
C151	C15	0.732200	0.329600	0.435200
C161	C16	0.687100	0.429840	0.550200
C171	C17	0.590100	0.275800	0.347000
C181	C18	0.102600	0.215300	0.258800
C191	C19	0.863500	0.822580	0.275990
C201	C20	0.967900	0.910700	0.260900
C211	C21	0.267800	0.894400	0.329600
C221	C22	0.312900	0.879640	0.429840
C231	C23	0.409900	0.928800	0.275800
C241	C24	0.897400	0.956500	0.215300
C251	C25	0.863500	0.453410	0.177420
C261	C26	0.967900	0.350200	0.089300
C271	C27	0.267800	0.435200	0.105600
C281	C28	0.312900	0.550200	0.120360
C291	C29	0.409900	0.347000	0.071200
C301	C30	0.897400	0.258800	0.043500
C311	C31	0.863500	0.724010	0.546590
C321	C32	0.967900	0.739100	0.649800
C331	C33	0.267800	0.670400	0.564800
C341	C34	0.312900	0.570160	0.449800
C351	C35	0.409900	0.724200	0.653000
C361	C36	0.897400	0.784700	0.741200
N11	N1	0.894100	0.035940	0.649630
N21	N2	0.894100	0.613690	0.964060
N31	N3	0.894100	0.350370	0.386310
N41	N4	0.105900	0.964060	0.350370
N51	N5	0.105900	0.386310	0.035940
N61	N6	0.105900	0.649630	0.613690
O11	O1	0.241900	0.241520	0.799350
O21	O2	0.117300	0.179650	0.633330
O31	O3	0.788600	0.076820	0.484770
O41	O4	0.551900	0.177670	0.578220
O51	O5	0.241900	0.557830	0.758480
O61	O6	0.117300	0.453680	0.820350
O71	O7	0.788600	0.407950	0.923180
O81	O8	0.551900	0.400550	0.822330
O91	O9	0.241900	0.200650	0.442170
O101	O10	0.117300	0.366670	0.546320
O111	O11	0.788600	0.515230	0.592050
O121	O12	0.551900	0.421780	0.599450
O131	O13	0.758100	0.758480	0.200650
O141	O14	0.882700	0.820350	0.366670
O151	O15	0.211400	0.923180	0.515230
O161	O16	0.448100	0.822330	0.421780
O171	O17	0.758100	0.442170	0.241520
O181	O18	0.882700	0.546320	0.179650
O191	O19	0.211400	0.592050	0.076820
O201	O20	0.448100	0.599450	0.177670
O211	O21	0.758100	0.799350	0.557830
O221	O22	0.882700	0.633330	0.453680
O231	O23	0.211400	0.484770	0.407950
O241	O24	0.448100	0.578220	0.400550
