data_FALZAU_freeONLY_PM
_symmetry_space_group_name_H-M	'P1'
_cell_length_a	25.158000
_cell_length_b	9.053600
_cell_length_c	10.166000
_cell_angle_alpha	90.000000
_cell_angle_beta	90.000000
_cell_angle_gamma	90.000000
_symmetry_Int_Tables_number 1

loop_
_symmetry_equiv_pos_as_xyz
'x,y,z'

loop_
_atom_site_label
_atom_site_type_symbol
_atom_site_fract_x
_atom_site_fract_y
_atom_site_fract_z
Ga11	Ga1	0.883350	0.122310	0.311310
Ga21	Ga2	0.767350	0.669770	0.510690
P11	P1	0.994700	0.113400	0.178400
P21	P2	0.838750	0.045680	0.038390
P31	P3	0.802160	0.388830	0.320080
O11	O1	0.856530	0.308100	0.331300
O21	O2	0.720620	0.790100	0.629400
O31	O3	0.807560	0.526500	0.403700
O41	O4	0.951750	0.166600	0.268700
O51	O5	0.851350	0.012900	0.183500
O61	O6	0.792830	0.431100	0.174600
O71	O7	0.887290	0.993600	0.958000
O81	O8	0.831400	0.210900	0.020700
O91	O9	0.757230	0.284300	0.362400
O101	O10	0.987500	0.184300	0.041600
O111	O11	0.991000	0.943700	0.167700
O121	O12	0.791180	0.960900	0.993800
Ga31	Ga3	0.616650	0.377690	0.811310
Ga41	Ga4	0.732650	0.830230	0.010690
P41	P4	0.505300	0.386600	0.678400
P51	P5	0.661250	0.454320	0.538390
P61	P6	0.697840	0.111170	0.820080
O131	O13	0.643470	0.191900	0.831300
O141	O14	0.779380	0.709900	0.129400
O151	O15	0.692440	0.973500	0.903700
O161	O16	0.548250	0.333400	0.768700
O171	O17	0.648650	0.487100	0.683500
O181	O18	0.707170	0.068900	0.674600
O191	O19	0.612710	0.506400	0.458000
O201	O20	0.668600	0.289100	0.520700
O211	O21	0.742770	0.215700	0.862400
O221	O22	0.512500	0.315700	0.541600
O231	O23	0.509000	0.556300	0.667700
O241	O24	0.708820	0.539100	0.493800
Ga51	Ga5	0.116650	0.122310	0.188690
Ga61	Ga6	0.232650	0.669770	0.989310
P71	P7	0.005300	0.113400	0.321600
P81	P8	0.161250	0.045680	0.461610
P91	P9	0.197840	0.388830	0.179920
O251	O25	0.143470	0.308100	0.168700
O261	O26	0.279380	0.790100	0.870600
O271	O27	0.192440	0.526500	0.096300
O281	O28	0.048250	0.166600	0.231300
O291	O29	0.148650	0.012900	0.316500
O301	O30	0.207170	0.431100	0.325400
O311	O31	0.112710	0.993600	0.542000
O321	O32	0.168600	0.210900	0.479300
O331	O33	0.242770	0.284300	0.137600
O341	O34	0.012500	0.184300	0.458400
O351	O35	0.009000	0.943700	0.332300
O361	O36	0.208820	0.960900	0.506200
Ga71	Ga7	0.383350	0.377690	0.688690
Ga81	Ga8	0.267350	0.830230	0.489310
P101	P10	0.494700	0.386600	0.821600
P111	P11	0.338750	0.454320	0.961610
P121	P12	0.302160	0.111170	0.679920
O371	O37	0.356530	0.191900	0.668700
O381	O38	0.220620	0.709900	0.370600
O391	O39	0.307560	0.973500	0.596300
O401	O40	0.451750	0.333400	0.731300
O411	O41	0.351350	0.487100	0.816500
O421	O42	0.292830	0.068900	0.825400
O431	O43	0.387290	0.506400	0.042000
O441	O44	0.331400	0.289100	0.979300
O451	O45	0.257230	0.215700	0.637600
O461	O46	0.487500	0.315700	0.958400
O471	O47	0.491000	0.556300	0.832300
O481	O48	0.291180	0.539100	0.006200
Ga91	Ga9	0.116650	0.877690	0.688690
Ga101	Ga10	0.232650	0.330230	0.489310
P131	P13	0.005300	0.886600	0.821600
P141	P14	0.161250	0.954320	0.961610
P151	P15	0.197840	0.611170	0.679920
O491	O49	0.143470	0.691900	0.668700
O501	O50	0.279380	0.209900	0.370600
O511	O51	0.192440	0.473500	0.596300
O521	O52	0.048250	0.833400	0.731300
O531	O53	0.148650	0.987100	0.816500
O541	O54	0.207170	0.568900	0.825400
O551	O55	0.112710	0.006400	0.042000
O561	O56	0.168600	0.789100	0.979300
O571	O57	0.242770	0.715700	0.637600
O581	O58	0.012500	0.815700	0.958400
O591	O59	0.009000	0.056300	0.832300
O601	O60	0.208820	0.039100	0.006200
Ga111	Ga11	0.383350	0.622310	0.188690
Ga121	Ga12	0.267350	0.169770	0.989310
P161	P16	0.494700	0.613400	0.321600
P171	P17	0.338750	0.545680	0.461610
P181	P18	0.302160	0.888830	0.179920
O611	O61	0.356530	0.808100	0.168700
O621	O62	0.220620	0.290100	0.870600
O631	O63	0.307560	0.026500	0.096300
O641	O64	0.451750	0.666600	0.231300
O651	O65	0.351350	0.512900	0.316500
O661	O66	0.292830	0.931100	0.325400
O671	O67	0.387290	0.493600	0.542000
O681	O68	0.331400	0.710900	0.479300
O691	O69	0.257230	0.784300	0.137600
O701	O70	0.487500	0.684300	0.458400
O711	O71	0.491000	0.443700	0.332300
O721	O72	0.291180	0.460900	0.506200
Ga131	Ga13	0.883350	0.877690	0.811310
Ga141	Ga14	0.767350	0.330230	0.010690
P191	P19	0.994700	0.886600	0.678400
P201	P20	0.838750	0.954320	0.538390
P211	P21	0.802160	0.611170	0.820080
O731	O73	0.856530	0.691900	0.831300
O741	O74	0.720620	0.209900	0.129400
O751	O75	0.807560	0.473500	0.903700
O761	O76	0.951750	0.833400	0.768700
O771	O77	0.851350	0.987100	0.683500
O781	O78	0.792830	0.568900	0.674600
O791	O79	0.887290	0.006400	0.458000
O801	O80	0.831400	0.789100	0.520700
O811	O81	0.757230	0.715700	0.862400
O821	O82	0.987500	0.815700	0.541600
O831	O83	0.991000	0.056300	0.667700
O841	O84	0.791180	0.039100	0.493800
Ga151	Ga15	0.616650	0.622310	0.311310
Ga161	Ga16	0.732650	0.169770	0.510690
P221	P22	0.505300	0.613400	0.178400
P231	P23	0.661250	0.545680	0.038390
P241	P24	0.697840	0.888830	0.320080
O851	O85	0.643470	0.808100	0.331300
O861	O86	0.779380	0.290100	0.629400
O871	O87	0.692440	0.026500	0.403700
O881	O88	0.548250	0.666600	0.268700
O891	O89	0.648650	0.512900	0.183500
O901	O90	0.707170	0.931100	0.174600
O911	O91	0.612710	0.493600	0.958000
O921	O92	0.668600	0.710900	0.020700
O931	O93	0.742770	0.784300	0.362400
O941	O94	0.512500	0.684300	0.041600
O951	O95	0.509000	0.443700	0.167700
O961	O96	0.708820	0.460900	0.993800
