data_FALZIC_freeONLY_PM
_symmetry_space_group_name_H-M	'P1'
_cell_length_a	16.839500
_cell_length_b	16.839500
_cell_length_c	16.839500
_cell_angle_alpha	90.000000
_cell_angle_beta	90.000000
_cell_angle_gamma	90.000000
_symmetry_Int_Tables_number 1

loop_
_symmetry_equiv_pos_as_xyz
'x,y,z'

loop_
_atom_site_label
_atom_site_type_symbol
_atom_site_fract_x
_atom_site_fract_y
_atom_site_fract_z
O11	O1	0.907490	0.483620	0.194000
O21	O2	0.407490	0.983620	0.694000
O31	O3	0.092510	0.516380	0.194000
O41	O4	0.592510	0.016380	0.694000
O51	O5	0.092510	0.483620	0.806000
O61	O6	0.592510	0.983620	0.306000
O71	O7	0.907490	0.516380	0.806000
O81	O8	0.407490	0.016380	0.306000
O91	O9	0.194000	0.907490	0.483620
O101	O10	0.694000	0.407490	0.983620
O111	O11	0.194000	0.092510	0.516380
O121	O12	0.694000	0.592510	0.016380
O131	O13	0.806000	0.092510	0.483620
O141	O14	0.306000	0.592510	0.983620
O151	O15	0.806000	0.907490	0.516380
O161	O16	0.306000	0.407490	0.016380
O171	O17	0.483620	0.194000	0.907490
O181	O18	0.983620	0.694000	0.407490
O191	O19	0.516380	0.194000	0.092510
O201	O20	0.016380	0.694000	0.592510
O211	O21	0.483620	0.806000	0.092510
O221	O22	0.983620	0.306000	0.592510
O231	O23	0.516380	0.806000	0.907490
O241	O24	0.016380	0.306000	0.407490
O251	O25	0.483620	0.907490	0.194000
O261	O26	0.983620	0.407490	0.694000
O271	O27	0.516380	0.092510	0.194000
O281	O28	0.016380	0.592510	0.694000
O291	O29	0.483620	0.092510	0.806000
O301	O30	0.983620	0.592510	0.306000
O311	O31	0.516380	0.907490	0.806000
O321	O32	0.016380	0.407490	0.306000
O331	O33	0.907490	0.194000	0.483620
O341	O34	0.407490	0.694000	0.983620
O351	O35	0.092510	0.194000	0.516380
O361	O36	0.592510	0.694000	0.016380
O371	O37	0.092510	0.806000	0.483620
O381	O38	0.592510	0.306000	0.983620
O391	O39	0.907490	0.806000	0.516380
O401	O40	0.407490	0.306000	0.016380
O411	O41	0.194000	0.483620	0.907490
O421	O42	0.694000	0.983620	0.407490
O431	O43	0.194000	0.516380	0.092510
O441	O44	0.694000	0.016380	0.592510
O451	O45	0.806000	0.483620	0.092510
O461	O46	0.306000	0.983620	0.592510
O471	O47	0.806000	0.516380	0.907490
O481	O48	0.306000	0.016380	0.407490
Ga11	Ga1	0.000000	0.500000	0.000000
Ga21	Ga2	0.500000	0.000000	0.500000
Ga31	Ga3	0.000000	0.000000	0.500000
Ga41	Ga4	0.500000	0.500000	0.000000
Ga51	Ga5	0.500000	0.000000	0.000000
Ga61	Ga6	0.000000	0.500000	0.500000
Li11	Li1	0.000000	0.500000	0.250000
Li21	Li2	0.000000	0.500000	0.750000
Li31	Li3	0.500000	0.000000	0.250000
Li41	Li4	0.250000	0.000000	0.500000
Li51	Li5	0.750000	0.000000	0.500000
Li61	Li6	0.250000	0.500000	0.000000
Li71	Li7	0.500000	0.250000	0.000000
Li81	Li8	0.500000	0.750000	0.000000
Li91	Li9	0.000000	0.250000	0.500000
Li101	Li10	0.500000	0.000000	0.750000
Li111	Li11	0.000000	0.750000	0.500000
Li121	Li12	0.750000	0.500000	0.000000
P11	P1	0.876690	0.435040	0.123310
O491	O49	0.853380	0.352500	0.146620
O501	O50	0.941760	0.430200	0.058240
P21	P2	0.376690	0.935040	0.623310
O511	O51	0.353380	0.852500	0.646620
O521	O52	0.441760	0.930200	0.558240
P31	P3	0.123310	0.564960	0.123310
O531	O53	0.146620	0.647500	0.146620
O541	O54	0.058240	0.569800	0.058240
P41	P4	0.623310	0.064960	0.623310
O551	O55	0.646620	0.147500	0.646620
O561	O56	0.558240	0.069800	0.558240
P51	P5	0.123310	0.435040	0.876690
O571	O57	0.146620	0.352500	0.853380
O581	O58	0.058240	0.430200	0.941760
P61	P6	0.623310	0.935040	0.376690
O591	O59	0.646620	0.852500	0.353380
O601	O60	0.558240	0.930200	0.441760
P71	P7	0.876690	0.564960	0.876690
O611	O61	0.853380	0.647500	0.853380
O621	O62	0.941760	0.569800	0.941760
P81	P8	0.376690	0.064960	0.376690
O631	O63	0.353380	0.147500	0.353380
O641	O64	0.441760	0.069800	0.441760
P91	P9	0.123310	0.876690	0.435040
O651	O65	0.146620	0.853380	0.352500
O661	O66	0.058240	0.941760	0.430200
P101	P10	0.623310	0.376690	0.935040
O671	O67	0.646620	0.353380	0.852500
O681	O68	0.558240	0.441760	0.930200
P111	P11	0.123310	0.123310	0.564960
O691	O69	0.146620	0.146620	0.647500
O701	O70	0.058240	0.058240	0.569800
P121	P12	0.623310	0.623310	0.064960
O711	O71	0.646620	0.646620	0.147500
O721	O72	0.558240	0.558240	0.069800
P131	P13	0.876690	0.123310	0.435040
O731	O73	0.853380	0.146620	0.352500
O741	O74	0.941760	0.058240	0.430200
P141	P14	0.376690	0.623310	0.935040
O751	O75	0.353380	0.646620	0.852500
O761	O76	0.441760	0.558240	0.930200
P151	P15	0.876690	0.876690	0.564960
O771	O77	0.853380	0.853380	0.647500
O781	O78	0.941760	0.941760	0.569800
P161	P16	0.376690	0.376690	0.064960
O791	O79	0.353380	0.353380	0.147500
O801	O80	0.441760	0.441760	0.069800
P171	P17	0.435040	0.123310	0.876690
O811	O81	0.352500	0.146620	0.853380
O821	O82	0.430200	0.058240	0.941760
P181	P18	0.935040	0.623310	0.376690
O831	O83	0.852500	0.646620	0.353380
O841	O84	0.930200	0.558240	0.441760
P191	P19	0.564960	0.123310	0.123310
O851	O85	0.647500	0.146620	0.146620
O861	O86	0.569800	0.058240	0.058240
P201	P20	0.064960	0.623310	0.623310
O871	O87	0.147500	0.646620	0.646620
O881	O88	0.069800	0.558240	0.558240
P211	P21	0.435040	0.876690	0.123310
O891	O89	0.352500	0.853380	0.146620
O901	O90	0.430200	0.941760	0.058240
P221	P22	0.935040	0.376690	0.623310
O911	O91	0.852500	0.353380	0.646620
O921	O92	0.930200	0.441760	0.558240
P231	P23	0.564960	0.876690	0.876690
O931	O93	0.647500	0.853380	0.853380
O941	O94	0.569800	0.941760	0.941760
P241	P24	0.064960	0.376690	0.376690
O951	O95	0.147500	0.353380	0.353380
O961	O96	0.069800	0.441760	0.441760
