data_FAMPUH_freeONLY_PM
_symmetry_space_group_name_H-M	'P1'
_cell_length_a	18.668000
_cell_length_b	18.668000
_cell_length_c	34.825000
_cell_angle_alpha	90.000000
_cell_angle_beta	90.000000
_cell_angle_gamma	90.000000
_symmetry_Int_Tables_number 1

loop_
_symmetry_equiv_pos_as_xyz
'x,y,z'

loop_
_atom_site_label
_atom_site_type_symbol
_atom_site_fract_x
_atom_site_fract_y
_atom_site_fract_z
C11	C1	0.023300	0.431900	0.033600
C21	C2	0.047500	0.363700	0.033600
H11	H1	0.015000	0.455300	0.056700
C31	C3	0.060900	0.324900	0.072100
O11	O1	0.106000	0.274000	0.071500
N11	N1	0.008000	0.329000	0.097100
H21	H2	0.973000	0.357000	0.091000
C41	C4	0.013500	0.313300	0.141200
C51	C5	0.950000	0.307500	0.160500
C61	C6	0.949200	0.282800	0.197400
C71	C7	0.011800	0.263900	0.215100
C81	C8	0.075300	0.269800	0.195800
C91	C9	0.076100	0.294500	0.158800
H31	H3	0.907400	0.320300	0.148500
H41	H4	0.011200	0.247100	0.240200
H51	H5	0.119300	0.298400	0.145700
C101	C10	0.883400	0.276700	0.217400
O21	O2	0.822800	0.295000	0.204100
O31	O3	0.876500	0.252000	0.251200
C111	C11	0.140100	0.250200	0.214100
O41	O4	0.202200	0.267000	0.202400
O51	O5	0.145000	0.213000	0.244500
Cu11	Cu1	0.737900	0.296800	0.222300
C121	C12	0.664100	0.395700	0.187700
C131	C13	0.669300	0.334800	0.168900
H61	H6	0.659900	0.445200	0.202900
H71	H7	0.673600	0.285200	0.153600
C141	C14	0.976700	0.568100	0.033600
C151	C15	0.952500	0.636300	0.033600
H81	H8	0.985000	0.544700	0.056700
C161	C16	0.939100	0.675100	0.072100
O61	O6	0.894000	0.726000	0.071500
N21	N2	0.992000	0.671000	0.097100
H91	H9	0.027000	0.643000	0.091000
C171	C17	0.986500	0.686700	0.141200
C181	C18	0.050000	0.692500	0.160500
C191	C19	0.050800	0.717200	0.197400
C201	C20	0.988200	0.736100	0.215100
C211	C21	0.924700	0.730200	0.195800
C221	C22	0.923900	0.705500	0.158800
H101	H10	0.092600	0.679700	0.148500
H111	H11	0.988800	0.752900	0.240200
H121	H12	0.880700	0.701600	0.145700
C231	C23	0.116600	0.723300	0.217400
O71	O7	0.177200	0.705000	0.204100
O81	O8	0.123500	0.748000	0.251200
C241	C24	0.859900	0.749800	0.214100
O91	O9	0.797800	0.733000	0.202400
O101	O10	0.855000	0.787000	0.244500
Cu21	Cu2	0.262100	0.703200	0.222300
C251	C25	0.335900	0.604300	0.187700
C261	C26	0.330700	0.665200	0.168900
H131	H13	0.340100	0.554800	0.202900
H141	H14	0.326400	0.714800	0.153600
C271	C27	0.568100	0.023300	0.033600
C281	C28	0.636300	0.047500	0.033600
H151	H15	0.544700	0.015000	0.056700
C291	C29	0.675100	0.060900	0.072100
O111	O11	0.726000	0.106000	0.071500
N31	N3	0.671000	0.008000	0.097100
H161	H16	0.643000	0.973000	0.091000
C301	C30	0.686700	0.013500	0.141200
C311	C31	0.692500	0.950000	0.160500
C321	C32	0.717200	0.949200	0.197400
C331	C33	0.736100	0.011800	0.215100
C341	C34	0.730200	0.075300	0.195800
C351	C35	0.705500	0.076100	0.158800
H171	H17	0.679700	0.907400	0.148500
H181	H18	0.752900	0.011200	0.240200
H191	H19	0.701600	0.119300	0.145700
C361	C36	0.723300	0.883400	0.217400
O121	O12	0.705000	0.822800	0.204100
O131	O13	0.748000	0.876500	0.251200
C371	C37	0.749800	0.140100	0.214100
O141	O14	0.733000	0.202200	0.202400
O151	O15	0.787000	0.145000	0.244500
Cu31	Cu3	0.703200	0.737900	0.222300
C381	C38	0.604300	0.664100	0.187700
C391	C39	0.665200	0.669300	0.168900
H201	H20	0.554800	0.659900	0.202900
H211	H21	0.714800	0.673600	0.153600
C401	C40	0.431900	0.976700	0.033600
C411	C41	0.363700	0.952500	0.033600
H221	H22	0.455300	0.985000	0.056700
C421	C42	0.324900	0.939100	0.072100
O161	O16	0.274000	0.894000	0.071500
N41	N4	0.329000	0.992000	0.097100
H231	H23	0.357000	0.027000	0.091000
C431	C43	0.313300	0.986500	0.141200
C441	C44	0.307500	0.050000	0.160500
C451	C45	0.282800	0.050800	0.197400
C461	C46	0.263900	0.988200	0.215100
C471	C47	0.269800	0.924700	0.195800
C481	C48	0.294500	0.923900	0.158800
H241	H24	0.320300	0.092600	0.148500
H251	H25	0.247100	0.988800	0.240200
H261	H26	0.298400	0.880700	0.145700
C491	C49	0.276700	0.116600	0.217400
O171	O17	0.295000	0.177200	0.204100
O181	O18	0.252000	0.123500	0.251200
C501	C50	0.250200	0.859900	0.214100
O191	O19	0.267000	0.797800	0.202400
O201	O20	0.213000	0.855000	0.244500
Cu41	Cu4	0.296800	0.262100	0.222300
C511	C51	0.395700	0.335900	0.187700
C521	C52	0.334800	0.330700	0.168900
H271	H27	0.445200	0.340100	0.202900
H281	H28	0.285200	0.326400	0.153600
C531	C53	0.476700	0.931900	0.466400
C541	C54	0.452500	0.863700	0.466400
H291	H29	0.485000	0.955300	0.443300
C551	C55	0.439100	0.824900	0.427900
O211	O21	0.394000	0.774000	0.428500
N51	N5	0.492000	0.829000	0.402900
H301	H30	0.527000	0.857000	0.409000
C561	C56	0.486500	0.813300	0.358800
C571	C57	0.550000	0.807500	0.339500
C581	C58	0.550800	0.782800	0.302600
C591	C59	0.488200	0.763900	0.284900
C601	C60	0.424700	0.769800	0.304200
C611	C61	0.423900	0.794500	0.341200
H311	H31	0.592600	0.820300	0.351500
H321	H32	0.488800	0.747100	0.259800
H331	H33	0.380700	0.798400	0.354300
C621	C62	0.616600	0.776700	0.282600
O221	O22	0.677200	0.795000	0.295900
O231	O23	0.623500	0.752000	0.248800
C631	C63	0.359900	0.750200	0.285900
O241	O24	0.297800	0.767000	0.297600
O251	O25	0.355000	0.713000	0.255500
Cu51	Cu5	0.762100	0.796800	0.277700
C641	C64	0.835900	0.895700	0.312300
C651	C65	0.830700	0.834800	0.331100
H341	H34	0.840100	0.945200	0.297100
H351	H35	0.826400	0.785200	0.346400
C661	C66	0.523300	0.068100	0.466400
C671	C67	0.547500	0.136300	0.466400
H361	H36	0.515000	0.044700	0.443300
C681	C68	0.560900	0.175100	0.427900
O261	O26	0.606000	0.226000	0.428500
N61	N6	0.508000	0.171000	0.402900
H371	H37	0.473000	0.143000	0.409000
C691	C69	0.513500	0.186700	0.358800
C701	C70	0.450000	0.192500	0.339500
C711	C71	0.449200	0.217200	0.302600
C721	C72	0.511800	0.236100	0.284900
C731	C73	0.575300	0.230200	0.304200
C741	C74	0.576100	0.205500	0.341200
H381	H38	0.407400	0.179700	0.351500
H391	H39	0.511200	0.252900	0.259800
H401	H40	0.619300	0.201600	0.354300
C751	C75	0.383400	0.223300	0.282600
O271	O27	0.322800	0.205000	0.295900
O281	O28	0.376500	0.248000	0.248800
C761	C76	0.640100	0.249800	0.285900
O291	O29	0.702200	0.233000	0.297600
O301	O30	0.645000	0.287000	0.255500
Cu61	Cu6	0.237900	0.203200	0.277700
C771	C77	0.164100	0.104300	0.312300
C781	C78	0.169300	0.165200	0.331100
H411	H41	0.159900	0.054800	0.297100
H421	H42	0.173600	0.214800	0.346400
C791	C79	0.931900	0.523300	0.466400
C801	C80	0.863700	0.547500	0.466400
H431	H43	0.955300	0.515000	0.443300
C811	C81	0.824900	0.560900	0.427900
O311	O31	0.774000	0.606000	0.428500
N71	N7	0.829000	0.508000	0.402900
H441	H44	0.857000	0.473000	0.409000
C821	C82	0.813300	0.513500	0.358800
C831	C83	0.807500	0.450000	0.339500
C841	C84	0.782800	0.449200	0.302600
C851	C85	0.763900	0.511800	0.284900
C861	C86	0.769800	0.575300	0.304200
C871	C87	0.794500	0.576100	0.341200
H451	H45	0.820300	0.407400	0.351500
H461	H46	0.747100	0.511200	0.259800
H471	H47	0.798400	0.619300	0.354300
C881	C88	0.776700	0.383400	0.282600
O321	O32	0.795000	0.322800	0.295900
O331	O33	0.752000	0.376500	0.248800
C891	C89	0.750200	0.640100	0.285900
O341	O34	0.767000	0.702200	0.297600
O351	O35	0.713000	0.645000	0.255500
Cu71	Cu7	0.796800	0.237900	0.277700
C901	C90	0.895700	0.164100	0.312300
C911	C91	0.834800	0.169300	0.331100
H481	H48	0.945200	0.159900	0.297100
H491	H49	0.785200	0.173600	0.346400
C921	C92	0.068100	0.476700	0.466400
C931	C93	0.136300	0.452500	0.466400
H501	H50	0.044700	0.485000	0.443300
C941	C94	0.175100	0.439100	0.427900
O361	O36	0.226000	0.394000	0.428500
N81	N8	0.171000	0.492000	0.402900
H511	H51	0.143000	0.527000	0.409000
C951	C95	0.186700	0.486500	0.358800
C961	C96	0.192500	0.550000	0.339500
C971	C97	0.217200	0.550800	0.302600
C981	C98	0.236100	0.488200	0.284900
C991	C99	0.230200	0.424700	0.304200
C1001	C100	0.205500	0.423900	0.341200
H521	H52	0.179700	0.592600	0.351500
H531	H53	0.252900	0.488800	0.259800
H541	H54	0.201600	0.380700	0.354300
C1011	C101	0.223300	0.616600	0.282600
O371	O37	0.205000	0.677200	0.295900
O381	O38	0.248000	0.623500	0.248800
C1021	C102	0.249800	0.359900	0.285900
O391	O39	0.233000	0.297800	0.297600
O401	O40	0.287000	0.355000	0.255500
Cu81	Cu8	0.203200	0.762100	0.277700
C1031	C103	0.104300	0.835900	0.312300
C1041	C104	0.165200	0.830700	0.331100
H551	H55	0.054800	0.840100	0.297100
H561	H56	0.214800	0.826400	0.346400
C1051	C105	0.976700	0.568100	0.966400
C1061	C106	0.952500	0.636300	0.966400
H571	H57	0.985000	0.544700	0.943300
C1071	C107	0.939100	0.675100	0.927900
O411	O41	0.894000	0.726000	0.928500
N91	N9	0.992000	0.671000	0.902900
H581	H58	0.027000	0.643000	0.909000
C1081	C108	0.986500	0.686700	0.858800
C1091	C109	0.050000	0.692500	0.839500
C1101	C110	0.050800	0.717200	0.802600
C1111	C111	0.988200	0.736100	0.784900
C1121	C112	0.924700	0.730200	0.804200
C1131	C113	0.923900	0.705500	0.841200
H591	H59	0.092600	0.679700	0.851500
H601	H60	0.988800	0.752900	0.759800
H611	H61	0.880700	0.701600	0.854300
C1141	C114	0.116600	0.723300	0.782600
O421	O42	0.177200	0.705000	0.795900
O431	O43	0.123500	0.748000	0.748800
C1151	C115	0.859900	0.749800	0.785900
O441	O44	0.797800	0.733000	0.797600
O451	O45	0.855000	0.787000	0.755500
Cu91	Cu9	0.262100	0.703200	0.777700
C1161	C116	0.335900	0.604300	0.812300
C1171	C117	0.330700	0.665200	0.831100
H621	H62	0.340100	0.554800	0.797100
H631	H63	0.326400	0.714800	0.846400
C1181	C118	0.023300	0.431900	0.966400
C1191	C119	0.047500	0.363700	0.966400
H641	H64	0.015000	0.455300	0.943300
C1201	C120	0.060900	0.324900	0.927900
O461	O46	0.106000	0.274000	0.928500
N101	N10	0.008000	0.329000	0.902900
H651	H65	0.973000	0.357000	0.909000
C1211	C121	0.013500	0.313300	0.858800
C1221	C122	0.950000	0.307500	0.839500
C1231	C123	0.949200	0.282800	0.802600
C1241	C124	0.011800	0.263900	0.784900
C1251	C125	0.075300	0.269800	0.804200
C1261	C126	0.076100	0.294500	0.841200
H661	H66	0.907400	0.320300	0.851500
H671	H67	0.011200	0.247100	0.759800
H681	H68	0.119300	0.298400	0.854300
C1271	C127	0.883400	0.276700	0.782600
O471	O47	0.822800	0.295000	0.795900
O481	O48	0.876500	0.252000	0.748800
C1281	C128	0.140100	0.250200	0.785900
O491	O49	0.202200	0.267000	0.797600
O501	O50	0.145000	0.213000	0.755500
Cu101	Cu10	0.737900	0.296800	0.777700
C1291	C129	0.664100	0.395700	0.812300
C1301	C130	0.669300	0.334800	0.831100
H691	H69	0.659900	0.445200	0.797100
H701	H70	0.673600	0.285200	0.846400
C1311	C131	0.431900	0.976700	0.966400
C1321	C132	0.363700	0.952500	0.966400
H711	H71	0.455300	0.985000	0.943300
C1331	C133	0.324900	0.939100	0.927900
O511	O51	0.274000	0.894000	0.928500
N111	N11	0.329000	0.992000	0.902900
H721	H72	0.357000	0.027000	0.909000
C1341	C134	0.313300	0.986500	0.858800
C1351	C135	0.307500	0.050000	0.839500
C1361	C136	0.282800	0.050800	0.802600
C1371	C137	0.263900	0.988200	0.784900
C1381	C138	0.269800	0.924700	0.804200
C1391	C139	0.294500	0.923900	0.841200
H731	H73	0.320300	0.092600	0.851500
H741	H74	0.247100	0.988800	0.759800
H751	H75	0.298400	0.880700	0.854300
C1401	C140	0.276700	0.116600	0.782600
O521	O52	0.295000	0.177200	0.795900
O531	O53	0.252000	0.123500	0.748800
C1411	C141	0.250200	0.859900	0.785900
O541	O54	0.267000	0.797800	0.797600
O551	O55	0.213000	0.855000	0.755500
Cu111	Cu11	0.296800	0.262100	0.777700
C1421	C142	0.395700	0.335900	0.812300
C1431	C143	0.334800	0.330700	0.831100
H761	H76	0.445200	0.340100	0.797100
H771	H77	0.285200	0.326400	0.846400
C1441	C144	0.568100	0.023300	0.966400
C1451	C145	0.636300	0.047500	0.966400
H781	H78	0.544700	0.015000	0.943300
C1461	C146	0.675100	0.060900	0.927900
O561	O56	0.726000	0.106000	0.928500
N121	N12	0.671000	0.008000	0.902900
H791	H79	0.643000	0.973000	0.909000
C1471	C147	0.686700	0.013500	0.858800
C1481	C148	0.692500	0.950000	0.839500
C1491	C149	0.717200	0.949200	0.802600
C1501	C150	0.736100	0.011800	0.784900
C1511	C151	0.730200	0.075300	0.804200
C1521	C152	0.705500	0.076100	0.841200
H801	H80	0.679700	0.907400	0.851500
H811	H81	0.752900	0.011200	0.759800
H821	H82	0.701600	0.119300	0.854300
C1531	C153	0.723300	0.883400	0.782600
O571	O57	0.705000	0.822800	0.795900
O581	O58	0.748000	0.876500	0.748800
C1541	C154	0.749800	0.140100	0.785900
O591	O59	0.733000	0.202200	0.797600
O601	O60	0.787000	0.145000	0.755500
Cu121	Cu12	0.703200	0.737900	0.777700
C1551	C155	0.604300	0.664100	0.812300
C1561	C156	0.665200	0.669300	0.831100
H831	H83	0.554800	0.659900	0.797100
H841	H84	0.714800	0.673600	0.846400
C1571	C157	0.523300	0.068100	0.533600
C1581	C158	0.547500	0.136300	0.533600
H851	H85	0.515000	0.044700	0.556700
C1591	C159	0.560900	0.175100	0.572100
O611	O61	0.606000	0.226000	0.571500
N131	N13	0.508000	0.171000	0.597100
H861	H86	0.473000	0.143000	0.591000
C1601	C160	0.513500	0.186700	0.641200
C1611	C161	0.450000	0.192500	0.660500
C1621	C162	0.449200	0.217200	0.697400
C1631	C163	0.511800	0.236100	0.715100
C1641	C164	0.575300	0.230200	0.695800
C1651	C165	0.576100	0.205500	0.658800
H871	H87	0.407400	0.179700	0.648500
H881	H88	0.511200	0.252900	0.740200
H891	H89	0.619300	0.201600	0.645700
C1661	C166	0.383400	0.223300	0.717400
O621	O62	0.322800	0.205000	0.704100
O631	O63	0.376500	0.248000	0.751200
C1671	C167	0.640100	0.249800	0.714100
O641	O64	0.702200	0.233000	0.702400
O651	O65	0.645000	0.287000	0.744500
Cu131	Cu13	0.237900	0.203200	0.722300
C1681	C168	0.164100	0.104300	0.687700
C1691	C169	0.169300	0.165200	0.668900
H901	H90	0.159900	0.054800	0.702900
H911	H91	0.173600	0.214800	0.653600
C1701	C170	0.476700	0.931900	0.533600
C1711	C171	0.452500	0.863700	0.533600
H921	H92	0.485000	0.955300	0.556700
C1721	C172	0.439100	0.824900	0.572100
O661	O66	0.394000	0.774000	0.571500
N141	N14	0.492000	0.829000	0.597100
H931	H93	0.527000	0.857000	0.591000
C1731	C173	0.486500	0.813300	0.641200
C1741	C174	0.550000	0.807500	0.660500
C1751	C175	0.550800	0.782800	0.697400
C1761	C176	0.488200	0.763900	0.715100
C1771	C177	0.424700	0.769800	0.695800
C1781	C178	0.423900	0.794500	0.658800
H941	H94	0.592600	0.820300	0.648500
H951	H95	0.488800	0.747100	0.740200
H961	H96	0.380700	0.798400	0.645700
C1791	C179	0.616600	0.776700	0.717400
O671	O67	0.677200	0.795000	0.704100
O681	O68	0.623500	0.752000	0.751200
C1801	C180	0.359900	0.750200	0.714100
O691	O69	0.297800	0.767000	0.702400
O701	O70	0.355000	0.713000	0.744500
Cu141	Cu14	0.762100	0.796800	0.722300
C1811	C181	0.835900	0.895700	0.687700
C1821	C182	0.830700	0.834800	0.668900
H971	H97	0.840100	0.945200	0.702900
H981	H98	0.826400	0.785200	0.653600
C1831	C183	0.068100	0.476700	0.533600
C1841	C184	0.136300	0.452500	0.533600
H991	H99	0.044700	0.485000	0.556700
C1851	C185	0.175100	0.439100	0.572100
O711	O71	0.226000	0.394000	0.571500
N151	N15	0.171000	0.492000	0.597100
H1001	H100	0.143000	0.527000	0.591000
C1861	C186	0.186700	0.486500	0.641200
C1871	C187	0.192500	0.550000	0.660500
C1881	C188	0.217200	0.550800	0.697400
C1891	C189	0.236100	0.488200	0.715100
C1901	C190	0.230200	0.424700	0.695800
C1911	C191	0.205500	0.423900	0.658800
H1011	H101	0.179700	0.592600	0.648500
H1021	H102	0.252900	0.488800	0.740200
H1031	H103	0.201600	0.380700	0.645700
C1921	C192	0.223300	0.616600	0.717400
O721	O72	0.205000	0.677200	0.704100
O731	O73	0.248000	0.623500	0.751200
C1931	C193	0.249800	0.359900	0.714100
O741	O74	0.233000	0.297800	0.702400
O751	O75	0.287000	0.355000	0.744500
Cu151	Cu15	0.203200	0.762100	0.722300
C1941	C194	0.104300	0.835900	0.687700
C1951	C195	0.165200	0.830700	0.668900
H1041	H104	0.054800	0.840100	0.702900
H1051	H105	0.214800	0.826400	0.653600
C1961	C196	0.931900	0.523300	0.533600
C1971	C197	0.863700	0.547500	0.533600
H1061	H106	0.955300	0.515000	0.556700
C1981	C198	0.824900	0.560900	0.572100
O761	O76	0.774000	0.606000	0.571500
N161	N16	0.829000	0.508000	0.597100
H1071	H107	0.857000	0.473000	0.591000
C1991	C199	0.813300	0.513500	0.641200
C2001	C200	0.807500	0.450000	0.660500
C2011	C201	0.782800	0.449200	0.697400
C2021	C202	0.763900	0.511800	0.715100
C2031	C203	0.769800	0.575300	0.695800
C2041	C204	0.794500	0.576100	0.658800
H1081	H108	0.820300	0.407400	0.648500
H1091	H109	0.747100	0.511200	0.740200
H1101	H110	0.798400	0.619300	0.645700
C2051	C205	0.776700	0.383400	0.717400
O771	O77	0.795000	0.322800	0.704100
O781	O78	0.752000	0.376500	0.751200
C2061	C206	0.750200	0.640100	0.714100
O791	O79	0.767000	0.702200	0.702400
O801	O80	0.713000	0.645000	0.744500
Cu161	Cu16	0.796800	0.237900	0.722300
C2071	C207	0.895700	0.164100	0.687700
C2081	C208	0.834800	0.169300	0.668900
H1111	H111	0.945200	0.159900	0.702900
H1121	H112	0.785200	0.173600	0.653600
C2091	C209	0.011200	0.465900	0.000000
C2101	C210	0.059500	0.329600	0.000000
H1131	H113	0.076000	0.282600	0.000000
C2111	C211	0.988800	0.534100	0.000000
C2121	C212	0.940500	0.670400	0.000000
H1141	H114	0.924000	0.717400	0.000000
C2131	C213	0.534100	0.011200	0.000000
C2141	C214	0.670400	0.059500	0.000000
H1151	H115	0.717400	0.076000	0.000000
C2151	C215	0.465900	0.988800	0.000000
C2161	C216	0.329600	0.940500	0.000000
H1161	H116	0.282600	0.924000	0.000000
C2171	C217	0.488800	0.965900	0.500000
C2181	C218	0.440500	0.829600	0.500000
H1171	H117	0.424000	0.782600	0.500000
C2191	C219	0.511200	0.034100	0.500000
C2201	C220	0.559500	0.170400	0.500000
H1181	H118	0.576000	0.217400	0.500000
C2211	C221	0.965900	0.511200	0.500000
C2221	C222	0.829600	0.559500	0.500000
H1191	H119	0.782600	0.576000	0.500000
C2231	C223	0.034100	0.488800	0.500000
C2241	C224	0.170400	0.440500	0.500000
H1201	H120	0.217400	0.424000	0.500000
