data_FAPXEC_freeONLY_PM
_symmetry_space_group_name_H-M	'P1'
_cell_length_a	15.160600
_cell_length_b	15.160600
_cell_length_c	12.047400
_cell_angle_alpha	90.000000
_cell_angle_beta	90.000000
_cell_angle_gamma	90.000000
_symmetry_Int_Tables_number 1

loop_
_symmetry_equiv_pos_as_xyz
'x,y,z'

loop_
_atom_site_label
_atom_site_type_symbol
_atom_site_fract_x
_atom_site_fract_y
_atom_site_fract_z
O11	O1	0.619000	0.381300	0.607800
O21	O2	0.596800	0.288300	0.747000
C11	C1	0.588200	0.363200	0.702400
C21	C2	0.540920	0.431240	0.762500
C31	C3	0.540920	0.431240	0.878800
H11	H1	0.571300	0.380200	0.921900
O31	O3	0.119000	0.881300	0.107800
O41	O4	0.096800	0.788300	0.247000
C41	C4	0.088200	0.863200	0.202400
C51	C5	0.040920	0.931240	0.262500
C61	C6	0.040920	0.931240	0.378800
H21	H2	0.071300	0.880200	0.421900
O51	O5	0.881000	0.118700	0.107800
O61	O6	0.903200	0.211700	0.247000
C71	C7	0.911800	0.136800	0.202400
C81	C8	0.959080	0.068760	0.262500
C91	C9	0.959080	0.068760	0.378800
H31	H3	0.928700	0.119800	0.421900
O71	O7	0.381000	0.618700	0.607800
O81	O8	0.403200	0.711700	0.747000
C101	C10	0.411800	0.636800	0.702400
C111	C11	0.459080	0.568760	0.762500
C121	C12	0.459080	0.568760	0.878800
H41	H4	0.428700	0.619800	0.921900
O91	O9	0.618700	0.119000	0.857800
O101	O10	0.711700	0.096800	0.997000
C131	C13	0.636800	0.088200	0.952400
C141	C14	0.568760	0.040920	0.012500
C151	C15	0.568760	0.040920	0.128800
H51	H5	0.619800	0.071300	0.171900
O111	O11	0.118700	0.619000	0.357800
O121	O12	0.211700	0.596800	0.497000
C161	C16	0.136800	0.588200	0.452400
C171	C17	0.068760	0.540920	0.512500
C181	C18	0.068760	0.540920	0.628800
H61	H6	0.119800	0.571300	0.671900
O131	O13	0.881300	0.381000	0.357800
O141	O14	0.788300	0.403200	0.497000
C191	C19	0.863200	0.411800	0.452400
C201	C20	0.931240	0.459080	0.512500
C211	C21	0.931240	0.459080	0.628800
H71	H7	0.880200	0.428700	0.671900
O151	O15	0.381300	0.881000	0.857800
O161	O16	0.288300	0.903200	0.997000
C221	C22	0.363200	0.911800	0.952400
C231	C23	0.431240	0.959080	0.012500
C241	C24	0.431240	0.959080	0.128800
H81	H8	0.380200	0.928700	0.171900
O171	O17	0.881000	0.381300	0.142200
O181	O18	0.903200	0.288300	0.003000
C251	C25	0.911800	0.363200	0.047600
C261	C26	0.959080	0.431240	0.987500
C271	C27	0.959080	0.431240	0.871200
H91	H9	0.928700	0.380200	0.828100
O191	O19	0.381000	0.881300	0.642200
O201	O20	0.403200	0.788300	0.503000
C281	C28	0.411800	0.863200	0.547600
C291	C29	0.459080	0.931240	0.487500
C301	C30	0.459080	0.931240	0.371200
H101	H10	0.428700	0.880200	0.328100
O211	O21	0.619000	0.118700	0.642200
O221	O22	0.596800	0.211700	0.503000
C311	C31	0.588200	0.136800	0.547600
C321	C32	0.540920	0.068760	0.487500
C331	C33	0.540920	0.068760	0.371200
H111	H11	0.571300	0.119800	0.328100
O231	O23	0.119000	0.618700	0.142200
O241	O24	0.096800	0.711700	0.003000
C341	C34	0.088200	0.636800	0.047600
C351	C35	0.040920	0.568760	0.987500
C361	C36	0.040920	0.568760	0.871200
H121	H12	0.071300	0.619800	0.828100
O251	O25	0.881300	0.119000	0.892200
O261	O26	0.788300	0.096800	0.753000
C371	C37	0.863200	0.088200	0.797600
C381	C38	0.931240	0.040920	0.737500
C391	C39	0.931240	0.040920	0.621200
H131	H13	0.880200	0.071300	0.578100
O271	O27	0.381300	0.619000	0.392200
O281	O28	0.288300	0.596800	0.253000
C401	C40	0.363200	0.588200	0.297600
C411	C41	0.431240	0.540920	0.237500
C421	C42	0.431240	0.540920	0.121200
H141	H14	0.380200	0.571300	0.078100
O291	O29	0.618700	0.381000	0.392200
O301	O30	0.711700	0.403200	0.253000
C431	C43	0.636800	0.411800	0.297600
C441	C44	0.568760	0.459080	0.237500
C451	C45	0.568760	0.459080	0.121200
H151	H15	0.619800	0.428700	0.078100
O311	O31	0.118700	0.881000	0.892200
O321	O32	0.211700	0.903200	0.753000
C461	C46	0.136800	0.911800	0.797600
C471	C47	0.068760	0.959080	0.737500
C481	C48	0.068760	0.959080	0.621200
H161	H16	0.119800	0.928700	0.578100
V11	V1	0.686710	0.313290	0.500000
V21	V2	0.186710	0.813290	0.000000
V31	V3	0.813290	0.186710	0.000000
V41	V4	0.313290	0.686710	0.500000
V51	V5	0.686710	0.186710	0.750000
V61	V6	0.186710	0.686710	0.250000
V71	V7	0.813290	0.313290	0.250000
V81	V8	0.313290	0.813290	0.750000
O331	O33	0.751400	0.250000	0.625000
H171	H17	0.822600	0.250000	0.625000
O341	O34	0.251400	0.750000	0.125000
H181	H18	0.322600	0.750000	0.125000
O351	O35	0.748600	0.250000	0.125000
H191	H19	0.677400	0.250000	0.125000
O361	O36	0.248600	0.750000	0.625000
H201	H20	0.177400	0.750000	0.625000
O371	O37	0.750000	0.251400	0.875000
H211	H21	0.750000	0.322600	0.875000
O381	O38	0.250000	0.751400	0.375000
H221	H22	0.250000	0.822600	0.375000
O391	O39	0.750000	0.248600	0.375000
H231	H23	0.750000	0.177400	0.375000
O401	O40	0.250000	0.748600	0.875000
H241	H24	0.250000	0.677400	0.875000
C491	C49	0.500000	0.500000	0.704400
C501	C50	0.500000	0.500000	0.936900
H251	H25	0.500000	0.500000	0.618100
C511	C51	0.000000	0.000000	0.204400
C521	C52	0.000000	0.000000	0.436900
H261	H26	0.000000	0.000000	0.118100
C531	C53	0.500000	0.000000	0.954400
C541	C54	0.500000	0.000000	0.186900
H271	H27	0.500000	0.000000	0.868100
C551	C55	0.000000	0.500000	0.454400
C561	C56	0.000000	0.500000	0.686900
H281	H28	0.000000	0.500000	0.368100
C571	C57	0.000000	0.500000	0.045600
C581	C58	0.000000	0.500000	0.813100
H291	H29	0.000000	0.500000	0.131900
C591	C59	0.500000	0.000000	0.545600
C601	C60	0.500000	0.000000	0.313100
H301	H30	0.500000	0.000000	0.631900
C611	C61	0.000000	0.000000	0.795600
C621	C62	0.000000	0.000000	0.563100
H311	H31	0.000000	0.000000	0.881900
C631	C63	0.500000	0.500000	0.295600
C641	C64	0.500000	0.500000	0.063100
H321	H32	0.500000	0.500000	0.381900
