data_FAPXOM_freeONLY_PM
_symmetry_space_group_name_H-M	'P1'
_cell_length_a	15.039300
_cell_length_b	15.039300
_cell_length_c	11.958700
_cell_angle_alpha	90.000000
_cell_angle_beta	90.000000
_cell_angle_gamma	90.000000
_symmetry_Int_Tables_number 1

loop_
_symmetry_equiv_pos_as_xyz
'x,y,z'

loop_
_atom_site_label
_atom_site_type_symbol
_atom_site_fract_x
_atom_site_fract_y
_atom_site_fract_z
C11	C1	0.751100	0.255100	0.562010
C21	C2	0.707900	0.321300	0.503300
C31	C3	0.709300	0.321200	0.387800
C41	C4	0.753900	0.254800	0.331000
C51	C5	0.797100	0.188500	0.389700
C61	C6	0.795700	0.188700	0.505200
H11	H1	0.677800	0.366000	0.541500
H21	H2	0.754800	0.254700	0.253200
H31	H3	0.824800	0.144000	0.544800
C71	C7	0.665400	0.388400	0.328200
O11	O1	0.650000	0.466200	0.371600
O21	O2	0.637900	0.377000	0.226100
C81	C8	0.842300	0.121100	0.332100
O31	O3	0.877000	0.134000	0.233800
O41	O4	0.852300	0.041800	0.373600
C91	C9	0.248900	0.744900	0.062010
C101	C10	0.292100	0.678700	0.003300
C111	C11	0.290700	0.678800	0.887800
C121	C12	0.246100	0.745200	0.831000
C131	C13	0.202900	0.811500	0.889700
C141	C14	0.204300	0.811300	0.005200
H41	H4	0.322200	0.634000	0.041500
H51	H5	0.245200	0.745300	0.753200
H61	H6	0.175200	0.856000	0.044800
C151	C15	0.334600	0.611600	0.828200
O51	O5	0.350000	0.533800	0.871600
O61	O6	0.362100	0.623000	0.726100
C161	C16	0.157700	0.878900	0.832100
O71	O7	0.123000	0.866000	0.733800
O81	O8	0.147700	0.958200	0.873600
C171	C17	0.744900	0.751100	0.812010
C181	C18	0.678700	0.707900	0.753300
C191	C19	0.678800	0.709300	0.637800
C201	C20	0.745200	0.753900	0.581000
C211	C21	0.811500	0.797100	0.639700
C221	C22	0.811300	0.795700	0.755200
H71	H7	0.634000	0.677800	0.791500
H81	H8	0.745300	0.754800	0.503200
H91	H9	0.856000	0.824800	0.794800
C231	C23	0.611600	0.665400	0.578200
O91	O9	0.533800	0.650000	0.621600
O101	O10	0.623000	0.637900	0.476100
C241	C24	0.878900	0.842300	0.582100
O111	O11	0.866000	0.877000	0.483800
O121	O12	0.958200	0.852300	0.623600
C251	C25	0.255100	0.248900	0.312010
C261	C26	0.321300	0.292100	0.253300
C271	C27	0.321200	0.290700	0.137800
C281	C28	0.254800	0.246100	0.081000
C291	C29	0.188500	0.202900	0.139700
C301	C30	0.188700	0.204300	0.255200
H101	H10	0.366000	0.322200	0.291500
H111	H11	0.254700	0.245200	0.003200
H121	H12	0.144000	0.175200	0.294800
C311	C31	0.388400	0.334600	0.078200
O131	O13	0.466200	0.350000	0.121600
O141	O14	0.377000	0.362100	0.976100
C321	C32	0.121100	0.157700	0.082100
O151	O15	0.134000	0.123000	0.983800
O161	O16	0.041800	0.147700	0.123600
C331	C33	0.248900	0.255100	0.437990
C341	C34	0.292100	0.321300	0.496700
C351	C35	0.290700	0.321200	0.612200
C361	C36	0.246100	0.254800	0.669000
C371	C37	0.202900	0.188500	0.610300
C381	C38	0.204300	0.188700	0.494800
H131	H13	0.322200	0.366000	0.458500
H141	H14	0.245200	0.254700	0.746800
H151	H15	0.175200	0.144000	0.455200
C391	C39	0.334600	0.388400	0.671800
O171	O17	0.350000	0.466200	0.628400
O181	O18	0.362100	0.377000	0.773900
C401	C40	0.157700	0.121100	0.667900
O191	O19	0.123000	0.134000	0.766200
O201	O20	0.147700	0.041800	0.626400
C411	C41	0.751100	0.744900	0.937990
C421	C42	0.707900	0.678700	0.996700
C431	C43	0.709300	0.678800	0.112200
C441	C44	0.753900	0.745200	0.169000
C451	C45	0.797100	0.811500	0.110300
C461	C46	0.795700	0.811300	0.994800
H161	H16	0.677800	0.634000	0.958500
H171	H17	0.754800	0.745300	0.246800
H181	H18	0.824800	0.856000	0.955200
C471	C47	0.665400	0.611600	0.171800
O211	O21	0.650000	0.533800	0.128400
O221	O22	0.637900	0.623000	0.273900
C481	C48	0.842300	0.878900	0.167900
O231	O23	0.877000	0.866000	0.266200
O241	O24	0.852300	0.958200	0.126400
C491	C49	0.255100	0.751100	0.187990
C501	C50	0.321300	0.707900	0.246700
C511	C51	0.321200	0.709300	0.362200
C521	C52	0.254800	0.753900	0.419000
C531	C53	0.188500	0.797100	0.360300
C541	C54	0.188700	0.795700	0.244800
H191	H19	0.366000	0.677800	0.208500
H201	H20	0.254700	0.754800	0.496800
H211	H21	0.144000	0.824800	0.205200
C551	C55	0.388400	0.665400	0.421800
O251	O25	0.466200	0.650000	0.378400
O261	O26	0.377000	0.637900	0.523900
C561	C56	0.121100	0.842300	0.417900
O271	O27	0.134000	0.877000	0.516200
O281	O28	0.041800	0.852300	0.376400
C571	C57	0.744900	0.248900	0.687990
C581	C58	0.678700	0.292100	0.746700
C591	C59	0.678800	0.290700	0.862200
C601	C60	0.745200	0.246100	0.919000
C611	C61	0.811500	0.202900	0.860300
C621	C62	0.811300	0.204300	0.744800
H221	H22	0.634000	0.322200	0.708500
H231	H23	0.745300	0.245200	0.996800
H241	H24	0.856000	0.175200	0.705200
C631	C63	0.611600	0.334600	0.921800
O291	O29	0.533800	0.350000	0.878400
O301	O30	0.623000	0.362100	0.023900
C641	C64	0.878900	0.157700	0.917900
O311	O31	0.866000	0.123000	0.016200
O321	O32	0.958200	0.147700	0.876400
V11	V1	0.937000	0.063000	0.125000
V21	V2	0.063000	0.937000	0.625000
V31	V3	0.937000	0.937000	0.375000
V41	V4	0.063000	0.063000	0.875000
O331	O33	0.981800	0.000000	0.250000
O341	O34	0.018200	0.000000	0.750000
O351	O35	0.000000	0.981800	0.500000
O361	O36	0.000000	0.018200	0.000000
V51	V5	0.557000	0.557000	0.375000
V61	V6	0.443000	0.443000	0.875000
V71	V7	0.443000	0.557000	0.625000
V81	V8	0.557000	0.443000	0.125000
O371	O37	0.490100	0.500000	0.250000
O381	O38	0.509900	0.500000	0.750000
O391	O39	0.500000	0.490100	0.500000
O401	O40	0.500000	0.509900	0.000000
