data_FASFUD_freeONLY_PM
_symmetry_space_group_name_H-M	'P1'
_cell_length_a	15.377000
_cell_length_b	15.377000
_cell_length_c	9.915000
_cell_angle_alpha	90.000000
_cell_angle_beta	90.000000
_cell_angle_gamma	90.000000
_symmetry_Int_Tables_number 1

loop_
_symmetry_equiv_pos_as_xyz
'x,y,z'

loop_
_atom_site_label
_atom_site_type_symbol
_atom_site_fract_x
_atom_site_fract_y
_atom_site_fract_z
O11	O1	0.031060	0.871130	0.120890
C11	C1	0.886460	0.744060	0.879420
H11	H1	0.910900	0.762400	0.798500
C21	C2	0.812000	0.693460	0.879500
H21	H2	0.787400	0.676300	0.798000
O21	O2	0.968940	0.128870	0.120890
C31	C3	0.113540	0.255940	0.879420
H31	H3	0.089100	0.237600	0.798500
C41	C4	0.188000	0.306540	0.879500
H41	H4	0.212600	0.323700	0.798000
O31	O3	0.128870	0.031060	0.120890
C51	C5	0.255940	0.886460	0.879420
H51	H5	0.237600	0.910900	0.798500
C61	C6	0.306540	0.812000	0.879500
H61	H6	0.323700	0.787400	0.798000
O41	O4	0.871130	0.968940	0.120890
C71	C7	0.744060	0.113540	0.879420
H71	H7	0.762400	0.089100	0.798500
C81	C8	0.693460	0.188000	0.879500
H81	H8	0.676300	0.212600	0.798000
O51	O5	0.968940	0.871130	0.379110
C91	C9	0.113540	0.744060	0.620580
H91	H9	0.089100	0.762400	0.701500
C101	C10	0.188000	0.693460	0.620500
H101	H10	0.212600	0.676300	0.702000
O61	O6	0.031060	0.128870	0.379110
C111	C11	0.886460	0.255940	0.620580
H111	H11	0.910900	0.237600	0.701500
C121	C12	0.812000	0.306540	0.620500
H121	H12	0.787400	0.323700	0.702000
O71	O7	0.871130	0.031060	0.379110
C131	C13	0.744060	0.886460	0.620580
H131	H13	0.762400	0.910900	0.701500
C141	C14	0.693460	0.812000	0.620500
H141	H14	0.676300	0.787400	0.702000
O81	O8	0.128870	0.968940	0.379110
C151	C15	0.255940	0.113540	0.620580
H151	H15	0.237600	0.089100	0.701500
C161	C16	0.306540	0.188000	0.620500
H161	H16	0.323700	0.212600	0.702000
O91	O9	0.968940	0.128870	0.879110
C171	C17	0.113540	0.255940	0.120580
H171	H17	0.089100	0.237600	0.201500
C181	C18	0.188000	0.306540	0.120500
H181	H18	0.212600	0.323700	0.202000
O101	O10	0.031060	0.871130	0.879110
C191	C19	0.886460	0.744060	0.120580
H191	H19	0.910900	0.762400	0.201500
C201	C20	0.812000	0.693460	0.120500
H201	H20	0.787400	0.676300	0.202000
O111	O11	0.871130	0.968940	0.879110
C211	C21	0.744060	0.113540	0.120580
H211	H21	0.762400	0.089100	0.201500
C221	C22	0.693460	0.188000	0.120500
H221	H22	0.676300	0.212600	0.202000
O121	O12	0.128870	0.031060	0.879110
C231	C23	0.255940	0.886460	0.120580
H231	H23	0.237600	0.910900	0.201500
C241	C24	0.306540	0.812000	0.120500
H241	H24	0.323700	0.787400	0.202000
O131	O13	0.031060	0.128870	0.620890
C251	C25	0.886460	0.255940	0.379420
H251	H25	0.910900	0.237600	0.298500
C261	C26	0.812000	0.306540	0.379500
H261	H26	0.787400	0.323700	0.298000
O141	O14	0.968940	0.871130	0.620890
C271	C27	0.113540	0.744060	0.379420
H271	H27	0.089100	0.762400	0.298500
C281	C28	0.188000	0.693460	0.379500
H281	H28	0.212600	0.676300	0.298000
O151	O15	0.128870	0.968940	0.620890
C291	C29	0.255940	0.113540	0.379420
H291	H29	0.237600	0.089100	0.298500
C301	C30	0.306540	0.188000	0.379500
H301	H30	0.323700	0.212600	0.298000
O161	O16	0.871130	0.031060	0.620890
C311	C31	0.744060	0.886460	0.379420
H311	H31	0.762400	0.910900	0.298500
C321	C32	0.693460	0.812000	0.379500
H321	H32	0.676300	0.787400	0.298000
Sm11	Sm1	0.000000	0.000000	0.250000
Sm21	Sm2	0.000000	0.000000	0.750000
S11	S1	0.026350	0.818980	0.000000
N11	N1	0.530320	0.628970	0.000000
O171	O17	0.089360	0.750320	0.000000
C331	C33	0.923880	0.766850	0.000000
C341	C34	0.773570	0.668020	0.000000
C351	C35	0.689390	0.617600	0.000000
C361	C36	0.613720	0.665970	0.000000
C371	C37	0.605280	0.756940	0.000000
H331	H33	0.651100	0.796400	0.000000
C381	C38	0.521930	0.777650	0.000000
H341	H34	0.499000	0.833600	0.000000
C391	C39	0.472650	0.697390	0.000000
S21	S2	0.973650	0.181020	0.000000
N21	N2	0.469680	0.371030	0.000000
O181	O18	0.910640	0.249680	0.000000
C401	C40	0.076120	0.233150	0.000000
C411	C41	0.226430	0.331980	0.000000
C421	C42	0.310610	0.382400	0.000000
C431	C43	0.386280	0.334030	0.000000
C441	C44	0.394720	0.243060	0.000000
H351	H35	0.348900	0.203600	0.000000
C451	C45	0.478070	0.222350	0.000000
H361	H36	0.501000	0.166400	0.000000
C461	C46	0.527350	0.302610	0.000000
S31	S3	0.181020	0.026350	0.000000
N31	N3	0.371030	0.530320	0.000000
O191	O19	0.249680	0.089360	0.000000
C471	C47	0.233150	0.923880	0.000000
C481	C48	0.331980	0.773570	0.000000
C491	C49	0.382400	0.689390	0.000000
C501	C50	0.334030	0.613720	0.000000
C511	C51	0.243060	0.605280	0.000000
H371	H37	0.203600	0.651100	0.000000
C521	C52	0.222350	0.521930	0.000000
H381	H38	0.166400	0.499000	0.000000
C531	C53	0.302610	0.472650	0.000000
S41	S4	0.818980	0.973650	0.000000
N41	N4	0.628970	0.469680	0.000000
O201	O20	0.750320	0.910640	0.000000
C541	C54	0.766850	0.076120	0.000000
C551	C55	0.668020	0.226430	0.000000
C561	C56	0.617600	0.310610	0.000000
C571	C57	0.665970	0.386280	0.000000
C581	C58	0.756940	0.394720	0.000000
H391	H39	0.796400	0.348900	0.000000
C591	C59	0.777650	0.478070	0.000000
H401	H40	0.833600	0.501000	0.000000
C601	C60	0.697390	0.527350	0.000000
S51	S5	0.973650	0.818980	0.500000
N51	N5	0.469680	0.628970	0.500000
O211	O21	0.910640	0.750320	0.500000
C611	C61	0.076120	0.766850	0.500000
C621	C62	0.226430	0.668020	0.500000
C631	C63	0.310610	0.617600	0.500000
C641	C64	0.386280	0.665970	0.500000
C651	C65	0.394720	0.756940	0.500000
H411	H41	0.348900	0.796400	0.500000
C661	C66	0.478070	0.777650	0.500000
H421	H42	0.501000	0.833600	0.500000
C671	C67	0.527350	0.697390	0.500000
S61	S6	0.026350	0.181020	0.500000
N61	N6	0.530320	0.371030	0.500000
O221	O22	0.089360	0.249680	0.500000
C681	C68	0.923880	0.233150	0.500000
C691	C69	0.773570	0.331980	0.500000
C701	C70	0.689390	0.382400	0.500000
C711	C71	0.613720	0.334030	0.500000
C721	C72	0.605280	0.243060	0.500000
H431	H43	0.651100	0.203600	0.500000
C731	C73	0.521930	0.222350	0.500000
H441	H44	0.499000	0.166400	0.500000
C741	C74	0.472650	0.302610	0.500000
S71	S7	0.818980	0.026350	0.500000
N71	N7	0.628970	0.530320	0.500000
O231	O23	0.750320	0.089360	0.500000
C751	C75	0.766850	0.923880	0.500000
C761	C76	0.668020	0.773570	0.500000
C771	C77	0.617600	0.689390	0.500000
C781	C78	0.665970	0.613720	0.500000
C791	C79	0.756940	0.605280	0.500000
H451	H45	0.796400	0.651100	0.500000
C801	C80	0.777650	0.521930	0.500000
H461	H46	0.833600	0.499000	0.500000
C811	C81	0.697390	0.472650	0.500000
S81	S8	0.181020	0.973650	0.500000
N81	N8	0.371030	0.469680	0.500000
O241	O24	0.249680	0.910640	0.500000
C821	C82	0.233150	0.076120	0.500000
C831	C83	0.331980	0.226430	0.500000
C841	C84	0.382400	0.310610	0.500000
C851	C85	0.334030	0.386280	0.500000
C861	C86	0.243060	0.394720	0.500000
H471	H47	0.203600	0.348900	0.500000
C871	C87	0.222350	0.478070	0.500000
H481	H48	0.166400	0.501000	0.500000
C881	C88	0.302610	0.527350	0.500000
