data_FATKAO_freeONLY_PM
_symmetry_space_group_name_H-M	'P1'
_cell_length_a	10.190000
_cell_length_b	11.232000
_cell_length_c	22.140000
_cell_angle_alpha	90.000000
_cell_angle_beta	96.863000
_cell_angle_gamma	90.000000
_symmetry_Int_Tables_number 1

loop_
_symmetry_equiv_pos_as_xyz
'x,y,z'

loop_
_atom_site_label
_atom_site_type_symbol
_atom_site_fract_x
_atom_site_fract_y
_atom_site_fract_z
Gd11	Gd1	0.388950	0.686170	0.274530
Gd21	Gd2	0.741120	0.411730	0.436090
Gd31	Gd3	0.111050	0.186170	0.225470
Gd41	Gd4	0.758880	0.911730	0.063910
Gd51	Gd5	0.611050	0.313830	0.725470
Gd61	Gd6	0.258880	0.588270	0.563910
Gd71	Gd7	0.888950	0.813830	0.774530
Gd81	Gd8	0.241120	0.088270	0.936090
H11	H1	0.750100	0.389700	0.074300
H21	H2	0.903100	0.369200	0.087200
H31	H3	0.805900	0.261200	0.087900
H41	H4	0.040200	0.668700	0.203800
H51	H5	0.930100	0.580700	0.219700
H61	H6	0.910900	0.718400	0.226400
H71	H7	0.662000	0.470500	0.164800
H81	H8	0.882000	0.618000	0.338600
H91	H9	0.749900	0.889700	0.425700
H101	H10	0.596900	0.869200	0.412800
H111	H11	0.694100	0.761200	0.412100
H121	H12	0.459800	0.168700	0.296200
H131	H13	0.569900	0.080700	0.280300
H141	H14	0.589100	0.218400	0.273600
H151	H15	0.838000	0.970500	0.335200
H161	H16	0.618000	0.118000	0.161400
H171	H17	0.249900	0.610300	0.925700
H181	H18	0.096900	0.630800	0.912800
H191	H19	0.194100	0.738800	0.912100
H201	H20	0.959800	0.331300	0.796200
H211	H21	0.069900	0.419300	0.780300
H221	H22	0.089100	0.281600	0.773600
H231	H23	0.338000	0.529500	0.835200
H241	H24	0.118000	0.382000	0.661400
H251	H25	0.250100	0.110300	0.574300
H261	H26	0.403100	0.130800	0.587200
H271	H27	0.305900	0.238800	0.587900
H281	H28	0.540200	0.831300	0.703800
H291	H29	0.430100	0.919300	0.719700
H301	H30	0.410900	0.781600	0.726400
H311	H31	0.162000	0.029500	0.664800
H321	H32	0.382000	0.882000	0.838600
C11	C1	0.921100	0.311300	0.320600
C21	C2	0.849400	0.354000	0.262500
C31	C3	0.742700	0.427100	0.248500
C41	C4	0.659400	0.504800	0.283700
C51	C5	0.812100	0.363300	0.164400
C61	C6	0.818400	0.344100	0.097400
C71	C7	0.307800	0.652800	0.412400
C81	C8	0.174300	0.649600	0.376200
C91	C9	0.050600	0.628700	0.394300
C101	C10	0.994400	0.614900	0.452600
C111	C11	0.037500	0.648700	0.293900
C121	C12	0.974100	0.654600	0.230400
C131	C13	0.295900	0.407600	0.278500
C141	C14	0.236700	0.453300	0.215000
C151	C15	0.578900	0.811300	0.179400
C161	C16	0.650600	0.854000	0.237500
C171	C17	0.757300	0.927100	0.251500
C181	C18	0.840600	0.004800	0.216300
C191	C19	0.687900	0.863300	0.335600
C201	C20	0.681600	0.844100	0.402600
C211	C21	0.192200	0.152800	0.087600
C221	C22	0.325700	0.149600	0.123800
C231	C23	0.449400	0.128700	0.105700
C241	C24	0.505600	0.114900	0.047400
C251	C25	0.462500	0.148700	0.206100
C261	C26	0.525900	0.154600	0.269600
C271	C27	0.204100	0.907600	0.221500
C281	C28	0.263300	0.953300	0.285000
C291	C29	0.078900	0.688700	0.679400
C301	C30	0.150600	0.646000	0.737500
C311	C31	0.257300	0.572900	0.751500
C321	C32	0.340600	0.495200	0.716300
C331	C33	0.187900	0.636700	0.835600
C341	C34	0.181600	0.655900	0.902600
C351	C35	0.692200	0.347200	0.587600
C361	C36	0.825700	0.350400	0.623800
C371	C37	0.949400	0.371300	0.605700
C381	C38	0.005600	0.385100	0.547400
C391	C39	0.962500	0.351300	0.706100
C401	C40	0.025900	0.345400	0.769600
C411	C41	0.704100	0.592400	0.721500
C421	C42	0.763300	0.546700	0.785000
C431	C43	0.421100	0.188700	0.820600
C441	C44	0.349400	0.146000	0.762500
C451	C45	0.242700	0.072900	0.748500
C461	C46	0.159400	0.995200	0.783700
C471	C47	0.312100	0.136700	0.664400
C481	C48	0.318400	0.155900	0.597400
C491	C49	0.807800	0.847200	0.912400
C501	C50	0.674300	0.850400	0.876200
C511	C51	0.550600	0.871300	0.894300
C521	C52	0.494400	0.885100	0.952600
C531	C53	0.537500	0.851300	0.793900
C541	C54	0.474100	0.845400	0.730400
C551	C55	0.795900	0.092400	0.778500
C561	C56	0.736700	0.046700	0.715000
N11	N1	0.894800	0.312400	0.208400
N21	N2	0.722900	0.430700	0.186200
N31	N3	0.164600	0.659900	0.314000
N41	N4	0.966000	0.628700	0.341500
N51	N5	0.605200	0.812400	0.291600
N61	N6	0.777100	0.930700	0.313800
N71	N7	0.335400	0.159900	0.186000
N81	N8	0.534000	0.128700	0.158500
N91	N9	0.105200	0.687600	0.791600
N101	N10	0.277100	0.569300	0.813800
N111	N11	0.835400	0.340100	0.686000
N121	N12	0.034000	0.371300	0.658500
N131	N13	0.394800	0.187600	0.708400
N141	N14	0.222900	0.069300	0.686200
N151	N15	0.664600	0.840100	0.814000
N161	N16	0.466000	0.871300	0.841500
O11	O1	0.878900	0.336300	0.369000
O21	O2	0.024900	0.253000	0.317800
O31	O3	0.685800	0.513400	0.341200
O41	O4	0.402900	0.676600	0.383800
O51	O5	0.570900	0.560500	0.252600
O61	O6	0.320500	0.629900	0.468100
O71	O7	0.060000	0.635400	0.501700
O81	O8	0.872200	0.585200	0.446800
O91	O9	0.366300	0.478600	0.311800
O101	O10	0.268600	0.303500	0.291400
O111	O11	0.272700	0.556500	0.200500
O121	O12	0.159300	0.385600	0.184000
O131	O13	0.731600	0.195500	0.441200
O141	O14	0.517400	0.353900	0.400800
O151	O15	0.605700	0.576400	0.465600
O161	O16	0.621100	0.836300	0.131000
O171	O17	0.475100	0.753000	0.182200
O181	O18	0.814200	0.013400	0.158800
O191	O19	0.097100	0.176600	0.116200
O201	O20	0.929100	0.060500	0.247400
O211	O21	0.179500	0.129900	0.031900
O221	O22	0.440000	0.135400	0.998300
O231	O23	0.627800	0.085200	0.053200
O241	O24	0.133700	0.978600	0.188200
O251	O25	0.231400	0.803500	0.208600
O261	O26	0.227300	0.056500	0.299500
O271	O27	0.340700	0.885600	0.316000
O281	O28	0.768400	0.695500	0.058800
O291	O29	0.982600	0.853900	0.099200
O301	O30	0.894300	0.076400	0.034400
O311	O31	0.121100	0.663700	0.631000
O321	O32	0.975100	0.747000	0.682200
O331	O33	0.314200	0.486600	0.658800
O341	O34	0.597100	0.323400	0.616200
O351	O35	0.429100	0.439500	0.747400
O361	O36	0.679500	0.370100	0.531900
O371	O37	0.940000	0.364600	0.498300
O381	O38	0.127800	0.414800	0.553200
O391	O39	0.633700	0.521400	0.688200
O401	O40	0.731400	0.696500	0.708600
O411	O41	0.727300	0.443500	0.799500
O421	O42	0.840700	0.614400	0.816000
O431	O43	0.268400	0.804500	0.558800
O441	O44	0.482600	0.646100	0.599200
O451	O45	0.394300	0.423600	0.534400
O461	O46	0.378900	0.163700	0.869000
O471	O47	0.524900	0.247000	0.817800
O481	O48	0.185800	0.986600	0.841200
O491	O49	0.902900	0.823400	0.883800
O501	O50	0.070900	0.939500	0.752600
O511	O51	0.820500	0.870100	0.968100
O521	O52	0.560000	0.864600	0.001700
O531	O53	0.372200	0.914800	0.946800
O541	O54	0.866300	0.021400	0.811800
O551	O55	0.768600	0.196500	0.791400
O561	O56	0.772700	0.943500	0.700500
O571	O57	0.659300	0.114400	0.684000
O581	O58	0.231600	0.304500	0.941200
O591	O59	0.017400	0.146100	0.900800
O601	O60	0.105700	0.923600	0.965600
