data_FATLUJ_freeONLY_PM
_symmetry_space_group_name_H-M	'P1'
_cell_length_a	11.575000
_cell_length_b	12.634000
_cell_length_c	14.335000
_cell_angle_alpha	101.369000
_cell_angle_beta	102.935000
_cell_angle_gamma	96.457000
_symmetry_Int_Tables_number 1

loop_
_symmetry_equiv_pos_as_xyz
'x,y,z'

loop_
_atom_site_label
_atom_site_type_symbol
_atom_site_fract_x
_atom_site_fract_y
_atom_site_fract_z
Cu11	Cu1	0.900350	0.937020	0.285580
Cu21	Cu2	0.106150	0.950020	0.483560
Cu31	Cu3	0.099650	0.062980	0.714420
Cu41	Cu4	0.893850	0.049980	0.516440
H11	H1	0.561600	0.695000	0.469300
H21	H2	0.572300	0.591200	0.713800
H31	H3	0.256100	0.565600	0.523200
H41	H4	0.180600	0.682900	0.234100
H51	H5	0.067800	0.615800	0.251000
H61	H6	0.947400	0.713300	0.656200
H71	H7	0.946700	0.711900	0.546400
H81	H8	0.407700	0.339200	0.821000
H91	H9	0.301500	0.405700	0.820600
H101	H10	0.336400	0.106200	0.529800
H111	H11	0.527600	0.121200	0.607100
H121	H12	0.448600	0.844200	0.694000
H131	H13	0.254800	0.832200	0.608100
H141	H14	0.680400	0.946600	0.662000
H151	H15	0.686100	0.070900	0.708800
H161	H16	0.630500	0.902300	0.799500
H171	H17	0.641900	0.027400	0.846500
H181	H18	0.843500	0.921100	0.810700
H191	H19	0.858300	0.049300	0.843800
H201	H20	0.844500	0.131300	0.015700
H211	H21	0.862700	0.110000	0.172200
H221	H22	0.865300	0.800800	0.089700
H231	H23	0.832800	0.811200	0.930300
H241	H24	0.178200	0.603400	0.395500
H251	H25	0.746900	0.683900	0.508000
H261	H26	0.468000	0.431100	0.718400
H271	H27	0.438400	0.305000	0.530700
H281	H28	0.427700	0.408800	0.286200
H291	H29	0.743900	0.434400	0.476800
H301	H30	0.819400	0.317100	0.765900
H311	H31	0.932200	0.384200	0.749000
H321	H32	0.052600	0.286700	0.343800
H331	H33	0.053300	0.288100	0.453600
H341	H34	0.592300	0.660800	0.179000
H351	H35	0.698500	0.594300	0.179400
H361	H36	0.663600	0.893800	0.470200
H371	H37	0.472400	0.878800	0.392900
H381	H38	0.551400	0.155800	0.306000
H391	H39	0.745200	0.167800	0.391900
H401	H40	0.319600	0.053400	0.338000
H411	H41	0.313900	0.929100	0.291200
H421	H42	0.369500	0.097700	0.200500
H431	H43	0.358100	0.972600	0.153500
H441	H44	0.156500	0.078900	0.189300
H451	H45	0.141700	0.950700	0.156200
H461	H46	0.155500	0.868700	0.984300
H471	H47	0.137300	0.890000	0.827800
H481	H48	0.134700	0.199200	0.910300
H491	H49	0.167200	0.188800	0.069700
H501	H50	0.821800	0.396600	0.604500
H511	H51	0.253100	0.316100	0.492000
H521	H52	0.532000	0.568900	0.281600
C11	C1	0.397000	0.630500	0.478200
C21	C2	0.522300	0.663200	0.509300
C31	C3	0.587500	0.649700	0.596400
C41	C4	0.528100	0.600900	0.654300
C51	C5	0.407600	0.566800	0.627700
C61	C6	0.339400	0.584400	0.540200
C71	C7	0.331100	0.648700	0.380700
C81	C8	0.137100	0.672400	0.282900
C91	C9	0.094700	0.776800	0.319500
C101	C10	0.717800	0.683700	0.631600
C111	C11	0.911000	0.739900	0.599300
C121	C12	0.937100	0.863400	0.624400
C131	C13	0.337900	0.507800	0.684500
C141	C14	0.343400	0.363600	0.778700
C151	C15	0.256600	0.264200	0.713400
C161	C16	0.360200	0.053000	0.563100
C171	C17	0.473200	0.062000	0.609100
C181	C18	0.513300	0.987600	0.659400
C191	C19	0.426400	0.897200	0.660000
C201	C20	0.311100	0.891600	0.609600
C211	C21	0.646900	0.997400	0.704500
C221	C22	0.672100	0.974600	0.803000
C231	C23	0.814600	0.980900	0.847700
C241	C24	0.833300	0.973000	0.952600
C251	C25	0.845800	0.062000	0.028400
C261	C26	0.860300	0.049200	0.122800
C271	C27	0.860000	0.868800	0.074800
C281	C28	0.840800	0.874500	0.978700
C291	C29	0.603000	0.369500	0.521800
C301	C30	0.477700	0.336800	0.490700
C311	C31	0.412500	0.350300	0.403600
C321	C32	0.471900	0.399100	0.345700
C331	C33	0.592400	0.433200	0.372300
C341	C34	0.660600	0.415600	0.459800
C351	C35	0.668900	0.351300	0.619300
C361	C36	0.862900	0.327600	0.717100
C371	C37	0.905300	0.223200	0.680500
C381	C38	0.282200	0.316300	0.368400
C391	C39	0.089000	0.260100	0.400700
C401	C40	0.062900	0.136600	0.375600
C411	C41	0.662100	0.492200	0.315500
C421	C42	0.656600	0.636400	0.221300
C431	C43	0.743400	0.735800	0.286600
C441	C44	0.639800	0.947000	0.436900
C451	C45	0.526800	0.938000	0.390900
C461	C46	0.486700	0.012400	0.340600
C471	C47	0.573600	0.102800	0.340000
C481	C48	0.688900	0.108400	0.390400
C491	C49	0.353100	0.002600	0.295500
C501	C50	0.327900	0.025400	0.197000
C511	C51	0.185400	0.019100	0.152300
C521	C52	0.166700	0.027000	0.047400
C531	C53	0.154200	0.938000	0.971600
C541	C54	0.139700	0.950800	0.877200
C551	C55	0.140000	0.131200	0.925200
C561	C56	0.159200	0.125500	0.021300
N11	N1	0.213100	0.636400	0.359600
N21	N2	0.782400	0.698900	0.569700
N31	N3	0.396400	0.435700	0.724500
N41	N4	0.275100	0.966900	0.562500
N51	N5	0.871200	0.953300	0.147200
N61	N6	0.786900	0.363600	0.640400
N71	N7	0.217600	0.301100	0.430300
N81	N8	0.603600	0.564300	0.275500
N91	N9	0.724900	0.033100	0.437500
N101	N10	0.128800	0.046700	0.852800
O11	O1	0.389400	0.675000	0.323400
O21	O2	0.125000	0.812200	0.409000
O31	O3	0.033500	0.816500	0.256670
O41	O4	0.768200	0.696900	0.722380
O51	O5	0.857400	0.919000	0.603060
O61	O6	0.048500	0.903200	0.664700
O71	O7	0.239500	0.521900	0.693150
O81	O8	0.219000	0.258600	0.624770
O91	O9	0.230800	0.192600	0.758200
O101	O10	0.931700	0.927700	0.423180
O111	O11	0.610600	0.325000	0.676600
O121	O12	0.875000	0.187800	0.591000
O131	O13	0.966500	0.183500	0.743330
O141	O14	0.231800	0.303100	0.277620
O151	O15	0.142600	0.081000	0.396940
O161	O16	0.951500	0.096800	0.335300
O171	O17	0.760500	0.478100	0.306850
O181	O18	0.781000	0.741400	0.375230
O191	O19	0.769200	0.807400	0.241800
O201	O20	0.068300	0.072300	0.576820
