data_FAZRAA_charged_PM
_symmetry_space_group_name_H-M	'P1'
_cell_length_a	8.415000
_cell_length_b	12.503000
_cell_length_c	12.682000
_cell_angle_alpha	62.908000
_cell_angle_beta	87.261000
_cell_angle_gamma	71.416000
_symmetry_Int_Tables_number 1

loop_
_symmetry_equiv_pos_as_xyz
'x,y,z'

loop_
_atom_site_label
_atom_site_type_symbol
_atom_site_fract_x
_atom_site_fract_y
_atom_site_fract_z
Ag11	Ag1	0.756640	0.485940	0.485610
Ag21	Ag2	0.243360	0.514060	0.514390
H11	H1	0.494500	0.813000	0.446800
H21	H2	0.472900	0.771600	0.581900
H31	H3	0.508200	0.671700	0.533900
H41	H4	0.021300	0.866600	0.689400
H51	H5	0.209900	0.861100	0.681100
H61	H6	0.152800	0.951000	0.468100
H71	H7	0.783100	0.706500	0.224000
H81	H8	0.693700	0.751800	0.098000
H91	H9	0.764700	0.606100	0.188100
H101	H10	0.872600	0.020600	0.175700
H111	H11	0.061400	0.012600	0.160900
H121	H12	0.891900	0.931500	0.039200
H131	H13	0.505500	0.187000	0.553200
H141	H14	0.527100	0.228400	0.418100
H151	H15	0.491800	0.328300	0.466100
H161	H16	0.978700	0.133400	0.310600
H171	H17	0.790100	0.138900	0.318900
H181	H18	0.847200	0.049000	0.531900
H191	H19	0.216900	0.293500	0.776000
H201	H20	0.306300	0.248200	0.902000
H211	H21	0.235300	0.393900	0.811900
H221	H22	0.127400	0.979400	0.824300
H231	H23	0.938600	0.987400	0.839100
H241	H24	0.108100	0.068500	0.960800
C11	C1	0.531600	0.744900	0.526600
C21	C2	0.715200	0.711900	0.553100
C31	C3	0.991300	0.692700	0.608500
C41	C4	0.117200	0.853400	0.645700
C51	C5	0.072700	0.953600	0.520800
C61	C6	0.711700	0.689900	0.180600
C71	C7	0.545000	0.698100	0.230400
C81	C8	0.261700	0.753000	0.273100
C91	C9	0.980200	0.971400	0.163300
C101	C10	0.962000	0.972500	0.046900
C111	C11	0.468400	0.255100	0.473400
C121	C12	0.284800	0.288100	0.446900
C131	C13	0.008700	0.307300	0.391500
C141	C14	0.882800	0.146600	0.354300
C151	C15	0.927300	0.046400	0.479200
C161	C16	0.288300	0.310100	0.819400
C171	C17	0.455000	0.301900	0.769600
C181	C18	0.738300	0.247000	0.726900
C191	C19	0.019800	0.028600	0.836700
C201	C20	0.038000	0.027500	0.953100
S11	S1	0.793720	0.789220	0.608340
S21	S2	0.178020	0.692080	0.661640
S31	S3	0.363390	0.822150	0.153260
S41	S4	0.048530	0.811730	0.288230
S51	S5	0.206280	0.210780	0.391660
S61	S6	0.821980	0.307920	0.338360
S71	S7	0.636610	0.177850	0.846740
S81	S8	0.951470	0.188270	0.711770
N11	N1	0.830900	0.623500	0.537600
N21	N2	0.991900	0.613300	0.569200
N31	N3	0.524300	0.615000	0.333200
N41	N4	0.358600	0.646000	0.358300
N51	N5	0.169100	0.376500	0.462400
N61	N6	0.008100	0.386700	0.430800
N71	N7	0.475700	0.385000	0.666800
N81	N8	0.641400	0.354000	0.641700
Cl11	Cl1	0.522300	0.934900	0.783210
O11	O1	0.673500	0.962700	0.747700
O21	O2	0.465600	0.899100	0.709600
O31	O3	0.560000	0.830000	0.899000
O41	O4	0.399400	0.043800	0.778600
Cl21	Cl2	0.477700	0.065100	0.216790
O51	O5	0.326500	0.037300	0.252300
O61	O6	0.534400	0.100900	0.290400
O71	O7	0.440000	0.170000	0.101000
O81	O8	0.600600	0.956200	0.221400
