data_FECCIZ_freeONLY_PM
_symmetry_space_group_name_H-M	'P1'
_cell_length_a	10.332500
_cell_length_b	14.640500
_cell_length_c	9.511200
_cell_angle_alpha	90.000000
_cell_angle_beta	90.000000
_cell_angle_gamma	90.000000
_symmetry_Int_Tables_number 1

loop_
_symmetry_equiv_pos_as_xyz
'x,y,z'

loop_
_atom_site_label
_atom_site_type_symbol
_atom_site_fract_x
_atom_site_fract_y
_atom_site_fract_z
P11	P1	0.339000	0.770000	0.157000
P21	P2	0.146000	0.612000	0.632000
P31	P3	0.343000	0.415000	0.369000
Al11	Al1	0.354000	0.608000	0.387000
Al21	Al2	0.366000	0.896000	0.383000
Al31	Al3	0.651000	0.751000	0.139000
O11	O1	0.338000	0.696000	0.272000
O21	O2	0.311000	0.864000	0.218000
O31	O3	0.482000	0.758000	0.086000
O41	O4	0.249000	0.764000	0.018000
O51	O5	0.182000	0.637000	0.790000
O61	O6	0.130000	0.512000	0.619000
O71	O7	0.015000	0.668000	0.588000
O81	O8	0.256000	0.643000	0.534000
O91	O9	0.300000	0.506000	0.317000
O101	O10	0.337000	0.349000	0.242000
O111	O11	0.482000	0.412000	0.425000
O121	O12	0.254000	0.381000	0.488000
P41	P4	0.661000	0.230000	0.157000
P51	P5	0.854000	0.388000	0.632000
P61	P6	0.657000	0.585000	0.369000
Al41	Al4	0.646000	0.392000	0.387000
Al51	Al5	0.634000	0.104000	0.383000
Al61	Al6	0.349000	0.249000	0.139000
O131	O13	0.662000	0.304000	0.272000
O141	O14	0.689000	0.136000	0.218000
O151	O15	0.518000	0.242000	0.086000
O161	O16	0.751000	0.236000	0.018000
O171	O17	0.818000	0.363000	0.790000
O181	O18	0.870000	0.488000	0.619000
O191	O19	0.985000	0.332000	0.588000
O201	O20	0.744000	0.357000	0.534000
O211	O21	0.700000	0.494000	0.317000
O221	O22	0.663000	0.651000	0.242000
O231	O23	0.518000	0.588000	0.425000
O241	O24	0.746000	0.619000	0.488000
P71	P7	0.161000	0.270000	0.843000
P81	P8	0.354000	0.112000	0.368000
P91	P9	0.157000	0.915000	0.631000
Al71	Al7	0.146000	0.108000	0.613000
Al81	Al8	0.134000	0.396000	0.617000
Al91	Al9	0.849000	0.251000	0.861000
O251	O25	0.162000	0.196000	0.728000
O261	O26	0.189000	0.364000	0.782000
O271	O27	0.018000	0.258000	0.914000
O281	O28	0.251000	0.264000	0.982000
O291	O29	0.318000	0.137000	0.210000
O301	O30	0.370000	0.012000	0.381000
O311	O31	0.485000	0.168000	0.412000
O321	O32	0.244000	0.143000	0.466000
O331	O33	0.200000	0.006000	0.683000
O341	O34	0.163000	0.849000	0.758000
O351	O35	0.018000	0.912000	0.575000
O361	O36	0.246000	0.881000	0.512000
P101	P10	0.839000	0.730000	0.843000
P111	P11	0.646000	0.888000	0.368000
P121	P12	0.843000	0.085000	0.631000
Al101	Al10	0.854000	0.892000	0.613000
Al111	Al11	0.866000	0.604000	0.617000
Al121	Al12	0.151000	0.749000	0.861000
O371	O37	0.838000	0.804000	0.728000
O381	O38	0.811000	0.636000	0.782000
O391	O39	0.982000	0.742000	0.914000
O401	O40	0.749000	0.736000	0.982000
O411	O41	0.682000	0.863000	0.210000
O421	O42	0.630000	0.988000	0.381000
O431	O43	0.515000	0.832000	0.412000
O441	O44	0.756000	0.857000	0.466000
O451	O45	0.800000	0.994000	0.683000
O461	O46	0.837000	0.151000	0.758000
O471	O47	0.982000	0.088000	0.575000
O481	O48	0.754000	0.119000	0.512000
