data_FECKAA_freeONLY_PM
_symmetry_space_group_name_H-M	'P1'
_cell_length_a	10.917500
_cell_length_b	21.469900
_cell_length_c	21.469900
_cell_angle_alpha	62.812500
_cell_angle_beta	80.241200
_cell_angle_gamma	99.758800
_symmetry_Int_Tables_number 1

loop_
_symmetry_equiv_pos_as_xyz
'x,y,z'

loop_
_atom_site_label
_atom_site_type_symbol
_atom_site_fract_x
_atom_site_fract_y
_atom_site_fract_z
Zn11	Zn1	0.276280	0.000160	0.086220
Zn21	Zn2	0.362500	0.086220	0.913620
Zn31	Zn3	0.276120	0.913620	0.000160
Zn41	Zn4	0.539270	0.000000	0.000000
H11	H1	0.842100	0.000000	0.243500
H21	H2	0.488300	0.993500	0.345900
H31	H3	0.411700	0.999600	0.248500
H41	H4	0.765500	0.006300	0.146000
H51	H5	0.687400	0.896300	0.427200
H61	H6	0.971100	0.129300	0.447200
H71	H7	0.989400	0.242600	0.347200
H81	H8	0.783100	0.140600	0.263200
H91	H9	0.177700	0.998200	0.570800
H101	H10	0.668700	0.009300	0.556700
H111	H11	0.550700	0.011400	0.657200
H121	H12	0.862200	0.004600	0.736800
H131	H13	0.029700	0.888100	0.756200
H141	H14	0.152600	0.109100	0.641500
H151	H15	0.252400	0.109000	0.729900
H161	H16	0.129600	0.888100	0.844400
H171	H17	0.234700	0.009500	0.395800
H181	H18	0.177100	0.939700	0.477800
H191	H19	0.557900	0.975400	0.393200
H201	H20	0.519700	0.087500	0.322900
H211	H21	0.359300	0.123400	0.374700
H221	H22	0.275400	0.935200	0.566900
H231	H23	0.435700	0.899200	0.515300
H241	H24	0.917400	0.895500	0.574600
H251	H25	0.982500	0.874200	0.517600
H261	H26	0.021100	0.782600	0.635400
H271	H27	0.687500	0.769900	0.577100
H281	H28	0.781100	0.743000	0.489300
H291	H29	0.994800	0.736100	0.474300
H301	H30	0.114700	0.755700	0.547600
H311	H31	0.085600	0.243500	0.756500
H321	H32	0.834200	0.345900	0.660600
H331	H33	0.660200	0.248500	0.751900
H341	H34	0.911500	0.146000	0.847700
H351	H35	0.114600	0.427200	0.676500
H361	H36	0.418300	0.447200	0.423500
H371	H37	0.336600	0.347200	0.410200
H381	H38	0.046300	0.263200	0.596200
H391	H39	0.748500	0.570800	0.431000
H401	H40	0.225400	0.556700	0.434000
H411	H41	0.207900	0.657200	0.331400
H421	H42	0.599000	0.736800	0.258600
H431	H43	0.785900	0.756200	0.355700
H441	H44	0.794100	0.641500	0.249400
H451	H45	0.982300	0.729900	0.161100
H461	H46	0.974000	0.844400	0.267500
H471	H47	0.630500	0.395800	0.594700
H481	H48	0.654900	0.477800	0.582500
H491	H49	0.951100	0.393200	0.631400
H501	H50	0.842600	0.322900	0.589600
H511	H51	0.734000	0.374700	0.501900
H521	H52	0.842300	0.566900	0.497900
H531	H53	0.951000	0.515300	0.585500
H541	H54	0.492000	0.574600	0.529900
H551	H55	0.500100	0.517600	0.608200
H561	H56	0.656500	0.635400	0.582000
H571	H57	0.264600	0.577100	0.653000
H581	H58	0.270400	0.489300	0.767700
H591	H59	0.469100	0.474300	0.789600
H601	H60	0.662300	0.547600	0.696700
H611	H61	0.842100	0.756500	0.000000
H621	H62	0.494800	0.660600	0.993500
H631	H63	0.412100	0.751900	0.999600
H641	H64	0.759200	0.847700	0.006300
H651	H65	0.791100	0.676500	0.896300
H661	H66	0.841800	0.423500	0.129300
H671	H67	0.746800	0.410200	0.242600
H681	H68	0.642500	0.596200	0.140600
H691	H69	0.179500	0.431000	0.998200
H701	H70	0.659400	0.434000	0.009300
H711	H71	0.539300	0.331400	0.011400
H721	H72	0.857600	0.258600	0.004600
H731	H73	0.141600	0.355700	0.888100
H741	H74	0.043500	0.249400	0.109100
H751	H75	0.143400	0.161100	0.109000
H761	H76	0.241500	0.267500	0.888100
H771	H77	0.225200	0.594700	0.009500
H781	H78	0.237400	0.582500	0.939700
H791	H79	0.582500	0.631400	0.975400
H801	H80	0.432200	0.589600	0.087500
H811	H81	0.235900	0.501900	0.123400
H821	H82	0.340200	0.497900	0.935200
H831	H83	0.536500	0.585500	0.899200
H841	H84	0.021900	0.529900	0.895500
H851	H85	0.108300	0.608200	0.874200
H861	H86	0.238500	0.582000	0.782600
H871	H87	0.917600	0.653000	0.769900
H881	H88	0.038100	0.767700	0.743000
H891	H89	0.258700	0.789600	0.736100
H901	H90	0.359000	0.696700	0.755700
C11	C1	0.755000	0.000000	0.245000
C21	C2	0.672000	0.996000	0.304000
C31	C3	0.544600	0.996100	0.305300
C41	C4	0.499100	0.999700	0.247400
C51	C5	0.581200	0.003600	0.188000
C61	C6	0.710000	0.004000	0.186000
C71	C7	0.505300	0.001000	0.131100
C81	C8	0.254000	0.999000	0.841000
C91	C9	0.856000	0.001000	0.474000
C101	C10	0.789000	0.937000	0.479000
C111	C11	0.734000	0.941000	0.423000
C121	C12	0.744000	0.008000	0.364000
C131	C13	0.811000	0.072000	0.359000
C141	C14	0.866400	0.068400	0.414200
C151	C15	0.933000	0.132000	0.410000
C161	C16	0.944000	0.199000	0.351000
C171	C17	0.888000	0.203000	0.295000
C181	C18	0.822000	0.139000	0.300000
C191	C19	0.905200	0.004200	0.527600
C201	C20	0.033200	0.001200	0.521600
C211	C21	0.091000	0.000000	0.575000
C221	C22	0.020800	0.001800	0.634400
C231	C23	0.892500	0.004200	0.640700
C241	C24	0.836000	0.006000	0.587000
C251	C25	0.708000	0.009000	0.593000
C261	C26	0.638000	0.009000	0.653000
C271	C27	0.695000	0.008000	0.706000
C281	C28	0.822700	0.004700	0.700600
C291	C29	0.075000	0.932900	0.750900
C301	C30	0.082400	0.999400	0.690200
C311	C31	0.147800	0.064800	0.682400
C321	C32	0.207000	0.064200	0.735200
C331	C33	0.200000	0.998500	0.795500
C341	C34	0.134500	0.932800	0.803300
C351	C35	0.202000	0.993000	0.448000
C361	C36	0.494000	0.991000	0.413000
C371	C37	0.470000	0.056000	0.373000
C381	C38	0.379000	0.079000	0.402000
C391	C39	0.302000	0.033000	0.476000
C401	C40	0.325000	0.966000	0.517000
C411	C41	0.420000	0.945000	0.487000
C421	C42	0.899000	0.867000	0.550000
C431	C43	0.970000	0.775000	0.605000
C441	C44	0.848000	0.779000	0.615000
C451	C45	0.774000	0.766000	0.572000
C461	C46	0.830000	0.750000	0.520000
C471	C47	0.953000	0.748000	0.509000
C481	C48	0.028000	0.759000	0.553000
C491	C49	0.000000	0.245000	0.755000
C501	C50	0.976000	0.304000	0.700000
C511	C51	0.849900	0.305300	0.698600
C521	C52	0.746500	0.247400	0.752900
C531	C53	0.769200	0.188000	0.808400
C541	C54	0.896000	0.186000	0.810000
C551	C55	0.636400	0.131100	0.867900
C561	C56	0.095000	0.841000	0.160000
C571	C57	0.330000	0.474000	0.525000
C581	C58	0.268000	0.479000	0.584000
C591	C59	0.157000	0.423000	0.636000
C601	C60	0.108000	0.364000	0.628000
C611	C61	0.170000	0.359000	0.569000
C621	C62	0.280600	0.414200	0.517400
C631	C63	0.343000	0.410000	0.458000
C641	C64	0.295000	0.351000	0.450000
C651	C65	0.183000	0.295000	0.502000
C661	C66	0.122000	0.300000	0.561000
C671	C67	0.432800	0.527600	0.468200
C681	C68	0.554800	0.521600	0.477200
C691	C69	0.666000	0.575000	0.425000
C701	C70	0.655200	0.634400	0.363800
C711	C71	0.533200	0.640700	0.355100
C721	C72	0.423000	0.587000	0.407000
C731	C73	0.301000	0.593000	0.398000
C741	C74	0.291000	0.653000	0.338000
C751	C75	0.401000	0.706000	0.286000
C761	C76	0.523300	0.700600	0.294700
C771	C77	0.825900	0.750900	0.316200
C781	C78	0.772600	0.690200	0.310400
C791	C79	0.830200	0.682400	0.252800
C801	C80	0.942200	0.735200	0.200600
C811	C81	0.995500	0.795500	0.206000
C821	C82	0.937800	0.803300	0.263900
C831	C83	0.650000	0.448000	0.559000
C841	C84	0.907000	0.413000	0.596000
C851	C85	0.843000	0.373000	0.571000
C861	C86	0.781000	0.402000	0.519000
C871	C87	0.778000	0.476000	0.491000
C881	C88	0.842000	0.517000	0.517000
C891	C89	0.907000	0.487000	0.568000
C901	C90	0.449000	0.550000	0.583000
C911	C91	0.575000	0.605000	0.620000
C921	C92	0.463000	0.615000	0.606000
C931	C93	0.346000	0.572000	0.662000
C941	C94	0.350000	0.520000	0.730000
C951	C95	0.462000	0.509000	0.743000
C961	C96	0.581000	0.553000	0.688000
C971	C97	0.755000	0.755000	0.000000
C981	C98	0.676000	0.700000	0.996000
C991	C99	0.548500	0.698600	0.996100
C1001	C100	0.499400	0.752900	0.999700
C1011	C101	0.577600	0.808400	0.003600
C1021	C102	0.706000	0.810000	0.004000
C1031	C103	0.504300	0.867900	0.001000
C1041	C104	0.255000	0.160000	0.999000
C1051	C105	0.855000	0.525000	0.001000
C1061	C106	0.852000	0.584000	0.937000
C1071	C107	0.793000	0.636000	0.941000
C1081	C108	0.736000	0.628000	0.008000
C1091	C109	0.739000	0.569000	0.072000
C1101	C110	0.798000	0.517400	0.068400
C1111	C111	0.801000	0.458000	0.132000
C1121	C112	0.745000	0.450000	0.199000
C1131	C113	0.685000	0.502000	0.203000
C1141	C114	0.683000	0.561000	0.139000
C1151	C115	0.901000	0.468200	0.004200
C1161	C116	0.032000	0.477200	0.001200
C1171	C117	0.091000	0.425000	0.000000
C1181	C118	0.019000	0.363800	0.001800
C1191	C119	0.888300	0.355100	0.004200
C1201	C120	0.830000	0.407000	0.006000
C1211	C121	0.699000	0.398000	0.009000
C1221	C122	0.629000	0.338000	0.009000
C1231	C123	0.687000	0.286000	0.008000
C1241	C124	0.818000	0.294700	0.004700
C1251	C125	0.142100	0.316200	0.932900
C1261	C126	0.083000	0.310400	0.999400
C1271	C127	0.083000	0.252800	0.064800
C1281	C128	0.142800	0.200600	0.064200
C1291	C129	0.201500	0.206000	0.998500
C1301	C130	0.201700	0.263900	0.932800
C1311	C131	0.209000	0.559000	0.993000
C1321	C132	0.503000	0.596000	0.991000
C1331	C133	0.414000	0.571000	0.056000
C1341	C134	0.300000	0.519000	0.079000
C1351	C135	0.269000	0.491000	0.033000
C1361	C136	0.359000	0.517000	0.966000
C1371	C137	0.475000	0.568000	0.945000
C1381	C138	0.032000	0.583000	0.867000
C1391	C139	0.195000	0.620000	0.775000
C1401	C140	0.069000	0.606000	0.779000
C1411	C141	0.008000	0.662000	0.766000
C1421	C142	0.080000	0.730000	0.750000
C1431	C143	0.205000	0.743000	0.748000
C1441	C144	0.269000	0.688000	0.759000
Cl11	Cl1	0.578000	0.995000	0.795000
Cl21	Cl2	0.373000	0.795000	0.210000
Cl31	Cl3	0.583000	0.210000	0.995000
O11	O1	0.398200	0.000300	0.142700
O21	O2	0.585400	0.999500	0.081300
O31	O3	0.249300	0.101600	0.051700
O41	O4	0.301800	0.154400	0.947000
O51	O5	0.116000	0.018000	0.461000
O61	O6	0.829000	0.892000	0.512000
O71	O7	0.540900	0.142700	0.857000
O81	O8	0.666700	0.081300	0.919200
O91	O9	0.301000	0.051700	0.846700
O101	O10	0.248800	0.947000	0.898600
O111	O11	0.577000	0.461000	0.521000
O121	O12	0.341000	0.512000	0.596000
O131	O13	0.397900	0.857000	0.000300
O141	O14	0.585900	0.919200	0.999500
O151	O15	0.147700	0.846700	0.101600
O161	O16	0.147400	0.898600	0.154400
O171	O17	0.098000	0.521000	0.018000
O181	O18	0.937000	0.596000	0.892000
O191	O19	0.364670	0.000000	0.000000
