data_FEDJUU_charged_PM
_symmetry_space_group_name_H-M	'P1'
_cell_length_a	11.269000
_cell_length_b	13.106400
_cell_length_c	13.106400
_cell_angle_alpha	90.000000
_cell_angle_beta	90.000000
_cell_angle_gamma	90.000000
_symmetry_Int_Tables_number 1

loop_
_symmetry_equiv_pos_as_xyz
'x,y,z'

loop_
_atom_site_label
_atom_site_type_symbol
_atom_site_fract_x
_atom_site_fract_y
_atom_site_fract_z
Zn11	Zn1	0.000000	0.000000	0.500000
Zn21	Zn2	0.500000	0.500000	0.000000
H11	H1	0.264300	0.768200	0.556000
H21	H2	0.428800	0.671800	0.600300
H31	H3	0.497300	0.861100	0.823700
H41	H4	0.331800	0.954700	0.786700
H51	H5	0.590300	0.695100	0.819400
H61	H6	0.577600	0.629300	0.719900
H71	H7	0.692600	0.820800	0.716500
H81	H8	0.695900	0.739100	0.629000
H91	H9	0.264300	0.231800	0.444000
H101	H10	0.428800	0.328200	0.399700
H111	H11	0.497300	0.138900	0.176300
H121	H12	0.331800	0.045300	0.213300
H131	H13	0.590300	0.304900	0.180600
H141	H14	0.577600	0.370700	0.280100
H151	H15	0.692600	0.179200	0.283500
H161	H16	0.695900	0.260900	0.371000
H171	H17	0.764300	0.444000	0.768200
H181	H18	0.928800	0.399700	0.671800
H191	H19	0.997300	0.176300	0.861100
H201	H20	0.831800	0.213300	0.954700
H211	H21	0.090300	0.180600	0.695100
H221	H22	0.077600	0.280100	0.629300
H231	H23	0.192600	0.283500	0.820800
H241	H24	0.195900	0.371000	0.739100
H251	H25	0.764300	0.556000	0.231800
H261	H26	0.928800	0.600300	0.328200
H271	H27	0.997300	0.823700	0.138900
H281	H28	0.831800	0.786700	0.045300
H291	H29	0.090300	0.819400	0.304900
H301	H30	0.077600	0.719900	0.370700
H311	H31	0.192600	0.716500	0.179200
H321	H32	0.195900	0.629000	0.260900
H331	H33	0.735700	0.231800	0.556000
H341	H34	0.571200	0.328200	0.600300
H351	H35	0.502700	0.138900	0.823700
H361	H36	0.668200	0.045300	0.786700
H371	H37	0.409700	0.304900	0.819400
H381	H38	0.422400	0.370700	0.719900
H391	H39	0.307400	0.179200	0.716500
H401	H40	0.304100	0.260900	0.629000
H411	H41	0.735700	0.768200	0.444000
H421	H42	0.571200	0.671800	0.399700
H431	H43	0.502700	0.861100	0.176300
H441	H44	0.668200	0.954700	0.213300
H451	H45	0.409700	0.695100	0.180600
H461	H46	0.422400	0.629300	0.280100
H471	H47	0.307400	0.820800	0.283500
H481	H48	0.304100	0.739100	0.371000
H491	H49	0.235700	0.556000	0.768200
H501	H50	0.071200	0.600300	0.671800
H511	H51	0.002700	0.823700	0.861100
H521	H52	0.168200	0.786700	0.954700
H531	H53	0.909700	0.819400	0.695100
H541	H54	0.922400	0.719900	0.629300
H551	H55	0.807400	0.716500	0.820800
H561	H56	0.804100	0.629000	0.739100
H571	H57	0.235700	0.444000	0.231800
H581	H58	0.071200	0.399700	0.328200
H591	H59	0.002700	0.176300	0.138900
H601	H60	0.168200	0.213300	0.045300
H611	H61	0.909700	0.180600	0.304900
H621	H62	0.922400	0.280100	0.370700
H631	H63	0.807400	0.283500	0.179200
H641	H64	0.804100	0.371000	0.260900
C11	C1	0.170000	0.934700	0.640000
C21	C2	0.279600	0.870700	0.666800
C31	C3	0.310100	0.787200	0.611900
C41	C4	0.409100	0.729400	0.638100
C51	C5	0.448400	0.840900	0.770200
C61	C6	0.350500	0.897700	0.747500
C71	C7	0.584000	0.698500	0.745700
C81	C8	0.694500	0.748200	0.702400
C91	C9	0.170000	0.065300	0.360000
C101	C10	0.279600	0.129300	0.333200
C111	C11	0.310100	0.212800	0.388100
C121	C12	0.409100	0.270600	0.361900
C131	C13	0.448400	0.159100	0.229800
C141	C14	0.350500	0.102300	0.252500
C151	C15	0.584000	0.301500	0.254300
C161	C16	0.694500	0.251800	0.297600
C171	C17	0.670000	0.360000	0.934700
C181	C18	0.779600	0.333200	0.870700
C191	C19	0.810100	0.388100	0.787200
C201	C20	0.909100	0.361900	0.729400
C211	C21	0.948400	0.229800	0.840900
C221	C22	0.850500	0.252500	0.897700
C231	C23	0.084000	0.254300	0.698500
C241	C24	0.194500	0.297600	0.748200
C251	C25	0.670000	0.640000	0.065300
C261	C26	0.779600	0.666800	0.129300
C271	C27	0.810100	0.611900	0.212800
C281	C28	0.909100	0.638100	0.270600
C291	C29	0.948400	0.770200	0.159100
C301	C30	0.850500	0.747500	0.102300
C311	C31	0.084000	0.745700	0.301500
C321	C32	0.194500	0.702400	0.251800
C331	C33	0.830000	0.065300	0.640000
C341	C34	0.720400	0.129300	0.666800
C351	C35	0.689900	0.212800	0.611900
C361	C36	0.590900	0.270600	0.638100
C371	C37	0.551600	0.159100	0.770200
C381	C38	0.649500	0.102300	0.747500
C391	C39	0.416000	0.301500	0.745700
C401	C40	0.305500	0.251800	0.702400
C411	C41	0.830000	0.934700	0.360000
C421	C42	0.720400	0.870700	0.333200
C431	C43	0.689900	0.787200	0.388100
C441	C44	0.590900	0.729400	0.361900
C451	C45	0.551600	0.840900	0.229800
C461	C46	0.649500	0.897700	0.252500
C471	C47	0.416000	0.698500	0.254300
C481	C48	0.305500	0.748200	0.297600
C491	C49	0.330000	0.640000	0.934700
C501	C50	0.220400	0.666800	0.870700
C511	C51	0.189900	0.611900	0.787200
C521	C52	0.090900	0.638100	0.729400
C531	C53	0.051600	0.770200	0.840900
C541	C54	0.149500	0.747500	0.897700
C551	C55	0.916000	0.745700	0.698500
C561	C56	0.805500	0.702400	0.748200
C571	C57	0.330000	0.360000	0.065300
C581	C58	0.220400	0.333200	0.129300
C591	C59	0.189900	0.388100	0.212800
C601	C60	0.090900	0.361900	0.270600
C611	C61	0.051600	0.229800	0.159100
C621	C62	0.149500	0.252500	0.102300
C631	C63	0.916000	0.254300	0.301500
C641	C64	0.805500	0.297600	0.251800
N11	N1	0.475600	0.756900	0.717300
N21	N2	0.475600	0.243100	0.282700
N31	N3	0.975600	0.282700	0.756900
N41	N4	0.975600	0.717300	0.243100
N51	N5	0.524400	0.243100	0.717300
N61	N6	0.524400	0.756900	0.282700
N71	N7	0.024400	0.717300	0.756900
N81	N8	0.024400	0.282700	0.243100
O11	O1	0.113000	0.904400	0.563400
O21	O2	0.146000	0.008100	0.695400
O31	O3	0.113000	0.095600	0.436600
O41	O4	0.146000	0.991900	0.304600
O51	O5	0.613000	0.436600	0.904400
O61	O6	0.646000	0.304600	0.008100
O71	O7	0.613000	0.563400	0.095600
O81	O8	0.646000	0.695400	0.991900
O91	O9	0.887000	0.095600	0.563400
O101	O10	0.854000	0.991900	0.695400
O111	O11	0.887000	0.904400	0.436600
O121	O12	0.854000	0.008100	0.304600
O131	O13	0.387000	0.563400	0.904400
O141	O14	0.354000	0.695400	0.008100
O151	O15	0.387000	0.436600	0.095600
O161	O16	0.354000	0.304600	0.991900
Cl11	Cl1	0.000000	0.500000	0.000000
O171	O17	0.072300	0.562700	0.063400
O181	O18	0.072300	0.437300	0.936600
O191	O19	0.927700	0.437300	0.063400
O201	O20	0.927700	0.562700	0.936600
Cl21	Cl2	0.500000	0.000000	0.500000
O211	O21	0.572300	0.936600	0.562700
O221	O22	0.572300	0.063400	0.437300
O231	O23	0.427700	0.063400	0.562700
O241	O24	0.427700	0.936600	0.437300
Cl31	Cl3	0.750000	0.500000	0.500000
O251	O25	0.821100	0.588600	0.502100
O261	O26	0.821100	0.411400	0.497900
O271	O27	0.678900	0.502100	0.588600
O281	O28	0.678900	0.497900	0.411400
Cl41	Cl4	0.250000	0.500000	0.500000
O291	O29	0.321100	0.497900	0.588600
O301	O30	0.321100	0.502100	0.411400
O311	O31	0.178900	0.411400	0.502100
O321	O32	0.178900	0.588600	0.497900
