data_FEHCIG_manual_PM
_symmetry_space_group_name_H-M	'P1'
_cell_length_a	18.080200
_cell_length_b	18.080200
_cell_length_c	18.080200
_cell_angle_alpha	134.594200
_cell_angle_beta	98.557000
_cell_angle_gamma	98.576300
_symmetry_Int_Tables_number 1

loop_
_symmetry_equiv_pos_as_xyz
'x,y,z'

loop_
_atom_site_label
_atom_site_type_symbol
_atom_site_fract_x
_atom_site_fract_y
_atom_site_fract_z
Zn11	Zn1	0.733280	0.886010	0.604250
O21	O2	0.795000	0.027900	0.663100
O31	O3	0.824600	0.844400	0.612200
N41	N4	0.198300	0.390600	0.710700
N51	N5	0.153000	0.795300	0.955700
C61	C6	0.919300	0.128100	0.652400
H71	H7	0.878200	0.062500	0.583100
C81	C8	0.985900	0.189000	0.656700
H91	H9	0.992500	0.156500	0.589400
C101	C10	0.148100	0.306700	0.682400
C111	C11	0.146000	0.192300	0.599300
H121	H12	0.185700	0.187200	0.565900
H131	H13	0.092500	0.142500	0.541200
H141	H14	0.158400	0.170600	0.635000
C151	C15	0.945000	0.847200	0.729600
H161	H16	0.946100	0.914700	0.755000
C171	C17	0.005000	0.849200	0.789800
H181	H18	0.046700	0.917600	0.855300
C191	C19	0.095900	0.820800	0.930500
C201	C20	0.073800	0.915500	0.020300
H211	H21	0.107100	0.950200	0.092500
H221	H22	0.017200	0.888100	0.006900
H231	H23	0.082900	0.970600	0.020700
Zn241	Zn24	0.781760	0.129030	0.895750
O251	O25	0.864800	0.131900	0.836900
O261	O26	0.732200	0.212400	0.887800
N271	N27	0.179900	0.487600	0.789300
N281	N28	0.339600	0.197300	0.544300
C291	C29	0.975700	0.266900	0.847600
H301	H30	0.979400	0.295100	0.916900
C311	C31	0.032300	0.329200	0.843300
H321	H32	0.067100	0.403100	0.910600
C331	C33	0.124300	0.465700	0.817600
C341	C34	0.093000	0.546700	0.900700
H351	H35	0.121300	0.619800	0.934100
H361	H36	0.101300	0.551300	0.958800
H371	H37	0.035600	0.523400	0.865000
C381	C38	0.617600	0.215400	0.770400
H391	H39	0.659700	0.191100	0.745000
C401	C40	0.559400	0.215200	0.710200
H411	H41	0.562300	0.191400	0.644700
C421	C42	0.390300	0.165400	0.569500
C431	C43	0.395200	0.053500	0.479700
H441	H44	0.357700	0.014600	0.407500
H451	H45	0.381200	0.010300	0.493100
H461	H46	0.449900	0.062200	0.479300
Zn471	Zn47	0.718240	0.613990	0.347270
O481	O48	0.635200	0.472100	0.267100
O491	O49	0.767800	0.655600	0.480200
N501	N50	0.320100	0.109400	0.307700
N511	N51	0.160400	0.704700	0.857700
C521	C52	0.524300	0.371900	0.291200
H531	H53	0.520600	0.437500	0.315700
C541	C54	0.467700	0.311000	0.296900
H551	H55	0.432900	0.343500	0.336000
C561	C56	0.375700	0.193300	0.341400
C571	C57	0.407000	0.307700	0.453700
H581	H58	0.378700	0.312800	0.498500
H591	H59	0.398700	0.357500	0.450000
H601	H60	0.464400	0.329400	0.487800
C611	C61	0.882400	0.652800	0.597800
H621	H62	0.840300	0.585300	0.531400
C631	C63	0.940600	0.650800	0.655800
H641	H64	0.937700	0.582400	0.629100
C651	C65	0.109700	0.679200	0.775100
C661	C66	0.104800	0.584500	0.658300
H671	H67	0.142300	0.549800	0.656900
H681	H68	0.118800	0.611900	0.629100
H691	H69	0.050100	0.529400	0.612300
Zn701	Zn70	0.766720	0.370970	0.152730
O711	O71	0.705000	0.368100	0.232900
O721	O72	0.675400	0.287600	0.019800
N731	N73	0.301700	0.012400	0.192300
N741	N74	0.347000	0.302700	0.642300
C751	C75	0.580700	0.233100	0.208800
H761	H76	0.621800	0.204900	0.184300
C771	C77	0.514100	0.170800	0.203100
H781	H78	0.507500	0.096900	0.164000
C791	C79	0.351900	0.034300	0.158600
C801	C80	0.354000	0.953300	0.046300
H811	H81	0.314300	0.880200	0.001500
H821	H82	0.407500	0.948700	0.050000
H831	H83	0.341600	0.976600	0.012200
C841	C84	0.555000	0.284600	0.902200
H851	H85	0.553900	0.308900	0.968600
C861	C86	0.495000	0.284800	0.844200
H871	H87	0.453300	0.308600	0.870900
C881	C88	0.404100	0.334600	0.724900
C891	C89	0.426200	0.446500	0.841700
H901	H90	0.392900	0.485400	0.843100
H911	H91	0.482800	0.489700	0.870900
H921	H92	0.417100	0.437800	0.887700
Zn931	Zn93	0.266720	0.113990	0.395750
O941	O94	0.205000	0.972100	0.336900
O951	O95	0.175400	0.155600	0.387800
N961	N96	0.801700	0.609400	0.289300
N971	N97	0.847000	0.204700	0.044300
C981	C98	0.080700	0.871900	0.347600
H991	H99	0.121800	0.937500	0.416900
C1001	C100	0.014100	0.811000	0.343300
H1011	H101	0.007500	0.843500	0.410600
C1021	C102	0.851900	0.693300	0.317600
C1031	C103	0.854000	0.807700	0.400700
H1041	H104	0.814300	0.812800	0.434100
H1051	H105	0.907500	0.857500	0.458800
H1061	H106	0.841600	0.829400	0.365000
C1071	C107	0.055000	0.152800	0.270400
H1081	H108	0.053900	0.085300	0.245000
C1091	C109	0.995000	0.150800	0.210200
H1101	H110	0.953300	0.082400	0.144700
C1111	C111	0.904100	0.179200	0.069500
C1121	C112	0.926200	0.084500	0.979700
H1131	H113	0.892900	0.049800	0.907500
H1141	H114	0.982800	0.111900	0.993100
H1151	H115	0.917100	0.029400	0.979300
Zn1161	Zn116	0.218240	0.870970	0.104250
O1171	O117	0.135200	0.868100	0.163100
O1181	O118	0.267800	0.787600	0.112200
N1191	N119	0.820100	0.512400	0.210700
N1201	N120	0.660400	0.802700	0.455700
C1211	C121	0.024300	0.733100	0.152400
H1221	H122	0.020600	0.704900	0.083100
C1231	C123	0.967700	0.670800	0.156700
H1241	H124	0.932900	0.596900	0.089400
C1251	C125	0.875700	0.534300	0.182400
C1261	C126	0.907000	0.453300	0.099300
H1271	H127	0.878700	0.380200	0.065900
H1281	H128	0.898700	0.448700	0.041200
H1291	H129	0.964400	0.476600	0.135000
C1301	C130	0.382400	0.784600	0.229600
H1311	H131	0.340300	0.808900	0.255000
C1321	C132	0.440600	0.784800	0.289800
H1331	H133	0.437700	0.808600	0.355300
C1341	C134	0.609700	0.834600	0.430500
C1351	C135	0.604800	0.946500	0.520300
H1361	H136	0.642300	0.985400	0.592500
H1371	H137	0.618800	0.989700	0.506900
H1381	H138	0.550100	0.937800	0.520700
Zn1391	Zn139	0.281760	0.386010	0.652730
O1401	O140	0.364800	0.527900	0.732900
O1411	O141	0.232200	0.344400	0.519800
N1421	N142	0.679900	0.890600	0.692300
N1431	N143	0.839600	0.295300	0.142300
C1441	C144	0.475700	0.628100	0.708800
H1451	H145	0.479400	0.562500	0.684300
C1461	C146	0.532300	0.689000	0.703100
H1471	H147	0.567100	0.656500	0.664000
C1481	C148	0.624300	0.806700	0.658600
C1491	C149	0.593000	0.692300	0.546300
H1501	H150	0.621300	0.687200	0.501500
H1511	H151	0.601300	0.642500	0.550000
H1521	H152	0.535600	0.670600	0.512200
C1531	C153	0.117600	0.347200	0.402200
H1541	H154	0.159700	0.414700	0.468600
C1551	C155	0.059400	0.349200	0.344200
H1561	H156	0.062300	0.417600	0.370900
C1571	C157	0.890300	0.320800	0.224900
C1581	C158	0.895200	0.415500	0.341700
H1591	H159	0.857700	0.450200	0.343100
H1601	H160	0.881200	0.388100	0.370900
H1611	H161	0.949900	0.470600	0.387700
Zn1621	Zn162	0.233280	0.629030	0.847270
O1631	O163	0.295000	0.631900	0.767100
O1641	O164	0.324600	0.712400	0.980200
N1651	N165	0.698300	0.987600	0.807700
N1661	N166	0.653000	0.697300	0.357700
C1671	C167	0.419300	0.766900	0.791200
H1681	H168	0.378200	0.795100	0.815700
C1691	C169	0.485900	0.829200	0.796900
H1701	H170	0.492500	0.903100	0.836000
C1711	C171	0.648100	0.965700	0.841400
C1721	C172	0.646000	0.046700	0.953700
H1731	H173	0.685700	0.119800	0.998500
H1741	H174	0.592500	0.051300	0.950000
H1751	H175	0.658400	0.023400	0.987800
C1761	C176	0.445000	0.715400	0.097800
H1771	H177	0.446100	0.691100	0.031400
C1781	C178	0.505000	0.715200	0.155800
H1791	H179	0.546700	0.691400	0.129100
C1801	C180	0.595900	0.665400	0.275100
C1811	C181	0.573800	0.553500	0.158300
H1821	H182	0.607100	0.514600	0.156900
H1831	H183	0.517200	0.510300	0.129100
H1841	H184	0.582900	0.562200	0.112300
C1851	C185	0.853900	0.103900	0.750000
C1861	C186	0.916700	0.166700	0.750000
C1871	C187	0.036000	0.286000	0.750000
C1881	C188	0.098400	0.348400	0.750000
C1891	C189	0.646100	0.396100	0.250000
C1901	C190	0.583300	0.333300	0.250000
C1911	C191	0.464000	0.214000	0.250000
C1921	C192	0.401600	0.151600	0.250000
C1931	C193	0.146100	0.896100	0.250000
C1941	C194	0.083300	0.833300	0.250000
C1951	C195	0.964000	0.714000	0.250000
C1961	C196	0.901600	0.651600	0.250000
C1971	C197	0.353900	0.603900	0.750000
C1981	C198	0.416700	0.666700	0.750000
C1991	C199	0.536000	0.786000	0.750000
C2001	C200	0.598400	0.848400	0.750000
C2011	C201	0.822000	0.750000	0.572000
C2021	C202	0.885100	0.750000	0.635100
C2031	C203	0.004100	0.750000	0.754100
C2041	C204	0.066700	0.750000	0.816700
C2051	C205	0.678000	0.250000	0.928000
C2061	C206	0.614900	0.250000	0.864900
C2071	C207	0.495900	0.250000	0.745900
C2081	C208	0.433300	0.250000	0.683300
C2091	C209	0.178000	0.250000	0.428000
C2101	C210	0.114900	0.250000	0.364900
C2111	C211	0.995900	0.250000	0.245900
C2121	C212	0.933300	0.250000	0.183300
C2131	C213	0.322000	0.750000	0.072000
C2141	C214	0.385100	0.750000	0.135100
C2151	C215	0.504100	0.750000	0.254100
C2161	C216	0.566700	0.750000	0.316700
