data_FEJDII_freeONLY_PM
_symmetry_space_group_name_H-M	'P1'
_cell_length_a	9.023800
_cell_length_b	9.039200
_cell_length_c	13.807100
_cell_angle_alpha	95.965000
_cell_angle_beta	96.049000
_cell_angle_gamma	110.228000
_symmetry_Int_Tables_number 1

loop_
_symmetry_equiv_pos_as_xyz
'x,y,z'

loop_
_atom_site_label
_atom_site_type_symbol
_atom_site_fract_x
_atom_site_fract_y
_atom_site_fract_z
Zn11	Zn1	0.971320	0.132610	0.896520
Zn21	Zn2	0.282210	0.717600	0.750070
Zn31	Zn3	0.867040	0.028710	0.603240
P11	P1	0.056300	0.817800	0.884120
H11	H1	0.942000	0.749000	0.800000
P21	P2	0.181600	0.943300	0.615770
H21	H2	0.259000	0.057000	0.703000
P31	P3	0.054800	0.366200	0.732360
H31	H3	0.956000	0.441000	0.756000
P41	P4	0.633400	0.944900	0.767140
H41	H4	0.555000	0.045000	0.742000
O11	O1	0.094000	0.994800	0.892000
O21	O2	0.989600	0.748700	0.972400
O31	O3	0.203400	0.778200	0.866800
O41	O4	0.221400	0.796700	0.633400
O51	O5	0.004000	0.904700	0.607500
O61	O6	0.250400	0.010300	0.527200
O71	O7	0.970000	0.254000	0.640200
O81	O8	0.207000	0.489400	0.714600
O91	O9	0.090000	0.285500	0.818100
O101	O10	0.714000	0.910400	0.681300
O111	O11	0.510300	0.791300	0.785000
O121	O12	0.746000	0.031500	0.860100
Zn41	Zn4	0.028680	0.867390	0.103480
Zn51	Zn5	0.717790	0.282400	0.249930
Zn61	Zn6	0.132960	0.971290	0.396760
P51	P5	0.943700	0.182200	0.115880
H51	H5	0.058000	0.251000	0.200000
P61	P6	0.818400	0.056700	0.384230
H61	H6	0.741000	0.943000	0.297000
P71	P7	0.945200	0.633800	0.267640
H71	H7	0.044000	0.559000	0.244000
P81	P8	0.366600	0.055100	0.232860
H81	H8	0.445000	0.955000	0.258000
O131	O13	0.906000	0.005200	0.108000
O141	O14	0.010400	0.251300	0.027600
O151	O15	0.796600	0.221800	0.133200
O161	O16	0.778600	0.203300	0.366600
O171	O17	0.996000	0.095300	0.392500
O181	O18	0.749600	0.989700	0.472800
O191	O19	0.030000	0.746000	0.359800
O201	O20	0.793000	0.510600	0.285400
O211	O21	0.910000	0.714500	0.181900
O221	O22	0.286000	0.089600	0.318700
O231	O23	0.489700	0.208700	0.215000
O241	O24	0.254000	0.968500	0.139900
