data_FELWOK_freeONLY_PM
_symmetry_space_group_name_H-M	'P1'
_cell_length_a	18.687400
_cell_length_b	18.687400
_cell_length_c	18.687400
_cell_angle_alpha	60.000000
_cell_angle_beta	60.000000
_cell_angle_gamma	60.000000
_symmetry_Int_Tables_number 1

loop_
_symmetry_equiv_pos_as_xyz
'x,y,z'

loop_
_atom_site_label
_atom_site_type_symbol
_atom_site_fract_x
_atom_site_fract_y
_atom_site_fract_z
Yb11	Yb1	0.750000	0.250000	0.750000
Yb21	Yb2	0.750000	0.250000	0.250000
Yb31	Yb3	0.250000	0.250000	0.250000
Yb41	Yb4	0.750000	0.750000	0.250000
Yb51	Yb5	0.250000	0.750000	0.250000
Yb61	Yb6	0.250000	0.750000	0.750000
Yb71	Yb7	0.750000	0.750000	0.750000
Yb81	Yb8	0.250000	0.250000	0.750000
Ca11	Ca1	0.500000	0.500000	0.500000
Ca21	Ca2	0.000000	0.000000	0.500000
Ca31	Ca3	0.000000	0.500000	0.000000
Ca41	Ca4	0.000000	0.500000	0.500000
Ca51	Ca5	0.500000	0.500000	0.000000
Ca61	Ca6	0.000000	0.000000	0.000000
Ca71	Ca7	0.500000	0.000000	0.500000
Ca81	Ca8	0.500000	0.000000	0.000000
H11	H1	0.516200	0.344800	0.722400
H21	H2	0.576900	0.294700	0.654300
H31	H3	0.844800	0.016200	0.416600
H41	H4	0.794700	0.076900	0.474100
H51	H5	0.222400	0.416600	0.016200
H61	H6	0.154300	0.474100	0.076900
H71	H7	0.916600	0.722400	0.344800
H81	H8	0.974100	0.654300	0.294700
H91	H9	0.516200	0.722400	0.416600
H101	H10	0.576900	0.654300	0.474100
H111	H11	0.844800	0.416600	0.722400
H121	H12	0.794700	0.474100	0.654300
H131	H13	0.222400	0.016200	0.344800
H141	H14	0.154300	0.076900	0.294700
H151	H15	0.916600	0.344800	0.016200
H161	H16	0.974100	0.294700	0.076900
H171	H17	0.516200	0.416600	0.344800
H181	H18	0.576900	0.474100	0.294700
H191	H19	0.844800	0.722400	0.016200
H201	H20	0.794700	0.654300	0.076900
H211	H21	0.222400	0.344800	0.416600
H221	H22	0.154300	0.294700	0.474100
H231	H23	0.916600	0.016200	0.722400
H241	H24	0.974100	0.076900	0.654300
H251	H25	0.655200	0.483800	0.777600
H261	H26	0.705300	0.423100	0.845700
H271	H27	0.983800	0.155200	0.083400
H281	H28	0.923100	0.205300	0.025900
H291	H29	0.583400	0.777600	0.483800
H301	H30	0.525900	0.845700	0.423100
H311	H31	0.277600	0.083400	0.155200
H321	H32	0.345700	0.025900	0.205300
H331	H33	0.277600	0.483800	0.083400
H341	H34	0.345700	0.423100	0.025900
H351	H35	0.583400	0.155200	0.777600
H361	H36	0.525900	0.205300	0.845700
H371	H37	0.983800	0.777600	0.155200
H381	H38	0.923100	0.845700	0.205300
H391	H39	0.655200	0.083400	0.483800
H401	H40	0.705300	0.025900	0.423100
H411	H41	0.583400	0.483800	0.155200
H421	H42	0.525900	0.423100	0.205300
H431	H43	0.277600	0.155200	0.483800
H441	H44	0.345700	0.205300	0.423100
H451	H45	0.655200	0.777600	0.083400
H461	H46	0.705300	0.845700	0.025900
H471	H47	0.983800	0.083400	0.777600
H481	H48	0.923100	0.025900	0.845700
H491	H49	0.483800	0.655200	0.277600
H501	H50	0.423100	0.705300	0.345700
H511	H51	0.155200	0.983800	0.583400
H521	H52	0.205300	0.923100	0.525900
H531	H53	0.777600	0.583400	0.983800
H541	H54	0.845700	0.525900	0.923100
H551	H55	0.083400	0.277600	0.655200
H561	H56	0.025900	0.345700	0.705300
H571	H57	0.483800	0.277600	0.583400
H581	H58	0.423100	0.345700	0.525900
H591	H59	0.155200	0.583400	0.277600
H601	H60	0.205300	0.525900	0.345700
H611	H61	0.777600	0.983800	0.655200
H621	H62	0.845700	0.923100	0.705300
H631	H63	0.083400	0.655200	0.983800
H641	H64	0.025900	0.705300	0.923100
H651	H65	0.483800	0.583400	0.655200
H661	H66	0.423100	0.525900	0.705300
H671	H67	0.155200	0.277600	0.983800
H681	H68	0.205300	0.345700	0.923100
H691	H69	0.777600	0.655200	0.583400
H701	H70	0.845700	0.705300	0.525900
H711	H71	0.083400	0.983800	0.277600
H721	H72	0.025900	0.923100	0.345700
H731	H73	0.344800	0.516200	0.222400
H741	H74	0.294700	0.576900	0.154300
H751	H75	0.016200	0.844800	0.916600
H761	H76	0.076900	0.794700	0.974100
H771	H77	0.416600	0.222400	0.516200
H781	H78	0.474100	0.154300	0.576900
H791	H79	0.722400	0.916600	0.844800
H801	H80	0.654300	0.974100	0.794700
H811	H81	0.722400	0.516200	0.916600
H821	H82	0.654300	0.576900	0.974100
H831	H83	0.416600	0.844800	0.222400
H841	H84	0.474100	0.794700	0.154300
H851	H85	0.016200	0.222400	0.844800
H861	H86	0.076900	0.154300	0.794700
H871	H87	0.344800	0.916600	0.516200
H881	H88	0.294700	0.974100	0.576900
H891	H89	0.416600	0.516200	0.844800
H901	H90	0.474100	0.576900	0.794700
H911	H91	0.722400	0.844800	0.516200
H921	H92	0.654300	0.794700	0.576900
H931	H93	0.344800	0.222400	0.916600
H941	H94	0.294700	0.154300	0.974100
H951	H95	0.016200	0.916600	0.222400
H961	H96	0.076900	0.974100	0.154300
C11	C1	0.576600	0.318000	0.690600
C21	C2	0.621680	0.384880	0.634520
C31	C3	0.818000	0.076600	0.414800
C41	C4	0.884880	0.121680	0.358920
C51	C5	0.190600	0.414800	0.076600
C61	C6	0.134520	0.358920	0.121680
C71	C7	0.914800	0.690600	0.318000
C81	C8	0.858920	0.634520	0.384880
C91	C9	0.576600	0.690600	0.414800
C101	C10	0.621680	0.634520	0.358920
C111	C11	0.818000	0.414800	0.690600
C121	C12	0.884880	0.358920	0.634520
C131	C13	0.190600	0.076600	0.318000
C141	C14	0.134520	0.121680	0.384880
C151	C15	0.914800	0.318000	0.076600
C161	C16	0.858920	0.384880	0.121680
C171	C17	0.576600	0.414800	0.318000
C181	C18	0.621680	0.358920	0.384880
C191	C19	0.818000	0.690600	0.076600
C201	C20	0.884880	0.634520	0.121680
C211	C21	0.190600	0.318000	0.414800
C221	C22	0.134520	0.384880	0.358920
C231	C23	0.914800	0.076600	0.690600
C241	C24	0.858920	0.121680	0.634520
C251	C25	0.682000	0.423400	0.809400
C261	C26	0.615120	0.378320	0.865480
C271	C27	0.923400	0.182000	0.085200
C281	C28	0.878320	0.115120	0.141080
C291	C29	0.585200	0.809400	0.423400
C301	C30	0.641080	0.865480	0.378320
C311	C31	0.309400	0.085200	0.182000
C321	C32	0.365480	0.141080	0.115120
C331	C33	0.309400	0.423400	0.085200
C341	C34	0.365480	0.378320	0.141080
C351	C35	0.585200	0.182000	0.809400
C361	C36	0.641080	0.115120	0.865480
C371	C37	0.923400	0.809400	0.182000
C381	C38	0.878320	0.865480	0.115120
C391	C39	0.682000	0.085200	0.423400
C401	C40	0.615120	0.141080	0.378320
C411	C41	0.585200	0.423400	0.182000
C421	C42	0.641080	0.378320	0.115120
C431	C43	0.309400	0.182000	0.423400
C441	C44	0.365480	0.115120	0.378320
C451	C45	0.682000	0.809400	0.085200
C461	C46	0.615120	0.865480	0.141080
C471	C47	0.923400	0.085200	0.809400
C481	C48	0.878320	0.141080	0.865480
C491	C49	0.423400	0.682000	0.309400
C501	C50	0.378320	0.615120	0.365480
C511	C51	0.182000	0.923400	0.585200
C521	C52	0.115120	0.878320	0.641080
C531	C53	0.809400	0.585200	0.923400
C541	C54	0.865480	0.641080	0.878320
C551	C55	0.085200	0.309400	0.682000
C561	C56	0.141080	0.365480	0.615120
C571	C57	0.423400	0.309400	0.585200
C581	C58	0.378320	0.365480	0.641080
C591	C59	0.182000	0.585200	0.309400
C601	C60	0.115120	0.641080	0.365480
C611	C61	0.809400	0.923400	0.682000
C621	C62	0.865480	0.878320	0.615120
C631	C63	0.085200	0.682000	0.923400
C641	C64	0.141080	0.615120	0.878320
C651	C65	0.423400	0.585200	0.682000
C661	C66	0.378320	0.641080	0.615120
C671	C67	0.182000	0.309400	0.923400
C681	C68	0.115120	0.365480	0.878320
C691	C69	0.809400	0.682000	0.585200
C701	C70	0.865480	0.615120	0.641080
C711	C71	0.085200	0.923400	0.309400
C721	C72	0.141080	0.878320	0.365480
C731	C73	0.318000	0.576600	0.190600
C741	C74	0.384880	0.621680	0.134520
C751	C75	0.076600	0.818000	0.914800
C761	C76	0.121680	0.884880	0.858920
C771	C77	0.414800	0.190600	0.576600
C781	C78	0.358920	0.134520	0.621680
C791	C79	0.690600	0.914800	0.818000
C801	C80	0.634520	0.858920	0.884880
C811	C81	0.690600	0.576600	0.914800
C821	C82	0.634520	0.621680	0.858920
C831	C83	0.414800	0.818000	0.190600
C841	C84	0.358920	0.884880	0.134520
C851	C85	0.076600	0.190600	0.818000
C861	C86	0.121680	0.134520	0.884880
C871	C87	0.318000	0.914800	0.576600
C881	C88	0.384880	0.858920	0.621680
C891	C89	0.414800	0.576600	0.818000
C901	C90	0.358920	0.621680	0.884880
C911	C91	0.690600	0.818000	0.576600
C921	C92	0.634520	0.884880	0.621680
C931	C93	0.318000	0.190600	0.914800
C941	C94	0.384880	0.134520	0.858920
C951	C95	0.076600	0.914800	0.190600
C961	C96	0.121680	0.858920	0.134520
O11	O1	0.688470	0.371190	0.646270
O21	O2	0.590620	0.451180	0.578360
O31	O3	0.871190	0.188470	0.294070
O41	O4	0.951180	0.090620	0.379840
O51	O5	0.146270	0.294070	0.188470
O61	O6	0.078360	0.379840	0.090620
O71	O7	0.794070	0.646270	0.371190
O81	O8	0.879840	0.578360	0.451180
O91	O9	0.688470	0.646270	0.294070
O101	O10	0.590620	0.578360	0.379840
O111	O11	0.871190	0.294070	0.646270
O121	O12	0.951180	0.379840	0.578360
O131	O13	0.146270	0.188470	0.371190
O141	O14	0.078360	0.090620	0.451180
O151	O15	0.794070	0.371190	0.188470
O161	O16	0.879840	0.451180	0.090620
O171	O17	0.688470	0.294070	0.371190
O181	O18	0.590620	0.379840	0.451180
O191	O19	0.871190	0.646270	0.188470
O201	O20	0.951180	0.578360	0.090620
O211	O21	0.146270	0.371190	0.294070
O221	O22	0.078360	0.451180	0.379840
O231	O23	0.794070	0.188470	0.646270
O241	O24	0.879840	0.090620	0.578360
O251	O25	0.628810	0.311530	0.853730
O261	O26	0.548820	0.409380	0.921640
O271	O27	0.811530	0.128810	0.205930
O281	O28	0.909380	0.048820	0.120160
O291	O29	0.705930	0.853730	0.311530
O301	O30	0.620160	0.921640	0.409380
O311	O31	0.353730	0.205930	0.128810
O321	O32	0.421640	0.120160	0.048820
O331	O33	0.353730	0.311530	0.205930
O341	O34	0.421640	0.409380	0.120160
O351	O35	0.705930	0.128810	0.853730
O361	O36	0.620160	0.048820	0.921640
O371	O37	0.811530	0.853730	0.128810
O381	O38	0.909380	0.921640	0.048820
O391	O39	0.628810	0.205930	0.311530
O401	O40	0.548820	0.120160	0.409380
O411	O41	0.705930	0.311530	0.128810
O421	O42	0.620160	0.409380	0.048820
O431	O43	0.353730	0.128810	0.311530
O441	O44	0.421640	0.048820	0.409380
O451	O45	0.628810	0.853730	0.205930
O461	O46	0.548820	0.921640	0.120160
O471	O47	0.811530	0.205930	0.853730
O481	O48	0.909380	0.120160	0.921640
O491	O49	0.311530	0.628810	0.353730
O501	O50	0.409380	0.548820	0.421640
O511	O51	0.128810	0.811530	0.705930
O521	O52	0.048820	0.909380	0.620160
O531	O53	0.853730	0.705930	0.811530
O541	O54	0.921640	0.620160	0.909380
O551	O55	0.205930	0.353730	0.628810
O561	O56	0.120160	0.421640	0.548820
O571	O57	0.311530	0.353730	0.705930
O581	O58	0.409380	0.421640	0.620160
O591	O59	0.128810	0.705930	0.353730
O601	O60	0.048820	0.620160	0.421640
O611	O61	0.853730	0.811530	0.628810
O621	O62	0.921640	0.909380	0.548820
O631	O63	0.205930	0.628810	0.811530
O641	O64	0.120160	0.548820	0.909380
O651	O65	0.311530	0.705930	0.628810
O661	O66	0.409380	0.620160	0.548820
O671	O67	0.128810	0.353730	0.811530
O681	O68	0.048820	0.421640	0.909380
O691	O69	0.853730	0.628810	0.705930
O701	O70	0.921640	0.548820	0.620160
O711	O71	0.205930	0.811530	0.353730
O721	O72	0.120160	0.909380	0.421640
O731	O73	0.371190	0.688470	0.146270
O741	O74	0.451180	0.590620	0.078360
O751	O75	0.188470	0.871190	0.794070
O761	O76	0.090620	0.951180	0.879840
O771	O77	0.294070	0.146270	0.688470
O781	O78	0.379840	0.078360	0.590620
O791	O79	0.646270	0.794070	0.871190
O801	O80	0.578360	0.879840	0.951180
O811	O81	0.646270	0.688470	0.794070
O821	O82	0.578360	0.590620	0.879840
O831	O83	0.294070	0.871190	0.146270
O841	O84	0.379840	0.951180	0.078360
O851	O85	0.188470	0.146270	0.871190
O861	O86	0.090620	0.078360	0.951180
O871	O87	0.371190	0.794070	0.688470
O881	O88	0.451180	0.879840	0.590620
O891	O89	0.294070	0.688470	0.871190
O901	O90	0.379840	0.590620	0.951180
O911	O91	0.646270	0.871190	0.688470
O921	O92	0.578360	0.951180	0.590620
O931	O93	0.371190	0.146270	0.794070
O941	O94	0.451180	0.078360	0.879840
O951	O95	0.188470	0.794070	0.146270
O961	O96	0.090620	0.879840	0.078360
O971	O97	0.620500	0.250000	0.750000
O981	O98	0.750000	0.120500	0.379500
O991	O99	0.250000	0.379500	0.120500
O1001	O100	0.879500	0.750000	0.250000
O1011	O101	0.620500	0.750000	0.379500
O1021	O102	0.750000	0.379500	0.750000
O1031	O103	0.250000	0.120500	0.250000
O1041	O104	0.879500	0.250000	0.120500
O1051	O105	0.620500	0.379500	0.250000
O1061	O106	0.750000	0.750000	0.120500
O1071	O107	0.250000	0.250000	0.379500
O1081	O108	0.879500	0.120500	0.750000
O1091	O109	0.379500	0.750000	0.250000
O1101	O110	0.250000	0.879500	0.620500
O1111	O111	0.750000	0.620500	0.879500
O1121	O112	0.120500	0.250000	0.750000
O1131	O113	0.379500	0.250000	0.620500
O1141	O114	0.250000	0.620500	0.250000
O1151	O115	0.750000	0.879500	0.750000
O1161	O116	0.120500	0.750000	0.879500
O1171	O117	0.379500	0.620500	0.750000
O1181	O118	0.250000	0.250000	0.879500
O1191	O119	0.750000	0.750000	0.620500
O1201	O120	0.120500	0.879500	0.250000
