data_FERVEF_freeONLY_PM
_symmetry_space_group_name_H-M	'P1'
_cell_length_a	26.227000
_cell_length_b	26.227000
_cell_length_c	9.354100
_cell_angle_alpha	90.000000
_cell_angle_beta	90.000000
_cell_angle_gamma	120.000000
_symmetry_Int_Tables_number 1

loop_
_symmetry_equiv_pos_as_xyz
'x,y,z'

loop_
_atom_site_label
_atom_site_type_symbol
_atom_site_fract_x
_atom_site_fract_y
_atom_site_fract_z
N11	N1	0.552100	0.997500	0.855900
C11	C1	0.484800	0.881900	0.006500
H11	H1	0.525700	0.902900	0.008600
C21	C2	0.456200	0.820400	0.004000
H21	H2	0.477800	0.801200	0.004200
C31	C3	0.583200	0.989400	0.782800
N21	N2	0.218770	0.330830	0.189230
C41	C4	0.151470	0.215230	0.339830
H31	H3	0.192370	0.236230	0.341930
C51	C5	0.122870	0.153730	0.337330
H41	H4	0.144470	0.134530	0.337530
C61	C6	0.249870	0.322730	0.116130
N31	N3	0.885430	0.664170	0.522570
C71	C7	0.818130	0.548570	0.673170
H51	H5	0.859030	0.569570	0.675270
C81	C8	0.789530	0.487070	0.670670
H61	H6	0.811130	0.467870	0.670870
C91	C9	0.916530	0.656070	0.449470
N41	N4	0.002500	0.554600	0.855900
C101	C10	0.118100	0.602900	0.006500
H71	H7	0.097100	0.622800	0.008600
C111	C11	0.179600	0.635800	0.004000
H81	H8	0.198800	0.676600	0.004200
C121	C12	0.010600	0.593800	0.782800
N51	N5	0.669170	0.887930	0.189230
C131	C13	0.784770	0.936230	0.339830
H91	H9	0.763770	0.956130	0.341930
C141	C14	0.846270	0.969130	0.337330
H101	H10	0.865470	0.009930	0.337530
C151	C15	0.677270	0.927130	0.116130
N61	N6	0.335830	0.221270	0.522570
C161	C16	0.451430	0.269570	0.673170
H111	H11	0.430430	0.289470	0.675270
C171	C17	0.512930	0.302470	0.670670
H121	H12	0.532130	0.343270	0.670870
C181	C18	0.343930	0.260470	0.449470
N71	N7	0.445400	0.447900	0.855900
C191	C19	0.397100	0.515200	0.006500
H131	H13	0.377200	0.474300	0.008600
C201	C20	0.364200	0.543800	0.004000
H141	H14	0.323400	0.522200	0.004200
C211	C21	0.406200	0.416800	0.782800
N81	N8	0.112070	0.781230	0.189230
C221	C22	0.063770	0.848530	0.339830
H151	H15	0.043870	0.807630	0.341930
C231	C23	0.030870	0.877130	0.337330
H161	H16	0.990070	0.855530	0.337530
C241	C24	0.072870	0.750130	0.116130
N91	N9	0.778730	0.114570	0.522570
C251	C25	0.730430	0.181870	0.673170
H171	H17	0.710530	0.140970	0.675270
C261	C26	0.697530	0.210470	0.670670
H181	H18	0.656730	0.188870	0.670870
C271	C27	0.739530	0.083470	0.449470
N101	N10	0.997500	0.552100	0.144100
C281	C28	0.881900	0.484800	0.993500
H191	H19	0.902900	0.525700	0.991400
C291	C29	0.820400	0.456200	0.996000
H201	H20	0.801200	0.477800	0.995800
C301	C30	0.989400	0.583200	0.217200
N111	N11	0.664170	0.885430	0.477430
C311	C31	0.548570	0.818130	0.326830
H211	H21	0.569570	0.859030	0.324730
C321	C32	0.487070	0.789530	0.329330
H221	H22	0.467870	0.811130	0.329130
C331	C33	0.656070	0.916530	0.550530
N121	N12	0.330830	0.218770	0.810770
C341	C34	0.215230	0.151470	0.660170
H231	H23	0.236230	0.192370	0.658070
C351	C35	0.153730	0.122870	0.662670
H241	H24	0.134530	0.144470	0.662470
C361	C36	0.322730	0.249870	0.883870
N131	N13	0.554600	0.002500	0.144100
C371	C37	0.602900	0.118100	0.993500
H251	H25	0.622800	0.097100	0.991400
C381	C38	0.635800	0.179600	0.996000
H261	H26	0.676600	0.198800	0.995800
C391	C39	0.593800	0.010600	0.217200
N141	N14	0.221270	0.335830	0.477430
C401	C40	0.269570	0.451430	0.326830
H271	H27	0.289470	0.430430	0.324730
C411	C41	0.302470	0.512930	0.329330
H281	H28	0.343270	0.532130	0.329130
C421	C42	0.260470	0.343930	0.550530
N151	N15	0.887930	0.669170	0.810770
C431	C43	0.936230	0.784770	0.660170
H291	H29	0.956130	0.763770	0.658070
C441	C44	0.969130	0.846270	0.662670
H301	H30	0.009930	0.865470	0.662470
C451	C45	0.927130	0.677270	0.883870
N161	N16	0.447900	0.445400	0.144100
C461	C46	0.515200	0.397100	0.993500
H311	H31	0.474300	0.377200	0.991400
C471	C47	0.543800	0.364200	0.996000
H321	H32	0.522200	0.323400	0.995800
C481	C48	0.416800	0.406200	0.217200
N171	N17	0.114570	0.778730	0.477430
C491	C49	0.181870	0.730430	0.326830
H331	H33	0.140970	0.710530	0.324730
C501	C50	0.210470	0.697530	0.329330
H341	H34	0.188870	0.656730	0.329130
C511	C51	0.083470	0.739530	0.550530
N181	N18	0.781230	0.112070	0.810770
C521	C52	0.848530	0.063770	0.660170
H351	H35	0.807630	0.043870	0.658070
C531	C53	0.877130	0.030870	0.662670
H361	H36	0.855530	0.990070	0.662470
C541	C54	0.750130	0.072870	0.883870
N191	N19	0.447900	0.002500	0.144100
C551	C55	0.515200	0.118100	0.993500
H371	H37	0.474300	0.097100	0.991400
C561	C56	0.543800	0.179600	0.996000
H381	H38	0.522200	0.198800	0.995800
C571	C57	0.416800	0.010600	0.217200
N201	N20	0.114570	0.335830	0.477430
C581	C58	0.181870	0.451430	0.326830
H391	H39	0.140970	0.430430	0.324730
C591	C59	0.210470	0.512930	0.329330
H401	H40	0.188870	0.532130	0.329130
C601	C60	0.083470	0.343930	0.550530
N211	N21	0.781230	0.669170	0.810770
C611	C61	0.848530	0.784770	0.660170
H411	H41	0.807630	0.763770	0.658070
C621	C62	0.877130	0.846270	0.662670
H421	H42	0.855530	0.865470	0.662470
C631	C63	0.750130	0.677270	0.883870
N221	N22	0.997500	0.445400	0.144100
C641	C64	0.881900	0.397100	0.993500
H431	H43	0.902900	0.377200	0.991400
C651	C65	0.820400	0.364200	0.996000
H441	H44	0.801200	0.323400	0.995800
C661	C66	0.989400	0.406200	0.217200
N231	N23	0.664170	0.778730	0.477430
C671	C67	0.548570	0.730430	0.326830
H451	H45	0.569570	0.710530	0.324730
C681	C68	0.487070	0.697530	0.329330
H461	H46	0.467870	0.656730	0.329130
C691	C69	0.656070	0.739530	0.550530
N241	N24	0.330830	0.112070	0.810770
C701	C70	0.215230	0.063770	0.660170
H471	H47	0.236230	0.043870	0.658070
C711	C71	0.153730	0.030870	0.662670
H481	H48	0.134530	0.990070	0.662470
C721	C72	0.322730	0.072870	0.883870
N251	N25	0.554600	0.552100	0.144100
C731	C73	0.602900	0.484800	0.993500
H491	H49	0.622800	0.525700	0.991400
C741	C74	0.635800	0.456200	0.996000
H501	H50	0.676600	0.477800	0.995800
C751	C75	0.593800	0.583200	0.217200
N261	N26	0.221270	0.885430	0.477430
C761	C76	0.269570	0.818130	0.326830
H511	H51	0.289470	0.859030	0.324730
C771	C77	0.302470	0.789530	0.329330
H521	H52	0.343270	0.811130	0.329130
C781	C78	0.260470	0.916530	0.550530
N271	N27	0.887930	0.218770	0.810770
C791	C79	0.936230	0.151470	0.660170
H531	H53	0.956130	0.192370	0.658070
C801	C80	0.969130	0.122870	0.662670
H541	H54	0.009930	0.144470	0.662470
C811	C81	0.927130	0.249870	0.883870
N281	N28	0.002500	0.447900	0.855900
C821	C82	0.118100	0.515200	0.006500
H551	H55	0.097100	0.474300	0.008600
C831	C83	0.179600	0.543800	0.004000
H561	H56	0.198800	0.522200	0.004200
C841	C84	0.010600	0.416800	0.782800
N291	N29	0.669170	0.781230	0.189230
C851	C85	0.784770	0.848530	0.339830
H571	H57	0.763770	0.807630	0.341930
C861	C86	0.846270	0.877130	0.337330
H581	H58	0.865470	0.855530	0.337530
C871	C87	0.677270	0.750130	0.116130
N301	N30	0.335830	0.114570	0.522570
C881	C88	0.451430	0.181870	0.673170
H591	H59	0.430430	0.140970	0.675270
C891	C89	0.512930	0.210470	0.670670
H601	H60	0.532130	0.188870	0.670870
C901	C90	0.343930	0.083470	0.449470
N311	N31	0.445400	0.997500	0.855900
C911	C91	0.397100	0.881900	0.006500
H611	H61	0.377200	0.902900	0.008600
C921	C92	0.364200	0.820400	0.004000
H621	H62	0.323400	0.801200	0.004200
C931	C93	0.406200	0.989400	0.782800
N321	N32	0.112070	0.330830	0.189230
C941	C94	0.063770	0.215230	0.339830
H631	H63	0.043870	0.236230	0.341930
C951	C95	0.030870	0.153730	0.337330
H641	H64	0.990070	0.134530	0.337530
C961	C96	0.072870	0.322730	0.116130
N331	N33	0.778730	0.664170	0.522570
C971	C97	0.730430	0.548570	0.673170
H651	H65	0.710530	0.569570	0.675270
C981	C98	0.697530	0.487070	0.670670
H661	H66	0.656730	0.467870	0.670870
C991	C99	0.739530	0.656070	0.449470
N341	N34	0.552100	0.554600	0.855900
C1001	C100	0.484800	0.602900	0.006500
H671	H67	0.525700	0.622800	0.008600
C1011	C101	0.456200	0.635800	0.004000
H681	H68	0.477800	0.676600	0.004200
C1021	C102	0.583200	0.593800	0.782800
N351	N35	0.218770	0.887930	0.189230
C1031	C103	0.151470	0.936230	0.339830
H691	H69	0.192370	0.956130	0.341930
C1041	C104	0.122870	0.969130	0.337330
H701	H70	0.144470	0.009930	0.337530
C1051	C105	0.249870	0.927130	0.116130
N361	N36	0.885430	0.221270	0.522570
C1061	C106	0.818130	0.269570	0.673170
H711	H71	0.859030	0.289470	0.675270
C1071	C107	0.789530	0.302470	0.670670
H721	H72	0.811130	0.343270	0.670870
C1081	C108	0.916530	0.260470	0.449470
Au11	Au1	0.626250	0.959590	0.666670
Au21	Au2	0.292920	0.292920	0.000000
Au31	Au3	0.040410	0.666670	0.666670
Au41	Au4	0.707080	0.000000	0.000000
Au51	Au5	0.333330	0.373750	0.666670
Au61	Au6	0.000000	0.707080	0.000000
Au71	Au7	0.959590	0.626250	0.333330
Au81	Au8	0.666670	0.040410	0.333330
Au91	Au9	0.373750	0.333330	0.333330
Au101	Au10	0.373750	0.040410	0.333330
Au111	Au11	0.959590	0.333330	0.333330
Au121	Au12	0.666670	0.626250	0.333330
Au131	Au13	0.040410	0.373750	0.666670
Au141	Au14	0.707080	0.707080	0.000000
Au151	Au15	0.333330	0.959590	0.666670
Au161	Au16	0.000000	0.292920	0.000000
Au171	Au17	0.626250	0.666670	0.666670
Au181	Au18	0.292920	0.000000	0.000000
Fe11	Fe1	0.500000	0.000000	0.000000
Fe21	Fe2	0.166670	0.333330	0.333330
Fe31	Fe3	0.833330	0.666670	0.666670
Fe41	Fe4	0.000000	0.500000	0.000000
Fe51	Fe5	0.666670	0.833330	0.333330
Fe61	Fe6	0.333330	0.166670	0.666670
Fe71	Fe7	0.500000	0.500000	0.000000
Fe81	Fe8	0.166670	0.833330	0.333330
Fe91	Fe9	0.833330	0.166670	0.666670
N371	N37	0.456000	0.912000	0.005900
C1091	C109	0.393900	0.787800	0.001000
C1101	C110	0.362100	0.724200	0.995100
N381	N38	0.122670	0.245330	0.339230
C1111	C111	0.060570	0.121130	0.334330
C1121	C112	0.028770	0.057530	0.328430
N391	N39	0.789330	0.578670	0.672570
C1131	C113	0.727230	0.454470	0.667670
C1141	C114	0.695430	0.390870	0.661770
N401	N40	0.088000	0.544000	0.005900
C1151	C115	0.212200	0.606100	0.001000
C1161	C116	0.275800	0.637900	0.995100
N411	N41	0.754670	0.877330	0.339230
C1171	C117	0.878870	0.939430	0.334330
C1181	C118	0.942470	0.971230	0.328430
N421	N42	0.421330	0.210670	0.672570
C1191	C119	0.545530	0.272770	0.667670
C1201	C120	0.609130	0.304570	0.661770
N431	N43	0.456000	0.544000	0.005900
C1211	C121	0.393900	0.606100	0.001000
C1221	C122	0.362100	0.637900	0.995100
N441	N44	0.122670	0.877330	0.339230
C1231	C123	0.060570	0.939430	0.334330
C1241	C124	0.028770	0.971230	0.328430
N451	N45	0.789330	0.210670	0.672570
C1251	C125	0.727230	0.272770	0.667670
C1261	C126	0.695430	0.304570	0.661770
N461	N46	0.912000	0.456000	0.994100
C1271	C127	0.787800	0.393900	0.999000
C1281	C128	0.724200	0.362100	0.004900
N471	N47	0.578670	0.789330	0.327430
C1291	C129	0.454470	0.727230	0.332330
C1301	C130	0.390870	0.695430	0.338230
N481	N48	0.245330	0.122670	0.660770
C1311	C131	0.121130	0.060570	0.665670
C1321	C132	0.057530	0.028770	0.671570
N491	N49	0.544000	0.088000	0.994100
C1331	C133	0.606100	0.212200	0.999000
C1341	C134	0.637900	0.275800	0.004900
N501	N50	0.210670	0.421330	0.327430
C1351	C135	0.272770	0.545530	0.332330
C1361	C136	0.304570	0.609130	0.338230
N511	N51	0.877330	0.754670	0.660770
C1371	C137	0.939430	0.878870	0.665670
C1381	C138	0.971230	0.942470	0.671570
N521	N52	0.544000	0.456000	0.994100
C1391	C139	0.606100	0.393900	0.999000
C1401	C140	0.637900	0.362100	0.004900
N531	N53	0.210670	0.789330	0.327430
C1411	C141	0.272770	0.727230	0.332330
C1421	C142	0.304570	0.695430	0.338230
N541	N54	0.877330	0.122670	0.660770
C1431	C143	0.939430	0.060570	0.665670
C1441	C144	0.971230	0.028770	0.671570
N551	N55	0.393800	0.696900	0.996400
N561	N56	0.060470	0.030230	0.329730
N571	N57	0.727130	0.363570	0.663070
N581	N58	0.303100	0.696900	0.996400
N591	N59	0.969770	0.030230	0.329730
N601	N60	0.636430	0.363570	0.663070
N611	N61	0.303100	0.606200	0.996400
N621	N62	0.969770	0.939530	0.329730
N631	N63	0.636430	0.272870	0.663070
N641	N64	0.696900	0.393800	0.003600
N651	N65	0.363570	0.727130	0.336930
N661	N66	0.030230	0.060470	0.670270
N671	N67	0.696900	0.303100	0.003600
N681	N68	0.363570	0.636430	0.336930
N691	N69	0.030230	0.969770	0.670270
N701	N70	0.606200	0.303100	0.003600
N711	N71	0.272870	0.636430	0.336930
N721	N72	0.939530	0.969770	0.670270
