data_FERWAC_freeONLY_PM
_symmetry_space_group_name_H-M	'P1'
_cell_length_a	9.969630
_cell_length_b	15.738900
_cell_length_c	15.738900
_cell_angle_alpha	64.333900
_cell_angle_beta	77.810500
_cell_angle_gamma	102.190000
_symmetry_Int_Tables_number 1

loop_
_symmetry_equiv_pos_as_xyz
'x,y,z'

loop_
_atom_site_label
_atom_site_type_symbol
_atom_site_fract_x
_atom_site_fract_y
_atom_site_fract_z
Fe11	Fe1	0.500000	0.000000	0.500000
Fe21	Fe2	0.000000	0.500000	0.500000
Fe31	Fe3	0.500000	0.500000	0.000000
Ag11	Ag1	0.703380	0.703380	0.593240
Ag21	Ag2	0.296620	0.593240	0.703380
Ag31	Ag3	0.000000	0.703380	0.703380
Ag41	Ag4	0.296620	0.296620	0.406760
Ag51	Ag5	0.703380	0.406760	0.296620
Ag61	Ag6	0.000000	0.296620	0.296620
H11	H1	0.469100	0.853700	0.419600
H21	H2	0.516800	0.850400	0.272000
H31	H3	0.888700	0.419600	0.726700
H41	H4	0.788800	0.272000	0.877600
H51	H5	0.615400	0.726700	0.853700
H61	H6	0.666400	0.877600	0.850400
H71	H7	0.111300	0.726700	0.419600
H81	H8	0.211200	0.877600	0.272000
H91	H9	0.384600	0.853700	0.726700
H101	H10	0.333600	0.850400	0.877600
H111	H11	0.530900	0.419600	0.853700
H121	H12	0.483200	0.272000	0.850400
H131	H13	0.530900	0.146300	0.580400
H141	H14	0.483200	0.149600	0.728000
H151	H15	0.111300	0.580400	0.273300
H161	H16	0.211200	0.728000	0.122400
H171	H17	0.384600	0.273300	0.146300
H181	H18	0.333600	0.122400	0.149600
H191	H19	0.888700	0.273300	0.580400
H201	H20	0.788800	0.122400	0.728000
H211	H21	0.615400	0.146300	0.273300
H221	H22	0.666400	0.149600	0.122400
H231	H23	0.469100	0.580400	0.146300
H241	H24	0.516800	0.728000	0.149600
C11	C1	0.511100	0.914100	0.358800
C21	C2	0.539600	0.911400	0.270900
C31	C3	0.627100	0.817700	0.578000
C41	C4	0.869900	0.358800	0.727100
C51	C5	0.810500	0.270900	0.817700
C61	C6	0.205100	0.578000	0.604300
C71	C7	0.597000	0.727100	0.914100
C81	C8	0.628200	0.817700	0.911400
C91	C9	0.809400	0.604300	0.817700
C101	C10	0.130100	0.727100	0.358800
C111	C11	0.189500	0.817700	0.270900
C121	C12	0.794900	0.604300	0.578000
C131	C13	0.403000	0.914100	0.727100
C141	C14	0.371800	0.911400	0.817700
C151	C15	0.190600	0.817700	0.604300
C161	C16	0.488900	0.358800	0.914100
C171	C17	0.460400	0.270900	0.911400
C181	C18	0.372900	0.578000	0.817700
C191	C19	0.488900	0.085900	0.641200
C201	C20	0.460400	0.088600	0.729100
C211	C21	0.372900	0.182300	0.422000
C221	C22	0.130100	0.641200	0.272900
C231	C23	0.189500	0.729100	0.182300
C241	C24	0.794900	0.422000	0.395700
C251	C25	0.403000	0.272900	0.085900
C261	C26	0.371800	0.182300	0.088600
C271	C27	0.190600	0.395700	0.182300
C281	C28	0.869900	0.272900	0.641200
C291	C29	0.810500	0.182300	0.729100
C301	C30	0.205100	0.395700	0.422000
C311	C31	0.597000	0.085900	0.272900
C321	C32	0.628200	0.088600	0.182300
C331	C33	0.809400	0.182300	0.395700
C341	C34	0.511100	0.641200	0.085900
C351	C35	0.539600	0.729100	0.088600
C361	C36	0.627100	0.422000	0.182300
C371	C37	0.602150	0.000000	0.181450
C381	C38	0.634500	0.000000	0.083200
C391	C39	0.783600	0.181450	0.818550
C401	C40	0.717700	0.083200	0.916800
C411	C41	0.602150	0.818550	0.000000
C421	C42	0.634500	0.916800	0.000000
C431	C43	0.216400	0.818550	0.181450
C441	C44	0.282300	0.916800	0.083200
C451	C45	0.397850	0.000000	0.818550
C461	C46	0.365500	0.000000	0.916800
C471	C47	0.397850	0.181450	0.000000
C481	C48	0.365500	0.083200	0.000000
N11	N1	0.587900	0.885800	0.555500
N21	N2	0.143400	0.555500	0.558700
N31	N3	0.702100	0.558700	0.885800
N41	N4	0.856600	0.558700	0.555500
N51	N5	0.297900	0.885800	0.558700
N61	N6	0.412100	0.555500	0.885800
N71	N7	0.412100	0.114200	0.444500
N81	N8	0.856600	0.444500	0.441300
N91	N9	0.297900	0.441300	0.114200
N101	N10	0.143400	0.441300	0.444500
N111	N11	0.702100	0.114200	0.441300
N121	N12	0.587900	0.444500	0.114200
N131	N13	0.541500	0.000000	0.360100
N141	N14	0.901600	0.360100	0.639900
N151	N15	0.541500	0.639900	0.000000
N161	N16	0.098400	0.639900	0.360100
N171	N17	0.458500	0.000000	0.639900
N181	N18	0.458500	0.360100	0.000000
N191	N19	0.605420	0.911780	0.088220
N201	N20	0.693640	0.088220	0.000000
N211	N21	0.693640	0.000000	0.911780
N221	N22	0.306360	0.000000	0.088220
N231	N23	0.306360	0.911780	0.000000
N241	N24	0.394580	0.088220	0.911780
