data_FEVTEF_charged_PM
_symmetry_space_group_name_H-M	'P1'
_cell_length_a	11.301000
_cell_length_b	13.194200
_cell_length_c	20.326200
_cell_angle_alpha	102.130000
_cell_angle_beta	90.000000
_cell_angle_gamma	115.357000
_symmetry_Int_Tables_number 1

loop_
_symmetry_equiv_pos_as_xyz
'x,y,z'

loop_
_atom_site_label
_atom_site_type_symbol
_atom_site_fract_x
_atom_site_fract_y
_atom_site_fract_z
Co11	Co1	0.806720	0.000000	0.250000
Cl11	Cl1	0.656410	0.923940	0.158250
Cl21	Cl2	0.993710	0.141640	0.225140
Cl31	Cl3	0.732470	0.076060	0.341750
Cl41	Cl4	0.852070	0.858360	0.274860
Co21	Co2	0.193280	0.000000	0.750000
Cl51	Cl5	0.343590	0.076060	0.841750
Cl61	Cl6	0.006290	0.858360	0.774860
Cl71	Cl7	0.267530	0.923940	0.658250
Cl81	Cl8	0.147930	0.141640	0.725140
Co31	Co3	0.000000	0.500000	0.000000
Co41	Co4	0.500000	0.500000	0.500000
H11	H1	0.890100	0.668000	0.852200
H21	H2	0.867500	0.542400	0.853200
H31	H3	0.851500	0.622200	0.918100
H41	H4	0.097200	0.784400	0.855400
H51	H5	0.293600	0.740200	0.897800
H61	H6	0.312100	0.834000	0.857200
H71	H7	0.291800	0.953600	0.957600
H81	H8	0.284500	0.861400	0.997400
H91	H9	0.498300	0.890400	0.975400
H101	H10	0.505600	0.973600	0.929000
H111	H11	0.449900	0.691400	0.036200
H121	H12	0.352800	0.561200	0.029200
H131	H13	0.329300	0.630400	0.980700
H141	H14	0.419300	0.814000	0.117400
H151	H15	0.301300	0.788600	0.219700
H161	H16	0.174900	0.747600	0.169100
H171	H17	0.392100	0.960400	0.189800
H181	H18	0.267800	0.919400	0.137400
H191	H19	0.130610	0.908420	0.220400
H201	H20	0.225920	0.897040	0.271900
H211	H21	0.882000	0.640600	0.200500
H221	H22	0.834700	0.516200	0.154400
H231	H23	0.985100	0.601200	0.167200
H241	H24	0.846500	0.755400	0.152200
H251	H25	0.811500	0.724600	0.016200
H261	H26	0.767000	0.803000	0.069300
H271	H27	0.988400	0.940000	0.097900
H281	H28	0.031500	0.862200	0.043700
H291	H29	0.865600	0.956400	0.007600
H301	H30	0.928300	0.892000	0.956500
H311	H31	0.222100	0.332000	0.647800
H321	H32	0.325100	0.457600	0.646800
H331	H33	0.229300	0.377800	0.581900
H341	H34	0.312800	0.215600	0.644600
H351	H35	0.553400	0.259800	0.602200
H361	H36	0.478100	0.166000	0.642800
H371	H37	0.338200	0.046400	0.542400
H381	H38	0.423100	0.138600	0.502600
H391	H39	0.607900	0.109600	0.524600
H401	H40	0.532000	0.026400	0.571000
H411	H41	0.758500	0.308600	0.463800
H421	H42	0.791600	0.438800	0.470800
H431	H43	0.698900	0.369600	0.519300
H441	H44	0.605300	0.186000	0.382600
H451	H45	0.512700	0.211400	0.280300
H461	H46	0.427300	0.252400	0.330900
H471	H47	0.431700	0.039600	0.310200
H481	H48	0.348400	0.080600	0.362600
H491	H49	0.222190	0.091580	0.279600
H501	H50	0.328880	0.102960	0.228100
H511	H51	0.241400	0.359400	0.299500
H521	H52	0.318500	0.483800	0.345600
H531	H53	0.383900	0.398800	0.332800
H541	H54	0.091100	0.244600	0.347800
H551	H55	0.086900	0.275400	0.483800
H561	H56	0.964000	0.197000	0.430700
H571	H57	0.048400	0.060000	0.402100
H581	H58	0.169300	0.137800	0.456300
H591	H59	0.909200	0.043600	0.492400
H601	H60	0.036300	0.108000	0.543500
H611	H61	0.109900	0.332000	0.147800
H621	H62	0.132500	0.457600	0.146800
H631	H63	0.148500	0.377800	0.081900
H641	H64	0.902800	0.215600	0.144600
H651	H65	0.706400	0.259800	0.102200
H661	H66	0.687900	0.166000	0.142800
H671	H67	0.708200	0.046400	0.042400
H681	H68	0.715500	0.138600	0.002600
H691	H69	0.501700	0.109600	0.024600
H701	H70	0.494400	0.026400	0.071000
H711	H71	0.550100	0.308600	0.963800
H721	H72	0.647200	0.438800	0.970800
H731	H73	0.670700	0.369600	0.019300
H741	H74	0.580700	0.186000	0.882600
H751	H75	0.698700	0.211400	0.780300
H761	H76	0.825100	0.252400	0.830900
H771	H77	0.607900	0.039600	0.810200
H781	H78	0.732200	0.080600	0.862600
H791	H79	0.869390	0.091580	0.779600
H801	H80	0.774080	0.102960	0.728100
H811	H81	0.118000	0.359400	0.799500
H821	H82	0.165300	0.483800	0.845600
H831	H83	0.014900	0.398800	0.832800
H841	H84	0.153500	0.244600	0.847800
H851	H85	0.188500	0.275400	0.983800
H861	H86	0.233000	0.197000	0.930700
H871	H87	0.011600	0.060000	0.902100
H881	H88	0.968500	0.137800	0.956300
H891	H89	0.134400	0.043600	0.992400
H901	H90	0.071700	0.108000	0.043500
H911	H91	0.777900	0.668000	0.352200
H921	H92	0.674900	0.542400	0.353200
H931	H93	0.770700	0.622200	0.418100
H941	H94	0.687200	0.784400	0.355400
H951	H95	0.446600	0.740200	0.397800
H961	H96	0.521900	0.834000	0.357200
H971	H97	0.661800	0.953600	0.457600
H981	H98	0.576900	0.861400	0.497400
H991	H99	0.392100	0.890400	0.475400
H1001	H100	0.468000	0.973600	0.429000
H1011	H101	0.241500	0.691400	0.536200
H1021	H102	0.208400	0.561200	0.529200
H1031	H103	0.301100	0.630400	0.480700
H1041	H104	0.394700	0.814000	0.617400
H1051	H105	0.487300	0.788600	0.719700
H1061	H106	0.572700	0.747600	0.669100
H1071	H107	0.568300	0.960400	0.689800
H1081	H108	0.651600	0.919400	0.637400
H1091	H109	0.777810	0.908420	0.720400
H1101	H110	0.671120	0.897040	0.771900
H1111	H111	0.758600	0.640600	0.700500
H1121	H112	0.681500	0.516200	0.654400
H1131	H113	0.616100	0.601200	0.667200
H1141	H114	0.908900	0.755400	0.652200
H1151	H115	0.913100	0.724600	0.516200
H1161	H116	0.036000	0.803000	0.569300
H1171	H117	0.951600	0.940000	0.597900
H1181	H118	0.830700	0.862200	0.543700
H1191	H119	0.090800	0.956400	0.507600
H1201	H120	0.963700	0.892000	0.456500
C11	C1	0.900200	0.620400	0.879500
C21	C2	0.044300	0.665200	0.903000
C31	C3	0.269900	0.801600	0.894300
C41	C4	0.320400	0.894600	0.959400
C51	C5	0.470800	0.948400	0.969400
C61	C6	0.359700	0.635000	0.025900
C71	C7	0.277800	0.669400	0.074600
C81	C8	0.269000	0.796400	0.177700
C91	C9	0.298500	0.911000	0.179600
C101	C10	0.222050	0.935300	0.236700
C111	C11	0.898000	0.595400	0.161100
C121	C12	0.886000	0.639400	0.100700
C131	C13	0.837400	0.780400	0.059400
C141	C14	0.961700	0.885200	0.054400
C151	C15	0.943700	0.944000	0.000500
C161	C16	0.279800	0.379600	0.620500
C171	C17	0.379100	0.334800	0.597000
C181	C18	0.468300	0.198400	0.605700
C191	C19	0.425800	0.105400	0.540600
C201	C20	0.522400	0.051600	0.530600
C211	C21	0.724700	0.365000	0.474100
C221	C22	0.608400	0.330600	0.425400
C231	C23	0.472600	0.203600	0.322300
C241	C24	0.387500	0.089000	0.320400
C251	C25	0.286750	0.064700	0.263300
C261	C26	0.302600	0.404600	0.338900
C271	C27	0.246600	0.360600	0.399300
C281	C28	0.057000	0.219600	0.440600
C291	C29	0.076500	0.114800	0.445600
C301	C30	0.999700	0.056000	0.499500
C311	C31	0.099800	0.379600	0.120500
C321	C32	0.955700	0.334800	0.097000
C331	C33	0.730100	0.198400	0.105700
C341	C34	0.679600	0.105400	0.040600
C351	C35	0.529200	0.051600	0.030600
C361	C36	0.640300	0.365000	0.974100
C371	C37	0.722200	0.330600	0.925400
C381	C38	0.731000	0.203600	0.822300
C391	C39	0.701500	0.089000	0.820400
C401	C40	0.777950	0.064700	0.763300
C411	C41	0.102000	0.404600	0.838900
C421	C42	0.114000	0.360600	0.899300
C431	C43	0.162600	0.219600	0.940600
C441	C44	0.038300	0.114800	0.945600
C451	C45	0.056300	0.056000	0.999500
C461	C46	0.720200	0.620400	0.379500
C471	C47	0.620900	0.665200	0.403000
C481	C48	0.531700	0.801600	0.394300
C491	C49	0.574200	0.894600	0.459400
C501	C50	0.477600	0.948400	0.469400
C511	C51	0.275300	0.635000	0.525900
C521	C52	0.391600	0.669400	0.574600
C531	C53	0.527400	0.796400	0.677700
C541	C54	0.612500	0.911000	0.679600
C551	C55	0.713250	0.935300	0.736700
C561	C56	0.697400	0.595400	0.661100
C571	C57	0.753400	0.639400	0.600700
C581	C58	0.943000	0.780400	0.559400
C591	C59	0.923500	0.885200	0.554400
C601	C60	0.000300	0.944000	0.500500
N11	N1	0.128300	0.754000	0.880000
N21	N2	0.339400	0.767600	0.120700
N31	N3	0.855800	0.727600	0.111300
N41	N4	0.374300	0.246000	0.620000
N51	N5	0.571800	0.232400	0.379300
N61	N6	0.128200	0.272400	0.388700
N71	N7	0.871700	0.246000	0.120000
N81	N8	0.660600	0.232400	0.879300
N91	N9	0.144200	0.272400	0.888700
N101	N10	0.625700	0.754000	0.380000
N111	N11	0.428200	0.767600	0.620700
N121	N12	0.871800	0.727600	0.611300
O11	O1	0.084250	0.619100	0.939050
O21	O2	0.157340	0.611680	0.072800
O31	O3	0.901600	0.597400	0.043100
O41	O4	0.465150	0.380900	0.560950
O51	O5	0.545660	0.388320	0.427200
O61	O6	0.304200	0.402600	0.456900
O71	O7	0.915750	0.380900	0.060950
O81	O8	0.842660	0.388320	0.927200
O91	O9	0.098400	0.402600	0.956900
O101	O10	0.534850	0.619100	0.439050
O111	O11	0.454340	0.611680	0.572800
O121	O12	0.695800	0.597400	0.543100
