data_FEVVIM_charged_PM
_symmetry_space_group_name_H-M	'P1'
_cell_length_a	11.262000
_cell_length_b	13.438600
_cell_length_c	21.160000
_cell_angle_alpha	101.184000
_cell_angle_beta	90.000000
_cell_angle_gamma	114.772000
_symmetry_Int_Tables_number 1

loop_
_symmetry_equiv_pos_as_xyz
'x,y,z'

loop_
_atom_site_label
_atom_site_type_symbol
_atom_site_fract_x
_atom_site_fract_y
_atom_site_fract_z
Mn11	Mn1	0.821400	0.000000	0.250000
Br11	Br1	0.658010	0.919180	0.154010
Br21	Br2	0.023610	0.151540	0.223030
Br31	Br3	0.738830	0.080820	0.345990
Br41	Br4	0.872070	0.848460	0.276970
Mn21	Mn2	0.178600	0.000000	0.750000
Br51	Br5	0.341990	0.080820	0.845990
Br61	Br6	0.976390	0.848460	0.776970
Br71	Br7	0.261170	0.919180	0.654010
Br81	Br8	0.127930	0.151540	0.723030
Mn31	Mn3	0.000000	0.500000	0.000000
Mn41	Mn4	0.500000	0.500000	0.500000
H11	H1	0.901100	0.674400	0.857300
H21	H2	0.880500	0.552000	0.858900
H31	H3	0.862300	0.628400	0.920600
H41	H4	0.102800	0.789400	0.862000
H51	H5	0.297900	0.745800	0.904000
H61	H6	0.315600	0.836400	0.863500
H71	H7	0.292500	0.953800	0.958500
H81	H8	0.286800	0.864600	0.998100
H91	H9	0.509400	0.977800	0.933400
H101	H10	0.503200	0.896200	0.978400
H111	H11	0.548100	0.292000	0.950000
H121	H12	0.634700	0.421000	0.957500
H131	H13	0.659200	0.357200	0.007000
H141	H14	0.600800	0.185800	0.871500
H151	H15	0.854900	0.221400	0.855900
H161	H16	0.786000	0.239400	0.796400
H171	H17	0.696200	0.038400	0.845400
H181	H18	0.597200	0.059200	0.801800
H191	H19	0.759900	0.904200	0.734600
H201	H20	0.649800	0.909800	0.780500
H211	H21	0.134900	0.365600	0.810500
H221	H22	0.188500	0.486000	0.855100
H231	H23	0.036800	0.411600	0.841900
H241	H24	0.160100	0.245600	0.859500
H251	H25	0.173800	0.270000	0.990700
H261	H26	0.233500	0.200600	0.944200
H271	H27	0.021100	0.064000	0.907200
H281	H28	0.964500	0.132400	0.956700
H291	H29	0.864600	0.953800	0.002600
H301	H30	0.938400	0.897800	0.956200
H311	H31	0.226700	0.325600	0.642700
H321	H32	0.328500	0.448000	0.641100
H331	H33	0.233900	0.371600	0.579400
H341	H34	0.313400	0.210600	0.638000
H351	H35	0.552100	0.254200	0.596000
H361	H36	0.479200	0.163600	0.636500
H371	H37	0.338700	0.046200	0.541500
H381	H38	0.422200	0.135400	0.501900
H391	H39	0.531600	0.022200	0.566600
H401	H40	0.607000	0.103800	0.521600
H411	H41	0.256100	0.708000	0.550000
H421	H42	0.213700	0.579000	0.542500
H431	H43	0.302000	0.642800	0.493000
H441	H44	0.415000	0.814200	0.628500
H451	H45	0.633500	0.778600	0.644100
H461	H46	0.546600	0.760600	0.703600
H471	H47	0.657800	0.961600	0.654600
H481	H48	0.538000	0.940800	0.698200
H491	H49	0.855700	0.095800	0.765400
H501	H50	0.740000	0.090200	0.719500
H511	H51	0.769300	0.634400	0.689500
H521	H52	0.702500	0.514000	0.644900
H531	H53	0.625200	0.588400	0.658100
H541	H54	0.914500	0.754400	0.640500
H551	H55	0.903800	0.730000	0.509300
H561	H56	0.032900	0.799400	0.555800
H571	H57	0.957100	0.936000	0.592800
H581	H58	0.832100	0.867600	0.543300
H591	H59	0.910800	0.046200	0.497400
H601	H60	0.040600	0.102200	0.543800
H611	H61	0.098900	0.325600	0.142700
H621	H62	0.119500	0.448000	0.141100
H631	H63	0.137700	0.371600	0.079400
H641	H64	0.897200	0.210600	0.138000
H651	H65	0.702100	0.254200	0.096000
H661	H66	0.684400	0.163600	0.136500
H671	H67	0.707500	0.046200	0.041500
H681	H68	0.713200	0.135400	0.001900
H691	H69	0.490600	0.022200	0.066600
H701	H70	0.496800	0.103800	0.021600
H711	H71	0.451900	0.708000	0.050000
H721	H72	0.365300	0.579000	0.042500
H731	H73	0.340800	0.642800	0.993000
H741	H74	0.399200	0.814200	0.128500
H751	H75	0.145100	0.778600	0.144100
H761	H76	0.214000	0.760600	0.203600
H771	H77	0.303800	0.961600	0.154600
H781	H78	0.402800	0.940800	0.198200
H791	H79	0.240100	0.095800	0.265400
H801	H80	0.350200	0.090200	0.219500
H811	H81	0.865100	0.634400	0.189500
H821	H82	0.811500	0.514000	0.144900
H831	H83	0.963200	0.588400	0.158100
H841	H84	0.839900	0.754400	0.140500
H851	H85	0.826200	0.730000	0.009300
H861	H86	0.766500	0.799400	0.055800
H871	H87	0.978900	0.936000	0.092800
H881	H88	0.035500	0.867600	0.043300
H891	H89	0.135400	0.046200	0.997400
H901	H90	0.061600	0.102200	0.043800
H911	H91	0.773300	0.674400	0.357300
H921	H92	0.671500	0.552000	0.358900
H931	H93	0.766100	0.628400	0.420600
H941	H94	0.686600	0.789400	0.362000
H951	H95	0.447900	0.745800	0.404000
H961	H96	0.520800	0.836400	0.363500
H971	H97	0.661300	0.953800	0.458500
H981	H98	0.577800	0.864600	0.498100
H991	H99	0.468400	0.977800	0.433400
H1001	H100	0.393000	0.896200	0.478400
H1011	H101	0.743900	0.292000	0.450000
H1021	H102	0.786300	0.421000	0.457500
H1031	H103	0.698000	0.357200	0.507000
H1041	H104	0.585000	0.185800	0.371500
H1051	H105	0.366500	0.221400	0.355900
H1061	H106	0.453400	0.239400	0.296400
H1071	H107	0.342200	0.038400	0.345400
H1081	H108	0.462000	0.059200	0.301800
H1091	H109	0.144300	0.904200	0.234600
H1101	H110	0.260000	0.909800	0.280500
H1111	H111	0.230700	0.365600	0.310500
H1121	H112	0.297500	0.486000	0.355100
H1131	H113	0.374800	0.411600	0.341900
H1141	H114	0.085500	0.245600	0.359500
H1151	H115	0.096200	0.270000	0.490700
H1161	H116	0.967100	0.200600	0.444200
H1171	H117	0.042900	0.064000	0.407200
H1181	H118	0.167900	0.132400	0.456700
H1191	H119	0.089200	0.953800	0.502600
H1201	H120	0.959400	0.897800	0.456200
C11	C1	0.911700	0.627400	0.883700
C21	C2	0.049000	0.669000	0.905100
C31	C3	0.273100	0.805200	0.899500
C41	C4	0.322900	0.897000	0.961300
C51	C5	0.473700	0.952000	0.972000
C61	C6	0.634400	0.351400	0.962600
C71	C7	0.728700	0.327400	0.921500
C81	C8	0.771400	0.203400	0.833000
C91	C9	0.688700	0.078400	0.813200
C101	C10	0.761300	0.063200	0.755300
C111	C11	0.120800	0.410800	0.848100
C121	C12	0.123800	0.362200	0.906100
C131	C13	0.158700	0.218600	0.949300
C141	C14	0.038800	0.114200	0.949300
C151	C15	0.054300	0.055000	0.001600
C161	C16	0.284300	0.372600	0.616300
C171	C17	0.380000	0.331000	0.594900
C181	C18	0.467900	0.194800	0.600500
C191	C19	0.425900	0.103000	0.538700
C201	C20	0.521700	0.048000	0.528000
C211	C21	0.283000	0.648600	0.537400
C221	C22	0.401300	0.672600	0.578500
C231	C23	0.568000	0.796600	0.667000
C241	C24	0.610300	0.921600	0.686800
C251	C25	0.698100	0.936800	0.744700
C261	C26	0.710000	0.589200	0.651900
C271	C27	0.761600	0.637800	0.593900
C281	C28	0.940100	0.781400	0.550700
C291	C29	0.924600	0.885800	0.550700
C301	C30	0.999300	0.945000	0.498400
C311	C31	0.088300	0.372600	0.116300
C321	C32	0.951000	0.331000	0.094900
C331	C33	0.726900	0.194800	0.100500
C341	C34	0.677100	0.103000	0.038700
C351	C35	0.526300	0.048000	0.028000
C361	C36	0.365600	0.648600	0.037400
C371	C37	0.271300	0.672600	0.078500
C381	C38	0.228600	0.796600	0.167000
C391	C39	0.311300	0.921600	0.186800
C401	C40	0.238700	0.936800	0.244700
C411	C41	0.879200	0.589200	0.151900
C421	C42	0.876200	0.637800	0.093900
C431	C43	0.841300	0.781400	0.050700
C441	C44	0.961200	0.885800	0.050700
C451	C45	0.945700	0.945000	0.998400
C461	C46	0.715700	0.627400	0.383700
C471	C47	0.620000	0.669000	0.405100
C481	C48	0.532100	0.805200	0.399500
C491	C49	0.574100	0.897000	0.461300
C501	C50	0.478300	0.952000	0.472000
C511	C51	0.717000	0.351400	0.462600
C521	C52	0.598700	0.327400	0.421500
C531	C53	0.432000	0.203400	0.333000
C541	C54	0.389700	0.078400	0.313200
C551	C55	0.301900	0.063200	0.255300
C561	C56	0.290000	0.410800	0.348100
C571	C57	0.238400	0.362200	0.406100
C581	C58	0.059900	0.218600	0.449300
C591	C59	0.075400	0.114200	0.449300
C601	C60	0.000700	0.055000	0.501600
N11	N1	0.133600	0.758000	0.885100
N21	N2	0.682800	0.231000	0.875600
N31	N3	0.148800	0.273200	0.898000
N41	N4	0.375600	0.242000	0.614900
N51	N5	0.451800	0.769000	0.624400
N61	N6	0.875600	0.726800	0.602000
N71	N7	0.866400	0.242000	0.114900
N81	N8	0.317200	0.769000	0.124400
N91	N9	0.851200	0.726800	0.102000
N101	N10	0.624400	0.758000	0.385100
N111	N11	0.548200	0.231000	0.375600
N121	N12	0.124400	0.273200	0.398000
O11	O1	0.090200	0.623200	0.940300
O21	O2	0.847300	0.387600	0.925500
O31	O3	0.107500	0.406800	0.960500
O41	O4	0.467000	0.376800	0.559700
O51	O5	0.459700	0.612400	0.574500
O61	O6	0.700700	0.593200	0.539500
O71	O7	0.909800	0.376800	0.059700
O81	O8	0.152700	0.612400	0.074500
O91	O9	0.892500	0.593200	0.039500
O101	O10	0.533000	0.623200	0.440300
O111	O11	0.540300	0.387600	0.425500
O121	O12	0.299300	0.406800	0.460500
