data_FEWGUL_freeONLY_PM
_symmetry_space_group_name_H-M	'P1'
_cell_length_a	5.147400
_cell_length_b	18.232000
_cell_length_c	26.783000
_cell_angle_alpha	90.000000
_cell_angle_beta	90.080000
_cell_angle_gamma	90.000000
_symmetry_Int_Tables_number 1

loop_
_symmetry_equiv_pos_as_xyz
'x,y,z'

loop_
_atom_site_label
_atom_site_type_symbol
_atom_site_fract_x
_atom_site_fract_y
_atom_site_fract_z
La11	La1	0.852200	0.894410	0.522220
La21	La2	0.147800	0.394410	0.977780
La31	La3	0.147800	0.105590	0.477780
La41	La4	0.852200	0.605590	0.022220
H11	H1	0.693900	0.676300	0.505200
H21	H2	0.479600	0.514400	0.413200
H31	H3	0.119100	0.583700	0.384700
H41	H4	0.079400	0.705300	0.415300
H51	H5	0.033700	0.840500	0.664100
H61	H6	0.284900	0.882500	0.804400
H71	H7	0.617400	0.956400	0.770600
H81	H8	0.647300	0.966200	0.684300
H91	H9	0.576200	0.664000	0.886600
H101	H10	0.173600	0.657700	0.758000
H111	H11	0.877400	0.570700	0.792600
H121	H12	0.944400	0.535800	0.877700
H131	H13	0.306100	0.176300	0.994800
H141	H14	0.520400	0.014400	0.086800
H151	H15	0.880900	0.083700	0.115300
H161	H16	0.920600	0.205300	0.084700
H171	H17	0.966300	0.340500	0.835900
H181	H18	0.715100	0.382500	0.695600
H191	H19	0.382600	0.456400	0.729400
H201	H20	0.352700	0.466200	0.815700
H211	H21	0.423800	0.164000	0.613400
H221	H22	0.826400	0.157700	0.742000
H231	H23	0.122600	0.070700	0.707400
H241	H24	0.055600	0.035800	0.622300
H251	H25	0.306100	0.323700	0.494800
H261	H26	0.520400	0.485600	0.586800
H271	H27	0.880900	0.416300	0.615300
H281	H28	0.920600	0.294700	0.584700
H291	H29	0.966300	0.159500	0.335900
H301	H30	0.715100	0.117500	0.195600
H311	H31	0.382600	0.043600	0.229400
H321	H32	0.352700	0.033800	0.315700
H331	H33	0.423800	0.336000	0.113400
H341	H34	0.826400	0.342300	0.242000
H351	H35	0.122600	0.429300	0.207400
H361	H36	0.055600	0.464200	0.122300
H371	H37	0.693900	0.823700	0.005200
H381	H38	0.479600	0.985600	0.913200
H391	H39	0.119100	0.916300	0.884700
H401	H40	0.079400	0.794700	0.915300
H411	H41	0.033700	0.659500	0.164100
H421	H42	0.284900	0.617500	0.304400
H431	H43	0.617400	0.543600	0.270600
H441	H44	0.647300	0.533800	0.184300
H451	H45	0.576200	0.836000	0.386600
H461	H46	0.173600	0.842300	0.258000
H471	H47	0.877400	0.929300	0.292600
H481	H48	0.944400	0.964200	0.377700
C11	C1	0.322000	0.775600	0.486200
C21	C2	0.378000	0.703300	0.462000
C31	C3	0.578000	0.658500	0.480500
C41	C4	0.603000	0.587900	0.462100
C51	C5	0.448000	0.561800	0.426500
C61	C6	0.239000	0.602900	0.408400
C71	C7	0.216000	0.675200	0.427500
C81	C8	0.823000	0.542000	0.482400
C91	C9	0.394000	0.908400	0.610200
C101	C10	0.337000	0.900100	0.666700
C111	C11	0.152000	0.864000	0.686000
C121	C12	0.110000	0.856500	0.737300
C131	C13	0.297000	0.889400	0.769300
C141	C14	0.497000	0.931900	0.749500
C151	C15	0.514000	0.937100	0.698600
C161	C16	0.917000	0.808500	0.758500
C171	C17	0.581000	0.720800	0.795700
C181	C18	0.338000	0.562800	0.941600
C191	C19	0.279000	0.593000	0.888200
C201	C20	0.438000	0.643800	0.867400
C211	C21	0.401000	0.667000	0.817700
C221	C22	0.198000	0.641100	0.791300
C231	C23	0.019000	0.589500	0.811500
C241	C24	0.064000	0.567900	0.861800
C251	C25	0.678000	0.275600	0.013800
C261	C26	0.622000	0.203300	0.038000
C271	C27	0.422000	0.158500	0.019500
C281	C28	0.397000	0.087900	0.037900
C291	C29	0.552000	0.061800	0.073500
C301	C30	0.761000	0.102900	0.091600
C311	C31	0.784000	0.175200	0.072500
C321	C32	0.177000	0.042000	0.017600
C331	C33	0.606000	0.408400	0.889800
C341	C34	0.663000	0.400100	0.833300
C351	C35	0.848000	0.364000	0.814000
C361	C36	0.890000	0.356500	0.762700
C371	C37	0.703000	0.389400	0.730700
C381	C38	0.503000	0.431900	0.750500
C391	C39	0.486000	0.437100	0.801400
C401	C40	0.083000	0.308500	0.741500
C411	C41	0.419000	0.220800	0.704300
C421	C42	0.662000	0.062800	0.558400
C431	C43	0.721000	0.093000	0.611800
C441	C44	0.562000	0.143800	0.632600
C451	C45	0.599000	0.167000	0.682300
C461	C46	0.802000	0.141100	0.708700
C471	C47	0.981000	0.089500	0.688500
C481	C48	0.936000	0.067900	0.638200
C491	C49	0.678000	0.224400	0.513800
C501	C50	0.622000	0.296700	0.538000
C511	C51	0.422000	0.341500	0.519500
C521	C52	0.397000	0.412100	0.537900
C531	C53	0.552000	0.438200	0.573500
C541	C54	0.761000	0.397100	0.591600
C551	C55	0.784000	0.324800	0.572500
C561	C56	0.177000	0.458000	0.517600
C571	C57	0.606000	0.091600	0.389800
C581	C58	0.663000	0.099900	0.333300
C591	C59	0.848000	0.136000	0.314000
C601	C60	0.890000	0.143500	0.262700
C611	C61	0.703000	0.110600	0.230700
C621	C62	0.503000	0.068100	0.250500
C631	C63	0.486000	0.062900	0.301400
C641	C64	0.083000	0.191500	0.241500
C651	C65	0.419000	0.279200	0.204300
C661	C66	0.662000	0.437200	0.058400
C671	C67	0.721000	0.407000	0.111800
C681	C68	0.562000	0.356200	0.132600
C691	C69	0.599000	0.333000	0.182300
C701	C70	0.802000	0.358900	0.208700
C711	C71	0.981000	0.410500	0.188500
C721	C72	0.936000	0.432100	0.138200
C731	C73	0.322000	0.724400	0.986200
C741	C74	0.378000	0.796700	0.962000
C751	C75	0.578000	0.841500	0.980500
C761	C76	0.603000	0.912100	0.962100
C771	C77	0.448000	0.938200	0.926500
C781	C78	0.239000	0.897100	0.908400
C791	C79	0.216000	0.824800	0.927500
C801	C80	0.823000	0.958000	0.982400
C811	C81	0.394000	0.591600	0.110200
C821	C82	0.337000	0.599900	0.166700
C831	C83	0.152000	0.636000	0.186000
C841	C84	0.110000	0.643500	0.237300
C851	C85	0.297000	0.610600	0.269300
C861	C86	0.497000	0.568100	0.249500
C871	C87	0.514000	0.562900	0.198600
C881	C88	0.917000	0.691500	0.258500
C891	C89	0.581000	0.779200	0.295700
C901	C90	0.338000	0.937200	0.441600
C911	C91	0.279000	0.907000	0.388200
C921	C92	0.438000	0.856200	0.367400
C931	C93	0.401000	0.833000	0.317700
C941	C94	0.198000	0.858900	0.291300
C951	C95	0.019000	0.910500	0.311500
C961	C96	0.064000	0.932100	0.361800
N11	N1	0.853000	0.476800	0.460300
N21	N2	0.959000	0.564900	0.520900
N31	N3	0.766000	0.768900	0.728800
N41	N4	0.587000	0.721900	0.746400
N51	N5	0.724000	0.763500	0.827000
N61	N6	0.886000	0.807900	0.807500
N71	N7	0.147000	0.976800	0.039700
N81	N8	0.041000	0.064900	0.979100
N91	N9	0.234000	0.268900	0.771200
N101	N10	0.413000	0.221900	0.753600
N111	N11	0.276000	0.263500	0.673000
N121	N12	0.114000	0.307900	0.692500
N131	N13	0.147000	0.523200	0.539700
N141	N14	0.041000	0.435100	0.479100
N151	N15	0.234000	0.231100	0.271200
N161	N16	0.413000	0.278100	0.253600
N171	N17	0.276000	0.236500	0.173000
N181	N18	0.114000	0.192100	0.192500
N191	N19	0.853000	0.023200	0.960300
N201	N20	0.959000	0.935100	0.020900
N211	N21	0.766000	0.731100	0.228800
N221	N22	0.587000	0.778100	0.246400
N231	N23	0.724000	0.736500	0.327000
N241	N24	0.886000	0.692100	0.307500
O11	O1	0.513000	0.801100	0.511000
O21	O2	0.120000	0.806600	0.477800
O31	O3	0.612000	0.914900	0.598400
O41	O4	0.189000	0.904000	0.583600
O51	O5	0.559000	0.566600	0.955200
O61	O6	0.146000	0.533400	0.963000
O71	O7	0.928000	0.767800	0.580700
O81	O8	0.487000	0.301100	0.989000
O91	O9	0.880000	0.306600	0.022200
O101	O10	0.388000	0.414900	0.901600
O111	O11	0.811000	0.404000	0.916400
O121	O12	0.441000	0.066600	0.544800
O131	O13	0.854000	0.033400	0.537000
O141	O14	0.072000	0.267800	0.919300
O151	O15	0.487000	0.198900	0.489000
O161	O16	0.880000	0.193400	0.522200
O171	O17	0.388000	0.085100	0.401600
O181	O18	0.811000	0.096000	0.416400
O191	O19	0.441000	0.433400	0.044800
O201	O20	0.854000	0.466600	0.037000
O211	O21	0.072000	0.232200	0.419300
O221	O22	0.513000	0.698900	0.011000
O231	O23	0.120000	0.693400	0.977800
O241	O24	0.612000	0.585100	0.098400
O251	O25	0.189000	0.596000	0.083600
O261	O26	0.559000	0.933400	0.455200
O271	O27	0.146000	0.966600	0.463000
O281	O28	0.928000	0.732200	0.080700
