data_FEWQOP_freeONLY_PM
_symmetry_space_group_name_H-M	'P1'
_cell_length_a	6.999690
_cell_length_b	16.059700
_cell_length_c	16.059700
_cell_angle_alpha	62.073500
_cell_angle_beta	81.646200
_cell_angle_gamma	98.353800
_symmetry_Int_Tables_number 1

loop_
_symmetry_equiv_pos_as_xyz
'x,y,z'

loop_
_atom_site_label
_atom_site_type_symbol
_atom_site_fract_x
_atom_site_fract_y
_atom_site_fract_z
Gd11	Gd1	0.277870	0.913040	0.933720
Gd21	Gd2	0.211590	0.933720	0.153240
Gd31	Gd3	0.364830	0.153240	0.913040
Gd41	Gd4	0.722130	0.086960	0.066280
Gd51	Gd5	0.788410	0.066280	0.846760
Gd61	Gd6	0.635170	0.846760	0.086960
Cu11	Cu1	0.000000	0.500000	0.000000
Cu21	Cu2	0.000000	0.000000	0.500000
Cu31	Cu3	0.500000	0.500000	0.500000
H11	H1	0.565800	0.488300	0.089000
H21	H2	0.417400	0.593400	0.119700
H31	H3	0.654800	0.089000	0.422700
H41	H4	0.537100	0.119700	0.286900
H51	H5	0.077500	0.422700	0.488300
H61	H6	0.824000	0.286900	0.593400
H71	H7	0.434200	0.511700	0.911000
H81	H8	0.582600	0.406600	0.880300
H91	H9	0.345200	0.911000	0.577300
H101	H10	0.462900	0.880300	0.713100
H111	H11	0.922500	0.577300	0.511700
H121	H12	0.176000	0.713100	0.406600
C11	C1	0.946100	0.661600	0.010900
C21	C2	0.641300	0.548500	0.073600
C31	C3	0.162600	0.679900	0.966200
C41	C4	0.553300	0.611800	0.091600
C51	C5	0.854300	0.727800	0.027000
C61	C6	0.957000	0.010900	0.327500
C71	C7	0.714900	0.073600	0.377900
C81	C8	0.128800	0.966200	0.353900
C91	C9	0.644900	0.091600	0.296600
C101	C10	0.881300	0.027000	0.245200
C111	C11	0.284500	0.327500	0.661600
C121	C12	0.092800	0.377900	0.548500
C131	C13	0.482700	0.353900	0.679900
C141	C14	0.941500	0.296600	0.611800
C151	C15	0.126500	0.245200	0.727800
C161	C16	0.053900	0.338400	0.989100
C171	C17	0.358700	0.451500	0.926400
C181	C18	0.837400	0.320100	0.033800
C191	C19	0.446700	0.388200	0.908400
C201	C20	0.145700	0.272200	0.973000
C211	C21	0.043000	0.989100	0.672500
C221	C22	0.285100	0.926400	0.622100
C231	C23	0.871200	0.033800	0.646100
C241	C24	0.355100	0.908400	0.703400
C251	C25	0.118700	0.973000	0.754800
C261	C26	0.715500	0.672500	0.338400
C271	C27	0.907200	0.622100	0.451500
C281	C28	0.517300	0.646100	0.320100
C291	C29	0.058500	0.703400	0.388200
C301	C30	0.873500	0.754800	0.272200
N11	N1	0.836700	0.574700	0.033800
N21	N2	0.656800	0.697300	0.070000
N31	N3	0.870500	0.033800	0.391500
N41	N4	0.726800	0.070000	0.232700
N51	N5	0.262000	0.391500	0.574700
N61	N6	0.959500	0.232700	0.697300
N71	N7	0.163300	0.425300	0.966200
N81	N8	0.343200	0.302700	0.930000
N91	N9	0.129500	0.966200	0.608500
N101	N10	0.273200	0.930000	0.767300
N111	N11	0.738000	0.608500	0.425300
N121	N12	0.040500	0.767300	0.302700
O11	O1	0.942900	0.812600	0.006200
O21	O2	0.279200	0.756600	0.944500
O31	O3	0.215300	0.613300	0.954800
O41	O4	0.291900	0.822000	0.098400
O51	O5	0.949100	0.006200	0.181200
O61	O6	0.223700	0.944500	0.298900
O71	O7	0.170100	0.954800	0.431900
O81	O8	0.390300	0.098400	0.079600
O91	O9	0.130300	0.181200	0.812600
O101	O10	0.522600	0.298900	0.756600
O111	O11	0.602000	0.431900	0.613300
O121	O12	0.469900	0.079600	0.822000
O131	O13	0.057100	0.187400	0.993800
O141	O14	0.720800	0.243400	0.055500
O151	O15	0.784700	0.386700	0.045200
O161	O16	0.708100	0.178000	0.901600
O171	O17	0.050900	0.993800	0.818800
O181	O18	0.776300	0.055500	0.701100
O191	O19	0.829900	0.045200	0.568100
O201	O20	0.609700	0.901600	0.920400
O211	O21	0.869700	0.818800	0.187400
O221	O22	0.477400	0.701100	0.243400
O231	O23	0.398000	0.568100	0.386700
O241	O24	0.530100	0.920400	0.178000
O251	O25	0.500000	0.000000	0.000000
O261	O26	0.175330	0.000000	0.000000
O271	O27	0.824670	0.000000	0.000000
