data_FEWWOV_freeONLY_PM
_symmetry_space_group_name_H-M	'P1'
_cell_length_a	19.074000
_cell_length_b	19.652000
_cell_length_c	19.652000
_cell_angle_alpha	120.000000
_cell_angle_beta	90.000000
_cell_angle_gamma	90.000000
_symmetry_Int_Tables_number 1

loop_
_symmetry_equiv_pos_as_xyz
'x,y,z'

loop_
_atom_site_label
_atom_site_type_symbol
_atom_site_fract_x
_atom_site_fract_y
_atom_site_fract_z
Co11	Co1	0.601400	0.999570	0.664010
Co21	Co2	0.601400	0.664440	0.000430
Co31	Co3	0.601400	0.335990	0.335560
Co41	Co4	0.101400	0.664440	0.664010
Co51	Co5	0.101400	0.335990	0.000430
Co61	Co6	0.101400	0.999570	0.335560
H11	H1	0.566800	0.830200	0.623100
H21	H2	0.553600	0.754500	0.680300
H31	H3	0.550900	0.815800	0.821000
H41	H4	0.607800	0.019100	0.829200
H51	H5	0.027800	0.863900	0.353900
H61	H6	0.922200	0.824600	0.372800
H71	H7	0.826300	0.904100	0.399700
H81	H8	0.946600	0.048700	0.359700
H91	H9	0.517000	0.141100	0.664000
H101	H10	0.532400	0.221000	0.610200
H111	H11	0.613300	0.207700	0.522000
H121	H12	0.697500	0.032700	0.550900
H131	H13	0.680000	0.239100	0.398600
H141	H14	0.858900	0.253500	0.254600
H151	H15	0.871600	0.158600	0.301500
H161	H16	0.757200	0.313500	0.257000
H171	H17	0.566800	0.792900	0.169800
H181	H18	0.553600	0.925800	0.245500
H191	H19	0.550900	0.005200	0.184200
H201	H20	0.607800	0.810100	0.980900
H211	H21	0.027800	0.490000	0.136100
H221	H22	0.922200	0.548200	0.175400
H231	H23	0.826300	0.495600	0.095900
H241	H24	0.946600	0.311000	0.951300
H251	H25	0.517000	0.522900	0.858900
H261	H26	0.532400	0.389200	0.779000
H271	H27	0.613300	0.314300	0.792300
H281	H28	0.697500	0.518200	0.967300
H291	H29	0.680000	0.159500	0.760900
H301	H30	0.858900	0.001100	0.746500
H311	H31	0.871600	0.142900	0.841400
H321	H32	0.757200	0.943500	0.686500
H331	H33	0.566800	0.376900	0.207100
H341	H34	0.553600	0.319700	0.074200
H351	H35	0.550900	0.179000	0.994800
H361	H36	0.607800	0.170800	0.189900
H371	H37	0.027800	0.646100	0.510000
H381	H38	0.922200	0.627200	0.451800
H391	H39	0.826300	0.600300	0.504400
H401	H40	0.946600	0.640300	0.689000
H411	H41	0.517000	0.336000	0.477100
H421	H42	0.532400	0.389800	0.610800
H431	H43	0.613300	0.478000	0.685700
H441	H44	0.697500	0.449100	0.481800
H451	H45	0.680000	0.601400	0.840500
H461	H46	0.858900	0.745400	0.998900
H471	H47	0.871600	0.698500	0.857100
H481	H48	0.757200	0.743000	0.056500
H491	H49	0.066800	0.792900	0.623100
H501	H50	0.053600	0.925800	0.680300
H511	H51	0.050900	0.005200	0.821000
H521	H52	0.107800	0.810100	0.829200
H531	H53	0.527800	0.490000	0.353900
H541	H54	0.422200	0.548200	0.372800
H551	H55	0.326300	0.495600	0.399700
H561	H56	0.446600	0.311000	0.359700
H571	H57	0.017000	0.522900	0.664000
H581	H58	0.032400	0.389200	0.610200
H591	H59	0.113300	0.314300	0.522000
H601	H60	0.197500	0.518200	0.550900
H611	H61	0.180000	0.159500	0.398600
H621	H62	0.358900	0.001100	0.254600
H631	H63	0.371600	0.142900	0.301500
H641	H64	0.257200	0.943500	0.257000
H651	H65	0.066800	0.376900	0.169800
H661	H66	0.053600	0.319700	0.245500
H671	H67	0.050900	0.179000	0.184200
H681	H68	0.107800	0.170800	0.980900
H691	H69	0.527800	0.646100	0.136100
H701	H70	0.422200	0.627200	0.175400
H711	H71	0.326300	0.600300	0.095900
H721	H72	0.446600	0.640300	0.951300
H731	H73	0.017000	0.336000	0.858900
H741	H74	0.032400	0.389800	0.779000
H751	H75	0.113300	0.478000	0.792300
H761	H76	0.197500	0.449100	0.967300
H771	H77	0.180000	0.601400	0.760900
H781	H78	0.358900	0.745400	0.746500
H791	H79	0.371600	0.698500	0.841400
H801	H80	0.257200	0.743000	0.686500
H811	H81	0.066800	0.830200	0.207100
H821	H82	0.053600	0.754500	0.074200
H831	H83	0.050900	0.815800	0.994800
H841	H84	0.107800	0.019100	0.189900
H851	H85	0.527800	0.863900	0.510000
H861	H86	0.422200	0.824600	0.451800
H871	H87	0.326300	0.904100	0.504400
H881	H88	0.446600	0.048700	0.689000
H891	H89	0.017000	0.141100	0.477100
H901	H90	0.032400	0.221000	0.610800
H911	H91	0.113300	0.207700	0.685700
H921	H92	0.197500	0.032700	0.481800
H931	H93	0.180000	0.239100	0.840500
H941	H94	0.358900	0.253500	0.998900
H951	H95	0.371600	0.158600	0.857100
H961	H96	0.257200	0.313500	0.056500
C11	C1	0.693500	0.865800	0.525300
C21	C2	0.534900	0.150700	0.815700
C31	C3	0.573000	0.853500	0.678300
C41	C4	0.561800	0.809300	0.712000
C51	C5	0.562400	0.845200	0.796100
C61	C6	0.579800	0.922400	0.838900
C71	C7	0.595400	0.965200	0.799200
C81	C8	0.987900	0.894900	0.358600
C91	C9	0.926300	0.873200	0.373500
C101	C10	0.870300	0.919600	0.389400
C111	C11	0.876800	0.990100	0.390700
C121	C12	0.942000	0.003800	0.365600
C131	C13	0.555200	0.133500	0.629800
C141	C14	0.565300	0.179500	0.595000
C151	C15	0.613100	0.174600	0.544400
C161	C16	0.663900	0.116200	0.526600
C171	C17	0.661000	0.069500	0.561000
C181	C18	0.719700	0.104500	0.472100
C191	C19	0.584700	0.962800	0.923600
C201	C20	0.817600	0.048200	0.409500
C211	C21	0.767700	0.196300	0.358400
C221	C22	0.715000	0.237600	0.363500
C231	C23	0.770500	0.140600	0.388000
C241	C24	0.820000	0.244900	0.279600
C251	C25	0.831600	0.190700	0.310300
C261	C26	0.760100	0.284100	0.283200
C271	C27	0.693500	0.659500	0.134200
C281	C28	0.534900	0.665000	0.849300
C291	C29	0.573000	0.824800	0.146500
C301	C30	0.561800	0.902700	0.190700
C311	C31	0.562400	0.950900	0.154800
C321	C32	0.579800	0.916500	0.077600
C331	C33	0.595400	0.834000	0.034800
C341	C34	0.987900	0.463700	0.105100
C351	C35	0.926300	0.500300	0.126800
C361	C36	0.870300	0.469800	0.080400
C371	C37	0.876800	0.400600	0.009900
C381	C38	0.942000	0.361800	0.996200
C391	C39	0.555200	0.496300	0.866500
C401	C40	0.565300	0.415500	0.820500
C411	C41	0.613100	0.369800	0.825400
C421	C42	0.663900	0.410400	0.883800
C431	C43	0.661000	0.491500	0.930500
C441	C44	0.719700	0.367600	0.895500
C451	C45	0.584700	0.960800	0.037200
C461	C46	0.817600	0.361300	0.951800
C471	C47	0.767700	0.162100	0.803700
C481	C48	0.715000	0.125900	0.762400
C491	C49	0.770500	0.247400	0.859400
C501	C50	0.820000	0.034700	0.755100
C511	C51	0.831600	0.119600	0.809300
C521	C52	0.760100	0.999100	0.715900
C531	C53	0.693500	0.474700	0.340500
C541	C54	0.534900	0.184300	0.335000
C551	C55	0.573000	0.321700	0.175200
C561	C56	0.561800	0.288000	0.097300
C571	C57	0.562400	0.203900	0.049100
C581	C58	0.579800	0.161100	0.083500
C591	C59	0.595400	0.200800	0.166000
C601	C60	0.987900	0.641400	0.536300
C611	C61	0.926300	0.626500	0.499700
C621	C62	0.870300	0.610600	0.530200
C631	C63	0.876800	0.609300	0.599400
C641	C64	0.942000	0.634400	0.638200
C651	C65	0.555200	0.370200	0.503700
C661	C66	0.565300	0.405000	0.584500
C671	C67	0.613100	0.455600	0.630200
C681	C68	0.663900	0.473400	0.589600
C691	C69	0.661000	0.439000	0.508500
C701	C70	0.719700	0.527900	0.632400
C711	C71	0.584700	0.076400	0.039200
C721	C72	0.817600	0.590500	0.638700
C731	C73	0.767700	0.641600	0.837900
C741	C74	0.715000	0.636500	0.874100
C751	C75	0.770500	0.612000	0.752600
C761	C76	0.820000	0.720400	0.965300
C771	C77	0.831600	0.689700	0.880400
C781	C78	0.760100	0.716800	0.000900
C791	C79	0.193500	0.659500	0.525300
C801	C80	0.034900	0.665000	0.815700
C811	C81	0.073000	0.824800	0.678300
C821	C82	0.061800	0.902700	0.712000
C831	C83	0.062400	0.950900	0.796100
C841	C84	0.079800	0.916500	0.838900
C851	C85	0.095400	0.834000	0.799200
C861	C86	0.487900	0.463700	0.358600
C871	C87	0.426300	0.500300	0.373500
C881	C88	0.370300	0.469800	0.389400
C891	C89	0.376800	0.400600	0.390700
C901	C90	0.442000	0.361800	0.365600
C911	C91	0.055200	0.496300	0.629800
C921	C92	0.065300	0.415500	0.595000
C931	C93	0.113100	0.369800	0.544400
C941	C94	0.163900	0.410400	0.526600
C951	C95	0.161000	0.491500	0.561000
C961	C96	0.219700	0.367600	0.472100
C971	C97	0.084700	0.960800	0.923600
C981	C98	0.317600	0.361300	0.409500
C991	C99	0.267700	0.162100	0.358400
C1001	C100	0.215000	0.125900	0.363500
C1011	C101	0.270500	0.247400	0.388000
C1021	C102	0.320000	0.034700	0.279600
C1031	C103	0.331600	0.119600	0.310300
C1041	C104	0.260100	0.999100	0.283200
C1051	C105	0.193500	0.474700	0.134200
C1061	C106	0.034900	0.184300	0.849300
C1071	C107	0.073000	0.321700	0.146500
C1081	C108	0.061800	0.288000	0.190700
C1091	C109	0.062400	0.203900	0.154800
C1101	C110	0.079800	0.161100	0.077600
C1111	C111	0.095400	0.200800	0.034800
C1121	C112	0.487900	0.641400	0.105100
C1131	C113	0.426300	0.626500	0.126800
C1141	C114	0.370300	0.610600	0.080400
C1151	C115	0.376800	0.609300	0.009900
C1161	C116	0.442000	0.634400	0.996200
C1171	C117	0.055200	0.370200	0.866500
C1181	C118	0.065300	0.405000	0.820500
C1191	C119	0.113100	0.455600	0.825400
C1201	C120	0.163900	0.473400	0.883800
C1211	C121	0.161000	0.439000	0.930500
C1221	C122	0.219700	0.527900	0.895500
C1231	C123	0.084700	0.076400	0.037200
C1241	C124	0.317600	0.590500	0.951800
C1251	C125	0.267700	0.641600	0.803700
C1261	C126	0.215000	0.636500	0.762400
C1271	C127	0.270500	0.612000	0.859400
C1281	C128	0.320000	0.720400	0.755100
C1291	C129	0.331600	0.689700	0.809300
C1301	C130	0.260100	0.716800	0.715900
C1311	C131	0.193500	0.865800	0.340500
C1321	C132	0.034900	0.150700	0.335000
C1331	C133	0.073000	0.853500	0.175200
C1341	C134	0.061800	0.809300	0.097300
C1351	C135	0.062400	0.845200	0.049100
C1361	C136	0.079800	0.922400	0.083500
C1371	C137	0.095400	0.965200	0.166000
C1381	C138	0.487900	0.894900	0.536300
C1391	C139	0.426300	0.873200	0.499700
C1401	C140	0.370300	0.919600	0.530200
C1411	C141	0.376800	0.990100	0.599400
C1421	C142	0.442000	0.003800	0.638200
C1431	C143	0.055200	0.133500	0.503700
C1441	C144	0.065300	0.179500	0.584500
C1451	C145	0.113100	0.174600	0.630200
C1461	C146	0.163900	0.116200	0.589600
C1471	C147	0.161000	0.069500	0.508500
C1481	C148	0.219700	0.104500	0.632400
C1491	C149	0.084700	0.962800	0.039200
C1501	C150	0.317600	0.048200	0.638700
C1511	C151	0.267700	0.196300	0.837900
C1521	C152	0.215000	0.237600	0.874100
C1531	C153	0.270500	0.140600	0.752600
C1541	C154	0.320000	0.244900	0.965300
C1551	C155	0.331600	0.190700	0.880400
C1561	C156	0.260100	0.284100	0.000900
S11	S1	0.745400	0.802000	0.461700
S21	S2	0.515300	0.236200	0.888400
S31	S3	0.745400	0.659700	0.198000
S41	S4	0.515300	0.652200	0.763800
S51	S5	0.745400	0.538300	0.340300
S61	S6	0.515300	0.111600	0.347800
S71	S7	0.245400	0.659700	0.461700
S81	S8	0.015300	0.652200	0.888400
S91	S9	0.245400	0.538300	0.198000
S101	S10	0.015300	0.111600	0.763800
S111	S11	0.245400	0.802000	0.340300
S121	S12	0.015300	0.236200	0.347800
N11	N1	0.652300	0.907900	0.568900
N21	N2	0.550700	0.090200	0.759800
N31	N3	0.592700	0.930300	0.720300
N41	N4	0.996900	0.957100	0.350000
N51	N5	0.605500	0.075400	0.610300
N61	N6	0.713500	0.149800	0.439600
N71	N7	0.589100	0.042600	0.960400
N81	N8	0.826700	0.093700	0.375100
N91	N9	0.766400	0.050000	0.452400
N101	N10	0.698800	0.280000	0.328700
N111	N11	0.652300	0.661000	0.092100
N121	N12	0.550700	0.669600	0.909800
N131	N13	0.592700	0.790000	0.069700
N141	N14	0.996900	0.392900	0.042900
N151	N15	0.605500	0.534900	0.924600
N161	N16	0.713500	0.289800	0.850200
N171	N17	0.589100	0.917800	0.957400
N181	N18	0.826700	0.281400	0.906300
N191	N19	0.766400	0.402400	0.950000
N201	N20	0.698800	0.048700	0.720000
N211	N21	0.652300	0.431100	0.339000
N221	N22	0.550700	0.240200	0.330400
N231	N23	0.592700	0.279700	0.210000
N241	N24	0.996900	0.650000	0.607100
N251	N25	0.605500	0.389700	0.465100
N261	N26	0.713500	0.560400	0.710200
N271	N27	0.589100	0.039600	0.082200
N281	N28	0.826700	0.624900	0.718600
N291	N29	0.766400	0.547600	0.597600
N301	N30	0.698800	0.671300	0.951300
N311	N31	0.152300	0.661000	0.568900
N321	N32	0.050700	0.669600	0.759800
N331	N33	0.092700	0.790000	0.720300
N341	N34	0.496900	0.392900	0.350000
N351	N35	0.105500	0.534900	0.610300
N361	N36	0.213500	0.289800	0.439600
N371	N37	0.089100	0.917800	0.960400
N381	N38	0.326700	0.281400	0.375100
N391	N39	0.266400	0.402400	0.452400
N401	N40	0.198800	0.048700	0.328700
N411	N41	0.152300	0.431100	0.092100
N421	N42	0.050700	0.240200	0.909800
N431	N43	0.092700	0.279700	0.069700
N441	N44	0.496900	0.650000	0.042900
N451	N45	0.105500	0.389700	0.924600
N461	N46	0.213500	0.560400	0.850200
N471	N47	0.089100	0.039600	0.957400
N481	N48	0.326700	0.624900	0.906300
N491	N49	0.266400	0.547600	0.950000
N501	N50	0.198800	0.671300	0.720000
N511	N51	0.152300	0.907900	0.339000
N521	N52	0.050700	0.090200	0.330400
N531	N53	0.092700	0.930300	0.210000
N541	N54	0.496900	0.957100	0.607100
N551	N55	0.105500	0.075400	0.465100
N561	N56	0.213500	0.149800	0.710200
N571	N57	0.089100	0.042600	0.082200
N581	N58	0.326700	0.093700	0.718600
N591	N59	0.266400	0.050000	0.597600
N601	N60	0.198800	0.280000	0.951300
