data_FEYJOJ_freeONLY_PM
_symmetry_space_group_name_H-M	'P1'
_cell_length_a	13.006000
_cell_length_b	14.279000
_cell_length_c	17.515000
_cell_angle_alpha	96.872000
_cell_angle_beta	90.000000
_cell_angle_gamma	90.000000
_symmetry_Int_Tables_number 1

loop_
_symmetry_equiv_pos_as_xyz
'x,y,z'

loop_
_atom_site_label
_atom_site_type_symbol
_atom_site_fract_x
_atom_site_fract_y
_atom_site_fract_z
Co11	Co1	0.067020	0.998550	0.773960
Co21	Co2	0.271620	0.430540	0.131210
Co31	Co3	0.567020	0.501450	0.726040
Co41	Co4	0.771620	0.069460	0.368790
Co51	Co5	0.932980	0.001450	0.226040
Co61	Co6	0.728380	0.569460	0.868790
Co71	Co7	0.432980	0.498550	0.273960
Co81	Co8	0.228380	0.930540	0.631210
H11	H1	0.601800	0.227300	0.225400
H21	H2	0.555500	0.308500	0.014600
H31	H3	0.791600	0.135300	0.050100
H41	H4	0.817900	0.118200	0.935800
H51	H5	0.804600	0.233100	0.735900
H61	H6	0.640400	0.347200	0.919900
H71	H7	0.269400	0.237700	0.045700
H81	H8	0.181200	0.031100	0.029000
H91	H9	0.141100	0.064800	0.950400
H101	H10	0.253500	0.094300	0.981800
H111	H11	0.011000	0.244600	0.069800
H121	H12	0.996100	0.166700	0.997000
H131	H13	0.001700	0.135600	0.081600
H141	H14	0.102300	0.548400	0.054800
H151	H15	0.975900	0.701600	0.224300
H161	H16	0.905300	0.609100	0.213400
H171	H17	0.021400	0.602600	0.242600
H181	H18	0.978600	0.632600	0.021200
H191	H19	0.881000	0.648300	0.076900
H201	H20	0.968800	0.727100	0.079900
H211	H21	0.362800	0.446300	0.995800
H221	H22	0.256700	0.509600	0.000100
H231	H23	0.101800	0.272700	0.274600
H241	H24	0.055500	0.191500	0.485400
H251	H25	0.291600	0.364700	0.449900
H261	H26	0.317900	0.381800	0.564200
H271	H27	0.304600	0.266900	0.764100
H281	H28	0.140400	0.152800	0.580100
H291	H29	0.769400	0.262300	0.454300
H301	H30	0.681200	0.468900	0.471000
H311	H31	0.641100	0.435200	0.549600
H321	H32	0.753500	0.405700	0.518200
H331	H33	0.511000	0.255400	0.430200
H341	H34	0.496100	0.333300	0.503000
H351	H35	0.501700	0.364400	0.418400
H361	H36	0.602300	0.951600	0.445200
H371	H37	0.475900	0.798400	0.275700
H381	H38	0.405300	0.890900	0.286600
H391	H39	0.521400	0.897400	0.257400
H401	H40	0.478600	0.867400	0.478800
H411	H41	0.381000	0.851700	0.423100
H421	H42	0.468800	0.772900	0.420100
H431	H43	0.862800	0.053700	0.504200
H441	H44	0.756700	0.990400	0.499900
H451	H45	0.398200	0.772700	0.774600
H461	H46	0.444500	0.691500	0.985400
H471	H47	0.208400	0.864700	0.949900
H481	H48	0.182100	0.881800	0.064200
H491	H49	0.195400	0.766900	0.264100
H501	H50	0.359600	0.652800	0.080100
H511	H51	0.730600	0.762300	0.954300
H521	H52	0.818800	0.968900	0.971000
H531	H53	0.858900	0.935200	0.049600
H541	H54	0.746500	0.905700	0.018200
H551	H55	0.989000	0.755400	0.930200
H561	H56	0.003900	0.833300	0.003000
H571	H57	0.998300	0.864400	0.918400
H581	H58	0.897700	0.451600	0.945200
H591	H59	0.024100	0.298400	0.775700
H601	H60	0.094700	0.390900	0.786600
H611	H61	0.978600	0.397400	0.757400
H621	H62	0.021400	0.367400	0.978800
H631	H63	0.119000	0.351700	0.923100
H641	H64	0.031200	0.272900	0.920100
H651	H65	0.637200	0.553700	0.004200
H661	H66	0.743300	0.490400	0.999900
H671	H67	0.898200	0.727300	0.725400
H681	H68	0.944500	0.808500	0.514600
H691	H69	0.708400	0.635300	0.550100
H701	H70	0.682100	0.618200	0.435800
H711	H71	0.695400	0.733100	0.235900
H721	H72	0.859600	0.847200	0.419900
H731	H73	0.230600	0.737700	0.545700
H741	H74	0.318800	0.531100	0.529000
H751	H75	0.358900	0.564800	0.450400
H761	H76	0.246500	0.594300	0.481800
H771	H77	0.489000	0.744600	0.569800
H781	H78	0.503900	0.666700	0.497000
H791	H79	0.498300	0.635600	0.581600
H801	H80	0.397700	0.048400	0.554800
H811	H81	0.524100	0.201600	0.724300
H821	H82	0.594700	0.109100	0.713400
H831	H83	0.478600	0.102600	0.742600
H841	H84	0.521400	0.132600	0.521200
H851	H85	0.619000	0.148300	0.576900
H861	H86	0.531200	0.227100	0.579900
H871	H87	0.137200	0.946300	0.495800
H881	H88	0.243300	0.009600	0.500100
C11	C1	0.621000	0.225400	0.172860
C21	C2	0.481900	0.342000	0.156600
C31	C3	0.566500	0.277500	0.124700
C41	C4	0.595300	0.275300	0.048200
C51	C5	0.719600	0.229000	0.939900
C61	C6	0.703000	0.170500	0.144700
C71	C7	0.681800	0.225200	0.020000
C81	C8	0.733800	0.171700	0.068900
C91	C9	0.791300	0.164700	0.906600
C101	C10	0.907700	0.099600	0.800000
C111	C11	0.716600	0.300500	0.822000
C121	C12	0.675000	0.373600	0.776600
C131	C13	0.785200	0.233400	0.788200
C141	C14	0.685500	0.299500	0.897000
C151	C15	0.825000	0.166600	0.831900
C161	C16	0.762300	0.111700	0.195200
C171	C17	0.199000	0.247600	0.058800
C181	C18	0.182400	0.082500	0.996600
C191	C19	0.028000	0.180000	0.048000
C201	C20	0.086700	0.556000	0.108200
C211	C21	0.975300	0.633300	0.209000
C221	C22	0.955000	0.659200	0.072400
C231	C23	0.121000	0.274600	0.327140
C241	C24	0.981900	0.158000	0.343400
C251	C25	0.066500	0.222500	0.375300
C261	C26	0.095300	0.224700	0.451800
C271	C27	0.219600	0.271000	0.560100
C281	C28	0.203000	0.329500	0.355300
C291	C29	0.181800	0.274800	0.480000
C301	C30	0.233800	0.328300	0.431100
C311	C31	0.291300	0.335300	0.593400
C321	C32	0.407700	0.400400	0.700000
C331	C33	0.216600	0.199500	0.678000
C341	C34	0.175000	0.126400	0.723400
C351	C35	0.285200	0.266600	0.711800
C361	C36	0.185500	0.200500	0.603000
C371	C37	0.325000	0.333400	0.668100
C381	C38	0.262300	0.388300	0.304800
C391	C39	0.699000	0.252400	0.441200
C401	C40	0.682400	0.417500	0.503400
C411	C41	0.528000	0.320000	0.452000
C421	C42	0.586700	0.944000	0.391800
C431	C43	0.475300	0.866700	0.291000
C441	C44	0.455000	0.840800	0.427600
C451	C45	0.379000	0.774600	0.827140
C461	C46	0.518100	0.658000	0.843400
C471	C47	0.433500	0.722500	0.875300
C481	C48	0.404700	0.724700	0.951800
C491	C49	0.280400	0.771000	0.060100
C501	C50	0.297000	0.829500	0.855300
C511	C51	0.318200	0.774800	0.980000
C521	C52	0.266200	0.828300	0.931100
C531	C53	0.208700	0.835300	0.093400
C541	C54	0.092300	0.900400	0.200000
C551	C55	0.283400	0.699500	0.178000
C561	C56	0.325000	0.626400	0.223400
C571	C57	0.214800	0.766600	0.211800
C581	C58	0.314500	0.700500	0.103000
C591	C59	0.175000	0.833400	0.168100
C601	C60	0.237700	0.888300	0.804800
C611	C61	0.801000	0.752400	0.941200
C621	C62	0.817600	0.917500	0.003400
C631	C63	0.972000	0.820000	0.952000
C641	C64	0.913300	0.444000	0.891800
C651	C65	0.024700	0.366700	0.791000
C661	C66	0.045000	0.340800	0.927600
C671	C67	0.879000	0.725400	0.672860
C681	C68	0.018100	0.842000	0.656600
C691	C69	0.933500	0.777500	0.624700
C701	C70	0.904700	0.775300	0.548200
C711	C71	0.780400	0.729000	0.439900
C721	C72	0.797000	0.670500	0.644700
C731	C73	0.818200	0.725200	0.520000
C741	C74	0.766200	0.671700	0.568900
C751	C75	0.708700	0.664700	0.406600
C761	C76	0.592300	0.599600	0.300000
C771	C77	0.783400	0.800500	0.322000
C781	C78	0.825000	0.873600	0.276600
C791	C79	0.714800	0.733400	0.288200
C801	C80	0.814500	0.799500	0.397000
C811	C81	0.675000	0.666600	0.331900
C821	C82	0.737700	0.611700	0.695200
C831	C83	0.301000	0.747600	0.558800
C841	C84	0.317600	0.582500	0.496600
C851	C85	0.472000	0.680000	0.548000
C861	C86	0.413300	0.056000	0.608200
C871	C87	0.524700	0.133300	0.709000
C881	C88	0.545000	0.159200	0.572400
N11	N1	0.138700	0.170200	0.040600
N21	N2	0.009500	0.613800	0.130800
N31	N3	0.638700	0.329800	0.459400
N41	N4	0.509500	0.886200	0.369200
N51	N5	0.861300	0.829800	0.959400
N61	N6	0.990500	0.386200	0.869200
N71	N7	0.361300	0.670200	0.540600
N81	N8	0.490500	0.113800	0.630800
O11	O1	0.927100	0.089200	0.729760
O21	O2	0.958400	0.057480	0.847200
O31	O3	0.495400	0.378690	0.225300
O41	O4	0.407800	0.355510	0.114090
O51	O5	0.832900	0.060980	0.162870
O61	O6	0.738100	0.117540	0.264150
O71	O7	0.644160	0.452420	0.814140
O81	O8	0.664100	0.357750	0.706370
O91	O9	0.182500	0.317000	0.084900
O101	O10	0.138100	0.513200	0.147600
O111	O11	0.302600	0.469100	0.022740
O121	O12	0.427100	0.410800	0.770240
O131	O13	0.458400	0.442520	0.652800
O141	O14	0.995400	0.121310	0.274700
O151	O15	0.907800	0.144490	0.385910
O161	O16	0.332900	0.439020	0.337130
O171	O17	0.238100	0.382460	0.235850
O181	O18	0.144160	0.047580	0.685860
O191	O19	0.164100	0.142250	0.793630
O201	O20	0.682500	0.183000	0.415100
O211	O21	0.638100	0.986800	0.352400
O221	O22	0.802600	0.030900	0.477260
O231	O23	0.072900	0.910800	0.270240
O241	O24	0.041600	0.942520	0.152800
O251	O25	0.504600	0.621310	0.774700
O261	O26	0.592200	0.644490	0.885910
O271	O27	0.167100	0.939020	0.837130
O281	O28	0.261900	0.882460	0.735850
O291	O29	0.355840	0.547580	0.185860
O301	O30	0.335900	0.642250	0.293630
O311	O31	0.817500	0.683000	0.915100
O321	O32	0.861900	0.486800	0.852400
O331	O33	0.697400	0.530900	0.977260
O341	O34	0.572900	0.589200	0.229760
O351	O35	0.541600	0.557480	0.347200
O361	O36	0.004600	0.878690	0.725300
O371	O37	0.092200	0.855510	0.614090
O381	O38	0.667100	0.560980	0.662870
O391	O39	0.761900	0.617540	0.764150
O401	O40	0.855840	0.952420	0.314140
O411	O41	0.835900	0.857750	0.206370
O421	O42	0.317500	0.817000	0.584900
O431	O43	0.361900	0.013200	0.647600
O441	O44	0.197400	0.969100	0.522740
