data_FIFPAM01_freeONLY_PM
_symmetry_space_group_name_H-M	'P1'
_cell_length_a	8.140500
_cell_length_b	10.503200
_cell_length_c	11.333600
_cell_angle_alpha	62.395600
_cell_angle_beta	84.173200
_cell_angle_gamma	77.344000
_symmetry_Int_Tables_number 1

loop_
_symmetry_equiv_pos_as_xyz
'x,y,z'

loop_
_atom_site_label
_atom_site_type_symbol
_atom_site_fract_x
_atom_site_fract_y
_atom_site_fract_z
Ni11	Ni1	0.818200	0.948260	0.506480
Ni21	Ni2	0.318200	0.454740	0.493520
H11	H1	0.736000	0.746000	0.376000
H21	H2	0.098000	0.757000	0.440000
H31	H3	0.762000	0.739000	0.190000
H41	H4	0.727000	0.798000	0.966000
H51	H5	0.915000	0.151000	0.216000
H61	H6	0.739000	0.810000	0.780000
H71	H7	0.473000	0.986000	0.448000
H81	H8	0.868000	0.170000	0.998000
H91	H9	0.862000	0.128000	0.622000
H101	H10	0.023000	0.005000	0.522000
H111	H11	0.063000	0.103000	0.394000
H121	H12	0.905000	0.103000	0.818000
H131	H13	0.236000	0.122000	0.624000
H141	H14	0.598000	0.197000	0.560000
H151	H15	0.262000	0.929000	0.810000
H161	H16	0.227000	0.764000	0.034000
H171	H17	0.415000	0.367000	0.784000
H181	H18	0.239000	0.590000	0.220000
H191	H19	0.973000	0.434000	0.552000
H201	H20	0.368000	0.168000	0.002000
H211	H21	0.362000	0.750000	0.378000
H221	H22	0.523000	0.527000	0.478000
H231	H23	0.563000	0.497000	0.606000
H241	H24	0.405000	0.921000	0.182000
C11	C1	0.816200	0.951100	0.940600
C21	C2	0.821100	0.946900	0.073600
C31	C3	0.789700	0.835400	0.309400
C41	C4	0.786200	0.825900	0.190000
C51	C5	0.861200	0.064800	0.084800
C61	C6	0.764000	0.845500	0.925000
C71	C7	0.861500	0.056700	0.209400
C81	C8	0.461000	0.908900	0.525200
C91	C9	0.079800	0.689900	0.541800
C101	C10	0.864000	0.059800	0.823800
C111	C11	0.759000	0.847500	0.804000
C121	C12	0.862300	0.060100	0.705000
C131	C13	0.316200	0.891700	0.059400
C141	C14	0.321100	0.020500	0.926400
C151	C15	0.289700	0.144800	0.690600
C161	C16	0.286200	0.015900	0.810000
C171	C17	0.361200	0.149600	0.915200
C181	C18	0.264000	0.770500	0.075000
C191	C19	0.361500	0.266100	0.790600
C201	C20	0.961000	0.434100	0.474800
C211	C21	0.579800	0.231700	0.458200
C221	C22	0.364000	0.883600	0.176200
C231	C23	0.259000	0.651500	0.196000
C241	C24	0.362300	0.765100	0.295000
N11	N1	0.824600	0.945500	0.323800
N21	N2	0.811900	0.953700	0.692200
N31	N3	0.324600	0.269300	0.676200
N41	N4	0.311900	0.645900	0.307800
O11	O1	0.963600	0.738000	0.600600
O21	O2	0.167500	0.564300	0.593600
O31	O3	0.037400	0.032000	0.461200
O41	O4	0.607400	0.847800	0.569800
O51	O5	0.334300	0.855300	0.574800
O61	O6	0.463600	0.338600	0.399400
O71	O7	0.667500	0.157900	0.406400
O81	O8	0.537400	0.493200	0.538800
O91	O9	0.107400	0.417600	0.430200
O101	O10	0.834300	0.430100	0.425200
