data_FIHRIZ_freeONLY_PM
_symmetry_space_group_name_H-M	'P1'
_cell_length_a	13.214600
_cell_length_b	14.426500
_cell_length_c	14.426500
_cell_angle_alpha	100.820000
_cell_angle_beta	92.280600
_cell_angle_gamma	92.280600
_symmetry_Int_Tables_number 1

loop_
_symmetry_equiv_pos_as_xyz
'x,y,z'

loop_
_atom_site_label
_atom_site_type_symbol
_atom_site_fract_x
_atom_site_fract_y
_atom_site_fract_z
Ni11	Ni1	0.254990	0.589440	0.024880
Ni21	Ni2	0.245010	0.975120	0.410560
Ni31	Ni3	0.745010	0.410560	0.975120
Ni41	Ni4	0.754990	0.024880	0.589440
Ni51	Ni5	0.500000	0.500000	0.000000
Ni61	Ni6	0.000000	0.000000	0.500000
H11	H1	0.080200	0.527500	0.144100
H21	H2	0.078500	0.546100	0.878900
H31	H3	0.389400	0.175700	0.241700
H41	H4	0.246100	0.809500	0.066500
H51	H5	0.435400	0.298500	0.166700
H61	H6	0.160200	0.402700	0.201500
H71	H7	0.112600	0.278200	0.274000
H81	H8	0.423000	0.314700	0.744500
H91	H9	0.138700	0.377600	0.805600
H101	H10	0.240500	0.636100	0.241500
H111	H11	0.419800	0.855900	0.472500
H121	H12	0.421500	0.121100	0.453900
H131	H13	0.110600	0.758300	0.824300
H141	H14	0.253900	0.933500	0.190500
H151	H15	0.064600	0.833300	0.701500
H161	H16	0.339800	0.798500	0.597300
H171	H17	0.387400	0.726000	0.721800
H181	H18	0.077000	0.255500	0.685300
H191	H19	0.361300	0.194400	0.622400
H201	H20	0.259500	0.758500	0.363900
H211	H21	0.919800	0.472500	0.855900
H221	H22	0.921500	0.453900	0.121100
H231	H23	0.610600	0.824300	0.758300
H241	H24	0.753900	0.190500	0.933500
H251	H25	0.564600	0.701500	0.833300
H261	H26	0.839800	0.597300	0.798500
H271	H27	0.887400	0.721800	0.726000
H281	H28	0.577000	0.685300	0.255500
H291	H29	0.861300	0.622400	0.194400
H301	H30	0.759500	0.363900	0.758500
H311	H31	0.580200	0.144100	0.527500
H321	H32	0.578500	0.878900	0.546100
H331	H33	0.889400	0.241700	0.175700
H341	H34	0.746100	0.066500	0.809500
H351	H35	0.935400	0.166700	0.298500
H361	H36	0.660200	0.201500	0.402700
H371	H37	0.612600	0.274000	0.278200
H381	H38	0.923000	0.744500	0.314700
H391	H39	0.638700	0.805600	0.377600
H401	H40	0.740500	0.241500	0.636100
C11	C1	0.048600	0.517000	0.084000
C21	C2	0.047600	0.527800	0.929800
C31	C3	0.342600	0.219900	0.232300
C41	C4	0.325600	0.433500	0.869100
C51	C5	0.330700	0.436500	0.119100
C61	C6	0.286100	0.356300	0.788300
C71	C7	0.302200	0.360600	0.173400
C81	C8	0.209700	0.131600	0.308200
C91	C9	0.247400	0.796900	0.127500
C101	C10	0.370000	0.293900	0.187500
C111	C11	0.244800	0.212800	0.262600
C121	C12	0.205500	0.356400	0.207800
C131	C13	0.177500	0.281900	0.251700
C141	C14	0.353500	0.302700	0.733100
C151	C15	0.183700	0.339800	0.769600
C161	C16	0.245600	0.696900	0.228700
C171	C17	0.451400	0.916000	0.483000
C181	C18	0.452400	0.070200	0.472200
C191	C19	0.157400	0.767700	0.780100
C201	C20	0.174400	0.130900	0.566500
C211	C21	0.169300	0.880900	0.563500
C221	C22	0.213900	0.211700	0.643700
C231	C23	0.197800	0.826600	0.639400
C241	C24	0.290300	0.691800	0.868400
C251	C25	0.252600	0.872500	0.203100
C261	C26	0.130000	0.812500	0.706100
C271	C27	0.255200	0.737400	0.787200
C281	C28	0.294500	0.792200	0.643600
C291	C29	0.322500	0.748300	0.718100
C301	C30	0.146500	0.266900	0.697300
C311	C31	0.316300	0.230400	0.660200
C321	C32	0.254400	0.771300	0.303100
C331	C33	0.951400	0.483000	0.916000
C341	C34	0.952400	0.472200	0.070200
C351	C35	0.657400	0.780100	0.767700
C361	C36	0.674400	0.566500	0.130900
C371	C37	0.669300	0.563500	0.880900
C381	C38	0.713900	0.643700	0.211700
C391	C39	0.697800	0.639400	0.826600
C401	C40	0.790300	0.868400	0.691800
C411	C41	0.752600	0.203100	0.872500
C421	C42	0.630000	0.706100	0.812500
C431	C43	0.755200	0.787200	0.737400
C441	C44	0.794500	0.643600	0.792200
C451	C45	0.822500	0.718100	0.748300
C461	C46	0.646500	0.697300	0.266900
C471	C47	0.816300	0.660200	0.230400
C481	C48	0.754400	0.303100	0.771300
C491	C49	0.548600	0.084000	0.517000
C501	C50	0.547600	0.929800	0.527800
C511	C51	0.842600	0.232300	0.219900
C521	C52	0.825600	0.869100	0.433500
C531	C53	0.830700	0.119100	0.436500
C541	C54	0.786100	0.788300	0.356300
C551	C55	0.802200	0.173400	0.360600
C561	C56	0.709700	0.308200	0.131600
C571	C57	0.747400	0.127500	0.796900
C581	C58	0.870000	0.187500	0.293900
C591	C59	0.744800	0.262600	0.212800
C601	C60	0.705500	0.207800	0.356400
C611	C61	0.677500	0.251700	0.281900
C621	C62	0.853500	0.733100	0.302700
C631	C63	0.683700	0.769600	0.339800
C641	C64	0.745600	0.228700	0.696900
N11	N1	0.244000	0.707000	0.138200
N21	N2	0.096500	0.545000	0.014800
N31	N3	0.256000	0.861800	0.293000
N41	N4	0.403500	0.985200	0.455000
N51	N5	0.756000	0.293000	0.861800
N61	N6	0.903500	0.455000	0.985200
N71	N7	0.744000	0.138200	0.707000
N81	N8	0.596500	0.014800	0.545000
O11	O1	0.261300	0.479000	0.914800
O21	O2	0.271700	0.503500	0.121100
O31	O3	0.274300	0.073300	0.324100
O41	O4	0.419800	0.443000	0.881200
O51	O5	0.411800	0.620400	0.023200
O61	O6	0.411700	0.426400	0.076200
O71	O7	0.118100	0.129300	0.326500
O81	O8	0.238700	0.085200	0.521000
O91	O9	0.228300	0.878900	0.496500
O101	O10	0.225700	0.675900	0.926700
O111	O11	0.080200	0.118800	0.557000
O121	O12	0.088200	0.976800	0.379600
O131	O13	0.088300	0.923800	0.573600
O141	O14	0.381900	0.673500	0.870700
O151	O15	0.738700	0.521000	0.085200
O161	O16	0.728300	0.496500	0.878900
O171	O17	0.725700	0.926700	0.675900
O181	O18	0.580200	0.557000	0.118800
O191	O19	0.588200	0.379600	0.976800
O201	O20	0.588300	0.573600	0.923800
O211	O21	0.881900	0.870700	0.673500
O221	O22	0.761300	0.914800	0.479000
O231	O23	0.771700	0.121100	0.503500
O241	O24	0.774300	0.324100	0.073300
O251	O25	0.919800	0.881200	0.443000
O261	O26	0.911800	0.023200	0.620400
O271	O27	0.911700	0.076200	0.426400
O281	O28	0.618100	0.326500	0.129300
