data_FIJCUX01_freeONLY_PM
_symmetry_space_group_name_H-M	'P1'
_cell_length_a	15.260500
_cell_length_b	17.737400
_cell_length_c	18.263500
_cell_angle_alpha	113.071000
_cell_angle_beta	90.000000
_cell_angle_gamma	90.000000
_symmetry_Int_Tables_number 1

loop_
_symmetry_equiv_pos_as_xyz
'x,y,z'

loop_
_atom_site_label
_atom_site_type_symbol
_atom_site_fract_x
_atom_site_fract_y
_atom_site_fract_z
Zn11	Zn1	0.495400	0.500250	0.834240
Zn21	Zn2	0.096390	0.001990	0.166180
Zn31	Zn3	0.596030	0.497730	0.995210
Zn41	Zn4	0.906840	0.998050	0.167140
Zn51	Zn5	0.995400	0.999750	0.665760
Zn61	Zn6	0.596390	0.498010	0.333820
Zn71	Zn7	0.096030	0.002270	0.504790
Zn81	Zn8	0.406840	0.501950	0.332860
Zn91	Zn9	0.504600	0.499750	0.165760
Zn101	Zn10	0.903610	0.998010	0.833820
Zn111	Zn11	0.403970	0.502270	0.004790
Zn121	Zn12	0.093160	0.001950	0.832860
Zn131	Zn13	0.004600	0.000250	0.334240
Zn141	Zn14	0.403610	0.501990	0.666180
Zn151	Zn15	0.903970	0.997730	0.495210
Zn161	Zn16	0.593160	0.498050	0.667140
Zn171	Zn17	0.000000	0.000000	0.000000
Zn181	Zn18	0.500000	0.500000	0.500000
H11	H1	0.495100	0.392800	0.688100
H21	H2	0.499900	0.607600	0.979900
H31	H3	0.997200	0.107000	0.145400
H41	H4	0.824400	0.167700	0.798000
H51	H5	0.748200	0.280900	0.880300
H61	H6	0.606200	0.278100	0.694300
H71	H7	0.687900	0.167900	0.610600
H81	H8	0.119500	0.782500	0.870600
H91	H9	0.206300	0.676600	0.787100
H101	H10	0.381700	0.720100	0.963100
H111	H11	0.294800	0.826700	0.046700
H121	H12	0.677200	0.666500	0.973600
H131	H13	0.746800	0.785900	0.054700
H141	H14	0.823300	0.826200	0.863100
H151	H15	0.752500	0.708300	0.781900
H161	H16	0.995100	0.107200	0.811900
H171	H17	0.999900	0.892400	0.520100
H181	H18	0.497200	0.393000	0.354600
H191	H19	0.324400	0.332300	0.702000
H201	H20	0.248200	0.219100	0.619700
H211	H21	0.106200	0.221900	0.805700
H221	H22	0.187900	0.332100	0.889400
H231	H23	0.619500	0.717500	0.629400
H241	H24	0.706300	0.823400	0.712900
H251	H25	0.881700	0.779900	0.536900
H261	H26	0.794800	0.673300	0.453300
H271	H27	0.177200	0.833500	0.526400
H281	H28	0.246800	0.714100	0.445300
H291	H29	0.323300	0.673800	0.636900
H301	H30	0.252500	0.791700	0.718100
H311	H31	0.504900	0.607200	0.311900
H321	H32	0.500100	0.392400	0.020100
H331	H33	0.002800	0.893000	0.854600
H341	H34	0.175600	0.832300	0.202000
H351	H35	0.251800	0.719100	0.119700
H361	H36	0.393800	0.721900	0.305700
H371	H37	0.312100	0.832100	0.389400
H381	H38	0.880500	0.217500	0.129400
H391	H39	0.793700	0.323400	0.212900
H401	H40	0.618300	0.279900	0.036900
H411	H41	0.705200	0.173300	0.953300
H421	H42	0.322800	0.333500	0.026400
H431	H43	0.253200	0.214100	0.945300
H441	H44	0.176700	0.173800	0.136900
H451	H45	0.247500	0.291700	0.218100
H461	H46	0.004900	0.892800	0.188100
H471	H47	0.000100	0.107600	0.479900
H481	H48	0.502800	0.607000	0.645400
H491	H49	0.675600	0.667700	0.298000
H501	H50	0.751800	0.780900	0.380300
H511	H51	0.893800	0.778100	0.194300
H521	H52	0.812100	0.667900	0.110600
H531	H53	0.380500	0.282500	0.370600
H541	H54	0.293700	0.176600	0.287100
H551	H55	0.118300	0.220100	0.463100
H561	H56	0.205200	0.326700	0.546700
H571	H57	0.822800	0.166500	0.473600
H581	H58	0.753200	0.285900	0.554700
H591	H59	0.676700	0.326200	0.363100
H601	H60	0.747500	0.208300	0.281900
C11	C1	0.824900	0.090500	0.642200
C21	C2	0.766300	0.157600	0.695200
C31	C3	0.782100	0.191000	0.776700
C41	C4	0.735900	0.258300	0.826100
C51	C5	0.670800	0.292900	0.795600
C61	C6	0.623900	0.368800	0.848900
C71	C7	0.651500	0.257300	0.714900
C81	C8	0.700000	0.190600	0.664900
C91	C9	0.141700	0.883400	0.021200
C101	C10	0.198500	0.815700	0.967300
C111	C11	0.172200	0.770300	0.889100
C121	C12	0.224200	0.707100	0.839100
C131	C13	0.303400	0.689300	0.866600
C141	C14	0.360000	0.621400	0.811900
C151	C15	0.329500	0.733100	0.944400
C161	C16	0.277100	0.796700	0.994600
C171	C17	0.659200	0.599600	0.816500
C181	C18	0.707100	0.675800	0.869500
C191	C19	0.705900	0.698700	0.951400
C201	C20	0.748100	0.770100	0.999800
C211	C21	0.792200	0.818500	0.967800
C221	C22	0.841100	0.893700	0.019800
C231	C23	0.793700	0.794500	0.885400
C241	C24	0.751400	0.723900	0.836800
C251	C25	0.324900	0.409500	0.857800
C261	C26	0.266300	0.342400	0.804800
C271	C27	0.282100	0.309000	0.723300
C281	C28	0.235900	0.241700	0.673900
C291	C29	0.170800	0.207100	0.704400
C301	C30	0.123900	0.131200	0.651100
C311	C31	0.151500	0.242700	0.785100
C321	C32	0.200000	0.309400	0.835100
C331	C33	0.641700	0.616600	0.478800
C341	C34	0.698500	0.684300	0.532700
C351	C35	0.672200	0.729700	0.610900
C361	C36	0.724200	0.792900	0.660900
C371	C37	0.803400	0.810700	0.633400
C381	C38	0.860000	0.878600	0.688100
C391	C39	0.829500	0.766900	0.555600
C401	C40	0.777100	0.703300	0.505400
C411	C41	0.159200	0.900400	0.683500
C421	C42	0.207100	0.824200	0.630500
C431	C43	0.205900	0.801300	0.548600
C441	C44	0.248100	0.729900	0.500200
C451	C45	0.292200	0.681500	0.532200
C461	C46	0.341100	0.606300	0.480200
C471	C47	0.293700	0.705500	0.614600
C481	C48	0.251400	0.776100	0.663200
C491	C49	0.175100	0.909500	0.357800
C501	C50	0.233700	0.842400	0.304800
C511	C51	0.217900	0.809000	0.223300
C521	C52	0.264100	0.741700	0.173900
C531	C53	0.329200	0.707100	0.204400
C541	C54	0.376100	0.631200	0.151100
C551	C55	0.348500	0.742700	0.285100
C561	C56	0.300000	0.809400	0.335100
C571	C57	0.858300	0.116600	0.978800
C581	C58	0.801500	0.184300	0.032700
C591	C59	0.827800	0.229700	0.110900
C601	C60	0.775800	0.292900	0.160900
C611	C61	0.696600	0.310700	0.133400
C621	C62	0.640000	0.378600	0.188100
C631	C63	0.670500	0.266900	0.055600
C641	C64	0.722900	0.203300	0.005400
C651	C65	0.340800	0.400400	0.183500
C661	C66	0.292900	0.324200	0.130500
C671	C67	0.294100	0.301300	0.048600
C681	C68	0.251900	0.229900	0.000200
C691	C69	0.207800	0.181500	0.032200
C701	C70	0.158900	0.106300	0.980200
C711	C71	0.206300	0.205500	0.114600
C721	C72	0.248600	0.276100	0.163200
C731	C73	0.675100	0.590500	0.142200
C741	C74	0.733700	0.657600	0.195200
C751	C75	0.717900	0.691000	0.276700
C761	C76	0.764100	0.758300	0.326100
C771	C77	0.829200	0.792900	0.295600
C781	C78	0.876100	0.868800	0.348900
C791	C79	0.848500	0.757300	0.214900
C801	C80	0.800000	0.690600	0.164900
C811	C81	0.358300	0.383400	0.521200
C821	C82	0.301500	0.315700	0.467300
C831	C83	0.327800	0.270300	0.389100
C841	C84	0.275800	0.207100	0.339100
C851	C85	0.196600	0.189300	0.366600
C861	C86	0.140000	0.121400	0.311900
C871	C87	0.170500	0.233100	0.444400
C881	C88	0.222900	0.296700	0.494600
C891	C89	0.840800	0.099600	0.316500
C901	C90	0.792900	0.175800	0.369500
C911	C91	0.794100	0.198700	0.451400
C921	C92	0.751900	0.270100	0.499800
C931	C93	0.707800	0.318500	0.467800
C941	C94	0.658900	0.393700	0.519800
C951	C95	0.706300	0.294500	0.385400
C961	C96	0.748600	0.223900	0.336800
O11	O1	0.496470	0.452870	0.711310
O21	O2	0.498190	0.547600	0.956680
O31	O3	0.998700	0.046980	0.122140
O41	O4	0.330350	0.583350	0.742190
O51	O5	0.172260	0.923270	0.089970
O61	O6	0.823530	0.075820	0.568060
O71	O7	0.553840	0.388230	0.825390
O81	O8	0.432290	0.608320	0.836530
O91	O9	0.879700	0.934700	0.989140
O101	O10	0.658740	0.408420	0.916140
O111	O11	0.069280	0.895810	0.996370
O121	O12	0.870650	0.053080	0.672950
O131	O13	0.620700	0.557430	0.846390
O141	O14	0.838500	0.909400	0.094300
O151	O15	0.661550	0.585100	0.742350
O161	O16	0.996470	0.047130	0.788690
O171	O17	0.998190	0.952400	0.543320
O181	O18	0.498700	0.453020	0.377860
O191	O19	0.830350	0.916650	0.757810
O201	O20	0.672260	0.576730	0.410030
O211	O21	0.323530	0.424180	0.931940
O221	O22	0.053840	0.111770	0.674610
O231	O23	0.932290	0.891680	0.663470
O241	O24	0.379700	0.565300	0.510860
O251	O25	0.158740	0.091580	0.583860
O261	O26	0.569280	0.604190	0.503630
O271	O27	0.370650	0.446920	0.827050
O281	O28	0.120700	0.942570	0.653610
O291	O29	0.338500	0.590600	0.405700
O301	O30	0.161550	0.914900	0.757650
O311	O31	0.503530	0.547130	0.288690
O321	O32	0.501810	0.452400	0.043320
O331	O33	0.001300	0.953020	0.877860
O341	O34	0.669650	0.416650	0.257810
O351	O35	0.827740	0.076730	0.910030
O361	O36	0.176470	0.924180	0.431940
O371	O37	0.446160	0.611770	0.174610
O381	O38	0.567710	0.391680	0.163470
O391	O39	0.120300	0.065300	0.010860
O401	O40	0.341260	0.591580	0.083860
O411	O41	0.930720	0.104190	0.003630
O421	O42	0.129350	0.946920	0.327050
O431	O43	0.379300	0.442570	0.153610
O441	O44	0.161500	0.090600	0.905700
O451	O45	0.338450	0.414900	0.257650
O461	O46	0.003530	0.952870	0.211310
O471	O47	0.001810	0.047600	0.456680
O481	O48	0.501300	0.546980	0.622140
O491	O49	0.169650	0.083350	0.242190
O501	O50	0.327740	0.423270	0.589970
O511	O51	0.676470	0.575820	0.068060
O521	O52	0.946160	0.888230	0.325390
O531	O53	0.067710	0.108320	0.336530
O541	O54	0.620300	0.434700	0.489140
O551	O55	0.841260	0.908420	0.416140
O561	O56	0.430720	0.395810	0.496370
O571	O57	0.629350	0.553080	0.172950
O581	O58	0.879300	0.057430	0.346390
O591	O59	0.661500	0.409400	0.594300
O601	O60	0.838450	0.085100	0.242350
