data_FIJDEI_freeONLY_PM
_symmetry_space_group_name_H-M	'P1'
_cell_length_a	13.686000
_cell_length_b	18.252000
_cell_length_c	14.906000
_cell_angle_alpha	90.000000
_cell_angle_beta	101.070000
_cell_angle_gamma	90.000000
_symmetry_Int_Tables_number 1

loop_
_symmetry_equiv_pos_as_xyz
'x,y,z'

loop_
_atom_site_label
_atom_site_type_symbol
_atom_site_fract_x
_atom_site_fract_y
_atom_site_fract_z
Cd11	Cd1	0.658770	0.790470	0.574560
O11	O1	0.801290	0.821300	0.499270
O21	O2	0.657730	0.879140	0.462330
O31	O3	0.503110	0.235070	0.986760
O41	O4	0.480830	0.155270	0.092500
O51	O5	0.619990	0.090490	0.264650
O61	O6	0.726610	0.112520	0.170790
O71	O7	0.098960	0.237260	0.709140
O81	O8	0.256810	0.231010	0.698090
C11	C1	0.748000	0.871260	0.456680
C21	C2	0.792000	0.924420	0.398500
C31	C3	0.893100	0.924450	0.398000
H11	H1	0.936000	0.891000	0.435500
C41	C4	0.730500	0.974770	0.344800
H21	H2	0.661400	0.975400	0.346100
C51	C5	0.931800	0.973410	0.342600
H31	H3	0.001100	0.973300	0.342100
C61	C6	0.869300	0.022600	0.288000
H41	H4	0.896000	0.055400	0.249500
C71	C7	0.768500	0.024190	0.289270
C81	C8	0.699900	0.080830	0.235790
C91	C9	0.448600	0.193030	0.021800
C101	C10	0.275700	0.142530	0.015500
H51	H5	0.296400	0.123200	0.075300
C111	C11	0.342200	0.182360	0.974960
C121	C12	0.179100	0.130910	0.968800
H61	H6	0.133600	0.104300	0.997200
C131	C13	0.311400	0.208850	0.887200
H71	H7	0.356500	0.236300	0.859400
C141	C14	0.148300	0.157830	0.880800
H81	H8	0.081900	0.150400	0.849200
C151	C15	0.216200	0.196080	0.839240
C161	C16	0.189000	0.223060	0.743440
Cd21	Cd2	0.158770	0.290470	0.574560
O91	O9	0.301290	0.321300	0.499270
O101	O10	0.157730	0.379140	0.462330
O111	O11	0.003110	0.735070	0.986760
O121	O12	0.980830	0.655270	0.092500
O131	O13	0.119990	0.590490	0.264650
O141	O14	0.226610	0.612520	0.170790
O151	O15	0.598960	0.737260	0.709140
O161	O16	0.756810	0.731010	0.698090
C171	C17	0.248000	0.371260	0.456680
C181	C18	0.292000	0.424420	0.398500
C191	C19	0.393100	0.424450	0.398000
H91	H9	0.436000	0.391000	0.435500
C201	C20	0.230500	0.474770	0.344800
H101	H10	0.161400	0.475400	0.346100
C211	C21	0.431800	0.473410	0.342600
H111	H11	0.501100	0.473300	0.342100
C221	C22	0.369300	0.522600	0.288000
H121	H12	0.396000	0.555400	0.249500
C231	C23	0.268500	0.524190	0.289270
C241	C24	0.199900	0.580830	0.235790
C251	C25	0.948600	0.693030	0.021800
C261	C26	0.775700	0.642530	0.015500
H131	H13	0.796400	0.623200	0.075300
C271	C27	0.842200	0.682360	0.974960
C281	C28	0.679100	0.630910	0.968800
H141	H14	0.633600	0.604300	0.997200
C291	C29	0.811400	0.708850	0.887200
H151	H15	0.856500	0.736300	0.859400
C301	C30	0.648300	0.657830	0.880800
H161	H16	0.581900	0.650400	0.849200
C311	C31	0.716200	0.696080	0.839240
C321	C32	0.689000	0.723060	0.743440
Cd31	Cd3	0.341230	0.790470	0.925440
O171	O17	0.198710	0.821300	0.000730
O181	O18	0.342270	0.879140	0.037670
O191	O19	0.496890	0.235070	0.513240
O201	O20	0.519170	0.155270	0.407500
O211	O21	0.380010	0.090490	0.235350
O221	O22	0.273390	0.112520	0.329210
O231	O23	0.901040	0.237260	0.790860
O241	O24	0.743190	0.231010	0.801910
C331	C33	0.252000	0.871260	0.043320
C341	C34	0.208000	0.924420	0.101500
C351	C35	0.106900	0.924450	0.102000
H171	H17	0.064000	0.891000	0.064500
C361	C36	0.269500	0.974770	0.155200
H181	H18	0.338600	0.975400	0.153900
C371	C37	0.068200	0.973410	0.157400
H191	H19	0.998900	0.973300	0.157900
C381	C38	0.130700	0.022600	0.212000
H201	H20	0.104000	0.055400	0.250500
C391	C39	0.231500	0.024190	0.210730
C401	C40	0.300100	0.080830	0.264210
C411	C41	0.551400	0.193030	0.478200
C421	C42	0.724300	0.142530	0.484500
H211	H21	0.703600	0.123200	0.424700
C431	C43	0.657800	0.182360	0.525040
C441	C44	0.820900	0.130910	0.531200
H221	H22	0.866400	0.104300	0.502800
C451	C45	0.688600	0.208850	0.612800
H231	H23	0.643500	0.236300	0.640600
C461	C46	0.851700	0.157830	0.619200
H241	H24	0.918100	0.150400	0.650800
C471	C47	0.783800	0.196080	0.660760
C481	C48	0.811000	0.223060	0.756560
Cd41	Cd4	0.841230	0.290470	0.925440
O251	O25	0.698710	0.321300	0.000730
O261	O26	0.842270	0.379140	0.037670
O271	O27	0.996890	0.735070	0.513240
O281	O28	0.019170	0.655270	0.407500
O291	O29	0.880010	0.590490	0.235350
O301	O30	0.773390	0.612520	0.329210
O311	O31	0.401040	0.737260	0.790860
O321	O32	0.243190	0.731010	0.801910
C491	C49	0.752000	0.371260	0.043320
C501	C50	0.708000	0.424420	0.101500
C511	C51	0.606900	0.424450	0.102000
H251	H25	0.564000	0.391000	0.064500
C521	C52	0.769500	0.474770	0.155200
H261	H26	0.838600	0.475400	0.153900
C531	C53	0.568200	0.473410	0.157400
H271	H27	0.498900	0.473300	0.157900
C541	C54	0.630700	0.522600	0.212000
H281	H28	0.604000	0.555400	0.250500
C551	C55	0.731500	0.524190	0.210730
C561	C56	0.800100	0.580830	0.264210
C571	C57	0.051400	0.693030	0.478200
C581	C58	0.224300	0.642530	0.484500
H291	H29	0.203600	0.623200	0.424700
C591	C59	0.157800	0.682360	0.525040
C601	C60	0.320900	0.630910	0.531200
H301	H30	0.366400	0.604300	0.502800
C611	C61	0.188600	0.708850	0.612800
H311	H31	0.143500	0.736300	0.640600
C621	C62	0.351700	0.657830	0.619200
H321	H32	0.418100	0.650400	0.650800
C631	C63	0.283800	0.696080	0.660760
C641	C64	0.311000	0.723060	0.756560
Cd51	Cd5	0.341230	0.209530	0.425440
O331	O33	0.198710	0.178700	0.500730
O341	O34	0.342270	0.120860	0.537670
O351	O35	0.496890	0.764930	0.013240
O361	O36	0.519170	0.844730	0.907500
O371	O37	0.380010	0.909510	0.735350
O381	O38	0.273390	0.887480	0.829210
O391	O39	0.901040	0.762740	0.290860
O401	O40	0.743190	0.768990	0.301910
C651	C65	0.252000	0.128740	0.543320
C661	C66	0.208000	0.075580	0.601500
C671	C67	0.106900	0.075550	0.602000
H331	H33	0.064000	0.109000	0.564500
C681	C68	0.269500	0.025230	0.655200
H341	H34	0.338600	0.024600	0.653900
C691	C69	0.068200	0.026590	0.657400
H351	H35	0.998900	0.026700	0.657900
C701	C70	0.130700	0.977400	0.712000
H361	H36	0.104000	0.944600	0.750500
C711	C71	0.231500	0.975810	0.710730
C721	C72	0.300100	0.919170	0.764210
C731	C73	0.551400	0.806970	0.978200
C741	C74	0.724300	0.857470	0.984500
H371	H37	0.703600	0.876800	0.924700
C751	C75	0.657800	0.817640	0.025040
C761	C76	0.820900	0.869090	0.031200
H381	H38	0.866400	0.895700	0.002800
C771	C77	0.688600	0.791150	0.112800
H391	H39	0.643500	0.763700	0.140600
C781	C78	0.851700	0.842170	0.119200
H401	H40	0.918100	0.849600	0.150800
C791	C79	0.783800	0.803920	0.160760
C801	C80	0.811000	0.776940	0.256560
Cd61	Cd6	0.841230	0.709530	0.425440
O411	O41	0.698710	0.678700	0.500730
O421	O42	0.842270	0.620860	0.537670
O431	O43	0.996890	0.264930	0.013240
O441	O44	0.019170	0.344730	0.907500
O451	O45	0.880010	0.409510	0.735350
O461	O46	0.773390	0.387480	0.829210
O471	O47	0.401040	0.262740	0.290860
O481	O48	0.243190	0.268990	0.301910
C811	C81	0.752000	0.628740	0.543320
C821	C82	0.708000	0.575580	0.601500
C831	C83	0.606900	0.575550	0.602000
H411	H41	0.564000	0.609000	0.564500
C841	C84	0.769500	0.525230	0.655200
H421	H42	0.838600	0.524600	0.653900
C851	C85	0.568200	0.526590	0.657400
H431	H43	0.498900	0.526700	0.657900
C861	C86	0.630700	0.477400	0.712000
H441	H44	0.604000	0.444600	0.750500
C871	C87	0.731500	0.475810	0.710730
C881	C88	0.800100	0.419170	0.764210
C891	C89	0.051400	0.306970	0.978200
C901	C90	0.224300	0.357470	0.984500
H451	H45	0.203600	0.376800	0.924700
C911	C91	0.157800	0.317640	0.025040
C921	C92	0.320900	0.369090	0.031200
H461	H46	0.366400	0.395700	0.002800
C931	C93	0.188600	0.291150	0.112800
H471	H47	0.143500	0.263700	0.140600
C941	C94	0.351700	0.342170	0.119200
H481	H48	0.418100	0.349600	0.150800
C951	C95	0.283800	0.303920	0.160760
C961	C96	0.311000	0.276940	0.256560
Cd71	Cd7	0.658770	0.209530	0.074560
O491	O49	0.801290	0.178700	0.999270
O501	O50	0.657730	0.120860	0.962330
O511	O51	0.503110	0.764930	0.486760
O521	O52	0.480830	0.844730	0.592500
O531	O53	0.619990	0.909510	0.764650
O541	O54	0.726610	0.887480	0.670790
O551	O55	0.098960	0.762740	0.209140
O561	O56	0.256810	0.768990	0.198090
C971	C97	0.748000	0.128740	0.956680
C981	C98	0.792000	0.075580	0.898500
C991	C99	0.893100	0.075550	0.898000
H491	H49	0.936000	0.109000	0.935500
C1001	C100	0.730500	0.025230	0.844800
H501	H50	0.661400	0.024600	0.846100
C1011	C101	0.931800	0.026590	0.842600
H511	H51	0.001100	0.026700	0.842100
C1021	C102	0.869300	0.977400	0.788000
H521	H52	0.896000	0.944600	0.749500
C1031	C103	0.768500	0.975810	0.789270
C1041	C104	0.699900	0.919170	0.735790
C1051	C105	0.448600	0.806970	0.521800
C1061	C106	0.275700	0.857470	0.515500
H531	H53	0.296400	0.876800	0.575300
C1071	C107	0.342200	0.817640	0.474960
C1081	C108	0.179100	0.869090	0.468800
H541	H54	0.133600	0.895700	0.497200
C1091	C109	0.311400	0.791150	0.387200
H551	H55	0.356500	0.763700	0.359400
C1101	C110	0.148300	0.842170	0.380800
H561	H56	0.081900	0.849600	0.349200
C1111	C111	0.216200	0.803920	0.339240
C1121	C112	0.189000	0.776940	0.243440
Cd81	Cd8	0.158770	0.709530	0.074560
O571	O57	0.301290	0.678700	0.999270
O581	O58	0.157730	0.620860	0.962330
O591	O59	0.003110	0.264930	0.486760
O601	O60	0.980830	0.344730	0.592500
O611	O61	0.119990	0.409510	0.764650
O621	O62	0.226610	0.387480	0.670790
O631	O63	0.598960	0.262740	0.209140
O641	O64	0.756810	0.268990	0.198090
C1131	C113	0.248000	0.628740	0.956680
C1141	C114	0.292000	0.575580	0.898500
C1151	C115	0.393100	0.575550	0.898000
H571	H57	0.436000	0.609000	0.935500
C1161	C116	0.230500	0.525230	0.844800
H581	H58	0.161400	0.524600	0.846100
C1171	C117	0.431800	0.526590	0.842600
H591	H59	0.501100	0.526700	0.842100
C1181	C118	0.369300	0.477400	0.788000
H601	H60	0.396000	0.444600	0.749500
C1191	C119	0.268500	0.475810	0.789270
C1201	C120	0.199900	0.419170	0.735790
C1211	C121	0.948600	0.306970	0.521800
C1221	C122	0.775700	0.357470	0.515500
H611	H61	0.796400	0.376800	0.575300
C1231	C123	0.842200	0.317640	0.474960
C1241	C124	0.679100	0.369090	0.468800
H621	H62	0.633600	0.395700	0.497200
C1251	C125	0.811400	0.291150	0.387200
H631	H63	0.856500	0.263700	0.359400
C1261	C126	0.648300	0.342170	0.380800
H641	H64	0.581900	0.349600	0.349200
C1271	C127	0.716200	0.303920	0.339240
C1281	C128	0.689000	0.276940	0.243440
Cd91	Cd9	0.500000	0.172520	0.250000
Cd101	Cd10	0.000000	0.672520	0.250000
Cd111	Cd11	0.500000	0.827480	0.750000
Cd121	Cd12	0.000000	0.327480	0.750000
