data_FIJDOS_freeONLY_PM
_symmetry_space_group_name_H-M	'P1'
_cell_length_a	6.836540
_cell_length_b	15.144400
_cell_length_c	15.144400
_cell_angle_alpha	62.222700
_cell_angle_beta	81.345600
_cell_angle_gamma	98.654400
_symmetry_Int_Tables_number 1

loop_
_symmetry_equiv_pos_as_xyz
'x,y,z'

loop_
_atom_site_label
_atom_site_type_symbol
_atom_site_fract_x
_atom_site_fract_y
_atom_site_fract_z
Zn11	Zn1	0.889260	0.684390	0.577920
Zn21	Zn2	0.467180	0.577920	0.737690
Zn31	Zn3	0.204870	0.737690	0.684390
Zn41	Zn4	0.110740	0.315610	0.422080
Zn51	Zn5	0.532820	0.422080	0.262310
Zn61	Zn6	0.795130	0.262310	0.315610
H11	H1	0.669500	0.018100	0.529700
H21	H2	0.199200	0.529700	0.452200
H31	H3	0.651400	0.452200	0.018100
H41	H4	0.330500	0.981900	0.470300
H51	H5	0.800800	0.470300	0.547800
H61	H6	0.348600	0.547800	0.981900
C11	C1	0.648340	0.823880	0.614060
C21	C2	0.835020	0.912180	0.553320
C31	C3	0.035880	0.899470	0.534730
C41	C4	0.805340	0.011250	0.517630
C51	C5	0.681300	0.794900	0.411200
C61	C6	0.695900	0.763800	0.268500
C71	C7	0.413300	0.835700	0.320000
C81	C8	0.262400	0.614060	0.562060
C91	C9	0.388340	0.553320	0.534500
C101	C10	0.570610	0.534730	0.565800
C111	C11	0.322970	0.517630	0.471120
C121	C12	0.092500	0.411200	0.793900
C131	C13	0.964400	0.268500	0.967700
C141	C14	0.733300	0.320000	0.844300
C151	C15	0.824460	0.562060	0.823880
C161	C16	0.922840	0.534500	0.912180
C171	C17	0.136410	0.565800	0.899470
C181	C18	0.794090	0.471120	0.011250
C191	C19	0.886400	0.793900	0.794900
C201	C20	0.932100	0.967700	0.763800
C211	C21	0.577600	0.844300	0.835700
C221	C22	0.351660	0.176120	0.385940
C231	C23	0.164980	0.087820	0.446680
C241	C24	0.964120	0.100530	0.465270
C251	C25	0.194660	0.988750	0.482370
C261	C26	0.318700	0.205100	0.588800
C271	C27	0.304100	0.236200	0.731500
C281	C28	0.586700	0.164300	0.680000
C291	C29	0.737600	0.385940	0.437940
C301	C30	0.611660	0.446680	0.465500
C311	C31	0.429390	0.465270	0.434200
C321	C32	0.677030	0.482370	0.528880
C331	C33	0.907500	0.588800	0.206100
C341	C34	0.035600	0.731500	0.032300
C351	C35	0.266700	0.680000	0.155700
C361	C36	0.175540	0.437940	0.176120
C371	C37	0.077160	0.465500	0.087820
C381	C38	0.863590	0.434200	0.100530
C391	C39	0.205910	0.528880	0.988750
C401	C40	0.113600	0.206100	0.205100
C411	C41	0.067900	0.032300	0.236200
C421	C42	0.422400	0.155700	0.164300
N11	N1	0.603500	0.802600	0.334900
N21	N2	0.938400	0.334900	0.862500
N31	N3	0.800900	0.862500	0.802600
N41	N4	0.396500	0.197400	0.665100
N51	N5	0.061600	0.665100	0.137500
N61	N6	0.199100	0.137500	0.197400
O11	O1	0.670540	0.733080	0.651660
O21	O2	0.477210	0.843950	0.625520
O31	O3	0.082430	0.808240	0.563050
O41	O4	0.833260	0.765270	0.430590
O51	O5	0.322200	0.651660	0.615260
O61	O6	0.102730	0.625520	0.530530
O71	O7	0.645480	0.563050	0.628710
O81	O8	0.263850	0.430590	0.804140
O91	O9	0.937460	0.615260	0.733080
O101	O10	0.633260	0.530530	0.843950
O111	O11	0.274190	0.628710	0.808240
O121	O12	0.067990	0.804140	0.765270
O131	O13	0.329460	0.266920	0.348340
O141	O14	0.522790	0.156050	0.374480
O151	O15	0.917570	0.191760	0.436950
O161	O16	0.166740	0.234730	0.569410
O171	O17	0.677800	0.348340	0.384740
O181	O18	0.897270	0.374480	0.469470
O191	O19	0.354520	0.436950	0.371290
O201	O20	0.736150	0.569410	0.195860
O211	O21	0.062540	0.384740	0.266920
O221	O22	0.366740	0.469470	0.156050
O231	O23	0.725810	0.371290	0.191760
O241	O24	0.932010	0.195860	0.234730
