data_FIQYOU_freeONLY_PM
_symmetry_space_group_name_H-M	'P1'
_cell_length_a	9.930400
_cell_length_b	11.444600
_cell_length_c	14.619200
_cell_angle_alpha	91.423000
_cell_angle_beta	90.000000
_cell_angle_gamma	90.000000
_symmetry_Int_Tables_number 1

loop_
_symmetry_equiv_pos_as_xyz
'x,y,z'

loop_
_atom_site_label
_atom_site_type_symbol
_atom_site_fract_x
_atom_site_fract_y
_atom_site_fract_z
Fe11	Fe1	0.918800	0.755530	0.632400
Fe21	Fe2	0.607310	0.760050	0.687700
Fe31	Fe3	0.418800	0.744470	0.867600
Fe41	Fe4	0.107310	0.739950	0.812300
Fe51	Fe5	0.081200	0.244470	0.367600
Fe61	Fe6	0.392690	0.239950	0.312300
Fe71	Fe7	0.581200	0.255530	0.132400
Fe81	Fe8	0.892690	0.260050	0.187700
Fe91	Fe9	0.000000	0.500000	0.500000
Fe101	Fe10	0.500000	0.000000	0.000000
Fe111	Fe11	0.000000	0.000000	0.500000
Fe121	Fe12	0.500000	0.500000	0.000000
H11	H1	0.149000	0.713000	0.426000
H21	H2	0.695000	0.986000	0.502000
H31	H3	0.742000	0.854000	0.868000
H41	H4	0.613000	0.546000	0.537000
H51	H5	0.176000	0.973000	0.726000
H61	H6	0.049000	0.479000	0.765000
H71	H7	0.649000	0.787000	0.074000
H81	H8	0.195000	0.514000	0.998000
H91	H9	0.242000	0.646000	0.632000
H101	H10	0.113000	0.954000	0.963000
H111	H11	0.676000	0.527000	0.774000
H121	H12	0.549000	0.021000	0.735000
H131	H13	0.851000	0.287000	0.574000
H141	H14	0.305000	0.014000	0.498000
H151	H15	0.258000	0.146000	0.132000
H161	H16	0.387000	0.454000	0.463000
H171	H17	0.824000	0.027000	0.274000
H181	H18	0.951000	0.521000	0.235000
H191	H19	0.351000	0.213000	0.926000
H201	H20	0.805000	0.486000	0.002000
H211	H21	0.758000	0.354000	0.368000
H221	H22	0.887000	0.046000	0.037000
H231	H23	0.324000	0.473000	0.226000
H241	H24	0.451000	0.979000	0.265000
C11	C1	0.103700	0.744000	0.468200
C21	C2	0.718300	0.928400	0.549600
C31	C3	0.824300	0.829100	0.830900
C41	C4	0.710500	0.574000	0.548200
C51	C5	0.123500	0.955100	0.688900
C61	C6	0.014900	0.519600	0.711400
C71	C7	0.603700	0.756000	0.031800
C81	C8	0.218300	0.571600	0.950400
C91	C9	0.324300	0.670900	0.669100
C101	C10	0.210500	0.926000	0.951800
C111	C11	0.623500	0.544900	0.811100
C121	C12	0.514900	0.980400	0.788600
C131	C13	0.896300	0.256000	0.531800
C141	C14	0.281700	0.071600	0.450400
C151	C15	0.175700	0.170900	0.169100
C161	C16	0.289500	0.426000	0.451800
C171	C17	0.876500	0.044900	0.311100
C181	C18	0.985100	0.480400	0.288600
C191	C19	0.396300	0.244000	0.968200
C201	C20	0.781700	0.428400	0.049600
C211	C21	0.675700	0.329100	0.330900
C221	C22	0.789500	0.074000	0.048200
C231	C23	0.376500	0.455100	0.188900
C241	C24	0.485100	0.019600	0.211400
O11	O1	0.027100	0.687200	0.521700
O21	O2	0.112300	0.850300	0.463000
O31	O3	0.841600	0.897600	0.559800
O41	O4	0.621200	0.888400	0.591000
O51	O5	0.797800	0.806900	0.747100
O61	O6	0.934800	0.813900	0.868700
O71	O7	0.740600	0.652400	0.606700
O81	O8	0.791200	0.516600	0.499800
O91	O9	0.082000	0.851100	0.696800
O101	O10	0.100400	0.021600	0.626900
O111	O11	0.003400	0.628100	0.718500
O121	O12	0.003600	0.458600	0.640500
O131	O13	0.527100	0.812800	0.978300
O141	O14	0.612300	0.649700	0.037000
O151	O15	0.341600	0.602400	0.940200
O161	O16	0.121200	0.611600	0.909000
O171	O17	0.297800	0.693100	0.752900
O181	O18	0.434800	0.686100	0.631300
O191	O19	0.240600	0.847600	0.893300
O201	O20	0.291200	0.983400	0.000200
O211	O21	0.582000	0.648900	0.803200
O221	O22	0.600400	0.478400	0.873100
O231	O23	0.503400	0.871900	0.781500
O241	O24	0.503600	0.041400	0.859500
O251	O25	0.972900	0.312800	0.478300
O261	O26	0.887700	0.149700	0.537000
O271	O27	0.158400	0.102400	0.440200
O281	O28	0.378800	0.111600	0.409000
O291	O29	0.202200	0.193100	0.252900
O301	O30	0.065200	0.186100	0.131300
O311	O31	0.259400	0.347600	0.393300
O321	O32	0.208800	0.483400	0.500200
O331	O33	0.918000	0.148900	0.303200
O341	O34	0.899600	0.978400	0.373100
O351	O35	0.996600	0.371900	0.281500
O361	O36	0.996400	0.541400	0.359500
O371	O37	0.472900	0.187200	0.021700
O381	O38	0.387700	0.350300	0.963000
O391	O39	0.658400	0.397600	0.059800
O401	O40	0.878800	0.388400	0.091000
O411	O41	0.702200	0.306900	0.247100
O421	O42	0.565200	0.313900	0.368700
O431	O43	0.759400	0.152400	0.106700
O441	O44	0.708800	0.016600	0.999800
O451	O45	0.418000	0.351100	0.196800
O461	O46	0.399600	0.521600	0.126900
O471	O47	0.496600	0.128100	0.218500
O481	O48	0.496400	0.958600	0.140500
