data_FIQYUA_freeONLY_PM
_symmetry_space_group_name_H-M	'P1'
_cell_length_a	9.833500
_cell_length_b	11.272700
_cell_length_c	14.424900
_cell_angle_alpha	91.242000
_cell_angle_beta	90.000000
_cell_angle_gamma	90.000000
_symmetry_Int_Tables_number 1

loop_
_symmetry_equiv_pos_as_xyz
'x,y,z'

loop_
_atom_site_label
_atom_site_type_symbol
_atom_site_fract_x
_atom_site_fract_y
_atom_site_fract_z
Co11	Co1	0.919330	0.755320	0.632850
Co21	Co2	0.609290	0.760080	0.688770
Co31	Co3	0.419330	0.744680	0.867150
Co41	Co4	0.109290	0.739920	0.811230
Co51	Co5	0.080670	0.244680	0.367150
Co61	Co6	0.390710	0.239920	0.311230
Co71	Co7	0.580670	0.255320	0.132850
Co81	Co8	0.890710	0.260080	0.188770
Co91	Co9	0.000000	0.500000	0.500000
Co101	Co10	0.500000	0.000000	0.000000
Co111	Co11	0.000000	0.000000	0.500000
Co121	Co12	0.500000	0.500000	0.000000
H11	H1	0.164000	0.701000	0.432000
H21	H2	0.714000	0.989000	0.504000
H31	H3	0.758000	0.859000	0.865000
H41	H4	0.623000	0.554000	0.541000
H51	H5	0.189000	0.982000	0.744000
H61	H6	0.039000	0.484000	0.758000
H71	H7	0.664000	0.799000	0.068000
H81	H8	0.214000	0.511000	0.996000
H91	H9	0.258000	0.641000	0.635000
H101	H10	0.123000	0.946000	0.959000
H111	H11	0.689000	0.518000	0.756000
H121	H12	0.539000	0.016000	0.742000
H131	H13	0.836000	0.299000	0.568000
H141	H14	0.286000	0.011000	0.496000
H151	H15	0.242000	0.141000	0.135000
H161	H16	0.377000	0.446000	0.459000
H171	H17	0.811000	0.018000	0.256000
H181	H18	0.961000	0.516000	0.242000
H191	H19	0.336000	0.201000	0.932000
H201	H20	0.786000	0.489000	0.004000
H211	H21	0.742000	0.359000	0.365000
H221	H22	0.877000	0.054000	0.041000
H231	H23	0.311000	0.482000	0.244000
H241	H24	0.461000	0.984000	0.258000
C11	C1	0.108600	0.742400	0.471300
C21	C2	0.720500	0.926600	0.547800
C31	C3	0.827600	0.832200	0.830100
C41	C4	0.711300	0.575000	0.547500
C51	C5	0.125600	0.955900	0.689100
C61	C6	0.013400	0.516700	0.712300
C71	C7	0.608600	0.757600	0.028700
C81	C8	0.220500	0.573400	0.952200
C91	C9	0.327600	0.667800	0.669900
C101	C10	0.211300	0.925000	0.952500
C111	C11	0.625600	0.544100	0.810900
C121	C12	0.513400	0.983300	0.787700
C131	C13	0.891400	0.257600	0.528700
C141	C14	0.279500	0.073400	0.452200
C151	C15	0.172400	0.167800	0.169900
C161	C16	0.288700	0.425000	0.452500
C171	C17	0.874400	0.044100	0.310900
C181	C18	0.986600	0.483300	0.287700
C191	C19	0.391400	0.242400	0.971300
C201	C20	0.779500	0.426600	0.047800
C211	C21	0.672400	0.332200	0.330100
C221	C22	0.788700	0.075000	0.047500
C231	C23	0.374400	0.455900	0.189100
C241	C24	0.486600	0.016700	0.212300
O11	O1	0.027500	0.685000	0.523510
O21	O2	0.116900	0.851200	0.467800
O31	O3	0.844300	0.896300	0.558650
O41	O4	0.621300	0.886600	0.589900
O51	O5	0.799000	0.810500	0.745210
O61	O6	0.938300	0.816300	0.867980
O71	O7	0.742000	0.652900	0.608800
O81	O8	0.791700	0.517600	0.498300
O91	O9	0.083200	0.850300	0.695280
O101	O10	0.099300	0.025300	0.626000
O111	O11	0.003100	0.628700	0.719480
O121	O12	0.998000	0.456900	0.640700
O131	O13	0.527500	0.815000	0.976490
O141	O14	0.616900	0.648800	0.032200
O151	O15	0.344300	0.603700	0.941350
O161	O16	0.121300	0.613400	0.910100
O171	O17	0.299000	0.689500	0.754790
O181	O18	0.438300	0.683700	0.632020
O191	O19	0.242000	0.847100	0.891200
O201	O20	0.291700	0.982400	0.001700
O211	O21	0.583200	0.649700	0.804720
O221	O22	0.599300	0.474700	0.874000
O231	O23	0.503100	0.871300	0.780520
O241	O24	0.498000	0.043100	0.859300
O251	O25	0.972500	0.315000	0.476490
O261	O26	0.883100	0.148800	0.532200
O271	O27	0.155700	0.103700	0.441350
O281	O28	0.378700	0.113400	0.410100
O291	O29	0.201000	0.189500	0.254790
O301	O30	0.061700	0.183700	0.132020
O311	O31	0.258000	0.347100	0.391200
O321	O32	0.208300	0.482400	0.501700
O331	O33	0.916800	0.149700	0.304720
O341	O34	0.900700	0.974700	0.374000
O351	O35	0.996900	0.371300	0.280520
O361	O36	0.002000	0.543100	0.359300
O371	O37	0.472500	0.185000	0.023510
O381	O38	0.383100	0.351200	0.967800
O391	O39	0.655700	0.396300	0.058650
O401	O40	0.878700	0.386600	0.089900
O411	O41	0.701000	0.310500	0.245210
O421	O42	0.561700	0.316300	0.367980
O431	O43	0.758000	0.152900	0.108800
O441	O44	0.708300	0.017600	0.998300
O451	O45	0.416800	0.350300	0.195280
O461	O46	0.400700	0.525300	0.126000
O471	O47	0.496900	0.128700	0.219480
O481	O48	0.502000	0.956900	0.140700
