data_FITHAS_charged_PM
_symmetry_space_group_name_H-M	'P1'
_cell_length_a	12.806100
_cell_length_b	20.787200
_cell_length_c	21.624700
_cell_angle_alpha	103.246000
_cell_angle_beta	90.000000
_cell_angle_gamma	90.000000
_symmetry_Int_Tables_number 1

loop_
_symmetry_equiv_pos_as_xyz
'x,y,z'

loop_
_atom_site_label
_atom_site_type_symbol
_atom_site_fract_x
_atom_site_fract_y
_atom_site_fract_z
Sc11	Sc1	0.785950	0.999240	0.242250
Sc21	Sc2	0.285950	0.500760	0.257750
Sc31	Sc3	0.214050	0.000760	0.757750
Sc41	Sc4	0.714050	0.499240	0.742250
H11	H1	0.848500	0.815300	0.304000
H21	H2	0.751800	0.727900	0.323100
H31	H3	0.489400	0.828200	0.301800
H41	H4	0.592900	0.914900	0.285900
H51	H5	0.968800	0.076300	0.183900
H61	H6	0.075200	0.161500	0.168700
H71	H7	0.817200	0.275400	0.173900
H81	H8	0.716200	0.187500	0.187200
H91	H9	0.996300	0.922100	0.320000
H101	H10	0.027600	0.910100	0.422300
H111	H11	0.950100	0.100300	0.489400
H121	H12	0.920300	0.110600	0.385000
H131	H13	0.019400	0.446200	0.181400
H141	H14	0.910000	0.356400	0.177100
H151	H15	0.165100	0.239500	0.158300
H161	H16	0.267900	0.331400	0.160800
H171	H17	0.562000	0.552000	0.309000
H181	H18	0.657900	0.641800	0.297100
H191	H19	0.409000	0.759100	0.351700
H201	H20	0.313100	0.668800	0.360600
H211	H21	0.471100	0.016700	0.181400
H221	H22	0.400400	0.032200	0.087900
H231	H23	0.658200	0.956200	0.996700
H241	H24	0.727900	0.947200	0.091700
H251	H25	0.348500	0.684700	0.196000
H261	H26	0.251800	0.772100	0.176900
H271	H27	0.989400	0.671800	0.198200
H281	H28	0.092900	0.585100	0.214100
H291	H29	0.468800	0.423700	0.316100
H301	H30	0.575200	0.338500	0.331300
H311	H31	0.317200	0.224600	0.326100
H321	H32	0.216200	0.312500	0.312800
H331	H33	0.496300	0.577900	0.180000
H341	H34	0.527600	0.589900	0.077700
H351	H35	0.450100	0.399700	0.010600
H361	H36	0.420300	0.389400	0.115000
H371	H37	0.519400	0.053800	0.318600
H381	H38	0.410000	0.143600	0.322900
H391	H39	0.665100	0.260500	0.341700
H401	H40	0.767900	0.168600	0.339200
H411	H41	0.062000	0.948000	0.191000
H421	H42	0.157900	0.858200	0.202900
H431	H43	0.909000	0.740900	0.148300
H441	H44	0.813100	0.831200	0.139400
H451	H45	0.971100	0.483300	0.318600
H461	H46	0.900400	0.467800	0.412100
H471	H47	0.158200	0.543800	0.503300
H481	H48	0.227900	0.552800	0.408300
H491	H49	0.151500	0.184700	0.696000
H501	H50	0.248200	0.272100	0.676900
H511	H51	0.510600	0.171800	0.698200
H521	H52	0.407100	0.085100	0.714100
H531	H53	0.031200	0.923700	0.816100
H541	H54	0.924800	0.838500	0.831300
H551	H55	0.182800	0.724600	0.826100
H561	H56	0.283800	0.812500	0.812800
H571	H57	0.003700	0.077900	0.680000
H581	H58	0.972400	0.089900	0.577700
H591	H59	0.049900	0.899700	0.510600
H601	H60	0.079700	0.889400	0.615000
H611	H61	0.980600	0.553800	0.818600
H621	H62	0.090000	0.643600	0.822900
H631	H63	0.834900	0.760500	0.841700
H641	H64	0.732100	0.668600	0.839200
H651	H65	0.438000	0.448000	0.691000
H661	H66	0.342100	0.358200	0.702900
H671	H67	0.591000	0.240900	0.648300
H681	H68	0.686900	0.331200	0.639400
H691	H69	0.528900	0.983300	0.818600
H701	H70	0.599600	0.967800	0.912100
H711	H71	0.341800	0.043800	0.003300
H721	H72	0.272100	0.052800	0.908300
H731	H73	0.651500	0.315300	0.804000
H741	H74	0.748200	0.227900	0.823100
H751	H75	0.010600	0.328200	0.801800
H761	H76	0.907100	0.414900	0.785900
H771	H77	0.531200	0.576300	0.683900
H781	H78	0.424800	0.661500	0.668700
H791	H79	0.682800	0.775400	0.673900
H801	H80	0.783800	0.687500	0.687200
H811	H81	0.503700	0.422100	0.820000
H821	H82	0.472400	0.410100	0.922300
H831	H83	0.549900	0.600300	0.989400
H841	H84	0.579700	0.610600	0.885000
H851	H85	0.480600	0.946200	0.681400
H861	H86	0.590000	0.856400	0.677100
H871	H87	0.334900	0.739500	0.658300
H881	H88	0.232100	0.831400	0.660800
H891	H89	0.938000	0.052000	0.809000
H901	H90	0.842100	0.141800	0.797100
H911	H91	0.091000	0.259100	0.851700
H921	H92	0.186900	0.168800	0.860600
H931	H93	0.028900	0.516700	0.681400
H941	H94	0.099600	0.532200	0.587900
H951	H95	0.841800	0.456200	0.496700
H961	H96	0.772100	0.447200	0.591700
C11	C1	0.774400	0.817500	0.303900
C21	C2	0.717200	0.765700	0.315400
C31	C3	0.609500	0.768300	0.315800
C41	C4	0.563300	0.824900	0.303200
C51	C5	0.624600	0.875900	0.292900
C61	C6	0.938900	0.117600	0.182000
C71	C7	0.001900	0.168100	0.173000
C81	C8	0.958900	0.229200	0.170100
C91	C9	0.849800	0.234900	0.175800
C101	C10	0.790000	0.183300	0.184200
C111	C11	0.986300	0.958600	0.355000
C121	C12	0.005000	0.951600	0.415800
C131	C13	0.991700	0.003100	0.466300
C141	C14	0.959600	0.063200	0.454800
C151	C15	0.941400	0.069400	0.392900
C161	C16	0.048300	0.403300	0.176400
C171	C17	0.983500	0.349900	0.174300
C181	C18	0.023800	0.286600	0.168200
C191	C19	0.133000	0.281600	0.163000
C201	C20	0.194200	0.336000	0.164700
C211	C21	0.531100	0.594700	0.316800
C221	C22	0.587300	0.647800	0.310800
C231	C23	0.545000	0.711000	0.323900
C241	C24	0.440900	0.716700	0.342400
C251	C25	0.384200	0.663800	0.347700
C261	C26	0.510600	0.005000	0.143200
C271	C27	0.468300	0.013800	0.087500
C281	C28	0.522400	0.996300	0.030700
C291	C29	0.618300	0.970400	0.034400
C301	C30	0.659100	0.964000	0.090700
C311	C31	0.274400	0.682500	0.196100
C321	C32	0.217200	0.734300	0.184600
C331	C33	0.109500	0.731700	0.184200
C341	C34	0.063300	0.675100	0.196800
C351	C35	0.124600	0.624100	0.207100
C361	C36	0.438900	0.382400	0.318000
C371	C37	0.501900	0.331900	0.327000
C381	C38	0.458900	0.270800	0.329900
C391	C39	0.349800	0.265100	0.324200
C401	C40	0.290000	0.316700	0.315800
C411	C41	0.486300	0.541400	0.145000
C421	C42	0.505000	0.548400	0.084200
C431	C43	0.491700	0.496900	0.033700
C441	C44	0.459600	0.436800	0.045200
C451	C45	0.441400	0.430600	0.107100
C461	C46	0.548300	0.096700	0.323600
C471	C47	0.483500	0.150100	0.325700
C481	C48	0.523800	0.213400	0.331800
C491	C49	0.633000	0.218400	0.337000
C501	C50	0.694200	0.164000	0.335300
C511	C51	0.031100	0.905300	0.183200
C521	C52	0.087300	0.852200	0.189200
C531	C53	0.045000	0.789000	0.176100
C541	C54	0.940900	0.783300	0.157600
C551	C55	0.884200	0.836200	0.152300
C561	C56	0.010600	0.495000	0.356800
C571	C57	0.968300	0.486200	0.412500
C581	C58	0.022400	0.503700	0.469300
C591	C59	0.118300	0.529600	0.465600
C601	C60	0.159100	0.536000	0.409300
C611	C61	0.225600	0.182500	0.696100
C621	C62	0.282800	0.234300	0.684600
C631	C63	0.390500	0.231700	0.684200
C641	C64	0.436700	0.175100	0.696800
C651	C65	0.375400	0.124100	0.707100
C661	C66	0.061100	0.882400	0.818000
C671	C67	0.998100	0.831900	0.827000
C681	C68	0.041100	0.770800	0.829900
C691	C69	0.150200	0.765100	0.824200
C701	C70	0.210000	0.816700	0.815800
C711	C71	0.013700	0.041400	0.645000
C721	C72	0.995000	0.048400	0.584200
C731	C73	0.008300	0.996900	0.533700
C741	C74	0.040400	0.936800	0.545200
C751	C75	0.058600	0.930600	0.607100
C761	C76	0.951700	0.596700	0.823600
C771	C77	0.016500	0.650100	0.825700
C781	C78	0.976200	0.713400	0.831800
C791	C79	0.867000	0.718400	0.837000
C801	C80	0.805800	0.664000	0.835300
C811	C81	0.468900	0.405300	0.683200
C821	C82	0.412700	0.352200	0.689200
C831	C83	0.455000	0.289000	0.676100
C841	C84	0.559100	0.283300	0.657600
C851	C85	0.615800	0.336200	0.652300
C861	C86	0.489400	0.995000	0.856800
C871	C87	0.531700	0.986200	0.912500
C881	C88	0.477600	0.003700	0.969300
C891	C89	0.381700	0.029600	0.965600
C901	C90	0.340900	0.036000	0.909300
C911	C91	0.725600	0.317500	0.803900
C921	C92	0.782800	0.265700	0.815400
C931	C93	0.890500	0.268300	0.815800
C941	C94	0.936700	0.324900	0.803200
C951	C95	0.875400	0.375900	0.792900
C961	C96	0.561100	0.617600	0.682000
C971	C97	0.498100	0.668100	0.673000
C981	C98	0.541100	0.729200	0.670100
C991	C99	0.650200	0.734900	0.675800
C1001	C100	0.710000	0.683300	0.684200
C1011	C101	0.513700	0.458600	0.855000
C1021	C102	0.495000	0.451600	0.915800
C1031	C103	0.508300	0.503100	0.966300
C1041	C104	0.540400	0.563200	0.954800
C1051	C105	0.558600	0.569400	0.892900
C1061	C106	0.451700	0.903300	0.676400
C1071	C107	0.516500	0.849900	0.674300
C1081	C108	0.476200	0.786600	0.668200
C1091	C109	0.367000	0.781600	0.663000
C1101	C110	0.305800	0.836000	0.664700
C1111	C111	0.968900	0.094700	0.816800
C1121	C112	0.912700	0.147800	0.810800
C1131	C113	0.955000	0.211000	0.823900
C1141	C114	0.059100	0.216700	0.842400
C1151	C115	0.115800	0.163800	0.847700
C1161	C116	0.989400	0.505000	0.643200
C1171	C117	0.031700	0.513800	0.587500
C1181	C118	0.977600	0.496300	0.530700
C1191	C119	0.881700	0.470400	0.534400
C1201	C120	0.840900	0.464000	0.590700
N11	N1	0.728000	0.870400	0.292600
N21	N2	0.836400	0.126400	0.188200
N31	N3	0.954000	0.016600	0.344800
N41	N4	0.150700	0.394900	0.171600
N51	N5	0.429500	0.603500	0.334400
N61	N6	0.604800	0.980700	0.144500
N71	N7	0.228000	0.629600	0.207400
N81	N8	0.336400	0.373600	0.311800
N91	N9	0.454000	0.483400	0.155200
N101	N10	0.650700	0.105100	0.328400
N111	N11	0.929500	0.896500	0.165600
N121	N12	0.104800	0.519300	0.355500
N131	N13	0.272000	0.129600	0.707400
N141	N14	0.163600	0.873600	0.811800
N151	N15	0.046000	0.983400	0.655200
N161	N16	0.849300	0.605100	0.828400
N171	N17	0.570500	0.396500	0.665600
N181	N18	0.395200	0.019300	0.855500
N191	N19	0.772000	0.370400	0.792600
N201	N20	0.663600	0.626400	0.688200
N211	N21	0.546000	0.516600	0.844800
N221	N22	0.349300	0.894900	0.671600
N231	N23	0.070500	0.103500	0.834400
N241	N24	0.895200	0.480700	0.644500
O11	O1	0.787800	0.918100	0.280900
O21	O2	0.774400	0.078200	0.199400
O31	O3	0.932500	0.021800	0.285400
O41	O4	0.212700	0.448700	0.174500
O51	O5	0.370900	0.550100	0.338100
O61	O6	0.641500	0.972700	0.199700
O71	O7	0.287800	0.581900	0.219100
O81	O8	0.274400	0.421800	0.300600
O91	O9	0.432500	0.478200	0.214600
O101	O10	0.712700	0.051300	0.325500
O111	O11	0.870900	0.949900	0.161900
O121	O12	0.141500	0.527300	0.300300
O131	O13	0.212200	0.081900	0.719100
O141	O14	0.225600	0.921800	0.800600
O151	O15	0.067500	0.978200	0.714600
O161	O16	0.787300	0.551300	0.825500
O171	O17	0.629100	0.449900	0.661900
O181	O18	0.358500	0.027300	0.800300
O191	O19	0.712200	0.418100	0.780900
O201	O20	0.725600	0.578200	0.699400
O211	O21	0.567500	0.521800	0.785400
O221	O22	0.287300	0.948700	0.674500
O231	O23	0.129100	0.050100	0.838100
O241	O24	0.858500	0.472700	0.699700
C1211	C121	0.503600	0.218800	0.073200
S11	S1	0.504900	0.247490	0.158120
O251	O25	0.607600	0.277000	0.172000
O261	O26	0.499400	0.190400	0.181300
O271	O27	0.423500	0.295400	0.171000
F11	F1	0.413800	0.186900	0.056200
F21	F2	0.511100	0.268200	0.045200
F31	F3	0.575600	0.174600	0.052100
C1221	C122	0.495500	0.796400	0.117300
S21	S2	0.584700	0.733600	0.133070
O281	O28	0.673300	0.772200	0.161400
O291	O29	0.603500	0.693600	0.070500
O301	O30	0.526200	0.701200	0.174300
F41	F4	0.466300	0.837200	0.171100
F51	F5	0.408600	0.768500	0.088400
F61	F6	0.538300	0.831400	0.080400
C1231	C123	0.327500	0.965300	0.377400
S31	S3	0.313200	0.948900	0.295590
O311	O31	0.308300	0.875200	0.282200
O321	O32	0.403500	0.972900	0.275400
O331	O33	0.213500	0.977400	0.284400
F71	F7	0.415100	0.938300	0.396000
F81	F8	0.329600	0.034800	0.400600
F91	F9	0.248000	0.946400	0.409200
C1241	C124	0.003600	0.281200	0.426800
S41	S4	0.004900	0.252510	0.341880
O341	O34	0.107600	0.223000	0.328000
O351	O35	0.999400	0.309600	0.318700
O361	O36	0.923500	0.204600	0.329000
F101	F10	0.913800	0.313100	0.443800
F111	F11	0.011100	0.231800	0.454800
F121	F12	0.075600	0.325400	0.447900
C1251	C125	0.995500	0.703600	0.382700
S51	S5	0.084700	0.766400	0.366930
O371	O37	0.173300	0.727800	0.338600
O381	O38	0.103500	0.806400	0.429500
O391	O39	0.026200	0.798800	0.325700
F131	F13	0.966300	0.662800	0.328900
F141	F14	0.908600	0.731500	0.411600
F151	F15	0.038300	0.668600	0.419600
C1261	C126	0.827500	0.534700	0.122600
S61	S6	0.813200	0.551100	0.204410
O401	O40	0.808300	0.624800	0.217800
O411	O41	0.903500	0.527100	0.224600
O421	O42	0.713500	0.522600	0.215600
F161	F16	0.915100	0.561700	0.104000
F171	F17	0.829600	0.465200	0.099400
F181	F18	0.748000	0.553600	0.090800
C1271	C127	0.496400	0.781200	0.926800
S71	S7	0.495100	0.752510	0.841880
O431	O43	0.392400	0.723000	0.828000
O441	O44	0.500600	0.809600	0.818700
O451	O45	0.576500	0.704600	0.829000
F191	F19	0.586200	0.813100	0.943800
F201	F20	0.488900	0.731800	0.954800
F211	F21	0.424400	0.825400	0.947900
C1281	C128	0.504500	0.203600	0.882700
S81	S8	0.415300	0.266400	0.866930
O461	O46	0.326700	0.227800	0.838600
O471	O47	0.396500	0.306400	0.929500
O481	O48	0.473800	0.298800	0.825700
F221	F22	0.533700	0.162800	0.828900
F231	F23	0.591400	0.231500	0.911600
F241	F24	0.461700	0.168600	0.919600
C1291	C129	0.672500	0.034700	0.622600
S91	S9	0.686800	0.051100	0.704410
O491	O49	0.691700	0.124800	0.717800
O501	O50	0.596500	0.027100	0.724600
O511	O51	0.786500	0.022600	0.715600
F251	F25	0.584900	0.061700	0.604000
F261	F26	0.670400	0.965200	0.599400
F271	F27	0.752000	0.053600	0.590800
C1301	C130	0.996400	0.718800	0.573200
S101	S10	0.995100	0.747490	0.658120
O521	O52	0.892400	0.777000	0.672000
O531	O53	0.000600	0.690400	0.681300
O541	O54	0.076500	0.795400	0.671000
F281	F28	0.086200	0.686900	0.556200
F291	F29	0.988900	0.768200	0.545200
F301	F30	0.924400	0.674600	0.552100
C1311	C131	0.004500	0.296400	0.617300
S111	S11	0.915300	0.233600	0.633070
O551	O55	0.826700	0.272200	0.661400
O561	O56	0.896500	0.193600	0.570500
O571	O57	0.973800	0.201200	0.674300
F311	F31	0.033700	0.337200	0.671100
F321	F32	0.091400	0.268500	0.588400
F331	F33	0.961700	0.331400	0.580400
C1321	C132	0.172500	0.465300	0.877400
S121	S12	0.186800	0.448900	0.795590
O581	O58	0.191700	0.375200	0.782200
O591	O59	0.096500	0.472900	0.775400
O601	O60	0.286500	0.477400	0.784400
F341	F34	0.084900	0.438300	0.896000
F351	F35	0.170400	0.534800	0.900600
F361	F36	0.252000	0.446400	0.909200
