data_FIVNAZ_freeONLY_PM
_symmetry_space_group_name_H-M	'P1'
_cell_length_a	8.165000
_cell_length_b	8.215000
_cell_length_c	8.215000
_cell_angle_alpha	94.183100
_cell_angle_beta	117.653000
_cell_angle_gamma	62.347200
_symmetry_Int_Tables_number 1

loop_
_symmetry_equiv_pos_as_xyz
'x,y,z'

loop_
_atom_site_label
_atom_site_type_symbol
_atom_site_fract_x
_atom_site_fract_y
_atom_site_fract_z
Ho11	Ho1	0.750000	0.066490	0.066490
Ho21	Ho2	0.250000	0.933510	0.933510
H11	H1	0.970430	0.640620	0.180020
H21	H2	0.046640	0.702260	0.079020
H31	H3	0.529570	0.180020	0.640620
H41	H4	0.453360	0.079020	0.702260
H51	H5	0.029570	0.359380	0.819980
H61	H6	0.953360	0.297740	0.920980
H71	H7	0.470430	0.819980	0.359380
H81	H8	0.546640	0.920980	0.297740
C11	C1	0.943580	0.949030	0.506950
C21	C2	0.556420	0.506950	0.949030
C31	C3	0.056420	0.050970	0.493050
C41	C4	0.443580	0.493050	0.050970
O11	O1	0.802700	0.945580	0.356300
O21	O2	0.996930	0.121410	0.332730
O31	O3	0.949240	0.739250	0.105610
O41	O4	0.697300	0.356300	0.945580
O51	O5	0.503070	0.332730	0.121410
O61	O6	0.550760	0.105610	0.739250
O71	O7	0.197300	0.054420	0.643700
O81	O8	0.003070	0.878590	0.667270
O91	O9	0.050760	0.260750	0.894390
O101	O10	0.302700	0.643700	0.054420
O111	O11	0.496930	0.667270	0.878590
O121	O12	0.449240	0.894390	0.260750
F11	F1	0.000000	0.000000	0.000000
F21	F2	0.500000	0.000000	0.000000
