data_FIVQIL_freeONLY_PM
_symmetry_space_group_name_H-M	'P1'
_cell_length_a	10.282600
_cell_length_b	12.697700
_cell_length_c	17.864000
_cell_angle_alpha	90.000000
_cell_angle_beta	102.761000
_cell_angle_gamma	90.000000
_symmetry_Int_Tables_number 1

loop_
_symmetry_equiv_pos_as_xyz
'x,y,z'

loop_
_atom_site_label
_atom_site_type_symbol
_atom_site_fract_x
_atom_site_fract_y
_atom_site_fract_z
Sc11	Sc1	0.439630	0.021450	0.127480
Sc21	Sc2	0.246020	0.069200	0.279050
Sc31	Sc3	0.968950	0.886390	0.208110
Sc41	Sc4	0.865510	0.146710	0.423160
P11	P1	0.700510	0.911300	0.057890
P21	P2	0.564650	0.117910	0.307340
P31	P3	0.222800	0.338510	0.299170
P41	P4	0.080210	0.953500	0.392620
F11	F1	0.289600	0.085790	0.173190
F21	F2	0.053300	0.033850	0.220520
O11	O1	0.679900	0.972000	0.982160
O21	O2	0.844400	0.923900	0.104140
O31	O3	0.603500	0.950900	0.105430
O41	O4	0.673900	0.793990	0.039450
O51	O5	0.586200	0.232480	0.284530
O61	O6	0.559400	0.046180	0.237860
O71	O7	0.683800	0.087440	0.372120
O81	O8	0.435600	0.107400	0.336700
O91	O9	0.371100	0.343100	0.337950
O101	O10	0.137300	0.372530	0.356100
O111	O11	0.181700	0.225450	0.273460
O121	O12	0.193800	0.412970	0.229710
O131	O13	0.054100	0.873070	0.327170
O141	O14	0.183300	0.037070	0.379740
O151	O15	0.948600	0.010140	0.393750
O161	O16	0.133300	0.898700	0.468870
O171	O17	0.490700	0.182800	0.104550
H11	H1	0.491000	0.229000	0.134900
H21	H2	0.444000	0.202000	0.065200
O181	O18	0.799500	0.936200	0.256400
H31	H3	0.732000	0.967000	0.240000
H41	H4	0.831000	0.960000	0.297600
O191	O19	0.070300	0.205100	0.434660
H51	H5	0.079000	0.259700	0.414000
H61	H6	0.108000	0.162000	0.415000
O201	O20	0.856700	0.224000	0.307890
H71	H7	0.779700	0.233000	0.290000
H81	H8	0.891000	0.280200	0.315000
Sc51	Sc5	0.060370	0.521450	0.372520
Sc61	Sc6	0.253980	0.569200	0.220950
Sc71	Sc7	0.531050	0.386390	0.291890
Sc81	Sc8	0.634490	0.646710	0.076840
P51	P5	0.799490	0.411300	0.442110
P61	P6	0.935350	0.617910	0.192660
P71	P7	0.277200	0.838510	0.200830
P81	P8	0.419790	0.453500	0.107380
F31	F3	0.210400	0.585790	0.326810
F41	F4	0.446700	0.533850	0.279480
O211	O21	0.820100	0.472000	0.517840
O221	O22	0.655600	0.423900	0.395860
O231	O23	0.896500	0.450900	0.394570
O241	O24	0.826100	0.293990	0.460550
O251	O25	0.913800	0.732480	0.215470
O261	O26	0.940600	0.546180	0.262140
O271	O27	0.816200	0.587440	0.127880
O281	O28	0.064400	0.607400	0.163300
O291	O29	0.128900	0.843100	0.162050
O301	O30	0.362700	0.872530	0.143900
O311	O31	0.318300	0.725450	0.226540
O321	O32	0.306200	0.912970	0.270290
O331	O33	0.445900	0.373070	0.172830
O341	O34	0.316700	0.537070	0.120260
O351	O35	0.551400	0.510140	0.106250
O361	O36	0.366700	0.398700	0.031130
O371	O37	0.009300	0.682800	0.395450
H91	H9	0.009000	0.729000	0.365100
H101	H10	0.056000	0.702000	0.434800
O381	O38	0.700500	0.436200	0.243600
H111	H11	0.768000	0.467000	0.260000
H121	H12	0.669000	0.460000	0.202400
O391	O39	0.429700	0.705100	0.065340
H131	H13	0.421000	0.759700	0.086000
H141	H14	0.392000	0.662000	0.085000
O401	O40	0.643300	0.724000	0.192110
H151	H15	0.720300	0.733000	0.210000
H161	H16	0.609000	0.780200	0.185000
Sc91	Sc9	0.560370	0.978550	0.872520
Sc101	Sc10	0.753980	0.930800	0.720950
Sc111	Sc11	0.031050	0.113610	0.791890
Sc121	Sc12	0.134490	0.853290	0.576840
P91	P9	0.299490	0.088700	0.942110
P101	P10	0.435350	0.882090	0.692660
P111	P11	0.777200	0.661490	0.700830
P121	P12	0.919790	0.046500	0.607380
F51	F5	0.710400	0.914210	0.826810
F61	F6	0.946700	0.966150	0.779480
O411	O41	0.320100	0.028000	0.017840
O421	O42	0.155600	0.076100	0.895860
O431	O43	0.396500	0.049100	0.894570
O441	O44	0.326100	0.206010	0.960550
O451	O45	0.413800	0.767520	0.715470
O461	O46	0.440600	0.953820	0.762140
O471	O47	0.316200	0.912560	0.627880
O481	O48	0.564400	0.892600	0.663300
O491	O49	0.628900	0.656900	0.662050
O501	O50	0.862700	0.627470	0.643900
O511	O51	0.818300	0.774550	0.726540
O521	O52	0.806200	0.587030	0.770290
O531	O53	0.945900	0.126930	0.672830
O541	O54	0.816700	0.962930	0.620260
O551	O55	0.051400	0.989860	0.606250
O561	O56	0.866700	0.101300	0.531130
O571	O57	0.509300	0.817200	0.895450
H171	H17	0.509000	0.771000	0.865100
H181	H18	0.556000	0.798000	0.934800
O581	O58	0.200500	0.063800	0.743600
H191	H19	0.268000	0.033000	0.760000
H201	H20	0.169000	0.040000	0.702400
O591	O59	0.929700	0.794900	0.565340
H211	H21	0.921000	0.740300	0.586000
H221	H22	0.892000	0.838000	0.585000
O601	O60	0.143300	0.776000	0.692110
H231	H23	0.220300	0.767000	0.710000
H241	H24	0.109000	0.719800	0.685000
Sc131	Sc13	0.939630	0.478550	0.627480
Sc141	Sc14	0.746020	0.430800	0.779050
Sc151	Sc15	0.468950	0.613610	0.708110
Sc161	Sc16	0.365510	0.353290	0.923160
P131	P13	0.200510	0.588700	0.557890
P141	P14	0.064650	0.382090	0.807340
P151	P15	0.722800	0.161490	0.799170
P161	P16	0.580210	0.546500	0.892620
F71	F7	0.789600	0.414210	0.673190
F81	F8	0.553300	0.466150	0.720520
O611	O61	0.179900	0.528000	0.482160
O621	O62	0.344400	0.576100	0.604140
O631	O63	0.103500	0.549100	0.605430
O641	O64	0.173900	0.706010	0.539450
O651	O65	0.086200	0.267520	0.784530
O661	O66	0.059400	0.453820	0.737860
O671	O67	0.183800	0.412560	0.872120
O681	O68	0.935600	0.392600	0.836700
O691	O69	0.871100	0.156900	0.837950
O701	O70	0.637300	0.127470	0.856100
O711	O71	0.681700	0.274550	0.773460
O721	O72	0.693800	0.087030	0.729710
O731	O73	0.554100	0.626930	0.827170
O741	O74	0.683300	0.462930	0.879740
O751	O75	0.448600	0.489860	0.893750
O761	O76	0.633300	0.601300	0.968870
O771	O77	0.990700	0.317200	0.604550
H251	H25	0.991000	0.271000	0.634900
H261	H26	0.944000	0.298000	0.565200
O781	O78	0.299500	0.563800	0.756400
H271	H27	0.232000	0.533000	0.740000
H281	H28	0.331000	0.540000	0.797600
O791	O79	0.570300	0.294900	0.934660
H291	H29	0.579000	0.240300	0.914000
H301	H30	0.608000	0.338000	0.915000
O801	O80	0.356700	0.276000	0.807890
H311	H31	0.279700	0.267000	0.790000
H321	H32	0.391000	0.219800	0.815000
