data_FIVQOR_freeONLY_PM
_symmetry_space_group_name_H-M	'P1'
_cell_length_a	8.121700
_cell_length_b	8.960100
_cell_length_c	10.461100
_cell_angle_alpha	111.930000
_cell_angle_beta	103.655000
_cell_angle_gamma	101.903000
_symmetry_Int_Tables_number 1

loop_
_symmetry_equiv_pos_as_xyz
'x,y,z'

loop_
_atom_site_label
_atom_site_type_symbol
_atom_site_fract_x
_atom_site_fract_y
_atom_site_fract_z
Ga11	Ga1	0.198590	0.351670	0.362960
Ga21	Ga2	0.723450	0.000930	0.446910
P11	P1	0.450800	0.725700	0.483560
P21	P2	0.990900	0.970200	0.291190
F11	F1	0.144900	0.227000	0.158000
O11	O1	0.968100	0.408600	0.313900
O21	O2	0.321600	0.557100	0.358300
O31	O3	0.790600	0.516500	0.429700
O41	O4	0.589800	0.705500	0.593500
O51	O5	0.053100	0.161500	0.374400
O61	O6	0.806100	0.901100	0.300100
O71	O7	0.349700	0.825900	0.572000
O81	O8	0.528700	0.826700	0.408800
O91	O9	0.213400	0.946400	0.996200
O101	O10	0.978200	0.899600	0.132100
O111	O11	0.120300	0.898900	0.366600
C11	C1	0.930700	0.477800	0.425500
Ga31	Ga3	0.801410	0.648330	0.637040
Ga41	Ga4	0.276550	0.999070	0.553090
P31	P3	0.549200	0.274300	0.516440
P41	P4	0.009100	0.029800	0.708810
F21	F2	0.855100	0.773000	0.842000
O121	O12	0.031900	0.591400	0.686100
O131	O13	0.678400	0.442900	0.641700
O141	O14	0.209400	0.483500	0.570300
O151	O15	0.410200	0.294500	0.406500
O161	O16	0.946900	0.838500	0.625600
O171	O17	0.193900	0.098900	0.699900
O181	O18	0.650300	0.174100	0.428000
O191	O19	0.471300	0.173300	0.591200
O201	O20	0.786600	0.053600	0.003800
O211	O21	0.021800	0.100400	0.867900
O221	O22	0.879700	0.101100	0.633400
C21	C2	0.069300	0.522200	0.574500
Ga51	Ga5	0.000000	0.000000	0.000000
