data_FIVYEP01_freeONLY_PM
_symmetry_space_group_name_H-M	'P1'
_cell_length_a	12.068200
_cell_length_b	12.068200
_cell_length_c	14.614000
_cell_angle_alpha	86.173900
_cell_angle_beta	86.173900
_cell_angle_gamma	64.284000
_symmetry_Int_Tables_number 1

loop_
_symmetry_equiv_pos_as_xyz
'x,y,z'

loop_
_atom_site_label
_atom_site_type_symbol
_atom_site_fract_x
_atom_site_fract_y
_atom_site_fract_z
K11	K1	0.212320	0.212320	0.435040
K21	K2	0.061320	0.061320	0.591040
K31	K3	0.787680	0.787680	0.564960
K41	K4	0.938680	0.938680	0.408960
U11	U1	0.443620	0.945800	0.210960
U21	U2	0.054200	0.556380	0.789040
U31	U3	0.556380	0.054200	0.789040
U41	U4	0.945800	0.443620	0.210960
C11	C1	0.222700	0.866900	0.276100
C21	C2	0.226200	0.945600	0.352500
C31	C3	0.435300	0.140700	0.590500
C41	C4	0.385600	0.047600	0.628300
C51	C5	0.515900	0.052100	0.013900
C61	C6	0.133100	0.777300	0.723900
C71	C7	0.054400	0.773800	0.647500
C81	C8	0.859300	0.564700	0.409500
C91	C9	0.952400	0.614400	0.371700
C101	C10	0.947900	0.484100	0.986100
C111	C11	0.777300	0.133100	0.723900
C121	C12	0.773800	0.054400	0.647500
C131	C13	0.564700	0.859300	0.409500
C141	C14	0.614400	0.952400	0.371700
C151	C15	0.484100	0.947900	0.986100
C161	C16	0.866900	0.222700	0.276100
C171	C17	0.945600	0.226200	0.352500
C181	C18	0.140700	0.435300	0.590500
C191	C19	0.047600	0.385600	0.628300
C201	C20	0.052100	0.515900	0.013900
C211	C21	0.188000	0.188000	0.148800
C221	C22	0.242000	0.242000	0.215700
C231	C23	0.812000	0.812000	0.851200
C241	C24	0.758000	0.758000	0.784300
C251	C25	0.654200	0.654200	0.186300
C261	C26	0.729200	0.729200	0.174000
C271	C27	0.345800	0.345800	0.813700
C281	C28	0.270800	0.270800	0.826000
O11	O1	0.301250	0.853250	0.210400
O21	O2	0.286200	0.008800	0.330000
O31	O3	0.175500	0.942500	0.428800
O41	O4	0.146900	0.823500	0.282600
O51	O5	0.437950	0.987550	0.700200
O61	O6	0.483200	0.174400	0.652100
O71	O7	0.303200	0.036800	0.589200
O81	O8	0.426800	0.175600	0.508800
O91	O9	0.255000	0.081000	0.124700
O101	O10	0.347880	0.174280	0.241200
O111	O11	0.539120	0.713920	0.190100
O121	O12	0.669910	0.843510	0.169500
O131	O13	0.510310	0.069510	0.097900
O141	O14	0.543880	0.110880	0.950300
O151	O15	0.146750	0.698750	0.789600
O161	O16	0.991200	0.713800	0.670000
O171	O17	0.057500	0.824500	0.571200
O181	O18	0.176500	0.853100	0.717400
O191	O19	0.012450	0.562050	0.299800
O201	O20	0.825600	0.516800	0.347900
O211	O21	0.963200	0.696800	0.410800
O221	O22	0.824400	0.573200	0.491200
O231	O23	0.919000	0.745000	0.875300
O241	O24	0.825720	0.652120	0.758800
O251	O25	0.286080	0.460880	0.809900
O261	O26	0.156490	0.330090	0.830500
O271	O27	0.930490	0.489690	0.902100
O281	O28	0.889120	0.456120	0.049700
O291	O29	0.698750	0.146750	0.789600
O301	O30	0.713800	0.991200	0.670000
O311	O31	0.824500	0.057500	0.571200
O321	O32	0.853100	0.176500	0.717400
O331	O33	0.562050	0.012450	0.299800
O341	O34	0.516800	0.825600	0.347900
O351	O35	0.696800	0.963200	0.410800
O361	O36	0.573200	0.824400	0.491200
O371	O37	0.745000	0.919000	0.875300
O381	O38	0.652120	0.825720	0.758800
O391	O39	0.460880	0.286080	0.809900
O401	O40	0.330090	0.156490	0.830500
O411	O41	0.489690	0.930490	0.902100
O421	O42	0.456120	0.889120	0.049700
O431	O43	0.853250	0.301250	0.210400
O441	O44	0.008800	0.286200	0.330000
O451	O45	0.942500	0.175500	0.428800
O461	O46	0.823500	0.146900	0.282600
O471	O47	0.987550	0.437950	0.700200
O481	O48	0.174400	0.483200	0.652100
O491	O49	0.036800	0.303200	0.589200
O501	O50	0.175600	0.426800	0.508800
O511	O51	0.081000	0.255000	0.124700
O521	O52	0.174280	0.347880	0.241200
O531	O53	0.713920	0.539120	0.190100
O541	O54	0.843510	0.669910	0.169500
O551	O55	0.069510	0.510310	0.097900
O561	O56	0.110880	0.543880	0.950300
