data_FOFTIF_freeONLY_PM
_symmetry_space_group_name_H-M	'P1'
_cell_length_a	16.491800
_cell_length_b	16.838200
_cell_length_c	18.488300
_cell_angle_alpha	69.539000
_cell_angle_beta	66.786000
_cell_angle_gamma	63.792000
_symmetry_Int_Tables_number 1

loop_
_symmetry_equiv_pos_as_xyz
'x,y,z'

loop_
_atom_site_label
_atom_site_type_symbol
_atom_site_fract_x
_atom_site_fract_y
_atom_site_fract_z
Cd11	Cd1	0.521680	0.224660	0.545010
Cd21	Cd2	0.444750	0.294900	0.747870
Cd31	Cd3	0.374170	0.373970	0.939160
O11	O1	0.439300	0.438100	0.731300
H11	H1	0.397000	0.485000	0.714000
H21	H2	0.460000	0.454000	0.757000
O21	O2	0.579100	0.343800	0.504000
O31	O3	0.464000	0.145800	0.764100
O41	O4	0.561700	0.269900	0.629700
O51	O5	0.335900	0.350300	0.685200
O61	O6	0.367300	0.272800	0.595300
O71	O7	0.653400	0.093800	0.563700
O81	O8	0.534800	0.078000	0.549600
O91	O9	0.552000	0.230700	0.815200
O101	O10	0.528300	0.334300	0.877300
O111	O11	0.324200	0.326200	0.866600
O121	O12	0.305200	0.259900	0.994400
O131	O13	0.239500	0.501700	0.959800
O141	O14	0.370800	0.523600	0.881300
N11	N1	0.528900	0.257000	0.409300
N21	N2	0.408800	0.346500	0.054800
C11	C1	0.505800	0.340900	0.365600
H31	H3	0.504000	0.387900	0.384000
C21	C2	0.484100	0.363000	0.293700
H41	H4	0.467200	0.424000	0.264700
C31	C3	0.487100	0.296500	0.264700
C41	C4	0.518000	0.207700	0.307600
H51	H5	0.526100	0.158900	0.287700
C51	C5	0.536900	0.190800	0.379400
H61	H6	0.556300	0.130000	0.408600
C61	C6	0.459200	0.316600	0.192200
C71	C7	0.480300	0.380900	0.123900
H71	H7	0.512400	0.416400	0.123000
C81	C8	0.454800	0.393000	0.057500
H81	H8	0.470700	0.436900	0.011100
C91	C9	0.388900	0.284100	0.119500
H91	H9	0.357800	0.249300	0.117400
C101	C10	0.410500	0.266800	0.188900
H101	H10	0.393300	0.222400	0.234100
C111	C11	0.588500	0.330000	0.570600
C121	C12	0.639100	0.377400	0.581700
C131	C13	0.683200	0.339500	0.643600
H111	H11	0.679500	0.283900	0.679200
C141	C14	0.731700	0.382700	0.653100
H121	H12	0.761800	0.356500	0.694700
C151	C15	0.736300	0.464900	0.601300
C161	C16	0.691000	0.502700	0.540300
H131	H13	0.693300	0.559100	0.505400
C171	C17	0.643400	0.459300	0.530500
H141	H14	0.613700	0.485300	0.488700
C181	C18	0.790300	0.513500	0.605500
C191	C19	0.880800	0.467400	0.616800
H151	H15	0.906700	0.403200	0.626300
C201	C20	0.932900	0.515900	0.614000
C211	C21	0.892200	0.609200	0.601700
H161	H16	0.927800	0.642300	0.598900
C221	C22	0.802000	0.656900	0.593200
C231	C23	0.752900	0.606300	0.595000
H171	H17	0.691300	0.637300	0.588600
C241	C24	0.028800	0.466100	0.622700
C251	C25	0.084100	0.382200	0.602200
H181	H18	0.059200	0.355400	0.582600
C261	C26	0.174200	0.336900	0.609800
H191	H19	0.209800	0.279600	0.595500
C271	C27	0.213800	0.373000	0.637700
C281	C28	0.159300	0.455900	0.661200
H201	H20	0.184200	0.480600	0.683000
C291	C29	0.068600	0.502400	0.652800
H211	H21	0.032900	0.559500	0.667600
C301	C30	0.313700	0.328500	0.640700
C311	C31	0.757400	0.757700	0.582300
C321	C32	0.784700	0.806000	0.609300
H221	H22	0.833700	0.775100	0.634700
C331	C33	0.741200	0.899200	0.599700
H231	H23	0.761900	0.932100	0.617000
C341	C34	0.666900	0.945000	0.564900
C351	C35	0.639900	0.896400	0.537800
H241	H24	0.589200	0.926500	0.514400
C361	C36	0.686400	0.804400	0.544700
H251	H25	0.669300	0.772300	0.523300
C371	C37	0.615300	0.045500	0.558800
C381	C38	0.578200	0.264500	0.849400
C391	C39	0.676900	0.215900	0.857200
C401	C40	0.706200	0.245000	0.901400
H261	H26	0.664500	0.295000	0.926300
C411	C41	0.796200	0.200500	0.908500
H271	H27	0.815700	0.219500	0.939600
C421	C42	0.859800	0.127900	0.871300
C431	C43	0.829300	0.101400	0.826500
H281	H28	0.871300	0.052700	0.800000
C441	C44	0.738900	0.144900	0.819900
H291	H29	0.719000	0.125600	0.789200
C451	C45	0.956900	0.080300	0.879600
C461	C46	0.006400	0.126100	0.885400
H301	H30	0.977400	0.189600	0.882300
C471	C47	0.095600	0.082900	0.895500
C481	C48	0.138500	0.987300	0.899600
H311	H31	0.199700	0.955800	0.906900
C491	C49	0.091400	0.939700	0.893000
C501	C50	0.000300	0.986400	0.883700
H321	H32	0.967600	0.954100	0.880100
C511	C51	0.146400	0.131900	0.902100
C521	C52	0.148900	0.213500	0.851500
H331	H33	0.117000	0.239200	0.811100
C531	C53	0.197600	0.259200	0.858400
H341	H34	0.200800	0.314300	0.821500
C541	C54	0.241600	0.224000	0.919300
C551	C55	0.238700	0.141400	0.971300
H351	H35	0.268800	0.116800	0.012700
C561	C56	0.192500	0.095200	0.963300
H361	H36	0.191700	0.038700	0.998600
C571	C57	0.292300	0.272100	0.927800
C581	C58	0.138900	0.841500	0.895600
C591	C59	0.233500	0.805900	0.856100
H371	H37	0.267100	0.845900	0.824000
C601	C60	0.281000	0.712600	0.862100
H381	H38	0.346400	0.689400	0.835300
C611	C61	0.231400	0.653700	0.908000
C621	C62	0.135800	0.689200	0.944300
H391	H39	0.101200	0.649600	0.973900
C631	C63	0.089500	0.782200	0.938000
H401	H40	0.023600	0.805500	0.962900
C641	C64	0.283200	0.554600	0.916000
Cd41	Cd4	0.478320	0.775340	0.454990
Cd51	Cd5	0.555250	0.705100	0.252130
Cd61	Cd6	0.625830	0.626030	0.060840
O151	O15	0.560700	0.561900	0.268700
H411	H41	0.603000	0.515000	0.286000
H421	H42	0.540000	0.546000	0.243000
O161	O16	0.420900	0.656200	0.496000
O171	O17	0.536000	0.854200	0.235900
O181	O18	0.438300	0.730100	0.370300
O191	O19	0.664100	0.649700	0.314800
O201	O20	0.632700	0.727200	0.404700
O211	O21	0.346600	0.906200	0.436300
O221	O22	0.465200	0.922000	0.450400
O231	O23	0.448000	0.769300	0.184800
O241	O24	0.471700	0.665700	0.122700
O251	O25	0.675800	0.673800	0.133400
O261	O26	0.694800	0.740100	0.005600
O271	O27	0.760500	0.498300	0.040200
O281	O28	0.629200	0.476400	0.118700
N31	N3	0.471100	0.743000	0.590700
N41	N4	0.591200	0.653500	0.945200
C651	C65	0.494200	0.659100	0.634400
H431	H43	0.496000	0.612100	0.616000
C661	C66	0.515900	0.637000	0.706300
H441	H44	0.532800	0.576000	0.735300
C671	C67	0.512900	0.703500	0.735300
C681	C68	0.482000	0.792300	0.692400
H451	H45	0.473900	0.841100	0.712300
C691	C69	0.463100	0.809200	0.620600
H461	H46	0.443700	0.870000	0.591400
C701	C70	0.540800	0.683400	0.807800
C711	C71	0.519700	0.619100	0.876100
H471	H47	0.487600	0.583600	0.877000
C721	C72	0.545200	0.607000	0.942500
H481	H48	0.529300	0.563100	0.988900
C731	C73	0.611100	0.715900	0.880500
H491	H49	0.642200	0.750700	0.882600
C741	C74	0.589500	0.733200	0.811100
H501	H50	0.606700	0.777600	0.765900
C751	C75	0.411500	0.670000	0.429400
C761	C76	0.360900	0.622600	0.418300
C771	C77	0.316800	0.660500	0.356400
H511	H51	0.320500	0.716100	0.320800
C781	C78	0.268300	0.617300	0.346900
H521	H52	0.238200	0.643500	0.305300
C791	C79	0.263700	0.535100	0.398700
C801	C80	0.309000	0.497300	0.459700
H531	H53	0.306700	0.440900	0.494600
C811	C81	0.356600	0.540700	0.469500
H541	H54	0.386300	0.514700	0.511300
C821	C82	0.209700	0.486500	0.394500
C831	C83	0.119200	0.532600	0.383200
H551	H55	0.093300	0.596800	0.373700
C841	C84	0.067100	0.484100	0.386000
C851	C85	0.107800	0.390800	0.398300
H561	H56	0.072200	0.357700	0.401100
C861	C86	0.198000	0.343100	0.406800
C871	C87	0.247100	0.393700	0.405000
H571	H57	0.308700	0.362700	0.411400
C881	C88	0.971200	0.533900	0.377300
C891	C89	0.915900	0.617800	0.397800
H581	H58	0.940800	0.644600	0.417400
C901	C90	0.825800	0.663100	0.390200
H591	H59	0.790200	0.720400	0.404500
C911	C91	0.786200	0.627000	0.362300
C921	C92	0.840700	0.544100	0.338800
H601	H60	0.815800	0.519400	0.317000
C931	C93	0.931400	0.497600	0.347200
H611	H61	0.967100	0.440500	0.332400
C941	C94	0.686300	0.671500	0.359300
C951	C95	0.242600	0.242300	0.417700
C961	C96	0.215300	0.194000	0.390700
H621	H62	0.166300	0.224900	0.365300
C971	C97	0.258800	0.100800	0.400300
H631	H63	0.238100	0.067900	0.383000
C981	C98	0.333100	0.055000	0.435100
C991	C99	0.360100	0.103600	0.462200
H641	H64	0.410800	0.073500	0.485600
C1001	C100	0.313600	0.195600	0.455300
H651	H65	0.330700	0.227700	0.476700
C1011	C101	0.384700	0.954500	0.441200
C1021	C102	0.421800	0.735500	0.150600
C1031	C103	0.323100	0.784100	0.142800
C1041	C104	0.293800	0.755000	0.098600
H661	H66	0.335500	0.705000	0.073700
C1051	C105	0.203800	0.799500	0.091500
H671	H67	0.184300	0.780500	0.060400
C1061	C106	0.140200	0.872100	0.128700
C1071	C107	0.170700	0.898600	0.173500
H681	H68	0.128700	0.947300	0.200000
C1081	C108	0.261100	0.855100	0.180100
H691	H69	0.281000	0.874400	0.210800
C1091	C109	0.043100	0.919700	0.120400
C1101	C110	0.993600	0.873900	0.114600
H701	H70	0.022600	0.810400	0.117700
C1111	C111	0.904400	0.917100	0.104500
C1121	C112	0.861500	0.012700	0.100400
H711	H71	0.800300	0.044200	0.093100
C1131	C113	0.908600	0.060300	0.107000
C1141	C114	0.999700	0.013600	0.116300
H721	H72	0.032400	0.045900	0.119900
C1151	C115	0.853600	0.868100	0.097900
C1161	C116	0.851100	0.786500	0.148500
H731	H73	0.883000	0.760800	0.188900
C1171	C117	0.802400	0.740800	0.141600
H741	H74	0.799200	0.685700	0.178500
C1181	C118	0.758400	0.776000	0.080700
C1191	C119	0.761300	0.858600	0.028700
H751	H75	0.731200	0.883200	0.987300
C1201	C120	0.807500	0.904800	0.036700
H761	H76	0.808300	0.961300	0.001400
C1211	C121	0.707700	0.727900	0.072200
C1221	C122	0.861100	0.158500	0.104400
C1231	C123	0.766500	0.194100	0.143900
H771	H77	0.732900	0.154100	0.176000
C1241	C124	0.719000	0.287400	0.137900
H781	H78	0.653600	0.310600	0.164700
C1251	C125	0.768600	0.346300	0.092000
C1261	C126	0.864200	0.310800	0.055700
H791	H79	0.898800	0.350400	0.026100
C1271	C127	0.910500	0.217800	0.062000
H801	H80	0.976400	0.194500	0.037100
C1281	C128	0.716800	0.445400	0.084000
