data_FOFTUR_freeONLY_PM
_symmetry_space_group_name_H-M	'P1'
_cell_length_a	16.318700
_cell_length_b	17.036500
_cell_length_c	18.942600
_cell_angle_alpha	88.412000
_cell_angle_beta	70.681000
_cell_angle_gamma	62.592000
_symmetry_Int_Tables_number 1

loop_
_symmetry_equiv_pos_as_xyz
'x,y,z'

loop_
_atom_site_label
_atom_site_type_symbol
_atom_site_fract_x
_atom_site_fract_y
_atom_site_fract_z
Cd11	Cd1	0.672460	0.630010	0.444880
Cd21	Cd2	0.761040	0.716820	0.262590
Cd31	Cd3	0.851010	0.805120	0.076990
O11	O1	0.778400	0.682200	0.378200
O21	O2	0.788400	0.573100	0.246400
O31	O3	0.693800	0.741900	0.499400
O41	O4	0.739000	0.859200	0.281300
O51	O5	0.596400	0.780300	0.313000
O61	O6	0.574000	0.677800	0.379300
O71	O7	0.713600	0.486500	0.392000
O81	O8	0.785600	0.498500	0.468500
O91	O9	0.743600	0.751200	0.147600
O101	O10	0.831300	0.692400	0.030900
O111	O11	0.845000	0.942100	0.046300
O121	O12	0.719500	0.942500	0.117400
O131	O13	0.925600	0.658500	0.205500
O141	O14	0.937200	0.775000	0.155300
N11	N1	0.546800	0.654100	0.553100
N21	N2	0.000000	0.744500	0.977000
C11	C1	0.513800	0.595200	0.570600
H11	H1	0.545000	0.541600	0.536200
C21	C2	0.436500	0.607900	0.636100
H21	H2	0.415500	0.563800	0.646400
C31	C3	0.390600	0.685000	0.685900
C41	C4	0.428500	0.743700	0.669700
H31	H3	0.403000	0.796200	0.703800
C51	C5	0.504300	0.722800	0.602500
H41	H4	0.528100	0.764800	0.591100
C61	C6	0.304700	0.707700	0.757600
H51	H5	0.278100	0.763900	0.787100
C71	C7	0.262900	0.659800	0.783800
H61	H6	0.292100	0.601800	0.756600
C81	C8	0.173600	0.686200	0.852300
C91	C9	0.136700	0.632600	0.880200
H71	H7	0.170300	0.571700	0.858000
C101	C10	0.048100	0.665500	0.942400
H81	H8	0.022500	0.625700	0.959900
C111	C11	0.036100	0.801500	0.951700
H91	H9	0.002700	0.861400	0.976300
C121	C12	0.122600	0.770800	0.889300
H101	H10	0.147400	0.811100	0.871500
C131	C13	0.759500	0.733300	0.434800
C141	C14	0.813900	0.784400	0.429500
C151	C15	0.905600	0.754700	0.370300
H111	H11	0.930700	0.704100	0.334100
C161	C16	0.959300	0.799800	0.365000
H121	H12	0.023800	0.776500	0.327900
C171	C17	0.920800	0.877300	0.412500
C181	C18	0.827400	0.908900	0.470400
H131	H13	0.800000	0.962400	0.503900
C191	C19	0.775600	0.861300	0.478200
H141	H14	0.713100	0.882200	0.517600
C201	C20	0.977800	0.926500	0.406100
C211	C21	0.078500	0.882300	0.391400
H151	H15	0.112400	0.818900	0.384800
C221	C22	0.131200	0.928700	0.385900
C231	C23	0.080900	0.021800	0.392200
H161	H16	0.116100	0.054100	0.389300
C241	C24	0.980200	0.069000	0.402800
C251	C25	0.928700	0.019900	0.411300
H171	H17	0.859700	0.050500	0.420700
C261	C26	0.237800	0.881800	0.375800
C271	C27	0.273900	0.808800	0.412100
H181	H18	0.230100	0.789300	0.443500
C281	C28	0.373600	0.763500	0.403200
H191	H19	0.398300	0.712200	0.426900
C291	C29	0.437100	0.795000	0.358500
C301	C30	0.400900	0.868400	0.324500
H201	H20	0.443800	0.889700	0.294900
C311	C31	0.301300	0.912400	0.332900
H211	H21	0.276800	0.963700	0.309000
C321	C32	0.545200	0.746600	0.349700
C331	C33	0.928000	0.166300	0.409000
C341	C34	0.954200	0.219900	0.441400
H221	H22	0.008900	0.192100	0.457700
C351	C35	0.903500	0.311200	0.450100
H231	H23	0.919400	0.346000	0.476200
C361	C36	0.827900	0.353500	0.420600
C371	C37	0.803100	0.299700	0.388200
H241	H24	0.750600	0.326700	0.369400
C381	C38	0.852900	0.207600	0.382600
H251	H25	0.834200	0.172600	0.359900
C391	C39	0.771700	0.451000	0.429900
C401	C40	0.767900	0.699200	0.089900
C411	C41	0.710100	0.649600	0.094900
C421	C42	0.747800	0.577000	0.041100
H261	H26	0.809300	0.558700	0.001000
C431	C43	0.694800	0.530300	0.045800
H271	H27	0.723600	0.477600	0.011000
C441	C44	0.603600	0.558700	0.099000
C451	C45	0.565500	0.633600	0.152600
H281	H28	0.502700	0.653600	0.191600
C461	C46	0.617400	0.677000	0.149000
H291	H29	0.589200	0.728500	0.185100
C471	C47	0.547900	0.508400	0.100500
C481	C48	0.595700	0.416800	0.090200
H301	H30	0.665000	0.385700	0.079200
C491	C49	0.546100	0.367900	0.095300
C501	C50	0.447100	0.414200	0.107400
H311	H31	0.412700	0.381300	0.109700
C511	C51	0.394800	0.506400	0.116200
C521	C52	0.448000	0.553600	0.113100
H321	H32	0.414500	0.617100	0.119900
C531	C53	0.598900	0.268700	0.092200
C541	C54	0.697300	0.218100	0.046400
H331	H33	0.730600	0.245900	0.013600
C551	C55	0.748200	0.125400	0.048000
H341	H34	0.817300	0.092400	0.020700
C561	C56	0.699700	0.083600	0.088000
C571	C57	0.602800	0.133000	0.133700
H351	H35	0.568100	0.104300	0.163000
C581	C58	0.556500	0.223100	0.137100
H361	H36	0.491000	0.256400	0.172500
C591	C59	0.756300	0.982400	0.082600
C601	C60	0.286800	0.556700	0.131500
C611	C61	0.226100	0.518300	0.162900
H371	H37	0.254300	0.459700	0.175500
C621	C62	0.128100	0.562700	0.175800
H381	H38	0.088600	0.534900	0.197500
C631	C63	0.084600	0.648100	0.157900
C641	C64	0.142200	0.687600	0.125400
H391	H39	0.113400	0.745400	0.111400
C651	C65	0.241000	0.643400	0.113400
H401	H40	0.279800	0.671800	0.092100
C661	C66	0.974000	0.697100	0.173200
Cd41	Cd4	0.327540	0.369990	0.555120
Cd51	Cd5	0.238960	0.283180	0.737410
Cd61	Cd6	0.148990	0.194880	0.923010
O151	O15	0.221600	0.317800	0.621800
O161	O16	0.211600	0.426900	0.753600
O171	O17	0.306200	0.258100	0.500600
O181	O18	0.261000	0.140800	0.718700
O191	O19	0.403600	0.219700	0.687000
O201	O20	0.426000	0.322200	0.620700
O211	O21	0.286400	0.513500	0.608000
O221	O22	0.214400	0.501500	0.531500
O231	O23	0.256400	0.248800	0.852400
O241	O24	0.168700	0.307600	0.969100
O251	O25	0.155000	0.057900	0.953700
O261	O26	0.280500	0.057500	0.882600
O271	O27	0.074400	0.341500	0.794500
O281	O28	0.062800	0.225000	0.844700
N31	N3	0.453200	0.345900	0.446900
N41	N4	0.000000	0.255500	0.023000
C671	C67	0.486200	0.404800	0.429400
H411	H41	0.455000	0.458400	0.463800
C681	C68	0.563500	0.392100	0.363900
H421	H42	0.584500	0.436200	0.353600
C691	C69	0.609400	0.315000	0.314100
C701	C70	0.571500	0.256300	0.330300
H431	H43	0.597000	0.203800	0.296200
C711	C71	0.495700	0.277200	0.397500
H441	H44	0.471900	0.235200	0.408900
C721	C72	0.695300	0.292300	0.242400
H451	H45	0.721900	0.236100	0.212900
C731	C73	0.737100	0.340200	0.216200
H461	H46	0.707900	0.398200	0.243400
C741	C74	0.826400	0.313800	0.147700
C751	C75	0.863300	0.367400	0.119800
H471	H47	0.829700	0.428300	0.142000
C761	C76	0.951900	0.334500	0.057600
H481	H48	0.977500	0.374300	0.040100
C771	C77	0.963900	0.198500	0.048300
H491	H49	0.997300	0.138600	0.023700
C781	C78	0.877400	0.229200	0.110700
H501	H50	0.852600	0.188900	0.128500
C791	C79	0.240500	0.266700	0.565200
C801	C80	0.186100	0.215600	0.570500
C811	C81	0.094400	0.245300	0.629700
H511	H51	0.069300	0.295900	0.665900
C821	C82	0.040700	0.200200	0.635000
H521	H52	0.976200	0.223500	0.672100
C831	C83	0.079200	0.122700	0.587500
C841	C84	0.172600	0.091100	0.529600
H531	H53	0.200000	0.037600	0.496100
C851	C85	0.224400	0.138700	0.521800
H541	H54	0.286900	0.117800	0.482400
C861	C86	0.022200	0.073500	0.593900
C871	C87	0.921500	0.117700	0.608600
H551	H55	0.887600	0.181100	0.615200
C881	C88	0.868800	0.071300	0.614100
C891	C89	0.919100	0.978200	0.607800
H561	H56	0.883900	0.945900	0.610700
C901	C90	0.019800	0.931000	0.597200
C911	C91	0.071300	0.980100	0.588700
H571	H57	0.140300	0.949500	0.579300
C921	C92	0.762200	0.118200	0.624200
C931	C93	0.726100	0.191200	0.587900
H581	H58	0.769900	0.210700	0.556500
C941	C94	0.626400	0.236500	0.596800
H591	H59	0.601700	0.287800	0.573100
C951	C95	0.562900	0.205000	0.641500
C961	C96	0.599100	0.131600	0.675500
H601	H60	0.556200	0.110300	0.705100
C971	C97	0.698700	0.087600	0.667100
H611	H61	0.723200	0.036300	0.691000
C981	C98	0.454800	0.253400	0.650300
C991	C99	0.072000	0.833700	0.591000
C1001	C100	0.045800	0.780100	0.558600
H621	H62	0.991100	0.807900	0.542300
C1011	C101	0.096500	0.688800	0.549900
H631	H63	0.080600	0.654000	0.523800
C1021	C102	0.172100	0.646500	0.579400
C1031	C103	0.196900	0.700300	0.611800
H641	H64	0.249400	0.673300	0.630600
C1041	C104	0.147100	0.792400	0.617400
H651	H65	0.165800	0.827400	0.640100
C1051	C105	0.228300	0.549000	0.570100
C1061	C106	0.232100	0.300800	0.910100
C1071	C107	0.289900	0.350400	0.905100
C1081	C108	0.252200	0.423000	0.958900
H661	H66	0.190700	0.441300	0.999000
C1091	C109	0.305200	0.469700	0.954200
H671	H67	0.276400	0.522400	0.989000
C1101	C110	0.396400	0.441300	0.901000
C1111	C111	0.434500	0.366400	0.847400
H681	H68	0.497300	0.346400	0.808400
C1121	C112	0.382600	0.323000	0.851000
H691	H69	0.410800	0.271500	0.814900
C1131	C113	0.452100	0.491600	0.899500
C1141	C114	0.404300	0.583200	0.909800
H701	H70	0.335000	0.614300	0.920800
C1151	C115	0.453900	0.632100	0.904700
C1161	C116	0.552900	0.585800	0.892600
H711	H71	0.587300	0.618700	0.890300
C1171	C117	0.605200	0.493600	0.883800
C1181	C118	0.552000	0.446400	0.886900
H721	H72	0.585500	0.382900	0.880100
C1191	C119	0.401100	0.731300	0.907800
C1201	C120	0.302700	0.781900	0.953600
H731	H73	0.269400	0.754100	0.986400
C1211	C121	0.251800	0.874600	0.952000
H741	H74	0.182700	0.907600	0.979300
C1221	C122	0.300300	0.916400	0.912000
C1231	C123	0.397200	0.867000	0.866300
H751	H75	0.431900	0.895700	0.837000
C1241	C124	0.443500	0.776900	0.862900
H761	H76	0.509000	0.743600	0.827500
C1251	C125	0.243700	0.017600	0.917400
C1261	C126	0.713200	0.443300	0.868500
C1271	C127	0.773900	0.481700	0.837100
H771	H77	0.745700	0.540300	0.824500
C1281	C128	0.871900	0.437300	0.824200
H781	H78	0.911400	0.465100	0.802500
C1291	C129	0.915400	0.351900	0.842100
C1301	C130	0.857800	0.312400	0.874600
H791	H79	0.886600	0.254600	0.888600
C1311	C131	0.759000	0.356600	0.886600
H801	H80	0.720200	0.328200	0.907900
C1321	C132	0.026000	0.302900	0.826800
