data_FOJBIR_freeONLY_PM
_symmetry_space_group_name_H-M	'P1'
_cell_length_a	10.187000
_cell_length_b	13.377000
_cell_length_c	17.241000
_cell_angle_alpha	101.129000
_cell_angle_beta	100.063000
_cell_angle_gamma	93.506000
_symmetry_Int_Tables_number 1

loop_
_symmetry_equiv_pos_as_xyz
'x,y,z'

loop_
_atom_site_label
_atom_site_type_symbol
_atom_site_fract_x
_atom_site_fract_y
_atom_site_fract_z
Cd11	Cd1	0.721780	0.920000	0.850120
S11	S1	0.153690	0.491200	0.717350
O11	O1	0.548900	0.792100	0.803000
O21	O2	0.473800	0.933600	0.854000
O31	O3	0.969900	0.928000	0.847400
O41	O4	0.849900	0.778400	0.816400
O51	O5	0.282000	0.461300	0.699400
O61	O6	0.053200	0.478700	0.645100
O71	O7	0.112000	0.442600	0.778100
O81	O8	0.360300	0.626600	0.478100
O91	O9	0.520400	0.464900	0.367500
N11	N1	0.094500	0.343300	0.447900
N21	N2	0.137500	0.278800	0.386400
N31	N3	0.306800	0.391900	0.461800
N41	N4	0.735600	0.954100	0.602900
N51	N5	0.608100	0.974100	0.598700
N61	N6	0.697100	0.957800	0.722600
N71	N7	0.801100	0.248300	0.977100
N81	N8	0.924000	0.214500	0.998000
N91	N9	0.776500	0.086100	0.919200
N101	N10	0.709500	0.750200	0.043700
N111	N11	0.627200	0.821300	0.068300
N121	N12	0.727200	0.868700	0.972900
C11	C1	0.915400	0.232300	0.475100
C21	C2	0.839500	0.155100	0.417200
H11	H1	0.813500	0.165200	0.364500
C31	C3	0.800600	0.061800	0.436000
H21	H2	0.748700	0.009900	0.395700
C41	C4	0.837500	0.045200	0.512800
C51	C5	0.916000	0.121800	0.571100
H31	H3	0.944000	0.110800	0.623400
C61	C6	0.953200	0.213900	0.552800
H41	H4	0.005100	0.265500	0.593300
C71	C7	0.956100	0.333000	0.454800
H51	H5	0.900200	0.338800	0.403800
H61	H6	0.940000	0.389000	0.496800
C81	C8	0.800400	0.943500	0.532600
H71	H7	0.739700	0.900800	0.486000
H81	H8	0.881500	0.908600	0.543000
C91	C9	0.265600	0.314900	0.398500
H91	H9	0.323400	0.287900	0.364600
C101	C10	0.194400	0.408700	0.491700
H101	H10	0.188400	0.459200	0.536800
C111	C11	0.590000	0.976600	0.673400
H111	H11	0.508600	0.990400	0.690000
C121	C12	0.786700	0.944500	0.675900
H121	H12	0.875100	0.930100	0.692700
C131	C13	0.895100	0.429900	0.004700
C141	C14	0.005200	0.456000	0.065300
H131	H13	0.009100	0.426500	0.110800
C151	C15	0.110600	0.523800	0.062300
H141	H14	0.185600	0.539000	0.104500
C161	C16	0.781400	0.354400	0.009300
H151	H15	0.771900	0.361300	0.065600
H161	H16	0.697900	0.371400	0.979100
C171	C17	0.902400	0.117600	0.961700
H171	H17	0.969900	0.072800	0.964900
C181	C18	0.716500	0.171100	0.931200
H181	H18	0.626300	0.176300	0.910000
C191	C19	0.602900	0.577100	0.036200
C201	C20	0.546300	0.519600	0.081900
H191	H19	0.577800	0.532100	0.137800
C211	C21	0.442500	0.442900	0.046400
H201	H20	0.403400	0.404800	0.078400
C221	C22	0.719800	0.657600	0.075000
H211	H21	0.723400	0.674300	0.133200
H221	H22	0.803500	0.629200	0.065600
C231	C23	0.642300	0.891800	0.024600
H231	H23	0.598300	0.951800	0.029200
C241	C24	0.766600	0.779500	0.987300
H241	H24	0.827000	0.742300	0.960800
C251	C25	0.318000	0.782400	0.808400
C261	C26	0.206400	0.833600	0.824700
H251	H25	0.216700	0.904000	0.847500
C271	C27	0.081000	0.779200	0.806900
C281	C28	0.064400	0.672400	0.776800
H261	H26	0.980900	0.634300	0.769400
C291	C29	0.177200	0.625800	0.758500
C301	C30	0.302800	0.678900	0.775000
H271	H27	0.377400	0.644800	0.763600
C311	C31	0.455900	0.839800	0.823000
C321	C32	0.957600	0.831500	0.824700
H281	H28	0.307000	0.608000	0.433000
H291	H29	0.390000	0.690000	0.483000
H301	H30	0.580000	0.498000	0.351000
H311	H31	0.446000	0.455000	0.336800
Cd21	Cd2	0.278220	0.080000	0.149880
S21	S2	0.846310	0.508800	0.282650
O101	O10	0.451100	0.207900	0.197000
O111	O11	0.526200	0.066400	0.146000
O121	O12	0.030100	0.072000	0.152600
O131	O13	0.150100	0.221600	0.183600
O141	O14	0.718000	0.538700	0.300600
O151	O15	0.946800	0.521300	0.354900
O161	O16	0.888000	0.557400	0.221900
O171	O17	0.639700	0.373400	0.521900
O181	O18	0.479600	0.535100	0.632500
N131	N13	0.905500	0.656700	0.552100
N141	N14	0.862500	0.721200	0.613600
N151	N15	0.693200	0.608100	0.538200
N161	N16	0.264400	0.045900	0.397100
N171	N17	0.391900	0.025900	0.401300
N181	N18	0.302900	0.042200	0.277400
N191	N19	0.198900	0.751700	0.022900
N201	N20	0.076000	0.785500	0.002000
N211	N21	0.223500	0.913900	0.080800
N221	N22	0.290500	0.249800	0.956300
N231	N23	0.372800	0.178700	0.931700
N241	N24	0.272800	0.131300	0.027100
C331	C33	0.084600	0.767700	0.524900
C341	C34	0.160500	0.844900	0.582800
H321	H32	0.186500	0.834800	0.635500
C351	C35	0.199400	0.938200	0.564000
H331	H33	0.251300	0.990100	0.604300
C361	C36	0.162500	0.954800	0.487200
C371	C37	0.084000	0.878200	0.428900
H341	H34	0.056000	0.889200	0.376600
C381	C38	0.046800	0.786100	0.447200
H351	H35	0.994900	0.734500	0.406700
C391	C39	0.043900	0.667000	0.545200
H361	H36	0.099800	0.661200	0.596200
H371	H37	0.060000	0.611000	0.503200
C401	C40	0.199600	0.056500	0.467400
H381	H38	0.260300	0.099200	0.514000
H391	H39	0.118500	0.091400	0.457000
C411	C41	0.734400	0.685100	0.601500
H401	H40	0.676600	0.712100	0.635400
C421	C42	0.805600	0.591300	0.508300
H411	H41	0.811600	0.540800	0.463200
C431	C43	0.410000	0.023400	0.326600
H421	H42	0.491400	0.009600	0.310000
C441	C44	0.213300	0.055500	0.324100
H431	H43	0.124900	0.069900	0.307300
C451	C45	0.104900	0.570100	0.995300
C461	C46	0.994800	0.544000	0.934700
H441	H44	0.990900	0.573500	0.889200
C471	C47	0.889400	0.476200	0.937700
H451	H45	0.814400	0.461000	0.895500
C481	C48	0.218600	0.645600	0.990700
H461	H46	0.228100	0.638700	0.934400
H471	H47	0.302100	0.628600	0.020900
C491	C49	0.097600	0.882400	0.038300
H481	H48	0.030100	0.927200	0.035100
C501	C50	0.283500	0.828900	0.068800
H491	H49	0.373700	0.823700	0.090000
C511	C51	0.397100	0.422900	0.963800
C521	C52	0.453700	0.480400	0.918100
H501	H50	0.422200	0.467900	0.862200
C531	C53	0.557500	0.557100	0.953600
H511	H51	0.596600	0.595200	0.921600
C541	C54	0.280200	0.342400	0.925000
H521	H52	0.276600	0.325700	0.866800
H531	H53	0.196500	0.370800	0.934400
C551	C55	0.357700	0.108200	0.975400
H541	H54	0.401700	0.048200	0.970800
C561	C56	0.233400	0.220500	0.012700
H551	H55	0.173000	0.257700	0.039200
C571	C57	0.682000	0.217600	0.191600
C581	C58	0.793600	0.166400	0.175300
H561	H56	0.783300	0.096000	0.152500
C591	C59	0.919000	0.220800	0.193100
C601	C60	0.935600	0.327600	0.223200
H571	H57	0.019100	0.365700	0.230600
C611	C61	0.822800	0.374200	0.241500
C621	C62	0.697200	0.321100	0.225000
H581	H58	0.622600	0.355200	0.236400
C631	C63	0.544100	0.160200	0.177000
C641	C64	0.042400	0.168500	0.175300
H591	H59	0.693000	0.392000	0.567000
H601	H60	0.610000	0.310000	0.517000
H611	H61	0.420000	0.502000	0.649000
H621	H62	0.554000	0.545000	0.663200
Cd31	Cd3	0.500000	0.500000	0.500000
