data_FOJKIA_freeONLY_PM
_symmetry_space_group_name_H-M	'P1'
_cell_length_a	7.172200
_cell_length_b	12.810900
_cell_length_c	17.316200
_cell_angle_alpha	90.000000
_cell_angle_beta	90.933000
_cell_angle_gamma	90.000000
_symmetry_Int_Tables_number 1

loop_
_symmetry_equiv_pos_as_xyz
'x,y,z'

loop_
_atom_site_label
_atom_site_type_symbol
_atom_site_fract_x
_atom_site_fract_y
_atom_site_fract_z
O11	O1	0.104400	0.381750	0.068170
O21	O2	0.409130	0.407690	0.087490
O31	O3	0.082540	0.071440	0.399120
O41	O4	0.387570	0.097190	0.418280
O51	O5	0.749730	0.409010	0.005470
H11	H1	0.758600	0.352300	0.980300
H21	H2	0.748900	0.391000	0.051500
C11	C1	0.257100	0.363540	0.101750
C21	C2	0.238900	0.104450	0.378770
C31	C3	0.255600	0.284940	0.166990
C41	C4	0.102200	0.282660	0.213140
H31	H3	0.999100	0.323400	0.200200
C51	C5	0.097700	0.219810	0.279710
H41	H4	0.990400	0.218400	0.309100
C61	C6	0.248500	0.160610	0.302030
C71	C7	0.408300	0.156250	0.253590
C81	C8	0.409800	0.217440	0.184480
C91	C9	0.561600	0.205630	0.133800
H51	H5	0.562100	0.243100	0.087800
C101	C10	0.706800	0.140720	0.150990
H61	H6	0.805700	0.135000	0.117200
C111	C11	0.707700	0.082560	0.219550
H71	H7	0.808000	0.039000	0.231400
C121	C12	0.562800	0.089420	0.268840
H81	H8	0.564700	0.049400	0.313700
O61	O6	0.895600	0.881750	0.431830
O71	O7	0.590870	0.907690	0.412510
O81	O8	0.917460	0.571440	0.100880
O91	O9	0.612430	0.597190	0.081720
O101	O10	0.250270	0.909010	0.494530
H91	H9	0.241400	0.852300	0.519700
H101	H10	0.251100	0.891000	0.448500
C131	C13	0.742900	0.863540	0.398250
C141	C14	0.761100	0.604450	0.121230
C151	C15	0.744400	0.784940	0.333010
C161	C16	0.897800	0.782660	0.286860
H111	H11	0.000900	0.823400	0.299800
C171	C17	0.902300	0.719810	0.220290
H121	H12	0.009600	0.718400	0.190900
C181	C18	0.751500	0.660610	0.197970
C191	C19	0.591700	0.656250	0.246410
C201	C20	0.590200	0.717440	0.315520
C211	C21	0.438400	0.705630	0.366200
H131	H13	0.437900	0.743100	0.412200
C221	C22	0.293200	0.640720	0.349010
H141	H14	0.194300	0.635000	0.382800
C231	C23	0.292300	0.582560	0.280450
H151	H15	0.192000	0.539000	0.268600
C241	C24	0.437200	0.589420	0.231160
H161	H16	0.435300	0.549400	0.186300
O111	O11	0.895600	0.618250	0.931830
O121	O12	0.590870	0.592310	0.912510
O131	O13	0.917460	0.928560	0.600880
O141	O14	0.612430	0.902810	0.581720
O151	O15	0.250270	0.590990	0.994530
H171	H17	0.241400	0.647700	0.019700
H181	H18	0.251100	0.609000	0.948500
C251	C25	0.742900	0.636460	0.898250
C261	C26	0.761100	0.895550	0.621230
C271	C27	0.744400	0.715060	0.833010
C281	C28	0.897800	0.717340	0.786860
H191	H19	0.000900	0.676600	0.799800
C291	C29	0.902300	0.780190	0.720290
H201	H20	0.009600	0.781600	0.690900
C301	C30	0.751500	0.839390	0.697970
C311	C31	0.591700	0.843750	0.746410
C321	C32	0.590200	0.782560	0.815520
C331	C33	0.438400	0.794370	0.866200
H211	H21	0.437900	0.756900	0.912200
C341	C34	0.293200	0.859280	0.849010
H221	H22	0.194300	0.865000	0.882800
C351	C35	0.292300	0.917440	0.780450
H231	H23	0.192000	0.961000	0.768600
C361	C36	0.437200	0.910580	0.731160
H241	H24	0.435300	0.950600	0.686300
O161	O16	0.104400	0.118250	0.568170
O171	O17	0.409130	0.092310	0.587490
O181	O18	0.082540	0.428560	0.899120
O191	O19	0.387570	0.402810	0.918280
O201	O20	0.749730	0.090990	0.505470
H251	H25	0.758600	0.147700	0.480300
H261	H26	0.748900	0.109000	0.551500
C371	C37	0.257100	0.136460	0.601750
C381	C38	0.238900	0.395550	0.878770
C391	C39	0.255600	0.215060	0.666990
C401	C40	0.102200	0.217340	0.713140
H271	H27	0.999100	0.176600	0.700200
C411	C41	0.097700	0.280190	0.779710
H281	H28	0.990400	0.281600	0.809100
C421	C42	0.248500	0.339390	0.802030
C431	C43	0.408300	0.343750	0.753590
C441	C44	0.409800	0.282560	0.684480
C451	C45	0.561600	0.294370	0.633800
H291	H29	0.562100	0.256900	0.587800
C461	C46	0.706800	0.359280	0.650990
H301	H30	0.805700	0.365000	0.617200
C471	C47	0.707700	0.417440	0.719550
H311	H31	0.808000	0.461000	0.731400
C481	C48	0.562800	0.410580	0.768840
H321	H32	0.564700	0.450600	0.813700
Mg11	Mg1	0.500000	0.500000	0.000000
Mg21	Mg2	0.500000	0.000000	0.500000
Mg31	Mg3	0.000000	0.500000	0.000000
Mg41	Mg4	0.000000	0.000000	0.500000
