data_FOKWIN_freeONLY_PM
_symmetry_space_group_name_H-M	'P1'
_cell_length_a	10.316300
_cell_length_b	10.316300
_cell_length_c	33.095000
_cell_angle_alpha	90.000000
_cell_angle_beta	90.000000
_cell_angle_gamma	90.000000
_symmetry_Int_Tables_number 1

loop_
_symmetry_equiv_pos_as_xyz
'x,y,z'

loop_
_atom_site_label
_atom_site_type_symbol
_atom_site_fract_x
_atom_site_fract_y
_atom_site_fract_z
C11	C1	0.148400	0.591400	0.073600
H11	H1	0.215100	0.603300	0.053700
C21	C2	0.175200	0.618500	0.113220
C31	C3	0.080000	0.600400	0.142120
H21	H2	0.097400	0.616900	0.170200
C41	C4	0.961500	0.557800	0.129770
H31	H3	0.893100	0.544300	0.149000
C51	C5	0.940000	0.533700	0.089370
H41	H4	0.855800	0.505600	0.080700
C61	C6	0.388200	0.701600	0.098440
H51	H5	0.415600	0.630400	0.081800
H61	H6	0.355900	0.769800	0.081400
N11	N1	0.032200	0.549300	0.061460
N21	N2	0.865700	0.351500	0.019680
N31	N3	0.855100	0.243100	0.010820
N41	N4	0.839800	0.133400	0.001870
O11	O1	0.291200	0.661200	0.126820
C71	C7	0.648400	0.091400	0.573600
H71	H7	0.715100	0.103300	0.553700
C81	C8	0.675200	0.118500	0.613220
C91	C9	0.580000	0.100400	0.642120
H81	H8	0.597400	0.116900	0.670200
C101	C10	0.461500	0.057800	0.629770
H91	H9	0.393100	0.044300	0.649000
C111	C11	0.440000	0.033700	0.589370
H101	H10	0.355800	0.005600	0.580700
C121	C12	0.888200	0.201600	0.598440
H111	H11	0.915600	0.130400	0.581800
H121	H12	0.855900	0.269800	0.581400
N51	N5	0.532200	0.049300	0.561460
N61	N6	0.365700	0.851500	0.519680
N71	N7	0.355100	0.743100	0.510820
N81	N8	0.339800	0.633400	0.501870
O21	O2	0.791200	0.161200	0.626820
C131	C13	0.351600	0.408600	0.573600
H131	H13	0.284900	0.396700	0.553700
C141	C14	0.324800	0.381500	0.613220
C151	C15	0.420000	0.399600	0.642120
H141	H14	0.402600	0.383100	0.670200
C161	C16	0.538500	0.442200	0.629770
H151	H15	0.606900	0.455700	0.649000
C171	C17	0.560000	0.466300	0.589370
H161	H16	0.644200	0.494400	0.580700
C181	C18	0.111800	0.298400	0.598440
H171	H17	0.084400	0.369600	0.581800
H181	H18	0.144100	0.230200	0.581400
N91	N9	0.467800	0.450700	0.561460
N101	N10	0.634300	0.648500	0.519680
N111	N11	0.644900	0.756900	0.510820
N121	N12	0.660200	0.866600	0.501870
O31	O3	0.208800	0.338800	0.626820
C191	C19	0.851600	0.908600	0.073600
H191	H19	0.784900	0.896700	0.053700
C201	C20	0.824800	0.881500	0.113220
C211	C21	0.920000	0.899600	0.142120
H201	H20	0.902600	0.883100	0.170200
C221	C22	0.038500	0.942200	0.129770
H211	H21	0.106900	0.955700	0.149000
C231	C23	0.060000	0.966300	0.089370
H221	H22	0.144200	0.994400	0.080700
C241	C24	0.611800	0.798400	0.098440
H231	H23	0.584400	0.869600	0.081800
H241	H24	0.644100	0.730200	0.081400
N131	N13	0.967800	0.950700	0.061460
N141	N14	0.134300	0.148500	0.019680
N151	N15	0.144900	0.256900	0.010820
N161	N16	0.160200	0.366600	0.001870
O41	O4	0.708800	0.838800	0.126820
C251	C25	0.158600	0.398400	0.323600
H251	H25	0.146700	0.465100	0.303700
C261	C26	0.131500	0.425200	0.363220
C271	C27	0.149600	0.330000	0.392120
H261	H26	0.133100	0.347400	0.420200
C281	C28	0.192200	0.211500	0.379770
H271	H27	0.205700	0.143100	0.399000
C291	C29	0.216300	0.190000	0.339370
H281	H28	0.244400	0.105800	0.330700
C301	C30	0.048400	0.638200	0.348440
H291	H29	0.119600	0.665600	0.331800
H301	H30	0.980200	0.605900	0.331400
N171	N17	0.200700	0.282200	0.311460
N181	N18	0.398500	0.115700	0.269680
N191	N19	0.506900	0.105100	0.260820
N201	N20	0.616600	0.089800	0.251870
O51	O5	0.088800	0.541200	0.376820
C311	C31	0.658600	0.898400	0.823600
H311	H31	0.646700	0.965100	0.803700
C321	C32	0.631500	0.925200	0.863220
C331	C33	0.649600	0.830000	0.892120
H321	H32	0.633100	0.847400	0.920200
C341	C34	0.692200	0.711500	0.879770
H331	H33	0.705700	0.643100	0.899000
C351	C35	0.716300	0.690000	0.839370
H341	H34	0.744400	0.605800	0.830700
C361	C36	0.548400	0.138200	0.848440
H351	H35	0.619600	0.165600	0.831800
H361	H36	0.480200	0.105900	0.831400
N211	N21	0.700700	0.782200	0.811460
N221	N22	0.898500	0.615700	0.769680
N231	N23	0.006900	0.605100	0.760820
N241	N24	0.116600	0.589800	0.751870
O61	O6	0.588800	0.041200	0.876820
C371	C37	0.341400	0.601600	0.823600
H371	H37	0.353300	0.534900	0.803700
C381	C38	0.368500	0.574800	0.863220
C391	C39	0.350400	0.670000	0.892120
H381	H38	0.366900	0.652600	0.920200
C401	C40	0.307800	0.788500	0.879770
H391	H39	0.294300	0.856900	0.899000
C411	C41	0.283700	0.810000	0.839370
H401	H40	0.255600	0.894200	0.830700
C421	C42	0.451600	0.361800	0.848440
H411	H41	0.380400	0.334400	0.831800
H421	H42	0.519800	0.394100	0.831400
N251	N25	0.299300	0.717800	0.811460
N261	N26	0.101500	0.884300	0.769680
N271	N27	0.993100	0.894900	0.760820
N281	N28	0.883400	0.910200	0.751870
O71	O7	0.411200	0.458800	0.876820
C431	C43	0.841400	0.101600	0.323600
H431	H43	0.853300	0.034900	0.303700
C441	C44	0.868500	0.074800	0.363220
C451	C45	0.850400	0.170000	0.392120
H441	H44	0.866900	0.152600	0.420200
C461	C46	0.807800	0.288500	0.379770
H451	H45	0.794300	0.356900	0.399000
C471	C47	0.783700	0.310000	0.339370
H461	H46	0.755600	0.394200	0.330700
C481	C48	0.951600	0.861800	0.348440
H471	H47	0.880400	0.834400	0.331800
H481	H48	0.019800	0.894100	0.331400
N291	N29	0.799300	0.217800	0.311460
N301	N30	0.601500	0.384300	0.269680
N311	N31	0.493100	0.394900	0.260820
N321	N32	0.383400	0.410200	0.251870
O81	O8	0.911200	0.958800	0.376820
C491	C49	0.851600	0.408600	0.926400
H491	H49	0.784900	0.396700	0.946300
C501	C50	0.824800	0.381500	0.886780
C511	C51	0.920000	0.399600	0.857880
H501	H50	0.902600	0.383100	0.829800
C521	C52	0.038500	0.442200	0.870230
H511	H51	0.106900	0.455700	0.851000
C531	C53	0.060000	0.466300	0.910630
H521	H52	0.144200	0.494400	0.919300
C541	C54	0.611800	0.298400	0.901560
H531	H53	0.584400	0.369600	0.918200
H541	H54	0.644100	0.230200	0.918600
N331	N33	0.967800	0.450700	0.938540
N341	N34	0.134300	0.648500	0.980320
N351	N35	0.144900	0.756900	0.989180
N361	N36	0.160200	0.866600	0.998130
O91	O9	0.708800	0.338800	0.873180
C551	C55	0.351600	0.908600	0.426400
H551	H55	0.284900	0.896700	0.446300
C561	C56	0.324800	0.881500	0.386780
C571	C57	0.420000	0.899600	0.357880
H561	H56	0.402600	0.883100	0.329800
C581	C58	0.538500	0.942200	0.370230
H571	H57	0.606900	0.955700	0.351000
C591	C59	0.560000	0.966300	0.410630
H581	H58	0.644200	0.994400	0.419300
C601	C60	0.111800	0.798400	0.401560
H591	H59	0.084400	0.869600	0.418200
H601	H60	0.144100	0.730200	0.418600
N371	N37	0.467800	0.950700	0.438540
N381	N38	0.634300	0.148500	0.480320
N391	N39	0.644900	0.256900	0.489180
N401	N40	0.660200	0.366600	0.498130
O101	O10	0.208800	0.838800	0.373180
C611	C61	0.648400	0.591400	0.426400
H611	H61	0.715100	0.603300	0.446300
C621	C62	0.675200	0.618500	0.386780
C631	C63	0.580000	0.600400	0.357880
H621	H62	0.597400	0.616900	0.329800
C641	C64	0.461500	0.557800	0.370230
H631	H63	0.393100	0.544300	0.351000
C651	C65	0.440000	0.533700	0.410630
H641	H64	0.355800	0.505600	0.419300
C661	C66	0.888200	0.701600	0.401560
H651	H65	0.915600	0.630400	0.418200
H661	H66	0.855900	0.769800	0.418600
N411	N41	0.532200	0.549300	0.438540
N421	N42	0.365700	0.351500	0.480320
N431	N43	0.355100	0.243100	0.489180
N441	N44	0.339800	0.133400	0.498130
O111	O11	0.791200	0.661200	0.373180
C671	C67	0.148400	0.091400	0.926400
H671	H67	0.215100	0.103300	0.946300
C681	C68	0.175200	0.118500	0.886780
C691	C69	0.080000	0.100400	0.857880
H681	H68	0.097400	0.116900	0.829800
C701	C70	0.961500	0.057800	0.870230
H691	H69	0.893100	0.044300	0.851000
C711	C71	0.940000	0.033700	0.910630
H701	H70	0.855800	0.005600	0.919300
C721	C72	0.388200	0.201600	0.901560
H711	H71	0.415600	0.130400	0.918200
H721	H72	0.355900	0.269800	0.918600
N451	N45	0.032200	0.049300	0.938540
N461	N46	0.865700	0.851500	0.980320
N471	N47	0.855100	0.743100	0.989180
N481	N48	0.839800	0.633400	0.998130
O121	O12	0.291200	0.161200	0.873180
C731	C73	0.841400	0.601600	0.676400
H731	H73	0.853300	0.534900	0.696300
C741	C74	0.868500	0.574800	0.636780
C751	C75	0.850400	0.670000	0.607880
H741	H74	0.866900	0.652600	0.579800
C761	C76	0.807800	0.788500	0.620230
H751	H75	0.794300	0.856900	0.601000
C771	C77	0.783700	0.810000	0.660630
H761	H76	0.755600	0.894200	0.669300
C781	C78	0.951600	0.361800	0.651560
H771	H77	0.880400	0.334400	0.668200
H781	H78	0.019800	0.394100	0.668600
N491	N49	0.799300	0.717800	0.688540
N501	N50	0.601500	0.884300	0.730320
N511	N51	0.493100	0.894900	0.739180
N521	N52	0.383400	0.910200	0.748130
O131	O13	0.911200	0.458800	0.623180
C791	C79	0.341400	0.101600	0.176400
H791	H79	0.353300	0.034900	0.196300
C801	C80	0.368500	0.074800	0.136780
C811	C81	0.350400	0.170000	0.107880
H801	H80	0.366900	0.152600	0.079800
C821	C82	0.307800	0.288500	0.120230
H811	H81	0.294300	0.356900	0.101000
C831	C83	0.283700	0.310000	0.160630
H821	H82	0.255600	0.394200	0.169300
C841	C84	0.451600	0.861800	0.151560
H831	H83	0.380400	0.834400	0.168200
H841	H84	0.519800	0.894100	0.168600
N531	N53	0.299300	0.217800	0.188540
N541	N54	0.101500	0.384300	0.230320
N551	N55	0.993100	0.394900	0.239180
N561	N56	0.883400	0.410200	0.248130
O141	O14	0.411200	0.958800	0.123180
C851	C85	0.658600	0.398400	0.176400
H851	H85	0.646700	0.465100	0.196300
C861	C86	0.631500	0.425200	0.136780
C871	C87	0.649600	0.330000	0.107880
H861	H86	0.633100	0.347400	0.079800
C881	C88	0.692200	0.211500	0.120230
H871	H87	0.705700	0.143100	0.101000
C891	C89	0.716300	0.190000	0.160630
H881	H88	0.744400	0.105800	0.169300
C901	C90	0.548400	0.638200	0.151560
H891	H89	0.619600	0.665600	0.168200
H901	H90	0.480200	0.605900	0.168600
N571	N57	0.700700	0.282200	0.188540
N581	N58	0.898500	0.115700	0.230320
N591	N59	0.006900	0.105100	0.239180
N601	N60	0.116600	0.089800	0.248130
O151	O15	0.588800	0.541200	0.123180
C911	C91	0.158600	0.898400	0.676400
H911	H91	0.146700	0.965100	0.696300
C921	C92	0.131500	0.925200	0.636780
C931	C93	0.149600	0.830000	0.607880
H921	H92	0.133100	0.847400	0.579800
C941	C94	0.192200	0.711500	0.620230
H931	H93	0.205700	0.643100	0.601000
C951	C95	0.216300	0.690000	0.660630
H941	H94	0.244400	0.605800	0.669300
C961	C96	0.048400	0.138200	0.651560
H951	H95	0.119600	0.165600	0.668200
H961	H96	0.980200	0.105900	0.668600
N611	N61	0.200700	0.782200	0.688540
N621	N62	0.398500	0.615700	0.730320
N631	N63	0.506900	0.605100	0.739180
N641	N64	0.616600	0.589800	0.748130
O161	O16	0.088800	0.041200	0.623180
C971	C97	0.500000	0.750000	0.125000
C981	C98	0.000000	0.250000	0.625000
C991	C99	0.000000	0.750000	0.375000
C1001	C100	0.500000	0.250000	0.875000
Co11	Co1	0.000000	0.500000	0.000000
Co21	Co2	0.500000	0.000000	0.500000
Co31	Co3	0.500000	0.500000	0.500000
Co41	Co4	0.000000	0.000000	0.000000
Co51	Co5	0.250000	0.250000	0.250000
Co61	Co6	0.750000	0.750000	0.750000
Co71	Co7	0.250000	0.750000	0.750000
Co81	Co8	0.750000	0.250000	0.250000
