data_FOQTEL_freeONLY_PM
_symmetry_space_group_name_H-M	'P1'
_cell_length_a	8.233500
_cell_length_b	17.875100
_cell_length_c	14.206100
_cell_angle_alpha	90.000000
_cell_angle_beta	90.000000
_cell_angle_gamma	90.000000
_symmetry_Int_Tables_number 1

loop_
_symmetry_equiv_pos_as_xyz
'x,y,z'

loop_
_atom_site_label
_atom_site_type_symbol
_atom_site_fract_x
_atom_site_fract_y
_atom_site_fract_z
H11	H1	0.053700	0.205700	0.849900
H21	H2	0.769300	0.205500	0.828600
C11	C1	0.908800	0.309610	0.657300
H31	H3	0.897800	0.359700	0.676500
N11	N1	0.956600	0.289150	0.574110
C21	C2	0.089700	0.400230	0.363800
H41	H4	0.198700	0.413900	0.373200
N21	N2	0.042300	0.340820	0.318060
N31	N3	0.873100	0.341220	0.320200
C31	C3	0.828900	0.400980	0.367800
H51	H5	0.720900	0.414800	0.380400
N41	N4	0.960700	0.439270	0.395750
C41	C4	0.965300	0.508420	0.451520
H61	H6	0.855300	0.528800	0.457800
H71	H7	0.032900	0.545800	0.419700
H81	H8	0.446300	0.794300	0.349900
H91	H9	0.730700	0.794500	0.328600
C51	C5	0.591200	0.690390	0.157300
H101	H10	0.602200	0.640300	0.176500
N51	N5	0.543400	0.710850	0.074110
C61	C6	0.410300	0.599770	0.863800
H111	H11	0.301300	0.586100	0.873200
N61	N6	0.457700	0.659180	0.818060
N71	N7	0.626900	0.658780	0.820200
C71	C7	0.671100	0.599020	0.867800
H121	H12	0.779100	0.585200	0.880400
N81	N8	0.539300	0.560730	0.895750
C81	C8	0.534700	0.491580	0.951520
H131	H13	0.644700	0.471200	0.957800
H141	H14	0.467100	0.454200	0.919700
H151	H15	0.946300	0.705700	0.150100
H161	H16	0.230700	0.705500	0.171400
C91	C9	0.091200	0.809610	0.342700
H171	H17	0.102200	0.859700	0.323500
N91	N9	0.043400	0.789150	0.425890
C101	C10	0.910300	0.900230	0.636200
H181	H18	0.801300	0.913900	0.626800
N101	N10	0.957700	0.840820	0.681940
N111	N11	0.126900	0.841220	0.679800
C111	C11	0.171100	0.900980	0.632200
H191	H19	0.279100	0.914800	0.619600
N121	N12	0.039300	0.939270	0.604250
C121	C12	0.034700	0.008420	0.548480
H201	H20	0.144700	0.028800	0.542200
H211	H21	0.967100	0.045800	0.580300
H221	H22	0.553700	0.294300	0.650100
H231	H23	0.269300	0.294500	0.671400
C131	C13	0.408800	0.190390	0.842700
H241	H24	0.397800	0.140300	0.823500
N131	N13	0.456600	0.210850	0.925890
C141	C14	0.589700	0.099770	0.136200
H251	H25	0.698700	0.086100	0.126800
N141	N14	0.542300	0.159180	0.181940
N151	N15	0.373100	0.158780	0.179800
C151	C15	0.328900	0.099020	0.132200
H261	H26	0.220900	0.085200	0.119600
N161	N16	0.460700	0.060730	0.104250
C161	C16	0.465300	0.991580	0.048480
H271	H27	0.355300	0.971200	0.042200
H281	H28	0.532900	0.954200	0.080300
H291	H29	0.946300	0.794300	0.150100
H301	H30	0.230700	0.794500	0.171400
C171	C17	0.091200	0.690390	0.342700
H311	H31	0.102200	0.640300	0.323500
N171	N17	0.043400	0.710850	0.425890
C181	C18	0.910300	0.599770	0.636200
H321	H32	0.801300	0.586100	0.626800
N181	N18	0.957700	0.659180	0.681940
N191	N19	0.126900	0.658780	0.679800
C191	C19	0.171100	0.599020	0.632200
H331	H33	0.279100	0.585200	0.619600
N201	N20	0.039300	0.560730	0.604250
C201	C20	0.034700	0.491580	0.548480
H341	H34	0.144700	0.471200	0.542200
H351	H35	0.967100	0.454200	0.580300
H361	H36	0.553700	0.205700	0.650100
H371	H37	0.269300	0.205500	0.671400
C211	C21	0.408800	0.309610	0.842700
H381	H38	0.397800	0.359700	0.823500
N211	N21	0.456600	0.289150	0.925890
C221	C22	0.589700	0.400230	0.136200
H391	H39	0.698700	0.413900	0.126800
N221	N22	0.542300	0.340820	0.181940
N231	N23	0.373100	0.341220	0.179800
C231	C23	0.328900	0.400980	0.132200
H401	H40	0.220900	0.414800	0.119600
N241	N24	0.460700	0.439270	0.104250
C241	C24	0.465300	0.508420	0.048480
H411	H41	0.355300	0.528800	0.042200
H421	H42	0.532900	0.545800	0.080300
H431	H43	0.053700	0.294300	0.849900
H441	H44	0.769300	0.294500	0.828600
C251	C25	0.908800	0.190390	0.657300
H451	H45	0.897800	0.140300	0.676500
N251	N25	0.956600	0.210850	0.574110
C261	C26	0.089700	0.099770	0.363800
H461	H46	0.198700	0.086100	0.373200
N261	N26	0.042300	0.159180	0.318060
N271	N27	0.873100	0.158780	0.320200
C271	C27	0.828900	0.099020	0.367800
H471	H47	0.720900	0.085200	0.380400
N281	N28	0.960700	0.060730	0.395750
C281	C28	0.965300	0.991580	0.451520
H481	H48	0.855300	0.971200	0.457800
H491	H49	0.032900	0.954200	0.419700
H501	H50	0.446300	0.705700	0.349900
H511	H51	0.730700	0.705500	0.328600
C291	C29	0.591200	0.809610	0.157300
H521	H52	0.602200	0.859700	0.176500
N291	N29	0.543400	0.789150	0.074110
C301	C30	0.410300	0.900230	0.863800
H531	H53	0.301300	0.913900	0.873200
N301	N30	0.457700	0.840820	0.818060
N311	N31	0.626900	0.841220	0.820200
C311	C31	0.671100	0.900980	0.867800
H541	H54	0.779100	0.914800	0.880400
N321	N32	0.539300	0.939270	0.895750
C321	C32	0.534700	0.008420	0.951520
H551	H55	0.644700	0.028800	0.957800
H561	H56	0.467100	0.045800	0.919700
Cd11	Cd1	0.208280	0.250000	0.250920
C331	C33	0.091800	0.250000	0.031600
H571	H57	0.202200	0.250000	0.014600
N331	N33	0.038400	0.250000	0.118500
N341	N34	0.871600	0.250000	0.113200
C341	C34	0.833000	0.250000	0.023200
H581	H58	0.726400	0.250000	0.999500
N351	N35	0.968600	0.250000	0.970000
C351	C35	0.990600	0.250000	0.867800
C361	C36	0.833500	0.250000	0.813200
N361	N36	0.876600	0.250000	0.713100
Cd21	Cd2	0.291720	0.750000	0.750920
C371	C37	0.408200	0.750000	0.531600
H591	H59	0.297800	0.750000	0.514600
N371	N37	0.461600	0.750000	0.618500
N381	N38	0.628400	0.750000	0.613200
C381	C38	0.667000	0.750000	0.523200
H601	H60	0.773600	0.750000	0.499500
N391	N39	0.531400	0.750000	0.470000
C391	C39	0.509400	0.750000	0.367800
C401	C40	0.666500	0.750000	0.313200
N401	N40	0.623400	0.750000	0.213100
Cd31	Cd3	0.791720	0.750000	0.749080
C411	C41	0.908200	0.750000	0.968400
H611	H61	0.797800	0.750000	0.985400
N411	N41	0.961600	0.750000	0.881500
N421	N42	0.128400	0.750000	0.886800
C421	C42	0.167000	0.750000	0.976800
H621	H62	0.273600	0.750000	0.000500
N431	N43	0.031400	0.750000	0.030000
C431	C43	0.009400	0.750000	0.132200
C441	C44	0.166500	0.750000	0.186800
N441	N44	0.123400	0.750000	0.286900
Cd41	Cd4	0.708280	0.250000	0.249080
C451	C45	0.591800	0.250000	0.468400
H631	H63	0.702200	0.250000	0.485400
N451	N45	0.538400	0.250000	0.381500
N461	N46	0.371600	0.250000	0.386800
C461	C46	0.333000	0.250000	0.476800
H641	H64	0.226400	0.250000	0.500500
N471	N47	0.468600	0.250000	0.530000
C471	C47	0.490600	0.250000	0.632200
C481	C48	0.333500	0.250000	0.686800
N481	N48	0.376600	0.250000	0.786900
