data_FORKUU_freeONLY_PM
_symmetry_space_group_name_H-M	'P1'
_cell_length_a	19.739000
_cell_length_b	19.739000
_cell_length_c	7.476800
_cell_angle_alpha	90.000000
_cell_angle_beta	90.000000
_cell_angle_gamma	90.000000
_symmetry_Int_Tables_number 1

loop_
_symmetry_equiv_pos_as_xyz
'x,y,z'

loop_
_atom_site_label
_atom_site_type_symbol
_atom_site_fract_x
_atom_site_fract_y
_atom_site_fract_z
Zn11	Zn1	0.000000	0.000000	0.000000
Si11	Si1	0.000000	0.000000	0.500000
F11	F1	0.000000	0.000000	0.271500
F21	F2	0.000000	0.000000	0.728500
F31	F3	0.059820	0.059820	0.500000
F41	F4	0.940180	0.940180	0.500000
F51	F5	0.940180	0.059820	0.500000
F61	F6	0.059820	0.940180	0.500000
O11	O1	0.321700	0.114900	0.000000
C11	C1	0.354600	0.062500	0.000000
C21	C2	0.429700	0.062800	0.000000
C31	C3	0.464200	0.121100	0.000000
H11	H1	0.440400	0.162900	0.000000
O21	O2	0.678300	0.885100	0.000000
C41	C4	0.645400	0.937500	0.000000
C51	C5	0.570300	0.937200	0.000000
C61	C6	0.535800	0.878900	0.000000
H21	H2	0.559600	0.837100	0.000000
O31	O3	0.885100	0.321700	0.000000
C71	C7	0.937500	0.354600	0.000000
C81	C8	0.937200	0.429700	0.000000
C91	C9	0.878900	0.464200	0.000000
H31	H3	0.837100	0.440400	0.000000
O41	O4	0.114900	0.678300	0.000000
C101	C10	0.062500	0.645400	0.000000
C111	C11	0.062800	0.570300	0.000000
C121	C12	0.121100	0.535800	0.000000
H41	H4	0.162900	0.559600	0.000000
O51	O5	0.678300	0.114900	0.000000
C131	C13	0.645400	0.062500	0.000000
C141	C14	0.570300	0.062800	0.000000
C151	C15	0.535800	0.121100	0.000000
H51	H5	0.559600	0.162900	0.000000
O61	O6	0.321700	0.885100	0.000000
C161	C16	0.354600	0.937500	0.000000
C171	C17	0.429700	0.937200	0.000000
C181	C18	0.464200	0.878900	0.000000
H61	H6	0.440400	0.837100	0.000000
O71	O7	0.114900	0.321700	0.000000
C191	C19	0.062500	0.354600	0.000000
C201	C20	0.062800	0.429700	0.000000
C211	C21	0.121100	0.464200	0.000000
H71	H7	0.162900	0.440400	0.000000
O81	O8	0.885100	0.678300	0.000000
C221	C22	0.937500	0.645400	0.000000
C231	C23	0.937200	0.570300	0.000000
C241	C24	0.878900	0.535800	0.000000
H81	H8	0.837100	0.559600	0.000000
N11	N1	0.109600	0.000000	0.000000
N21	N2	0.322600	0.000000	0.000000
C251	C25	0.249100	0.000000	0.000000
C261	C26	0.464300	0.000000	0.000000
N31	N3	0.890400	0.000000	0.000000
N41	N4	0.677400	0.000000	0.000000
C271	C27	0.750900	0.000000	0.000000
C281	C28	0.535700	0.000000	0.000000
N51	N5	0.000000	0.109600	0.000000
N61	N6	0.000000	0.322600	0.000000
C291	C29	0.000000	0.249100	0.000000
C301	C30	0.000000	0.464300	0.000000
N71	N7	0.000000	0.890400	0.000000
N81	N8	0.000000	0.677400	0.000000
C311	C31	0.000000	0.750900	0.000000
C321	C32	0.000000	0.535700	0.000000
C331	C33	0.144500	0.000000	0.853800
H91	H9	0.120500	0.000000	0.743700
C341	C34	0.214100	0.000000	0.847200
H101	H10	0.236900	0.000000	0.735400
C351	C35	0.855500	0.000000	0.853800
H111	H11	0.879500	0.000000	0.743700
C361	C36	0.785900	0.000000	0.847200
H121	H12	0.763100	0.000000	0.735400
C371	C37	0.000000	0.144500	0.853800
H131	H13	0.000000	0.120500	0.743700
C381	C38	0.000000	0.214100	0.847200
H141	H14	0.000000	0.236900	0.735400
C391	C39	0.000000	0.855500	0.853800
H151	H15	0.000000	0.879500	0.743700
C401	C40	0.000000	0.785900	0.847200
H161	H16	0.000000	0.763100	0.735400
C411	C41	0.855500	0.000000	0.146200
H171	H17	0.879500	0.000000	0.256300
C421	C42	0.785900	0.000000	0.152800
H181	H18	0.763100	0.000000	0.264600
C431	C43	0.144500	0.000000	0.146200
H191	H19	0.120500	0.000000	0.256300
C441	C44	0.214100	0.000000	0.152800
H201	H20	0.236900	0.000000	0.264600
C451	C45	0.000000	0.144500	0.146200
H211	H21	0.000000	0.120500	0.256300
C461	C46	0.000000	0.214100	0.152800
H221	H22	0.000000	0.236900	0.264600
C471	C47	0.000000	0.855500	0.146200
H231	H23	0.000000	0.879500	0.256300
C481	C48	0.000000	0.785900	0.152800
H241	H24	0.000000	0.763100	0.264600
