data_FORPUY_freeONLY_PM
_symmetry_space_group_name_H-M	'P1'
_cell_length_a	30.514000
_cell_length_b	15.671500
_cell_length_c	22.003000
_cell_angle_alpha	90.000000
_cell_angle_beta	133.025000
_cell_angle_gamma	90.000000
_symmetry_Int_Tables_number 1

loop_
_symmetry_equiv_pos_as_xyz
'x,y,z'

loop_
_atom_site_label
_atom_site_type_symbol
_atom_site_fract_x
_atom_site_fract_y
_atom_site_fract_z
Nd11	Nd1	0.890010	0.636190	0.325910
Nd21	Nd2	0.830780	0.627950	0.985480
N11	N1	0.838100	0.497400	0.241800
N21	N2	0.634000	0.734200	0.035800
O11	O1	0.866900	0.530300	0.382800
O21	O2	0.828100	0.404100	0.375500
O31	O3	0.876200	0.615400	0.203400
O41	O4	0.840400	0.547500	0.088800
O51	O5	0.749000	0.768700	0.129100
O61	O6	0.777200	0.653100	0.204100
O71	O7	0.560000	0.855800	0.930300
O81	O8	0.481000	0.784800	0.888000
O91	O9	0.841200	0.704200	0.368500
H11	H1	0.856900	0.750600	0.371300
H21	H2	0.803400	0.711400	0.333400
O101	O10	0.967800	0.632600	0.487100
H31	H3	0.964300	0.674700	0.508000
H41	H4	0.967300	0.585900	0.506300
O111	O11	0.972400	0.522400	0.376700
H51	H5	0.973900	0.486500	0.349200
H61	H6	0.994200	0.564700	0.387200
O121	O12	0.867500	0.781000	0.263600
H71	H7	0.830800	0.795000	0.232500
H81	H8	0.886200	0.802300	0.311300
O131	O13	0.875500	0.481500	0.011700
H91	H9	0.900200	0.467100	0.062600
H101	H10	0.890600	0.474600	0.990900
O141	O14	0.749100	0.528700	0.890200
H111	H11	0.711600	0.537100	0.851600
H121	H12	0.754400	0.477200	0.906000
O151	O15	0.746500	0.660500	0.980200
H131	H13	0.752800	0.706000	0.006200
H141	H14	0.739500	0.619200	0.997600
O161	O16	0.865900	0.733500	0.103400
H151	H15	0.845600	0.778200	0.076600
H161	H16	0.900500	0.740500	0.121000
C11	C1	0.838000	0.460500	0.347100
C21	C2	0.814700	0.444400	0.261700
C31	C3	0.774700	0.381800	0.208200
H171	H17	0.759400	0.345500	0.223400
C41	C4	0.757200	0.372600	0.132400
H181	H18	0.727400	0.334300	0.092900
C51	C5	0.787200	0.424800	0.117100
H191	H19	0.780600	0.416000	0.069600
C61	C6	0.825900	0.488300	0.172600
C71	C7	0.849400	0.553600	0.153400
C81	C8	0.737700	0.699100	0.146800
C91	C9	0.673800	0.678100	0.093200
C101	C10	0.655600	0.601200	0.105600
H201	H20	0.683500	0.562500	0.147000
C111	C11	0.594400	0.587000	0.053200
H211	H21	0.580900	0.536200	0.057500
C121	C12	0.552800	0.647500	0.994400
H221	H22	0.511800	0.639700	0.960800
C131	C13	0.576500	0.721100	0.988600
C141	C14	0.535700	0.792500	0.929100
Nd31	Nd3	0.390010	0.136190	0.325910
Nd41	Nd4	0.330780	0.127950	0.985480
N31	N3	0.338100	0.997400	0.241800
N41	N4	0.134000	0.234200	0.035800
O171	O17	0.366900	0.030300	0.382800
O181	O18	0.328100	0.904100	0.375500
O191	O19	0.376200	0.115400	0.203400
O201	O20	0.340400	0.047500	0.088800
O211	O21	0.249000	0.268700	0.129100
O221	O22	0.277200	0.153100	0.204100
O231	O23	0.060000	0.355800	0.930300
O241	O24	0.981000	0.284800	0.888000
O251	O25	0.341200	0.204200	0.368500
H231	H23	0.356900	0.250600	0.371300
H241	H24	0.303400	0.211400	0.333400
O261	O26	0.467800	0.132600	0.487100
H251	H25	0.464300	0.174700	0.508000
H261	H26	0.467300	0.085900	0.506300
O271	O27	0.472400	0.022400	0.376700
H271	H27	0.473900	0.986500	0.349200
H281	H28	0.494200	0.064700	0.387200
O281	O28	0.367500	0.281000	0.263600
H291	H29	0.330800	0.295000	0.232500
H301	H30	0.386200	0.302300	0.311300
O291	O29	0.375500	0.981500	0.011700
H311	H31	0.400200	0.967100	0.062600
H321	H32	0.390600	0.974600	0.990900
O301	O30	0.249100	0.028700	0.890200
H331	H33	0.211600	0.037100	0.851600
H341	H34	0.254400	0.977200	0.906000
O311	O31	0.246500	0.160500	0.980200
H351	H35	0.252800	0.206000	0.006200
H361	H36	0.239500	0.119200	0.997600
O321	O32	0.365900	0.233500	0.103400
H371	H37	0.345600	0.278200	0.076600
H381	H38	0.400500	0.240500	0.121000
C151	C15	0.338000	0.960500	0.347100
C161	C16	0.314700	0.944400	0.261700
C171	C17	0.274700	0.881800	0.208200
H391	H39	0.259400	0.845500	0.223400
C181	C18	0.257200	0.872600	0.132400
H401	H40	0.227400	0.834300	0.092900
C191	C19	0.287200	0.924800	0.117100
H411	H41	0.280600	0.916000	0.069600
C201	C20	0.325900	0.988300	0.172600
C211	C21	0.349400	0.053600	0.153400
C221	C22	0.237700	0.199100	0.146800
C231	C23	0.173800	0.178100	0.093200
C241	C24	0.155600	0.101200	0.105600
H421	H42	0.183500	0.062500	0.147000
C251	C25	0.094400	0.087000	0.053200
H431	H43	0.080900	0.036200	0.057500
C261	C26	0.052800	0.147500	0.994400
H441	H44	0.011800	0.139700	0.960800
C271	C27	0.076500	0.221100	0.988600
C281	C28	0.035700	0.292500	0.929100
Nd51	Nd5	0.109990	0.636190	0.174090
Nd61	Nd6	0.169220	0.627950	0.514520
N51	N5	0.161900	0.497400	0.258200
N61	N6	0.366000	0.734200	0.464200
O331	O33	0.133100	0.530300	0.117200
O341	O34	0.171900	0.404100	0.124500
O351	O35	0.123800	0.615400	0.296600
O361	O36	0.159600	0.547500	0.411200
O371	O37	0.251000	0.768700	0.370900
O381	O38	0.222800	0.653100	0.295900
O391	O39	0.440000	0.855800	0.569700
O401	O40	0.519000	0.784800	0.612000
O411	O41	0.158800	0.704200	0.131500
H451	H45	0.143100	0.750600	0.128700
H461	H46	0.196600	0.711400	0.166600
O421	O42	0.032200	0.632600	0.012900
H471	H47	0.035700	0.674700	0.992000
H481	H48	0.032700	0.585900	0.993700
O431	O43	0.027600	0.522400	0.123300
H491	H49	0.026100	0.486500	0.150800
H501	H50	0.005800	0.564700	0.112800
O441	O44	0.132500	0.781000	0.236400
H511	H51	0.169200	0.795000	0.267500
H521	H52	0.113800	0.802300	0.188700
O451	O45	0.124500	0.481500	0.488300
H531	H53	0.099800	0.467100	0.437400
H541	H54	0.109400	0.474600	0.509100
O461	O46	0.250900	0.528700	0.609800
H551	H55	0.288400	0.537100	0.648400
H561	H56	0.245600	0.477200	0.594000
O471	O47	0.253500	0.660500	0.519800
H571	H57	0.247200	0.706000	0.493800
H581	H58	0.260500	0.619200	0.502400
O481	O48	0.134100	0.733500	0.396600
H591	H59	0.154400	0.778200	0.423400
H601	H60	0.099500	0.740500	0.379000
C291	C29	0.162000	0.460500	0.152900
C301	C30	0.185300	0.444400	0.238300
C311	C31	0.225300	0.381800	0.291800
H611	H61	0.240600	0.345500	0.276600
C321	C32	0.242800	0.372600	0.367600
H621	H62	0.272600	0.334300	0.407100
C331	C33	0.212800	0.424800	0.382900
H631	H63	0.219400	0.416000	0.430400
C341	C34	0.174100	0.488300	0.327400
C351	C35	0.150600	0.553600	0.346600
C361	C36	0.262300	0.699100	0.353200
C371	C37	0.326200	0.678100	0.406800
C381	C38	0.344400	0.601200	0.394400
H641	H64	0.316500	0.562500	0.353000
C391	C39	0.405600	0.587000	0.446800
H651	H65	0.419100	0.536200	0.442500
C401	C40	0.447200	0.647500	0.505600
H661	H66	0.488200	0.639700	0.539200
C411	C41	0.423500	0.721100	0.511400
C421	C42	0.464300	0.792500	0.570900
Nd71	Nd7	0.609990	0.136190	0.174090
Nd81	Nd8	0.669220	0.127950	0.514520
N71	N7	0.661900	0.997400	0.258200
N81	N8	0.866000	0.234200	0.464200
O491	O49	0.633100	0.030300	0.117200
O501	O50	0.671900	0.904100	0.124500
O511	O51	0.623800	0.115400	0.296600
O521	O52	0.659600	0.047500	0.411200
O531	O53	0.751000	0.268700	0.370900
O541	O54	0.722800	0.153100	0.295900
O551	O55	0.940000	0.355800	0.569700
O561	O56	0.019000	0.284800	0.612000
O571	O57	0.658800	0.204200	0.131500
H671	H67	0.643100	0.250600	0.128700
H681	H68	0.696600	0.211400	0.166600
O581	O58	0.532200	0.132600	0.012900
H691	H69	0.535700	0.174700	0.992000
H701	H70	0.532700	0.085900	0.993700
O591	O59	0.527600	0.022400	0.123300
H711	H71	0.526100	0.986500	0.150800
H721	H72	0.505800	0.064700	0.112800
O601	O60	0.632500	0.281000	0.236400
H731	H73	0.669200	0.295000	0.267500
H741	H74	0.613800	0.302300	0.188700
O611	O61	0.624500	0.981500	0.488300
H751	H75	0.599800	0.967100	0.437400
H761	H76	0.609400	0.974600	0.509100
O621	O62	0.750900	0.028700	0.609800
H771	H77	0.788400	0.037100	0.648400
H781	H78	0.745600	0.977200	0.594000
O631	O63	0.753500	0.160500	0.519800
H791	H79	0.747200	0.206000	0.493800
H801	H80	0.760500	0.119200	0.502400
O641	O64	0.634100	0.233500	0.396600
H811	H81	0.654400	0.278200	0.423400
H821	H82	0.599500	0.240500	0.379000
C431	C43	0.662000	0.960500	0.152900
C441	C44	0.685300	0.944400	0.238300
C451	C45	0.725300	0.881800	0.291800
H831	H83	0.740600	0.845500	0.276600
C461	C46	0.742800	0.872600	0.367600
H841	H84	0.772600	0.834300	0.407100
C471	C47	0.712800	0.924800	0.382900
H851	H85	0.719400	0.916000	0.430400
C481	C48	0.674100	0.988300	0.327400
C491	C49	0.650600	0.053600	0.346600
C501	C50	0.762300	0.199100	0.353200
C511	C51	0.826200	0.178100	0.406800
C521	C52	0.844400	0.101200	0.394400
H861	H86	0.816500	0.062500	0.353000
C531	C53	0.905600	0.087000	0.446800
H871	H87	0.919100	0.036200	0.442500
C541	C54	0.947200	0.147500	0.505600
H881	H88	0.988200	0.139700	0.539200
C551	C55	0.923500	0.221100	0.511400
C561	C56	0.964300	0.292500	0.570900
Nd91	Nd9	0.109990	0.363810	0.674090
Nd101	Nd10	0.169220	0.372050	0.014520
N91	N9	0.161900	0.502600	0.758200
N101	N10	0.366000	0.265800	0.964200
O651	O65	0.133100	0.469700	0.617200
O661	O66	0.171900	0.595900	0.624500
O671	O67	0.123800	0.384600	0.796600
O681	O68	0.159600	0.452500	0.911200
O691	O69	0.251000	0.231300	0.870900
O701	O70	0.222800	0.346900	0.795900
O711	O71	0.440000	0.144200	0.069700
O721	O72	0.519000	0.215200	0.112000
O731	O73	0.158800	0.295800	0.631500
H891	H89	0.143100	0.249400	0.628700
H901	H90	0.196600	0.288600	0.666600
O741	O74	0.032200	0.367400	0.512900
H911	H91	0.035700	0.325300	0.492000
H921	H92	0.032700	0.414100	0.493700
O751	O75	0.027600	0.477600	0.623300
H931	H93	0.026100	0.513500	0.650800
H941	H94	0.005800	0.435300	0.612800
O761	O76	0.132500	0.219000	0.736400
H951	H95	0.169200	0.205000	0.767500
H961	H96	0.113800	0.197700	0.688700
O771	O77	0.124500	0.518500	0.988300
H971	H97	0.099800	0.532900	0.937400
H981	H98	0.109400	0.525400	0.009100
O781	O78	0.250900	0.471300	0.109800
H991	H99	0.288400	0.462900	0.148400
H1001	H100	0.245600	0.522800	0.094000
O791	O79	0.253500	0.339500	0.019800
H1011	H101	0.247200	0.294000	0.993800
H1021	H102	0.260500	0.380800	0.002400
O801	O80	0.134100	0.266500	0.896600
H1031	H103	0.154400	0.221800	0.923400
H1041	H104	0.099500	0.259500	0.879000
C571	C57	0.162000	0.539500	0.652900
C581	C58	0.185300	0.555600	0.738300
C591	C59	0.225300	0.618200	0.791800
H1051	H105	0.240600	0.654500	0.776600
C601	C60	0.242800	0.627400	0.867600
H1061	H106	0.272600	0.665700	0.907100
C611	C61	0.212800	0.575200	0.882900
H1071	H107	0.219400	0.584000	0.930400
C621	C62	0.174100	0.511700	0.827400
C631	C63	0.150600	0.446400	0.846600
C641	C64	0.262300	0.300900	0.853200
C651	C65	0.326200	0.321900	0.906800
C661	C66	0.344400	0.398800	0.894400
H1081	H108	0.316500	0.437500	0.853000
C671	C67	0.405600	0.413000	0.946800
H1091	H109	0.419100	0.463800	0.942500
C681	C68	0.447200	0.352500	0.005600
H1101	H110	0.488200	0.360300	0.039200
C691	C69	0.423500	0.278900	0.011400
C701	C70	0.464300	0.207500	0.070900
Nd111	Nd11	0.609990	0.863810	0.674090
Nd121	Nd12	0.669220	0.872050	0.014520
N111	N11	0.661900	0.002600	0.758200
N121	N12	0.866000	0.765800	0.964200
O811	O81	0.633100	0.969700	0.617200
O821	O82	0.671900	0.095900	0.624500
O831	O83	0.623800	0.884600	0.796600
O841	O84	0.659600	0.952500	0.911200
O851	O85	0.751000	0.731300	0.870900
O861	O86	0.722800	0.846900	0.795900
O871	O87	0.940000	0.644200	0.069700
O881	O88	0.019000	0.715200	0.112000
O891	O89	0.658800	0.795800	0.631500
H1111	H111	0.643100	0.749400	0.628700
H1121	H112	0.696600	0.788600	0.666600
O901	O90	0.532200	0.867400	0.512900
H1131	H113	0.535700	0.825300	0.492000
H1141	H114	0.532700	0.914100	0.493700
O911	O91	0.527600	0.977600	0.623300
H1151	H115	0.526100	0.013500	0.650800
H1161	H116	0.505800	0.935300	0.612800
O921	O92	0.632500	0.719000	0.736400
H1171	H117	0.669200	0.705000	0.767500
H1181	H118	0.613800	0.697700	0.688700
O931	O93	0.624500	0.018500	0.988300
H1191	H119	0.599800	0.032900	0.937400
H1201	H120	0.609400	0.025400	0.009100
O941	O94	0.750900	0.971300	0.109800
H1211	H121	0.788400	0.962900	0.148400
H1221	H122	0.745600	0.022800	0.094000
O951	O95	0.753500	0.839500	0.019800
H1231	H123	0.747200	0.794000	0.993800
H1241	H124	0.760500	0.880800	0.002400
O961	O96	0.634100	0.766500	0.896600
H1251	H125	0.654400	0.721800	0.923400
H1261	H126	0.599500	0.759500	0.879000
C711	C71	0.662000	0.039500	0.652900
C721	C72	0.685300	0.055600	0.738300
C731	C73	0.725300	0.118200	0.791800
H1271	H127	0.740600	0.154500	0.776600
C741	C74	0.742800	0.127400	0.867600
H1281	H128	0.772600	0.165700	0.907100
C751	C75	0.712800	0.075200	0.882900
H1291	H129	0.719400	0.084000	0.930400
C761	C76	0.674100	0.011700	0.827400
C771	C77	0.650600	0.946400	0.846600
C781	C78	0.762300	0.800900	0.853200
C791	C79	0.826200	0.821900	0.906800
C801	C80	0.844400	0.898800	0.894400
H1301	H130	0.816500	0.937500	0.853000
C811	C81	0.905600	0.913000	0.946800
H1311	H131	0.919100	0.963800	0.942500
C821	C82	0.947200	0.852500	0.005600
H1321	H132	0.988200	0.860300	0.039200
C831	C83	0.923500	0.778900	0.011400
C841	C84	0.964300	0.707500	0.070900
Nd131	Nd13	0.890010	0.363810	0.825910
Nd141	Nd14	0.830780	0.372050	0.485480
N131	N13	0.838100	0.502600	0.741800
N141	N14	0.634000	0.265800	0.535800
O971	O97	0.866900	0.469700	0.882800
O981	O98	0.828100	0.595900	0.875500
O991	O99	0.876200	0.384600	0.703400
O1001	O100	0.840400	0.452500	0.588800
O1011	O101	0.749000	0.231300	0.629100
O1021	O102	0.777200	0.346900	0.704100
O1031	O103	0.560000	0.144200	0.430300
O1041	O104	0.481000	0.215200	0.388000
O1051	O105	0.841200	0.295800	0.868500
H1331	H133	0.856900	0.249400	0.871300
H1341	H134	0.803400	0.288600	0.833400
O1061	O106	0.967800	0.367400	0.987100
H1351	H135	0.964300	0.325300	0.008000
H1361	H136	0.967300	0.414100	0.006300
O1071	O107	0.972400	0.477600	0.876700
H1371	H137	0.973900	0.513500	0.849200
H1381	H138	0.994200	0.435300	0.887200
O1081	O108	0.867500	0.219000	0.763600
H1391	H139	0.830800	0.205000	0.732500
H1401	H140	0.886200	0.197700	0.811300
O1091	O109	0.875500	0.518500	0.511700
H1411	H141	0.900200	0.532900	0.562600
H1421	H142	0.890600	0.525400	0.490900
O1101	O110	0.749100	0.471300	0.390200
H1431	H143	0.711600	0.462900	0.351600
H1441	H144	0.754400	0.522800	0.406000
O1111	O111	0.746500	0.339500	0.480200
H1451	H145	0.752800	0.294000	0.506200
H1461	H146	0.739500	0.380800	0.497600
O1121	O112	0.865900	0.266500	0.603400
H1471	H147	0.845600	0.221800	0.576600
H1481	H148	0.900500	0.259500	0.621000
C851	C85	0.838000	0.539500	0.847100
C861	C86	0.814700	0.555600	0.761700
C871	C87	0.774700	0.618200	0.708200
H1491	H149	0.759400	0.654500	0.723400
C881	C88	0.757200	0.627400	0.632400
H1501	H150	0.727400	0.665700	0.592900
C891	C89	0.787200	0.575200	0.617100
H1511	H151	0.780600	0.584000	0.569600
C901	C90	0.825900	0.511700	0.672600
C911	C91	0.849400	0.446400	0.653400
C921	C92	0.737700	0.300900	0.646800
C931	C93	0.673800	0.321900	0.593200
C941	C94	0.655600	0.398800	0.605600
H1521	H152	0.683500	0.437500	0.647000
C951	C95	0.594400	0.413000	0.553200
H1531	H153	0.580900	0.463800	0.557500
C961	C96	0.552800	0.352500	0.494400
H1541	H154	0.511800	0.360300	0.460800
C971	C97	0.576500	0.278900	0.488600
C981	C98	0.535700	0.207500	0.429100
Nd151	Nd15	0.390010	0.863810	0.825910
Nd161	Nd16	0.330780	0.872050	0.485480
N151	N15	0.338100	0.002600	0.741800
N161	N16	0.134000	0.765800	0.535800
O1131	O113	0.366900	0.969700	0.882800
O1141	O114	0.328100	0.095900	0.875500
O1151	O115	0.376200	0.884600	0.703400
O1161	O116	0.340400	0.952500	0.588800
O1171	O117	0.249000	0.731300	0.629100
O1181	O118	0.277200	0.846900	0.704100
O1191	O119	0.060000	0.644200	0.430300
O1201	O120	0.981000	0.715200	0.388000
O1211	O121	0.341200	0.795800	0.868500
H1551	H155	0.356900	0.749400	0.871300
H1561	H156	0.303400	0.788600	0.833400
O1221	O122	0.467800	0.867400	0.987100
H1571	H157	0.464300	0.825300	0.008000
H1581	H158	0.467300	0.914100	0.006300
O1231	O123	0.472400	0.977600	0.876700
H1591	H159	0.473900	0.013500	0.849200
H1601	H160	0.494200	0.935300	0.887200
O1241	O124	0.367500	0.719000	0.763600
H1611	H161	0.330800	0.705000	0.732500
H1621	H162	0.386200	0.697700	0.811300
O1251	O125	0.375500	0.018500	0.511700
H1631	H163	0.400200	0.032900	0.562600
H1641	H164	0.390600	0.025400	0.490900
O1261	O126	0.249100	0.971300	0.390200
H1651	H165	0.211600	0.962900	0.351600
H1661	H166	0.254400	0.022800	0.406000
O1271	O127	0.246500	0.839500	0.480200
H1671	H167	0.252800	0.794000	0.506200
H1681	H168	0.239500	0.880800	0.497600
O1281	O128	0.365900	0.766500	0.603400
H1691	H169	0.345600	0.721800	0.576600
H1701	H170	0.400500	0.759500	0.621000
C991	C99	0.338000	0.039500	0.847100
C1001	C100	0.314700	0.055600	0.761700
C1011	C101	0.274700	0.118200	0.708200
H1711	H171	0.259400	0.154500	0.723400
C1021	C102	0.257200	0.127400	0.632400
H1721	H172	0.227400	0.165700	0.592900
C1031	C103	0.287200	0.075200	0.617100
H1731	H173	0.280600	0.084000	0.569600
C1041	C104	0.325900	0.011700	0.672600
C1051	C105	0.349400	0.946400	0.653400
C1061	C106	0.237700	0.800900	0.646800
C1071	C107	0.173800	0.821900	0.593200
C1081	C108	0.155600	0.898800	0.605600
H1741	H174	0.183500	0.937500	0.647000
C1091	C109	0.094400	0.913000	0.553200
H1751	H175	0.080900	0.963800	0.557500
C1101	C110	0.052800	0.852500	0.494400
H1761	H176	0.011800	0.860300	0.460800
C1111	C111	0.076500	0.778900	0.488600
C1121	C112	0.035700	0.707500	0.429100
