data_FORPOS_freeONLY_PM
_symmetry_space_group_name_H-M	'P1'
_cell_length_a	30.753000
_cell_length_b	15.728500
_cell_length_c	22.119000
_cell_angle_alpha	90.000000
_cell_angle_beta	133.118000
_cell_angle_gamma	90.000000
_symmetry_Int_Tables_number 1

loop_
_symmetry_equiv_pos_as_xyz
'x,y,z'

loop_
_atom_site_label
_atom_site_type_symbol
_atom_site_fract_x
_atom_site_fract_y
_atom_site_fract_z
Ce11	Ce1	0.890050	0.636920	0.327430
Ce21	Ce2	0.830610	0.628470	0.985770
N11	N1	0.838600	0.496400	0.242700
N21	N2	0.633400	0.731400	0.035400
O11	O1	0.865500	0.527200	0.381500
O21	O2	0.826100	0.402600	0.373900
O31	O3	0.875800	0.615400	0.203300
O41	O4	0.840500	0.546800	0.090400
O51	O5	0.747600	0.766200	0.127400
O61	O6	0.777000	0.650800	0.205800
O71	O7	0.559400	0.853700	0.931100
O81	O8	0.481000	0.782000	0.887800
O91	O9	0.839200	0.704600	0.370000
H11	H1	0.839700	0.758300	0.366100
H21	H2	0.803400	0.688500	0.341000
O101	O10	0.968300	0.632000	0.489500
H31	H3	0.967600	0.675700	0.511400
H41	H4	0.965900	0.586900	0.508200
O111	O11	0.973400	0.522500	0.377700
H51	H5	0.958800	0.482200	0.342900
H61	H6	0.001700	0.545500	0.385000
O121	O12	0.865200	0.781900	0.261200
H71	H7	0.827800	0.790600	0.225100
H81	H8	0.882100	0.821100	0.297400
O131	O13	0.877500	0.483300	0.014000
H91	H9	0.865200	0.458600	0.970500
H101	H10	0.874600	0.450600	0.041700
O141	O14	0.747800	0.529000	0.888500
H111	H11	0.722000	0.530000	0.892100
H121	H12	0.759800	0.478500	0.894200
O151	O15	0.745000	0.660600	0.978600
H131	H13	0.751000	0.705600	0.004700
H141	H14	0.738000	0.619100	0.995600
O161	O16	0.866100	0.733600	0.105400
H151	H15	0.842100	0.775100	0.086500
H161	H16	0.900900	0.752500	0.131400
C11	C1	0.838600	0.460000	0.346300
C21	C2	0.815000	0.442800	0.261800
C31	C3	0.775600	0.382000	0.208300
H171	H17	0.760300	0.345800	0.223300
C41	C4	0.757300	0.372700	0.131200
H181	H18	0.727500	0.334700	0.091800
C51	C5	0.786200	0.423500	0.116500
H191	H19	0.778900	0.415300	0.068600
C61	C6	0.825900	0.486500	0.172200
C71	C7	0.848900	0.551900	0.153600
C81	C8	0.737500	0.698500	0.146700
C91	C9	0.674500	0.676300	0.095900
C101	C10	0.655800	0.600000	0.105800
H201	H20	0.683400	0.560300	0.145600
C111	C11	0.595800	0.586100	0.055200
H211	H21	0.582800	0.536000	0.060800
C121	C12	0.553300	0.646100	0.994800
H221	H22	0.512500	0.637600	0.960700
C131	C13	0.576600	0.719100	0.989700
C141	C14	0.535200	0.789800	0.930700
Ce31	Ce3	0.390050	0.136920	0.327430
Ce41	Ce4	0.330610	0.128470	0.985770
N31	N3	0.338600	0.996400	0.242700
N41	N4	0.133400	0.231400	0.035400
O171	O17	0.365500	0.027200	0.381500
O181	O18	0.326100	0.902600	0.373900
O191	O19	0.375800	0.115400	0.203300
O201	O20	0.340500	0.046800	0.090400
O211	O21	0.247600	0.266200	0.127400
O221	O22	0.277000	0.150800	0.205800
O231	O23	0.059400	0.353700	0.931100
O241	O24	0.981000	0.282000	0.887800
O251	O25	0.339200	0.204600	0.370000
H231	H23	0.339700	0.258300	0.366100
H241	H24	0.303400	0.188500	0.341000
O261	O26	0.468300	0.132000	0.489500
H251	H25	0.467600	0.175700	0.511400
H261	H26	0.465900	0.086900	0.508200
O271	O27	0.473400	0.022500	0.377700
H271	H27	0.458800	0.982200	0.342900
H281	H28	0.501700	0.045500	0.385000
O281	O28	0.365200	0.281900	0.261200
H291	H29	0.327800	0.290600	0.225100
H301	H30	0.382100	0.321100	0.297400
O291	O29	0.377500	0.983300	0.014000
H311	H31	0.365200	0.958600	0.970500
H321	H32	0.374600	0.950600	0.041700
O301	O30	0.247800	0.029000	0.888500
H331	H33	0.222000	0.030000	0.892100
H341	H34	0.259800	0.978500	0.894200
O311	O31	0.245000	0.160600	0.978600
H351	H35	0.251000	0.205600	0.004700
H361	H36	0.238000	0.119100	0.995600
O321	O32	0.366100	0.233600	0.105400
H371	H37	0.342100	0.275100	0.086500
H381	H38	0.400900	0.252500	0.131400
C151	C15	0.338600	0.960000	0.346300
C161	C16	0.315000	0.942800	0.261800
C171	C17	0.275600	0.882000	0.208300
H391	H39	0.260300	0.845800	0.223300
C181	C18	0.257300	0.872700	0.131200
H401	H40	0.227500	0.834700	0.091800
C191	C19	0.286200	0.923500	0.116500
H411	H41	0.278900	0.915300	0.068600
C201	C20	0.325900	0.986500	0.172200
C211	C21	0.348900	0.051900	0.153600
C221	C22	0.237500	0.198500	0.146700
C231	C23	0.174500	0.176300	0.095900
C241	C24	0.155800	0.100000	0.105800
H421	H42	0.183400	0.060300	0.145600
C251	C25	0.095800	0.086100	0.055200
H431	H43	0.082800	0.036000	0.060800
C261	C26	0.053300	0.146100	0.994800
H441	H44	0.012500	0.137600	0.960700
C271	C27	0.076600	0.219100	0.989700
C281	C28	0.035200	0.289800	0.930700
Ce51	Ce5	0.109950	0.636920	0.172570
Ce61	Ce6	0.169390	0.628470	0.514230
N51	N5	0.161400	0.496400	0.257300
N61	N6	0.366600	0.731400	0.464600
O331	O33	0.134500	0.527200	0.118500
O341	O34	0.173900	0.402600	0.126100
O351	O35	0.124200	0.615400	0.296700
O361	O36	0.159500	0.546800	0.409600
O371	O37	0.252400	0.766200	0.372600
O381	O38	0.223000	0.650800	0.294200
O391	O39	0.440600	0.853700	0.568900
O401	O40	0.519000	0.782000	0.612200
O411	O41	0.160800	0.704600	0.130000
H451	H45	0.160300	0.758300	0.133900
H461	H46	0.196600	0.688500	0.159000
O421	O42	0.031700	0.632000	0.010500
H471	H47	0.032400	0.675700	0.988600
H481	H48	0.034100	0.586900	0.991800
O431	O43	0.026600	0.522500	0.122300
H491	H49	0.041200	0.482200	0.157100
H501	H50	0.998300	0.545500	0.115000
O441	O44	0.134800	0.781900	0.238800
H511	H51	0.172200	0.790600	0.274900
H521	H52	0.117900	0.821100	0.202600
O451	O45	0.122500	0.483300	0.486000
H531	H53	0.134800	0.458600	0.529500
H541	H54	0.125400	0.450600	0.458300
O461	O46	0.252200	0.529000	0.611500
H551	H55	0.278000	0.530000	0.607900
H561	H56	0.240200	0.478500	0.605800
O471	O47	0.255000	0.660600	0.521400
H571	H57	0.249000	0.705600	0.495300
H581	H58	0.262000	0.619100	0.504400
O481	O48	0.133900	0.733600	0.394600
H591	H59	0.157900	0.775100	0.413500
H601	H60	0.099100	0.752500	0.368600
C291	C29	0.161400	0.460000	0.153700
C301	C30	0.185000	0.442800	0.238200
C311	C31	0.224400	0.382000	0.291700
H611	H61	0.239700	0.345800	0.276700
C321	C32	0.242700	0.372700	0.368800
H621	H62	0.272500	0.334700	0.408200
C331	C33	0.213800	0.423500	0.383500
H631	H63	0.221100	0.415300	0.431400
C341	C34	0.174100	0.486500	0.327800
C351	C35	0.151100	0.551900	0.346400
C361	C36	0.262500	0.698500	0.353300
C371	C37	0.325500	0.676300	0.404100
C381	C38	0.344200	0.600000	0.394200
H641	H64	0.316600	0.560300	0.354400
C391	C39	0.404200	0.586100	0.444800
H651	H65	0.417200	0.536000	0.439200
C401	C40	0.446700	0.646100	0.505200
H661	H66	0.487500	0.637600	0.539300
C411	C41	0.423400	0.719100	0.510300
C421	C42	0.464800	0.789800	0.569300
Ce71	Ce7	0.609950	0.136920	0.172570
Ce81	Ce8	0.669390	0.128470	0.514230
N71	N7	0.661400	0.996400	0.257300
N81	N8	0.866600	0.231400	0.464600
O491	O49	0.634500	0.027200	0.118500
O501	O50	0.673900	0.902600	0.126100
O511	O51	0.624200	0.115400	0.296700
O521	O52	0.659500	0.046800	0.409600
O531	O53	0.752400	0.266200	0.372600
O541	O54	0.723000	0.150800	0.294200
O551	O55	0.940600	0.353700	0.568900
O561	O56	0.019000	0.282000	0.612200
O571	O57	0.660800	0.204600	0.130000
H671	H67	0.660300	0.258300	0.133900
H681	H68	0.696600	0.188500	0.159000
O581	O58	0.531700	0.132000	0.010500
H691	H69	0.532400	0.175700	0.988600
H701	H70	0.534100	0.086900	0.991800
O591	O59	0.526600	0.022500	0.122300
H711	H71	0.541200	0.982200	0.157100
H721	H72	0.498300	0.045500	0.115000
O601	O60	0.634800	0.281900	0.238800
H731	H73	0.672200	0.290600	0.274900
H741	H74	0.617900	0.321100	0.202600
O611	O61	0.622500	0.983300	0.486000
H751	H75	0.634800	0.958600	0.529500
H761	H76	0.625400	0.950600	0.458300
O621	O62	0.752200	0.029000	0.611500
H771	H77	0.778000	0.030000	0.607900
H781	H78	0.740200	0.978500	0.605800
O631	O63	0.755000	0.160600	0.521400
H791	H79	0.749000	0.205600	0.495300
H801	H80	0.762000	0.119100	0.504400
O641	O64	0.633900	0.233600	0.394600
H811	H81	0.657900	0.275100	0.413500
H821	H82	0.599100	0.252500	0.368600
C431	C43	0.661400	0.960000	0.153700
C441	C44	0.685000	0.942800	0.238200
C451	C45	0.724400	0.882000	0.291700
H831	H83	0.739700	0.845800	0.276700
C461	C46	0.742700	0.872700	0.368800
H841	H84	0.772500	0.834700	0.408200
C471	C47	0.713800	0.923500	0.383500
H851	H85	0.721100	0.915300	0.431400
C481	C48	0.674100	0.986500	0.327800
C491	C49	0.651100	0.051900	0.346400
C501	C50	0.762500	0.198500	0.353300
C511	C51	0.825500	0.176300	0.404100
C521	C52	0.844200	0.100000	0.394200
H861	H86	0.816600	0.060300	0.354400
C531	C53	0.904200	0.086100	0.444800
H871	H87	0.917200	0.036000	0.439200
C541	C54	0.946700	0.146100	0.505200
H881	H88	0.987500	0.137600	0.539300
C551	C55	0.923400	0.219100	0.510300
C561	C56	0.964800	0.289800	0.569300
Ce91	Ce9	0.109950	0.363080	0.672570
Ce101	Ce10	0.169390	0.371530	0.014230
N91	N9	0.161400	0.503600	0.757300
N101	N10	0.366600	0.268600	0.964600
O651	O65	0.134500	0.472800	0.618500
O661	O66	0.173900	0.597400	0.626100
O671	O67	0.124200	0.384600	0.796700
O681	O68	0.159500	0.453200	0.909600
O691	O69	0.252400	0.233800	0.872600
O701	O70	0.223000	0.349200	0.794200
O711	O71	0.440600	0.146300	0.068900
O721	O72	0.519000	0.218000	0.112200
O731	O73	0.160800	0.295400	0.630000
H891	H89	0.160300	0.241700	0.633900
H901	H90	0.196600	0.311500	0.659000
O741	O74	0.031700	0.368000	0.510500
H911	H91	0.032400	0.324300	0.488600
H921	H92	0.034100	0.413100	0.491800
O751	O75	0.026600	0.477500	0.622300
H931	H93	0.041200	0.517800	0.657100
H941	H94	0.998300	0.454500	0.615000
O761	O76	0.134800	0.218100	0.738800
H951	H95	0.172200	0.209400	0.774900
H961	H96	0.117900	0.178900	0.702600
O771	O77	0.122500	0.516700	0.986000
H971	H97	0.134800	0.541400	0.029500
H981	H98	0.125400	0.549400	0.958300
O781	O78	0.252200	0.471000	0.111500
H991	H99	0.278000	0.470000	0.107900
H1001	H100	0.240200	0.521500	0.105800
O791	O79	0.255000	0.339400	0.021400
H1011	H101	0.249000	0.294400	0.995300
H1021	H102	0.262000	0.380900	0.004400
O801	O80	0.133900	0.266400	0.894600
H1031	H103	0.157900	0.224900	0.913500
H1041	H104	0.099100	0.247500	0.868600
C571	C57	0.161400	0.540000	0.653700
C581	C58	0.185000	0.557200	0.738200
C591	C59	0.224400	0.618000	0.791700
H1051	H105	0.239700	0.654200	0.776700
C601	C60	0.242700	0.627300	0.868800
H1061	H106	0.272500	0.665300	0.908200
C611	C61	0.213800	0.576500	0.883500
H1071	H107	0.221100	0.584700	0.931400
C621	C62	0.174100	0.513500	0.827800
C631	C63	0.151100	0.448100	0.846400
C641	C64	0.262500	0.301500	0.853300
C651	C65	0.325500	0.323700	0.904100
C661	C66	0.344200	0.400000	0.894200
H1081	H108	0.316600	0.439700	0.854400
C671	C67	0.404200	0.413900	0.944800
H1091	H109	0.417200	0.464000	0.939200
C681	C68	0.446700	0.353900	0.005200
H1101	H110	0.487500	0.362400	0.039300
C691	C69	0.423400	0.280900	0.010300
C701	C70	0.464800	0.210200	0.069300
Ce111	Ce11	0.609950	0.863080	0.672570
Ce121	Ce12	0.669390	0.871530	0.014230
N111	N11	0.661400	0.003600	0.757300
N121	N12	0.866600	0.768600	0.964600
O811	O81	0.634500	0.972800	0.618500
O821	O82	0.673900	0.097400	0.626100
O831	O83	0.624200	0.884600	0.796700
O841	O84	0.659500	0.953200	0.909600
O851	O85	0.752400	0.733800	0.872600
O861	O86	0.723000	0.849200	0.794200
O871	O87	0.940600	0.646300	0.068900
O881	O88	0.019000	0.718000	0.112200
O891	O89	0.660800	0.795400	0.630000
H1111	H111	0.660300	0.741700	0.633900
H1121	H112	0.696600	0.811500	0.659000
O901	O90	0.531700	0.868000	0.510500
H1131	H113	0.532400	0.824300	0.488600
H1141	H114	0.534100	0.913100	0.491800
O911	O91	0.526600	0.977500	0.622300
H1151	H115	0.541200	0.017800	0.657100
H1161	H116	0.498300	0.954500	0.615000
O921	O92	0.634800	0.718100	0.738800
H1171	H117	0.672200	0.709400	0.774900
H1181	H118	0.617900	0.678900	0.702600
O931	O93	0.622500	0.016700	0.986000
H1191	H119	0.634800	0.041400	0.029500
H1201	H120	0.625400	0.049400	0.958300
O941	O94	0.752200	0.971000	0.111500
H1211	H121	0.778000	0.970000	0.107900
H1221	H122	0.740200	0.021500	0.105800
O951	O95	0.755000	0.839400	0.021400
H1231	H123	0.749000	0.794400	0.995300
H1241	H124	0.762000	0.880900	0.004400
O961	O96	0.633900	0.766400	0.894600
H1251	H125	0.657900	0.724900	0.913500
H1261	H126	0.599100	0.747500	0.868600
C711	C71	0.661400	0.040000	0.653700
C721	C72	0.685000	0.057200	0.738200
C731	C73	0.724400	0.118000	0.791700
H1271	H127	0.739700	0.154200	0.776700
C741	C74	0.742700	0.127300	0.868800
H1281	H128	0.772500	0.165300	0.908200
C751	C75	0.713800	0.076500	0.883500
H1291	H129	0.721100	0.084700	0.931400
C761	C76	0.674100	0.013500	0.827800
C771	C77	0.651100	0.948100	0.846400
C781	C78	0.762500	0.801500	0.853300
C791	C79	0.825500	0.823700	0.904100
C801	C80	0.844200	0.900000	0.894200
H1301	H130	0.816600	0.939700	0.854400
C811	C81	0.904200	0.913900	0.944800
H1311	H131	0.917200	0.964000	0.939200
C821	C82	0.946700	0.853900	0.005200
H1321	H132	0.987500	0.862400	0.039300
C831	C83	0.923400	0.780900	0.010300
C841	C84	0.964800	0.710200	0.069300
Ce131	Ce13	0.890050	0.363080	0.827430
Ce141	Ce14	0.830610	0.371530	0.485770
N131	N13	0.838600	0.503600	0.742700
N141	N14	0.633400	0.268600	0.535400
O971	O97	0.865500	0.472800	0.881500
O981	O98	0.826100	0.597400	0.873900
O991	O99	0.875800	0.384600	0.703300
O1001	O100	0.840500	0.453200	0.590400
O1011	O101	0.747600	0.233800	0.627400
O1021	O102	0.777000	0.349200	0.705800
O1031	O103	0.559400	0.146300	0.431100
O1041	O104	0.481000	0.218000	0.387800
O1051	O105	0.839200	0.295400	0.870000
H1331	H133	0.839700	0.241700	0.866100
H1341	H134	0.803400	0.311500	0.841000
O1061	O106	0.968300	0.368000	0.989500
H1351	H135	0.967600	0.324300	0.011400
H1361	H136	0.965900	0.413100	0.008200
O1071	O107	0.973400	0.477500	0.877700
H1371	H137	0.958800	0.517800	0.842900
H1381	H138	0.001700	0.454500	0.885000
O1081	O108	0.865200	0.218100	0.761200
H1391	H139	0.827800	0.209400	0.725100
H1401	H140	0.882100	0.178900	0.797400
O1091	O109	0.877500	0.516700	0.514000
H1411	H141	0.865200	0.541400	0.470500
H1421	H142	0.874600	0.549400	0.541700
O1101	O110	0.747800	0.471000	0.388500
H1431	H143	0.722000	0.470000	0.392100
H1441	H144	0.759800	0.521500	0.394200
O1111	O111	0.745000	0.339400	0.478600
H1451	H145	0.751000	0.294400	0.504700
H1461	H146	0.738000	0.380900	0.495600
O1121	O112	0.866100	0.266400	0.605400
H1471	H147	0.842100	0.224900	0.586500
H1481	H148	0.900900	0.247500	0.631400
C851	C85	0.838600	0.540000	0.846300
C861	C86	0.815000	0.557200	0.761800
C871	C87	0.775600	0.618000	0.708300
H1491	H149	0.760300	0.654200	0.723300
C881	C88	0.757300	0.627300	0.631200
H1501	H150	0.727500	0.665300	0.591800
C891	C89	0.786200	0.576500	0.616500
H1511	H151	0.778900	0.584700	0.568600
C901	C90	0.825900	0.513500	0.672200
C911	C91	0.848900	0.448100	0.653600
C921	C92	0.737500	0.301500	0.646700
C931	C93	0.674500	0.323700	0.595900
C941	C94	0.655800	0.400000	0.605800
H1521	H152	0.683400	0.439700	0.645600
C951	C95	0.595800	0.413900	0.555200
H1531	H153	0.582800	0.464000	0.560800
C961	C96	0.553300	0.353900	0.494800
H1541	H154	0.512500	0.362400	0.460700
C971	C97	0.576600	0.280900	0.489700
C981	C98	0.535200	0.210200	0.430700
Ce151	Ce15	0.390050	0.863080	0.827430
Ce161	Ce16	0.330610	0.871530	0.485770
N151	N15	0.338600	0.003600	0.742700
N161	N16	0.133400	0.768600	0.535400
O1131	O113	0.365500	0.972800	0.881500
O1141	O114	0.326100	0.097400	0.873900
O1151	O115	0.375800	0.884600	0.703300
O1161	O116	0.340500	0.953200	0.590400
O1171	O117	0.247600	0.733800	0.627400
O1181	O118	0.277000	0.849200	0.705800
O1191	O119	0.059400	0.646300	0.431100
O1201	O120	0.981000	0.718000	0.387800
O1211	O121	0.339200	0.795400	0.870000
H1551	H155	0.339700	0.741700	0.866100
H1561	H156	0.303400	0.811500	0.841000
O1221	O122	0.468300	0.868000	0.989500
H1571	H157	0.467600	0.824300	0.011400
H1581	H158	0.465900	0.913100	0.008200
O1231	O123	0.473400	0.977500	0.877700
H1591	H159	0.458800	0.017800	0.842900
H1601	H160	0.501700	0.954500	0.885000
O1241	O124	0.365200	0.718100	0.761200
H1611	H161	0.327800	0.709400	0.725100
H1621	H162	0.382100	0.678900	0.797400
O1251	O125	0.377500	0.016700	0.514000
H1631	H163	0.365200	0.041400	0.470500
H1641	H164	0.374600	0.049400	0.541700
O1261	O126	0.247800	0.971000	0.388500
H1651	H165	0.222000	0.970000	0.392100
H1661	H166	0.259800	0.021500	0.394200
O1271	O127	0.245000	0.839400	0.478600
H1671	H167	0.251000	0.794400	0.504700
H1681	H168	0.238000	0.880900	0.495600
O1281	O128	0.366100	0.766400	0.605400
H1691	H169	0.342100	0.724900	0.586500
H1701	H170	0.400900	0.747500	0.631400
C991	C99	0.338600	0.040000	0.846300
C1001	C100	0.315000	0.057200	0.761800
C1011	C101	0.275600	0.118000	0.708300
H1711	H171	0.260300	0.154200	0.723300
C1021	C102	0.257300	0.127300	0.631200
H1721	H172	0.227500	0.165300	0.591800
C1031	C103	0.286200	0.076500	0.616500
H1731	H173	0.278900	0.084700	0.568600
C1041	C104	0.325900	0.013500	0.672200
C1051	C105	0.348900	0.948100	0.653600
C1061	C106	0.237500	0.801500	0.646700
C1071	C107	0.174500	0.823700	0.595900
C1081	C108	0.155800	0.900000	0.605800
H1741	H174	0.183400	0.939700	0.645600
C1091	C109	0.095800	0.913900	0.555200
H1751	H175	0.082800	0.964000	0.560800
C1101	C110	0.053300	0.853900	0.494800
H1761	H176	0.012500	0.862400	0.460700
C1111	C111	0.076600	0.780900	0.489700
C1121	C112	0.035200	0.710200	0.430700
