data_FORQAF_freeONLY_PM
_symmetry_space_group_name_H-M	'P1'
_cell_length_a	30.846000
_cell_length_b	15.773000
_cell_length_c	22.189000
_cell_angle_alpha	90.000000
_cell_angle_beta	133.134000
_cell_angle_gamma	90.000000
_symmetry_Int_Tables_number 1

loop_
_symmetry_equiv_pos_as_xyz
'x,y,z'

loop_
_atom_site_label
_atom_site_type_symbol
_atom_site_fract_x
_atom_site_fract_y
_atom_site_fract_z
La11	La1	0.627900	0.363640	0.892850
La21	La2	0.686600	0.628390	0.734050
La31	La3	0.847390	0.129420	0.205440
La41	La4	0.908240	0.137480	0.549180
N11	N1	0.680100	0.505000	0.976900
N21	N2	0.650400	0.768600	0.756100
N31	N3	0.883100	0.269100	0.182700
N41	N4	0.857800	0.997000	0.463200
O11	O1	0.650500	0.476000	0.837800
O21	O2	0.689300	0.596200	0.844600
O31	O3	0.644000	0.387500	0.020500
O41	O4	0.676100	0.456200	0.127800
O51	O5	0.764400	0.734300	0.847700
O61	O6	0.791500	0.848900	0.923700
O71	O7	0.577200	0.648500	0.651400
O81	O8	0.497700	0.718500	0.610500
O91	O9	0.770200	0.234600	0.092700
O101	O10	0.740100	0.349600	0.013000
O111	O11	0.957400	0.145300	0.288200
O121	O12	0.035500	0.219400	0.331700
O131	O13	0.896700	0.115000	0.427700
O141	O14	0.858300	0.045900	0.309200
O151	O15	0.883800	0.025700	0.602500
O161	O16	0.840800	0.901200	0.590000
O171	O17	0.543200	0.476000	0.844000
H11	H1	0.509800	0.451400	0.815800
H21	H2	0.540100	0.514500	0.814500
O181	O18	0.677200	0.290400	0.850200
H31	H3	0.704400	0.320900	0.860800
H41	H4	0.651900	0.278200	0.799100
O191	O19	0.652000	0.218300	0.956800
H51	H5	0.689200	0.209100	0.992400
H61	H6	0.634600	0.179300	0.920700
O201	O20	0.544500	0.373400	0.724300
H71	H7	0.547700	0.333300	0.701900
H81	H8	0.545000	0.421000	0.706700
O211	O21	0.633000	0.484500	0.699700
H91	H9	0.636800	0.469700	0.739900
H101	H10	0.649500	0.446800	0.693600
O221	O22	0.768800	0.522800	0.831000
H111	H11	0.795100	0.523300	0.828600
H121	H12	0.755800	0.472700	0.823900
O231	O23	0.650800	0.731300	0.612400
H131	H13	0.619400	0.756900	0.593600
H141	H14	0.642600	0.702300	0.573400
O241	O24	0.771300	0.659200	0.737900
H151	H15	0.764700	0.703400	0.710900
H161	H16	0.778200	0.617300	0.721400
O251	O25	0.760000	0.165100	0.194400
H171	H17	0.737600	0.203500	0.158800
H181	H18	0.739500	0.121600	0.183800
O261	O26	0.883500	0.237100	0.321200
H191	H19	0.912200	0.266000	0.334300
H201	H20	0.855300	0.270900	0.302800
O271	O27	0.759100	0.029000	0.103200
H211	H21	0.770400	0.978100	0.108700
H221	H22	0.733800	0.031000	0.107700
O281	O28	0.889300	0.980200	0.229600
H231	H23	0.882800	0.947100	0.252900
H241	H24	0.878400	0.957500	0.186300
O291	O29	0.857100	0.206300	0.591700
H251	H25	0.860200	0.259900	0.595400
H261	H26	0.821100	0.191100	0.561800
O301	O30	0.882100	0.283500	0.482700
H271	H27	0.844700	0.291600	0.446800
H281	H28	0.898800	0.322500	0.518900
O311	O31	0.985200	0.129100	0.709400
H291	H29	0.981200	0.178400	0.720500
H301	H30	0.961400	0.096700	0.705700
O321	O32	0.992700	0.024200	0.599000
H311	H31	0.978300	0.984600	0.563900
H321	H32	0.020800	0.048100	0.606600
C11	C1	0.680600	0.543000	0.874900
C21	C2	0.702400	0.555100	0.959900
C31	C3	0.742100	0.621200	0.012900
H331	H33	0.754700	0.660000	0.996000
C41	C4	0.761400	0.626600	0.089700
H341	H34	0.793100	0.661200	0.130800
C51	C5	0.731500	0.578400	0.102800
H351	H35	0.736600	0.589000	0.148500
C61	C6	0.693800	0.514000	0.048600
C71	C7	0.667500	0.447400	0.066200
C81	C8	0.753900	0.800500	0.866000
C91	C9	0.689000	0.827400	0.810400
C101	C10	0.671900	0.899600	0.823700
H361	H36	0.700300	0.938300	0.863600
C111	C11	0.611900	0.914900	0.777200
H371	H37	0.599300	0.963200	0.785500
C121	C12	0.572300	0.856200	0.719000
H381	H38	0.531700	0.864400	0.686100
C131	C13	0.593400	0.782000	0.708800
C141	C14	0.552200	0.712100	0.649000
C151	C15	0.779500	0.304000	0.072600
C161	C16	0.843400	0.325000	0.122000
C171	C17	0.862200	0.400700	0.114600
H391	H39	0.835400	0.441100	0.075200
C181	C18	0.922500	0.413100	0.168100
H401	H40	0.935900	0.463900	0.164400
C191	C19	0.964700	0.354900	0.227400
H411	H41	0.005300	0.364600	0.262200
C201	C20	0.942000	0.281400	0.230900
C211	C21	0.981400	0.211500	0.287300
C221	C22	0.867900	0.052300	0.374300
C231	C23	0.842200	0.988100	0.390200
C241	C24	0.803500	0.925400	0.335400
H421	H42	0.792400	0.920300	0.284600
C251	C25	0.781400	0.869300	0.358200
H431	H43	0.759200	0.822300	0.325700
C261	C26	0.793100	0.885000	0.430500
H441	H44	0.773800	0.854300	0.442000
C271	C27	0.832400	0.944700	0.482300
C281	C28	0.854900	0.958200	0.565300
La51	La5	0.127900	0.863640	0.892850
La61	La6	0.186600	0.128390	0.734050
La71	La7	0.347390	0.629420	0.205440
La81	La8	0.408240	0.637480	0.549180
N51	N5	0.180100	0.005000	0.976900
N61	N6	0.150400	0.268600	0.756100
N71	N7	0.383100	0.769100	0.182700
N81	N8	0.357800	0.497000	0.463200
O331	O33	0.150500	0.976000	0.837800
O341	O34	0.189300	0.096200	0.844600
O351	O35	0.144000	0.887500	0.020500
O361	O36	0.176100	0.956200	0.127800
O371	O37	0.264400	0.234300	0.847700
O381	O38	0.291500	0.348900	0.923700
O391	O39	0.077200	0.148500	0.651400
O401	O40	0.997700	0.218500	0.610500
O411	O41	0.270200	0.734600	0.092700
O421	O42	0.240100	0.849600	0.013000
O431	O43	0.457400	0.645300	0.288200
O441	O44	0.535500	0.719400	0.331700
O451	O45	0.396700	0.615000	0.427700
O461	O46	0.358300	0.545900	0.309200
O471	O47	0.383800	0.525700	0.602500
O481	O48	0.340800	0.401200	0.590000
O491	O49	0.043200	0.976000	0.844000
H451	H45	0.009800	0.951400	0.815800
H461	H46	0.040100	0.014500	0.814500
O501	O50	0.177200	0.790400	0.850200
H471	H47	0.204400	0.820900	0.860800
H481	H48	0.151900	0.778200	0.799100
O511	O51	0.152000	0.718300	0.956800
H491	H49	0.189200	0.709100	0.992400
H501	H50	0.134600	0.679300	0.920700
O521	O52	0.044500	0.873400	0.724300
H511	H51	0.047700	0.833300	0.701900
H521	H52	0.045000	0.921000	0.706700
O531	O53	0.133000	0.984500	0.699700
H531	H53	0.136800	0.969700	0.739900
H541	H54	0.149500	0.946800	0.693600
O541	O54	0.268800	0.022800	0.831000
H551	H55	0.295100	0.023300	0.828600
H561	H56	0.255800	0.972700	0.823900
O551	O55	0.150800	0.231300	0.612400
H571	H57	0.119400	0.256900	0.593600
H581	H58	0.142600	0.202300	0.573400
O561	O56	0.271300	0.159200	0.737900
H591	H59	0.264700	0.203400	0.710900
H601	H60	0.278200	0.117300	0.721400
O571	O57	0.260000	0.665100	0.194400
H611	H61	0.237600	0.703500	0.158800
H621	H62	0.239500	0.621600	0.183800
O581	O58	0.383500	0.737100	0.321200
H631	H63	0.412200	0.766000	0.334300
H641	H64	0.355300	0.770900	0.302800
O591	O59	0.259100	0.529000	0.103200
H651	H65	0.270400	0.478100	0.108700
H661	H66	0.233800	0.531000	0.107700
O601	O60	0.389300	0.480200	0.229600
H671	H67	0.382800	0.447100	0.252900
H681	H68	0.378400	0.457500	0.186300
O611	O61	0.357100	0.706300	0.591700
H691	H69	0.360200	0.759900	0.595400
H701	H70	0.321100	0.691100	0.561800
O621	O62	0.382100	0.783500	0.482700
H711	H71	0.344700	0.791600	0.446800
H721	H72	0.398800	0.822500	0.518900
O631	O63	0.485200	0.629100	0.709400
H731	H73	0.481200	0.678400	0.720500
H741	H74	0.461400	0.596700	0.705700
O641	O64	0.492700	0.524200	0.599000
H751	H75	0.478300	0.484600	0.563900
H761	H76	0.520800	0.548100	0.606600
C291	C29	0.180600	0.043000	0.874900
C301	C30	0.202400	0.055100	0.959900
C311	C31	0.242100	0.121200	0.012900
H771	H77	0.254700	0.160000	0.996000
C321	C32	0.261400	0.126600	0.089700
H781	H78	0.293100	0.161200	0.130800
C331	C33	0.231500	0.078400	0.102800
H791	H79	0.236600	0.089000	0.148500
C341	C34	0.193800	0.014000	0.048600
C351	C35	0.167500	0.947400	0.066200
C361	C36	0.253900	0.300500	0.866000
C371	C37	0.189000	0.327400	0.810400
C381	C38	0.171900	0.399600	0.823700
H801	H80	0.200300	0.438300	0.863600
C391	C39	0.111900	0.414900	0.777200
H811	H81	0.099300	0.463200	0.785500
C401	C40	0.072300	0.356200	0.719000
H821	H82	0.031700	0.364400	0.686100
C411	C41	0.093400	0.282000	0.708800
C421	C42	0.052200	0.212100	0.649000
C431	C43	0.279500	0.804000	0.072600
C441	C44	0.343400	0.825000	0.122000
C451	C45	0.362200	0.900700	0.114600
H831	H83	0.335400	0.941100	0.075200
C461	C46	0.422500	0.913100	0.168100
H841	H84	0.435900	0.963900	0.164400
C471	C47	0.464700	0.854900	0.227400
H851	H85	0.505300	0.864600	0.262200
C481	C48	0.442000	0.781400	0.230900
C491	C49	0.481400	0.711500	0.287300
C501	C50	0.367900	0.552300	0.374300
C511	C51	0.342200	0.488100	0.390200
C521	C52	0.303500	0.425400	0.335400
H861	H86	0.292400	0.420300	0.284600
C531	C53	0.281400	0.369300	0.358200
H871	H87	0.259200	0.322300	0.325700
C541	C54	0.293100	0.385000	0.430500
H881	H88	0.273800	0.354300	0.442000
C551	C55	0.332400	0.444700	0.482300
C561	C56	0.354900	0.458200	0.565300
La91	La9	0.627900	0.636360	0.392850
La101	La10	0.686600	0.371610	0.234050
La111	La11	0.847390	0.870580	0.705440
La121	La12	0.908240	0.862520	0.049180
N91	N9	0.680100	0.495000	0.476900
N101	N10	0.650400	0.231400	0.256100
N111	N11	0.883100	0.730900	0.682700
N121	N12	0.857800	0.003000	0.963200
O651	O65	0.650500	0.524000	0.337800
O661	O66	0.689300	0.403800	0.344600
O671	O67	0.644000	0.612500	0.520500
O681	O68	0.676100	0.543800	0.627800
O691	O69	0.764400	0.265700	0.347700
O701	O70	0.791500	0.151100	0.423700
O711	O71	0.577200	0.351500	0.151400
O721	O72	0.497700	0.281500	0.110500
O731	O73	0.770200	0.765400	0.592700
O741	O74	0.740100	0.650400	0.513000
O751	O75	0.957400	0.854700	0.788200
O761	O76	0.035500	0.780600	0.831700
O771	O77	0.896700	0.885000	0.927700
O781	O78	0.858300	0.954100	0.809200
O791	O79	0.883800	0.974300	0.102500
O801	O80	0.840800	0.098800	0.090000
O811	O81	0.543200	0.524000	0.344000
H891	H89	0.509800	0.548600	0.315800
H901	H90	0.540100	0.485500	0.314500
O821	O82	0.677200	0.709600	0.350200
H911	H91	0.704400	0.679100	0.360800
H921	H92	0.651900	0.721800	0.299100
O831	O83	0.652000	0.781700	0.456800
H931	H93	0.689200	0.790900	0.492400
H941	H94	0.634600	0.820700	0.420700
O841	O84	0.544500	0.626600	0.224300
H951	H95	0.547700	0.666700	0.201900
H961	H96	0.545000	0.579000	0.206700
O851	O85	0.633000	0.515500	0.199700
H971	H97	0.636800	0.530300	0.239900
H981	H98	0.649500	0.553200	0.193600
O861	O86	0.768800	0.477200	0.331000
H991	H99	0.795100	0.476700	0.328600
H1001	H100	0.755800	0.527300	0.323900
O871	O87	0.650800	0.268700	0.112400
H1011	H101	0.619400	0.243100	0.093600
H1021	H102	0.642600	0.297700	0.073400
O881	O88	0.771300	0.340800	0.237900
H1031	H103	0.764700	0.296600	0.210900
H1041	H104	0.778200	0.382700	0.221400
O891	O89	0.760000	0.834900	0.694400
H1051	H105	0.737600	0.796500	0.658800
H1061	H106	0.739500	0.878400	0.683800
O901	O90	0.883500	0.762900	0.821200
H1071	H107	0.912200	0.734000	0.834300
H1081	H108	0.855300	0.729100	0.802800
O911	O91	0.759100	0.971000	0.603200
H1091	H109	0.770400	0.021900	0.608700
H1101	H110	0.733800	0.969000	0.607700
O921	O92	0.889300	0.019800	0.729600
H1111	H111	0.882800	0.052900	0.752900
H1121	H112	0.878400	0.042500	0.686300
O931	O93	0.857100	0.793700	0.091700
H1131	H113	0.860200	0.740100	0.095400
H1141	H114	0.821100	0.808900	0.061800
O941	O94	0.882100	0.716500	0.982700
H1151	H115	0.844700	0.708400	0.946800
H1161	H116	0.898800	0.677500	0.018900
O951	O95	0.985200	0.870900	0.209400
H1171	H117	0.981200	0.821600	0.220500
H1181	H118	0.961400	0.903300	0.205700
O961	O96	0.992700	0.975800	0.099000
H1191	H119	0.978300	0.015400	0.063900
H1201	H120	0.020800	0.951900	0.106600
C571	C57	0.680600	0.457000	0.374900
C581	C58	0.702400	0.444900	0.459900
C591	C59	0.742100	0.378800	0.512900
H1211	H121	0.754700	0.340000	0.496000
C601	C60	0.761400	0.373400	0.589700
H1221	H122	0.793100	0.338800	0.630800
C611	C61	0.731500	0.421600	0.602800
H1231	H123	0.736600	0.411000	0.648500
C621	C62	0.693800	0.486000	0.548600
C631	C63	0.667500	0.552600	0.566200
C641	C64	0.753900	0.199500	0.366000
C651	C65	0.689000	0.172600	0.310400
C661	C66	0.671900	0.100400	0.323700
H1241	H124	0.700300	0.061700	0.363600
C671	C67	0.611900	0.085100	0.277200
H1251	H125	0.599300	0.036800	0.285500
C681	C68	0.572300	0.143800	0.219000
H1261	H126	0.531700	0.135600	0.186100
C691	C69	0.593400	0.218000	0.208800
C701	C70	0.552200	0.287900	0.149000
C711	C71	0.779500	0.696000	0.572600
C721	C72	0.843400	0.675000	0.622000
C731	C73	0.862200	0.599300	0.614600
H1271	H127	0.835400	0.558900	0.575200
C741	C74	0.922500	0.586900	0.668100
H1281	H128	0.935900	0.536100	0.664400
C751	C75	0.964700	0.645100	0.727400
H1291	H129	0.005300	0.635400	0.762200
C761	C76	0.942000	0.718600	0.730900
C771	C77	0.981400	0.788500	0.787300
C781	C78	0.867900	0.947700	0.874300
C791	C79	0.842200	0.011900	0.890200
C801	C80	0.803500	0.074600	0.835400
H1301	H130	0.792400	0.079700	0.784600
C811	C81	0.781400	0.130700	0.858200
H1311	H131	0.759200	0.177700	0.825700
C821	C82	0.793100	0.115000	0.930500
H1321	H132	0.773800	0.145700	0.942000
C831	C83	0.832400	0.055300	0.982300
C841	C84	0.854900	0.041800	0.065300
La131	La13	0.127900	0.136360	0.392850
La141	La14	0.186600	0.871610	0.234050
La151	La15	0.347390	0.370580	0.705440
La161	La16	0.408240	0.362520	0.049180
N131	N13	0.180100	0.995000	0.476900
N141	N14	0.150400	0.731400	0.256100
N151	N15	0.383100	0.230900	0.682700
N161	N16	0.357800	0.503000	0.963200
O971	O97	0.150500	0.024000	0.337800
O981	O98	0.189300	0.903800	0.344600
O991	O99	0.144000	0.112500	0.520500
O1001	O100	0.176100	0.043800	0.627800
O1011	O101	0.264400	0.765700	0.347700
O1021	O102	0.291500	0.651100	0.423700
O1031	O103	0.077200	0.851500	0.151400
O1041	O104	0.997700	0.781500	0.110500
O1051	O105	0.270200	0.265400	0.592700
O1061	O106	0.240100	0.150400	0.513000
O1071	O107	0.457400	0.354700	0.788200
O1081	O108	0.535500	0.280600	0.831700
O1091	O109	0.396700	0.385000	0.927700
O1101	O110	0.358300	0.454100	0.809200
O1111	O111	0.383800	0.474300	0.102500
O1121	O112	0.340800	0.598800	0.090000
O1131	O113	0.043200	0.024000	0.344000
H1331	H133	0.009800	0.048600	0.315800
H1341	H134	0.040100	0.985500	0.314500
O1141	O114	0.177200	0.209600	0.350200
H1351	H135	0.204400	0.179100	0.360800
H1361	H136	0.151900	0.221800	0.299100
O1151	O115	0.152000	0.281700	0.456800
H1371	H137	0.189200	0.290900	0.492400
H1381	H138	0.134600	0.320700	0.420700
O1161	O116	0.044500	0.126600	0.224300
H1391	H139	0.047700	0.166700	0.201900
H1401	H140	0.045000	0.079000	0.206700
O1171	O117	0.133000	0.015500	0.199700
H1411	H141	0.136800	0.030300	0.239900
H1421	H142	0.149500	0.053200	0.193600
O1181	O118	0.268800	0.977200	0.331000
H1431	H143	0.295100	0.976700	0.328600
H1441	H144	0.255800	0.027300	0.323900
O1191	O119	0.150800	0.768700	0.112400
H1451	H145	0.119400	0.743100	0.093600
H1461	H146	0.142600	0.797700	0.073400
O1201	O120	0.271300	0.840800	0.237900
H1471	H147	0.264700	0.796600	0.210900
H1481	H148	0.278200	0.882700	0.221400
O1211	O121	0.260000	0.334900	0.694400
H1491	H149	0.237600	0.296500	0.658800
H1501	H150	0.239500	0.378400	0.683800
O1221	O122	0.383500	0.262900	0.821200
H1511	H151	0.412200	0.234000	0.834300
H1521	H152	0.355300	0.229100	0.802800
O1231	O123	0.259100	0.471000	0.603200
H1531	H153	0.270400	0.521900	0.608700
H1541	H154	0.233800	0.469000	0.607700
O1241	O124	0.389300	0.519800	0.729600
H1551	H155	0.382800	0.552900	0.752900
H1561	H156	0.378400	0.542500	0.686300
O1251	O125	0.357100	0.293700	0.091700
H1571	H157	0.360200	0.240100	0.095400
H1581	H158	0.321100	0.308900	0.061800
O1261	O126	0.382100	0.216500	0.982700
H1591	H159	0.344700	0.208400	0.946800
H1601	H160	0.398800	0.177500	0.018900
O1271	O127	0.485200	0.370900	0.209400
H1611	H161	0.481200	0.321600	0.220500
H1621	H162	0.461400	0.403300	0.205700
O1281	O128	0.492700	0.475800	0.099000
H1631	H163	0.478300	0.515400	0.063900
H1641	H164	0.520800	0.451900	0.106600
C851	C85	0.180600	0.957000	0.374900
C861	C86	0.202400	0.944900	0.459900
C871	C87	0.242100	0.878800	0.512900
H1651	H165	0.254700	0.840000	0.496000
C881	C88	0.261400	0.873400	0.589700
H1661	H166	0.293100	0.838800	0.630800
C891	C89	0.231500	0.921600	0.602800
H1671	H167	0.236600	0.911000	0.648500
C901	C90	0.193800	0.986000	0.548600
C911	C91	0.167500	0.052600	0.566200
C921	C92	0.253900	0.699500	0.366000
C931	C93	0.189000	0.672600	0.310400
C941	C94	0.171900	0.600400	0.323700
H1681	H168	0.200300	0.561700	0.363600
C951	C95	0.111900	0.585100	0.277200
H1691	H169	0.099300	0.536800	0.285500
C961	C96	0.072300	0.643800	0.219000
H1701	H170	0.031700	0.635600	0.186100
C971	C97	0.093400	0.718000	0.208800
C981	C98	0.052200	0.787900	0.149000
C991	C99	0.279500	0.196000	0.572600
C1001	C100	0.343400	0.175000	0.622000
C1011	C101	0.362200	0.099300	0.614600
H1711	H171	0.335400	0.058900	0.575200
C1021	C102	0.422500	0.086900	0.668100
H1721	H172	0.435900	0.036100	0.664400
C1031	C103	0.464700	0.145100	0.727400
H1731	H173	0.505300	0.135400	0.762200
C1041	C104	0.442000	0.218600	0.730900
C1051	C105	0.481400	0.288500	0.787300
C1061	C106	0.367900	0.447700	0.874300
C1071	C107	0.342200	0.511900	0.890200
C1081	C108	0.303500	0.574600	0.835400
H1741	H174	0.292400	0.579700	0.784600
C1091	C109	0.281400	0.630700	0.858200
H1751	H175	0.259200	0.677700	0.825700
C1101	C110	0.293100	0.615000	0.930500
H1761	H176	0.273800	0.645700	0.942000
C1111	C111	0.332400	0.555300	0.982300
C1121	C112	0.354900	0.541800	0.065300
