data_FOXPUE_freeONLY_PM
_symmetry_space_group_name_H-M	'P1'
_cell_length_a	9.026000
_cell_length_b	12.942000
_cell_length_c	18.457000
_cell_angle_alpha	81.718000
_cell_angle_beta	84.770000
_cell_angle_gamma	72.443000
_symmetry_Int_Tables_number 1

loop_
_symmetry_equiv_pos_as_xyz
'x,y,z'

loop_
_atom_site_label
_atom_site_type_symbol
_atom_site_fract_x
_atom_site_fract_y
_atom_site_fract_z
Cu11	Cu1	0.420330	0.303590	0.347120
O11	O1	0.633000	0.373770	0.335460
N11	N1	0.271500	0.742490	0.896280
N21	N2	0.167100	0.879370	0.959110
N31	N3	0.228700	0.206510	0.882340
N41	N4	0.078400	0.110820	0.935890
N51	N5	0.225200	0.447300	0.149540
N61	N6	0.334900	0.394820	0.255030
N71	N7	0.129900	0.568990	0.442450
N81	N8	0.302200	0.423760	0.406540
N91	N9	0.729700	0.044720	0.253640
N101	N10	0.534900	0.178380	0.290080
N111	N11	0.360600	0.907100	0.477660
N121	N12	0.512000	0.797250	0.560520
C11	C1	0.278600	0.548600	0.902910
C21	C2	0.327100	0.452100	0.871290
C31	C3	0.316200	0.354900	0.910220
C41	C4	0.255400	0.354400	0.982480
C51	C5	0.204500	0.449900	0.015020
C61	C6	0.217100	0.547400	0.974870
C71	C7	0.282900	0.652600	0.854730
C81	C8	0.139600	0.816200	0.915070
C91	C9	0.322900	0.844400	0.968700
C101	C10	0.388700	0.759300	0.929700
C111	C11	0.359800	0.252400	0.873200
C121	C12	0.220000	0.119400	0.929590
C131	C13	0.989900	0.198600	0.890950
C141	C14	0.083000	0.257500	0.857840
C151	C15	0.125400	0.449100	0.090790
C161	C16	0.261900	0.366900	0.205740
C171	C17	0.343900	0.498500	0.229650
C181	C18	0.276400	0.531400	0.164290
C191	C19	0.018200	0.770000	0.407350
C201	C20	0.946400	0.822100	0.342500
C211	C21	0.967900	0.920900	0.309950
C221	C22	0.060400	0.967400	0.341900
C231	C23	0.131200	0.917300	0.407190
C241	C24	0.109300	0.818600	0.438910
C251	C25	0.990600	0.664300	0.443770
C261	C26	0.169100	0.499800	0.391970
C271	C27	0.348900	0.446600	0.469770
C281	C28	0.243200	0.536100	0.492680
C291	C29	0.889700	0.977800	0.239520
C301	C30	0.686800	0.142400	0.278570
C311	C31	0.477500	0.099400	0.271270
C321	C32	0.596600	0.016300	0.248690
C331	C33	0.218800	0.977000	0.443650
C341	C34	0.368000	0.851300	0.544970
C351	C35	0.602600	0.820800	0.500110
C361	C36	0.509500	0.888000	0.448700
H11	H1	0.368500	0.452900	0.822100
H21	H2	0.248800	0.287700	0.009800
H31	H3	0.183400	0.613200	0.996800
H41	H4	0.381200	0.638300	0.824200
H51	H5	0.195900	0.674400	0.821400
H61	H6	0.039900	0.822300	0.899000
H71	H7	0.376600	0.874600	0.998000
H81	H8	0.495800	0.719400	0.926300
H91	H9	0.385300	0.269700	0.820400
H101	H10	0.452500	0.198600	0.895300
H111	H11	0.305300	0.070300	0.955100
H121	H12	0.881700	0.214600	0.884500
H131	H13	0.053200	0.322000	0.824100
H141	H14	0.034100	0.514800	0.091300
H151	H15	0.086800	0.384300	0.101100
H161	H16	0.238400	0.299500	0.209400
H171	H17	0.389900	0.540000	0.254000
H181	H18	0.266600	0.599200	0.134600
H191	H19	0.882700	0.790000	0.320500
H201	H20	0.076100	0.034200	0.319200
H211	H21	0.157900	0.783800	0.483200
H221	H22	0.953700	0.672700	0.495400
H231	H23	0.907200	0.650500	0.418800
H241	H24	0.109500	0.504400	0.351100
H251	H25	0.441200	0.405800	0.493700
H261	H26	0.246700	0.569400	0.534900
H271	H27	0.950500	0.024700	0.212700
H281	H28	0.889000	0.922200	0.208000
H291	H29	0.757100	0.180800	0.286900
H301	H30	0.370700	0.102500	0.273700
H311	H31	0.589500	0.951500	0.232700
H321	H32	0.246500	0.032300	0.406500
H331	H33	0.148600	0.016300	0.481700
H341	H34	0.280000	0.851000	0.577400
H351	H35	0.712800	0.794200	0.495300
H361	H36	0.541600	0.916400	0.401600
Cu21	Cu2	0.579670	0.696410	0.652880
O21	O2	0.367000	0.626230	0.664540
N131	N13	0.728500	0.257510	0.103720
N141	N14	0.832900	0.120630	0.040890
N151	N15	0.771300	0.793490	0.117660
N161	N16	0.921600	0.889180	0.064110
N171	N17	0.774800	0.552700	0.850460
N181	N18	0.665100	0.605180	0.744970
N191	N19	0.870100	0.431010	0.557550
N201	N20	0.697800	0.576240	0.593460
N211	N21	0.270300	0.955280	0.746360
N221	N22	0.465100	0.821620	0.709920
N231	N23	0.639400	0.092900	0.522340
N241	N24	0.488000	0.202750	0.439480
C371	C37	0.721400	0.451400	0.097090
C381	C38	0.672900	0.547900	0.128710
C391	C39	0.683800	0.645100	0.089780
C401	C40	0.744600	0.645600	0.017520
C411	C41	0.795500	0.550100	0.984980
C421	C42	0.782900	0.452600	0.025130
C431	C43	0.717100	0.347400	0.145270
C441	C44	0.860400	0.183800	0.084930
C451	C45	0.677100	0.155600	0.031300
C461	C46	0.611300	0.240700	0.070300
C471	C47	0.640200	0.747600	0.126800
C481	C48	0.780000	0.880600	0.070410
C491	C49	0.010100	0.801400	0.109050
C501	C50	0.917000	0.742500	0.142160
C511	C51	0.874600	0.550900	0.909210
C521	C52	0.738100	0.633100	0.794260
C531	C53	0.656100	0.501500	0.770350
C541	C54	0.723600	0.468600	0.835710
C551	C55	0.981800	0.230000	0.592650
C561	C56	0.053600	0.177900	0.657500
C571	C57	0.032100	0.079100	0.690050
C581	C58	0.939600	0.032600	0.658100
C591	C59	0.868800	0.082700	0.592810
C601	C60	0.890700	0.181400	0.561090
C611	C61	0.009400	0.335700	0.556230
C621	C62	0.830900	0.500200	0.608030
C631	C63	0.651100	0.553400	0.530230
C641	C64	0.756800	0.463900	0.507320
C651	C65	0.110300	0.022200	0.760480
C661	C66	0.313200	0.857600	0.721430
C671	C67	0.522500	0.900600	0.728730
C681	C68	0.403400	0.983700	0.751310
C691	C69	0.781200	0.023000	0.556350
C701	C70	0.632000	0.148700	0.455030
C711	C71	0.397400	0.179200	0.499890
C721	C72	0.490500	0.112000	0.551300
H371	H37	0.631500	0.547100	0.177900
H381	H38	0.751200	0.712300	0.990200
H391	H39	0.816600	0.386800	0.003200
H401	H40	0.618800	0.361700	0.175800
H411	H41	0.804100	0.325600	0.178600
H421	H42	0.960100	0.177700	0.101000
H431	H43	0.623400	0.125400	0.002000
H441	H44	0.504200	0.280600	0.073700
H451	H45	0.614700	0.730300	0.179600
H461	H46	0.547500	0.801400	0.104700
H471	H47	0.694700	0.929700	0.044900
H481	H48	0.118300	0.785400	0.115500
H491	H49	0.946800	0.678000	0.175900
H501	H50	0.965900	0.485200	0.908700
H511	H51	0.913200	0.615700	0.898900
H521	H52	0.761600	0.700500	0.790600
H531	H53	0.610100	0.460000	0.746000
H541	H54	0.733400	0.400800	0.865400
H551	H55	0.117300	0.210000	0.679500
H561	H56	0.923900	0.965800	0.680800
H571	H57	0.842100	0.216200	0.516800
H581	H58	0.046300	0.327300	0.504600
H591	H59	0.092800	0.349500	0.581200
H601	H60	0.890500	0.495600	0.648900
H611	H61	0.558800	0.594200	0.506300
H621	H62	0.753300	0.430600	0.465100
H631	H63	0.049500	0.975300	0.787300
H641	H64	0.111000	0.077800	0.792000
H651	H65	0.242900	0.819200	0.713100
H661	H66	0.629300	0.897500	0.726300
H671	H67	0.410500	0.048500	0.767300
H681	H68	0.753500	0.967700	0.593500
H691	H69	0.851400	0.983700	0.518300
H701	H70	0.720000	0.149000	0.422600
H711	H71	0.287200	0.205800	0.504700
H721	H72	0.458400	0.083600	0.598400
Cu31	Cu3	0.000000	0.000000	0.000000
