data_FOZCAA_freeONLY_PM
_symmetry_space_group_name_H-M	'P1'
_cell_length_a	16.348200
_cell_length_b	16.348200
_cell_length_c	19.501100
_cell_angle_alpha	90.000000
_cell_angle_beta	90.000000
_cell_angle_gamma	120.000000
_symmetry_Int_Tables_number 1

loop_
_symmetry_equiv_pos_as_xyz
'x,y,z'

loop_
_atom_site_label
_atom_site_type_symbol
_atom_site_fract_x
_atom_site_fract_y
_atom_site_fract_z
C11	C1	0.299800	0.705700	0.137700
H11	H1	0.241900	0.663800	0.159800
Fe11	Fe1	0.500480	0.783140	0.116770
Cl11	Cl1	0.945230	0.118780	0.263450
Cl21	Cl2	0.127100	0.881000	0.067780
N11	N1	0.368600	0.689400	0.146180
N21	N2	0.557500	0.748200	0.195390
N31	N3	0.505100	0.662100	0.053840
N41	N4	0.264800	0.404900	0.045500
N51	N5	0.507300	0.401700	0.139240
O11	O1	0.449200	0.820900	0.044370
O21	O2	0.620400	0.879300	0.090310
C21	C2	0.302100	0.780300	0.098360
C31	C3	0.225600	0.795200	0.101700
H21	H2	0.175600	0.759700	0.133000
C41	C4	0.222000	0.860800	0.060200
C51	C5	0.291900	0.911800	0.013800
H31	H3	0.288400	0.957200	0.985300
C61	C6	0.366800	0.896900	0.008700
H41	H4	0.414400	0.931200	0.975500
C71	C7	0.375500	0.832800	0.051010
C81	C8	0.347400	0.599700	0.179500
H51	H5	0.358400	0.560500	0.146200
H61	H6	0.279800	0.564800	0.192400
C91	C9	0.406900	0.613700	0.243300
C101	C10	0.395500	0.677500	0.294100
H71	H7	0.328300	0.651400	0.304600
H81	H8	0.420800	0.740600	0.274200
H91	H9	0.429800	0.681700	0.336300
C111	C11	0.371700	0.516400	0.273900
H101	H10	0.412900	0.520900	0.311900
H111	H11	0.372200	0.473900	0.238700
H121	H12	0.307100	0.491600	0.291000
C121	C12	0.510200	0.652700	0.224700
H131	H13	0.544800	0.653000	0.266400
H141	H14	0.514400	0.609300	0.191300
C131	C13	0.637800	0.810000	0.221670
H151	H15	0.656600	0.791300	0.262000
C141	C14	0.700200	0.901600	0.197200
C151	C15	0.781800	0.961300	0.237300
H161	H16	0.790600	0.939900	0.280500
C161	C16	0.846200	0.047100	0.214500
C171	C17	0.833800	0.080900	0.152400
H171	H17	0.878800	0.142800	0.137700
C181	C18	0.756500	0.025000	0.112000
H181	H18	0.748800	0.048500	0.069300
C191	C19	0.689200	0.933900	0.133170
C201	C20	0.496300	0.592800	0.033920
C211	C21	0.495100	0.430800	0.089010
C221	C22	0.339400	0.426500	0.030000
C231	C23	0.294300	0.594100	0.471030
H191	H19	0.336200	0.578100	0.493130
Fe21	Fe2	0.216860	0.717340	0.450100
Cl31	Cl3	0.881220	0.826450	0.596780
Cl41	Cl4	0.119000	0.246100	0.401110
N61	N6	0.310600	0.679200	0.479510
N71	N7	0.251800	0.809300	0.528720
N81	N8	0.337900	0.843000	0.387170
N91	N9	0.595100	0.859900	0.378830
N101	N10	0.598300	0.105600	0.472570
O31	O3	0.179100	0.628300	0.377700
O41	O4	0.120700	0.741100	0.423640
C241	C24	0.219700	0.521800	0.431690
C251	C25	0.204800	0.430400	0.435030
H201	H20	0.240300	0.415900	0.466330
C261	C26	0.139200	0.361200	0.393530
C271	C27	0.088200	0.380100	0.347130
H211	H21	0.042800	0.331200	0.318630
C281	C28	0.103100	0.469900	0.342030
H221	H22	0.068800	0.483200	0.308830
C291	C29	0.167200	0.542700	0.384340
C301	C30	0.400300	0.747700	0.512830
H231	H23	0.439500	0.797900	0.479530
H241	H24	0.435200	0.715000	0.525730
C311	C31	0.386300	0.793200	0.576630
C321	C32	0.322500	0.718000	0.627430
H251	H25	0.348600	0.676900	0.637930
H261	H26	0.259400	0.680200	0.607530
H271	H27	0.318300	0.748100	0.669630
C331	C33	0.483600	0.855300	0.607230
H281	H28	0.479100	0.892000	0.645230
H291	H29	0.526100	0.898300	0.572030
H301	H30	0.508400	0.815500	0.624330
C341	C34	0.347300	0.857500	0.558030
H311	H31	0.347000	0.891800	0.599730
H321	H32	0.390700	0.905100	0.524630
C351	C35	0.190000	0.827800	0.555000
H331	H33	0.208700	0.865300	0.595330
C361	C36	0.098400	0.798600	0.530530
C371	C37	0.038700	0.820500	0.570630
H341	H34	0.060100	0.850700	0.613830
C381	C38	0.952900	0.799100	0.547830
C391	C39	0.919100	0.752900	0.485730
H351	H35	0.857200	0.736000	0.471030
C401	C40	0.975000	0.731500	0.445330
H361	H36	0.951500	0.700300	0.402630
C411	C41	0.066100	0.755300	0.466500
C421	C42	0.407200	0.903500	0.367250
C431	C43	0.569200	0.064300	0.422340
C441	C44	0.573500	0.912900	0.363330
C451	C45	0.405900	0.700200	0.804370
H371	H37	0.421900	0.758100	0.826470
Fe31	Fe3	0.282660	0.499520	0.783440
Cl51	Cl5	0.173550	0.054770	0.930120
Cl61	Cl6	0.753900	0.872900	0.734450
N111	N11	0.320800	0.631400	0.812850
N121	N12	0.190700	0.442500	0.862060
N131	N13	0.157000	0.494900	0.720510
N141	N14	0.140100	0.735200	0.712170
N151	N15	0.894400	0.492700	0.805910
O51	O5	0.371700	0.550800	0.711040
O61	O6	0.258900	0.379600	0.756980
C461	C46	0.478200	0.697900	0.765030
C471	C47	0.569600	0.774400	0.768370
H381	H38	0.584100	0.824400	0.799670
C481	C48	0.638800	0.778000	0.726870
C491	C49	0.619900	0.708100	0.680470
H391	H39	0.668800	0.711600	0.651970
C501	C50	0.530100	0.633200	0.675370
H401	H40	0.516800	0.585600	0.642170
C511	C51	0.457300	0.624500	0.717680
C521	C52	0.252300	0.652600	0.846170
H411	H41	0.202100	0.641600	0.812870
H421	H42	0.285000	0.720200	0.859070
C531	C53	0.206800	0.593100	0.909970
C541	C54	0.282000	0.604500	0.960770
H431	H43	0.323100	0.671700	0.971270
H441	H44	0.319800	0.579200	0.940870
H451	H45	0.251900	0.570200	0.002970
C551	C55	0.144700	0.628300	0.940570
H461	H46	0.108000	0.587100	0.978570
H471	H47	0.101700	0.627800	0.905370
H481	H48	0.184500	0.692900	0.957670
C561	C56	0.142500	0.489800	0.891370
H491	H49	0.108200	0.455200	0.933070
H501	H50	0.094900	0.485600	0.857970
C571	C57	0.172200	0.362200	0.888340
H511	H51	0.134700	0.343400	0.928670
C581	C58	0.201400	0.299800	0.863870
C591	C59	0.179500	0.218200	0.903970
H521	H52	0.149300	0.209400	0.947170
C601	C60	0.200900	0.153800	0.881170
C611	C61	0.247100	0.166200	0.819070
H531	H53	0.264000	0.121200	0.804370
C621	C62	0.268500	0.243500	0.778670
H541	H54	0.299700	0.251200	0.735970
C631	C63	0.244700	0.310800	0.799840
C641	C64	0.096500	0.503700	0.700590
C651	C65	0.935700	0.504900	0.755680
C661	C66	0.087100	0.660600	0.696670
C671	C67	0.705700	0.299800	0.862300
H551	H55	0.663800	0.241900	0.840200
Fe41	Fe4	0.783140	0.500480	0.883230
Cl71	Cl7	0.118780	0.945230	0.736550
Cl81	Cl8	0.881000	0.127100	0.932220
N161	N16	0.689400	0.368600	0.853820
N171	N17	0.748200	0.557500	0.804610
N181	N18	0.662100	0.505100	0.946160
N191	N19	0.404900	0.264800	0.954500
N201	N20	0.401700	0.507300	0.860760
O71	O7	0.820900	0.449200	0.955630
O81	O8	0.879300	0.620400	0.909690
C681	C68	0.780300	0.302100	0.901640
C691	C69	0.795200	0.225600	0.898300
H561	H56	0.759700	0.175600	0.867000
C701	C70	0.860800	0.222000	0.939800
C711	C71	0.911800	0.291900	0.986200
H571	H57	0.957200	0.288400	0.014700
C721	C72	0.896900	0.366800	0.991300
H581	H58	0.931200	0.414400	0.024500
C731	C73	0.832800	0.375500	0.948990
C741	C74	0.599700	0.347400	0.820500
H591	H59	0.560500	0.358400	0.853800
H601	H60	0.564800	0.279800	0.807600
C751	C75	0.613700	0.406900	0.756700
C761	C76	0.677500	0.395500	0.705900
H611	H61	0.651400	0.328300	0.695400
H621	H62	0.740600	0.420800	0.725800
H631	H63	0.681700	0.429800	0.663700
C771	C77	0.516400	0.371700	0.726100
H641	H64	0.520900	0.412900	0.688100
H651	H65	0.473900	0.372200	0.761300
H661	H66	0.491600	0.307100	0.709000
C781	C78	0.652700	0.510200	0.775300
H671	H67	0.653000	0.544800	0.733600
H681	H68	0.609300	0.514400	0.808700
C791	C79	0.810000	0.637800	0.778330
H691	H69	0.791300	0.656600	0.738000
C801	C80	0.901600	0.700200	0.802800
C811	C81	0.961300	0.781800	0.762700
H701	H70	0.939900	0.790600	0.719500
C821	C82	0.047100	0.846200	0.785500
C831	C83	0.080900	0.833800	0.847600
H711	H71	0.142800	0.878800	0.862300
C841	C84	0.025000	0.756500	0.888000
H721	H72	0.048500	0.748800	0.930700
C851	C85	0.933900	0.689200	0.866830
C861	C86	0.592800	0.496300	0.966080
C871	C87	0.430800	0.495100	0.910990
C881	C88	0.426500	0.339400	0.970000
C891	C89	0.594100	0.294300	0.528970
H731	H73	0.578100	0.336200	0.506870
Fe51	Fe5	0.717340	0.216860	0.549900
Cl91	Cl9	0.826450	0.881220	0.403220
Cl101	Cl10	0.246100	0.119000	0.598890
N211	N21	0.679200	0.310600	0.520490
N221	N22	0.809300	0.251800	0.471280
N231	N23	0.843000	0.337900	0.612830
N241	N24	0.859900	0.595100	0.621170
N251	N25	0.105600	0.598300	0.527430
O91	O9	0.628300	0.179100	0.622300
O101	O10	0.741100	0.120700	0.576360
C901	C90	0.521800	0.219700	0.568310
C911	C91	0.430400	0.204800	0.564970
H741	H74	0.415900	0.240300	0.533670
C921	C92	0.361200	0.139200	0.606470
C931	C93	0.380100	0.088200	0.652870
H751	H75	0.331200	0.042800	0.681370
C941	C94	0.469900	0.103100	0.657970
H761	H76	0.483200	0.068800	0.691170
C951	C95	0.542700	0.167200	0.615660
C961	C96	0.747700	0.400300	0.487170
H771	H77	0.797900	0.439500	0.520470
H781	H78	0.715000	0.435200	0.474270
C971	C97	0.793200	0.386300	0.423370
C981	C98	0.718000	0.322500	0.372570
H791	H79	0.676900	0.348600	0.362070
H801	H80	0.680200	0.259400	0.392470
H811	H81	0.748100	0.318300	0.330370
C991	C99	0.855300	0.483600	0.392770
H821	H82	0.892000	0.479100	0.354770
H831	H83	0.898300	0.526100	0.427970
H841	H84	0.815500	0.508400	0.375670
C1001	C100	0.857500	0.347300	0.441970
H851	H85	0.891800	0.347000	0.400270
H861	H86	0.905100	0.390700	0.475370
C1011	C101	0.827800	0.190000	0.445000
H871	H87	0.865300	0.208700	0.404670
C1021	C102	0.798600	0.098400	0.469470
C1031	C103	0.820500	0.038700	0.429370
H881	H88	0.850700	0.060100	0.386170
C1041	C104	0.799100	0.952900	0.452170
C1051	C105	0.752900	0.919100	0.514270
H891	H89	0.736000	0.857200	0.528970
C1061	C106	0.731500	0.975000	0.554670
H901	H90	0.700300	0.951500	0.597370
C1071	C107	0.755300	0.066100	0.533500
C1081	C108	0.903500	0.407200	0.632750
C1091	C109	0.064300	0.569200	0.577660
C1101	C110	0.912900	0.573500	0.636670
C1111	C111	0.700200	0.405900	0.195630
H911	H91	0.758100	0.421900	0.173530
Fe61	Fe6	0.499520	0.282660	0.216560
Cl111	Cl11	0.054770	0.173550	0.069880
Cl121	Cl12	0.872900	0.753900	0.265550
N261	N26	0.631400	0.320800	0.187150
N271	N27	0.442500	0.190700	0.137940
N281	N28	0.494900	0.157000	0.279490
N291	N29	0.735200	0.140100	0.287830
N301	N30	0.492700	0.894400	0.194090
O111	O11	0.550800	0.371700	0.288960
O121	O12	0.379600	0.258900	0.243020
C1121	C112	0.697900	0.478200	0.234970
C1131	C113	0.774400	0.569600	0.231630
H921	H92	0.824400	0.584100	0.200330
C1141	C114	0.778000	0.638800	0.273130
C1151	C115	0.708100	0.619900	0.319530
H931	H93	0.711600	0.668800	0.348030
C1161	C116	0.633200	0.530100	0.324630
H941	H94	0.585600	0.516800	0.357830
C1171	C117	0.624500	0.457300	0.282320
C1181	C118	0.652600	0.252300	0.153830
H951	H95	0.641600	0.202100	0.187130
H961	H96	0.720200	0.285000	0.140930
C1191	C119	0.593100	0.206800	0.090030
C1201	C120	0.604500	0.282000	0.039230
H971	H97	0.671700	0.323100	0.028730
H981	H98	0.579200	0.319800	0.059130
H991	H99	0.570200	0.251900	0.997030
C1211	C121	0.628300	0.144700	0.059430
H1001	H100	0.587100	0.108000	0.021430
H1011	H101	0.627800	0.101700	0.094630
H1021	H102	0.692900	0.184500	0.042330
C1221	C122	0.489800	0.142500	0.108630
H1031	H103	0.455200	0.108200	0.066930
H1041	H104	0.485600	0.094900	0.142030
C1231	C123	0.362200	0.172200	0.111660
H1051	H105	0.343400	0.134700	0.071330
C1241	C124	0.299800	0.201400	0.136130
C1251	C125	0.218200	0.179500	0.096030
H1061	H106	0.209400	0.149300	0.052830
C1261	C126	0.153800	0.200900	0.118830
C1271	C127	0.166200	0.247100	0.180930
H1071	H107	0.121200	0.264000	0.195630
C1281	C128	0.243500	0.268500	0.221330
H1081	H108	0.251200	0.299700	0.264030
C1291	C129	0.310800	0.244700	0.200160
C1301	C130	0.503700	0.096500	0.299410
C1311	C131	0.504900	0.935700	0.244320
C1321	C132	0.660600	0.087100	0.303330
Fe71	Fe7	0.466990	0.466990	0.000000
Fe81	Fe8	0.533010	0.000000	0.333330
Fe91	Fe9	0.000000	0.533010	0.666670
