data_FUNBAS_freeONLY_PM
_symmetry_space_group_name_H-M	'P1'
_cell_length_a	11.521000
_cell_length_b	14.008000
_cell_length_c	15.701000
_cell_angle_alpha	96.679000
_cell_angle_beta	90.000000
_cell_angle_gamma	90.000000
_symmetry_Int_Tables_number 1

loop_
_symmetry_equiv_pos_as_xyz
'x,y,z'

loop_
_atom_site_label
_atom_site_type_symbol
_atom_site_fract_x
_atom_site_fract_y
_atom_site_fract_z
Zn11	Zn1	0.095200	0.195700	0.983080
Zn21	Zn2	0.095600	0.404600	0.002100
H11	H1	0.406900	0.179900	0.151600
H21	H2	0.520200	0.174600	0.274700
H31	H3	0.389000	0.431900	0.374700
H41	H4	0.275800	0.437200	0.251600
H51	H5	0.796400	0.296600	0.495600
H61	H6	0.399100	0.277600	0.483400
H71	H7	0.810500	0.412500	0.636700
H81	H8	0.926500	0.412100	0.766000
H91	H9	0.764500	0.167700	0.807200
H101	H10	0.660000	0.165700	0.685400
H111	H11	0.801600	0.164200	0.328000
H121	H12	0.898600	0.170200	0.210300
H131	H13	0.771700	0.428500	0.186400
H141	H14	0.659500	0.415600	0.310700
H151	H15	0.368400	0.167800	0.609700
H161	H16	0.287200	0.154700	0.736000
H171	H17	0.404400	0.419700	0.827300
H181	H18	0.533700	0.402800	0.717200
H191	H19	0.272100	0.567800	0.991200
H201	H20	0.267800	0.716800	0.028500
H211	H21	0.917400	0.738800	0.998600
H221	H22	0.932800	0.564900	0.021000
H231	H23	0.265000	0.852200	0.972400
H241	H24	0.251000	0.035200	0.928600
H251	H25	0.952000	0.038800	0.037500
H261	H26	0.941000	0.878600	0.073800
C11	C1	0.240000	0.313000	0.114000
C21	C2	0.330700	0.309000	0.190000
C31	C3	0.403300	0.231000	0.196900
C41	C4	0.470600	0.227900	0.270000
C51	C5	0.465200	0.302700	0.336300
C61	C6	0.392700	0.380700	0.329400
C71	C7	0.325400	0.383900	0.256300
C81	C8	0.532000	0.281000	0.415000
C91	C9	0.649000	0.302000	0.411000
C101	C10	0.714000	0.292000	0.493000
C111	C11	0.650000	0.275000	0.566000
C121	C12	0.525000	0.295000	0.569000
C131	C13	0.481000	0.284000	0.487000
C141	C14	0.727000	0.288000	0.650000
C151	C15	0.804000	0.362000	0.672000
C161	C16	0.874000	0.361000	0.748000
C171	C17	0.862000	0.286000	0.789000
C181	C18	0.777000	0.216000	0.770000
C191	C19	0.714000	0.216000	0.701000
C201	C20	0.732000	0.293000	0.333000
C211	C21	0.799000	0.221000	0.301000
C221	C22	0.860000	0.227000	0.235000
C231	C23	0.874000	0.304000	0.197000
C241	C24	0.783000	0.377000	0.220000
C251	C25	0.716000	0.368000	0.292000
C261	C26	0.464000	0.276000	0.647000
C271	C27	0.386000	0.215000	0.657000
C281	C28	0.328000	0.212000	0.729000
C291	C29	0.319000	0.297000	0.806000
C301	C30	0.399000	0.363000	0.788000
C311	C31	0.474000	0.356000	0.719000
C321	C32	0.201000	0.601000	0.001900
C331	C33	0.197000	0.685000	0.012000
C341	C34	0.101000	0.745000	0.002300
C351	C35	0.989000	0.705000	0.002700
C361	C36	0.002000	0.599000	0.011000
C371	C37	0.085000	0.852000	0.001000
C381	C38	0.196000	0.889000	0.977000
C391	C39	0.190000	0.006000	0.957000
C401	C40	0.018000	0.001000	0.020000
C411	C41	0.001000	0.902000	0.040000
C421	C42	0.246000	0.296000	0.869000
C431	C43	0.937000	0.306000	0.116000
C441	C44	0.946000	0.283000	0.875000
N11	N1	0.097000	0.549900	0.006200
N21	N2	0.094000	0.055300	0.985700
O11	O1	0.229000	0.385000	0.086200
O21	O2	0.229100	0.223200	0.067400
O31	O3	0.232000	0.376000	0.919700
O41	O4	0.233800	0.209000	0.903600
O51	O5	0.991200	0.234700	0.085400
O61	O6	0.986000	0.390000	0.101200
O71	O7	0.983300	0.364000	0.904700
O81	O8	0.983400	0.216000	0.887700
Zn31	Zn3	0.595200	0.804300	0.016920
Zn41	Zn4	0.595600	0.595400	0.997900
H271	H27	0.906900	0.820100	0.848400
H281	H28	0.020200	0.825400	0.725300
H291	H29	0.889000	0.568100	0.625300
H301	H30	0.775800	0.562800	0.748400
H311	H31	0.296400	0.703400	0.504400
H321	H32	0.899100	0.722400	0.516600
H331	H33	0.310500	0.587500	0.363300
H341	H34	0.426500	0.587900	0.234000
H351	H35	0.264500	0.832300	0.192800
H361	H36	0.160000	0.834300	0.314600
H371	H37	0.301600	0.835800	0.672000
H381	H38	0.398600	0.829800	0.789700
H391	H39	0.271700	0.571500	0.813600
H401	H40	0.159500	0.584400	0.689300
H411	H41	0.868400	0.832200	0.390300
H421	H42	0.787200	0.845300	0.264000
H431	H43	0.904400	0.580300	0.172700
H441	H44	0.033700	0.597200	0.282800
H451	H45	0.772100	0.432200	0.008800
H461	H46	0.767800	0.283200	0.971500
H471	H47	0.417400	0.261200	0.001400
H481	H48	0.432800	0.435100	0.979000
H491	H49	0.765000	0.147800	0.027600
H501	H50	0.751000	0.964800	0.071400
H511	H51	0.452000	0.961200	0.962500
H521	H52	0.441000	0.121400	0.926200
C451	C45	0.740000	0.687000	0.886000
C461	C46	0.830700	0.691000	0.810000
C471	C47	0.903300	0.769000	0.803100
C481	C48	0.970600	0.772100	0.730000
C491	C49	0.965200	0.697300	0.663700
C501	C50	0.892700	0.619300	0.670600
C511	C51	0.825400	0.616100	0.743700
C521	C52	0.032000	0.719000	0.585000
C531	C53	0.149000	0.698000	0.589000
C541	C54	0.214000	0.708000	0.507000
C551	C55	0.150000	0.725000	0.434000
C561	C56	0.025000	0.705000	0.431000
C571	C57	0.981000	0.716000	0.513000
C581	C58	0.227000	0.712000	0.350000
C591	C59	0.304000	0.638000	0.328000
C601	C60	0.374000	0.639000	0.252000
C611	C61	0.362000	0.714000	0.211000
C621	C62	0.277000	0.784000	0.230000
C631	C63	0.214000	0.784000	0.299000
C641	C64	0.232000	0.707000	0.667000
C651	C65	0.299000	0.779000	0.699000
C661	C66	0.360000	0.773000	0.765000
C671	C67	0.374000	0.696000	0.803000
C681	C68	0.283000	0.623000	0.780000
C691	C69	0.216000	0.632000	0.708000
C701	C70	0.964000	0.724000	0.353000
C711	C71	0.886000	0.785000	0.343000
C721	C72	0.828000	0.788000	0.271000
C731	C73	0.819000	0.703000	0.194000
C741	C74	0.899000	0.637000	0.212000
C751	C75	0.974000	0.644000	0.281000
C761	C76	0.701000	0.399000	0.998100
C771	C77	0.697000	0.315000	0.988000
C781	C78	0.601000	0.255000	0.997700
C791	C79	0.489000	0.295000	0.997300
C801	C80	0.502000	0.401000	0.989000
C811	C81	0.585000	0.148000	0.999000
C821	C82	0.696000	0.111000	0.023000
C831	C83	0.690000	0.994000	0.043000
C841	C84	0.518000	0.999000	0.980000
C851	C85	0.501000	0.098000	0.960000
C861	C86	0.746000	0.704000	0.131000
C871	C87	0.437000	0.694000	0.884000
C881	C88	0.446000	0.717000	0.125000
N31	N3	0.597000	0.450100	0.993800
N41	N4	0.594000	0.944700	0.014300
O91	O9	0.729000	0.615000	0.913800
O101	O10	0.729100	0.776800	0.932600
O111	O11	0.732000	0.624000	0.080300
O121	O12	0.733800	0.791000	0.096400
O131	O13	0.491200	0.765300	0.914600
O141	O14	0.486000	0.610000	0.898800
O151	O15	0.483300	0.636000	0.095300
O161	O16	0.483400	0.784000	0.112300
