data_FUNFOL_freeONLY_PM
_symmetry_space_group_name_H-M	'P1'
_cell_length_a	10.051000
_cell_length_b	17.770000
_cell_length_c	17.953400
_cell_angle_alpha	67.250000
_cell_angle_beta	74.928000
_cell_angle_gamma	81.569000
_symmetry_Int_Tables_number 1

loop_
_symmetry_equiv_pos_as_xyz
'x,y,z'

loop_
_atom_site_label
_atom_site_type_symbol
_atom_site_fract_x
_atom_site_fract_y
_atom_site_fract_z
Co11	Co1	0.702280	0.431090	0.487000
C11	C1	0.943300	0.366980	0.488340
C21	C2	0.086900	0.331720	0.492310
C31	C3	0.133200	0.261440	0.475900
H11	H1	0.074300	0.235200	0.462700
C41	C4	0.267700	0.229720	0.479200
C51	C5	0.356200	0.271100	0.495600
H21	H2	0.447300	0.251400	0.495100
C61	C6	0.311500	0.341500	0.512790
C71	C7	0.174600	0.371310	0.512180
H31	H3	0.142300	0.417600	0.525100
C81	C8	0.316100	0.151420	0.463100
C91	C9	0.407900	0.388540	0.527850
C101	C10	0.746500	0.497400	0.291100
H41	H4	0.765500	0.550300	0.282300
C111	C11	0.702000	0.373500	0.345400
H51	H5	0.682000	0.322000	0.385500
C121	C12	0.758300	0.513600	0.144400
C131	C13	0.796600	0.468200	0.093800
H61	H6	0.807200	0.411600	0.116700
C141	C14	0.818600	0.507400	0.010300
H71	H7	0.843900	0.476800	0.976400
C151	C15	0.804300	0.591200	0.974700
C161	C16	0.762600	0.635800	0.026000
H81	H8	0.748600	0.692300	0.003300
C171	C17	0.741800	0.596600	0.110900
H91	H9	0.716700	0.626800	0.145200
C181	C18	0.909700	0.699400	0.844300
C191	C19	0.903400	0.747400	0.762800
H101	H10	0.840900	0.736400	0.738600
C201	C20	0.990000	0.811500	0.717700
H111	H11	0.985400	0.843400	0.663400
C211	C21	0.081900	0.827900	0.752700
C221	C22	0.085900	0.782800	0.834100
H121	H12	0.145700	0.795700	0.858700
C231	C23	0.000700	0.718500	0.878800
H131	H13	0.005100	0.687500	0.933400
C241	C24	0.253400	0.904000	0.628600
H141	H14	0.247500	0.876000	0.595400
C251	C25	0.307400	0.982600	0.675000
H151	H15	0.352600	0.022800	0.678300
C261	C26	0.796400	0.587400	0.841300
C271	C27	0.893900	0.571100	0.779000
H161	H16	0.983200	0.588000	0.765900
C281	C28	0.860500	0.530200	0.735900
H171	H17	0.927000	0.519400	0.693900
C291	C29	0.729100	0.505400	0.754800
C301	C30	0.630600	0.519400	0.818400
H181	H18	0.541800	0.501700	0.831900
C311	C31	0.665800	0.559500	0.861400
H191	H19	0.600400	0.568200	0.905000
C321	C32	0.758700	0.459640	0.635840
H201	H20	0.847300	0.476700	0.607900
C331	C33	0.564700	0.410200	0.671200
H211	H21	0.490800	0.384700	0.670500
N11	N1	0.722600	0.437160	0.364260
N21	N2	0.739200	0.471280	0.232120
N31	N3	0.712400	0.389740	0.266870
N41	N4	0.829100	0.630670	0.886650
N51	N5	0.178600	0.890190	0.704200
N61	N6	0.212200	0.942100	0.735000
N71	N7	0.337200	0.962490	0.606710
N81	N8	0.680500	0.425190	0.610400
N91	N9	0.691500	0.466220	0.707640
N101	N10	0.565100	0.434700	0.731220
O11	O1	0.846500	0.321150	0.504720
O21	O2	0.920800	0.443010	0.468850
O31	O3	0.237600	0.122020	0.439300
O41	O4	0.431400	0.121140	0.476700
O51	O5	0.360000	0.449170	0.547750
O61	O6	0.532800	0.364320	0.518210
O71	O7	0.375600	0.984160	0.427470
H221	H22	0.364500	0.035100	0.383400
H231	H23	0.286800	0.966700	0.462000
Co21	Co2	0.297720	0.568910	0.513000
C341	C34	0.056700	0.633020	0.511660
C351	C35	0.913100	0.668280	0.507690
C361	C36	0.866800	0.738560	0.524100
H241	H24	0.925700	0.764800	0.537300
C371	C37	0.732300	0.770280	0.520800
C381	C38	0.643800	0.728900	0.504400
H251	H25	0.552700	0.748600	0.504900
C391	C39	0.688500	0.658500	0.487210
C401	C40	0.825400	0.628690	0.487820
H261	H26	0.857700	0.582400	0.474900
C411	C41	0.683900	0.848580	0.536900
C421	C42	0.592100	0.611460	0.472150
C431	C43	0.253500	0.502600	0.708900
H271	H27	0.234500	0.449700	0.717700
C441	C44	0.298000	0.626500	0.654600
H281	H28	0.318000	0.678000	0.614500
C451	C45	0.241700	0.486400	0.855600
C461	C46	0.203400	0.531800	0.906200
H291	H29	0.192800	0.588400	0.883300
C471	C47	0.181400	0.492600	0.989700
H301	H30	0.156100	0.523200	0.023600
C481	C48	0.195700	0.408800	0.025300
C491	C49	0.237400	0.364200	0.974000
H311	H31	0.251400	0.307700	0.996700
C501	C50	0.258200	0.403400	0.889100
H321	H32	0.283300	0.373200	0.854800
C511	C51	0.090300	0.300600	0.155700
C521	C52	0.096600	0.252600	0.237200
H331	H33	0.159100	0.263600	0.261400
C531	C53	0.010000	0.188500	0.282300
H341	H34	0.014600	0.156600	0.336600
C541	C54	0.918100	0.172100	0.247300
C551	C55	0.914100	0.217200	0.165900
H351	H35	0.854300	0.204300	0.141300
C561	C56	0.999300	0.281500	0.121200
H361	H36	0.994900	0.312500	0.066600
C571	C57	0.746600	0.096000	0.371400
H371	H37	0.752500	0.124000	0.404600
C581	C58	0.692600	0.017400	0.325000
H381	H38	0.647400	0.977200	0.321700
C591	C59	0.203600	0.412600	0.158700
C601	C60	0.106100	0.428900	0.221000
H391	H39	0.016800	0.412000	0.234100
C611	C61	0.139500	0.469800	0.264100
H401	H40	0.073000	0.480600	0.306100
C621	C62	0.270900	0.494600	0.245200
C631	C63	0.369400	0.480600	0.181600
H411	H41	0.458200	0.498300	0.168100
C641	C64	0.334200	0.440500	0.138600
H421	H42	0.399600	0.431800	0.095000
C651	C65	0.241300	0.540360	0.364160
H431	H43	0.152700	0.523300	0.392100
C661	C66	0.435300	0.589800	0.328800
H441	H44	0.509200	0.615300	0.329500
N111	N11	0.277400	0.562840	0.635740
N121	N12	0.260800	0.528720	0.767880
N131	N13	0.287600	0.610260	0.733130
N141	N14	0.170900	0.369330	0.113350
N151	N15	0.821400	0.109810	0.295800
N161	N16	0.787800	0.057900	0.265000
N171	N17	0.662800	0.037510	0.393290
N181	N18	0.319500	0.574810	0.389600
N191	N19	0.308500	0.533780	0.292360
N201	N20	0.434900	0.565300	0.268780
O81	O8	0.153500	0.678850	0.495280
O91	O9	0.079200	0.556990	0.531150
O101	O10	0.762400	0.877980	0.560700
O111	O11	0.568600	0.878860	0.523300
O121	O12	0.640000	0.550830	0.452250
O131	O13	0.467200	0.635680	0.481790
O141	O14	0.624400	0.015840	0.572530
H451	H45	0.635500	0.964900	0.616600
H461	H46	0.713200	0.033300	0.538000
Co31	Co3	0.500000	0.000000	0.500000
