data_FUNGAY_freeONLY_PM
_symmetry_space_group_name_H-M	'P1'
_cell_length_a	28.645700
_cell_length_b	12.544000
_cell_length_c	21.601600
_cell_angle_alpha	90.000000
_cell_angle_beta	103.195000
_cell_angle_gamma	90.000000
_symmetry_Int_Tables_number 1

loop_
_symmetry_equiv_pos_as_xyz
'x,y,z'

loop_
_atom_site_label
_atom_site_type_symbol
_atom_site_fract_x
_atom_site_fract_y
_atom_site_fract_z
C11	C1	0.177370	0.448100	0.322550
H11	H1	0.204500	0.421700	0.350500
C21	C2	0.128640	0.555800	0.269670
H21	H2	0.113500	0.617600	0.251600
C31	C3	0.845150	0.872700	0.140470
H31	H3	0.832600	0.916600	0.167300
C41	C4	0.860760	0.742600	0.088520
H41	H4	0.860500	0.673800	0.072300
C51	C5	0.802840	0.669700	0.825900
H51	H5	0.800200	0.695000	0.784800
C61	C6	0.787880	0.643300	0.913820
H61	H6	0.773600	0.642900	0.948400
C71	C7	0.068920	0.423000	0.214160
C81	C8	0.032120	0.493500	0.191560
H71	H7	0.034800	0.564000	0.205200
C91	C9	0.991510	0.460100	0.148870
H81	H8	0.967200	0.508600	0.133100
C101	C10	0.986460	0.353800	0.128890
C111	C11	0.023920	0.284100	0.151750
H91	H9	0.021300	0.213300	0.138600
C121	C12	0.065220	0.318200	0.193930
H101	H10	0.090300	0.270800	0.208500
C131	C13	0.894900	0.007800	0.102350
C141	C14	0.907030	0.070800	0.155690
H111	H11	0.904200	0.044700	0.195000
C151	C15	0.923500	0.173400	0.150440
H121	H12	0.931600	0.216600	0.186300
C161	C16	0.927840	0.211600	0.092470
C171	C17	0.915330	0.148000	0.038970
H131	H13	0.918400	0.173900	0.999800
C181	C18	0.898340	0.046100	0.043680
H141	H14	0.889300	0.003600	0.007600
C191	C19	0.914980	0.387200	0.042840
C201	C20	0.867010	0.396000	0.041400
H151	H15	0.854000	0.356800	0.069900
C211	C21	0.837700	0.462600	0.998130
H161	H16	0.805200	0.467900	0.997400
C221	C22	0.857020	0.520400	0.956480
C231	C23	0.904680	0.513000	0.957400
H171	H17	0.917500	0.552800	0.928900
C241	C24	0.933740	0.447000	0.000200
H181	H18	0.966200	0.442300	0.000700
C251	C25	0.224780	0.698700	0.222250
C261	C26	0.232240	0.713200	0.156320
C271	C27	0.203530	0.780800	0.114280
H191	H19	0.178800	0.816700	0.126700
C281	C28	0.210740	0.796500	0.053600
H201	H20	0.191100	0.843800	0.026300
C291	C29	0.246680	0.743000	0.032960
C301	C30	0.276080	0.677300	0.076540
H211	H21	0.301500	0.642600	0.064900
C311	C31	0.268680	0.662100	0.136780
H221	H22	0.288800	0.616400	0.164700
Co11	Co1	0.218070	0.683280	0.337770
N11	N1	0.170360	0.552800	0.311250
N21	N2	0.111540	0.457720	0.257530
N31	N3	0.143290	0.386000	0.291500
N41	N4	0.834520	0.770900	0.129970
N51	N5	0.876320	0.903300	0.107160
N61	N6	0.886900	0.819700	0.072560
N71	N7	0.772120	0.698300	0.861340
N81	N8	0.836880	0.603800	0.853080
N91	N9	0.827010	0.588200	0.910890
N101	N10	0.944720	0.317600	0.086620
N111	N11	0.273560	0.580200	0.446240
O11	O1	0.249900	0.632710	0.259780
O21	O2	0.194710	0.755930	0.241540
O31	O3	0.234610	0.627500	0.433930
O41	O4	0.290400	0.563600	0.400700
O51	O5	0.290020	0.550700	0.500140
C321	C32	0.822630	0.448100	0.177450
H231	H23	0.795500	0.421700	0.149500
C331	C33	0.871360	0.555800	0.230330
H241	H24	0.886500	0.617600	0.248400
C341	C34	0.154850	0.872700	0.359530
H251	H25	0.167400	0.916600	0.332700
C351	C35	0.139240	0.742600	0.411480
H261	H26	0.139500	0.673800	0.427700
C361	C36	0.197160	0.669700	0.674100
H271	H27	0.199800	0.695000	0.715200
C371	C37	0.212120	0.643300	0.586180
H281	H28	0.226400	0.642900	0.551600
C381	C38	0.931080	0.423000	0.285840
C391	C39	0.967880	0.493500	0.308440
H291	H29	0.965200	0.564000	0.294800
C401	C40	0.008490	0.460100	0.351130
H301	H30	0.032800	0.508600	0.366900
C411	C41	0.013540	0.353800	0.371110
C421	C42	0.976080	0.284100	0.348250
H311	H31	0.978700	0.213300	0.361400
C431	C43	0.934780	0.318200	0.306070
H321	H32	0.909700	0.270800	0.291500
C441	C44	0.105100	0.007800	0.397650
C451	C45	0.092970	0.070800	0.344310
H331	H33	0.095800	0.044700	0.305000
C461	C46	0.076500	0.173400	0.349560
H341	H34	0.068400	0.216600	0.313700
C471	C47	0.072160	0.211600	0.407530
C481	C48	0.084670	0.148000	0.461030
H351	H35	0.081600	0.173900	0.500200
C491	C49	0.101660	0.046100	0.456320
H361	H36	0.110700	0.003600	0.492400
C501	C50	0.085020	0.387200	0.457160
C511	C51	0.132990	0.396000	0.458600
H371	H37	0.146000	0.356800	0.430100
C521	C52	0.162300	0.462600	0.501870
H381	H38	0.194800	0.467900	0.502600
C531	C53	0.142980	0.520400	0.543520
C541	C54	0.095320	0.513000	0.542600
H391	H39	0.082500	0.552800	0.571100
C551	C55	0.066260	0.447000	0.499800
H401	H40	0.033800	0.442300	0.499300
C561	C56	0.775220	0.698700	0.277750
C571	C57	0.767760	0.713200	0.343680
C581	C58	0.796470	0.780800	0.385720
H411	H41	0.821200	0.816700	0.373300
C591	C59	0.789260	0.796500	0.446400
H421	H42	0.808900	0.843800	0.473700
C601	C60	0.753320	0.743000	0.467040
C611	C61	0.723920	0.677300	0.423460
H431	H43	0.698500	0.642600	0.435100
C621	C62	0.731320	0.662100	0.363220
H441	H44	0.711200	0.616400	0.335300
Co21	Co2	0.781930	0.683280	0.162230
N121	N12	0.829640	0.552800	0.188750
N131	N13	0.888460	0.457720	0.242470
N141	N14	0.856710	0.386000	0.208500
N151	N15	0.165480	0.770900	0.370030
N161	N16	0.123680	0.903300	0.392840
N171	N17	0.113100	0.819700	0.427440
N181	N18	0.227880	0.698300	0.638660
N191	N19	0.163120	0.603800	0.646920
N201	N20	0.172990	0.588200	0.589110
N211	N21	0.055280	0.317600	0.413380
N221	N22	0.726440	0.580200	0.053760
O61	O6	0.750100	0.632710	0.240220
O71	O7	0.805290	0.755930	0.258460
O81	O8	0.765390	0.627500	0.066070
O91	O9	0.709600	0.563600	0.099300
O101	O10	0.709980	0.550700	0.999860
C631	C63	0.322630	0.051900	0.677450
H451	H45	0.295500	0.078300	0.649500
C641	C64	0.371360	0.944200	0.730330
H461	H46	0.386500	0.882400	0.748400
C651	C65	0.654850	0.627300	0.859530
H471	H47	0.667400	0.583400	0.832700
C661	C66	0.639240	0.757400	0.911480
H481	H48	0.639500	0.826200	0.927700
C671	C67	0.697160	0.830300	0.174100
H491	H49	0.699800	0.805000	0.215200
C681	C68	0.712120	0.856700	0.086180
H501	H50	0.726400	0.857100	0.051600
C691	C69	0.431080	0.077000	0.785840
C701	C70	0.467880	0.006500	0.808440
H511	H51	0.465200	0.936000	0.794800
C711	C71	0.508490	0.039900	0.851130
H521	H52	0.532800	0.991400	0.866900
C721	C72	0.513540	0.146200	0.871110
C731	C73	0.476080	0.215900	0.848250
H531	H53	0.478700	0.286700	0.861400
C741	C74	0.434780	0.181800	0.806070
H541	H54	0.409700	0.229200	0.791500
C751	C75	0.605100	0.492200	0.897650
C761	C76	0.592970	0.429200	0.844310
H551	H55	0.595800	0.455300	0.805000
C771	C77	0.576500	0.326600	0.849560
H561	H56	0.568400	0.283400	0.813700
C781	C78	0.572160	0.288400	0.907530
C791	C79	0.584670	0.352000	0.961030
H571	H57	0.581600	0.326100	0.000200
C801	C80	0.601660	0.453900	0.956320
H581	H58	0.610700	0.496400	0.992400
C811	C81	0.585020	0.112800	0.957160
C821	C82	0.632990	0.104000	0.958600
H591	H59	0.646000	0.143200	0.930100
C831	C83	0.662300	0.037400	0.001870
H601	H60	0.694800	0.032100	0.002600
C841	C84	0.642980	0.979600	0.043520
C851	C85	0.595320	0.987000	0.042600
H611	H61	0.582500	0.947200	0.071100
C861	C86	0.566260	0.053000	0.999800
H621	H62	0.533800	0.057700	0.999300
C871	C87	0.275220	0.801300	0.777750
C881	C88	0.267760	0.786800	0.843680
C891	C89	0.296470	0.719200	0.885720
H631	H63	0.321200	0.683300	0.873300
C901	C90	0.289260	0.703500	0.946400
H641	H64	0.308900	0.656200	0.973700
C911	C91	0.253320	0.757000	0.967040
C921	C92	0.223920	0.822700	0.923460
H651	H65	0.198500	0.857400	0.935100
C931	C93	0.231320	0.837900	0.863220
H661	H66	0.211200	0.883600	0.835300
Co31	Co3	0.281930	0.816720	0.662230
N231	N23	0.329640	0.947200	0.688750
N241	N24	0.388460	0.042280	0.742470
N251	N25	0.356710	0.114000	0.708500
N261	N26	0.665480	0.729100	0.870030
N271	N27	0.623680	0.596700	0.892840
N281	N28	0.613100	0.680300	0.927440
N291	N29	0.727880	0.801700	0.138660
N301	N30	0.663120	0.896200	0.146920
N311	N31	0.672990	0.911800	0.089110
N321	N32	0.555280	0.182400	0.913380
N331	N33	0.226440	0.919800	0.553760
O111	O11	0.250100	0.867290	0.740220
O121	O12	0.305290	0.744070	0.758460
O131	O13	0.265390	0.872500	0.566070
O141	O14	0.209600	0.936400	0.599300
O151	O15	0.209980	0.949300	0.499860
C941	C94	0.677370	0.051900	0.822550
H671	H67	0.704500	0.078300	0.850500
C951	C95	0.628640	0.944200	0.769670
H681	H68	0.613500	0.882400	0.751600
C961	C96	0.345150	0.627300	0.640470
H691	H69	0.332600	0.583400	0.667300
C971	C97	0.360760	0.757400	0.588520
H701	H70	0.360500	0.826200	0.572300
C981	C98	0.302840	0.830300	0.325900
H711	H71	0.300200	0.805000	0.284800
C991	C99	0.287880	0.856700	0.413820
H721	H72	0.273600	0.857100	0.448400
C1001	C100	0.568920	0.077000	0.714160
C1011	C101	0.532120	0.006500	0.691560
H731	H73	0.534800	0.936000	0.705200
C1021	C102	0.491510	0.039900	0.648870
H741	H74	0.467200	0.991400	0.633100
C1031	C103	0.486460	0.146200	0.628890
C1041	C104	0.523920	0.215900	0.651750
H751	H75	0.521300	0.286700	0.638600
C1051	C105	0.565220	0.181800	0.693930
H761	H76	0.590300	0.229200	0.708500
C1061	C106	0.394900	0.492200	0.602350
C1071	C107	0.407030	0.429200	0.655690
H771	H77	0.404200	0.455300	0.695000
C1081	C108	0.423500	0.326600	0.650440
H781	H78	0.431600	0.283400	0.686300
C1091	C109	0.427840	0.288400	0.592470
C1101	C110	0.415330	0.352000	0.538970
H791	H79	0.418400	0.326100	0.499800
C1111	C111	0.398340	0.453900	0.543680
H801	H80	0.389300	0.496400	0.507600
C1121	C112	0.414980	0.112800	0.542840
C1131	C113	0.367010	0.104000	0.541400
H811	H81	0.354000	0.143200	0.569900
C1141	C114	0.337700	0.037400	0.498130
H821	H82	0.305200	0.032100	0.497400
C1151	C115	0.357020	0.979600	0.456480
C1161	C116	0.404680	0.987000	0.457400
H831	H83	0.417500	0.947200	0.428900
C1171	C117	0.433740	0.053000	0.500200
H841	H84	0.466200	0.057700	0.500700
C1181	C118	0.724780	0.801300	0.722250
C1191	C119	0.732240	0.786800	0.656320
C1201	C120	0.703530	0.719200	0.614280
H851	H85	0.678800	0.683300	0.626700
C1211	C121	0.710740	0.703500	0.553600
H861	H86	0.691100	0.656200	0.526300
C1221	C122	0.746680	0.757000	0.532960
C1231	C123	0.776080	0.822700	0.576540
H871	H87	0.801500	0.857400	0.564900
C1241	C124	0.768680	0.837900	0.636780
H881	H88	0.788800	0.883600	0.664700
Co41	Co4	0.718070	0.816720	0.837770
N341	N34	0.670360	0.947200	0.811250
N351	N35	0.611540	0.042280	0.757530
N361	N36	0.643290	0.114000	0.791500
N371	N37	0.334520	0.729100	0.629970
N381	N38	0.376320	0.596700	0.607160
N391	N39	0.386900	0.680300	0.572560
N401	N40	0.272120	0.801700	0.361340
N411	N41	0.336880	0.896200	0.353080
N421	N42	0.327010	0.911800	0.410890
N431	N43	0.444720	0.182400	0.586620
N441	N44	0.773560	0.919800	0.946240
O161	O16	0.749900	0.867290	0.759780
O171	O17	0.694710	0.744070	0.741540
O181	O18	0.734610	0.872500	0.933930
O191	O19	0.790400	0.936400	0.900700
O201	O20	0.790020	0.949300	0.000140
C1251	C125	0.677370	0.948100	0.322550
H891	H89	0.704500	0.921700	0.350500
C1261	C126	0.628640	0.055800	0.269670
H901	H90	0.613500	0.117600	0.251600
C1271	C127	0.345150	0.372700	0.140470
H911	H91	0.332600	0.416600	0.167300
C1281	C128	0.360760	0.242600	0.088520
H921	H92	0.360500	0.173800	0.072300
C1291	C129	0.302840	0.169700	0.825900
H931	H93	0.300200	0.195000	0.784800
C1301	C130	0.287880	0.143300	0.913820
H941	H94	0.273600	0.142900	0.948400
C1311	C131	0.568920	0.923000	0.214160
C1321	C132	0.532120	0.993500	0.191560
H951	H95	0.534800	0.064000	0.205200
C1331	C133	0.491510	0.960100	0.148870
H961	H96	0.467200	0.008600	0.133100
C1341	C134	0.486460	0.853800	0.128890
C1351	C135	0.523920	0.784100	0.151750
H971	H97	0.521300	0.713300	0.138600
C1361	C136	0.565220	0.818200	0.193930
H981	H98	0.590300	0.770800	0.208500
C1371	C137	0.394900	0.507800	0.102350
C1381	C138	0.407030	0.570800	0.155690
H991	H99	0.404200	0.544700	0.195000
C1391	C139	0.423500	0.673400	0.150440
H1001	H100	0.431600	0.716600	0.186300
C1401	C140	0.427840	0.711600	0.092470
C1411	C141	0.415330	0.648000	0.038970
H1011	H101	0.418400	0.673900	0.999800
C1421	C142	0.398340	0.546100	0.043680
H1021	H102	0.389300	0.503600	0.007600
C1431	C143	0.414980	0.887200	0.042840
C1441	C144	0.367010	0.896000	0.041400
H1031	H103	0.354000	0.856800	0.069900
C1451	C145	0.337700	0.962600	0.998130
H1041	H104	0.305200	0.967900	0.997400
C1461	C146	0.357020	0.020400	0.956480
C1471	C147	0.404680	0.013000	0.957400
H1051	H105	0.417500	0.052800	0.928900
C1481	C148	0.433740	0.947000	0.000200
H1061	H106	0.466200	0.942300	0.000700
C1491	C149	0.724780	0.198700	0.222250
C1501	C150	0.732240	0.213200	0.156320
C1511	C151	0.703530	0.280800	0.114280
H1071	H107	0.678800	0.316700	0.126700
C1521	C152	0.710740	0.296500	0.053600
H1081	H108	0.691100	0.343800	0.026300
C1531	C153	0.746680	0.243000	0.032960
C1541	C154	0.776080	0.177300	0.076540
H1091	H109	0.801500	0.142600	0.064900
C1551	C155	0.768680	0.162100	0.136780
H1101	H110	0.788800	0.116400	0.164700
Co51	Co5	0.718070	0.183280	0.337770
N451	N45	0.670360	0.052800	0.311250
N461	N46	0.611540	0.957720	0.257530
N471	N47	0.643290	0.886000	0.291500
N481	N48	0.334520	0.270900	0.129970
N491	N49	0.376320	0.403300	0.107160
N501	N50	0.386900	0.319700	0.072560
N511	N51	0.272120	0.198300	0.861340
N521	N52	0.336880	0.103800	0.853080
N531	N53	0.327010	0.088200	0.910890
N541	N54	0.444720	0.817600	0.086620
N551	N55	0.773560	0.080200	0.446240
O211	O21	0.749900	0.132710	0.259780
O221	O22	0.694710	0.255930	0.241540
O231	O23	0.734610	0.127500	0.433930
O241	O24	0.790400	0.063600	0.400700
O251	O25	0.790020	0.050700	0.500140
C1561	C156	0.322630	0.948100	0.177450
H1111	H111	0.295500	0.921700	0.149500
C1571	C157	0.371360	0.055800	0.230330
H1121	H112	0.386500	0.117600	0.248400
C1581	C158	0.654850	0.372700	0.359530
H1131	H113	0.667400	0.416600	0.332700
C1591	C159	0.639240	0.242600	0.411480
H1141	H114	0.639500	0.173800	0.427700
C1601	C160	0.697160	0.169700	0.674100
H1151	H115	0.699800	0.195000	0.715200
C1611	C161	0.712120	0.143300	0.586180
H1161	H116	0.726400	0.142900	0.551600
C1621	C162	0.431080	0.923000	0.285840
C1631	C163	0.467880	0.993500	0.308440
H1171	H117	0.465200	0.064000	0.294800
C1641	C164	0.508490	0.960100	0.351130
H1181	H118	0.532800	0.008600	0.366900
C1651	C165	0.513540	0.853800	0.371110
C1661	C166	0.476080	0.784100	0.348250
H1191	H119	0.478700	0.713300	0.361400
C1671	C167	0.434780	0.818200	0.306070
H1201	H120	0.409700	0.770800	0.291500
C1681	C168	0.605100	0.507800	0.397650
C1691	C169	0.592970	0.570800	0.344310
H1211	H121	0.595800	0.544700	0.305000
C1701	C170	0.576500	0.673400	0.349560
H1221	H122	0.568400	0.716600	0.313700
C1711	C171	0.572160	0.711600	0.407530
C1721	C172	0.584670	0.648000	0.461030
H1231	H123	0.581600	0.673900	0.500200
C1731	C173	0.601660	0.546100	0.456320
H1241	H124	0.610700	0.503600	0.492400
C1741	C174	0.585020	0.887200	0.457160
C1751	C175	0.632990	0.896000	0.458600
H1251	H125	0.646000	0.856800	0.430100
C1761	C176	0.662300	0.962600	0.501870
H1261	H126	0.694800	0.967900	0.502600
C1771	C177	0.642980	0.020400	0.543520
C1781	C178	0.595320	0.013000	0.542600
H1271	H127	0.582500	0.052800	0.571100
C1791	C179	0.566260	0.947000	0.499800
H1281	H128	0.533800	0.942300	0.499300
C1801	C180	0.275220	0.198700	0.277750
C1811	C181	0.267760	0.213200	0.343680
C1821	C182	0.296470	0.280800	0.385720
H1291	H129	0.321200	0.316700	0.373300
C1831	C183	0.289260	0.296500	0.446400
H1301	H130	0.308900	0.343800	0.473700
C1841	C184	0.253320	0.243000	0.467040
C1851	C185	0.223920	0.177300	0.423460
H1311	H131	0.198500	0.142600	0.435100
C1861	C186	0.231320	0.162100	0.363220
H1321	H132	0.211200	0.116400	0.335300
Co61	Co6	0.281930	0.183280	0.162230
N561	N56	0.329640	0.052800	0.188750
N571	N57	0.388460	0.957720	0.242470
N581	N58	0.356710	0.886000	0.208500
N591	N59	0.665480	0.270900	0.370030
N601	N60	0.623680	0.403300	0.392840
N611	N61	0.613100	0.319700	0.427440
N621	N62	0.727880	0.198300	0.638660
N631	N63	0.663120	0.103800	0.646920
N641	N64	0.672990	0.088200	0.589110
N651	N65	0.555280	0.817600	0.413380
N661	N66	0.226440	0.080200	0.053760
O261	O26	0.250100	0.132710	0.240220
O271	O27	0.305290	0.255930	0.258460
O281	O28	0.265390	0.127500	0.066070
O291	O29	0.209600	0.063600	0.099300
O301	O30	0.209980	0.050700	0.999860
C1871	C187	0.822630	0.551900	0.677450
H1331	H133	0.795500	0.578300	0.649500
C1881	C188	0.871360	0.444200	0.730330
H1341	H134	0.886500	0.382400	0.748400
C1891	C189	0.154850	0.127300	0.859530
H1351	H135	0.167400	0.083400	0.832700
C1901	C190	0.139240	0.257400	0.911480
H1361	H136	0.139500	0.326200	0.927700
C1911	C191	0.197160	0.330300	0.174100
H1371	H137	0.199800	0.305000	0.215200
C1921	C192	0.212120	0.356700	0.086180
H1381	H138	0.226400	0.357100	0.051600
C1931	C193	0.931080	0.577000	0.785840
C1941	C194	0.967880	0.506500	0.808440
H1391	H139	0.965200	0.436000	0.794800
C1951	C195	0.008490	0.539900	0.851130
H1401	H140	0.032800	0.491400	0.866900
C1961	C196	0.013540	0.646200	0.871110
C1971	C197	0.976080	0.715900	0.848250
H1411	H141	0.978700	0.786700	0.861400
C1981	C198	0.934780	0.681800	0.806070
H1421	H142	0.909700	0.729200	0.791500
C1991	C199	0.105100	0.992200	0.897650
C2001	C200	0.092970	0.929200	0.844310
H1431	H143	0.095800	0.955300	0.805000
C2011	C201	0.076500	0.826600	0.849560
H1441	H144	0.068400	0.783400	0.813700
C2021	C202	0.072160	0.788400	0.907530
C2031	C203	0.084670	0.852000	0.961030
H1451	H145	0.081600	0.826100	0.000200
C2041	C204	0.101660	0.953900	0.956320
H1461	H146	0.110700	0.996400	0.992400
C2051	C205	0.085020	0.612800	0.957160
C2061	C206	0.132990	0.604000	0.958600
H1471	H147	0.146000	0.643200	0.930100
C2071	C207	0.162300	0.537400	0.001870
H1481	H148	0.194800	0.532100	0.002600
C2081	C208	0.142980	0.479600	0.043520
C2091	C209	0.095320	0.487000	0.042600
H1491	H149	0.082500	0.447200	0.071100
C2101	C210	0.066260	0.553000	0.999800
H1501	H150	0.033800	0.557700	0.999300
C2111	C211	0.775220	0.301300	0.777750
C2121	C212	0.767760	0.286800	0.843680
C2131	C213	0.796470	0.219200	0.885720
H1511	H151	0.821200	0.183300	0.873300
C2141	C214	0.789260	0.203500	0.946400
H1521	H152	0.808900	0.156200	0.973700
C2151	C215	0.753320	0.257000	0.967040
C2161	C216	0.723920	0.322700	0.923460
H1531	H153	0.698500	0.357400	0.935100
C2171	C217	0.731320	0.337900	0.863220
H1541	H154	0.711200	0.383600	0.835300
Co71	Co7	0.781930	0.316720	0.662230
N671	N67	0.829640	0.447200	0.688750
N681	N68	0.888460	0.542280	0.742470
N691	N69	0.856710	0.614000	0.708500
N701	N70	0.165480	0.229100	0.870030
N711	N71	0.123680	0.096700	0.892840
N721	N72	0.113100	0.180300	0.927440
N731	N73	0.227880	0.301700	0.138660
N741	N74	0.163120	0.396200	0.146920
N751	N75	0.172990	0.411800	0.089110
N761	N76	0.055280	0.682400	0.913380
N771	N77	0.726440	0.419800	0.553760
O311	O31	0.750100	0.367290	0.740220
O321	O32	0.805290	0.244070	0.758460
O331	O33	0.765390	0.372500	0.566070
O341	O34	0.709600	0.436400	0.599300
O351	O35	0.709980	0.449300	0.499860
C2181	C218	0.177370	0.551900	0.822550
H1551	H155	0.204500	0.578300	0.850500
C2191	C219	0.128640	0.444200	0.769670
H1561	H156	0.113500	0.382400	0.751600
C2201	C220	0.845150	0.127300	0.640470
H1571	H157	0.832600	0.083400	0.667300
C2211	C221	0.860760	0.257400	0.588520
H1581	H158	0.860500	0.326200	0.572300
C2221	C222	0.802840	0.330300	0.325900
H1591	H159	0.800200	0.305000	0.284800
C2231	C223	0.787880	0.356700	0.413820
H1601	H160	0.773600	0.357100	0.448400
C2241	C224	0.068920	0.577000	0.714160
C2251	C225	0.032120	0.506500	0.691560
H1611	H161	0.034800	0.436000	0.705200
C2261	C226	0.991510	0.539900	0.648870
H1621	H162	0.967200	0.491400	0.633100
C2271	C227	0.986460	0.646200	0.628890
C2281	C228	0.023920	0.715900	0.651750
H1631	H163	0.021300	0.786700	0.638600
C2291	C229	0.065220	0.681800	0.693930
H1641	H164	0.090300	0.729200	0.708500
C2301	C230	0.894900	0.992200	0.602350
C2311	C231	0.907030	0.929200	0.655690
H1651	H165	0.904200	0.955300	0.695000
C2321	C232	0.923500	0.826600	0.650440
H1661	H166	0.931600	0.783400	0.686300
C2331	C233	0.927840	0.788400	0.592470
C2341	C234	0.915330	0.852000	0.538970
H1671	H167	0.918400	0.826100	0.499800
C2351	C235	0.898340	0.953900	0.543680
H1681	H168	0.889300	0.996400	0.507600
C2361	C236	0.914980	0.612800	0.542840
C2371	C237	0.867010	0.604000	0.541400
H1691	H169	0.854000	0.643200	0.569900
C2381	C238	0.837700	0.537400	0.498130
H1701	H170	0.805200	0.532100	0.497400
C2391	C239	0.857020	0.479600	0.456480
C2401	C240	0.904680	0.487000	0.457400
H1711	H171	0.917500	0.447200	0.428900
C2411	C241	0.933740	0.553000	0.500200
H1721	H172	0.966200	0.557700	0.500700
C2421	C242	0.224780	0.301300	0.722250
C2431	C243	0.232240	0.286800	0.656320
C2441	C244	0.203530	0.219200	0.614280
H1731	H173	0.178800	0.183300	0.626700
C2451	C245	0.210740	0.203500	0.553600
H1741	H174	0.191100	0.156200	0.526300
C2461	C246	0.246680	0.257000	0.532960
C2471	C247	0.276080	0.322700	0.576540
H1751	H175	0.301500	0.357400	0.564900
C2481	C248	0.268680	0.337900	0.636780
H1761	H176	0.288800	0.383600	0.664700
Co81	Co8	0.218070	0.316720	0.837770
N781	N78	0.170360	0.447200	0.811250
N791	N79	0.111540	0.542280	0.757530
N801	N80	0.143290	0.614000	0.791500
N811	N81	0.834520	0.229100	0.629970
N821	N82	0.876320	0.096700	0.607160
N831	N83	0.886900	0.180300	0.572560
N841	N84	0.772120	0.301700	0.361340
N851	N85	0.836880	0.396200	0.353080
N861	N86	0.827010	0.411800	0.410890
N871	N87	0.944720	0.682400	0.586620
N881	N88	0.273560	0.419800	0.946240
O361	O36	0.249900	0.367290	0.759780
O371	O37	0.194710	0.244070	0.741540
O381	O38	0.234610	0.372500	0.933930
O391	O39	0.290400	0.436400	0.900700
O401	O40	0.290020	0.449300	0.000140
