data_FUQJUX_freeONLY_PM
_symmetry_space_group_name_H-M	'P1'
_cell_length_a	25.647700
_cell_length_b	25.647700
_cell_length_c	25.647700
_cell_angle_alpha	60.000000
_cell_angle_beta	60.000000
_cell_angle_gamma	60.000000
_symmetry_Int_Tables_number 1

loop_
_symmetry_equiv_pos_as_xyz
'x,y,z'

loop_
_atom_site_label
_atom_site_type_symbol
_atom_site_fract_x
_atom_site_fract_y
_atom_site_fract_z
Cu11	Cu1	0.673220	0.250000	0.750000
Cu21	Cu2	0.750000	0.173220	0.326780
Cu31	Cu3	0.250000	0.326780	0.173220
Cu41	Cu4	0.826780	0.750000	0.250000
Cu51	Cu5	0.673220	0.750000	0.326780
Cu61	Cu6	0.750000	0.326780	0.750000
Cu71	Cu7	0.250000	0.173220	0.250000
Cu81	Cu8	0.826780	0.250000	0.173220
Cu91	Cu9	0.673220	0.326780	0.250000
Cu101	Cu10	0.750000	0.750000	0.173220
Cu111	Cu11	0.250000	0.250000	0.326780
Cu121	Cu12	0.826780	0.173220	0.750000
Cu131	Cu13	0.326780	0.750000	0.250000
Cu141	Cu14	0.250000	0.826780	0.673220
Cu151	Cu15	0.750000	0.673220	0.826780
Cu161	Cu16	0.173220	0.250000	0.750000
Cu171	Cu17	0.326780	0.250000	0.673220
Cu181	Cu18	0.250000	0.673220	0.250000
Cu191	Cu19	0.750000	0.826780	0.750000
Cu201	Cu20	0.173220	0.750000	0.826780
Cu211	Cu21	0.326780	0.673220	0.750000
Cu221	Cu22	0.250000	0.250000	0.826780
Cu231	Cu23	0.750000	0.750000	0.673220
Cu241	Cu24	0.173220	0.826780	0.250000
H11	H1	0.552900	0.548100	0.732700
H21	H2	0.460500	0.636900	0.734500
H31	H3	0.048100	0.052900	0.166300
H41	H4	0.136900	0.960500	0.168100
H51	H5	0.232700	0.166300	0.052900
H61	H6	0.234500	0.168100	0.960500
H71	H7	0.666300	0.732700	0.548100
H81	H8	0.668100	0.734500	0.636900
H91	H9	0.552900	0.732700	0.166300
H101	H10	0.460500	0.734500	0.168100
H111	H11	0.048100	0.166300	0.732700
H121	H12	0.136900	0.168100	0.734500
H131	H13	0.232700	0.052900	0.548100
H141	H14	0.234500	0.960500	0.636900
H151	H15	0.666300	0.548100	0.052900
H161	H16	0.668100	0.636900	0.960500
H171	H17	0.552900	0.166300	0.548100
H181	H18	0.460500	0.168100	0.636900
H191	H19	0.048100	0.732700	0.052900
H201	H20	0.136900	0.734500	0.960500
H211	H21	0.232700	0.548100	0.166300
H221	H22	0.234500	0.636900	0.168100
H231	H23	0.666300	0.052900	0.732700
H241	H24	0.668100	0.960500	0.734500
H251	H25	0.451900	0.447100	0.767300
H261	H26	0.363100	0.539500	0.765500
H271	H27	0.947100	0.951900	0.333700
H281	H28	0.039500	0.863100	0.331900
H291	H29	0.833700	0.767300	0.447100
H301	H30	0.831900	0.765500	0.539500
H311	H31	0.267300	0.333700	0.951900
H321	H32	0.265500	0.331900	0.863100
H331	H33	0.267300	0.447100	0.333700
H341	H34	0.265500	0.539500	0.331900
H351	H35	0.833700	0.951900	0.767300
H361	H36	0.831900	0.863100	0.765500
H371	H37	0.947100	0.767300	0.951900
H381	H38	0.039500	0.765500	0.863100
H391	H39	0.451900	0.333700	0.447100
H401	H40	0.363100	0.331900	0.539500
H411	H41	0.833700	0.447100	0.951900
H421	H42	0.831900	0.539500	0.863100
H431	H43	0.267300	0.951900	0.447100
H441	H44	0.265500	0.863100	0.539500
H451	H45	0.451900	0.767300	0.333700
H461	H46	0.363100	0.765500	0.331900
H471	H47	0.947100	0.333700	0.767300
H481	H48	0.039500	0.331900	0.765500
H491	H49	0.447100	0.451900	0.267300
H501	H50	0.539500	0.363100	0.265500
H511	H51	0.951900	0.947100	0.833700
H521	H52	0.863100	0.039500	0.831900
H531	H53	0.767300	0.833700	0.947100
H541	H54	0.765500	0.831900	0.039500
H551	H55	0.333700	0.267300	0.451900
H561	H56	0.331900	0.265500	0.363100
H571	H57	0.447100	0.267300	0.833700
H581	H58	0.539500	0.265500	0.831900
H591	H59	0.951900	0.833700	0.267300
H601	H60	0.863100	0.831900	0.265500
H611	H61	0.767300	0.947100	0.451900
H621	H62	0.765500	0.039500	0.363100
H631	H63	0.333700	0.451900	0.947100
H641	H64	0.331900	0.363100	0.039500
H651	H65	0.447100	0.833700	0.451900
H661	H66	0.539500	0.831900	0.363100
H671	H67	0.951900	0.267300	0.947100
H681	H68	0.863100	0.265500	0.039500
H691	H69	0.767300	0.451900	0.833700
H701	H70	0.765500	0.363100	0.831900
H711	H71	0.333700	0.947100	0.267300
H721	H72	0.331900	0.039500	0.265500
H731	H73	0.548100	0.552900	0.232700
H741	H74	0.636900	0.460500	0.234500
H751	H75	0.052900	0.048100	0.666300
H761	H76	0.960500	0.136900	0.668100
H771	H77	0.166300	0.232700	0.552900
H781	H78	0.168100	0.234500	0.460500
H791	H79	0.732700	0.666300	0.048100
H801	H80	0.734500	0.668100	0.136900
H811	H81	0.732700	0.552900	0.666300
H821	H82	0.734500	0.460500	0.668100
H831	H83	0.166300	0.048100	0.232700
H841	H84	0.168100	0.136900	0.234500
H851	H85	0.052900	0.232700	0.048100
H861	H86	0.960500	0.234500	0.136900
H871	H87	0.548100	0.666300	0.552900
H881	H88	0.636900	0.668100	0.460500
H891	H89	0.166300	0.552900	0.048100
H901	H90	0.168100	0.460500	0.136900
H911	H91	0.732700	0.048100	0.552900
H921	H92	0.734500	0.136900	0.460500
H931	H93	0.548100	0.232700	0.666300
H941	H94	0.636900	0.234500	0.668100
H951	H95	0.052900	0.666300	0.232700
H961	H96	0.960500	0.668100	0.234500
C11	C1	0.514220	0.545060	0.740020
C21	C2	0.459230	0.597750	0.740770
C31	C3	0.045060	0.014220	0.200700
C41	C4	0.097750	0.959230	0.202250
C51	C5	0.240020	0.200700	0.014220
C61	C6	0.240770	0.202250	0.959230
C71	C7	0.700700	0.740020	0.545060
C81	C8	0.702250	0.740770	0.597750
C91	C9	0.514220	0.740020	0.200700
C101	C10	0.459230	0.740770	0.202250
C111	C11	0.045060	0.200700	0.740020
C121	C12	0.097750	0.202250	0.740770
C131	C13	0.240020	0.014220	0.545060
C141	C14	0.240770	0.959230	0.597750
C151	C15	0.700700	0.545060	0.014220
C161	C16	0.702250	0.597750	0.959230
C171	C17	0.514220	0.200700	0.545060
C181	C18	0.459230	0.202250	0.597750
C191	C19	0.045060	0.740020	0.014220
C201	C20	0.097750	0.740770	0.959230
C211	C21	0.240020	0.545060	0.200700
C221	C22	0.240770	0.597750	0.202250
C231	C23	0.700700	0.014220	0.740020
C241	C24	0.702250	0.959230	0.740770
C251	C25	0.454940	0.485780	0.759980
C261	C26	0.402250	0.540770	0.759230
C271	C27	0.985780	0.954940	0.299300
C281	C28	0.040770	0.902250	0.297750
C291	C29	0.799300	0.759980	0.485780
C301	C30	0.797750	0.759230	0.540770
C311	C31	0.259980	0.299300	0.954940
C321	C32	0.259230	0.297750	0.902250
C331	C33	0.259980	0.485780	0.299300
C341	C34	0.259230	0.540770	0.297750
C351	C35	0.799300	0.954940	0.759980
C361	C36	0.797750	0.902250	0.759230
C371	C37	0.985780	0.759980	0.954940
C381	C38	0.040770	0.759230	0.902250
C391	C39	0.454940	0.299300	0.485780
C401	C40	0.402250	0.297750	0.540770
C411	C41	0.799300	0.485780	0.954940
C421	C42	0.797750	0.540770	0.902250
C431	C43	0.259980	0.954940	0.485780
C441	C44	0.259230	0.902250	0.540770
C451	C45	0.454940	0.759980	0.299300
C461	C46	0.402250	0.759230	0.297750
C471	C47	0.985780	0.299300	0.759980
C481	C48	0.040770	0.297750	0.759230
C491	C49	0.485780	0.454940	0.259980
C501	C50	0.540770	0.402250	0.259230
C511	C51	0.954940	0.985780	0.799300
C521	C52	0.902250	0.040770	0.797750
C531	C53	0.759980	0.799300	0.985780
C541	C54	0.759230	0.797750	0.040770
C551	C55	0.299300	0.259980	0.454940
C561	C56	0.297750	0.259230	0.402250
C571	C57	0.485780	0.259980	0.799300
C581	C58	0.540770	0.259230	0.797750
C591	C59	0.954940	0.799300	0.259980
C601	C60	0.902250	0.797750	0.259230
C611	C61	0.759980	0.985780	0.454940
C621	C62	0.759230	0.040770	0.402250
C631	C63	0.299300	0.454940	0.985780
C641	C64	0.297750	0.402250	0.040770
C651	C65	0.485780	0.799300	0.454940
C661	C66	0.540770	0.797750	0.402250
C671	C67	0.954940	0.259980	0.985780
C681	C68	0.902250	0.259230	0.040770
C691	C69	0.759980	0.454940	0.799300
C701	C70	0.759230	0.402250	0.797750
C711	C71	0.299300	0.985780	0.259980
C721	C72	0.297750	0.040770	0.259230
C731	C73	0.545060	0.514220	0.240020
C741	C74	0.597750	0.459230	0.240770
C751	C75	0.014220	0.045060	0.700700
C761	C76	0.959230	0.097750	0.702250
C771	C77	0.200700	0.240020	0.514220
C781	C78	0.202250	0.240770	0.459230
C791	C79	0.740020	0.700700	0.045060
C801	C80	0.740770	0.702250	0.097750
C811	C81	0.740020	0.514220	0.700700
C821	C82	0.740770	0.459230	0.702250
C831	C83	0.200700	0.045060	0.240020
C841	C84	0.202250	0.097750	0.240770
C851	C85	0.014220	0.240020	0.045060
C861	C86	0.959230	0.240770	0.097750
C871	C87	0.545060	0.700700	0.514220
C881	C88	0.597750	0.702250	0.459230
C891	C89	0.200700	0.514220	0.045060
C901	C90	0.202250	0.459230	0.097750
C911	C91	0.740020	0.045060	0.514220
C921	C92	0.740770	0.097750	0.459230
C931	C93	0.545060	0.240020	0.700700
C941	C94	0.597750	0.240770	0.702250
C951	C95	0.014220	0.700700	0.240020
C961	C96	0.959230	0.702250	0.240770
C971	C97	0.569120	0.430880	0.750000
C981	C98	0.512160	0.487840	0.750000
C991	C99	0.930880	0.069120	0.250000
C1001	C100	0.987840	0.012160	0.250000
C1011	C101	0.250000	0.250000	0.069120
C1021	C102	0.250000	0.250000	0.012160
C1031	C103	0.750000	0.750000	0.430880
C1041	C104	0.750000	0.750000	0.487840
C1051	C105	0.569120	0.750000	0.250000
C1061	C106	0.512160	0.750000	0.250000
C1071	C107	0.930880	0.250000	0.750000
C1081	C108	0.987840	0.250000	0.750000
C1091	C109	0.250000	0.069120	0.430880
C1101	C110	0.250000	0.012160	0.487840
C1111	C111	0.750000	0.430880	0.069120
C1121	C112	0.750000	0.487840	0.012160
C1131	C113	0.569120	0.250000	0.430880
C1141	C114	0.512160	0.250000	0.487840
C1151	C115	0.930880	0.750000	0.069120
C1161	C116	0.987840	0.750000	0.012160
C1171	C117	0.250000	0.430880	0.250000
C1181	C118	0.250000	0.487840	0.250000
C1191	C119	0.750000	0.069120	0.750000
C1201	C120	0.750000	0.012160	0.750000
C1211	C121	0.430880	0.569120	0.250000
C1221	C122	0.487840	0.512160	0.250000
C1231	C123	0.069120	0.930880	0.750000
C1241	C124	0.012160	0.987840	0.750000
C1251	C125	0.750000	0.750000	0.930880
C1261	C126	0.750000	0.750000	0.987840
C1271	C127	0.250000	0.250000	0.569120
C1281	C128	0.250000	0.250000	0.512160
C1291	C129	0.430880	0.250000	0.750000
C1301	C130	0.487840	0.250000	0.750000
C1311	C131	0.069120	0.750000	0.250000
C1321	C132	0.012160	0.750000	0.250000
C1331	C133	0.750000	0.930880	0.569120
C1341	C134	0.750000	0.987840	0.512160
C1351	C135	0.250000	0.569120	0.930880
C1361	C136	0.250000	0.512160	0.987840
C1371	C137	0.430880	0.750000	0.569120
C1381	C138	0.487840	0.750000	0.512160
C1391	C139	0.069120	0.250000	0.930880
C1401	C140	0.012160	0.250000	0.987840
C1411	C141	0.750000	0.569120	0.750000
C1421	C142	0.750000	0.512160	0.750000
C1431	C143	0.250000	0.930880	0.250000
C1441	C144	0.250000	0.987840	0.250000
N11	N1	0.631820	0.339380	0.748860
N21	N2	0.573470	0.377990	0.748210
N31	N3	0.839380	0.131820	0.279940
N41	N4	0.877990	0.073470	0.300330
N51	N5	0.248860	0.279940	0.131820
N61	N6	0.248210	0.300330	0.073470
N71	N7	0.779940	0.748860	0.339380
N81	N8	0.800330	0.748210	0.377990
N91	N9	0.631820	0.748860	0.279940
N101	N10	0.573470	0.748210	0.300330
N111	N11	0.839380	0.279940	0.748860
N121	N12	0.877990	0.300330	0.748210
N131	N13	0.248860	0.131820	0.339380
N141	N14	0.248210	0.073470	0.377990
N151	N15	0.779940	0.339380	0.131820
N161	N16	0.800330	0.377990	0.073470
N171	N17	0.631820	0.279940	0.339380
N181	N18	0.573470	0.300330	0.377990
N191	N19	0.839380	0.748860	0.131820
N201	N20	0.877990	0.748210	0.073470
N211	N21	0.248860	0.339380	0.279940
N221	N22	0.248210	0.377990	0.300330
N231	N23	0.779940	0.131820	0.748860
N241	N24	0.800330	0.073470	0.748210
N251	N25	0.660620	0.368180	0.751140
N261	N26	0.622010	0.426530	0.751790
N271	N27	0.868180	0.160620	0.220060
N281	N28	0.926530	0.122010	0.199670
N291	N29	0.720060	0.751140	0.368180
N301	N30	0.699670	0.751790	0.426530
N311	N31	0.251140	0.220060	0.160620
N321	N32	0.251790	0.199670	0.122010
N331	N33	0.251140	0.368180	0.220060
N341	N34	0.251790	0.426530	0.199670
N351	N35	0.720060	0.160620	0.751140
N361	N36	0.699670	0.122010	0.751790
N371	N37	0.868180	0.751140	0.160620
N381	N38	0.926530	0.751790	0.122010
N391	N39	0.660620	0.220060	0.368180
N401	N40	0.622010	0.199670	0.426530
N411	N41	0.720060	0.368180	0.160620
N421	N42	0.699670	0.426530	0.122010
N431	N43	0.251140	0.160620	0.368180
N441	N44	0.251790	0.122010	0.426530
N451	N45	0.660620	0.751140	0.220060
N461	N46	0.622010	0.751790	0.199670
N471	N47	0.868180	0.220060	0.751140
N481	N48	0.926530	0.199670	0.751790
N491	N49	0.368180	0.660620	0.251140
N501	N50	0.426530	0.622010	0.251790
N511	N51	0.160620	0.868180	0.720060
N521	N52	0.122010	0.926530	0.699670
N531	N53	0.751140	0.720060	0.868180
N541	N54	0.751790	0.699670	0.926530
N551	N55	0.220060	0.251140	0.660620
N561	N56	0.199670	0.251790	0.622010
N571	N57	0.368180	0.251140	0.720060
N581	N58	0.426530	0.251790	0.699670
N591	N59	0.160620	0.720060	0.251140
N601	N60	0.122010	0.699670	0.251790
N611	N61	0.751140	0.868180	0.660620
N621	N62	0.751790	0.926530	0.622010
N631	N63	0.220060	0.660620	0.868180
N641	N64	0.199670	0.622010	0.926530
N651	N65	0.368180	0.720060	0.660620
N661	N66	0.426530	0.699670	0.622010
N671	N67	0.160620	0.251140	0.868180
N681	N68	0.122010	0.251790	0.926530
N691	N69	0.751140	0.660620	0.720060
N701	N70	0.751790	0.622010	0.699670
N711	N71	0.220060	0.868180	0.251140
N721	N72	0.199670	0.926530	0.251790
N731	N73	0.339380	0.631820	0.248860
N741	N74	0.377990	0.573470	0.248210
N751	N75	0.131820	0.839380	0.779940
N761	N76	0.073470	0.877990	0.800330
N771	N77	0.279940	0.248860	0.631820
N781	N78	0.300330	0.248210	0.573470
N791	N79	0.748860	0.779940	0.839380
N801	N80	0.748210	0.800330	0.877990
N811	N81	0.748860	0.631820	0.779940
N821	N82	0.748210	0.573470	0.800330
N831	N83	0.279940	0.839380	0.248860
N841	N84	0.300330	0.877990	0.248210
N851	N85	0.131820	0.248860	0.839380
N861	N86	0.073470	0.248210	0.877990
N871	N87	0.339380	0.779940	0.631820
N881	N88	0.377990	0.800330	0.573470
N891	N89	0.279940	0.631820	0.839380
N901	N90	0.300330	0.573470	0.877990
N911	N91	0.748860	0.839380	0.631820
N921	N92	0.748210	0.877990	0.573470
N931	N93	0.339380	0.248860	0.779940
N941	N94	0.377990	0.248210	0.800330
N951	N95	0.131820	0.779940	0.248860
N961	N96	0.073470	0.800330	0.248210
N971	N97	0.404720	0.595280	0.750000
N981	N98	0.095280	0.904720	0.250000
N991	N99	0.250000	0.250000	0.904720
N1001	N100	0.750000	0.750000	0.595280
N1011	N101	0.404720	0.750000	0.250000
N1021	N102	0.095280	0.250000	0.750000
N1031	N103	0.250000	0.904720	0.595280
N1041	N104	0.750000	0.595280	0.904720
N1051	N105	0.404720	0.250000	0.595280
N1061	N106	0.095280	0.750000	0.904720
N1071	N107	0.250000	0.595280	0.250000
N1081	N108	0.750000	0.904720	0.750000
N1091	N109	0.595280	0.404720	0.250000
N1101	N110	0.904720	0.095280	0.750000
N1111	N111	0.750000	0.750000	0.095280
N1121	N112	0.250000	0.250000	0.404720
N1131	N113	0.595280	0.250000	0.750000
N1141	N114	0.904720	0.750000	0.250000
N1151	N115	0.750000	0.095280	0.404720
N1161	N116	0.250000	0.404720	0.095280
N1171	N117	0.595280	0.750000	0.404720
N1181	N118	0.904720	0.250000	0.095280
N1191	N119	0.750000	0.404720	0.750000
N1201	N120	0.250000	0.095280	0.250000
O11	O1	0.750000	0.250000	0.750000
O21	O2	0.750000	0.250000	0.250000
O31	O3	0.250000	0.250000	0.250000
O41	O4	0.750000	0.750000	0.250000
O51	O5	0.250000	0.750000	0.250000
O61	O6	0.250000	0.750000	0.750000
O71	O7	0.750000	0.750000	0.750000
O81	O8	0.250000	0.250000	0.750000
