data_FURRIU_freeONLY_PM
_symmetry_space_group_name_H-M	'P1'
_cell_length_a	34.671100
_cell_length_b	34.671100
_cell_length_c	8.427300
_cell_angle_alpha	90.000000
_cell_angle_beta	90.000000
_cell_angle_gamma	120.000000
_symmetry_Int_Tables_number 1

loop_
_symmetry_equiv_pos_as_xyz
'x,y,z'

loop_
_atom_site_label
_atom_site_type_symbol
_atom_site_fract_x
_atom_site_fract_y
_atom_site_fract_z
Ag11	Ag1	0.146480	0.317400	0.508250
O11	O1	0.334310	0.327900	0.753800
N11	N1	0.205030	0.336410	0.659000
N21	N2	0.276980	0.196130	0.607000
C11	C1	0.218610	0.371500	0.757300
H11	H1	0.201800	0.386300	0.761900
C21	C2	0.256140	0.386860	0.852000
H21	H2	0.264700	0.411600	0.920200
C31	C3	0.280930	0.365830	0.846200
H31	H3	0.307200	0.376300	0.908300
C41	C4	0.266760	0.328910	0.747600
C51	C5	0.228570	0.315260	0.655800
H41	H4	0.218900	0.290100	0.588500
C61	C6	0.294050	0.306580	0.737700
C71	C7	0.271140	0.257320	0.712400
C81	C8	0.230440	0.228130	0.781300
H51	H5	0.214400	0.239000	0.839700
C91	C9	0.213700	0.182810	0.762900
H61	H6	0.186100	0.162000	0.810100
C101	C10	0.237480	0.168260	0.675300
H71	H7	0.225500	0.137100	0.662300
C111	C11	0.293340	0.239870	0.626900
H81	H8	0.321300	0.259900	0.580700
Ag21	Ag2	0.813140	0.650740	0.841580
O21	O2	0.000980	0.661230	0.087130
N31	N3	0.871700	0.669740	0.992330
N41	N4	0.943650	0.529460	0.940330
C121	C12	0.885280	0.704830	0.090630
H91	H9	0.868470	0.719630	0.095230
C131	C13	0.922810	0.720190	0.185330
H101	H10	0.931370	0.744930	0.253530
C141	C14	0.947600	0.699160	0.179530
H111	H11	0.973870	0.709630	0.241630
C151	C15	0.933430	0.662240	0.080930
C161	C16	0.895240	0.648590	0.989130
H121	H12	0.885570	0.623430	0.921830
C171	C17	0.960720	0.639910	0.071030
C181	C18	0.937810	0.590650	0.045730
C191	C19	0.897110	0.561460	0.114630
H131	H13	0.881070	0.572330	0.173030
C201	C20	0.880370	0.516140	0.096230
H141	H14	0.852770	0.495330	0.143430
C211	C21	0.904150	0.501590	0.008630
H151	H15	0.892170	0.470430	0.995630
C221	C22	0.960010	0.573200	0.960230
H161	H16	0.987970	0.593230	0.914030
Ag31	Ag3	0.479810	0.984070	0.174920
O31	O3	0.667640	0.994570	0.420470
N51	N5	0.538360	0.003080	0.325670
N61	N6	0.610310	0.862800	0.273670
C231	C23	0.551940	0.038170	0.423970
H171	H17	0.535130	0.052970	0.428570
C241	C24	0.589470	0.053530	0.518670
H181	H18	0.598030	0.078270	0.586870
C251	C25	0.614260	0.032500	0.512870
H191	H19	0.640530	0.042970	0.574970
C261	C26	0.600090	0.995580	0.414270
C271	C27	0.561900	0.981930	0.322470
H201	H20	0.552230	0.956770	0.255170
C281	C28	0.627380	0.973250	0.404370
C291	C29	0.604470	0.923990	0.379070
C301	C30	0.563770	0.894800	0.447970
H211	H21	0.547730	0.905670	0.506370
C311	C31	0.547030	0.849480	0.429570
H221	H22	0.519430	0.828670	0.476770
C321	C32	0.570810	0.834930	0.341970
H231	H23	0.558830	0.803770	0.328970
C331	C33	0.626670	0.906540	0.293570
H241	H24	0.654630	0.926570	0.247370
Ag41	Ag4	0.682600	0.829070	0.508250
O41	O4	0.672100	0.006410	0.753800
N71	N7	0.663590	0.868620	0.659000
N81	N8	0.803870	0.080850	0.607000
C341	C34	0.628500	0.847110	0.757300
H251	H25	0.613700	0.815500	0.761900
C351	C35	0.613140	0.869280	0.852000
H261	H26	0.588400	0.853100	0.920200
C361	C36	0.634170	0.915100	0.846200
H271	H27	0.623700	0.930900	0.908300
C371	C37	0.671090	0.937850	0.747600
C381	C38	0.684740	0.913310	0.655800
H281	H28	0.709900	0.928800	0.588500
C391	C39	0.693420	0.987470	0.737700
C401	C40	0.742680	0.013820	0.712400
C411	C41	0.771870	0.002310	0.781300
H291	H29	0.761000	0.975400	0.839700
C421	C42	0.817190	0.030890	0.762900
H301	H30	0.838000	0.024100	0.810100
C431	C43	0.831740	0.069220	0.675300
H311	H31	0.862900	0.088400	0.662300
C441	C44	0.760130	0.053470	0.626900
H321	H32	0.740100	0.061400	0.580700
Ag51	Ag5	0.349260	0.162410	0.841580
O51	O5	0.338770	0.339740	0.087130
N91	N9	0.330260	0.201950	0.992330
N101	N10	0.470540	0.414180	0.940330
C451	C45	0.295170	0.180440	0.090630
H331	H33	0.280370	0.148830	0.095230
C461	C46	0.279810	0.202610	0.185330
H341	H34	0.255070	0.186430	0.253530
C471	C47	0.300840	0.248430	0.179530
H351	H35	0.290370	0.264230	0.241630
C481	C48	0.337760	0.271180	0.080930
C491	C49	0.351410	0.246640	0.989130
H361	H36	0.376570	0.262130	0.921830
C501	C50	0.360090	0.320800	0.071030
C511	C51	0.409350	0.347150	0.045730
C521	C52	0.438540	0.335640	0.114630
H371	H37	0.427670	0.308730	0.173030
C531	C53	0.483860	0.364220	0.096230
H381	H38	0.504670	0.357430	0.143430
C541	C54	0.498410	0.402550	0.008630
H391	H39	0.529570	0.421730	0.995630
C551	C55	0.426800	0.386800	0.960230
H401	H40	0.406770	0.394730	0.914030
Ag61	Ag6	0.015930	0.495740	0.174920
O61	O6	0.005430	0.673080	0.420470
N111	N11	0.996920	0.535290	0.325670
N121	N12	0.137200	0.747520	0.273670
C561	C56	0.961830	0.513780	0.423970
H411	H41	0.947030	0.482170	0.428570
C571	C57	0.946470	0.535950	0.518670
H421	H42	0.921730	0.519770	0.586870
C581	C58	0.967500	0.581770	0.512870
H431	H43	0.957030	0.597570	0.574970
C591	C59	0.004420	0.604520	0.414270
C601	C60	0.018070	0.579980	0.322470
H441	H44	0.043230	0.595470	0.255170
C611	C61	0.026750	0.654140	0.404370
C621	C62	0.076010	0.680490	0.379070
C631	C63	0.105200	0.668980	0.447970
H451	H45	0.094330	0.642070	0.506370
C641	C64	0.150520	0.697560	0.429570
H461	H46	0.171330	0.690770	0.476770
C651	C65	0.165070	0.735890	0.341970
H471	H47	0.196230	0.755070	0.328970
C661	C66	0.093460	0.720140	0.293570
H481	H48	0.073430	0.728070	0.247370
Ag71	Ag7	0.170930	0.853520	0.508250
O71	O7	0.993590	0.665690	0.753800
N131	N13	0.131380	0.794970	0.659000
N141	N14	0.919150	0.723020	0.607000
C671	C67	0.152890	0.781390	0.757300
H491	H49	0.184500	0.798200	0.761900
C681	C68	0.130720	0.743860	0.852000
H501	H50	0.146900	0.735300	0.920200
C691	C69	0.084900	0.719070	0.846200
H511	H51	0.069100	0.692800	0.908300
C701	C70	0.062150	0.733240	0.747600
C711	C71	0.086690	0.771430	0.655800
H521	H52	0.071200	0.781100	0.588500
C721	C72	0.012530	0.705950	0.737700
C731	C73	0.986180	0.728860	0.712400
C741	C74	0.997690	0.769560	0.781300
H531	H53	0.024600	0.785600	0.839700
C751	C75	0.969110	0.786300	0.762900
H541	H54	0.975900	0.813900	0.810100
C761	C76	0.930780	0.762520	0.675300
H551	H55	0.911600	0.774500	0.662300
C771	C77	0.946530	0.706660	0.626900
H561	H56	0.938600	0.678700	0.580700
Ag81	Ag8	0.837590	0.186860	0.841580
O81	O8	0.660260	0.999020	0.087130
N151	N15	0.798050	0.128300	0.992330
N161	N16	0.585820	0.056350	0.940330
C781	C78	0.819560	0.114720	0.090630
H571	H57	0.851170	0.131530	0.095230
C791	C79	0.797390	0.077190	0.185330
H581	H58	0.813570	0.068630	0.253530
C801	C80	0.751570	0.052400	0.179530
H591	H59	0.735770	0.026130	0.241630
C811	C81	0.728820	0.066570	0.080930
C821	C82	0.753360	0.104760	0.989130
H601	H60	0.737870	0.114430	0.921830
C831	C83	0.679200	0.039280	0.071030
C841	C84	0.652850	0.062190	0.045730
C851	C85	0.664360	0.102890	0.114630
H611	H61	0.691270	0.118930	0.173030
C861	C86	0.635780	0.119630	0.096230
H621	H62	0.642570	0.147230	0.143430
C871	C87	0.597450	0.095850	0.008630
H631	H63	0.578270	0.107830	0.995630
C881	C88	0.613200	0.039990	0.960230
H641	H64	0.605270	0.012030	0.914030
Ag91	Ag9	0.504260	0.520190	0.174920
O91	O9	0.326920	0.332360	0.420470
N171	N17	0.464710	0.461640	0.325670
N181	N18	0.252480	0.389690	0.273670
C891	C89	0.486220	0.448060	0.423970
H651	H65	0.517830	0.464870	0.428570
C901	C90	0.464050	0.410530	0.518670
H661	H66	0.480230	0.401970	0.586870
C911	C91	0.418230	0.385740	0.512870
H671	H67	0.402430	0.359470	0.574970
C921	C92	0.395480	0.399910	0.414270
C931	C93	0.420020	0.438100	0.322470
H681	H68	0.404530	0.447770	0.255170
C941	C94	0.345860	0.372620	0.404370
C951	C95	0.319510	0.395530	0.379070
C961	C96	0.331020	0.436230	0.447970
H691	H69	0.357930	0.452270	0.506370
C971	C97	0.302440	0.452970	0.429570
H701	H70	0.309230	0.480570	0.476770
C981	C98	0.264110	0.429190	0.341970
H711	H71	0.244930	0.441170	0.328970
C991	C99	0.279860	0.373330	0.293570
H721	H72	0.271930	0.345370	0.247370
Ag101	Ag10	0.853520	0.682600	0.491750
O101	O10	0.665690	0.672100	0.246200
N191	N19	0.794970	0.663590	0.341000
N201	N20	0.723020	0.803870	0.393000
C1001	C100	0.781390	0.628500	0.242700
H731	H73	0.798200	0.613700	0.238100
C1011	C101	0.743860	0.613140	0.148000
H741	H74	0.735300	0.588400	0.079800
C1021	C102	0.719070	0.634170	0.153800
H751	H75	0.692800	0.623700	0.091700
C1031	C103	0.733240	0.671090	0.252400
C1041	C104	0.771430	0.684740	0.344200
H761	H76	0.781100	0.709900	0.411500
C1051	C105	0.705950	0.693420	0.262300
C1061	C106	0.728860	0.742680	0.287600
C1071	C107	0.769560	0.771870	0.218700
H771	H77	0.785600	0.761000	0.160300
C1081	C108	0.786300	0.817190	0.237100
H781	H78	0.813900	0.838000	0.189900
C1091	C109	0.762520	0.831740	0.324700
H791	H79	0.774500	0.862900	0.337700
C1101	C110	0.706660	0.760130	0.373100
H801	H80	0.678700	0.740100	0.419300
Ag111	Ag11	0.520190	0.015930	0.825080
O111	O11	0.332360	0.005430	0.579530
N211	N21	0.461640	0.996920	0.674330
N221	N22	0.389690	0.137200	0.726330
C1111	C111	0.448060	0.961830	0.576030
H811	H81	0.464870	0.947030	0.571430
C1121	C112	0.410530	0.946470	0.481330
H821	H82	0.401970	0.921730	0.413130
C1131	C113	0.385740	0.967500	0.487130
H831	H83	0.359470	0.957030	0.425030
C1141	C114	0.399910	0.004420	0.585730
C1151	C115	0.438100	0.018070	0.677530
H841	H84	0.447770	0.043230	0.744830
C1161	C116	0.372620	0.026750	0.595630
C1171	C117	0.395530	0.076010	0.620930
C1181	C118	0.436230	0.105200	0.552030
H851	H85	0.452270	0.094330	0.493630
C1191	C119	0.452970	0.150520	0.570430
H861	H86	0.480570	0.171330	0.523230
C1201	C120	0.429190	0.165070	0.658030
H871	H87	0.441170	0.196230	0.671030
C1211	C121	0.373330	0.093460	0.706430
H881	H88	0.345370	0.073430	0.752630
Ag121	Ag12	0.186860	0.349260	0.158420
O121	O12	0.999020	0.338770	0.912870
N231	N23	0.128300	0.330260	0.007670
N241	N24	0.056350	0.470540	0.059670
C1221	C122	0.114720	0.295170	0.909370
H891	H89	0.131530	0.280370	0.904770
C1231	C123	0.077190	0.279810	0.814670
H901	H90	0.068630	0.255070	0.746470
C1241	C124	0.052400	0.300840	0.820470
H911	H91	0.026130	0.290370	0.758370
C1251	C125	0.066570	0.337760	0.919070
C1261	C126	0.104760	0.351410	0.010870
H921	H92	0.114430	0.376570	0.078170
C1271	C127	0.039280	0.360090	0.928970
C1281	C128	0.062190	0.409350	0.954270
C1291	C129	0.102890	0.438540	0.885370
H931	H93	0.118930	0.427670	0.826970
C1301	C130	0.119630	0.483860	0.903770
H941	H94	0.147230	0.504670	0.856570
C1311	C131	0.095850	0.498410	0.991370
H951	H95	0.107830	0.529570	0.004370
C1321	C132	0.039990	0.426800	0.039770
H961	H96	0.012030	0.406770	0.085970
Ag131	Ag13	0.317400	0.170930	0.491750
O131	O13	0.327900	0.993590	0.246200
N251	N25	0.336410	0.131380	0.341000
N261	N26	0.196130	0.919150	0.393000
C1331	C133	0.371500	0.152890	0.242700
H971	H97	0.386300	0.184500	0.238100
C1341	C134	0.386860	0.130720	0.148000
H981	H98	0.411600	0.146900	0.079800
C1351	C135	0.365830	0.084900	0.153800
H991	H99	0.376300	0.069100	0.091700
C1361	C136	0.328910	0.062150	0.252400
C1371	C137	0.315260	0.086690	0.344200
H1001	H100	0.290100	0.071200	0.411500
C1381	C138	0.306580	0.012530	0.262300
C1391	C139	0.257320	0.986180	0.287600
C1401	C140	0.228130	0.997690	0.218700
H1011	H101	0.239000	0.024600	0.160300
C1411	C141	0.182810	0.969110	0.237100
H1021	H102	0.162000	0.975900	0.189900
C1421	C142	0.168260	0.930780	0.324700
H1031	H103	0.137100	0.911600	0.337700
C1431	C143	0.239870	0.946530	0.373100
H1041	H104	0.259900	0.938600	0.419300
Ag141	Ag14	0.984070	0.504260	0.825080
O141	O14	0.994570	0.326920	0.579530
N271	N27	0.003080	0.464710	0.674330
N281	N28	0.862800	0.252480	0.726330
C1441	C144	0.038170	0.486220	0.576030
H1051	H105	0.052970	0.517830	0.571430
C1451	C145	0.053530	0.464050	0.481330
H1061	H106	0.078270	0.480230	0.413130
C1461	C146	0.032500	0.418230	0.487130
H1071	H107	0.042970	0.402430	0.425030
C1471	C147	0.995580	0.395480	0.585730
C1481	C148	0.981930	0.420020	0.677530
H1081	H108	0.956770	0.404530	0.744830
C1491	C149	0.973250	0.345860	0.595630
C1501	C150	0.923990	0.319510	0.620930
C1511	C151	0.894800	0.331020	0.552030
H1091	H109	0.905670	0.357930	0.493630
C1521	C152	0.849480	0.302440	0.570430
H1101	H110	0.828670	0.309230	0.523230
C1531	C153	0.834930	0.264110	0.658030
H1111	H111	0.803770	0.244930	0.671030
C1541	C154	0.906540	0.279860	0.706430
H1121	H112	0.926570	0.271930	0.752630
Ag151	Ag15	0.650740	0.837590	0.158420
O151	O15	0.661230	0.660260	0.912870
N291	N29	0.669740	0.798050	0.007670
N301	N30	0.529460	0.585820	0.059670
C1551	C155	0.704830	0.819560	0.909370
H1131	H113	0.719630	0.851170	0.904770
C1561	C156	0.720190	0.797390	0.814670
H1141	H114	0.744930	0.813570	0.746470
C1571	C157	0.699160	0.751570	0.820470
H1151	H115	0.709630	0.735770	0.758370
C1581	C158	0.662240	0.728820	0.919070
C1591	C159	0.648590	0.753360	0.010870
H1161	H116	0.623430	0.737870	0.078170
C1601	C160	0.639910	0.679200	0.928970
C1611	C161	0.590650	0.652850	0.954270
C1621	C162	0.561460	0.664360	0.885370
H1171	H117	0.572330	0.691270	0.826970
C1631	C163	0.516140	0.635780	0.903770
H1181	H118	0.495330	0.642570	0.856570
C1641	C164	0.501590	0.597450	0.991370
H1191	H119	0.470430	0.578270	0.004370
C1651	C165	0.573200	0.613200	0.039770
H1201	H120	0.593230	0.605270	0.085970
Ag161	Ag16	0.829070	0.146480	0.491750
O161	O16	0.006410	0.334310	0.246200
N311	N31	0.868620	0.205030	0.341000
N321	N32	0.080850	0.276980	0.393000
C1661	C166	0.847110	0.218610	0.242700
H1211	H121	0.815500	0.201800	0.238100
C1671	C167	0.869280	0.256140	0.148000
H1221	H122	0.853100	0.264700	0.079800
C1681	C168	0.915100	0.280930	0.153800
H1231	H123	0.930900	0.307200	0.091700
C1691	C169	0.937850	0.266760	0.252400
C1701	C170	0.913310	0.228570	0.344200
H1241	H124	0.928800	0.218900	0.411500
C1711	C171	0.987470	0.294050	0.262300
C1721	C172	0.013820	0.271140	0.287600
C1731	C173	0.002310	0.230440	0.218700
H1251	H125	0.975400	0.214400	0.160300
C1741	C174	0.030890	0.213700	0.237100
H1261	H126	0.024100	0.186100	0.189900
C1751	C175	0.069220	0.237480	0.324700
H1271	H127	0.088400	0.225500	0.337700
C1761	C176	0.053470	0.293340	0.373100
H1281	H128	0.061400	0.321300	0.419300
Ag171	Ag17	0.495740	0.479810	0.825080
O171	O17	0.673080	0.667640	0.579530
N331	N33	0.535290	0.538360	0.674330
N341	N34	0.747520	0.610310	0.726330
C1771	C177	0.513780	0.551940	0.576030
H1291	H129	0.482170	0.535130	0.571430
C1781	C178	0.535950	0.589470	0.481330
H1301	H130	0.519770	0.598030	0.413130
C1791	C179	0.581770	0.614260	0.487130
H1311	H131	0.597570	0.640530	0.425030
C1801	C180	0.604520	0.600090	0.585730
C1811	C181	0.579980	0.561900	0.677530
H1321	H132	0.595470	0.552230	0.744830
C1821	C182	0.654140	0.627380	0.595630
C1831	C183	0.680490	0.604470	0.620930
C1841	C184	0.668980	0.563770	0.552030
H1331	H133	0.642070	0.547730	0.493630
C1851	C185	0.697560	0.547030	0.570430
H1341	H134	0.690770	0.519430	0.523230
C1861	C186	0.735890	0.570810	0.658030
H1351	H135	0.755070	0.558830	0.671030
C1871	C187	0.720140	0.626670	0.706430
H1361	H136	0.728070	0.654630	0.752630
Ag181	Ag18	0.162410	0.813140	0.158420
O181	O18	0.339740	0.000980	0.912870
N351	N35	0.201950	0.871700	0.007670
N361	N36	0.414180	0.943650	0.059670
C1881	C188	0.180440	0.885280	0.909370
H1371	H137	0.148830	0.868470	0.904770
C1891	C189	0.202610	0.922810	0.814670
H1381	H138	0.186430	0.931370	0.746470
C1901	C190	0.248430	0.947600	0.820470
H1391	H139	0.264230	0.973870	0.758370
C1911	C191	0.271180	0.933430	0.919070
C1921	C192	0.246640	0.895240	0.010870
H1401	H140	0.262130	0.885570	0.078170
C1931	C193	0.320800	0.960720	0.928970
C1941	C194	0.347150	0.937810	0.954270
C1951	C195	0.335640	0.897110	0.885370
H1411	H141	0.308730	0.881070	0.826970
C1961	C196	0.364220	0.880370	0.903770
H1421	H142	0.357430	0.852770	0.856570
C1971	C197	0.402550	0.904150	0.991370
H1431	H143	0.421730	0.892170	0.004370
C1981	C198	0.386800	0.960010	0.039770
H1441	H144	0.394730	0.987970	0.085970
