data_FURREQ_freeONLY_PM
_symmetry_space_group_name_H-M	'P1'
_cell_length_a	33.496800
_cell_length_b	33.496800
_cell_length_c	8.516400
_cell_angle_alpha	90.000000
_cell_angle_beta	90.000000
_cell_angle_gamma	120.000000
_symmetry_Int_Tables_number 1

loop_
_symmetry_equiv_pos_as_xyz
'x,y,z'

loop_
_atom_site_label
_atom_site_type_symbol
_atom_site_fract_x
_atom_site_fract_y
_atom_site_fract_z
Ag11	Ag1	0.147250	0.323070	0.503080
O11	O1	0.336760	0.333060	0.784900
N11	N1	0.206780	0.344460	0.658800
N21	N2	0.281520	0.199600	0.621700
C11	C1	0.217910	0.378840	0.762500
H11	H1	0.200700	0.394300	0.761900
C21	C2	0.253500	0.392510	0.870000
H21	H2	0.260200	0.416600	0.942500
C31	C3	0.278910	0.370430	0.869700
H31	H3	0.304100	0.379700	0.939700
C41	C4	0.267000	0.334320	0.764900
C51	C5	0.230830	0.322340	0.663100
H41	H4	0.222600	0.297400	0.592900
C61	C6	0.295140	0.311020	0.760200
C71	C7	0.272190	0.260800	0.728300
C81	C8	0.228400	0.229900	0.777500
H51	H5	0.210000	0.240100	0.829500
C91	C9	0.211400	0.183300	0.749900
H61	H6	0.181500	0.161200	0.784800
C101	C10	0.238300	0.169650	0.672000
H71	H7	0.226000	0.137700	0.652300
C111	C11	0.297630	0.244040	0.650900
H81	H8	0.328000	0.265500	0.617400
Ag21	Ag2	0.813920	0.656400	0.836410
O21	O2	0.003430	0.666390	0.118230
N31	N3	0.873450	0.677790	0.992130
N41	N4	0.948190	0.532930	0.955030
C121	C12	0.884580	0.712170	0.095830
H91	H9	0.867370	0.727630	0.095230
C131	C13	0.920170	0.725840	0.203330
H101	H10	0.926870	0.749930	0.275830
C141	C14	0.945580	0.703760	0.203030
H111	H11	0.970770	0.713030	0.273030
C151	C15	0.933670	0.667650	0.098230
C161	C16	0.897500	0.655670	0.996430
H121	H12	0.889270	0.630730	0.926230
C171	C17	0.961810	0.644350	0.093530
C181	C18	0.938860	0.594130	0.061630
C191	C19	0.895070	0.563230	0.110830
H131	H13	0.876670	0.573430	0.162830
C201	C20	0.878070	0.516630	0.083230
H141	H14	0.848170	0.494530	0.118130
C211	C21	0.904970	0.502980	0.005330
H151	H15	0.892670	0.471030	0.985630
C221	C22	0.964300	0.577370	0.984230
H161	H16	0.994670	0.598830	0.950730
Ag31	Ag3	0.480590	0.989730	0.169750
O31	O3	0.670090	0.999730	0.451570
N51	N5	0.540110	0.011130	0.325470
N61	N6	0.614850	0.866270	0.288370
C231	C23	0.551240	0.045510	0.429170
H171	H17	0.534030	0.060970	0.428570
C241	C24	0.586830	0.059180	0.536670
H181	H18	0.593530	0.083270	0.609170
C251	C25	0.612240	0.037100	0.536370
H191	H19	0.637430	0.046370	0.606370
C261	C26	0.600330	0.000990	0.431570
C271	C27	0.564160	0.989010	0.329770
H201	H20	0.555930	0.964070	0.259570
C281	C28	0.628470	0.977690	0.426870
C291	C29	0.605520	0.927470	0.394970
C301	C30	0.561730	0.896570	0.444170
H211	H21	0.543330	0.906770	0.496170
C311	C31	0.544730	0.849970	0.416570
H221	H22	0.514830	0.827870	0.451470
C321	C32	0.571630	0.836320	0.338670
H231	H23	0.559330	0.804370	0.318970
C331	C33	0.630960	0.910710	0.317570
H241	H24	0.661330	0.932170	0.284070
Ag41	Ag4	0.676930	0.824190	0.503080
O41	O4	0.666940	0.003700	0.784900
N71	N7	0.655540	0.862320	0.658800
N81	N8	0.800400	0.081920	0.621700
C341	C34	0.621160	0.839070	0.762500
H251	H25	0.605700	0.806400	0.761900
C351	C35	0.607490	0.860990	0.870000
H261	H26	0.583400	0.843600	0.942500
C361	C36	0.629570	0.908480	0.869700
H271	H27	0.620300	0.924400	0.939700
C371	C37	0.665680	0.932680	0.764900
C381	C38	0.677660	0.908490	0.663100
H281	H28	0.702600	0.925200	0.592900
C391	C39	0.688980	0.984120	0.760200
C401	C40	0.739200	0.011390	0.728300
C411	C41	0.770100	0.998500	0.777500
H291	H29	0.759900	0.969900	0.829500
C421	C42	0.816700	0.028100	0.749900
H301	H30	0.838800	0.020300	0.784800
C431	C43	0.830350	0.068650	0.672000
H311	H31	0.862300	0.088300	0.652300
C441	C44	0.755960	0.053590	0.650900
H321	H32	0.734500	0.062500	0.617400
Ag51	Ag5	0.343600	0.157520	0.836410
O51	O5	0.333610	0.337030	0.118230
N91	N9	0.322210	0.195650	0.992130
N101	N10	0.467070	0.415250	0.955030
C451	C45	0.287830	0.172400	0.095830
H331	H33	0.272370	0.139730	0.095230
C461	C46	0.274160	0.194320	0.203330
H341	H34	0.250070	0.176930	0.275830
C471	C47	0.296240	0.241810	0.203030
H351	H35	0.286970	0.257730	0.273030
C481	C48	0.332350	0.266010	0.098230
C491	C49	0.344330	0.241820	0.996430
H361	H36	0.369270	0.258530	0.926230
C501	C50	0.355650	0.317450	0.093530
C511	C51	0.405870	0.344720	0.061630
C521	C52	0.436770	0.331830	0.110830
H371	H37	0.426570	0.303230	0.162830
C531	C53	0.483370	0.361430	0.083230
H381	H38	0.505470	0.353630	0.118130
C541	C54	0.497020	0.401980	0.005330
H391	H39	0.528970	0.421630	0.985630
C551	C55	0.422630	0.386920	0.984230
H401	H40	0.401170	0.395830	0.950730
Ag61	Ag6	0.010270	0.490850	0.169750
O61	O6	0.000270	0.670370	0.451570
N111	N11	0.988870	0.528990	0.325470
N121	N12	0.133730	0.748590	0.288370
C561	C56	0.954490	0.505740	0.429170
H411	H41	0.939030	0.473070	0.428570
C571	C57	0.940820	0.527660	0.536670
H421	H42	0.916730	0.510270	0.609170
C581	C58	0.962900	0.575150	0.536370
H431	H43	0.953630	0.591070	0.606370
C591	C59	0.999010	0.599350	0.431570
C601	C60	0.010990	0.575160	0.329770
H441	H44	0.035930	0.591870	0.259570
C611	C61	0.022310	0.650790	0.426870
C621	C62	0.072530	0.678060	0.394970
C631	C63	0.103430	0.665170	0.444170
H451	H45	0.093230	0.636570	0.496170
C641	C64	0.150030	0.694770	0.416570
H461	H46	0.172130	0.686970	0.451470
C651	C65	0.163680	0.735320	0.338670
H471	H47	0.195630	0.754970	0.318970
C661	C66	0.089290	0.720260	0.317570
H481	H48	0.067830	0.729170	0.284070
Ag71	Ag7	0.175810	0.852750	0.503080
O71	O7	0.996300	0.663240	0.784900
N131	N13	0.137680	0.793220	0.658800
N141	N14	0.918080	0.718480	0.621700
C671	C67	0.160930	0.782090	0.762500
H491	H49	0.193600	0.799300	0.761900
C681	C68	0.139010	0.746500	0.870000
H501	H50	0.156400	0.739800	0.942500
C691	C69	0.091520	0.721090	0.869700
H511	H51	0.075600	0.695900	0.939700
C701	C70	0.067320	0.733000	0.764900
C711	C71	0.091510	0.769170	0.663100
H521	H52	0.074800	0.777400	0.592900
C721	C72	0.015880	0.704860	0.760200
C731	C73	0.988610	0.727810	0.728300
C741	C74	0.001500	0.771600	0.777500
H531	H53	0.030100	0.790000	0.829500
C751	C75	0.971900	0.788600	0.749900
H541	H54	0.979700	0.818500	0.784800
C761	C76	0.931350	0.761700	0.672000
H551	H55	0.911700	0.774000	0.652300
C771	C77	0.946410	0.702370	0.650900
H561	H56	0.937500	0.672000	0.617400
Ag81	Ag8	0.842480	0.186080	0.836410
O81	O8	0.662970	0.996570	0.118230
N151	N15	0.804350	0.126550	0.992130
N161	N16	0.584750	0.051810	0.955030
C781	C78	0.827600	0.115420	0.095830
H571	H57	0.860270	0.132630	0.095230
C791	C79	0.805680	0.079830	0.203330
H581	H58	0.823070	0.073130	0.275830
C801	C80	0.758190	0.054420	0.203030
H591	H59	0.742270	0.029230	0.273030
C811	C81	0.733990	0.066330	0.098230
C821	C82	0.758180	0.102500	0.996430
H601	H60	0.741470	0.110730	0.926230
C831	C83	0.682550	0.038190	0.093530
C841	C84	0.655280	0.061140	0.061630
C851	C85	0.668170	0.104930	0.110830
H611	H61	0.696770	0.123330	0.162830
C861	C86	0.638570	0.121930	0.083230
H621	H62	0.646370	0.151830	0.118130
C871	C87	0.598020	0.095030	0.005330
H631	H63	0.578370	0.107330	0.985630
C881	C88	0.613080	0.035700	0.984230
H641	H64	0.604170	0.005330	0.950730
Ag91	Ag9	0.509150	0.519410	0.169750
O91	O9	0.329630	0.329910	0.451570
N171	N17	0.471010	0.459890	0.325470
N181	N18	0.251410	0.385150	0.288370
C891	C89	0.494260	0.448760	0.429170
H651	H65	0.526930	0.465970	0.428570
C901	C90	0.472340	0.413170	0.536670
H661	H66	0.489730	0.406470	0.609170
C911	C91	0.424850	0.387760	0.536370
H671	H67	0.408930	0.362570	0.606370
C921	C92	0.400650	0.399670	0.431570
C931	C93	0.424840	0.435840	0.329770
H681	H68	0.408130	0.444070	0.259570
C941	C94	0.349210	0.371530	0.426870
C951	C95	0.321940	0.394480	0.394970
C961	C96	0.334830	0.438270	0.444170
H691	H69	0.363430	0.456670	0.496170
C971	C97	0.305230	0.455270	0.416570
H701	H70	0.313030	0.485170	0.451470
C981	C98	0.264680	0.428370	0.338670
H711	H71	0.245030	0.440670	0.318970
C991	C99	0.279740	0.369040	0.317570
H721	H72	0.270830	0.338670	0.284070
Ag101	Ag10	0.852740	0.676930	0.496920
O101	O10	0.663240	0.666940	0.215100
N191	N19	0.793220	0.655540	0.341200
N201	N20	0.718480	0.800400	0.378300
C1001	C100	0.782090	0.621160	0.237500
H731	H73	0.799300	0.605700	0.238100
C1011	C101	0.746500	0.607490	0.130000
H741	H74	0.739800	0.583400	0.057500
C1021	C102	0.721090	0.629570	0.130300
H751	H75	0.695900	0.620300	0.060300
C1031	C103	0.733000	0.665680	0.235100
C1041	C104	0.769170	0.677660	0.336900
H761	H76	0.777400	0.702600	0.407100
C1051	C105	0.704860	0.688980	0.239800
C1061	C106	0.727810	0.739200	0.271700
C1071	C107	0.771600	0.770100	0.222500
H771	H77	0.790000	0.759900	0.170500
C1081	C108	0.788600	0.816700	0.250100
H781	H78	0.818500	0.838800	0.215200
C1091	C109	0.761700	0.830350	0.328000
H791	H79	0.774000	0.862300	0.347700
C1101	C110	0.702370	0.755960	0.349100
H801	H80	0.672000	0.734500	0.382600
Ag111	Ag11	0.519410	0.010270	0.830250
O111	O11	0.329910	0.000270	0.548430
N211	N21	0.459890	0.988870	0.674530
N221	N22	0.385150	0.133730	0.711630
C1111	C111	0.448760	0.954490	0.570830
H811	H81	0.465970	0.939030	0.571430
C1121	C112	0.413170	0.940820	0.463330
H821	H82	0.406470	0.916730	0.390830
C1131	C113	0.387760	0.962900	0.463630
H831	H83	0.362570	0.953630	0.393630
C1141	C114	0.399670	0.999010	0.568430
C1151	C115	0.435840	0.010990	0.670230
H841	H84	0.444070	0.035930	0.740430
C1161	C116	0.371530	0.022310	0.573130
C1171	C117	0.394480	0.072530	0.605030
C1181	C118	0.438270	0.103430	0.555830
H851	H85	0.456670	0.093230	0.503830
C1191	C119	0.455270	0.150030	0.583430
H861	H86	0.485170	0.172130	0.548530
C1201	C120	0.428370	0.163680	0.661330
H871	H87	0.440670	0.195630	0.681030
C1211	C121	0.369040	0.089290	0.682430
H881	H88	0.338670	0.067830	0.715930
Ag121	Ag12	0.186080	0.343600	0.163590
O121	O12	0.996570	0.333610	0.881770
N231	N23	0.126550	0.322210	0.007870
N241	N24	0.051810	0.467070	0.044970
C1221	C122	0.115420	0.287830	0.904170
H891	H89	0.132630	0.272370	0.904770
C1231	C123	0.079830	0.274160	0.796670
H901	H90	0.073130	0.250070	0.724170
C1241	C124	0.054420	0.296240	0.796970
H911	H91	0.029230	0.286970	0.726970
C1251	C125	0.066330	0.332350	0.901770
C1261	C126	0.102500	0.344330	0.003570
H921	H92	0.110730	0.369270	0.073770
C1271	C127	0.038190	0.355650	0.906470
C1281	C128	0.061140	0.405870	0.938370
C1291	C129	0.104930	0.436770	0.889170
H931	H93	0.123330	0.426570	0.837170
C1301	C130	0.121930	0.483370	0.916770
H941	H94	0.151830	0.505470	0.881870
C1311	C131	0.095030	0.497020	0.994670
H951	H95	0.107330	0.528970	0.014370
C1321	C132	0.035700	0.422630	0.015770
H961	H96	0.005330	0.401170	0.049270
Ag131	Ag13	0.323070	0.175810	0.496920
O131	O13	0.333060	0.996300	0.215100
N251	N25	0.344460	0.137680	0.341200
N261	N26	0.199600	0.918080	0.378300
C1331	C133	0.378840	0.160930	0.237500
H971	H97	0.394300	0.193600	0.238100
C1341	C134	0.392510	0.139010	0.130000
H981	H98	0.416600	0.156400	0.057500
C1351	C135	0.370430	0.091520	0.130300
H991	H99	0.379700	0.075600	0.060300
C1361	C136	0.334320	0.067320	0.235100
C1371	C137	0.322340	0.091510	0.336900
H1001	H100	0.297400	0.074800	0.407100
C1381	C138	0.311020	0.015880	0.239800
C1391	C139	0.260800	0.988610	0.271700
C1401	C140	0.229900	0.001500	0.222500
H1011	H101	0.240100	0.030100	0.170500
C1411	C141	0.183300	0.971900	0.250100
H1021	H102	0.161200	0.979700	0.215200
C1421	C142	0.169650	0.931350	0.328000
H1031	H103	0.137700	0.911700	0.347700
C1431	C143	0.244040	0.946410	0.349100
H1041	H104	0.265500	0.937500	0.382600
Ag141	Ag14	0.989730	0.509150	0.830250
O141	O14	0.999730	0.329630	0.548430
N271	N27	0.011130	0.471010	0.674530
N281	N28	0.866270	0.251410	0.711630
C1441	C144	0.045510	0.494260	0.570830
H1051	H105	0.060970	0.526930	0.571430
C1451	C145	0.059180	0.472340	0.463330
H1061	H106	0.083270	0.489730	0.390830
C1461	C146	0.037100	0.424850	0.463630
H1071	H107	0.046370	0.408930	0.393630
C1471	C147	0.000990	0.400650	0.568430
C1481	C148	0.989010	0.424840	0.670230
H1081	H108	0.964070	0.408130	0.740430
C1491	C149	0.977690	0.349210	0.573130
C1501	C150	0.927470	0.321940	0.605030
C1511	C151	0.896570	0.334830	0.555830
H1091	H109	0.906770	0.363430	0.503830
C1521	C152	0.849970	0.305230	0.583430
H1101	H110	0.827870	0.313030	0.548530
C1531	C153	0.836320	0.264680	0.661330
H1111	H111	0.804370	0.245030	0.681030
C1541	C154	0.910710	0.279740	0.682430
H1121	H112	0.932170	0.270830	0.715930
Ag151	Ag15	0.656400	0.842480	0.163590
O151	O15	0.666390	0.662970	0.881770
N291	N29	0.677790	0.804350	0.007870
N301	N30	0.532930	0.584750	0.044970
C1551	C155	0.712170	0.827600	0.904170
H1131	H113	0.727630	0.860270	0.904770
C1561	C156	0.725840	0.805680	0.796670
H1141	H114	0.749930	0.823070	0.724170
C1571	C157	0.703760	0.758190	0.796970
H1151	H115	0.713030	0.742270	0.726970
C1581	C158	0.667650	0.733990	0.901770
C1591	C159	0.655670	0.758180	0.003570
H1161	H116	0.630730	0.741470	0.073770
C1601	C160	0.644350	0.682550	0.906470
C1611	C161	0.594130	0.655280	0.938370
C1621	C162	0.563230	0.668170	0.889170
H1171	H117	0.573430	0.696770	0.837170
C1631	C163	0.516630	0.638570	0.916770
H1181	H118	0.494530	0.646370	0.881870
C1641	C164	0.502980	0.598020	0.994670
H1191	H119	0.471030	0.578370	0.014370
C1651	C165	0.577370	0.613080	0.015770
H1201	H120	0.598830	0.604170	0.049270
Ag161	Ag16	0.824190	0.147250	0.496920
O161	O16	0.003700	0.336760	0.215100
N311	N31	0.862320	0.206780	0.341200
N321	N32	0.081920	0.281520	0.378300
C1661	C166	0.839070	0.217910	0.237500
H1211	H121	0.806400	0.200700	0.238100
C1671	C167	0.860990	0.253500	0.130000
H1221	H122	0.843600	0.260200	0.057500
C1681	C168	0.908480	0.278910	0.130300
H1231	H123	0.924400	0.304100	0.060300
C1691	C169	0.932680	0.267000	0.235100
C1701	C170	0.908490	0.230830	0.336900
H1241	H124	0.925200	0.222600	0.407100
C1711	C171	0.984120	0.295140	0.239800
C1721	C172	0.011390	0.272190	0.271700
C1731	C173	0.998500	0.228400	0.222500
H1251	H125	0.969900	0.210000	0.170500
C1741	C174	0.028100	0.211400	0.250100
H1261	H126	0.020300	0.181500	0.215200
C1751	C175	0.068650	0.238300	0.328000
H1271	H127	0.088300	0.226000	0.347700
C1761	C176	0.053590	0.297630	0.349100
H1281	H128	0.062500	0.328000	0.382600
Ag171	Ag17	0.490850	0.480590	0.830250
O171	O17	0.670370	0.670090	0.548430
N331	N33	0.528990	0.540110	0.674530
N341	N34	0.748590	0.614850	0.711630
C1771	C177	0.505740	0.551240	0.570830
H1291	H129	0.473070	0.534030	0.571430
C1781	C178	0.527660	0.586830	0.463330
H1301	H130	0.510270	0.593530	0.390830
C1791	C179	0.575150	0.612240	0.463630
H1311	H131	0.591070	0.637430	0.393630
C1801	C180	0.599350	0.600330	0.568430
C1811	C181	0.575160	0.564160	0.670230
H1321	H132	0.591870	0.555930	0.740430
C1821	C182	0.650790	0.628470	0.573130
C1831	C183	0.678060	0.605520	0.605030
C1841	C184	0.665170	0.561730	0.555830
H1331	H133	0.636570	0.543330	0.503830
C1851	C185	0.694770	0.544730	0.583430
H1341	H134	0.686970	0.514830	0.548530
C1861	C186	0.735320	0.571630	0.661330
H1351	H135	0.754970	0.559330	0.681030
C1871	C187	0.720260	0.630960	0.682430
H1361	H136	0.729170	0.661330	0.715930
Ag181	Ag18	0.157520	0.813920	0.163590
O181	O18	0.337030	0.003430	0.881770
N351	N35	0.195650	0.873450	0.007870
N361	N36	0.415250	0.948190	0.044970
C1881	C188	0.172400	0.884580	0.904170
H1371	H137	0.139730	0.867370	0.904770
C1891	C189	0.194320	0.920170	0.796670
H1381	H138	0.176930	0.926870	0.724170
C1901	C190	0.241810	0.945580	0.796970
H1391	H139	0.257730	0.970770	0.726970
C1911	C191	0.266010	0.933670	0.901770
C1921	C192	0.241820	0.897500	0.003570
H1401	H140	0.258530	0.889270	0.073770
C1931	C193	0.317450	0.961810	0.906470
C1941	C194	0.344720	0.938860	0.938370
C1951	C195	0.331830	0.895070	0.889170
H1411	H141	0.303230	0.876670	0.837170
C1961	C196	0.361430	0.878070	0.916770
H1421	H142	0.353630	0.848170	0.881870
C1971	C197	0.401980	0.904970	0.994670
H1431	H143	0.421630	0.892670	0.014370
C1981	C198	0.386920	0.964300	0.015770
H1441	H144	0.395830	0.994670	0.049270
