data_FUSMOW_freeONLY_PM
_symmetry_space_group_name_H-M	'P1'
_cell_length_a	34.144700
_cell_length_b	34.144700
_cell_length_c	8.359400
_cell_angle_alpha	90.000000
_cell_angle_beta	90.000000
_cell_angle_gamma	120.000000
_symmetry_Int_Tables_number 1

loop_
_symmetry_equiv_pos_as_xyz
'x,y,z'

loop_
_atom_site_label
_atom_site_type_symbol
_atom_site_fract_x
_atom_site_fract_y
_atom_site_fract_z
Ag11	Ag1	0.147110	0.320140	0.507110
O11	O1	0.334720	0.328300	0.775800
N11	N1	0.206030	0.339600	0.661200
N21	N2	0.277640	0.196510	0.609400
C11	C1	0.219660	0.375350	0.759600
H11	H1	0.203100	0.391000	0.760600
C21	C2	0.256980	0.390280	0.859600
H21	H2	0.265800	0.415700	0.927500
C31	C3	0.281090	0.367680	0.858900
H31	H3	0.306900	0.377500	0.925200
C41	C4	0.266960	0.330310	0.759800
C51	C5	0.229330	0.317400	0.663000
H41	H4	0.219700	0.291800	0.595400
C61	C6	0.293920	0.306930	0.753100
C71	C7	0.270790	0.257350	0.721200
C81	C8	0.228200	0.227370	0.781700
H51	H5	0.211400	0.237900	0.840200
C91	C9	0.210960	0.181410	0.753600
H61	H6	0.182000	0.159800	0.793500
C101	C10	0.236310	0.167720	0.667300
H71	H7	0.224000	0.136300	0.647700
C111	C11	0.294270	0.240570	0.638400
H81	H8	0.323700	0.261400	0.600100
Ag21	Ag2	0.813780	0.653470	0.840440
O21	O2	0.001390	0.661630	0.109130
N31	N3	0.872700	0.672930	0.994530
N41	N4	0.944310	0.529840	0.942730
C121	C12	0.886330	0.708680	0.092930
H91	H9	0.869770	0.724330	0.093930
C131	C13	0.923650	0.723610	0.192930
H101	H10	0.932470	0.749030	0.260830
C141	C14	0.947760	0.701010	0.192230
H111	H11	0.973570	0.710830	0.258530
C151	C15	0.933630	0.663640	0.093130
C161	C16	0.896000	0.650730	0.996330
H121	H12	0.886370	0.625130	0.928730
C171	C17	0.960590	0.640260	0.086430
C181	C18	0.937460	0.590680	0.054530
C191	C19	0.894870	0.560700	0.115030
H131	H13	0.878070	0.571230	0.173530
C201	C20	0.877630	0.514740	0.086930
H141	H14	0.848670	0.493130	0.126830
C211	C21	0.902980	0.501050	0.000630
H151	H15	0.890670	0.469630	0.981030
C221	C22	0.960940	0.573900	0.971730
H161	H16	0.990370	0.594730	0.933430
Ag31	Ag3	0.480450	0.986800	0.173780
O31	O3	0.668050	0.994970	0.442470
N51	N5	0.539360	0.006270	0.327870
N61	N6	0.610970	0.863180	0.276070
C231	C23	0.552990	0.042020	0.426270
H171	H17	0.536430	0.057670	0.427270
C241	C24	0.590310	0.056950	0.526270
H181	H18	0.599130	0.082370	0.594170
C251	C25	0.614420	0.034350	0.525570
H191	H19	0.640230	0.044170	0.591870
C261	C26	0.600290	0.996980	0.426470
C271	C27	0.562660	0.984070	0.329670
H201	H20	0.553030	0.958470	0.262070
C281	C28	0.627250	0.973600	0.419770
C291	C29	0.604120	0.924020	0.387870
C301	C30	0.561530	0.894040	0.448370
H211	H21	0.544730	0.904570	0.506870
C311	C31	0.544290	0.848080	0.420270
H221	H22	0.515330	0.826470	0.460170
C321	C32	0.569640	0.834390	0.333970
H231	H23	0.557330	0.802970	0.314370
C331	C33	0.627600	0.907240	0.305070
H241	H24	0.657030	0.928070	0.266770
Ag41	Ag4	0.679860	0.826980	0.507110
O41	O4	0.671700	0.006420	0.775800
N71	N7	0.660400	0.866430	0.661200
N81	N8	0.803490	0.081130	0.609400
C341	C34	0.624650	0.844310	0.759600
H251	H25	0.609000	0.812100	0.760600
C351	C35	0.609720	0.866700	0.859600
H261	H26	0.584300	0.850100	0.927500
C361	C36	0.632320	0.913410	0.858900
H271	H27	0.622500	0.929400	0.925200
C371	C37	0.669690	0.936650	0.759800
C381	C38	0.682600	0.911930	0.663000
H281	H28	0.708200	0.927900	0.595400
C391	C39	0.693070	0.986990	0.753100
C401	C40	0.742650	0.013440	0.721200
C411	C41	0.772630	0.000830	0.781700
H291	H29	0.762100	0.973500	0.840200
C421	C42	0.818590	0.029550	0.753600
H301	H30	0.840200	0.022200	0.793500
C431	C43	0.832280	0.068590	0.667300
H311	H31	0.863700	0.087700	0.647700
C441	C44	0.759430	0.053700	0.638400
H321	H32	0.738600	0.062300	0.600100
Ag51	Ag5	0.346530	0.160310	0.840440
O51	O5	0.338370	0.339750	0.109130
N91	N9	0.327070	0.199760	0.994530
N101	N10	0.470160	0.414460	0.942730
C451	C45	0.291320	0.177640	0.092930
H331	H33	0.275670	0.145430	0.093930
C461	C46	0.276390	0.200030	0.192930
H341	H34	0.250970	0.183430	0.260830
C471	C47	0.298990	0.246740	0.192230
H351	H35	0.289170	0.262730	0.258530
C481	C48	0.336360	0.269980	0.093130
C491	C49	0.349270	0.245260	0.996330
H361	H36	0.374870	0.261230	0.928730
C501	C50	0.359740	0.320320	0.086430
C511	C51	0.409320	0.346770	0.054530
C521	C52	0.439300	0.334160	0.115030
H371	H37	0.428770	0.306830	0.173530
C531	C53	0.485260	0.362880	0.086930
H381	H38	0.506870	0.355530	0.126830
C541	C54	0.498950	0.401920	0.000630
H391	H39	0.530370	0.421030	0.981030
C551	C55	0.426100	0.387030	0.971730
H401	H40	0.405270	0.395630	0.933430
Ag61	Ag6	0.013200	0.493640	0.173780
O61	O6	0.005030	0.673090	0.442470
N111	N11	0.993730	0.533100	0.327870
N121	N12	0.136820	0.747800	0.276070
C561	C56	0.957980	0.510980	0.426270
H411	H41	0.942330	0.478770	0.427270
C571	C57	0.943050	0.533370	0.526270
H421	H42	0.917630	0.516770	0.594170
C581	C58	0.965650	0.580080	0.525570
H431	H43	0.955830	0.596070	0.591870
C591	C59	0.003020	0.603320	0.426470
C601	C60	0.015930	0.578600	0.329670
H441	H44	0.041530	0.594570	0.262070
C611	C61	0.026400	0.653660	0.419770
C621	C62	0.075980	0.680110	0.387870
C631	C63	0.105960	0.667500	0.448370
H451	H45	0.095430	0.640170	0.506870
C641	C64	0.151920	0.696220	0.420270
H461	H46	0.173530	0.688870	0.460170
C651	C65	0.165610	0.735260	0.333970
H471	H47	0.197030	0.754370	0.314370
C661	C66	0.092760	0.720370	0.305070
H481	H48	0.071930	0.728970	0.266770
Ag71	Ag7	0.173020	0.852890	0.507110
O71	O7	0.993580	0.665280	0.775800
N131	N13	0.133570	0.793970	0.661200
N141	N14	0.918870	0.722360	0.609400
C671	C67	0.155690	0.780340	0.759600
H491	H49	0.187900	0.796900	0.760600
C681	C68	0.133300	0.743020	0.859600
H501	H50	0.149900	0.734200	0.927500
C691	C69	0.086590	0.718910	0.858900
H511	H51	0.070600	0.693100	0.925200
C701	C70	0.063350	0.733040	0.759800
C711	C71	0.088070	0.770670	0.663000
H521	H52	0.072100	0.780300	0.595400
C721	C72	0.013010	0.706080	0.753100
C731	C73	0.986560	0.729210	0.721200
C741	C74	0.999170	0.771800	0.781700
H531	H53	0.026500	0.788600	0.840200
C751	C75	0.970450	0.789040	0.753600
H541	H54	0.977800	0.818000	0.793500
C761	C76	0.931410	0.763690	0.667300
H551	H55	0.912300	0.776000	0.647700
C771	C77	0.946300	0.705730	0.638400
H561	H56	0.937700	0.676300	0.600100
Ag81	Ag8	0.839690	0.186220	0.840440
O81	O8	0.660250	0.998610	0.109130
N151	N15	0.800240	0.127300	0.994530
N161	N16	0.585540	0.055690	0.942730
C781	C78	0.822360	0.113670	0.092930
H571	H57	0.854570	0.130230	0.093930
C791	C79	0.799970	0.076350	0.192930
H581	H58	0.816570	0.067530	0.260830
C801	C80	0.753260	0.052240	0.192230
H591	H59	0.737270	0.026430	0.258530
C811	C81	0.730020	0.066370	0.093130
C821	C82	0.754740	0.104000	0.996330
H601	H60	0.738770	0.113630	0.928730
C831	C83	0.679680	0.039410	0.086430
C841	C84	0.653230	0.062540	0.054530
C851	C85	0.665840	0.105130	0.115030
H611	H61	0.693170	0.121930	0.173530
C861	C86	0.637120	0.122370	0.086930
H621	H62	0.644470	0.151330	0.126830
C871	C87	0.598080	0.097020	0.000630
H631	H63	0.578970	0.109330	0.981030
C881	C88	0.612970	0.039060	0.971730
H641	H64	0.604370	0.009630	0.933430
Ag91	Ag9	0.506360	0.519550	0.173780
O91	O9	0.326910	0.331950	0.442470
N171	N17	0.466900	0.460640	0.327870
N181	N18	0.252200	0.389030	0.276070
C891	C89	0.489020	0.447010	0.426270
H651	H65	0.521230	0.463570	0.427270
C901	C90	0.466630	0.409690	0.526270
H661	H66	0.483230	0.400870	0.594170
C911	C91	0.419920	0.385580	0.525570
H671	H67	0.403930	0.359770	0.591870
C921	C92	0.396680	0.399710	0.426470
C931	C93	0.421400	0.437340	0.329670
H681	H68	0.405430	0.446970	0.262070
C941	C94	0.346340	0.372750	0.419770
C951	C95	0.319890	0.395880	0.387870
C961	C96	0.332500	0.438470	0.448370
H691	H69	0.359830	0.455270	0.506870
C971	C97	0.303780	0.455710	0.420270
H701	H70	0.311130	0.484670	0.460170
C981	C98	0.264740	0.430360	0.333970
H711	H71	0.245630	0.442670	0.314370
C991	C99	0.279630	0.372400	0.305070
H721	H72	0.271030	0.342970	0.266770
Ag101	Ag10	0.852890	0.679860	0.492890
O101	O10	0.665280	0.671700	0.224200
N191	N19	0.793970	0.660400	0.338800
N201	N20	0.722360	0.803490	0.390600
C1001	C100	0.780340	0.624650	0.240400
H731	H73	0.796900	0.609000	0.239400
C1011	C101	0.743020	0.609720	0.140400
H741	H74	0.734200	0.584300	0.072500
C1021	C102	0.718910	0.632320	0.141100
H751	H75	0.693100	0.622500	0.074800
C1031	C103	0.733040	0.669690	0.240200
C1041	C104	0.770670	0.682600	0.337000
H761	H76	0.780300	0.708200	0.404600
C1051	C105	0.706080	0.693070	0.246900
C1061	C106	0.729210	0.742650	0.278800
C1071	C107	0.771800	0.772630	0.218300
H771	H77	0.788600	0.762100	0.159800
C1081	C108	0.789040	0.818590	0.246400
H781	H78	0.818000	0.840200	0.206500
C1091	C109	0.763690	0.832280	0.332700
H791	H79	0.776000	0.863700	0.352300
C1101	C110	0.705730	0.759430	0.361600
H801	H80	0.676300	0.738600	0.399900
Ag111	Ag11	0.519550	0.013200	0.826220
O111	O11	0.331950	0.005030	0.557530
N211	N21	0.460640	0.993730	0.672130
N221	N22	0.389030	0.136820	0.723930
C1111	C111	0.447010	0.957980	0.573730
H811	H81	0.463570	0.942330	0.572730
C1121	C112	0.409690	0.943050	0.473730
H821	H82	0.400870	0.917630	0.405830
C1131	C113	0.385580	0.965650	0.474430
H831	H83	0.359770	0.955830	0.408130
C1141	C114	0.399710	0.003020	0.573530
C1151	C115	0.437340	0.015930	0.670330
H841	H84	0.446970	0.041530	0.737930
C1161	C116	0.372750	0.026400	0.580230
C1171	C117	0.395880	0.075980	0.612130
C1181	C118	0.438470	0.105960	0.551630
H851	H85	0.455270	0.095430	0.493130
C1191	C119	0.455710	0.151920	0.579730
H861	H86	0.484670	0.173530	0.539830
C1201	C120	0.430360	0.165610	0.666030
H871	H87	0.442670	0.197030	0.685630
C1211	C121	0.372400	0.092760	0.694930
H881	H88	0.342970	0.071930	0.733230
Ag121	Ag12	0.186220	0.346530	0.159560
O121	O12	0.998610	0.338370	0.890870
N231	N23	0.127300	0.327070	0.005470
N241	N24	0.055690	0.470160	0.057270
C1221	C122	0.113670	0.291320	0.907070
H891	H89	0.130230	0.275670	0.906070
C1231	C123	0.076350	0.276390	0.807070
H901	H90	0.067530	0.250970	0.739170
C1241	C124	0.052240	0.298990	0.807770
H911	H91	0.026430	0.289170	0.741470
C1251	C125	0.066370	0.336360	0.906870
C1261	C126	0.104000	0.349270	0.003670
H921	H92	0.113630	0.374870	0.071270
C1271	C127	0.039410	0.359740	0.913570
C1281	C128	0.062540	0.409320	0.945470
C1291	C129	0.105130	0.439300	0.884970
H931	H93	0.121930	0.428770	0.826470
C1301	C130	0.122370	0.485260	0.913070
H941	H94	0.151330	0.506870	0.873170
C1311	C131	0.097020	0.498950	0.999370
H951	H95	0.109330	0.530370	0.018970
C1321	C132	0.039060	0.426100	0.028270
H961	H96	0.009630	0.405270	0.066570
Ag131	Ag13	0.320140	0.173020	0.492890
O131	O13	0.328300	0.993580	0.224200
N251	N25	0.339600	0.133570	0.338800
N261	N26	0.196510	0.918870	0.390600
C1331	C133	0.375350	0.155690	0.240400
H971	H97	0.391000	0.187900	0.239400
C1341	C134	0.390280	0.133300	0.140400
H981	H98	0.415700	0.149900	0.072500
C1351	C135	0.367680	0.086590	0.141100
H991	H99	0.377500	0.070600	0.074800
C1361	C136	0.330310	0.063350	0.240200
C1371	C137	0.317400	0.088070	0.337000
H1001	H100	0.291800	0.072100	0.404600
C1381	C138	0.306930	0.013010	0.246900
C1391	C139	0.257350	0.986560	0.278800
C1401	C140	0.227370	0.999170	0.218300
H1011	H101	0.237900	0.026500	0.159800
C1411	C141	0.181410	0.970450	0.246400
H1021	H102	0.159800	0.977800	0.206500
C1421	C142	0.167720	0.931410	0.332700
H1031	H103	0.136300	0.912300	0.352300
C1431	C143	0.240570	0.946300	0.361600
H1041	H104	0.261400	0.937700	0.399900
Ag141	Ag14	0.986800	0.506360	0.826220
O141	O14	0.994970	0.326910	0.557530
N271	N27	0.006270	0.466900	0.672130
N281	N28	0.863180	0.252200	0.723930
C1441	C144	0.042020	0.489020	0.573730
H1051	H105	0.057670	0.521230	0.572730
C1451	C145	0.056950	0.466630	0.473730
H1061	H106	0.082370	0.483230	0.405830
C1461	C146	0.034350	0.419920	0.474430
H1071	H107	0.044170	0.403930	0.408130
C1471	C147	0.996980	0.396680	0.573530
C1481	C148	0.984070	0.421400	0.670330
H1081	H108	0.958470	0.405430	0.737930
C1491	C149	0.973600	0.346340	0.580230
C1501	C150	0.924020	0.319890	0.612130
C1511	C151	0.894040	0.332500	0.551630
H1091	H109	0.904570	0.359830	0.493130
C1521	C152	0.848080	0.303780	0.579730
H1101	H110	0.826470	0.311130	0.539830
C1531	C153	0.834390	0.264740	0.666030
H1111	H111	0.802970	0.245630	0.685630
C1541	C154	0.907240	0.279630	0.694930
H1121	H112	0.928070	0.271030	0.733230
Ag151	Ag15	0.653470	0.839690	0.159560
O151	O15	0.661630	0.660250	0.890870
N291	N29	0.672930	0.800240	0.005470
N301	N30	0.529840	0.585540	0.057270
C1551	C155	0.708680	0.822360	0.907070
H1131	H113	0.724330	0.854570	0.906070
C1561	C156	0.723610	0.799970	0.807070
H1141	H114	0.749030	0.816570	0.739170
C1571	C157	0.701010	0.753260	0.807770
H1151	H115	0.710830	0.737270	0.741470
C1581	C158	0.663640	0.730020	0.906870
C1591	C159	0.650730	0.754740	0.003670
H1161	H116	0.625130	0.738770	0.071270
C1601	C160	0.640260	0.679680	0.913570
C1611	C161	0.590680	0.653230	0.945470
C1621	C162	0.560700	0.665840	0.884970
H1171	H117	0.571230	0.693170	0.826470
C1631	C163	0.514740	0.637120	0.913070
H1181	H118	0.493130	0.644470	0.873170
C1641	C164	0.501050	0.598080	0.999370
H1191	H119	0.469630	0.578970	0.018970
C1651	C165	0.573900	0.612970	0.028270
H1201	H120	0.594730	0.604370	0.066570
Ag161	Ag16	0.826980	0.147110	0.492890
O161	O16	0.006420	0.334720	0.224200
N311	N31	0.866430	0.206030	0.338800
N321	N32	0.081130	0.277640	0.390600
C1661	C166	0.844310	0.219660	0.240400
H1211	H121	0.812100	0.203100	0.239400
C1671	C167	0.866700	0.256980	0.140400
H1221	H122	0.850100	0.265800	0.072500
C1681	C168	0.913410	0.281090	0.141100
H1231	H123	0.929400	0.306900	0.074800
C1691	C169	0.936650	0.266960	0.240200
C1701	C170	0.911930	0.229330	0.337000
H1241	H124	0.927900	0.219700	0.404600
C1711	C171	0.986990	0.293920	0.246900
C1721	C172	0.013440	0.270790	0.278800
C1731	C173	0.000830	0.228200	0.218300
H1251	H125	0.973500	0.211400	0.159800
C1741	C174	0.029550	0.210960	0.246400
H1261	H126	0.022200	0.182000	0.206500
C1751	C175	0.068590	0.236310	0.332700
H1271	H127	0.087700	0.224000	0.352300
C1761	C176	0.053700	0.294270	0.361600
H1281	H128	0.062300	0.323700	0.399900
Ag171	Ag17	0.493640	0.480450	0.826220
O171	O17	0.673090	0.668050	0.557530
N331	N33	0.533100	0.539360	0.672130
N341	N34	0.747800	0.610970	0.723930
C1771	C177	0.510980	0.552990	0.573730
H1291	H129	0.478770	0.536430	0.572730
C1781	C178	0.533370	0.590310	0.473730
H1301	H130	0.516770	0.599130	0.405830
C1791	C179	0.580080	0.614420	0.474430
H1311	H131	0.596070	0.640230	0.408130
C1801	C180	0.603320	0.600290	0.573530
C1811	C181	0.578600	0.562660	0.670330
H1321	H132	0.594570	0.553030	0.737930
C1821	C182	0.653660	0.627250	0.580230
C1831	C183	0.680110	0.604120	0.612130
C1841	C184	0.667500	0.561530	0.551630
H1331	H133	0.640170	0.544730	0.493130
C1851	C185	0.696220	0.544290	0.579730
H1341	H134	0.688870	0.515330	0.539830
C1861	C186	0.735260	0.569640	0.666030
H1351	H135	0.754370	0.557330	0.685630
C1871	C187	0.720370	0.627600	0.694930
H1361	H136	0.728970	0.657030	0.733230
Ag181	Ag18	0.160310	0.813780	0.159560
O181	O18	0.339750	0.001390	0.890870
N351	N35	0.199760	0.872700	0.005470
N361	N36	0.414460	0.944310	0.057270
C1881	C188	0.177640	0.886330	0.907070
H1371	H137	0.145430	0.869770	0.906070
C1891	C189	0.200030	0.923650	0.807070
H1381	H138	0.183430	0.932470	0.739170
C1901	C190	0.246740	0.947760	0.807770
H1391	H139	0.262730	0.973570	0.741470
C1911	C191	0.269980	0.933630	0.906870
C1921	C192	0.245260	0.896000	0.003670
H1401	H140	0.261230	0.886370	0.071270
C1931	C193	0.320320	0.960590	0.913570
C1941	C194	0.346770	0.937460	0.945470
C1951	C195	0.334160	0.894870	0.884970
H1411	H141	0.306830	0.878070	0.826470
C1961	C196	0.362880	0.877630	0.913070
H1421	H142	0.355530	0.848670	0.873170
C1971	C197	0.401920	0.902980	0.999370
H1431	H143	0.421030	0.890670	0.018970
C1981	C198	0.387030	0.960940	0.028270
H1441	H144	0.395630	0.990370	0.066570
