data_FUSMUC_freeONLY_PM
_symmetry_space_group_name_H-M	'P1'
_cell_length_a	33.856000
_cell_length_b	33.856000
_cell_length_c	8.422400
_cell_angle_alpha	90.000000
_cell_angle_beta	90.000000
_cell_angle_gamma	120.000000
_symmetry_Int_Tables_number 1

loop_
_symmetry_equiv_pos_as_xyz
'x,y,z'

loop_
_atom_site_label
_atom_site_type_symbol
_atom_site_fract_x
_atom_site_fract_y
_atom_site_fract_z
Ag11	Ag1	0.147360	0.320920	0.504240
O11	O1	0.335040	0.329010	0.786400
N11	N1	0.206200	0.340700	0.659300
N21	N2	0.277500	0.196100	0.614900
C11	C1	0.219400	0.376600	0.761700
H11	H1	0.202900	0.392400	0.761600
C21	C2	0.255500	0.390600	0.864500
H21	H2	0.263800	0.415800	0.933300
C31	C3	0.279200	0.367700	0.865900
H31	H3	0.304600	0.377400	0.934800
C41	C4	0.266400	0.330500	0.767000
C51	C5	0.229400	0.318100	0.665700
H41	H4	0.220100	0.292500	0.598100
C61	C6	0.293400	0.306900	0.762900
C71	C7	0.270300	0.257300	0.728900
C81	C8	0.227400	0.226800	0.785200
H51	H5	0.210100	0.236900	0.843600
C91	C9	0.210300	0.181000	0.753800
H61	H6	0.180900	0.159100	0.791300
C101	C10	0.235800	0.167200	0.668700
H71	H7	0.223200	0.135600	0.647100
C111	C11	0.294800	0.241000	0.646200
H81	H8	0.324700	0.262100	0.610400
Ag21	Ag2	0.814030	0.654250	0.837570
O21	O2	0.001710	0.662340	0.119730
N31	N3	0.872870	0.674030	0.992630
N41	N4	0.944170	0.529430	0.948230
C121	C12	0.886070	0.709930	0.095030
H91	H9	0.869570	0.725730	0.094930
C131	C13	0.922170	0.723930	0.197830
H101	H10	0.930470	0.749130	0.266630
C141	C14	0.945870	0.701030	0.199230
H111	H11	0.971270	0.710730	0.268130
C151	C15	0.933070	0.663830	0.100330
C161	C16	0.896070	0.651430	0.999030
H121	H12	0.886770	0.625830	0.931430
C171	C17	0.960070	0.640230	0.096230
C181	C18	0.936970	0.590630	0.062230
C191	C19	0.894070	0.560130	0.118530
H131	H13	0.876770	0.570230	0.176930
C201	C20	0.876970	0.514330	0.087130
H141	H14	0.847570	0.492430	0.124630
C211	C21	0.902470	0.500530	0.002030
H151	H15	0.889870	0.468930	0.980430
C221	C22	0.961470	0.574330	0.979530
H161	H16	0.991370	0.595430	0.943730
Ag31	Ag3	0.480690	0.987590	0.170910
O31	O3	0.668370	0.995680	0.453070
N51	N5	0.539530	0.007370	0.325970
N61	N6	0.610830	0.862770	0.281570
C231	C23	0.552730	0.043270	0.428370
H171	H17	0.536230	0.059070	0.428270
C241	C24	0.588830	0.057270	0.531170
H181	H18	0.597130	0.082470	0.599970
C251	C25	0.612530	0.034370	0.532570
H191	H19	0.637930	0.044070	0.601470
C261	C26	0.599730	0.997170	0.433670
C271	C27	0.562730	0.984770	0.332370
H201	H20	0.553430	0.959170	0.264770
C281	C28	0.626730	0.973570	0.429570
C291	C29	0.603630	0.923970	0.395570
C301	C30	0.560730	0.893470	0.451870
H211	H21	0.543430	0.903570	0.510270
C311	C31	0.543630	0.847670	0.420470
H221	H22	0.514230	0.825770	0.457970
C321	C32	0.569130	0.833870	0.335370
H231	H23	0.556530	0.802270	0.313770
C331	C33	0.628130	0.907670	0.312870
H241	H24	0.658030	0.928770	0.277070
Ag41	Ag4	0.679080	0.826440	0.504240
O41	O4	0.670990	0.006030	0.786400
N71	N7	0.659300	0.865500	0.659300
N81	N8	0.803900	0.081400	0.614900
C341	C34	0.623400	0.842800	0.761700
H251	H25	0.607600	0.810500	0.761600
C351	C35	0.609400	0.864900	0.864500
H261	H26	0.584200	0.848000	0.933300
C361	C36	0.632300	0.911500	0.865900
H271	H27	0.622600	0.927200	0.934800
C371	C37	0.669500	0.935900	0.767000
C381	C38	0.681900	0.911300	0.665700
H281	H28	0.707500	0.927600	0.598100
C391	C39	0.693100	0.986500	0.762900
C401	C40	0.742700	0.013000	0.728900
C411	C41	0.773200	0.000600	0.785200
H291	H29	0.763100	0.973200	0.843600
C421	C42	0.819000	0.029300	0.753800
H301	H30	0.840900	0.021800	0.791300
C431	C43	0.832800	0.068600	0.668700
H311	H31	0.864400	0.087600	0.647100
C441	C44	0.759000	0.053800	0.646200
H321	H32	0.737900	0.062600	0.610400
Ag51	Ag5	0.345750	0.159770	0.837570
O51	O5	0.337660	0.339360	0.119730
N91	N9	0.325970	0.198830	0.992630
N101	N10	0.470570	0.414730	0.948230
C451	C45	0.290070	0.176130	0.095030
H331	H33	0.274270	0.143830	0.094930
C461	C46	0.276070	0.198230	0.197830
H341	H34	0.250870	0.181330	0.266630
C471	C47	0.298970	0.244830	0.199230
H351	H35	0.289270	0.260530	0.268130
C481	C48	0.336170	0.269230	0.100330
C491	C49	0.348570	0.244630	0.999030
H361	H36	0.374170	0.260930	0.931430
C501	C50	0.359770	0.319830	0.096230
C511	C51	0.409370	0.346330	0.062230
C521	C52	0.439870	0.333930	0.118530
H371	H37	0.429770	0.306530	0.176930
C531	C53	0.485670	0.362630	0.087130
H381	H38	0.507570	0.355130	0.124630
C541	C54	0.499470	0.401930	0.002030
H391	H39	0.531070	0.420930	0.980430
C551	C55	0.425670	0.387130	0.979530
H401	H40	0.404570	0.395930	0.943730
Ag61	Ag6	0.012410	0.493110	0.170910
O61	O6	0.004320	0.672700	0.453070
N111	N11	0.992630	0.532170	0.325970
N121	N12	0.137230	0.748070	0.281570
C561	C56	0.956730	0.509470	0.428370
H411	H41	0.940930	0.477170	0.428270
C571	C57	0.942730	0.531570	0.531170
H421	H42	0.917530	0.514670	0.599970
C581	C58	0.965630	0.578170	0.532570
H431	H43	0.955930	0.593870	0.601470
C591	C59	0.002830	0.602570	0.433670
C601	C60	0.015230	0.577970	0.332370
H441	H44	0.040830	0.594270	0.264770
C611	C61	0.026430	0.653170	0.429570
C621	C62	0.076030	0.679670	0.395570
C631	C63	0.106530	0.667270	0.451870
H451	H45	0.096430	0.639870	0.510270
C641	C64	0.152330	0.695970	0.420470
H461	H46	0.174230	0.688470	0.457970
C651	C65	0.166130	0.735270	0.335370
H471	H47	0.197730	0.754270	0.313770
C661	C66	0.092330	0.720470	0.312870
H481	H48	0.071230	0.729270	0.277070
Ag71	Ag7	0.173560	0.852640	0.504240
O71	O7	0.993970	0.664960	0.786400
N131	N13	0.134500	0.793800	0.659300
N141	N14	0.918600	0.722500	0.614900
C671	C67	0.157200	0.780600	0.761700
H491	H49	0.189500	0.797100	0.761600
C681	C68	0.135100	0.744500	0.864500
H501	H50	0.152000	0.736200	0.933300
C691	C69	0.088500	0.720800	0.865900
H511	H51	0.072800	0.695400	0.934800
C701	C70	0.064100	0.733600	0.767000
C711	C71	0.088700	0.770600	0.665700
H521	H52	0.072400	0.779900	0.598100
C721	C72	0.013500	0.706600	0.762900
C731	C73	0.987000	0.729700	0.728900
C741	C74	0.999400	0.772600	0.785200
H531	H53	0.026800	0.789900	0.843600
C751	C75	0.970700	0.789700	0.753800
H541	H54	0.978200	0.819100	0.791300
C761	C76	0.931400	0.764200	0.668700
H551	H55	0.912400	0.776800	0.647100
C771	C77	0.946200	0.705200	0.646200
H561	H56	0.937400	0.675300	0.610400
Ag81	Ag8	0.840230	0.185970	0.837570
O81	O8	0.660640	0.998290	0.119730
N151	N15	0.801170	0.127130	0.992630
N161	N16	0.585270	0.055830	0.948230
C781	C78	0.823870	0.113930	0.095030
H571	H57	0.856170	0.130430	0.094930
C791	C79	0.801770	0.077830	0.197830
H581	H58	0.818670	0.069530	0.266630
C801	C80	0.755170	0.054130	0.199230
H591	H59	0.739470	0.028730	0.268130
C811	C81	0.730770	0.066930	0.100330
C821	C82	0.755370	0.103930	0.999030
H601	H60	0.739070	0.113230	0.931430
C831	C83	0.680170	0.039930	0.096230
C841	C84	0.653670	0.063030	0.062230
C851	C85	0.666070	0.105930	0.118530
H611	H61	0.693470	0.123230	0.176930
C861	C86	0.637370	0.123030	0.087130
H621	H62	0.644870	0.152430	0.124630
C871	C87	0.598070	0.097530	0.002030
H631	H63	0.579070	0.110130	0.980430
C881	C88	0.612870	0.038530	0.979530
H641	H64	0.604070	0.008630	0.943730
Ag91	Ag9	0.506890	0.519310	0.170910
O91	O9	0.327300	0.331630	0.453070
N171	N17	0.467830	0.460470	0.325970
N181	N18	0.251930	0.389170	0.281570
C891	C89	0.490530	0.447270	0.428370
H651	H65	0.522830	0.463770	0.428270
C901	C90	0.468430	0.411170	0.531170
H661	H66	0.485330	0.402870	0.599970
C911	C91	0.421830	0.387470	0.532570
H671	H67	0.406130	0.362070	0.601470
C921	C92	0.397430	0.400270	0.433670
C931	C93	0.422030	0.437270	0.332370
H681	H68	0.405730	0.446570	0.264770
C941	C94	0.346830	0.373270	0.429570
C951	C95	0.320330	0.396370	0.395570
C961	C96	0.332730	0.439270	0.451870
H691	H69	0.360130	0.456570	0.510270
C971	C97	0.304030	0.456370	0.420470
H701	H70	0.311530	0.485770	0.457970
C981	C98	0.264730	0.430870	0.335370
H711	H71	0.245730	0.443470	0.313770
C991	C99	0.279530	0.371870	0.312870
H721	H72	0.270730	0.341970	0.277070
Ag101	Ag10	0.852640	0.679080	0.495760
O101	O10	0.664960	0.670990	0.213600
N191	N19	0.793800	0.659300	0.340700
N201	N20	0.722500	0.803900	0.385100
C1001	C100	0.780600	0.623400	0.238300
H731	H73	0.797100	0.607600	0.238400
C1011	C101	0.744500	0.609400	0.135500
H741	H74	0.736200	0.584200	0.066700
C1021	C102	0.720800	0.632300	0.134100
H751	H75	0.695400	0.622600	0.065200
C1031	C103	0.733600	0.669500	0.233000
C1041	C104	0.770600	0.681900	0.334300
H761	H76	0.779900	0.707500	0.401900
C1051	C105	0.706600	0.693100	0.237100
C1061	C106	0.729700	0.742700	0.271100
C1071	C107	0.772600	0.773200	0.214800
H771	H77	0.789900	0.763100	0.156400
C1081	C108	0.789700	0.819000	0.246200
H781	H78	0.819100	0.840900	0.208700
C1091	C109	0.764200	0.832800	0.331300
H791	H79	0.776800	0.864400	0.352900
C1101	C110	0.705200	0.759000	0.353800
H801	H80	0.675300	0.737900	0.389600
Ag111	Ag11	0.519310	0.012410	0.829090
O111	O11	0.331630	0.004320	0.546930
N211	N21	0.460470	0.992630	0.674030
N221	N22	0.389170	0.137230	0.718430
C1111	C111	0.447270	0.956730	0.571630
H811	H81	0.463770	0.940930	0.571730
C1121	C112	0.411170	0.942730	0.468830
H821	H82	0.402870	0.917530	0.400030
C1131	C113	0.387470	0.965630	0.467430
H831	H83	0.362070	0.955930	0.398530
C1141	C114	0.400270	0.002830	0.566330
C1151	C115	0.437270	0.015230	0.667630
H841	H84	0.446570	0.040830	0.735230
C1161	C116	0.373270	0.026430	0.570430
C1171	C117	0.396370	0.076030	0.604430
C1181	C118	0.439270	0.106530	0.548130
H851	H85	0.456570	0.096430	0.489730
C1191	C119	0.456370	0.152330	0.579530
H861	H86	0.485770	0.174230	0.542030
C1201	C120	0.430870	0.166130	0.664630
H871	H87	0.443470	0.197730	0.686230
C1211	C121	0.371870	0.092330	0.687130
H881	H88	0.341970	0.071230	0.722930
Ag121	Ag12	0.185970	0.345750	0.162430
O121	O12	0.998290	0.337660	0.880270
N231	N23	0.127130	0.325970	0.007370
N241	N24	0.055830	0.470570	0.051770
C1221	C122	0.113930	0.290070	0.904970
H891	H89	0.130430	0.274270	0.905070
C1231	C123	0.077830	0.276070	0.802170
H901	H90	0.069530	0.250870	0.733370
C1241	C124	0.054130	0.298970	0.800770
H911	H91	0.028730	0.289270	0.731870
C1251	C125	0.066930	0.336170	0.899670
C1261	C126	0.103930	0.348570	0.000970
H921	H92	0.113230	0.374170	0.068570
C1271	C127	0.039930	0.359770	0.903770
C1281	C128	0.063030	0.409370	0.937770
C1291	C129	0.105930	0.439870	0.881470
H931	H93	0.123230	0.429770	0.823070
C1301	C130	0.123030	0.485670	0.912870
H941	H94	0.152430	0.507570	0.875370
C1311	C131	0.097530	0.499470	0.997970
H951	H95	0.110130	0.531070	0.019570
C1321	C132	0.038530	0.425670	0.020470
H961	H96	0.008630	0.404570	0.056270
Ag131	Ag13	0.320920	0.173560	0.495760
O131	O13	0.329010	0.993970	0.213600
N251	N25	0.340700	0.134500	0.340700
N261	N26	0.196100	0.918600	0.385100
C1331	C133	0.376600	0.157200	0.238300
H971	H97	0.392400	0.189500	0.238400
C1341	C134	0.390600	0.135100	0.135500
H981	H98	0.415800	0.152000	0.066700
C1351	C135	0.367700	0.088500	0.134100
H991	H99	0.377400	0.072800	0.065200
C1361	C136	0.330500	0.064100	0.233000
C1371	C137	0.318100	0.088700	0.334300
H1001	H100	0.292500	0.072400	0.401900
C1381	C138	0.306900	0.013500	0.237100
C1391	C139	0.257300	0.987000	0.271100
C1401	C140	0.226800	0.999400	0.214800
H1011	H101	0.236900	0.026800	0.156400
C1411	C141	0.181000	0.970700	0.246200
H1021	H102	0.159100	0.978200	0.208700
C1421	C142	0.167200	0.931400	0.331300
H1031	H103	0.135600	0.912400	0.352900
C1431	C143	0.241000	0.946200	0.353800
H1041	H104	0.262100	0.937400	0.389600
Ag141	Ag14	0.987590	0.506890	0.829090
O141	O14	0.995680	0.327300	0.546930
N271	N27	0.007370	0.467830	0.674030
N281	N28	0.862770	0.251930	0.718430
C1441	C144	0.043270	0.490530	0.571630
H1051	H105	0.059070	0.522830	0.571730
C1451	C145	0.057270	0.468430	0.468830
H1061	H106	0.082470	0.485330	0.400030
C1461	C146	0.034370	0.421830	0.467430
H1071	H107	0.044070	0.406130	0.398530
C1471	C147	0.997170	0.397430	0.566330
C1481	C148	0.984770	0.422030	0.667630
H1081	H108	0.959170	0.405730	0.735230
C1491	C149	0.973570	0.346830	0.570430
C1501	C150	0.923970	0.320330	0.604430
C1511	C151	0.893470	0.332730	0.548130
H1091	H109	0.903570	0.360130	0.489730
C1521	C152	0.847670	0.304030	0.579530
H1101	H110	0.825770	0.311530	0.542030
C1531	C153	0.833870	0.264730	0.664630
H1111	H111	0.802270	0.245730	0.686230
C1541	C154	0.907670	0.279530	0.687130
H1121	H112	0.928770	0.270730	0.722930
Ag151	Ag15	0.654250	0.840230	0.162430
O151	O15	0.662340	0.660640	0.880270
N291	N29	0.674030	0.801170	0.007370
N301	N30	0.529430	0.585270	0.051770
C1551	C155	0.709930	0.823870	0.904970
H1131	H113	0.725730	0.856170	0.905070
C1561	C156	0.723930	0.801770	0.802170
H1141	H114	0.749130	0.818670	0.733370
C1571	C157	0.701030	0.755170	0.800770
H1151	H115	0.710730	0.739470	0.731870
C1581	C158	0.663830	0.730770	0.899670
C1591	C159	0.651430	0.755370	0.000970
H1161	H116	0.625830	0.739070	0.068570
C1601	C160	0.640230	0.680170	0.903770
C1611	C161	0.590630	0.653670	0.937770
C1621	C162	0.560130	0.666070	0.881470
H1171	H117	0.570230	0.693470	0.823070
C1631	C163	0.514330	0.637370	0.912870
H1181	H118	0.492430	0.644870	0.875370
C1641	C164	0.500530	0.598070	0.997970
H1191	H119	0.468930	0.579070	0.019570
C1651	C165	0.574330	0.612870	0.020470
H1201	H120	0.595430	0.604070	0.056270
Ag161	Ag16	0.826440	0.147360	0.495760
O161	O16	0.006030	0.335040	0.213600
N311	N31	0.865500	0.206200	0.340700
N321	N32	0.081400	0.277500	0.385100
C1661	C166	0.842800	0.219400	0.238300
H1211	H121	0.810500	0.202900	0.238400
C1671	C167	0.864900	0.255500	0.135500
H1221	H122	0.848000	0.263800	0.066700
C1681	C168	0.911500	0.279200	0.134100
H1231	H123	0.927200	0.304600	0.065200
C1691	C169	0.935900	0.266400	0.233000
C1701	C170	0.911300	0.229400	0.334300
H1241	H124	0.927600	0.220100	0.401900
C1711	C171	0.986500	0.293400	0.237100
C1721	C172	0.013000	0.270300	0.271100
C1731	C173	0.000600	0.227400	0.214800
H1251	H125	0.973200	0.210100	0.156400
C1741	C174	0.029300	0.210300	0.246200
H1261	H126	0.021800	0.180900	0.208700
C1751	C175	0.068600	0.235800	0.331300
H1271	H127	0.087600	0.223200	0.352900
C1761	C176	0.053800	0.294800	0.353800
H1281	H128	0.062600	0.324700	0.389600
Ag171	Ag17	0.493110	0.480690	0.829090
O171	O17	0.672700	0.668370	0.546930
N331	N33	0.532170	0.539530	0.674030
N341	N34	0.748070	0.610830	0.718430
C1771	C177	0.509470	0.552730	0.571630
H1291	H129	0.477170	0.536230	0.571730
C1781	C178	0.531570	0.588830	0.468830
H1301	H130	0.514670	0.597130	0.400030
C1791	C179	0.578170	0.612530	0.467430
H1311	H131	0.593870	0.637930	0.398530
C1801	C180	0.602570	0.599730	0.566330
C1811	C181	0.577970	0.562730	0.667630
H1321	H132	0.594270	0.553430	0.735230
C1821	C182	0.653170	0.626730	0.570430
C1831	C183	0.679670	0.603630	0.604430
C1841	C184	0.667270	0.560730	0.548130
H1331	H133	0.639870	0.543430	0.489730
C1851	C185	0.695970	0.543630	0.579530
H1341	H134	0.688470	0.514230	0.542030
C1861	C186	0.735270	0.569130	0.664630
H1351	H135	0.754270	0.556530	0.686230
C1871	C187	0.720470	0.628130	0.687130
H1361	H136	0.729270	0.658030	0.722930
Ag181	Ag18	0.159770	0.814030	0.162430
O181	O18	0.339360	0.001710	0.880270
N351	N35	0.198830	0.872870	0.007370
N361	N36	0.414730	0.944170	0.051770
C1881	C188	0.176130	0.886070	0.904970
H1371	H137	0.143830	0.869570	0.905070
C1891	C189	0.198230	0.922170	0.802170
H1381	H138	0.181330	0.930470	0.733370
C1901	C190	0.244830	0.945870	0.800770
H1391	H139	0.260530	0.971270	0.731870
C1911	C191	0.269230	0.933070	0.899670
C1921	C192	0.244630	0.896070	0.000970
H1401	H140	0.260930	0.886770	0.068570
C1931	C193	0.319830	0.960070	0.903770
C1941	C194	0.346330	0.936970	0.937770
C1951	C195	0.333930	0.894070	0.881470
H1411	H141	0.306530	0.876770	0.823070
C1961	C196	0.362630	0.876970	0.912870
H1421	H142	0.355130	0.847570	0.875370
C1971	C197	0.401930	0.902470	0.997970
H1431	H143	0.420930	0.889870	0.019570
C1981	C198	0.387130	0.961470	0.020470
H1441	H144	0.395930	0.991370	0.056270
