data_FUSMEM_freeONLY_PM
_symmetry_space_group_name_H-M	'P1'
_cell_length_a	33.453000
_cell_length_b	33.453000
_cell_length_c	8.427500
_cell_angle_alpha	90.000000
_cell_angle_beta	90.000000
_cell_angle_gamma	120.000000
_symmetry_Int_Tables_number 1

loop_
_symmetry_equiv_pos_as_xyz
'x,y,z'

loop_
_atom_site_label
_atom_site_type_symbol
_atom_site_fract_x
_atom_site_fract_y
_atom_site_fract_z
Ag11	Ag1	0.147060	0.321810	0.502630
O11	O1	0.334910	0.330060	0.792400
N11	N1	0.206050	0.342420	0.661500
N21	N2	0.278570	0.197380	0.618200
C11	C1	0.218470	0.377890	0.760200
H11	H1	0.201800	0.394000	0.757200
C21	C2	0.254460	0.392090	0.866400
H21	H2	0.262100	0.417200	0.936000
C31	C3	0.279090	0.369360	0.870000
H31	H3	0.304500	0.379000	0.940400
C41	C4	0.266310	0.332250	0.769700
C51	C5	0.229440	0.319750	0.667500
H41	H4	0.220500	0.294100	0.599100
C61	C6	0.293880	0.308530	0.766500
C71	C7	0.270830	0.258450	0.732100
C81	C8	0.226950	0.227450	0.785800
H51	H5	0.209200	0.237700	0.843000
C91	C9	0.209620	0.180990	0.753600
H61	H6	0.179700	0.158700	0.789100
C101	C10	0.236000	0.167720	0.670400
H71	H7	0.223600	0.135800	0.648500
C111	C11	0.295430	0.241890	0.650900
H81	H8	0.325900	0.263300	0.616800
Ag21	Ag2	0.813720	0.655140	0.835960
O21	O2	0.001580	0.663390	0.125730
N31	N3	0.872720	0.675750	0.994830
N41	N4	0.945240	0.530710	0.951530
C121	C12	0.885140	0.711220	0.093530
H91	H9	0.868470	0.727330	0.090530
C131	C13	0.921130	0.725420	0.199730
H101	H10	0.928770	0.750530	0.269330
C141	C14	0.945760	0.702690	0.203330
H111	H11	0.971170	0.712330	0.273730
C151	C15	0.932980	0.665580	0.103030
C161	C16	0.896110	0.653080	0.000830
H121	H12	0.887170	0.627430	0.932430
C171	C17	0.960550	0.641860	0.099830
C181	C18	0.937500	0.591780	0.065430
C191	C19	0.893620	0.560780	0.119130
H131	H13	0.875870	0.571030	0.176330
C201	C20	0.876290	0.514320	0.086930
H141	H14	0.846370	0.492030	0.122430
C211	C21	0.902670	0.501050	0.003730
H151	H15	0.890270	0.469130	0.981830
C221	C22	0.962100	0.575220	0.984230
H161	H16	0.992570	0.596630	0.950130
Ag31	Ag3	0.480390	0.988480	0.169300
O31	O3	0.668240	0.996730	0.459070
N51	N5	0.539380	0.009090	0.328170
N61	N6	0.611900	0.864050	0.284870
C231	C23	0.551800	0.044560	0.426870
H171	H17	0.535130	0.060670	0.423870
C241	C24	0.587790	0.058760	0.533070
H181	H18	0.595430	0.083870	0.602670
C251	C25	0.612420	0.036030	0.536670
H191	H19	0.637830	0.045670	0.607070
C261	C26	0.599640	0.998920	0.436370
C271	C27	0.562770	0.986420	0.334170
H201	H20	0.553830	0.960770	0.265770
C281	C28	0.627210	0.975200	0.433170
C291	C29	0.604160	0.925120	0.398770
C301	C30	0.560280	0.894120	0.452470
H211	H21	0.542530	0.904370	0.509670
C311	C31	0.542950	0.847660	0.420270
H221	H22	0.513030	0.825370	0.455770
C321	C32	0.569330	0.834390	0.337070
H231	H23	0.556930	0.802470	0.315170
C331	C33	0.628760	0.908560	0.317570
H241	H24	0.659230	0.929970	0.283470
Ag41	Ag4	0.678190	0.825250	0.502630
O41	O4	0.669940	0.004850	0.792400
N71	N7	0.657580	0.863630	0.661500
N81	N8	0.802620	0.081190	0.618200
C341	C34	0.622110	0.840580	0.760200
H251	H25	0.606000	0.807800	0.757200
C351	C35	0.607910	0.862370	0.866400
H261	H26	0.582800	0.844900	0.936000
C361	C36	0.630640	0.909730	0.870000
H271	H27	0.621000	0.925500	0.940400
C371	C37	0.667750	0.934060	0.769700
C381	C38	0.680250	0.909690	0.667500
H281	H28	0.705900	0.926400	0.599100
C391	C39	0.691470	0.985350	0.766500
C401	C40	0.741550	0.012380	0.732100
C411	C41	0.772550	0.999500	0.785800
H291	H29	0.762300	0.971500	0.843000
C421	C42	0.819010	0.028630	0.753600
H301	H30	0.841300	0.021000	0.789100
C431	C43	0.832280	0.068280	0.670400
H311	H31	0.864200	0.087800	0.648500
C441	C44	0.758110	0.053540	0.650900
H321	H32	0.736700	0.062600	0.616800
Ag51	Ag5	0.344860	0.158580	0.835960
O51	O5	0.336610	0.338180	0.125730
N91	N9	0.324250	0.196960	0.994830
N101	N10	0.469290	0.414520	0.951530
C451	C45	0.288780	0.173910	0.093530
H331	H33	0.272670	0.141130	0.090530
C461	C46	0.274580	0.195700	0.199730
H341	H34	0.249470	0.178230	0.269330
C471	C47	0.297310	0.243060	0.203330
H351	H35	0.287670	0.258830	0.273730
C481	C48	0.334420	0.267390	0.103030
C491	C49	0.346920	0.243020	0.000830
H361	H36	0.372570	0.259730	0.932430
C501	C50	0.358140	0.318680	0.099830
C511	C51	0.408220	0.345710	0.065430
C521	C52	0.439220	0.332830	0.119130
H371	H37	0.428970	0.304830	0.176330
C531	C53	0.485680	0.361960	0.086930
H381	H38	0.507970	0.354330	0.122430
C541	C54	0.498950	0.401610	0.003730
H391	H39	0.530870	0.421130	0.981830
C551	C55	0.424780	0.386870	0.984230
H401	H40	0.403370	0.395930	0.950130
Ag61	Ag6	0.011520	0.491910	0.169300
O61	O6	0.003270	0.671520	0.459070
N111	N11	0.990910	0.530300	0.328170
N121	N12	0.135950	0.747860	0.284870
C561	C56	0.955440	0.507250	0.426870
H411	H41	0.939330	0.474470	0.423870
C571	C57	0.941240	0.529040	0.533070
H421	H42	0.916130	0.511570	0.602670
C581	C58	0.963970	0.576400	0.536670
H431	H43	0.954330	0.592170	0.607070
C591	C59	0.001080	0.600730	0.436370
C601	C60	0.013580	0.576360	0.334170
H441	H44	0.039230	0.593070	0.265770
C611	C61	0.024800	0.652020	0.433170
C621	C62	0.074880	0.679050	0.398770
C631	C63	0.105880	0.666170	0.452470
H451	H45	0.095630	0.638170	0.509670
C641	C64	0.152340	0.695300	0.420270
H461	H46	0.174630	0.687670	0.455770
C651	C65	0.165610	0.734950	0.337070
H471	H47	0.197530	0.754470	0.315170
C661	C66	0.091440	0.720210	0.317570
H481	H48	0.070030	0.729270	0.283470
Ag71	Ag7	0.174750	0.852940	0.502630
O71	O7	0.995150	0.665090	0.792400
N131	N13	0.136370	0.793950	0.661500
N141	N14	0.918810	0.721430	0.618200
C671	C67	0.159420	0.781530	0.760200
H491	H49	0.192200	0.798200	0.757200
C681	C68	0.137630	0.745540	0.866400
H501	H50	0.155100	0.737900	0.936000
C691	C69	0.090270	0.720910	0.870000
H511	H51	0.074500	0.695500	0.940400
C701	C70	0.065940	0.733690	0.769700
C711	C71	0.090310	0.770560	0.667500
H521	H52	0.073600	0.779500	0.599100
C721	C72	0.014650	0.706120	0.766500
C731	C73	0.987620	0.729170	0.732100
C741	C74	0.000500	0.773050	0.785800
H531	H53	0.028500	0.790800	0.843000
C751	C75	0.971370	0.790380	0.753600
H541	H54	0.979000	0.820300	0.789100
C761	C76	0.931720	0.764000	0.670400
H551	H55	0.912200	0.776400	0.648500
C771	C77	0.946460	0.704570	0.650900
H561	H56	0.937400	0.674100	0.616800
Ag81	Ag8	0.841420	0.186280	0.835960
O81	O8	0.661820	0.998420	0.125730
N151	N15	0.803040	0.127280	0.994830
N161	N16	0.585480	0.054760	0.951530
C781	C78	0.826090	0.114860	0.093530
H571	H57	0.858870	0.131530	0.090530
C791	C79	0.804300	0.078870	0.199730
H581	H58	0.821770	0.071230	0.269330
C801	C80	0.756940	0.054240	0.203330
H591	H59	0.741170	0.028830	0.273730
C811	C81	0.732610	0.067020	0.103030
C821	C82	0.756980	0.103890	0.000830
H601	H60	0.740270	0.112830	0.932430
C831	C83	0.681320	0.039450	0.099830
C841	C84	0.654290	0.062500	0.065430
C851	C85	0.667170	0.106380	0.119130
H611	H61	0.695170	0.124130	0.176330
C861	C86	0.638040	0.123710	0.086930
H621	H62	0.645670	0.153630	0.122430
C871	C87	0.598390	0.097330	0.003730
H631	H63	0.578870	0.109730	0.981830
C881	C88	0.613130	0.037900	0.984230
H641	H64	0.604070	0.007430	0.950130
Ag91	Ag9	0.508090	0.519610	0.169300
O91	O9	0.328480	0.331760	0.459070
N171	N17	0.469700	0.460620	0.328170
N181	N18	0.252140	0.388100	0.284870
C891	C89	0.492750	0.448200	0.426870
H651	H65	0.525530	0.464870	0.423870
C901	C90	0.470960	0.412210	0.533070
H661	H66	0.488430	0.404570	0.602670
C911	C91	0.423600	0.387580	0.536670
H671	H67	0.407830	0.362170	0.607070
C921	C92	0.399270	0.400360	0.436370
C931	C93	0.423640	0.437230	0.334170
H681	H68	0.406930	0.446170	0.265770
C941	C94	0.347980	0.372790	0.433170
C951	C95	0.320950	0.395840	0.398770
C961	C96	0.333830	0.439720	0.452470
H691	H69	0.361830	0.457470	0.509670
C971	C97	0.304700	0.457050	0.420270
H701	H70	0.312330	0.486970	0.455770
C981	C98	0.265050	0.430670	0.337070
H711	H71	0.245530	0.443070	0.315170
C991	C99	0.279790	0.371240	0.317570
H721	H72	0.270730	0.340770	0.283470
Ag101	Ag10	0.852940	0.678190	0.497370
O101	O10	0.665090	0.669940	0.207600
N191	N19	0.793950	0.657580	0.338500
N201	N20	0.721430	0.802620	0.381800
C1001	C100	0.781530	0.622110	0.239800
H731	H73	0.798200	0.606000	0.242800
C1011	C101	0.745540	0.607910	0.133600
H741	H74	0.737900	0.582800	0.064000
C1021	C102	0.720910	0.630640	0.130000
H751	H75	0.695500	0.621000	0.059600
C1031	C103	0.733690	0.667750	0.230300
C1041	C104	0.770560	0.680250	0.332500
H761	H76	0.779500	0.705900	0.400900
C1051	C105	0.706120	0.691470	0.233500
C1061	C106	0.729170	0.741550	0.267900
C1071	C107	0.773050	0.772550	0.214200
H771	H77	0.790800	0.762300	0.157000
C1081	C108	0.790380	0.819010	0.246400
H781	H78	0.820300	0.841300	0.210900
C1091	C109	0.764000	0.832280	0.329600
H791	H79	0.776400	0.864200	0.351500
C1101	C110	0.704570	0.758110	0.349100
H801	H80	0.674100	0.736700	0.383200
Ag111	Ag11	0.519610	0.011520	0.830700
O111	O11	0.331760	0.003270	0.540930
N211	N21	0.460620	0.990910	0.671830
N221	N22	0.388100	0.135950	0.715130
C1111	C111	0.448200	0.955440	0.573130
H811	H81	0.464870	0.939330	0.576130
C1121	C112	0.412210	0.941240	0.466930
H821	H82	0.404570	0.916130	0.397330
C1131	C113	0.387580	0.963970	0.463330
H831	H83	0.362170	0.954330	0.392930
C1141	C114	0.400360	0.001080	0.563630
C1151	C115	0.437230	0.013580	0.665830
H841	H84	0.446170	0.039230	0.734230
C1161	C116	0.372790	0.024800	0.566830
C1171	C117	0.395840	0.074880	0.601230
C1181	C118	0.439720	0.105880	0.547530
H851	H85	0.457470	0.095630	0.490330
C1191	C119	0.457050	0.152340	0.579730
H861	H86	0.486970	0.174630	0.544230
C1201	C120	0.430670	0.165610	0.662930
H871	H87	0.443070	0.197530	0.684830
C1211	C121	0.371240	0.091440	0.682430
H881	H88	0.340770	0.070030	0.716530
Ag121	Ag12	0.186280	0.344860	0.164040
O121	O12	0.998420	0.336610	0.874270
N231	N23	0.127280	0.324250	0.005170
N241	N24	0.054760	0.469290	0.048470
C1221	C122	0.114860	0.288780	0.906470
H891	H89	0.131530	0.272670	0.909470
C1231	C123	0.078870	0.274580	0.800270
H901	H90	0.071230	0.249470	0.730670
C1241	C124	0.054240	0.297310	0.796670
H911	H91	0.028830	0.287670	0.726270
C1251	C125	0.067020	0.334420	0.896970
C1261	C126	0.103890	0.346920	0.999170
H921	H92	0.112830	0.372570	0.067570
C1271	C127	0.039450	0.358140	0.900170
C1281	C128	0.062500	0.408220	0.934570
C1291	C129	0.106380	0.439220	0.880870
H931	H93	0.124130	0.428970	0.823670
C1301	C130	0.123710	0.485680	0.913070
H941	H94	0.153630	0.507970	0.877570
C1311	C131	0.097330	0.498950	0.996270
H951	H95	0.109730	0.530870	0.018170
C1321	C132	0.037900	0.424780	0.015770
H961	H96	0.007430	0.403370	0.049870
Ag131	Ag13	0.321810	0.174750	0.497370
O131	O13	0.330060	0.995150	0.207600
N251	N25	0.342420	0.136370	0.338500
N261	N26	0.197380	0.918810	0.381800
C1331	C133	0.377890	0.159420	0.239800
H971	H97	0.394000	0.192200	0.242800
C1341	C134	0.392090	0.137630	0.133600
H981	H98	0.417200	0.155100	0.064000
C1351	C135	0.369360	0.090270	0.130000
H991	H99	0.379000	0.074500	0.059600
C1361	C136	0.332250	0.065940	0.230300
C1371	C137	0.319750	0.090310	0.332500
H1001	H100	0.294100	0.073600	0.400900
C1381	C138	0.308530	0.014650	0.233500
C1391	C139	0.258450	0.987620	0.267900
C1401	C140	0.227450	0.000500	0.214200
H1011	H101	0.237700	0.028500	0.157000
C1411	C141	0.180990	0.971370	0.246400
H1021	H102	0.158700	0.979000	0.210900
C1421	C142	0.167720	0.931720	0.329600
H1031	H103	0.135800	0.912200	0.351500
C1431	C143	0.241890	0.946460	0.349100
H1041	H104	0.263300	0.937400	0.383200
Ag141	Ag14	0.988480	0.508090	0.830700
O141	O14	0.996730	0.328480	0.540930
N271	N27	0.009090	0.469700	0.671830
N281	N28	0.864050	0.252140	0.715130
C1441	C144	0.044560	0.492750	0.573130
H1051	H105	0.060670	0.525530	0.576130
C1451	C145	0.058760	0.470960	0.466930
H1061	H106	0.083870	0.488430	0.397330
C1461	C146	0.036030	0.423600	0.463330
H1071	H107	0.045670	0.407830	0.392930
C1471	C147	0.998920	0.399270	0.563630
C1481	C148	0.986420	0.423640	0.665830
H1081	H108	0.960770	0.406930	0.734230
C1491	C149	0.975200	0.347980	0.566830
C1501	C150	0.925120	0.320950	0.601230
C1511	C151	0.894120	0.333830	0.547530
H1091	H109	0.904370	0.361830	0.490330
C1521	C152	0.847660	0.304700	0.579730
H1101	H110	0.825370	0.312330	0.544230
C1531	C153	0.834390	0.265050	0.662930
H1111	H111	0.802470	0.245530	0.684830
C1541	C154	0.908560	0.279790	0.682430
H1121	H112	0.929970	0.270730	0.716530
Ag151	Ag15	0.655140	0.841420	0.164040
O151	O15	0.663390	0.661820	0.874270
N291	N29	0.675750	0.803040	0.005170
N301	N30	0.530710	0.585480	0.048470
C1551	C155	0.711220	0.826090	0.906470
H1131	H113	0.727330	0.858870	0.909470
C1561	C156	0.725420	0.804300	0.800270
H1141	H114	0.750530	0.821770	0.730670
C1571	C157	0.702690	0.756940	0.796670
H1151	H115	0.712330	0.741170	0.726270
C1581	C158	0.665580	0.732610	0.896970
C1591	C159	0.653080	0.756980	0.999170
H1161	H116	0.627430	0.740270	0.067570
C1601	C160	0.641860	0.681320	0.900170
C1611	C161	0.591780	0.654290	0.934570
C1621	C162	0.560780	0.667170	0.880870
H1171	H117	0.571030	0.695170	0.823670
C1631	C163	0.514320	0.638040	0.913070
H1181	H118	0.492030	0.645670	0.877570
C1641	C164	0.501050	0.598390	0.996270
H1191	H119	0.469130	0.578870	0.018170
C1651	C165	0.575220	0.613130	0.015770
H1201	H120	0.596630	0.604070	0.049870
Ag161	Ag16	0.825250	0.147060	0.497370
O161	O16	0.004850	0.334910	0.207600
N311	N31	0.863630	0.206050	0.338500
N321	N32	0.081190	0.278570	0.381800
C1661	C166	0.840580	0.218470	0.239800
H1211	H121	0.807800	0.201800	0.242800
C1671	C167	0.862370	0.254460	0.133600
H1221	H122	0.844900	0.262100	0.064000
C1681	C168	0.909730	0.279090	0.130000
H1231	H123	0.925500	0.304500	0.059600
C1691	C169	0.934060	0.266310	0.230300
C1701	C170	0.909690	0.229440	0.332500
H1241	H124	0.926400	0.220500	0.400900
C1711	C171	0.985350	0.293880	0.233500
C1721	C172	0.012380	0.270830	0.267900
C1731	C173	0.999500	0.226950	0.214200
H1251	H125	0.971500	0.209200	0.157000
C1741	C174	0.028630	0.209620	0.246400
H1261	H126	0.021000	0.179700	0.210900
C1751	C175	0.068280	0.236000	0.329600
H1271	H127	0.087800	0.223600	0.351500
C1761	C176	0.053540	0.295430	0.349100
H1281	H128	0.062600	0.325900	0.383200
Ag171	Ag17	0.491910	0.480390	0.830700
O171	O17	0.671520	0.668240	0.540930
N331	N33	0.530300	0.539380	0.671830
N341	N34	0.747860	0.611900	0.715130
C1771	C177	0.507250	0.551800	0.573130
H1291	H129	0.474470	0.535130	0.576130
C1781	C178	0.529040	0.587790	0.466930
H1301	H130	0.511570	0.595430	0.397330
C1791	C179	0.576400	0.612420	0.463330
H1311	H131	0.592170	0.637830	0.392930
C1801	C180	0.600730	0.599640	0.563630
C1811	C181	0.576360	0.562770	0.665830
H1321	H132	0.593070	0.553830	0.734230
C1821	C182	0.652020	0.627210	0.566830
C1831	C183	0.679050	0.604160	0.601230
C1841	C184	0.666170	0.560280	0.547530
H1331	H133	0.638170	0.542530	0.490330
C1851	C185	0.695300	0.542950	0.579730
H1341	H134	0.687670	0.513030	0.544230
C1861	C186	0.734950	0.569330	0.662930
H1351	H135	0.754470	0.556930	0.684830
C1871	C187	0.720210	0.628760	0.682430
H1361	H136	0.729270	0.659230	0.716530
Ag181	Ag18	0.158580	0.813720	0.164040
O181	O18	0.338180	0.001580	0.874270
N351	N35	0.196960	0.872720	0.005170
N361	N36	0.414520	0.945240	0.048470
C1881	C188	0.173910	0.885140	0.906470
H1371	H137	0.141130	0.868470	0.909470
C1891	C189	0.195700	0.921130	0.800270
H1381	H138	0.178230	0.928770	0.730670
C1901	C190	0.243060	0.945760	0.796670
H1391	H139	0.258830	0.971170	0.726270
C1911	C191	0.267390	0.932980	0.896970
C1921	C192	0.243020	0.896110	0.999170
H1401	H140	0.259730	0.887170	0.067570
C1931	C193	0.318680	0.960550	0.900170
C1941	C194	0.345710	0.937500	0.934570
C1951	C195	0.332830	0.893620	0.880870
H1411	H141	0.304830	0.875870	0.823670
C1961	C196	0.361960	0.876290	0.913070
H1421	H142	0.354330	0.846370	0.877570
C1971	C197	0.401610	0.902670	0.996270
H1431	H143	0.421130	0.890270	0.018170
C1981	C198	0.386870	0.962100	0.015770
H1441	H144	0.395930	0.992570	0.049870
