data_FUSNEN_freeONLY_PM
_symmetry_space_group_name_H-M	'P1'
_cell_length_a	34.533000
_cell_length_b	34.533000
_cell_length_c	8.473000
_cell_angle_alpha	90.000000
_cell_angle_beta	90.000000
_cell_angle_gamma	120.000000
_symmetry_Int_Tables_number 1

loop_
_symmetry_equiv_pos_as_xyz
'x,y,z'

loop_
_atom_site_label
_atom_site_type_symbol
_atom_site_fract_x
_atom_site_fract_y
_atom_site_fract_z
Ag11	Ag1	0.145180	0.317740	0.505810
O11	O1	0.333280	0.328800	0.751600
N11	N1	0.204700	0.337800	0.654700
N21	N2	0.276500	0.197500	0.603600
C11	C1	0.218100	0.372800	0.750800
H11	H1	0.201500	0.387400	0.754200
C21	C2	0.255500	0.388400	0.845600
H21	H2	0.263800	0.412800	0.911800
C31	C3	0.280000	0.367500	0.840800
H31	H3	0.305700	0.377900	0.901600
C41	C4	0.266000	0.330100	0.743800
C51	C5	0.228000	0.317100	0.652800
H41	H4	0.218400	0.292400	0.587100
C61	C6	0.292800	0.307400	0.734400
C71	C7	0.270500	0.258500	0.708600
C81	C8	0.228400	0.228800	0.774400
H51	H5	0.212500	0.239200	0.831700
C91	C9	0.211800	0.184000	0.750800
H61	H6	0.184000	0.163300	0.791600
C101	C10	0.236500	0.169400	0.666200
H71	H7	0.224700	0.138900	0.652100
C111	C11	0.293300	0.241200	0.628600
H81	H8	0.321700	0.260900	0.590200
Ag21	Ag2	0.811850	0.651070	0.839140
O21	O2	0.999950	0.662130	0.084930
N31	N3	0.871370	0.671130	0.988030
N41	N4	0.943170	0.530830	0.936930
C121	C12	0.884770	0.706130	0.084130
H91	H9	0.868170	0.720730	0.087530
C131	C13	0.922170	0.721730	0.178930
H101	H10	0.930470	0.746130	0.245130
C141	C14	0.946670	0.700830	0.174130
H111	H11	0.972370	0.711230	0.234930
C151	C15	0.932670	0.663430	0.077130
C161	C16	0.894670	0.650430	0.986130
H121	H12	0.885070	0.625730	0.920430
C171	C17	0.959470	0.640730	0.067730
C181	C18	0.937170	0.591830	0.041930
C191	C19	0.895070	0.562130	0.107730
H131	H13	0.879170	0.572530	0.165030
C201	C20	0.878470	0.517330	0.084130
H141	H14	0.850670	0.496630	0.124930
C211	C21	0.903170	0.502730	0.999530
H151	H15	0.891370	0.472230	0.985430
C221	C22	0.959970	0.574530	0.961930
H161	H16	0.988370	0.594230	0.923530
Ag31	Ag3	0.478510	0.984410	0.172480
O31	O3	0.666610	0.995470	0.418270
N51	N5	0.538030	0.004470	0.321370
N61	N6	0.609830	0.864170	0.270270
C231	C23	0.551430	0.039470	0.417470
H171	H17	0.534830	0.054070	0.420870
C241	C24	0.588830	0.055070	0.512270
H181	H18	0.597130	0.079470	0.578470
C251	C25	0.613330	0.034170	0.507470
H191	H19	0.639030	0.044570	0.568270
C261	C26	0.599330	0.996770	0.410470
C271	C27	0.561330	0.983770	0.319470
H201	H20	0.551730	0.959070	0.253770
C281	C28	0.626130	0.974070	0.401070
C291	C29	0.603830	0.925170	0.375270
C301	C30	0.561730	0.895470	0.441070
H211	H21	0.545830	0.905870	0.498370
C311	C31	0.545130	0.850670	0.417470
H221	H22	0.517330	0.829970	0.458270
C321	C32	0.569830	0.836070	0.332870
H231	H23	0.558030	0.805570	0.318770
C331	C33	0.626630	0.907870	0.295270
H241	H24	0.655030	0.927570	0.256870
Ag41	Ag4	0.682260	0.827440	0.505810
O41	O4	0.671200	0.004480	0.751600
N71	N7	0.662200	0.866900	0.654700
N81	N8	0.802500	0.079000	0.603600
C341	C34	0.627200	0.845300	0.750800
H251	H25	0.612600	0.814100	0.754200
C351	C35	0.611600	0.867100	0.845600
H261	H26	0.587200	0.851000	0.911800
C361	C36	0.632500	0.912500	0.840800
H271	H27	0.622100	0.927800	0.901600
C371	C37	0.669900	0.935900	0.743800
C381	C38	0.682900	0.910900	0.652800
H281	H28	0.707600	0.926000	0.587100
C391	C39	0.692600	0.985400	0.734400
C401	C40	0.741500	0.012000	0.708600
C411	C41	0.771200	0.999600	0.774400
H291	H29	0.760800	0.973300	0.831700
C421	C42	0.816000	0.027800	0.750800
H301	H30	0.836700	0.020700	0.791600
C431	C43	0.830600	0.067100	0.666200
H311	H31	0.861100	0.085800	0.652100
C441	C44	0.758800	0.052100	0.628600
H321	H32	0.739100	0.060800	0.590200
Ag51	Ag5	0.348930	0.160770	0.839140
O51	O5	0.337870	0.337810	0.084930
N91	N9	0.328870	0.200230	0.988030
N101	N10	0.469170	0.412330	0.936930
C451	C45	0.293870	0.178630	0.084130
H331	H33	0.279270	0.147430	0.087530
C461	C46	0.278270	0.200430	0.178930
H341	H34	0.253870	0.184330	0.245130
C471	C47	0.299170	0.245830	0.174130
H351	H35	0.288770	0.261130	0.234930
C481	C48	0.336570	0.269230	0.077130
C491	C49	0.349570	0.244230	0.986130
H361	H36	0.374270	0.259330	0.920430
C501	C50	0.359270	0.318730	0.067730
C511	C51	0.408170	0.345330	0.041930
C521	C52	0.437870	0.332930	0.107730
H371	H37	0.427470	0.306630	0.165030
C531	C53	0.482670	0.361130	0.084130
H381	H38	0.503370	0.354030	0.124930
C541	C54	0.497270	0.400430	0.999530
H391	H39	0.527770	0.419130	0.985430
C551	C55	0.425470	0.385430	0.961930
H401	H40	0.405770	0.394130	0.923530
Ag61	Ag6	0.015590	0.494110	0.172480
O61	O6	0.004530	0.671150	0.418270
N111	N11	0.995530	0.533570	0.321370
N121	N12	0.135830	0.745670	0.270270
C561	C56	0.960530	0.511970	0.417470
H411	H41	0.945930	0.480770	0.420870
C571	C57	0.944930	0.533770	0.512270
H421	H42	0.920530	0.517670	0.578470
C581	C58	0.965830	0.579170	0.507470
H431	H43	0.955430	0.594470	0.568270
C591	C59	0.003230	0.602570	0.410470
C601	C60	0.016230	0.577570	0.319470
H441	H44	0.040930	0.592670	0.253770
C611	C61	0.025930	0.652070	0.401070
C621	C62	0.074830	0.678670	0.375270
C631	C63	0.104530	0.666270	0.441070
H451	H45	0.094130	0.639970	0.498370
C641	C64	0.149330	0.694470	0.417470
H461	H46	0.170030	0.687370	0.458270
C651	C65	0.163930	0.733770	0.332870
H471	H47	0.194430	0.752470	0.318770
C661	C66	0.092130	0.718770	0.295270
H481	H48	0.072430	0.727470	0.256870
Ag71	Ag7	0.172560	0.854820	0.505810
O71	O7	0.995520	0.666720	0.751600
N131	N13	0.133100	0.795300	0.654700
N141	N14	0.921000	0.723500	0.603600
C671	C67	0.154700	0.781900	0.750800
H491	H49	0.185900	0.798500	0.754200
C681	C68	0.132900	0.744500	0.845600
H501	H50	0.149000	0.736200	0.911800
C691	C69	0.087500	0.720000	0.840800
H511	H51	0.072200	0.694300	0.901600
C701	C70	0.064100	0.734000	0.743800
C711	C71	0.089100	0.772000	0.652800
H521	H52	0.074000	0.781600	0.587100
C721	C72	0.014600	0.707200	0.734400
C731	C73	0.988000	0.729500	0.708600
C741	C74	0.000400	0.771600	0.774400
H531	H53	0.026700	0.787500	0.831700
C751	C75	0.972200	0.788200	0.750800
H541	H54	0.979300	0.816000	0.791600
C761	C76	0.932900	0.763500	0.666200
H551	H55	0.914200	0.775300	0.652100
C771	C77	0.947900	0.706700	0.628600
H561	H56	0.939200	0.678300	0.590200
Ag81	Ag8	0.839230	0.188150	0.839140
O81	O8	0.662190	0.000050	0.084930
N151	N15	0.799770	0.128630	0.988030
N161	N16	0.587670	0.056830	0.936930
C781	C78	0.821370	0.115230	0.084130
H571	H57	0.852570	0.131830	0.087530
C791	C79	0.799570	0.077830	0.178930
H581	H58	0.815670	0.069530	0.245130
C801	C80	0.754170	0.053330	0.174130
H591	H59	0.738870	0.027630	0.234930
C811	C81	0.730770	0.067330	0.077130
C821	C82	0.755770	0.105330	0.986130
H601	H60	0.740670	0.114930	0.920430
C831	C83	0.681270	0.040530	0.067730
C841	C84	0.654670	0.062830	0.041930
C851	C85	0.667070	0.104930	0.107730
H611	H61	0.693370	0.120830	0.165030
C861	C86	0.638870	0.121530	0.084130
H621	H62	0.645970	0.149330	0.124930
C871	C87	0.599570	0.096830	0.999530
H631	H63	0.580870	0.108630	0.985430
C881	C88	0.614570	0.040030	0.961930
H641	H64	0.605870	0.011630	0.923530
Ag91	Ag9	0.505890	0.521490	0.172480
O91	O9	0.328850	0.333390	0.418270
N171	N17	0.466430	0.461970	0.321370
N181	N18	0.254330	0.390170	0.270270
C891	C89	0.488030	0.448570	0.417470
H651	H65	0.519230	0.465170	0.420870
C901	C90	0.466230	0.411170	0.512270
H661	H66	0.482330	0.402870	0.578470
C911	C91	0.420830	0.386670	0.507470
H671	H67	0.405530	0.360970	0.568270
C921	C92	0.397430	0.400670	0.410470
C931	C93	0.422430	0.438670	0.319470
H681	H68	0.407330	0.448270	0.253770
C941	C94	0.347930	0.373870	0.401070
C951	C95	0.321330	0.396170	0.375270
C961	C96	0.333730	0.438270	0.441070
H691	H69	0.360030	0.454170	0.498370
C971	C97	0.305530	0.454870	0.417470
H701	H70	0.312630	0.482670	0.458270
C981	C98	0.266230	0.430170	0.332870
H711	H71	0.247530	0.441970	0.318770
C991	C99	0.281230	0.373370	0.295270
H721	H72	0.272530	0.344970	0.256870
Ag101	Ag10	0.854820	0.682260	0.494190
O101	O10	0.666720	0.671200	0.248400
N191	N19	0.795300	0.662200	0.345300
N201	N20	0.723500	0.802500	0.396400
C1001	C100	0.781900	0.627200	0.249200
H731	H73	0.798500	0.612600	0.245800
C1011	C101	0.744500	0.611600	0.154400
H741	H74	0.736200	0.587200	0.088200
C1021	C102	0.720000	0.632500	0.159200
H751	H75	0.694300	0.622100	0.098400
C1031	C103	0.734000	0.669900	0.256200
C1041	C104	0.772000	0.682900	0.347200
H761	H76	0.781600	0.707600	0.412900
C1051	C105	0.707200	0.692600	0.265600
C1061	C106	0.729500	0.741500	0.291400
C1071	C107	0.771600	0.771200	0.225600
H771	H77	0.787500	0.760800	0.168300
C1081	C108	0.788200	0.816000	0.249200
H781	H78	0.816000	0.836700	0.208400
C1091	C109	0.763500	0.830600	0.333800
H791	H79	0.775300	0.861100	0.347900
C1101	C110	0.706700	0.758800	0.371400
H801	H80	0.678300	0.739100	0.409800
Ag111	Ag11	0.521490	0.015590	0.827520
O111	O11	0.333390	0.004530	0.581730
N211	N21	0.461970	0.995530	0.678630
N221	N22	0.390170	0.135830	0.729730
C1111	C111	0.448570	0.960530	0.582530
H811	H81	0.465170	0.945930	0.579130
C1121	C112	0.411170	0.944930	0.487730
H821	H82	0.402870	0.920530	0.421530
C1131	C113	0.386670	0.965830	0.492530
H831	H83	0.360970	0.955430	0.431730
C1141	C114	0.400670	0.003230	0.589530
C1151	C115	0.438670	0.016230	0.680530
H841	H84	0.448270	0.040930	0.746230
C1161	C116	0.373870	0.025930	0.598930
C1171	C117	0.396170	0.074830	0.624730
C1181	C118	0.438270	0.104530	0.558930
H851	H85	0.454170	0.094130	0.501630
C1191	C119	0.454870	0.149330	0.582530
H861	H86	0.482670	0.170030	0.541730
C1201	C120	0.430170	0.163930	0.667130
H871	H87	0.441970	0.194430	0.681230
C1211	C121	0.373370	0.092130	0.704730
H881	H88	0.344970	0.072430	0.743130
Ag121	Ag12	0.188150	0.348930	0.160860
O121	O12	0.000050	0.337870	0.915070
N231	N23	0.128630	0.328870	0.011970
N241	N24	0.056830	0.469170	0.063070
C1221	C122	0.115230	0.293870	0.915870
H891	H89	0.131830	0.279270	0.912470
C1231	C123	0.077830	0.278270	0.821070
H901	H90	0.069530	0.253870	0.754870
C1241	C124	0.053330	0.299170	0.825870
H911	H91	0.027630	0.288770	0.765070
C1251	C125	0.067330	0.336570	0.922870
C1261	C126	0.105330	0.349570	0.013870
H921	H92	0.114930	0.374270	0.079570
C1271	C127	0.040530	0.359270	0.932270
C1281	C128	0.062830	0.408170	0.958070
C1291	C129	0.104930	0.437870	0.892270
H931	H93	0.120830	0.427470	0.834970
C1301	C130	0.121530	0.482670	0.915870
H941	H94	0.149330	0.503370	0.875070
C1311	C131	0.096830	0.497270	0.000470
H951	H95	0.108630	0.527770	0.014570
C1321	C132	0.040030	0.425470	0.038070
H961	H96	0.011630	0.405770	0.076470
Ag131	Ag13	0.317740	0.172560	0.494190
O131	O13	0.328800	0.995520	0.248400
N251	N25	0.337800	0.133100	0.345300
N261	N26	0.197500	0.921000	0.396400
C1331	C133	0.372800	0.154700	0.249200
H971	H97	0.387400	0.185900	0.245800
C1341	C134	0.388400	0.132900	0.154400
H981	H98	0.412800	0.149000	0.088200
C1351	C135	0.367500	0.087500	0.159200
H991	H99	0.377900	0.072200	0.098400
C1361	C136	0.330100	0.064100	0.256200
C1371	C137	0.317100	0.089100	0.347200
H1001	H100	0.292400	0.074000	0.412900
C1381	C138	0.307400	0.014600	0.265600
C1391	C139	0.258500	0.988000	0.291400
C1401	C140	0.228800	0.000400	0.225600
H1011	H101	0.239200	0.026700	0.168300
C1411	C141	0.184000	0.972200	0.249200
H1021	H102	0.163300	0.979300	0.208400
C1421	C142	0.169400	0.932900	0.333800
H1031	H103	0.138900	0.914200	0.347900
C1431	C143	0.241200	0.947900	0.371400
H1041	H104	0.260900	0.939200	0.409800
Ag141	Ag14	0.984410	0.505890	0.827520
O141	O14	0.995470	0.328850	0.581730
N271	N27	0.004470	0.466430	0.678630
N281	N28	0.864170	0.254330	0.729730
C1441	C144	0.039470	0.488030	0.582530
H1051	H105	0.054070	0.519230	0.579130
C1451	C145	0.055070	0.466230	0.487730
H1061	H106	0.079470	0.482330	0.421530
C1461	C146	0.034170	0.420830	0.492530
H1071	H107	0.044570	0.405530	0.431730
C1471	C147	0.996770	0.397430	0.589530
C1481	C148	0.983770	0.422430	0.680530
H1081	H108	0.959070	0.407330	0.746230
C1491	C149	0.974070	0.347930	0.598930
C1501	C150	0.925170	0.321330	0.624730
C1511	C151	0.895470	0.333730	0.558930
H1091	H109	0.905870	0.360030	0.501630
C1521	C152	0.850670	0.305530	0.582530
H1101	H110	0.829970	0.312630	0.541730
C1531	C153	0.836070	0.266230	0.667130
H1111	H111	0.805570	0.247530	0.681230
C1541	C154	0.907870	0.281230	0.704730
H1121	H112	0.927570	0.272530	0.743130
Ag151	Ag15	0.651070	0.839230	0.160860
O151	O15	0.662130	0.662190	0.915070
N291	N29	0.671130	0.799770	0.011970
N301	N30	0.530830	0.587670	0.063070
C1551	C155	0.706130	0.821370	0.915870
H1131	H113	0.720730	0.852570	0.912470
C1561	C156	0.721730	0.799570	0.821070
H1141	H114	0.746130	0.815670	0.754870
C1571	C157	0.700830	0.754170	0.825870
H1151	H115	0.711230	0.738870	0.765070
C1581	C158	0.663430	0.730770	0.922870
C1591	C159	0.650430	0.755770	0.013870
H1161	H116	0.625730	0.740670	0.079570
C1601	C160	0.640730	0.681270	0.932270
C1611	C161	0.591830	0.654670	0.958070
C1621	C162	0.562130	0.667070	0.892270
H1171	H117	0.572530	0.693370	0.834970
C1631	C163	0.517330	0.638870	0.915870
H1181	H118	0.496630	0.645970	0.875070
C1641	C164	0.502730	0.599570	0.000470
H1191	H119	0.472230	0.580870	0.014570
C1651	C165	0.574530	0.614570	0.038070
H1201	H120	0.594230	0.605870	0.076470
Ag161	Ag16	0.827440	0.145180	0.494190
O161	O16	0.004480	0.333280	0.248400
N311	N31	0.866900	0.204700	0.345300
N321	N32	0.079000	0.276500	0.396400
C1661	C166	0.845300	0.218100	0.249200
H1211	H121	0.814100	0.201500	0.245800
C1671	C167	0.867100	0.255500	0.154400
H1221	H122	0.851000	0.263800	0.088200
C1681	C168	0.912500	0.280000	0.159200
H1231	H123	0.927800	0.305700	0.098400
C1691	C169	0.935900	0.266000	0.256200
C1701	C170	0.910900	0.228000	0.347200
H1241	H124	0.926000	0.218400	0.412900
C1711	C171	0.985400	0.292800	0.265600
C1721	C172	0.012000	0.270500	0.291400
C1731	C173	0.999600	0.228400	0.225600
H1251	H125	0.973300	0.212500	0.168300
C1741	C174	0.027800	0.211800	0.249200
H1261	H126	0.020700	0.184000	0.208400
C1751	C175	0.067100	0.236500	0.333800
H1271	H127	0.085800	0.224700	0.347900
C1761	C176	0.052100	0.293300	0.371400
H1281	H128	0.060800	0.321700	0.409800
Ag171	Ag17	0.494110	0.478510	0.827520
O171	O17	0.671150	0.666610	0.581730
N331	N33	0.533570	0.538030	0.678630
N341	N34	0.745670	0.609830	0.729730
C1771	C177	0.511970	0.551430	0.582530
H1291	H129	0.480770	0.534830	0.579130
C1781	C178	0.533770	0.588830	0.487730
H1301	H130	0.517670	0.597130	0.421530
C1791	C179	0.579170	0.613330	0.492530
H1311	H131	0.594470	0.639030	0.431730
C1801	C180	0.602570	0.599330	0.589530
C1811	C181	0.577570	0.561330	0.680530
H1321	H132	0.592670	0.551730	0.746230
C1821	C182	0.652070	0.626130	0.598930
C1831	C183	0.678670	0.603830	0.624730
C1841	C184	0.666270	0.561730	0.558930
H1331	H133	0.639970	0.545830	0.501630
C1851	C185	0.694470	0.545130	0.582530
H1341	H134	0.687370	0.517330	0.541730
C1861	C186	0.733770	0.569830	0.667130
H1351	H135	0.752470	0.558030	0.681230
C1871	C187	0.718770	0.626630	0.704730
H1361	H136	0.727470	0.655030	0.743130
Ag181	Ag18	0.160770	0.811850	0.160860
O181	O18	0.337810	0.999950	0.915070
N351	N35	0.200230	0.871370	0.011970
N361	N36	0.412330	0.943170	0.063070
C1881	C188	0.178630	0.884770	0.915870
H1371	H137	0.147430	0.868170	0.912470
C1891	C189	0.200430	0.922170	0.821070
H1381	H138	0.184330	0.930470	0.754870
C1901	C190	0.245830	0.946670	0.825870
H1391	H139	0.261130	0.972370	0.765070
C1911	C191	0.269230	0.932670	0.922870
C1921	C192	0.244230	0.894670	0.013870
H1401	H140	0.259330	0.885070	0.079570
C1931	C193	0.318730	0.959470	0.932270
C1941	C194	0.345330	0.937170	0.958070
C1951	C195	0.332930	0.895070	0.892270
H1411	H141	0.306630	0.879170	0.834970
C1961	C196	0.361130	0.878470	0.915870
H1421	H142	0.354030	0.850670	0.875070
C1971	C197	0.400430	0.903170	0.000470
H1431	H143	0.419130	0.891370	0.014570
C1981	C198	0.385430	0.959970	0.038070
H1441	H144	0.394130	0.988370	0.076470
