data_FUTYEA_freeONLY_PM
_symmetry_space_group_name_H-M	'P1'
_cell_length_a	9.460000
_cell_length_b	15.980000
_cell_length_c	11.574000
_cell_angle_alpha	90.000000
_cell_angle_beta	93.890000
_cell_angle_gamma	90.000000
_symmetry_Int_Tables_number 1

loop_
_symmetry_equiv_pos_as_xyz
'x,y,z'

loop_
_atom_site_label
_atom_site_type_symbol
_atom_site_fract_x
_atom_site_fract_y
_atom_site_fract_z
Zn11	Zn1	0.142760	0.918810	0.450220
O11	O1	0.980300	0.931900	0.335000
O21	O2	0.255500	0.814000	0.292500
O31	O3	0.316500	0.935400	0.370600
C11	C1	0.598700	0.912400	0.323200
H11	H1	0.578900	0.956200	0.372500
O41	O4	0.587200	0.672600	0.045900
C21	C2	0.345600	0.871900	0.313800
O51	O5	0.821700	0.983800	0.450700
C31	C3	0.767100	0.836300	0.220600
H21	H2	0.860300	0.827600	0.202800
C41	C4	0.521900	0.800800	0.197500
H31	H3	0.448900	0.767300	0.165700
C51	C5	0.490600	0.862600	0.274000
C61	C6	0.739200	0.895400	0.297100
C71	C7	0.693300	0.717600	0.087000
C81	C8	0.659200	0.786700	0.165900
C91	C9	0.854500	0.941800	0.364300
O61	O6	0.816700	0.703200	0.064600
Zn21	Zn2	0.357240	0.418810	0.049780
O71	O7	0.519700	0.431900	0.165000
O81	O8	0.244500	0.314000	0.207500
O91	O9	0.183500	0.435400	0.129400
C101	C10	0.901300	0.412400	0.176800
H41	H4	0.921100	0.456200	0.127500
O101	O10	0.912800	0.172600	0.454100
C111	C11	0.154400	0.371900	0.186200
O111	O11	0.678300	0.483800	0.049300
C121	C12	0.732900	0.336300	0.279400
H51	H5	0.639700	0.327600	0.297200
C131	C13	0.978100	0.300800	0.302500
H61	H6	0.051100	0.267300	0.334300
C141	C14	0.009400	0.362600	0.226000
C151	C15	0.760800	0.395400	0.202900
C161	C16	0.806700	0.217600	0.413000
C171	C17	0.840800	0.286700	0.334100
C181	C18	0.645500	0.441800	0.135700
O121	O12	0.683300	0.203200	0.435400
Zn31	Zn3	0.857240	0.081190	0.549780
O131	O13	0.019700	0.068100	0.665000
O141	O14	0.744500	0.186000	0.707500
O151	O15	0.683500	0.064600	0.629400
C191	C19	0.401300	0.087600	0.676800
H71	H7	0.421100	0.043800	0.627500
O161	O16	0.412800	0.327400	0.954100
C201	C20	0.654400	0.128100	0.686200
O171	O17	0.178300	0.016200	0.549300
C211	C21	0.232900	0.163700	0.779400
H81	H8	0.139700	0.172400	0.797200
C221	C22	0.478100	0.199200	0.802500
H91	H9	0.551100	0.232700	0.834300
C231	C23	0.509400	0.137400	0.726000
C241	C24	0.260800	0.104600	0.702900
C251	C25	0.306700	0.282400	0.913000
C261	C26	0.340800	0.213300	0.834100
C271	C27	0.145500	0.058200	0.635700
O181	O18	0.183300	0.296800	0.935400
Zn41	Zn4	0.642760	0.581190	0.950220
O191	O19	0.480300	0.568100	0.835000
O201	O20	0.755500	0.686000	0.792500
O211	O21	0.816500	0.564600	0.870600
C281	C28	0.098700	0.587600	0.823200
H101	H10	0.078900	0.543800	0.872500
O221	O22	0.087200	0.827400	0.545900
C291	C29	0.845600	0.628100	0.813800
O231	O23	0.321700	0.516200	0.950700
C301	C30	0.267100	0.663700	0.720600
H111	H11	0.360300	0.672400	0.702800
C311	C31	0.021900	0.699200	0.697500
H121	H12	0.948900	0.732700	0.665700
C321	C32	0.990600	0.637400	0.774000
C331	C33	0.239200	0.604600	0.797100
C341	C34	0.193300	0.782400	0.587000
C351	C35	0.159200	0.713300	0.665900
C361	C36	0.354500	0.558200	0.864300
O241	O24	0.316700	0.796800	0.564600
