data_FUTZEB_freeONLY_PM
_symmetry_space_group_name_H-M	'P1'
_cell_length_a	9.298700
_cell_length_b	16.670000
_cell_length_c	11.418900
_cell_angle_alpha	90.000000
_cell_angle_beta	108.481000
_cell_angle_gamma	90.000000
_symmetry_Int_Tables_number 1

loop_
_symmetry_equiv_pos_as_xyz
'x,y,z'

loop_
_atom_site_label
_atom_site_type_symbol
_atom_site_fract_x
_atom_site_fract_y
_atom_site_fract_z
Zn11	Zn1	0.621270	0.093360	0.959850
C11	C1	0.963300	0.905400	0.183600
H11	H1	0.977700	0.946200	0.133000
O11	O1	0.231500	0.908500	0.128400
C21	C2	0.822300	0.897100	0.200400
O21	O2	0.726800	0.005000	0.068400
O31	O3	0.572100	0.946800	0.156900
C31	C3	0.696600	0.954000	0.136900
C41	C4	0.918100	0.783300	0.331700
C51	C5	0.233600	0.864500	0.218900
O41	O4	0.992000	0.664400	0.447500
C61	C6	0.800800	0.835500	0.274500
H21	H2	0.706900	0.829100	0.286100
C71	C7	0.057500	0.793100	0.316200
H31	H3	0.136600	0.758800	0.356200
O51	O5	0.773500	0.711000	0.435200
C81	C8	0.081800	0.855000	0.239900
O61	O6	0.345000	0.828400	0.284700
C91	C9	0.892300	0.714500	0.410700
Zn21	Zn2	0.878730	0.593360	0.540150
C101	C10	0.536700	0.405400	0.316400
H41	H4	0.522300	0.446200	0.367000
O71	O7	0.268500	0.408500	0.371600
C111	C11	0.677700	0.397100	0.299600
O81	O8	0.773200	0.505000	0.431600
O91	O9	0.927900	0.446800	0.343100
C121	C12	0.803400	0.454000	0.363100
C131	C13	0.581900	0.283300	0.168300
C141	C14	0.266400	0.364500	0.281100
O101	O10	0.508000	0.164400	0.052500
C151	C15	0.699200	0.335500	0.225500
H51	H5	0.793100	0.329100	0.213900
C161	C16	0.442500	0.293100	0.183800
H61	H6	0.363400	0.258800	0.143800
O111	O11	0.726500	0.211000	0.064800
C171	C17	0.418200	0.355000	0.260100
O121	O12	0.155000	0.328400	0.215300
C181	C18	0.607700	0.214500	0.089300
Zn31	Zn3	0.378730	0.906640	0.040150
C191	C19	0.036700	0.094600	0.816400
H71	H7	0.022300	0.053800	0.867000
O131	O13	0.768500	0.091500	0.871600
C201	C20	0.177700	0.102900	0.799600
O141	O14	0.273200	0.995000	0.931600
O151	O15	0.427900	0.053200	0.843100
C211	C21	0.303400	0.046000	0.863100
C221	C22	0.081900	0.216700	0.668300
C231	C23	0.766400	0.135500	0.781100
O161	O16	0.008000	0.335600	0.552500
C241	C24	0.199200	0.164500	0.725500
H81	H8	0.293100	0.170900	0.713900
C251	C25	0.942500	0.206900	0.683800
H91	H9	0.863400	0.241200	0.643800
O171	O17	0.226500	0.289000	0.564800
C261	C26	0.918200	0.145000	0.760100
O181	O18	0.655000	0.171600	0.715300
C271	C27	0.107700	0.285500	0.589300
Zn41	Zn4	0.121270	0.406640	0.459850
C281	C28	0.463300	0.594600	0.683600
H101	H10	0.477700	0.553800	0.633000
O191	O19	0.731500	0.591500	0.628400
C291	C29	0.322300	0.602900	0.700400
O201	O20	0.226800	0.495000	0.568400
O211	O21	0.072100	0.553200	0.656900
C301	C30	0.196600	0.546000	0.636900
C311	C31	0.418100	0.716700	0.831700
C321	C32	0.733600	0.635500	0.718900
O221	O22	0.492000	0.835600	0.947500
C331	C33	0.300800	0.664500	0.774500
H111	H11	0.206900	0.670900	0.786100
C341	C34	0.557500	0.706900	0.816200
H121	H12	0.636600	0.741200	0.856200
O231	O23	0.273500	0.789000	0.935200
C351	C35	0.581800	0.645000	0.739900
O241	O24	0.845000	0.671600	0.784700
C361	C36	0.392300	0.785500	0.910700
