data_FUTZAX_freeONLY_PM
_symmetry_space_group_name_H-M	'P1'
_cell_length_a	32.407000
_cell_length_b	9.575000
_cell_length_c	12.193000
_cell_angle_alpha	90.000000
_cell_angle_beta	90.000000
_cell_angle_gamma	90.000000
_symmetry_Int_Tables_number 1

loop_
_symmetry_equiv_pos_as_xyz
'x,y,z'

loop_
_atom_site_label
_atom_site_type_symbol
_atom_site_fract_x
_atom_site_fract_y
_atom_site_fract_z
Zn11	Zn1	0.331800	0.456530	0.391040
Zn21	Zn2	0.417760	0.756200	0.436380
O11	O1	0.163000	0.777900	0.816200
O21	O2	0.141600	0.276400	0.895600
O31	O3	0.172300	0.114900	0.789500
O41	O4	0.388300	0.446000	0.448300
C11	C1	0.201300	0.598700	0.732800
O51	O5	0.290900	0.496100	0.501200
O61	O6	0.518500	0.445900	0.837300
O71	O7	0.422500	0.605300	0.544100
C21	C2	0.186700	0.353200	0.756100
C31	C3	0.237200	0.427000	0.623600
O81	O8	0.423300	0.944900	0.493500
C41	C4	0.522200	0.333200	0.788900
C51	C5	0.466800	0.397900	0.654500
H11	H1	0.468200	0.488700	0.681200
C61	C6	0.229700	0.564400	0.652900
H21	H2	0.244200	0.635400	0.617900
O91	O9	0.484800	0.894000	0.560400
C71	C7	0.487700	0.160700	0.662200
H31	H3	0.503600	0.090400	0.693700
C81	C8	0.456900	0.977100	0.541500
C91	C9	0.214900	0.322700	0.675400
H41	H4	0.219100	0.230100	0.655000
C101	C10	0.179700	0.490800	0.781200
H51	H5	0.159600	0.512300	0.833000
C111	C11	0.270600	0.391600	0.539500
C121	C12	0.415300	0.480300	0.515100
C131	C13	0.164400	0.240100	0.817200
C141	C14	0.439400	0.367500	0.570300
C151	C15	0.435700	0.231000	0.533300
H61	H6	0.416900	0.209100	0.478300
O101	O10	0.276100	0.270700	0.515300
C161	C16	0.491800	0.296300	0.699400
O111	O11	0.550000	0.243700	0.804500
C171	C17	0.460200	0.127500	0.578500
O121	O12	0.222900	0.832900	0.750400
C181	C18	0.195600	0.748700	0.767900
Zn31	Zn3	0.668200	0.543470	0.891040
Zn41	Zn4	0.582240	0.243800	0.936380
O131	O13	0.837000	0.222100	0.316200
O141	O14	0.858400	0.723600	0.395600
O151	O15	0.827700	0.885100	0.289500
O161	O16	0.611700	0.554000	0.948300
C191	C19	0.798700	0.401300	0.232800
O171	O17	0.709100	0.503900	0.001200
O181	O18	0.481500	0.554100	0.337300
O191	O19	0.577500	0.394700	0.044100
C201	C20	0.813300	0.646800	0.256100
C211	C21	0.762800	0.573000	0.123600
O201	O20	0.576700	0.055100	0.993500
C221	C22	0.477800	0.666800	0.288900
C231	C23	0.533200	0.602100	0.154500
H71	H7	0.531800	0.511300	0.181200
C241	C24	0.770300	0.435600	0.152900
H81	H8	0.755800	0.364600	0.117900
O211	O21	0.515200	0.106000	0.060400
C251	C25	0.512300	0.839300	0.162200
H91	H9	0.496400	0.909600	0.193700
C261	C26	0.543100	0.022900	0.041500
C271	C27	0.785100	0.677300	0.175400
H101	H10	0.780900	0.769900	0.155000
C281	C28	0.820300	0.509200	0.281200
H111	H11	0.840400	0.487700	0.333000
C291	C29	0.729400	0.608400	0.039500
C301	C30	0.584700	0.519700	0.015100
C311	C31	0.835600	0.759900	0.317200
C321	C32	0.560600	0.632500	0.070300
C331	C33	0.564300	0.769000	0.033300
H121	H12	0.583100	0.790900	0.978300
O221	O22	0.723900	0.729300	0.015300
C341	C34	0.508200	0.703700	0.199400
O231	O23	0.450000	0.756300	0.304500
C351	C35	0.539800	0.872500	0.078500
O241	O24	0.777100	0.167100	0.250400
C361	C36	0.804400	0.251300	0.267900
Zn51	Zn5	0.831800	0.043470	0.391040
Zn61	Zn6	0.917760	0.743800	0.436380
O251	O25	0.663000	0.722100	0.816200
O261	O26	0.641600	0.223600	0.895600
O271	O27	0.672300	0.385100	0.789500
O281	O28	0.888300	0.054000	0.448300
C371	C37	0.701300	0.901300	0.732800
O291	O29	0.790900	0.003900	0.501200
O301	O30	0.018500	0.054100	0.837300
O311	O31	0.922500	0.894700	0.544100
C381	C38	0.686700	0.146800	0.756100
C391	C39	0.737200	0.073000	0.623600
O321	O32	0.923300	0.555100	0.493500
C401	C40	0.022200	0.166800	0.788900
C411	C41	0.966800	0.102100	0.654500
H131	H13	0.968200	0.011300	0.681200
C421	C42	0.729700	0.935600	0.652900
H141	H14	0.744200	0.864600	0.617900
O331	O33	0.984800	0.606000	0.560400
C431	C43	0.987700	0.339300	0.662200
H151	H15	0.003600	0.409600	0.693700
C441	C44	0.956900	0.522900	0.541500
C451	C45	0.714900	0.177300	0.675400
H161	H16	0.719100	0.269900	0.655000
C461	C46	0.679700	0.009200	0.781200
H171	H17	0.659600	0.987700	0.833000
C471	C47	0.770600	0.108400	0.539500
C481	C48	0.915300	0.019700	0.515100
C491	C49	0.664400	0.259900	0.817200
C501	C50	0.939400	0.132500	0.570300
C511	C51	0.935700	0.269000	0.533300
H181	H18	0.916900	0.290900	0.478300
O341	O34	0.776100	0.229300	0.515300
C521	C52	0.991800	0.203700	0.699400
O351	O35	0.050000	0.256300	0.804500
C531	C53	0.960200	0.372500	0.578500
O361	O36	0.722900	0.667100	0.750400
C541	C54	0.695600	0.751300	0.767900
Zn71	Zn7	0.168200	0.956530	0.891040
Zn81	Zn8	0.082240	0.256200	0.936380
O371	O37	0.337000	0.277900	0.316200
O381	O38	0.358400	0.776400	0.395600
O391	O39	0.327700	0.614900	0.289500
O401	O40	0.111700	0.946000	0.948300
C551	C55	0.298700	0.098700	0.232800
O411	O41	0.209100	0.996100	0.001200
O421	O42	0.981500	0.945900	0.337300
O431	O43	0.077500	0.105300	0.044100
C561	C56	0.313300	0.853200	0.256100
C571	C57	0.262800	0.927000	0.123600
O441	O44	0.076700	0.444900	0.993500
C581	C58	0.977800	0.833200	0.288900
C591	C59	0.033200	0.897900	0.154500
H191	H19	0.031800	0.988700	0.181200
C601	C60	0.270300	0.064400	0.152900
H201	H20	0.255800	0.135400	0.117900
O451	O45	0.015200	0.394000	0.060400
C611	C61	0.012300	0.660700	0.162200
H211	H21	0.996400	0.590400	0.193700
C621	C62	0.043100	0.477100	0.041500
C631	C63	0.285100	0.822700	0.175400
H221	H22	0.280900	0.730100	0.155000
C641	C64	0.320300	0.990800	0.281200
H231	H23	0.340400	0.012300	0.333000
C651	C65	0.229400	0.891600	0.039500
C661	C66	0.084700	0.980300	0.015100
C671	C67	0.335600	0.740100	0.317200
C681	C68	0.060600	0.867500	0.070300
C691	C69	0.064300	0.731000	0.033300
H241	H24	0.083100	0.709100	0.978300
O461	O46	0.223900	0.770700	0.015300
C701	C70	0.008200	0.796300	0.199400
O471	O47	0.950000	0.743700	0.304500
C711	C71	0.039800	0.627500	0.078500
O481	O48	0.277100	0.332900	0.250400
C721	C72	0.304400	0.248700	0.267900
