data_FUYCIN_freeONLY_PM
_symmetry_space_group_name_H-M	'P1'
_cell_length_a	17.765800
_cell_length_b	17.765800
_cell_length_c	17.765800
_cell_angle_alpha	90.000000
_cell_angle_beta	90.000000
_cell_angle_gamma	90.000000
_symmetry_Int_Tables_number 1

loop_
_symmetry_equiv_pos_as_xyz
'x,y,z'

loop_
_atom_site_label
_atom_site_type_symbol
_atom_site_fract_x
_atom_site_fract_y
_atom_site_fract_z
C11	C1	0.464570	0.755770	0.657060
C21	C2	0.557790	0.658800	0.659080
C31	C3	0.494990	0.692760	0.690600
O11	O1	0.407300	0.791130	0.681520
H11	H1	0.468580	0.668920	0.743820
C41	C4	0.035430	0.244230	0.157060
C51	C5	0.942210	0.341200	0.159080
C61	C6	0.005010	0.307240	0.190600
O21	O2	0.092700	0.208870	0.181520
H21	H2	0.031420	0.331080	0.243820
C71	C7	0.535430	0.255770	0.842940
C81	C8	0.442210	0.158800	0.840920
C91	C9	0.505010	0.192760	0.809400
O31	O3	0.592700	0.291130	0.818480
H31	H3	0.531420	0.168920	0.756180
C101	C10	0.964570	0.744230	0.342940
C111	C11	0.057790	0.841200	0.340920
C121	C12	0.994990	0.807240	0.309400
O41	O4	0.907300	0.708870	0.318480
H41	H4	0.968580	0.831080	0.256180
C131	C13	0.657060	0.464570	0.755770
C141	C14	0.659080	0.557790	0.658800
C151	C15	0.690600	0.494990	0.692760
O51	O5	0.681520	0.407300	0.791130
H51	H5	0.743820	0.468580	0.668920
C161	C16	0.157060	0.035430	0.244230
C171	C17	0.159080	0.942210	0.341200
C181	C18	0.190600	0.005010	0.307240
O61	O6	0.181520	0.092700	0.208870
H61	H6	0.243820	0.031420	0.331080
C191	C19	0.842940	0.535430	0.255770
C201	C20	0.840920	0.442210	0.158800
C211	C21	0.809400	0.505010	0.192760
O71	O7	0.818480	0.592700	0.291130
H71	H7	0.756180	0.531420	0.168920
C221	C22	0.342940	0.964570	0.744230
C231	C23	0.340920	0.057790	0.841200
C241	C24	0.309400	0.994990	0.807240
O81	O8	0.318480	0.907300	0.708870
H81	H8	0.256180	0.968580	0.831080
C251	C25	0.755770	0.657060	0.464570
C261	C26	0.658800	0.659080	0.557790
C271	C27	0.692760	0.690600	0.494990
O91	O9	0.791130	0.681520	0.407300
H91	H9	0.668920	0.743820	0.468580
C281	C28	0.244230	0.157060	0.035430
C291	C29	0.341200	0.159080	0.942210
C301	C30	0.307240	0.190600	0.005010
O101	O10	0.208870	0.181520	0.092700
H101	H10	0.331080	0.243820	0.031420
C311	C31	0.255770	0.842940	0.535430
C321	C32	0.158800	0.840920	0.442210
C331	C33	0.192760	0.809400	0.505010
O111	O11	0.291130	0.818480	0.592700
H111	H11	0.168920	0.756180	0.531420
C341	C34	0.744230	0.342940	0.964570
C351	C35	0.841200	0.340920	0.057790
C361	C36	0.807240	0.309400	0.994990
O121	O12	0.708870	0.318480	0.907300
H121	H12	0.831080	0.256180	0.968580
C371	C37	0.005770	0.214570	0.092940
C381	C38	0.908800	0.307790	0.090920
C391	C39	0.942760	0.244990	0.059400
O131	O13	0.041130	0.157300	0.068480
H131	H13	0.918920	0.218580	0.006180
C401	C40	0.494230	0.785430	0.592940
C411	C41	0.591200	0.692210	0.590920
C421	C42	0.557240	0.755010	0.559400
O141	O14	0.458870	0.842700	0.568480
H141	H14	0.581080	0.781420	0.506180
C431	C43	0.505770	0.285430	0.907060
C441	C44	0.408800	0.192210	0.909080
C451	C45	0.442760	0.255010	0.940600
O151	O15	0.541130	0.342700	0.931520
H151	H15	0.418920	0.281420	0.993820
C461	C46	0.994230	0.714570	0.407060
C471	C47	0.091200	0.807790	0.409080
C481	C48	0.057240	0.744990	0.440600
O161	O16	0.958870	0.657300	0.431520
H161	H16	0.081080	0.718580	0.493820
C491	C49	0.714570	0.407060	0.994230
C501	C50	0.807790	0.409080	0.091200
C511	C51	0.744990	0.440600	0.057240
O171	O17	0.657300	0.431520	0.958870
H171	H17	0.718580	0.493820	0.081080
C521	C52	0.285430	0.907060	0.505770
C531	C53	0.192210	0.909080	0.408800
C541	C54	0.255010	0.940600	0.442760
O181	O18	0.342700	0.931520	0.541130
H181	H18	0.281420	0.993820	0.418920
C551	C55	0.785430	0.592940	0.494230
C561	C56	0.692210	0.590920	0.591200
C571	C57	0.755010	0.559400	0.557240
O191	O19	0.842700	0.568480	0.458870
H191	H19	0.781420	0.506180	0.581080
C581	C58	0.214570	0.092940	0.005770
C591	C59	0.307790	0.090920	0.908800
C601	C60	0.244990	0.059400	0.942760
O201	O20	0.157300	0.068480	0.041130
H201	H20	0.218580	0.006180	0.918920
C611	C61	0.907060	0.505770	0.285430
C621	C62	0.909080	0.408800	0.192210
C631	C63	0.940600	0.442760	0.255010
O211	O21	0.931520	0.541130	0.342700
H211	H21	0.993820	0.418920	0.281420
C641	C64	0.407060	0.994230	0.714570
C651	C65	0.409080	0.091200	0.807790
C661	C66	0.440600	0.057240	0.744990
O221	O22	0.431520	0.958870	0.657300
H221	H22	0.493820	0.081080	0.718580
C671	C67	0.092940	0.005770	0.214570
C681	C68	0.090920	0.908800	0.307790
C691	C69	0.059400	0.942760	0.244990
O231	O23	0.068480	0.041130	0.157300
H231	H23	0.006180	0.918920	0.218580
C701	C70	0.592940	0.494230	0.785430
C711	C71	0.590920	0.591200	0.692210
C721	C72	0.559400	0.557240	0.755010
O241	O24	0.568480	0.458870	0.842700
H241	H24	0.506180	0.581080	0.781420
V11	V1	0.875000	0.625000	0.375000
V21	V2	0.625000	0.375000	0.875000
V31	V3	0.125000	0.125000	0.125000
V41	V4	0.375000	0.875000	0.625000
