data_FUYKER_freeONLY_PM
_symmetry_space_group_name_H-M	'P1'
_cell_length_a	31.609000
_cell_length_b	9.871600
_cell_length_c	24.738000
_cell_angle_alpha	90.000000
_cell_angle_beta	104.669000
_cell_angle_gamma	90.000000
_symmetry_Int_Tables_number 1

loop_
_symmetry_equiv_pos_as_xyz
'x,y,z'

loop_
_atom_site_label
_atom_site_type_symbol
_atom_site_fract_x
_atom_site_fract_y
_atom_site_fract_z
O11	O1	0.086530	0.795600	0.408070
H11	H1	0.077500	0.809200	0.437300
H21	H2	0.085100	0.871300	0.391400
O21	O2	0.901540	0.615500	0.184920
O31	O3	0.850020	0.520200	0.220450
O41	O4	0.362160	0.098300	0.604210
O51	O5	0.294820	0.144800	0.609640
Mn11	Mn1	0.120030	0.608780	0.402900
Mn21	Mn2	0.211260	0.527080	0.340830
Cl11	Cl1	0.193510	0.713090	0.401110
N11	N1	0.149640	0.573500	0.499170
N21	N2	0.184270	0.463800	0.605880
N31	N3	0.064070	0.510600	0.438940
N41	N4	0.055130	0.380900	0.510590
N51	N5	0.018570	0.381600	0.468060
H31	H3	0.995100	0.337600	0.468100
N61	N6	0.231090	0.677900	0.277300
N71	N7	0.261080	0.868000	0.211800
N81	N8	0.284310	0.589400	0.378880
N91	N9	0.340590	0.716300	0.365390
N101	N10	0.352860	0.644800	0.413590
H41	H4	0.378600	0.646900	0.436000
C11	C1	0.190450	0.601600	0.529240
H51	H5	0.207700	0.659800	0.514400
C21	C2	0.207380	0.546400	0.581480
H61	H6	0.236000	0.567500	0.600400
C31	C3	0.143740	0.436400	0.576770
H71	H7	0.126500	0.379300	0.592200
C41	C4	0.126150	0.491200	0.523350
C51	C5	0.081350	0.460700	0.491250
C61	C6	0.023600	0.460100	0.425480
C71	C7	0.988810	0.486600	0.374860
C81	C8	0.948490	0.421300	0.365690
H81	H8	0.943500	0.359900	0.391900
C91	C9	0.915770	0.447500	0.317700
H91	H9	0.889000	0.403700	0.312300
C101	C10	0.922390	0.537900	0.277660
C111	C11	0.962000	0.605600	0.288290
H101	H10	0.966600	0.669400	0.262700
C121	C12	0.994990	0.580700	0.336160
H111	H11	0.021300	0.627400	0.342200
C131	C13	0.888590	0.559800	0.223520
C141	C14	0.206540	0.716100	0.227340
H121	H12	0.178800	0.679200	0.214100
C151	C15	0.221720	0.809900	0.194840
H131	H13	0.203900	0.833200	0.160100
C161	C16	0.285690	0.828500	0.261570
H141	H14	0.313200	0.866600	0.275100
C171	C17	0.271160	0.732000	0.293480
C181	C18	0.299230	0.680900	0.346090
C191	C19	0.319390	0.569900	0.421660
C201	C20	0.322820	0.478600	0.469690
C211	C21	0.362120	0.416200	0.494420
H151	H15	0.387200	0.438600	0.483200
C221	C22	0.364160	0.320700	0.535860
H161	H16	0.390600	0.278400	0.552000
C231	C23	0.326980	0.286800	0.553760
C241	C24	0.288420	0.357300	0.531640
H171	H17	0.263900	0.340800	0.545000
C251	C25	0.286290	0.452500	0.489410
H181	H18	0.260300	0.498700	0.474400
C261	C26	0.328340	0.164800	0.593470
O61	O6	0.586530	0.295600	0.408070
H191	H19	0.577500	0.309200	0.437300
H201	H20	0.585100	0.371300	0.391400
O71	O7	0.401540	0.115500	0.184920
O81	O8	0.350020	0.020200	0.220450
O91	O9	0.862160	0.598300	0.604210
O101	O10	0.794820	0.644800	0.609640
Mn31	Mn3	0.620030	0.108780	0.402900
Mn41	Mn4	0.711260	0.027080	0.340830
Cl21	Cl2	0.693510	0.213090	0.401110
N111	N11	0.649640	0.073500	0.499170
N121	N12	0.684270	0.963800	0.605880
N131	N13	0.564070	0.010600	0.438940
N141	N14	0.555130	0.880900	0.510590
N151	N15	0.518570	0.881600	0.468060
H211	H21	0.495100	0.837600	0.468100
N161	N16	0.731090	0.177900	0.277300
N171	N17	0.761080	0.368000	0.211800
N181	N18	0.784310	0.089400	0.378880
N191	N19	0.840590	0.216300	0.365390
N201	N20	0.852860	0.144800	0.413590
H221	H22	0.878600	0.146900	0.436000
C271	C27	0.690450	0.101600	0.529240
H231	H23	0.707700	0.159800	0.514400
C281	C28	0.707380	0.046400	0.581480
H241	H24	0.736000	0.067500	0.600400
C291	C29	0.643740	0.936400	0.576770
H251	H25	0.626500	0.879300	0.592200
C301	C30	0.626150	0.991200	0.523350
C311	C31	0.581350	0.960700	0.491250
C321	C32	0.523600	0.960100	0.425480
C331	C33	0.488810	0.986600	0.374860
C341	C34	0.448490	0.921300	0.365690
H261	H26	0.443500	0.859900	0.391900
C351	C35	0.415770	0.947500	0.317700
H271	H27	0.389000	0.903700	0.312300
C361	C36	0.422390	0.037900	0.277660
C371	C37	0.462000	0.105600	0.288290
H281	H28	0.466600	0.169400	0.262700
C381	C38	0.494990	0.080700	0.336160
H291	H29	0.521300	0.127400	0.342200
C391	C39	0.388590	0.059800	0.223520
C401	C40	0.706540	0.216100	0.227340
H301	H30	0.678800	0.179200	0.214100
C411	C41	0.721720	0.309900	0.194840
H311	H31	0.703900	0.333200	0.160100
C421	C42	0.785690	0.328500	0.261570
H321	H32	0.813200	0.366600	0.275100
C431	C43	0.771160	0.232000	0.293480
C441	C44	0.799230	0.180900	0.346090
C451	C45	0.819390	0.069900	0.421660
C461	C46	0.822820	0.978600	0.469690
C471	C47	0.862120	0.916200	0.494420
H331	H33	0.887200	0.938600	0.483200
C481	C48	0.864160	0.820700	0.535860
H341	H34	0.890600	0.778400	0.552000
C491	C49	0.826980	0.786800	0.553760
C501	C50	0.788420	0.857300	0.531640
H351	H35	0.763900	0.840800	0.545000
C511	C51	0.786290	0.952500	0.489410
H361	H36	0.760300	0.998700	0.474400
C521	C52	0.828340	0.664800	0.593470
O111	O11	0.913470	0.795600	0.091930
H371	H37	0.922500	0.809200	0.062700
H381	H38	0.914900	0.871300	0.108600
O121	O12	0.098460	0.615500	0.315080
O131	O13	0.149980	0.520200	0.279550
O141	O14	0.637840	0.098300	0.895790
O151	O15	0.705180	0.144800	0.890360
Mn51	Mn5	0.879970	0.608780	0.097100
Mn61	Mn6	0.788740	0.527080	0.159170
Cl31	Cl3	0.806490	0.713090	0.098890
N211	N21	0.850360	0.573500	0.000830
N221	N22	0.815730	0.463800	0.894120
N231	N23	0.935930	0.510600	0.061060
N241	N24	0.944870	0.380900	0.989410
N251	N25	0.981430	0.381600	0.031940
H391	H39	0.004900	0.337600	0.031900
N261	N26	0.768910	0.677900	0.222700
N271	N27	0.738920	0.868000	0.288200
N281	N28	0.715690	0.589400	0.121120
N291	N29	0.659410	0.716300	0.134610
N301	N30	0.647140	0.644800	0.086410
H401	H40	0.621400	0.646900	0.064000
C531	C53	0.809550	0.601600	0.970760
H411	H41	0.792300	0.659800	0.985600
C541	C54	0.792620	0.546400	0.918520
H421	H42	0.764000	0.567500	0.899600
C551	C55	0.856260	0.436400	0.923230
H431	H43	0.873500	0.379300	0.907800
C561	C56	0.873850	0.491200	0.976650
C571	C57	0.918650	0.460700	0.008750
C581	C58	0.976400	0.460100	0.074520
C591	C59	0.011190	0.486600	0.125140
C601	C60	0.051510	0.421300	0.134310
H441	H44	0.056500	0.359900	0.108100
C611	C61	0.084230	0.447500	0.182300
H451	H45	0.111000	0.403700	0.187700
C621	C62	0.077610	0.537900	0.222340
C631	C63	0.038000	0.605600	0.211710
H461	H46	0.033400	0.669400	0.237300
C641	C64	0.005010	0.580700	0.163840
H471	H47	0.978700	0.627400	0.157800
C651	C65	0.111410	0.559800	0.276480
C661	C66	0.793460	0.716100	0.272660
H481	H48	0.821200	0.679200	0.285900
C671	C67	0.778280	0.809900	0.305160
H491	H49	0.796100	0.833200	0.339900
C681	C68	0.714310	0.828500	0.238430
H501	H50	0.686800	0.866600	0.224900
C691	C69	0.728840	0.732000	0.206520
C701	C70	0.700770	0.680900	0.153910
C711	C71	0.680610	0.569900	0.078340
C721	C72	0.677180	0.478600	0.030310
C731	C73	0.637880	0.416200	0.005580
H511	H51	0.612800	0.438600	0.016800
C741	C74	0.635840	0.320700	0.964140
H521	H52	0.609400	0.278400	0.948000
C751	C75	0.673020	0.286800	0.946240
C761	C76	0.711580	0.357300	0.968360
H531	H53	0.736100	0.340800	0.955000
C771	C77	0.713710	0.452500	0.010590
H541	H54	0.739700	0.498700	0.025600
C781	C78	0.671660	0.164800	0.906530
O161	O16	0.413470	0.295600	0.091930
H551	H55	0.422500	0.309200	0.062700
H561	H56	0.414900	0.371300	0.108600
O171	O17	0.598460	0.115500	0.315080
O181	O18	0.649980	0.020200	0.279550
O191	O19	0.137840	0.598300	0.895790
O201	O20	0.205180	0.644800	0.890360
Mn71	Mn7	0.379970	0.108780	0.097100
Mn81	Mn8	0.288740	0.027080	0.159170
Cl41	Cl4	0.306490	0.213090	0.098890
N311	N31	0.350360	0.073500	0.000830
N321	N32	0.315730	0.963800	0.894120
N331	N33	0.435930	0.010600	0.061060
N341	N34	0.444870	0.880900	0.989410
N351	N35	0.481430	0.881600	0.031940
H571	H57	0.504900	0.837600	0.031900
N361	N36	0.268910	0.177900	0.222700
N371	N37	0.238920	0.368000	0.288200
N381	N38	0.215690	0.089400	0.121120
N391	N39	0.159410	0.216300	0.134610
N401	N40	0.147140	0.144800	0.086410
H581	H58	0.121400	0.146900	0.064000
C791	C79	0.309550	0.101600	0.970760
H591	H59	0.292300	0.159800	0.985600
C801	C80	0.292620	0.046400	0.918520
H601	H60	0.264000	0.067500	0.899600
C811	C81	0.356260	0.936400	0.923230
H611	H61	0.373500	0.879300	0.907800
C821	C82	0.373850	0.991200	0.976650
C831	C83	0.418650	0.960700	0.008750
C841	C84	0.476400	0.960100	0.074520
C851	C85	0.511190	0.986600	0.125140
C861	C86	0.551510	0.921300	0.134310
H621	H62	0.556500	0.859900	0.108100
C871	C87	0.584230	0.947500	0.182300
H631	H63	0.611000	0.903700	0.187700
C881	C88	0.577610	0.037900	0.222340
C891	C89	0.538000	0.105600	0.211710
H641	H64	0.533400	0.169400	0.237300
C901	C90	0.505010	0.080700	0.163840
H651	H65	0.478700	0.127400	0.157800
C911	C91	0.611410	0.059800	0.276480
C921	C92	0.293460	0.216100	0.272660
H661	H66	0.321200	0.179200	0.285900
C931	C93	0.278280	0.309900	0.305160
H671	H67	0.296100	0.333200	0.339900
C941	C94	0.214310	0.328500	0.238430
H681	H68	0.186800	0.366600	0.224900
C951	C95	0.228840	0.232000	0.206520
C961	C96	0.200770	0.180900	0.153910
C971	C97	0.180610	0.069900	0.078340
C981	C98	0.177180	0.978600	0.030310
C991	C99	0.137880	0.916200	0.005580
H691	H69	0.112800	0.938600	0.016800
C1001	C100	0.135840	0.820700	0.964140
H701	H70	0.109400	0.778400	0.948000
C1011	C101	0.173020	0.786800	0.946240
C1021	C102	0.211580	0.857300	0.968360
H711	H71	0.236100	0.840800	0.955000
C1031	C103	0.213710	0.952500	0.010590
H721	H72	0.239700	0.998700	0.025600
C1041	C104	0.171660	0.664800	0.906530
O211	O21	0.913470	0.204400	0.591930
H731	H73	0.922500	0.190800	0.562700
H741	H74	0.914900	0.128700	0.608600
O221	O22	0.098460	0.384500	0.815080
O231	O23	0.149980	0.479800	0.779550
O241	O24	0.637840	0.901700	0.395790
O251	O25	0.705180	0.855200	0.390360
Mn91	Mn9	0.879970	0.391220	0.597100
Mn101	Mn10	0.788740	0.472920	0.659170
Cl51	Cl5	0.806490	0.286910	0.598890
N411	N41	0.850360	0.426500	0.500830
N421	N42	0.815730	0.536200	0.394120
N431	N43	0.935930	0.489400	0.561060
N441	N44	0.944870	0.619100	0.489410
N451	N45	0.981430	0.618400	0.531940
H751	H75	0.004900	0.662400	0.531900
N461	N46	0.768910	0.322100	0.722700
N471	N47	0.738920	0.132000	0.788200
N481	N48	0.715690	0.410600	0.621120
N491	N49	0.659410	0.283700	0.634610
N501	N50	0.647140	0.355200	0.586410
H761	H76	0.621400	0.353100	0.564000
C1051	C105	0.809550	0.398400	0.470760
H771	H77	0.792300	0.340200	0.485600
C1061	C106	0.792620	0.453600	0.418520
H781	H78	0.764000	0.432500	0.399600
C1071	C107	0.856260	0.563600	0.423230
H791	H79	0.873500	0.620700	0.407800
C1081	C108	0.873850	0.508800	0.476650
C1091	C109	0.918650	0.539300	0.508750
C1101	C110	0.976400	0.539900	0.574520
C1111	C111	0.011190	0.513400	0.625140
C1121	C112	0.051510	0.578700	0.634310
H801	H80	0.056500	0.640100	0.608100
C1131	C113	0.084230	0.552500	0.682300
H811	H81	0.111000	0.596300	0.687700
C1141	C114	0.077610	0.462100	0.722340
C1151	C115	0.038000	0.394400	0.711710
H821	H82	0.033400	0.330600	0.737300
C1161	C116	0.005010	0.419300	0.663840
H831	H83	0.978700	0.372600	0.657800
C1171	C117	0.111410	0.440200	0.776480
C1181	C118	0.793460	0.283900	0.772660
H841	H84	0.821200	0.320800	0.785900
C1191	C119	0.778280	0.190100	0.805160
H851	H85	0.796100	0.166800	0.839900
C1201	C120	0.714310	0.171500	0.738430
H861	H86	0.686800	0.133400	0.724900
C1211	C121	0.728840	0.268000	0.706520
C1221	C122	0.700770	0.319100	0.653910
C1231	C123	0.680610	0.430100	0.578340
C1241	C124	0.677180	0.521400	0.530310
C1251	C125	0.637880	0.583800	0.505580
H871	H87	0.612800	0.561400	0.516800
C1261	C126	0.635840	0.679300	0.464140
H881	H88	0.609400	0.721600	0.448000
C1271	C127	0.673020	0.713200	0.446240
C1281	C128	0.711580	0.642700	0.468360
H891	H89	0.736100	0.659200	0.455000
C1291	C129	0.713710	0.547500	0.510590
H901	H90	0.739700	0.501300	0.525600
C1301	C130	0.671660	0.835200	0.406530
O261	O26	0.413470	0.704400	0.591930
H911	H91	0.422500	0.690800	0.562700
H921	H92	0.414900	0.628700	0.608600
O271	O27	0.598460	0.884500	0.815080
O281	O28	0.649980	0.979800	0.779550
O291	O29	0.137840	0.401700	0.395790
O301	O30	0.205180	0.355200	0.390360
Mn111	Mn11	0.379970	0.891220	0.597100
Mn121	Mn12	0.288740	0.972920	0.659170
Cl61	Cl6	0.306490	0.786910	0.598890
N511	N51	0.350360	0.926500	0.500830
N521	N52	0.315730	0.036200	0.394120
N531	N53	0.435930	0.989400	0.561060
N541	N54	0.444870	0.119100	0.489410
N551	N55	0.481430	0.118400	0.531940
H931	H93	0.504900	0.162400	0.531900
N561	N56	0.268910	0.822100	0.722700
N571	N57	0.238920	0.632000	0.788200
N581	N58	0.215690	0.910600	0.621120
N591	N59	0.159410	0.783700	0.634610
N601	N60	0.147140	0.855200	0.586410
H941	H94	0.121400	0.853100	0.564000
C1311	C131	0.309550	0.898400	0.470760
H951	H95	0.292300	0.840200	0.485600
C1321	C132	0.292620	0.953600	0.418520
H961	H96	0.264000	0.932500	0.399600
C1331	C133	0.356260	0.063600	0.423230
H971	H97	0.373500	0.120700	0.407800
C1341	C134	0.373850	0.008800	0.476650
C1351	C135	0.418650	0.039300	0.508750
C1361	C136	0.476400	0.039900	0.574520
C1371	C137	0.511190	0.013400	0.625140
C1381	C138	0.551510	0.078700	0.634310
H981	H98	0.556500	0.140100	0.608100
C1391	C139	0.584230	0.052500	0.682300
H991	H99	0.611000	0.096300	0.687700
C1401	C140	0.577610	0.962100	0.722340
C1411	C141	0.538000	0.894400	0.711710
H1001	H100	0.533400	0.830600	0.737300
C1421	C142	0.505010	0.919300	0.663840
H1011	H101	0.478700	0.872600	0.657800
C1431	C143	0.611410	0.940200	0.776480
C1441	C144	0.293460	0.783900	0.772660
H1021	H102	0.321200	0.820800	0.785900
C1451	C145	0.278280	0.690100	0.805160
H1031	H103	0.296100	0.666800	0.839900
C1461	C146	0.214310	0.671500	0.738430
H1041	H104	0.186800	0.633400	0.724900
C1471	C147	0.228840	0.768000	0.706520
C1481	C148	0.200770	0.819100	0.653910
C1491	C149	0.180610	0.930100	0.578340
C1501	C150	0.177180	0.021400	0.530310
C1511	C151	0.137880	0.083800	0.505580
H1051	H105	0.112800	0.061400	0.516800
C1521	C152	0.135840	0.179300	0.464140
H1061	H106	0.109400	0.221600	0.448000
C1531	C153	0.173020	0.213200	0.446240
C1541	C154	0.211580	0.142700	0.468360
H1071	H107	0.236100	0.159200	0.455000
C1551	C155	0.213710	0.047500	0.510590
H1081	H108	0.239700	0.001300	0.525600
C1561	C156	0.171660	0.335200	0.406530
O311	O31	0.086530	0.204400	0.908070
H1091	H109	0.077500	0.190800	0.937300
H1101	H110	0.085100	0.128700	0.891400
O321	O32	0.901540	0.384500	0.684920
O331	O33	0.850020	0.479800	0.720450
O341	O34	0.362160	0.901700	0.104210
O351	O35	0.294820	0.855200	0.109640
Mn131	Mn13	0.120030	0.391220	0.902900
Mn141	Mn14	0.211260	0.472920	0.840830
Cl71	Cl7	0.193510	0.286910	0.901110
N611	N61	0.149640	0.426500	0.999170
N621	N62	0.184270	0.536200	0.105880
N631	N63	0.064070	0.489400	0.938940
N641	N64	0.055130	0.619100	0.010590
N651	N65	0.018570	0.618400	0.968060
H1111	H111	0.995100	0.662400	0.968100
N661	N66	0.231090	0.322100	0.777300
N671	N67	0.261080	0.132000	0.711800
N681	N68	0.284310	0.410600	0.878880
N691	N69	0.340590	0.283700	0.865390
N701	N70	0.352860	0.355200	0.913590
H1121	H112	0.378600	0.353100	0.936000
C1571	C157	0.190450	0.398400	0.029240
H1131	H113	0.207700	0.340200	0.014400
C1581	C158	0.207380	0.453600	0.081480
H1141	H114	0.236000	0.432500	0.100400
C1591	C159	0.143740	0.563600	0.076770
H1151	H115	0.126500	0.620700	0.092200
C1601	C160	0.126150	0.508800	0.023350
C1611	C161	0.081350	0.539300	0.991250
C1621	C162	0.023600	0.539900	0.925480
C1631	C163	0.988810	0.513400	0.874860
C1641	C164	0.948490	0.578700	0.865690
H1161	H116	0.943500	0.640100	0.891900
C1651	C165	0.915770	0.552500	0.817700
H1171	H117	0.889000	0.596300	0.812300
C1661	C166	0.922390	0.462100	0.777660
C1671	C167	0.962000	0.394400	0.788290
H1181	H118	0.966600	0.330600	0.762700
C1681	C168	0.994990	0.419300	0.836160
H1191	H119	0.021300	0.372600	0.842200
C1691	C169	0.888590	0.440200	0.723520
C1701	C170	0.206540	0.283900	0.727340
H1201	H120	0.178800	0.320800	0.714100
C1711	C171	0.221720	0.190100	0.694840
H1211	H121	0.203900	0.166800	0.660100
C1721	C172	0.285690	0.171500	0.761570
H1221	H122	0.313200	0.133400	0.775100
C1731	C173	0.271160	0.268000	0.793480
C1741	C174	0.299230	0.319100	0.846090
C1751	C175	0.319390	0.430100	0.921660
C1761	C176	0.322820	0.521400	0.969690
C1771	C177	0.362120	0.583800	0.994420
H1231	H123	0.387200	0.561400	0.983200
C1781	C178	0.364160	0.679300	0.035860
H1241	H124	0.390600	0.721600	0.052000
C1791	C179	0.326980	0.713200	0.053760
C1801	C180	0.288420	0.642700	0.031640
H1251	H125	0.263900	0.659200	0.045000
C1811	C181	0.286290	0.547500	0.989410
H1261	H126	0.260300	0.501300	0.974400
C1821	C182	0.328340	0.835200	0.093470
O361	O36	0.586530	0.704400	0.908070
H1271	H127	0.577500	0.690800	0.937300
H1281	H128	0.585100	0.628700	0.891400
O371	O37	0.401540	0.884500	0.684920
O381	O38	0.350020	0.979800	0.720450
O391	O39	0.862160	0.401700	0.104210
O401	O40	0.794820	0.355200	0.109640
Mn151	Mn15	0.620030	0.891220	0.902900
Mn161	Mn16	0.711260	0.972920	0.840830
Cl81	Cl8	0.693510	0.786910	0.901110
N711	N71	0.649640	0.926500	0.999170
N721	N72	0.684270	0.036200	0.105880
N731	N73	0.564070	0.989400	0.938940
N741	N74	0.555130	0.119100	0.010590
N751	N75	0.518570	0.118400	0.968060
H1291	H129	0.495100	0.162400	0.968100
N761	N76	0.731090	0.822100	0.777300
N771	N77	0.761080	0.632000	0.711800
N781	N78	0.784310	0.910600	0.878880
N791	N79	0.840590	0.783700	0.865390
N801	N80	0.852860	0.855200	0.913590
H1301	H130	0.878600	0.853100	0.936000
C1831	C183	0.690450	0.898400	0.029240
H1311	H131	0.707700	0.840200	0.014400
C1841	C184	0.707380	0.953600	0.081480
H1321	H132	0.736000	0.932500	0.100400
C1851	C185	0.643740	0.063600	0.076770
H1331	H133	0.626500	0.120700	0.092200
C1861	C186	0.626150	0.008800	0.023350
C1871	C187	0.581350	0.039300	0.991250
C1881	C188	0.523600	0.039900	0.925480
C1891	C189	0.488810	0.013400	0.874860
C1901	C190	0.448490	0.078700	0.865690
H1341	H134	0.443500	0.140100	0.891900
C1911	C191	0.415770	0.052500	0.817700
H1351	H135	0.389000	0.096300	0.812300
C1921	C192	0.422390	0.962100	0.777660
C1931	C193	0.462000	0.894400	0.788290
H1361	H136	0.466600	0.830600	0.762700
C1941	C194	0.494990	0.919300	0.836160
H1371	H137	0.521300	0.872600	0.842200
C1951	C195	0.388590	0.940200	0.723520
C1961	C196	0.706540	0.783900	0.727340
H1381	H138	0.678800	0.820800	0.714100
C1971	C197	0.721720	0.690100	0.694840
H1391	H139	0.703900	0.666800	0.660100
C1981	C198	0.785690	0.671500	0.761570
H1401	H140	0.813200	0.633400	0.775100
C1991	C199	0.771160	0.768000	0.793480
C2001	C200	0.799230	0.819100	0.846090
C2011	C201	0.819390	0.930100	0.921660
C2021	C202	0.822820	0.021400	0.969690
C2031	C203	0.862120	0.083800	0.994420
H1411	H141	0.887200	0.061400	0.983200
C2041	C204	0.864160	0.179300	0.035860
H1421	H142	0.890600	0.221600	0.052000
C2051	C205	0.826980	0.213200	0.053760
C2061	C206	0.788420	0.142700	0.031640
H1431	H143	0.763900	0.159200	0.045000
C2071	C207	0.786290	0.047500	0.989410
H1441	H144	0.760300	0.001300	0.974400
C2081	C208	0.828340	0.335200	0.093470
