data_FUYZAB_ion_b_PM
_symmetry_space_group_name_H-M	'P1'
_cell_length_a	20.319000
_cell_length_b	20.319000
_cell_length_c	18.233900
_cell_angle_alpha	90.000000
_cell_angle_beta	90.000000
_cell_angle_gamma	90.000000
_symmetry_Int_Tables_number 1

loop_
_symmetry_equiv_pos_as_xyz
'x,y,z'

loop_
_atom_site_label
_atom_site_type_symbol
_atom_site_fract_x
_atom_site_fract_y
_atom_site_fract_z
Mo11	Mo1	0.513430	0.001610	0.790390
Mo21	Mo2	0.629810	0.986570	0.850070
Mo31	Mo3	0.672630	0.073590	0.005590
Mo41	Mo4	0.587780	0.154870	0.062540
Mo51	Mo5	0.430350	0.176420	0.986910
Mo61	Mo6	0.402690	0.112290	0.867890
Mn71	Mn7	0.505530	0.287860	0.843200
P81	P8	0.564100	0.143730	0.877550
P91	P9	0.419470	0.101670	0.684330
P101	P10	0.779260	0.053770	0.869320
P111	P11	0.527230	0.303410	0.019630
C121	C12	0.363900	0.821100	0.353900
H131	H13	0.357200	0.842900	0.400600
H141	H14	0.370100	0.774500	0.363500
C151	C15	0.303700	0.830000	0.307500
H161	H16	0.311200	0.809000	0.260500
H171	H17	0.267200	0.807500	0.331000
C181	C18	0.213000	0.749400	0.128500
H191	H19	0.197900	0.704100	0.128000
H201	H20	0.196900	0.769900	0.173100
C211	C21	0.964500	0.998600	0.987400
H221	H22	0.936000	0.013800	0.026500
H231	H23	0.952900	0.953400	0.976200
N241	N24	0.420600	0.846000	0.321200
H251	H25	0.418400	0.864200	0.278700
H261	H26	0.457700	0.843300	0.343600
N271	N27	0.285000	0.898000	0.294800
H281	H28	0.308000	0.929400	0.313500
H291	H29	0.250900	0.906900	0.268700
N301	N30	0.185600	0.784600	0.064100
H311	H31	0.211500	0.802400	0.032600
H321	H32	0.143600	0.787100	0.058300
N331	N33	0.954400	0.040000	0.921400
H341	H34	0.986900	0.061500	0.902900
H351	H35	0.916100	0.042600	0.901600
O361	O36	0.540690	0.980090	0.891740
O371	O37	0.434590	0.081470	0.964290
O381	O38	0.643280	0.908670	0.825200
O391	O39	0.808020	0.105410	0.819140
O401	O40	0.621980	0.097140	0.889790
O411	O41	0.580600	0.061130	0.035060
O421	O42	0.601190	0.030120	0.758570
O431	O43	0.663470	0.985510	0.953810
O441	O44	0.426000	0.204680	0.884220
O451	O45	0.353800	0.185360	0.020840
O461	O46	0.503800	0.926480	0.753760
O471	O47	0.475530	0.051360	0.700490
O481	O48	0.712890	0.046930	0.080230
O491	O49	0.608000	0.150410	0.151510
O501	O50	0.671520	0.169080	0.014040
O511	O51	0.751600	0.089280	0.939430
O521	O52	0.553300	0.320160	0.942720
O531	O53	0.508760	0.103100	0.839760
O541	O54	0.417300	0.013690	0.833580
O551	O55	0.398650	0.134570	0.757570
O561	O56	0.578310	0.203730	0.831300
O571	O57	0.447800	0.155370	0.635490
O581	O58	0.360940	0.068500	0.649210
O591	O59	0.460590	0.268650	0.011520
O601	O60	0.829230	0.001950	0.894600
O611	O61	0.538840	0.166420	0.953900
O621	O62	0.483510	0.152920	0.080610
O631	O63	0.577200	0.255410	0.057810
O641	O64	0.520600	0.363890	0.066300
O651	O65	0.722440	0.019530	0.827500
O661	O66	0.320830	0.109030	0.879000
O671	O67	0.573540	0.352410	0.784350
O681	O68	0.472600	0.260590	0.732810
Mo741	Mo74	0.986570	0.498390	0.790390
Mo751	Mo75	0.870190	0.513430	0.850070
Mo761	Mo76	0.827370	0.426410	0.005590
Mo771	Mo77	0.912220	0.345130	0.062540
Mo781	Mo78	0.069650	0.323580	0.986910
Mo791	Mo79	0.097310	0.387710	0.867890
Mn801	Mn80	0.994470	0.212140	0.843200
P811	P81	0.935900	0.356270	0.877550
P821	P82	0.080530	0.398330	0.684330
P831	P83	0.720740	0.446230	0.869320
P841	P84	0.972770	0.196590	0.019630
C851	C85	0.136100	0.678900	0.353900
H861	H86	0.142800	0.657100	0.400600
H871	H87	0.129900	0.725500	0.363500
C881	C88	0.196300	0.670000	0.307500
H891	H89	0.188800	0.691000	0.260500
H901	H90	0.232800	0.692500	0.331000
C911	C91	0.287000	0.750600	0.128500
H921	H92	0.302100	0.795900	0.128000
H931	H93	0.303100	0.730100	0.173100
C941	C94	0.535500	0.501400	0.987400
H951	H95	0.564000	0.486200	0.026500
H961	H96	0.547100	0.546600	0.976200
N971	N97	0.079400	0.654000	0.321200
H981	H98	0.081600	0.635800	0.278700
H991	H99	0.042300	0.656700	0.343600
N1001	N100	0.215000	0.602000	0.294800
H1011	H101	0.192000	0.570600	0.313500
H1021	H102	0.249100	0.593100	0.268700
N1031	N103	0.314400	0.715400	0.064100
H1041	H104	0.288500	0.697600	0.032600
H1051	H105	0.356400	0.712900	0.058300
N1061	N106	0.545600	0.460000	0.921400
H1071	H107	0.513100	0.438500	0.902900
H1081	H108	0.583900	0.457400	0.901600
O1091	O109	0.959310	0.519910	0.891740
O1101	O110	0.065410	0.418530	0.964290
O1111	O111	0.856720	0.591330	0.825200
O1121	O112	0.691980	0.394590	0.819140
O1131	O113	0.878020	0.402860	0.889790
O1141	O114	0.919400	0.438870	0.035060
O1151	O115	0.898810	0.469880	0.758570
O1161	O116	0.836530	0.514490	0.953810
O1171	O117	0.074000	0.295320	0.884220
O1181	O118	0.146200	0.314640	0.020840
O1191	O119	0.996200	0.573520	0.753760
O1201	O120	0.024470	0.448640	0.700490
O1211	O121	0.787110	0.453070	0.080230
O1221	O122	0.892000	0.349590	0.151510
O1231	O123	0.828480	0.330920	0.014040
O1241	O124	0.748400	0.410720	0.939430
O1251	O125	0.946700	0.179840	0.942720
O1261	O126	0.991240	0.396900	0.839760
O1271	O127	0.082700	0.486310	0.833580
O1281	O128	0.101350	0.365430	0.757570
O1291	O129	0.921690	0.296270	0.831300
O1301	O130	0.052200	0.344630	0.635490
O1311	O131	0.139060	0.431500	0.649210
O1321	O132	0.039410	0.231350	0.011520
O1331	O133	0.670770	0.498050	0.894600
O1341	O134	0.961160	0.333580	0.953900
O1351	O135	0.016490	0.347080	0.080610
O1361	O136	0.922800	0.244590	0.057810
O1371	O137	0.979400	0.136110	0.066300
O1381	O138	0.777560	0.480470	0.827500
O1391	O139	0.179170	0.390970	0.879000
O1401	O140	0.926460	0.147590	0.784350
O1411	O141	0.027400	0.239410	0.732810
Mo1471	Mo147	0.998390	0.013430	0.290390
Mo1481	Mo148	0.013430	0.129810	0.350070
Mo1491	Mo149	0.926410	0.172630	0.505590
Mo1501	Mo150	0.845130	0.087780	0.562540
Mo1511	Mo151	0.823580	0.930350	0.486910
Mo1521	Mo152	0.887710	0.902690	0.367890
Mn1531	Mn153	0.712140	0.005530	0.343200
P1541	P154	0.856270	0.064100	0.377550
P1551	P155	0.898330	0.919470	0.184330
P1561	P156	0.946230	0.279260	0.369320
P1571	P157	0.696590	0.027230	0.519630
C1581	C158	0.178900	0.863900	0.853900
H1591	H159	0.157100	0.857200	0.900600
H1601	H160	0.225500	0.870100	0.863500
C1611	C161	0.170000	0.803700	0.807500
H1621	H162	0.191000	0.811200	0.760500
H1631	H163	0.192500	0.767200	0.831000
C1641	C164	0.250600	0.713000	0.628500
H1651	H165	0.295900	0.697900	0.628000
H1661	H166	0.230100	0.696900	0.673100
C1671	C167	0.001400	0.464500	0.487400
H1681	H168	0.986200	0.436000	0.526500
H1691	H169	0.046600	0.452900	0.476200
N1701	N170	0.154000	0.920600	0.821200
H1711	H171	0.135800	0.918400	0.778700
H1721	H172	0.156700	0.957700	0.843600
N1731	N173	0.102000	0.785000	0.794800
H1741	H174	0.070600	0.808000	0.813500
H1751	H175	0.093100	0.750900	0.768700
N1761	N176	0.215400	0.685600	0.564100
H1771	H177	0.197600	0.711500	0.532600
H1781	H178	0.212900	0.643600	0.558300
N1791	N179	0.960000	0.454400	0.421400
H1801	H180	0.938500	0.486900	0.402900
H1811	H181	0.957400	0.416100	0.401600
O1821	O182	0.019910	0.040690	0.391740
O1831	O183	0.918530	0.934590	0.464290
O1841	O184	0.091330	0.143280	0.325200
O1851	O185	0.894590	0.308020	0.319140
O1861	O186	0.902860	0.121980	0.389790
O1871	O187	0.938870	0.080600	0.535060
O1881	O188	0.969880	0.101190	0.258570
O1891	O189	0.014490	0.163470	0.453810
O1901	O190	0.795320	0.926000	0.384220
O1911	O191	0.814640	0.853800	0.520840
O1921	O192	0.073520	0.003800	0.253760
O1931	O193	0.948640	0.975530	0.200490
O1941	O194	0.953070	0.212890	0.580230
O1951	O195	0.849590	0.108000	0.651510
O1961	O196	0.830920	0.171520	0.514040
O1971	O197	0.910720	0.251600	0.439430
O1981	O198	0.679840	0.053300	0.442720
O1991	O199	0.896900	0.008760	0.339760
O2001	O200	0.986310	0.917300	0.333580
O2011	O201	0.865430	0.898650	0.257570
O2021	O202	0.796270	0.078310	0.331300
O2031	O203	0.844630	0.947800	0.135490
O2041	O204	0.931500	0.860940	0.149210
O2051	O205	0.731350	0.960590	0.511520
O2061	O206	0.998050	0.329230	0.394600
O2071	O207	0.833580	0.038840	0.453900
O2081	O208	0.847080	0.983510	0.580610
O2091	O209	0.744590	0.077200	0.557810
O2101	O210	0.636110	0.020600	0.566300
O2111	O211	0.980470	0.222440	0.327500
O2121	O212	0.890970	0.820830	0.379000
O2131	O213	0.647590	0.073540	0.284350
O2141	O214	0.739410	0.972600	0.232810
Mo2201	Mo220	0.501610	0.486570	0.290390
Mo2211	Mo221	0.486570	0.370190	0.350070
Mo2221	Mo222	0.573590	0.327370	0.505590
Mo2231	Mo223	0.654870	0.412220	0.562540
Mo2241	Mo224	0.676420	0.569650	0.486910
Mo2251	Mo225	0.612290	0.597310	0.367890
Mn2261	Mn226	0.787860	0.494470	0.343200
P2271	P227	0.643730	0.435900	0.377550
P2281	P228	0.601670	0.580530	0.184330
P2291	P229	0.553770	0.220740	0.369320
P2301	P230	0.803410	0.472770	0.519630
C2311	C231	0.321100	0.636100	0.853900
H2321	H232	0.342900	0.642800	0.900600
H2331	H233	0.274500	0.629900	0.863500
C2341	C234	0.330000	0.696300	0.807500
H2351	H235	0.309000	0.688800	0.760500
H2361	H236	0.307500	0.732800	0.831000
C2371	C237	0.249400	0.787000	0.628500
H2381	H238	0.204100	0.802100	0.628000
H2391	H239	0.269900	0.803100	0.673100
C2401	C240	0.498600	0.035500	0.487400
H2411	H241	0.513800	0.064000	0.526500
H2421	H242	0.453400	0.047100	0.476200
N2431	N243	0.346000	0.579400	0.821200
H2441	H244	0.364200	0.581600	0.778700
H2451	H245	0.343300	0.542300	0.843600
N2461	N246	0.398000	0.715000	0.794800
H2471	H247	0.429400	0.692000	0.813500
H2481	H248	0.406900	0.749100	0.768700
N2491	N249	0.284600	0.814400	0.564100
H2501	H250	0.302400	0.788500	0.532600
H2511	H251	0.287100	0.856400	0.558300
N2521	N252	0.540000	0.045600	0.421400
H2531	H253	0.561500	0.013100	0.402900
H2541	H254	0.542600	0.083900	0.401600
O2551	O255	0.480090	0.459310	0.391740
O2561	O256	0.581470	0.565410	0.464290
O2571	O257	0.408670	0.356720	0.325200
O2581	O258	0.605410	0.191980	0.319140
O2591	O259	0.597140	0.378020	0.389790
O2601	O260	0.561130	0.419400	0.535060
O2611	O261	0.530120	0.398810	0.258570
O2621	O262	0.485510	0.336530	0.453810
O2631	O263	0.704680	0.574000	0.384220
O2641	O264	0.685360	0.646200	0.520840
O2651	O265	0.426480	0.496200	0.253760
O2661	O266	0.551360	0.524470	0.200490
O2671	O267	0.546930	0.287110	0.580230
O2681	O268	0.650410	0.392000	0.651510
O2691	O269	0.669080	0.328480	0.514040
O2701	O270	0.589280	0.248400	0.439430
O2711	O271	0.820160	0.446700	0.442720
O2721	O272	0.603100	0.491240	0.339760
O2731	O273	0.513690	0.582700	0.333580
O2741	O274	0.634570	0.601350	0.257570
O2751	O275	0.703730	0.421690	0.331300
O2761	O276	0.655370	0.552200	0.135490
O2771	O277	0.568500	0.639060	0.149210
O2781	O278	0.768650	0.539410	0.511520
O2791	O279	0.501950	0.170770	0.394600
O2801	O280	0.666420	0.461160	0.453900
O2811	O281	0.652920	0.516490	0.580610
O2821	O282	0.755410	0.422800	0.557810
O2831	O283	0.863890	0.479400	0.566300
O2841	O284	0.519530	0.277560	0.327500
O2851	O285	0.609030	0.679170	0.379000
O2861	O286	0.852410	0.426460	0.284350
O2871	O287	0.760590	0.527400	0.232810
Mo2931	Mo293	0.486570	0.998390	0.209610
Mo2941	Mo294	0.370190	0.013430	0.149930
Mo2951	Mo295	0.327370	0.926410	0.994410
Mo2961	Mo296	0.412220	0.845130	0.937460
Mo2971	Mo297	0.569650	0.823580	0.013090
Mo2981	Mo298	0.597310	0.887710	0.132110
Mn2991	Mn299	0.494470	0.712140	0.156800
P3001	P300	0.435900	0.856270	0.122450
P3011	P301	0.580530	0.898330	0.315670
P3021	P302	0.220740	0.946230	0.130680
P3031	P303	0.472770	0.696590	0.980370
C3041	C304	0.636100	0.178900	0.646100
H3051	H305	0.642800	0.157100	0.599400
H3061	H306	0.629900	0.225500	0.636500
C3071	C307	0.696300	0.170000	0.692500
H3081	H308	0.688800	0.191000	0.739500
H3091	H309	0.732800	0.192500	0.669000
C3101	C310	0.787000	0.250600	0.871500
H3111	H311	0.802100	0.295900	0.872000
H3121	H312	0.803100	0.230100	0.826900
C3131	C313	0.035500	0.001400	0.012600
H3141	H314	0.064000	0.986200	0.973500
H3151	H315	0.047100	0.046600	0.023800
N3161	N316	0.579400	0.154000	0.678800
H3171	H317	0.581600	0.135800	0.721300
H3181	H318	0.542300	0.156700	0.656400
N3191	N319	0.715000	0.102000	0.705200
H3201	H320	0.692000	0.070600	0.686500
H3211	H321	0.749100	0.093100	0.731300
N3221	N322	0.814400	0.215400	0.935900
H3231	H323	0.788500	0.197600	0.967400
H3241	H324	0.856400	0.212900	0.941700
N3251	N325	0.045600	0.960000	0.078600
H3261	H326	0.013100	0.938500	0.097100
H3271	H327	0.083900	0.957400	0.098400
O3281	O328	0.459310	0.019910	0.108260
O3291	O329	0.565410	0.918530	0.035710
O3301	O330	0.356720	0.091330	0.174800
O3311	O331	0.191980	0.894590	0.180860
O3321	O332	0.378020	0.902860	0.110210
O3331	O333	0.419400	0.938870	0.964940
O3341	O334	0.398810	0.969880	0.241430
O3351	O335	0.336530	0.014490	0.046190
O3361	O336	0.574000	0.795320	0.115780
O3371	O337	0.646200	0.814640	0.979160
O3381	O338	0.496200	0.073520	0.246240
O3391	O339	0.524470	0.948640	0.299510
O3401	O340	0.287110	0.953070	0.919770
O3411	O341	0.392000	0.849590	0.848490
O3421	O342	0.328480	0.830920	0.985960
O3431	O343	0.248400	0.910720	0.060570
O3441	O344	0.446700	0.679840	0.057280
O3451	O345	0.491240	0.896900	0.160240
O3461	O346	0.582700	0.986310	0.166420
O3471	O347	0.601350	0.865430	0.242430
O3481	O348	0.421690	0.796270	0.168700
O3491	O349	0.552200	0.844630	0.364510
O3501	O350	0.639060	0.931500	0.350790
O3511	O351	0.539410	0.731350	0.988480
O3521	O352	0.170770	0.998050	0.105400
O3531	O353	0.461160	0.833580	0.046100
O3541	O354	0.516490	0.847080	0.919390
O3551	O355	0.422800	0.744590	0.942190
O3561	O356	0.479400	0.636110	0.933700
O3571	O357	0.277560	0.980470	0.172500
O3581	O358	0.679170	0.890970	0.121000
O3591	O359	0.426460	0.647590	0.215650
O3601	O360	0.527400	0.739410	0.267190
Mo3661	Mo366	0.013430	0.501610	0.209610
Mo3671	Mo367	0.129810	0.486570	0.149930
Mo3681	Mo368	0.172630	0.573590	0.994410
Mo3691	Mo369	0.087780	0.654870	0.937460
Mo3701	Mo370	0.930350	0.676420	0.013090
Mo3711	Mo371	0.902690	0.612290	0.132110
Mn3721	Mn372	0.005530	0.787860	0.156800
P3731	P373	0.064100	0.643730	0.122450
P3741	P374	0.919470	0.601670	0.315670
P3751	P375	0.279260	0.553770	0.130680
P3761	P376	0.027230	0.803410	0.980370
C3771	C377	0.863900	0.321100	0.646100
H3781	H378	0.857200	0.342900	0.599400
H3791	H379	0.870100	0.274500	0.636500
C3801	C380	0.803700	0.330000	0.692500
H3811	H381	0.811200	0.309000	0.739500
H3821	H382	0.767200	0.307500	0.669000
C3831	C383	0.713000	0.249400	0.871500
H3841	H384	0.697900	0.204100	0.872000
H3851	H385	0.696900	0.269900	0.826900
C3861	C386	0.464500	0.498600	0.012600
H3871	H387	0.436000	0.513800	0.973500
H3881	H388	0.452900	0.453400	0.023800
N3891	N389	0.920600	0.346000	0.678800
H3901	H390	0.918400	0.364200	0.721300
H3911	H391	0.957700	0.343300	0.656400
N3921	N392	0.785000	0.398000	0.705200
H3931	H393	0.808000	0.429400	0.686500
H3941	H394	0.750900	0.406900	0.731300
N3951	N395	0.685600	0.284600	0.935900
H3961	H396	0.711500	0.302400	0.967400
H3971	H397	0.643600	0.287100	0.941700
N3981	N398	0.454400	0.540000	0.078600
H3991	H399	0.486900	0.561500	0.097100
H4001	H400	0.416100	0.542600	0.098400
O4011	O401	0.040690	0.480090	0.108260
O4021	O402	0.934590	0.581470	0.035710
O4031	O403	0.143280	0.408670	0.174800
O4041	O404	0.308020	0.605410	0.180860
O4051	O405	0.121980	0.597140	0.110210
O4061	O406	0.080600	0.561130	0.964940
O4071	O407	0.101190	0.530120	0.241430
O4081	O408	0.163470	0.485510	0.046190
O4091	O409	0.926000	0.704680	0.115780
O4101	O410	0.853800	0.685360	0.979160
O4111	O411	0.003800	0.426480	0.246240
O4121	O412	0.975530	0.551360	0.299510
O4131	O413	0.212890	0.546930	0.919770
O4141	O414	0.108000	0.650410	0.848490
O4151	O415	0.171520	0.669080	0.985960
O4161	O416	0.251600	0.589280	0.060570
O4171	O417	0.053300	0.820160	0.057280
O4181	O418	0.008760	0.603100	0.160240
O4191	O419	0.917300	0.513690	0.166420
O4201	O420	0.898650	0.634570	0.242430
O4211	O421	0.078310	0.703730	0.168700
O4221	O422	0.947800	0.655370	0.364510
O4231	O423	0.860940	0.568500	0.350790
O4241	O424	0.960590	0.768650	0.988480
O4251	O425	0.329230	0.501950	0.105400
O4261	O426	0.038840	0.666420	0.046100
O4271	O427	0.983510	0.652920	0.919390
O4281	O428	0.077200	0.755410	0.942190
O4291	O429	0.020600	0.863890	0.933700
O4301	O430	0.222440	0.519530	0.172500
O4311	O431	0.820830	0.609030	0.121000
O4321	O432	0.073540	0.852410	0.215650
O4331	O433	0.972600	0.760590	0.267190
Mo4391	Mo439	0.001610	0.986570	0.709610
Mo4401	Mo440	0.986570	0.870190	0.649930
Mo4411	Mo441	0.073590	0.827370	0.494410
Mo4421	Mo442	0.154870	0.912220	0.437460
Mo4431	Mo443	0.176420	0.069650	0.513090
Mo4441	Mo444	0.112290	0.097310	0.632110
Mn4451	Mn445	0.287860	0.994470	0.656800
P4461	P446	0.143730	0.935900	0.622450
P4471	P447	0.101670	0.080530	0.815670
P4481	P448	0.053770	0.720740	0.630680
P4491	P449	0.303410	0.972770	0.480370
C4501	C450	0.821100	0.136100	0.146100
H4511	H451	0.842900	0.142800	0.099400
H4521	H452	0.774500	0.129900	0.136500
C4531	C453	0.830000	0.196300	0.192500
H4541	H454	0.809000	0.188800	0.239500
H4551	H455	0.807500	0.232800	0.169000
C4561	C456	0.749400	0.287000	0.371500
H4571	H457	0.704100	0.302100	0.372000
H4581	H458	0.769900	0.303100	0.326900
C4591	C459	0.998600	0.535500	0.512600
H4601	H460	0.013800	0.564000	0.473500
H4611	H461	0.953400	0.547100	0.523800
N4621	N462	0.846000	0.079400	0.178800
H4631	H463	0.864200	0.081600	0.221300
H4641	H464	0.843300	0.042300	0.156400
N4651	N465	0.898000	0.215000	0.205200
H4661	H466	0.929400	0.192000	0.186500
H4671	H467	0.906900	0.249100	0.231300
N4681	N468	0.784600	0.314400	0.435900
H4691	H469	0.802400	0.288500	0.467400
H4701	H470	0.787100	0.356400	0.441700
N4711	N471	0.040000	0.545600	0.578600
H4721	H472	0.061500	0.513100	0.597100
H4731	H473	0.042600	0.583900	0.598400
O4741	O474	0.980090	0.959310	0.608260
O4751	O475	0.081470	0.065410	0.535710
O4761	O476	0.908670	0.856720	0.674800
O4771	O477	0.105410	0.691980	0.680860
O4781	O478	0.097140	0.878020	0.610210
O4791	O479	0.061130	0.919400	0.464940
O4801	O480	0.030120	0.898810	0.741430
O4811	O481	0.985510	0.836530	0.546190
O4821	O482	0.204680	0.074000	0.615780
O4831	O483	0.185360	0.146200	0.479160
O4841	O484	0.926480	0.996200	0.746240
O4851	O485	0.051360	0.024470	0.799510
O4861	O486	0.046930	0.787110	0.419770
O4871	O487	0.150410	0.892000	0.348490
O4881	O488	0.169080	0.828480	0.485960
O4891	O489	0.089280	0.748400	0.560570
O4901	O490	0.320160	0.946700	0.557280
O4911	O491	0.103100	0.991240	0.660240
O4921	O492	0.013690	0.082700	0.666420
O4931	O493	0.134570	0.101350	0.742430
O4941	O494	0.203730	0.921690	0.668700
O4951	O495	0.155370	0.052200	0.864510
O4961	O496	0.068500	0.139060	0.850790
O4971	O497	0.268650	0.039410	0.488480
O4981	O498	0.001950	0.670770	0.605400
O4991	O499	0.166420	0.961160	0.546100
O5001	O500	0.152920	0.016490	0.419390
O5011	O501	0.255410	0.922800	0.442190
O5021	O502	0.363890	0.979400	0.433700
O5031	O503	0.019530	0.777560	0.672500
O5041	O504	0.109030	0.179170	0.621000
O5051	O505	0.352410	0.926460	0.715650
O5061	O506	0.260590	0.027400	0.767190
Mo5121	Mo512	0.498390	0.513430	0.709610
Mo5131	Mo513	0.513430	0.629810	0.649930
Mo5141	Mo514	0.426410	0.672630	0.494410
Mo5151	Mo515	0.345130	0.587780	0.437460
Mo5161	Mo516	0.323580	0.430350	0.513090
Mo5171	Mo517	0.387710	0.402690	0.632110
Mn5181	Mn518	0.212140	0.505530	0.656800
P5191	P519	0.356270	0.564100	0.622450
P5201	P520	0.398330	0.419470	0.815670
P5211	P521	0.446230	0.779260	0.630680
P5221	P522	0.196590	0.527230	0.480370
C5231	C523	0.678900	0.363900	0.146100
H5241	H524	0.657100	0.357200	0.099400
H5251	H525	0.725500	0.370100	0.136500
C5261	C526	0.670000	0.303700	0.192500
H5271	H527	0.691000	0.311200	0.239500
H5281	H528	0.692500	0.267200	0.169000
C5291	C529	0.750600	0.213000	0.371500
H5301	H530	0.795900	0.197900	0.372000
H5311	H531	0.730100	0.196900	0.326900
C5321	C532	0.501400	0.964500	0.512600
H5331	H533	0.486200	0.936000	0.473500
H5341	H534	0.546600	0.952900	0.523800
N5351	N535	0.654000	0.420600	0.178800
H5361	H536	0.635800	0.418400	0.221300
H5371	H537	0.656700	0.457700	0.156400
N5381	N538	0.602000	0.285000	0.205200
H5391	H539	0.570600	0.308000	0.186500
H5401	H540	0.593100	0.250900	0.231300
N5411	N541	0.715400	0.185600	0.435900
H5421	H542	0.697600	0.211500	0.467400
H5431	H543	0.712900	0.143600	0.441700
N5441	N544	0.460000	0.954400	0.578600
H5451	H545	0.438500	0.986900	0.597100
H5461	H546	0.457400	0.916100	0.598400
O5471	O547	0.519910	0.540690	0.608260
O5481	O548	0.418530	0.434590	0.535710
O5491	O549	0.591330	0.643280	0.674800
O5501	O550	0.394590	0.808020	0.680860
O5511	O551	0.402860	0.621980	0.610210
O5521	O552	0.438870	0.580600	0.464940
O5531	O553	0.469880	0.601190	0.741430
O5541	O554	0.514490	0.663470	0.546190
O5551	O555	0.295320	0.426000	0.615780
O5561	O556	0.314640	0.353800	0.479160
O5571	O557	0.573520	0.503800	0.746240
O5581	O558	0.448640	0.475530	0.799510
O5591	O559	0.453070	0.712890	0.419770
O5601	O560	0.349590	0.608000	0.348490
O5611	O561	0.330920	0.671520	0.485960
O5621	O562	0.410720	0.751600	0.560570
O5631	O563	0.179840	0.553300	0.557280
O5641	O564	0.396900	0.508760	0.660240
O5651	O565	0.486310	0.417300	0.666420
O5661	O566	0.365430	0.398650	0.742430
O5671	O567	0.296270	0.578310	0.668700
O5681	O568	0.344630	0.447800	0.864510
O5691	O569	0.431500	0.360940	0.850790
O5701	O570	0.231350	0.460590	0.488480
O5711	O571	0.498050	0.829230	0.605400
O5721	O572	0.333580	0.538840	0.546100
O5731	O573	0.347080	0.483510	0.419390
O5741	O574	0.244590	0.577200	0.442190
O5751	O575	0.136110	0.520600	0.433700
O5761	O576	0.480470	0.722440	0.672500
O5771	O577	0.390970	0.320830	0.621000
O5781	O578	0.147590	0.573540	0.715650
O5791	O579	0.239410	0.472600	0.767190
Mn5851	Mn585	0.500000	0.000000	0.000000
Mn5861	Mn586	0.000000	0.500000	0.000000
Mn5871	Mn587	0.000000	0.000000	0.500000
Mn5881	Mn588	0.500000	0.500000	0.500000
