data_FUZKAN_freeONLY_PM
_symmetry_space_group_name_H-M	'P1'
_cell_length_a	10.487400
_cell_length_b	15.903600
_cell_length_c	26.136000
_cell_angle_alpha	90.000000
_cell_angle_beta	90.000000
_cell_angle_gamma	90.000000
_symmetry_Int_Tables_number 1

loop_
_symmetry_equiv_pos_as_xyz
'x,y,z'

loop_
_atom_site_label
_atom_site_type_symbol
_atom_site_fract_x
_atom_site_fract_y
_atom_site_fract_z
Ni11	Ni1	0.338220	0.356220	0.618810
Ni21	Ni2	0.103260	0.217150	0.648700
Ni31	Ni3	0.161780	0.643780	0.118810
Ni41	Ni4	0.396740	0.782850	0.148700
Ni51	Ni5	0.661780	0.856220	0.881190
Ni61	Ni6	0.896740	0.717150	0.851300
Ni71	Ni7	0.838220	0.143780	0.381190
Ni81	Ni8	0.603260	0.282850	0.351300
H11	H1	0.584500	0.983000	0.461300
H21	H2	0.438700	0.208900	0.494600
H31	H3	0.357000	0.010200	0.583900
H41	H4	0.941600	0.505800	0.754700
H51	H5	0.576400	0.548900	0.719200
H61	H6	0.748800	0.335000	0.674800
H71	H7	0.524900	0.334800	0.531900
H81	H8	0.630100	0.415300	0.470700
H91	H9	0.596900	0.561400	0.470500
H101	H10	0.330900	0.530200	0.576000
H111	H11	0.345500	0.663000	0.524100
H121	H12	0.475100	0.680100	0.496100
H131	H13	0.643100	0.621700	0.583800
H141	H14	0.666600	0.698600	0.547400
H151	H15	0.632900	0.714000	0.654500
H161	H16	0.658100	0.790400	0.618100
H171	H17	0.835500	0.662200	0.637500
H181	H18	0.860800	0.737100	0.600000
H191	H19	0.834600	0.752900	0.706900
H201	H20	0.963100	0.762800	0.676800
H211	H21	0.994400	0.892500	0.623400
H221	H22	0.868700	0.872800	0.593300
H231	H23	0.702000	0.990600	0.587200
H241	H24	0.681300	0.135900	0.573000
H251	H25	0.839600	0.222100	0.603800
H261	H26	0.045700	0.030900	0.646300
H271	H27	0.470000	0.744700	0.574000
H281	H28	0.432000	0.668000	0.594000
H291	H29	0.887000	0.889000	0.694400
H301	H30	0.769000	0.881000	0.671000
H311	H31	0.915500	0.017000	0.961300
H321	H32	0.061300	0.791100	0.994600
H331	H33	0.143000	0.989800	0.083900
H341	H34	0.558400	0.494200	0.254700
H351	H35	0.923600	0.451100	0.219200
H361	H36	0.751200	0.665000	0.174800
H371	H37	0.975100	0.665200	0.031900
H381	H38	0.869900	0.584700	0.970700
H391	H39	0.903100	0.438600	0.970500
H401	H40	0.169100	0.469800	0.076000
H411	H41	0.154500	0.337000	0.024100
H421	H42	0.024900	0.319900	0.996100
H431	H43	0.856900	0.378300	0.083800
H441	H44	0.833400	0.301400	0.047400
H451	H45	0.867100	0.286000	0.154500
H461	H46	0.841900	0.209600	0.118100
H471	H47	0.664500	0.337800	0.137500
H481	H48	0.639200	0.262900	0.100000
H491	H49	0.665400	0.247100	0.206900
H501	H50	0.536900	0.237200	0.176800
H511	H51	0.505600	0.107500	0.123400
H521	H52	0.631300	0.127200	0.093300
H531	H53	0.798000	0.009400	0.087200
H541	H54	0.818700	0.864100	0.073000
H551	H55	0.660400	0.777900	0.103800
H561	H56	0.454300	0.969100	0.146300
H571	H57	0.030000	0.255300	0.074000
H581	H58	0.068000	0.332000	0.094000
H591	H59	0.613000	0.111000	0.194400
H601	H60	0.731000	0.119000	0.171000
H611	H61	0.415500	0.483000	0.038700
H621	H62	0.561300	0.708900	0.005400
H631	H63	0.643000	0.510200	0.916100
H641	H64	0.058400	0.005800	0.745300
H651	H65	0.423600	0.048900	0.780800
H661	H66	0.251200	0.835000	0.825200
H671	H67	0.475100	0.834800	0.968100
H681	H68	0.369900	0.915300	0.029300
H691	H69	0.403100	0.061400	0.029500
H701	H70	0.669100	0.030200	0.924000
H711	H71	0.654500	0.163000	0.975900
H721	H72	0.524900	0.180100	0.003900
H731	H73	0.356900	0.121700	0.916200
H741	H74	0.333400	0.198600	0.952600
H751	H75	0.367100	0.214000	0.845500
H761	H76	0.341900	0.290400	0.881900
H771	H77	0.164500	0.162200	0.862500
H781	H78	0.139200	0.237100	0.900000
H791	H79	0.165400	0.252900	0.793100
H801	H80	0.036900	0.262800	0.823200
H811	H81	0.005600	0.392500	0.876600
H821	H82	0.131300	0.372800	0.906700
H831	H83	0.298000	0.490600	0.912800
H841	H84	0.318700	0.635900	0.927000
H851	H85	0.160400	0.722100	0.896200
H861	H86	0.954300	0.530900	0.853700
H871	H87	0.530000	0.244700	0.926000
H881	H88	0.568000	0.168000	0.906000
H891	H89	0.113000	0.389000	0.805600
H901	H90	0.231000	0.381000	0.829000
H911	H91	0.084500	0.517000	0.538700
H921	H92	0.938700	0.291100	0.505400
H931	H93	0.857000	0.489800	0.416100
H941	H94	0.441600	0.994200	0.245300
H951	H95	0.076400	0.951100	0.280800
H961	H96	0.248800	0.165000	0.325200
H971	H97	0.024900	0.165200	0.468100
H981	H98	0.130100	0.084700	0.529300
H991	H99	0.096900	0.938600	0.529500
H1001	H100	0.830900	0.969800	0.424000
H1011	H101	0.845500	0.837000	0.475900
H1021	H102	0.975100	0.819900	0.503900
H1031	H103	0.143100	0.878300	0.416200
H1041	H104	0.166600	0.801400	0.452600
H1051	H105	0.132900	0.786000	0.345500
H1061	H106	0.158100	0.709600	0.381900
H1071	H107	0.335500	0.837800	0.362500
H1081	H108	0.360800	0.762900	0.400000
H1091	H109	0.334600	0.747100	0.293100
H1101	H110	0.463100	0.737200	0.323200
H1111	H111	0.494400	0.607500	0.376600
H1121	H112	0.368700	0.627200	0.406700
H1131	H113	0.202000	0.509400	0.412800
H1141	H114	0.181300	0.364100	0.427000
H1151	H115	0.339600	0.277900	0.396200
H1161	H116	0.545700	0.469100	0.353700
H1171	H117	0.970000	0.755300	0.426000
H1181	H118	0.932000	0.832000	0.406000
H1191	H119	0.387000	0.611000	0.305600
H1201	H120	0.269000	0.619000	0.329000
C11	C1	0.491900	0.889700	0.536100
C21	C2	0.473200	0.982100	0.523700
C31	C3	0.533600	0.017100	0.481800
C41	C4	0.520600	0.100300	0.469400
C51	C5	0.586800	0.139700	0.424400
C61	C6	0.447600	0.152000	0.502000
C71	C7	0.399100	0.032800	0.555700
C81	C8	0.389800	0.119200	0.544200
C91	C9	0.316300	0.178400	0.579400
C101	C10	0.979900	0.358100	0.709000
C111	C11	0.862300	0.411500	0.713400
C121	C12	0.866500	0.488300	0.739100
C131	C13	0.758500	0.538700	0.741300
C141	C14	0.647300	0.513800	0.718600
C151	C15	0.640500	0.434900	0.694400
C161	C16	0.751400	0.386300	0.691900
C171	C17	0.766800	0.624200	0.768700
C181	C18	0.522200	0.405200	0.670300
C191	C19	0.507400	0.391900	0.529400
C201	C20	0.573100	0.440100	0.493400
C211	C21	0.550500	0.527100	0.492500
C221	C22	0.462000	0.560800	0.523500
C231	C23	0.395800	0.507700	0.556000
C241	C24	0.436700	0.653300	0.525600
C251	C25	0.624400	0.680800	0.578600
C261	C26	0.676700	0.731300	0.623600
C271	C27	0.817500	0.721100	0.631300
C281	C28	0.871800	0.772200	0.675000
C291	C29	0.903000	0.901900	0.622900
C301	C30	0.877600	0.996300	0.617100
C311	C31	0.767400	0.027200	0.596400
C321	C32	0.753100	0.113600	0.588900
C331	C33	0.850400	0.164200	0.606100
C341	C34	0.971200	0.051800	0.631800
C351	C35	0.008100	0.110300	0.036100
C361	C36	0.026800	0.017900	0.023700
C371	C37	0.966400	0.982900	0.981800
C381	C38	0.979400	0.899700	0.969400
C391	C39	0.913200	0.860300	0.924400
C401	C40	0.052400	0.848000	0.002000
C411	C41	0.100900	0.967200	0.055700
C421	C42	0.110200	0.880800	0.044200
C431	C43	0.183700	0.821600	0.079400
C441	C44	0.520100	0.641900	0.209000
C451	C45	0.637700	0.588500	0.213400
C461	C46	0.633500	0.511700	0.239100
C471	C47	0.741500	0.461300	0.241300
C481	C48	0.852700	0.486200	0.218600
C491	C49	0.859500	0.565100	0.194400
C501	C50	0.748600	0.613700	0.191900
C511	C51	0.733200	0.375800	0.268700
C521	C52	0.977800	0.594800	0.170300
C531	C53	0.992600	0.608100	0.029400
C541	C54	0.926900	0.559900	0.993400
C551	C55	0.949500	0.472900	0.992500
C561	C56	0.038000	0.439200	0.023500
C571	C57	0.104200	0.492300	0.056000
C581	C58	0.063300	0.346700	0.025600
C591	C59	0.875600	0.319200	0.078600
C601	C60	0.823300	0.268700	0.123600
C611	C61	0.682500	0.278900	0.131300
C621	C62	0.628200	0.227800	0.175000
C631	C63	0.597000	0.098100	0.122900
C641	C64	0.622400	0.003700	0.117100
C651	C65	0.732600	0.972800	0.096400
C661	C66	0.746900	0.886400	0.088900
C671	C67	0.649600	0.835800	0.106100
C681	C68	0.528800	0.948200	0.131800
C691	C69	0.508100	0.389700	0.963900
C701	C70	0.526800	0.482100	0.976300
C711	C71	0.466400	0.517100	0.018200
C721	C72	0.479400	0.600300	0.030600
C731	C73	0.413200	0.639700	0.075600
C741	C74	0.552400	0.652000	0.998000
C751	C75	0.600900	0.532800	0.944300
C761	C76	0.610200	0.619200	0.955800
C771	C77	0.683700	0.678400	0.920600
C781	C78	0.020100	0.858100	0.791000
C791	C79	0.137700	0.911500	0.786600
C801	C80	0.133500	0.988300	0.760900
C811	C81	0.241500	0.038700	0.758700
C821	C82	0.352700	0.013800	0.781400
C831	C83	0.359500	0.934900	0.805600
C841	C84	0.248600	0.886300	0.808100
C851	C85	0.233200	0.124200	0.731300
C861	C86	0.477800	0.905200	0.829700
C871	C87	0.492600	0.891900	0.970600
C881	C88	0.426900	0.940100	0.006600
C891	C89	0.449500	0.027100	0.007500
C901	C90	0.538000	0.060800	0.976500
C911	C91	0.604200	0.007700	0.944000
C921	C92	0.563300	0.153300	0.974400
C931	C93	0.375600	0.180800	0.921400
C941	C94	0.323300	0.231300	0.876400
C951	C95	0.182500	0.221100	0.868700
C961	C96	0.128200	0.272200	0.825000
C971	C97	0.097000	0.401900	0.877100
C981	C98	0.122400	0.496300	0.882900
C991	C99	0.232600	0.527200	0.903600
C1001	C100	0.246900	0.613600	0.911100
C1011	C101	0.149600	0.664200	0.893900
C1021	C102	0.028800	0.551800	0.868200
C1031	C103	0.991900	0.610300	0.463900
C1041	C104	0.973200	0.517900	0.476300
C1051	C105	0.033600	0.482900	0.518200
C1061	C106	0.020600	0.399700	0.530600
C1071	C107	0.086800	0.360300	0.575600
C1081	C108	0.947600	0.348000	0.498000
C1091	C109	0.899100	0.467200	0.444300
C1101	C110	0.889800	0.380800	0.455800
C1111	C111	0.816300	0.321600	0.420600
C1121	C112	0.479900	0.141900	0.291000
C1131	C113	0.362300	0.088500	0.286600
C1141	C114	0.366500	0.011700	0.260900
C1151	C115	0.258500	0.961300	0.258700
C1161	C116	0.147300	0.986200	0.281400
C1171	C117	0.140500	0.065100	0.305600
C1181	C118	0.251400	0.113700	0.308100
C1191	C119	0.266800	0.875800	0.231300
C1201	C120	0.022200	0.094800	0.329700
C1211	C121	0.007400	0.108100	0.470600
C1221	C122	0.073100	0.059900	0.506600
C1231	C123	0.050500	0.972900	0.507500
C1241	C124	0.962000	0.939200	0.476500
C1251	C125	0.895800	0.992300	0.444000
C1261	C126	0.936700	0.846700	0.474400
C1271	C127	0.124400	0.819200	0.421400
C1281	C128	0.176700	0.768700	0.376400
C1291	C129	0.317500	0.778900	0.368700
C1301	C130	0.371800	0.727800	0.325000
C1311	C131	0.403000	0.598100	0.377100
C1321	C132	0.377600	0.503700	0.382900
C1331	C133	0.267400	0.472800	0.403600
C1341	C134	0.253100	0.386400	0.411100
C1351	C135	0.350400	0.335800	0.393900
C1361	C136	0.471200	0.448200	0.368200
N11	N1	0.420800	0.425300	0.560000
N21	N2	0.958500	0.135800	0.625830
N31	N3	0.488800	0.691600	0.573000
N41	N4	0.846900	0.865800	0.669300
N51	N5	0.079200	0.574700	0.060000
N61	N6	0.541500	0.864200	0.125830
N71	N7	0.011200	0.308400	0.073000
N81	N8	0.653100	0.134200	0.169300
N91	N9	0.579200	0.925300	0.940000
N101	N10	0.041500	0.635800	0.874170
N111	N11	0.511200	0.191600	0.927000
N121	N12	0.153100	0.365800	0.830700
N131	N13	0.920800	0.074700	0.440000
N141	N14	0.458500	0.364200	0.374170
N151	N15	0.988800	0.808400	0.427000
N161	N16	0.346900	0.634200	0.330700
O11	O1	0.236100	0.146700	0.610140
O21	O2	0.342100	0.254500	0.574320
O31	O3	0.667000	0.094100	0.400620
O41	O4	0.562400	0.214000	0.414940
O51	O5	0.426600	0.858500	0.569500
O61	O6	0.579500	0.851200	0.513900
O71	O7	0.969000	0.290100	0.685420
O81	O8	0.082500	0.385100	0.728380
O91	O9	0.669900	0.669000	0.768810
O101	O10	0.871500	0.641100	0.788760
O111	O11	0.519700	0.334300	0.649250
O121	O12	0.419900	0.449900	0.670570
O131	O13	0.249400	0.294800	0.678490
O141	O14	0.263900	0.853300	0.110140
O151	O15	0.157900	0.745500	0.074320
O161	O16	0.833000	0.905900	0.900620
O171	O17	0.937600	0.786000	0.914940
O181	O18	0.073400	0.141500	0.069500
O191	O19	0.920500	0.148800	0.013900
O201	O20	0.531000	0.709900	0.185420
O211	O21	0.417500	0.614900	0.228380
O221	O22	0.830100	0.331000	0.268810
O231	O23	0.628500	0.358900	0.288760
O241	O24	0.980300	0.665700	0.149250
O251	O25	0.080100	0.550100	0.170570
O261	O26	0.250600	0.705200	0.178490
O271	O27	0.763900	0.646700	0.889860
O281	O28	0.657900	0.754500	0.925680
O291	O29	0.333000	0.594100	0.099380
O301	O30	0.437600	0.714000	0.085060
O311	O31	0.573400	0.358500	0.930500
O321	O32	0.420500	0.351200	0.986100
O331	O33	0.031000	0.790100	0.814580
O341	O34	0.917500	0.885100	0.771620
O351	O35	0.330100	0.169000	0.731190
O361	O36	0.128500	0.141100	0.711240
O371	O37	0.480300	0.834300	0.850750
O381	O38	0.580100	0.949900	0.829430
O391	O39	0.750600	0.794800	0.821510
O401	O40	0.736100	0.353300	0.389860
O411	O41	0.842100	0.245500	0.425680
O421	O42	0.167000	0.405900	0.599380
O431	O43	0.062400	0.286000	0.585060
O441	O44	0.926600	0.641500	0.430500
O451	O45	0.079500	0.648800	0.486100
O461	O46	0.469000	0.209900	0.314580
O471	O47	0.582500	0.114900	0.271620
O481	O48	0.169900	0.831000	0.231190
O491	O49	0.371500	0.858900	0.211240
O501	O50	0.019700	0.165700	0.350750
O511	O51	0.919900	0.050100	0.329430
O521	O52	0.749400	0.205200	0.321510
