data_GAFROX_freeONLY_PM
_symmetry_space_group_name_H-M	'P1'
_cell_length_a	18.468000
_cell_length_b	18.468000
_cell_length_c	24.160000
_cell_angle_alpha	90.000000
_cell_angle_beta	90.000000
_cell_angle_gamma	120.000000
_symmetry_Int_Tables_number 1

loop_
_symmetry_equiv_pos_as_xyz
'x,y,z'

loop_
_atom_site_label
_atom_site_type_symbol
_atom_site_fract_x
_atom_site_fract_y
_atom_site_fract_z
C11	C1	0.552000	0.642700	0.545600
O11	O1	0.520300	0.629700	0.498380
O21	O2	0.562900	0.590800	0.573600
C21	C2	0.579400	0.724100	0.572180
C31	C3	0.622200	0.747000	0.620820
H11	H1	0.636100	0.710400	0.637800
C41	C4	0.357300	0.909300	0.545600
O31	O3	0.370300	0.890600	0.498380
O41	O4	0.409200	0.972100	0.573600
C51	C5	0.275900	0.855300	0.572180
C61	C6	0.253000	0.875200	0.620820
H21	H2	0.289600	0.925700	0.637800
C71	C7	0.090700	0.448000	0.545600
O51	O5	0.109400	0.479700	0.498380
O61	O6	0.027900	0.437100	0.573600
C81	C8	0.144700	0.420600	0.572180
C91	C9	0.124800	0.377800	0.620820
H31	H3	0.074300	0.363900	0.637800
C101	C10	0.448000	0.357300	0.045600
O71	O7	0.479700	0.370300	0.998380
O81	O8	0.437100	0.409200	0.073600
C111	C11	0.420600	0.275900	0.072180
C121	C12	0.377800	0.253000	0.120820
H41	H4	0.363900	0.289600	0.137800
C131	C13	0.642700	0.090700	0.045600
O91	O9	0.629700	0.109400	0.998380
O101	O10	0.590800	0.027900	0.073600
C141	C14	0.724100	0.144700	0.072180
C151	C15	0.747000	0.124800	0.120820
H51	H5	0.710400	0.074300	0.137800
C161	C16	0.909300	0.552000	0.045600
O111	O11	0.890600	0.520300	0.998380
O121	O12	0.972100	0.562900	0.073600
C171	C17	0.855300	0.579400	0.072180
C181	C18	0.875200	0.622200	0.120820
H61	H6	0.925700	0.636100	0.137800
C191	C19	0.642700	0.552000	0.454400
O131	O13	0.629700	0.520300	0.501620
O141	O14	0.590800	0.562900	0.426400
C201	C20	0.724100	0.579400	0.427820
C211	C21	0.747000	0.622200	0.379180
H71	H7	0.710400	0.636100	0.362200
C221	C22	0.909300	0.357300	0.454400
O151	O15	0.890600	0.370300	0.501620
O161	O16	0.972100	0.409200	0.426400
C231	C23	0.855300	0.275900	0.427820
C241	C24	0.875200	0.253000	0.379180
H81	H8	0.925700	0.289600	0.362200
C251	C25	0.448000	0.090700	0.454400
O171	O17	0.479700	0.109400	0.501620
O181	O18	0.437100	0.027900	0.426400
C261	C26	0.420600	0.144700	0.427820
C271	C27	0.377800	0.124800	0.379180
H91	H9	0.363900	0.074300	0.362200
C281	C28	0.357300	0.448000	0.954400
O191	O19	0.370300	0.479700	0.001620
O201	O20	0.409200	0.437100	0.926400
C291	C29	0.275900	0.420600	0.927820
C301	C30	0.253000	0.377800	0.879180
H101	H10	0.289600	0.363900	0.862200
C311	C31	0.090700	0.642700	0.954400
O211	O21	0.109400	0.629700	0.001620
O221	O22	0.027900	0.590800	0.926400
C321	C32	0.144700	0.724100	0.927820
C331	C33	0.124800	0.747000	0.879180
H111	H11	0.074300	0.710400	0.862200
C341	C34	0.552000	0.909300	0.954400
O231	O23	0.520300	0.890600	0.001620
O241	O24	0.562900	0.972100	0.926400
C351	C35	0.579400	0.855300	0.927820
C361	C36	0.622200	0.875200	0.879180
H121	H12	0.636100	0.925700	0.862200
C371	C37	0.448000	0.357300	0.454400
O251	O25	0.479700	0.370300	0.501620
O261	O26	0.437100	0.409200	0.426400
C381	C38	0.420600	0.275900	0.427820
C391	C39	0.377800	0.253000	0.379180
H131	H13	0.363900	0.289600	0.362200
C401	C40	0.642700	0.090700	0.454400
O271	O27	0.629700	0.109400	0.501620
O281	O28	0.590800	0.027900	0.426400
C411	C41	0.724100	0.144700	0.427820
C421	C42	0.747000	0.124800	0.379180
H141	H14	0.710400	0.074300	0.362200
C431	C43	0.909300	0.552000	0.454400
O291	O29	0.890600	0.520300	0.501620
O301	O30	0.972100	0.562900	0.426400
C441	C44	0.855300	0.579400	0.427820
C451	C45	0.875200	0.622200	0.379180
H151	H15	0.925700	0.636100	0.362200
C461	C46	0.552000	0.642700	0.954400
O311	O31	0.520300	0.629700	0.001620
O321	O32	0.562900	0.590800	0.926400
C471	C47	0.579400	0.724100	0.927820
C481	C48	0.622200	0.747000	0.879180
H161	H16	0.636100	0.710400	0.862200
C491	C49	0.357300	0.909300	0.954400
O331	O33	0.370300	0.890600	0.001620
O341	O34	0.409200	0.972100	0.926400
C501	C50	0.275900	0.855300	0.927820
C511	C51	0.253000	0.875200	0.879180
H171	H17	0.289600	0.925700	0.862200
C521	C52	0.090700	0.448000	0.954400
O351	O35	0.109400	0.479700	0.001620
O361	O36	0.027900	0.437100	0.926400
C531	C53	0.144700	0.420600	0.927820
C541	C54	0.124800	0.377800	0.879180
H181	H18	0.074300	0.363900	0.862200
C551	C55	0.357300	0.448000	0.545600
O371	O37	0.370300	0.479700	0.498380
O381	O38	0.409200	0.437100	0.573600
C561	C56	0.275900	0.420600	0.572180
C571	C57	0.253000	0.377800	0.620820
H191	H19	0.289600	0.363900	0.637800
C581	C58	0.090700	0.642700	0.545600
O391	O39	0.109400	0.629700	0.498380
O401	O40	0.027900	0.590800	0.573600
C591	C59	0.144700	0.724100	0.572180
C601	C60	0.124800	0.747000	0.620820
H201	H20	0.074300	0.710400	0.637800
C611	C61	0.552000	0.909300	0.545600
O411	O41	0.520300	0.890600	0.498380
O421	O42	0.562900	0.972100	0.573600
C621	C62	0.579400	0.855300	0.572180
C631	C63	0.622200	0.875200	0.620820
H211	H21	0.636100	0.925700	0.637800
C641	C64	0.642700	0.552000	0.045600
O431	O43	0.629700	0.520300	0.998380
O441	O44	0.590800	0.562900	0.073600
C651	C65	0.724100	0.579400	0.072180
C661	C66	0.747000	0.622200	0.120820
H221	H22	0.710400	0.636100	0.137800
C671	C67	0.909300	0.357300	0.045600
O451	O45	0.890600	0.370300	0.998380
O461	O46	0.972100	0.409200	0.073600
C681	C68	0.855300	0.275900	0.072180
C691	C69	0.875200	0.253000	0.120820
H231	H23	0.925700	0.289600	0.137800
C701	C70	0.448000	0.090700	0.045600
O471	O47	0.479700	0.109400	0.998380
O481	O48	0.437100	0.027900	0.073600
C711	C71	0.420600	0.144700	0.072180
C721	C72	0.377800	0.124800	0.120820
H241	H24	0.363900	0.074300	0.137800
Zn11	Zn1	0.472930	0.527070	0.449890
O491	O49	0.436900	0.563100	0.384100
Zn21	Zn2	0.472930	0.945850	0.449890
O501	O50	0.436900	0.873800	0.384100
Zn31	Zn3	0.054150	0.527070	0.449890
O511	O51	0.126200	0.563100	0.384100
Zn41	Zn4	0.527070	0.472930	0.949890
O521	O52	0.563100	0.436900	0.884100
Zn51	Zn5	0.527070	0.054150	0.949890
O531	O53	0.563100	0.126200	0.884100
Zn61	Zn6	0.945850	0.472930	0.949890
O541	O54	0.873800	0.436900	0.884100
Zn71	Zn7	0.527070	0.472930	0.550110
O551	O55	0.563100	0.436900	0.615900
Zn81	Zn8	0.945850	0.472930	0.550110
O561	O56	0.873800	0.436900	0.615900
Zn91	Zn9	0.527070	0.054150	0.550110
O571	O57	0.563100	0.126200	0.615900
Zn101	Zn10	0.472930	0.527070	0.050110
O581	O58	0.436900	0.563100	0.115900
Zn111	Zn11	0.054150	0.527070	0.050110
O591	O59	0.126200	0.563100	0.115900
Zn121	Zn12	0.472930	0.945850	0.050110
O601	O60	0.436900	0.873800	0.115900
C731	C73	0.556500	0.778250	0.546000
H251	H25	0.527500	0.763750	0.512600
C741	C74	0.645600	0.822800	0.645700
C751	C75	0.692800	0.846400	0.699800
H261	H26	0.536600	0.768300	0.780800
C761	C76	0.775300	0.887650	0.700600
H271	H27	0.804500	0.902250	0.667400
C771	C77	0.221750	0.778250	0.546000
H281	H28	0.236250	0.763750	0.512600
C781	C78	0.177200	0.822800	0.645700
C791	C79	0.153600	0.846400	0.699800
H291	H29	0.231700	0.768300	0.780800
C801	C80	0.112350	0.887650	0.700600
H301	H30	0.097750	0.902250	0.667400
C811	C81	0.221750	0.443500	0.546000
H311	H31	0.236250	0.472500	0.512600
C821	C82	0.177200	0.354400	0.645700
C831	C83	0.153600	0.307200	0.699800
H321	H32	0.231700	0.463400	0.780800
C841	C84	0.112350	0.224700	0.700600
H331	H33	0.097750	0.195500	0.667400
C851	C85	0.443500	0.221750	0.046000
H341	H34	0.472500	0.236250	0.012600
C861	C86	0.354400	0.177200	0.145700
C871	C87	0.307200	0.153600	0.199800
H351	H35	0.463400	0.231700	0.280800
C881	C88	0.224700	0.112350	0.200600
H361	H36	0.195500	0.097750	0.167400
C891	C89	0.778250	0.221750	0.046000
H371	H37	0.763750	0.236250	0.012600
C901	C90	0.822800	0.177200	0.145700
C911	C91	0.846400	0.153600	0.199800
H381	H38	0.768300	0.231700	0.280800
C921	C92	0.887650	0.112350	0.200600
H391	H39	0.902250	0.097750	0.167400
C931	C93	0.778250	0.556500	0.046000
H401	H40	0.763750	0.527500	0.012600
C941	C94	0.822800	0.645600	0.145700
C951	C95	0.846400	0.692800	0.199800
H411	H41	0.768300	0.536600	0.280800
C961	C96	0.887650	0.775300	0.200600
H421	H42	0.902250	0.804500	0.167400
C971	C97	0.778250	0.556500	0.454000
H431	H43	0.763750	0.527500	0.487400
C981	C98	0.822800	0.645600	0.354300
C991	C99	0.846400	0.692800	0.300200
H441	H44	0.768300	0.536600	0.219200
C1001	C100	0.887650	0.775300	0.299400
H451	H45	0.902250	0.804500	0.332600
C1011	C101	0.778250	0.221750	0.454000
H461	H46	0.763750	0.236250	0.487400
C1021	C102	0.822800	0.177200	0.354300
C1031	C103	0.846400	0.153600	0.300200
H471	H47	0.768300	0.231700	0.219200
C1041	C104	0.887650	0.112350	0.299400
H481	H48	0.902250	0.097750	0.332600
C1051	C105	0.443500	0.221750	0.454000
H491	H49	0.472500	0.236250	0.487400
C1061	C106	0.354400	0.177200	0.354300
C1071	C107	0.307200	0.153600	0.300200
H501	H50	0.463400	0.231700	0.219200
C1081	C108	0.224700	0.112350	0.299400
H511	H51	0.195500	0.097750	0.332600
C1091	C109	0.221750	0.443500	0.954000
H521	H52	0.236250	0.472500	0.987400
C1101	C110	0.177200	0.354400	0.854300
C1111	C111	0.153600	0.307200	0.800200
H531	H53	0.231700	0.463400	0.719200
C1121	C112	0.112350	0.224700	0.799400
H541	H54	0.097750	0.195500	0.832600
C1131	C113	0.221750	0.778250	0.954000
H551	H55	0.236250	0.763750	0.987400
C1141	C114	0.177200	0.822800	0.854300
C1151	C115	0.153600	0.846400	0.800200
H561	H56	0.231700	0.768300	0.719200
C1161	C116	0.112350	0.887650	0.799400
H571	H57	0.097750	0.902250	0.832600
C1171	C117	0.556500	0.778250	0.954000
H581	H58	0.527500	0.763750	0.987400
C1181	C118	0.645600	0.822800	0.854300
C1191	C119	0.692800	0.846400	0.800200
H591	H59	0.536600	0.768300	0.719200
C1201	C120	0.775300	0.887650	0.799400
H601	H60	0.804500	0.902250	0.832600
C1211	C121	0.650900	0.825450	0.750000
N11	N1	0.563400	0.781700	0.750000
C1221	C122	0.819200	0.909600	0.750000
H611	H61	0.877400	0.938700	0.750000
C1231	C123	0.174550	0.825450	0.750000
N21	N2	0.218300	0.781700	0.750000
C1241	C124	0.090400	0.909600	0.750000
H621	H62	0.061300	0.938700	0.750000
C1251	C125	0.174550	0.349100	0.750000
N31	N3	0.218300	0.436600	0.750000
C1261	C126	0.090400	0.180800	0.750000
H631	H63	0.061300	0.122600	0.750000
C1271	C127	0.349100	0.174550	0.250000
N41	N4	0.436600	0.218300	0.250000
C1281	C128	0.180800	0.090400	0.250000
H641	H64	0.122600	0.061300	0.250000
C1291	C129	0.825450	0.174550	0.250000
N51	N5	0.781700	0.218300	0.250000
C1301	C130	0.909600	0.090400	0.250000
H651	H65	0.938700	0.061300	0.250000
C1311	C131	0.825450	0.650900	0.250000
N61	N6	0.781700	0.563400	0.250000
C1321	C132	0.909600	0.819200	0.250000
H661	H66	0.938700	0.877400	0.250000
