data_GAGXAP_freeONLY_PM
_symmetry_space_group_name_H-M	'P1'
_cell_length_a	8.808400
_cell_length_b	8.808400
_cell_length_c	40.078000
_cell_angle_alpha	86.307100
_cell_angle_beta	86.307100
_cell_angle_gamma	82.937600
_symmetry_Int_Tables_number 1

loop_
_symmetry_equiv_pos_as_xyz
'x,y,z'

loop_
_atom_site_label
_atom_site_type_symbol
_atom_site_fract_x
_atom_site_fract_y
_atom_site_fract_z
Ni11	Ni1	0.747800	0.804640	0.118270
Ni21	Ni2	0.968580	0.589420	0.164150
Ni31	Ni3	0.905050	0.138850	0.104620
Ni41	Ni4	0.195360	0.252200	0.381730
Ni51	Ni5	0.410580	0.031420	0.335850
Ni61	Ni6	0.861150	0.094950	0.395380
Ni71	Ni7	0.252200	0.195360	0.881730
Ni81	Ni8	0.031420	0.410580	0.835850
Ni91	Ni9	0.094950	0.861150	0.895380
Ni101	Ni10	0.804640	0.747800	0.618270
Ni111	Ni11	0.589420	0.968580	0.664150
Ni121	Ni12	0.138850	0.905050	0.604620
H11	H1	0.988900	0.617500	0.967200
H21	H2	0.322700	0.880700	0.974700
H31	H3	0.390600	0.308400	0.247500
H41	H4	0.056800	0.571000	0.295400
H51	H5	0.003800	0.862600	0.207800
H61	H6	0.157700	0.916700	0.192100
H71	H7	0.273800	0.782400	0.148800
H81	H8	0.369200	0.660200	0.171600
H91	H9	0.012300	0.718900	0.246900
H101	H10	0.114500	0.518100	0.932600
H111	H11	0.293300	0.479300	0.928200
H121	H12	0.435900	0.655100	0.909200
H131	H13	0.441400	0.721400	0.944400
H141	H14	0.349800	0.457400	0.199100
H151	H15	0.886500	0.683500	0.019000
H161	H16	0.216600	0.947600	0.026900
H171	H17	0.382500	0.011100	0.532800
H181	H18	0.119300	0.677300	0.525300
H191	H19	0.691600	0.609400	0.252500
H201	H20	0.429000	0.943200	0.204600
H211	H21	0.137400	0.996200	0.292200
H221	H22	0.083300	0.842300	0.307900
H231	H23	0.217600	0.726200	0.351200
H241	H24	0.339800	0.630800	0.328400
H251	H25	0.281100	0.987700	0.253100
H261	H26	0.481900	0.885500	0.567400
H271	H27	0.520700	0.706700	0.571800
H281	H28	0.344900	0.564100	0.590800
H291	H29	0.278600	0.558600	0.555600
H301	H30	0.542600	0.650200	0.300900
H311	H31	0.316500	0.113500	0.481000
H321	H32	0.052400	0.783400	0.473100
H331	H33	0.011100	0.382500	0.032800
H341	H34	0.677300	0.119300	0.025300
H351	H35	0.609400	0.691600	0.752500
H361	H36	0.943200	0.429000	0.704600
H371	H37	0.996200	0.137400	0.792200
H381	H38	0.842300	0.083300	0.807900
H391	H39	0.726200	0.217600	0.851200
H401	H40	0.630800	0.339800	0.828400
H411	H41	0.987700	0.281100	0.753100
H421	H42	0.885500	0.481900	0.067400
H431	H43	0.706700	0.520700	0.071800
H441	H44	0.564100	0.344900	0.090800
H451	H45	0.558600	0.278600	0.055600
H461	H46	0.650200	0.542600	0.800900
H471	H47	0.113500	0.316500	0.981000
H481	H48	0.783400	0.052400	0.973100
H491	H49	0.617500	0.988900	0.467200
H501	H50	0.880700	0.322700	0.474700
H511	H51	0.308400	0.390600	0.747500
H521	H52	0.571000	0.056800	0.795400
H531	H53	0.862600	0.003800	0.707800
H541	H54	0.916700	0.157700	0.692100
H551	H55	0.782400	0.273800	0.648800
H561	H56	0.660200	0.369200	0.671600
H571	H57	0.718900	0.012300	0.746900
H581	H58	0.518100	0.114500	0.432600
H591	H59	0.479300	0.293300	0.428200
H601	H60	0.655100	0.435900	0.409200
H611	H61	0.721400	0.441400	0.444400
H621	H62	0.457400	0.349800	0.699100
H631	H63	0.683500	0.886500	0.519000
H641	H64	0.947600	0.216600	0.526900
C11	C1	0.036100	0.683900	0.979160
C21	C2	0.234800	0.840400	0.983410
C31	C3	0.314400	0.391400	0.247500
C41	C4	0.226800	0.423000	0.276710
C51	C5	0.252300	0.319300	0.307470
C61	C6	0.115800	0.547200	0.275960
C71	C7	0.000000	0.907600	0.157020
C81	C8	0.077700	0.853500	0.188830
C91	C9	0.273500	0.682700	0.160570
C101	C10	0.179200	0.605600	0.217910
C111	C11	0.195800	0.553800	0.883970
C121	C12	0.089900	0.637100	0.246970
C131	C13	0.206800	0.551400	0.921500
C141	C14	0.039900	0.824300	0.028370
C151	C15	0.388000	0.733400	0.923770
C161	C16	0.290300	0.481100	0.218490
C171	C17	0.408700	0.888300	0.907100
C181	C18	0.974000	0.724200	0.010160
C191	C19	0.170300	0.880900	0.014840
C201	C20	0.964000	0.872200	0.061320
C211	C21	0.267600	0.563200	0.134920
C221	C22	0.168100	0.740500	0.965300
C231	C23	0.316100	0.963900	0.520840
C241	C24	0.159600	0.765200	0.516590
C251	C25	0.608600	0.685600	0.252500
C261	C26	0.577000	0.773200	0.223290
C271	C27	0.680700	0.747700	0.192530
C281	C28	0.452800	0.884200	0.224040
C291	C29	0.092400	0.000000	0.342980
C301	C30	0.146500	0.922300	0.311170
C311	C31	0.317300	0.726500	0.339430
C321	C32	0.394400	0.820800	0.282090
C331	C33	0.446200	0.804200	0.616030
C341	C34	0.362900	0.910100	0.253030
C351	C35	0.448600	0.793200	0.578500
C361	C36	0.175700	0.960100	0.471630
C371	C37	0.266600	0.612000	0.576230
C381	C38	0.518900	0.709700	0.281510
C391	C39	0.111700	0.591300	0.592900
C401	C40	0.275800	0.026000	0.489840
C411	C41	0.119100	0.829700	0.485160
C421	C42	0.127800	0.036000	0.438680
C431	C43	0.436800	0.732400	0.365080
C441	C44	0.259500	0.831900	0.534700
C451	C45	0.963900	0.316100	0.020840
C461	C46	0.765200	0.159600	0.016590
C471	C47	0.685600	0.608600	0.752500
C481	C48	0.773200	0.577000	0.723290
C491	C49	0.747700	0.680700	0.692530
C501	C50	0.884200	0.452800	0.724040
C511	C51	0.000000	0.092400	0.842980
C521	C52	0.922300	0.146500	0.811170
C531	C53	0.726500	0.317300	0.839430
C541	C54	0.820800	0.394400	0.782090
C551	C55	0.804200	0.446200	0.116030
C561	C56	0.910100	0.362900	0.753030
C571	C57	0.793200	0.448600	0.078500
C581	C58	0.960100	0.175700	0.971630
C591	C59	0.612000	0.266600	0.076230
C601	C60	0.709700	0.518900	0.781510
C611	C61	0.591300	0.111700	0.092900
C621	C62	0.026000	0.275800	0.989840
C631	C63	0.829700	0.119100	0.985160
C641	C64	0.036000	0.127800	0.938680
C651	C65	0.732400	0.436800	0.865080
C661	C66	0.831900	0.259500	0.034700
C671	C67	0.683900	0.036100	0.479160
C681	C68	0.840400	0.234800	0.483410
C691	C69	0.391400	0.314400	0.747500
C701	C70	0.423000	0.226800	0.776710
C711	C71	0.319300	0.252300	0.807470
C721	C72	0.547200	0.115800	0.775960
C731	C73	0.907600	0.000000	0.657020
C741	C74	0.853500	0.077700	0.688830
C751	C75	0.682700	0.273500	0.660570
C761	C76	0.605600	0.179200	0.717910
C771	C77	0.553800	0.195800	0.383970
C781	C78	0.637100	0.089900	0.746970
C791	C79	0.551400	0.206800	0.421500
C801	C80	0.824300	0.039900	0.528370
C811	C81	0.733400	0.388000	0.423770
C821	C82	0.481100	0.290300	0.718490
C831	C83	0.888300	0.408700	0.407100
C841	C84	0.724200	0.974000	0.510160
C851	C85	0.880900	0.170300	0.514840
C861	C86	0.872200	0.964000	0.561320
C871	C87	0.563200	0.267600	0.634920
C881	C88	0.740500	0.168100	0.465300
N11	N1	0.145000	0.691800	0.186670
N21	N2	0.226100	0.706300	0.931750
N31	N3	0.308200	0.855000	0.313330
N41	N4	0.293700	0.773900	0.568250
N51	N5	0.855000	0.308200	0.813330
N61	N6	0.773900	0.293700	0.068250
N71	N7	0.691800	0.145000	0.686670
N81	N8	0.706300	0.226100	0.431750
O11	O1	0.982900	0.046700	0.149240
O21	O2	0.952400	0.805400	0.140920
O31	O3	0.339500	0.197500	0.302990
O41	O4	0.183300	0.359100	0.334690
O51	O5	0.144600	0.504600	0.133600
O61	O6	0.858600	0.797400	0.073000
O71	O7	0.193000	0.430200	0.870650
O81	O8	0.294400	0.958800	0.891470
O91	O9	0.183000	0.680400	0.867440
O101	O10	0.011200	0.984000	0.073930
O111	O11	0.983900	0.370700	0.187510
O121	O12	0.550800	0.764000	0.097490
O131	O13	0.384200	0.533800	0.116540
O141	O14	0.105500	0.248300	0.096750
O151	O15	0.535400	0.935400	0.908260
O161	O16	0.953300	0.017100	0.350760
O171	O17	0.194600	0.047600	0.359080
O181	O18	0.802500	0.660500	0.197010
O191	O19	0.640900	0.816700	0.165310
O201	O20	0.495400	0.855400	0.366400
O211	O21	0.202600	0.141400	0.427000
O221	O22	0.569800	0.807000	0.629350
O231	O23	0.041200	0.705600	0.608530
O241	O24	0.319600	0.817000	0.632560
O251	O25	0.016000	0.988800	0.426070
O261	O26	0.629300	0.016100	0.312490
O271	O27	0.236000	0.449200	0.402510
O281	O28	0.466200	0.615800	0.383460
O291	O29	0.751700	0.894500	0.403250
O301	O30	0.064600	0.464600	0.591740
O311	O31	0.017100	0.953300	0.850760
O321	O32	0.047600	0.194600	0.859080
O331	O33	0.660500	0.802500	0.697010
O341	O34	0.816700	0.640900	0.665310
O351	O35	0.855400	0.495400	0.866400
O361	O36	0.141400	0.202600	0.927000
O371	O37	0.807000	0.569800	0.129350
O381	O38	0.705600	0.041200	0.108530
O391	O39	0.817000	0.319600	0.132560
O401	O40	0.988800	0.016000	0.926070
O411	O41	0.016100	0.629300	0.812490
O421	O42	0.449200	0.236000	0.902510
O431	O43	0.615800	0.466200	0.883460
O441	O44	0.894500	0.751700	0.903250
O451	O45	0.464600	0.064600	0.091740
O461	O46	0.046700	0.982900	0.649240
O471	O47	0.805400	0.952400	0.640920
O481	O48	0.197500	0.339500	0.802990
O491	O49	0.359100	0.183300	0.834690
O501	O50	0.504600	0.144600	0.633600
O511	O51	0.797400	0.858600	0.573000
O521	O52	0.430200	0.193000	0.370650
O531	O53	0.958800	0.294400	0.391470
O541	O54	0.680400	0.183000	0.367440
O551	O55	0.984000	0.011200	0.573930
O561	O56	0.370700	0.983900	0.687510
O571	O57	0.764000	0.550800	0.597490
O581	O58	0.533800	0.384200	0.616540
O591	O59	0.248300	0.105500	0.596750
O601	O60	0.935400	0.535400	0.408260
