data_GAMFEI_freeONLY_PM
_symmetry_space_group_name_H-M	'P1'
_cell_length_a	17.324500
_cell_length_b	17.324500
_cell_length_c	33.939600
_cell_angle_alpha	90.000000
_cell_angle_beta	90.000000
_cell_angle_gamma	90.000000
_symmetry_Int_Tables_number 1

loop_
_symmetry_equiv_pos_as_xyz
'x,y,z'

loop_
_atom_site_label
_atom_site_type_symbol
_atom_site_fract_x
_atom_site_fract_y
_atom_site_fract_z
Cu11	Cu1	0.085130	0.507570	0.615210
Cu21	Cu2	0.158390	0.364180	0.567110
Cu31	Cu3	0.082970	0.512180	0.522000
N11	N1	0.126900	0.424500	0.641670
N21	N2	0.160400	0.364500	0.622300
N31	N3	0.370900	0.066700	0.993400
N41	N4	0.050700	0.598500	0.549450
N51	N5	0.054700	0.597200	0.590420
N61	N6	0.337700	0.127800	0.012400
N71	N7	0.295700	0.170900	0.910700
O11	O1	0.070800	0.281200	0.734210
O21	O2	0.891700	0.784900	0.566200
N81	N8	0.022200	0.798600	0.572300
O31	O3	0.150500	0.812800	0.582400
O41	O4	0.421400	0.188900	0.896300
O51	O5	0.168700	0.155000	0.925100
C11	C1	0.036400	0.671400	0.537800
C21	C2	0.004500	0.959200	0.572000
C31	C3	0.135500	0.411900	0.680600
N91	N9	0.195600	0.311200	0.722800
O61	O6	0.322300	0.343800	0.712100
C41	C4	0.358200	0.073300	0.954800
C51	C5	0.089200	0.842800	0.576600
C61	C6	0.192100	0.316000	0.648700
C71	C7	0.946600	0.826800	0.570000
C81	C8	0.274100	0.317100	0.733800
C91	C9	0.261600	0.244800	0.996600
H11	H1	0.207200	0.235200	0.994000
H21	H2	0.276100	0.286800	0.979700
H31	H3	0.273200	0.257800	0.023400
C101	C10	0.104000	0.464400	0.710500
H41	H4	0.094200	0.513900	0.698900
H51	H5	0.140500	0.470000	0.731600
H61	H6	0.056600	0.443600	0.720700
C111	C11	0.305700	0.173600	0.985000
C121	C12	0.032100	0.716700	0.571300
C131	C13	0.080400	0.928500	0.573700
C141	C14	0.316900	0.141200	0.949000
C151	C15	0.255100	0.230200	0.836200
C161	C16	0.293600	0.285500	0.774000
C171	C17	0.217800	0.175200	0.901900
C181	C18	0.046000	0.687500	0.646900
H71	H7	0.994400	0.696700	0.656000
H81	H8	0.076800	0.732800	0.651300
H91	H9	0.067800	0.644900	0.661100
C191	C19	0.937500	0.912800	0.571500
C201	C20	0.099800	0.234200	0.812400
H101	H10	0.048400	0.235000	0.804600
C211	C21	0.119400	0.208100	0.850500
H111	H11	0.080900	0.193300	0.868000
C221	C22	0.196800	0.204400	0.861900
C231	C23	0.044600	0.669100	0.603900
C241	C24	0.354400	0.194500	0.886500
C251	C25	0.333100	0.229800	0.847600
C261	C26	0.370000	0.282800	0.785300
H121	H12	0.408700	0.298600	0.768100
C271	C27	0.236400	0.245000	0.637200
H131	H13	0.218600	0.227000	0.612100
H141	H14	0.228500	0.205500	0.656600
H151	H15	0.290400	0.257100	0.635600
C281	C28	0.142200	0.975100	0.572800
H161	H16	0.191400	0.953600	0.572800
C291	C29	0.027600	0.693900	0.496300
H171	H17	0.053800	0.657300	0.479800
H181	H18	0.049400	0.744300	0.492400
H191	H19	0.973800	0.694900	0.489600
C301	C30	0.175300	0.344400	0.685400
C311	C31	0.234800	0.257300	0.798000
C321	C32	0.135700	0.283800	0.746600
C331	C33	0.156200	0.258500	0.786900
C341	C34	0.388700	0.255900	0.823500
H201	H20	0.439800	0.256200	0.831900
C351	C35	0.865600	0.944300	0.571800
H211	H21	0.822100	0.912800	0.571300
C361	C36	0.389000	0.016300	0.925600
H221	H22	0.427400	0.040800	0.909500
H231	H23	0.347700	0.998000	0.909300
H241	H24	0.411900	0.973600	0.939400
Cu41	Cu4	0.585130	0.007570	0.115210
Cu51	Cu5	0.658390	0.864180	0.067110
Cu61	Cu6	0.582970	0.012180	0.022000
N101	N10	0.626900	0.924500	0.141670
N111	N11	0.660400	0.864500	0.122300
N121	N12	0.870900	0.566700	0.493400
N131	N13	0.550700	0.098500	0.049450
N141	N14	0.554700	0.097200	0.090420
N151	N15	0.837700	0.627800	0.512400
N161	N16	0.795700	0.670900	0.410700
O71	O7	0.570800	0.781200	0.234210
O81	O8	0.391700	0.284900	0.066200
N171	N17	0.522200	0.298600	0.072300
O91	O9	0.650500	0.312800	0.082400
O101	O10	0.921400	0.688900	0.396300
O111	O11	0.668700	0.655000	0.425100
C371	C37	0.536400	0.171400	0.037800
C381	C38	0.504500	0.459200	0.072000
C391	C39	0.635500	0.911900	0.180600
N181	N18	0.695600	0.811200	0.222800
O121	O12	0.822300	0.843800	0.212100
C401	C40	0.858200	0.573300	0.454800
C411	C41	0.589200	0.342800	0.076600
C421	C42	0.692100	0.816000	0.148700
C431	C43	0.446600	0.326800	0.070000
C441	C44	0.774100	0.817100	0.233800
C451	C45	0.761600	0.744800	0.496600
H251	H25	0.707200	0.735200	0.494000
H261	H26	0.776100	0.786800	0.479700
H271	H27	0.773200	0.757800	0.523400
C461	C46	0.604000	0.964400	0.210500
H281	H28	0.594200	0.013900	0.198900
H291	H29	0.640500	0.970000	0.231600
H301	H30	0.556600	0.943600	0.220700
C471	C47	0.805700	0.673600	0.485000
C481	C48	0.532100	0.216700	0.071300
C491	C49	0.580400	0.428500	0.073700
C501	C50	0.816900	0.641200	0.449000
C511	C51	0.755100	0.730200	0.336200
C521	C52	0.793600	0.785500	0.274000
C531	C53	0.717800	0.675200	0.401900
C541	C54	0.546000	0.187500	0.146900
H311	H31	0.494400	0.196700	0.156000
H321	H32	0.576800	0.232800	0.151300
H331	H33	0.567800	0.144900	0.161100
C551	C55	0.437500	0.412800	0.071500
C561	C56	0.599800	0.734200	0.312400
H341	H34	0.548400	0.735000	0.304600
C571	C57	0.619400	0.708100	0.350500
H351	H35	0.580900	0.693300	0.368000
C581	C58	0.696800	0.704400	0.361900
C591	C59	0.544600	0.169100	0.103900
C601	C60	0.854400	0.694500	0.386500
C611	C61	0.833100	0.729800	0.347600
C621	C62	0.870000	0.782800	0.285300
H361	H36	0.908700	0.798600	0.268100
C631	C63	0.736400	0.745000	0.137200
H371	H37	0.718600	0.727000	0.112100
H381	H38	0.728500	0.705500	0.156600
H391	H39	0.790400	0.757100	0.135600
C641	C64	0.642200	0.475100	0.072800
H401	H40	0.691400	0.453600	0.072800
C651	C65	0.527600	0.193900	0.996300
H411	H41	0.553800	0.157300	0.979800
H421	H42	0.549400	0.244300	0.992400
H431	H43	0.473800	0.194900	0.989600
C661	C66	0.675300	0.844400	0.185400
C671	C67	0.734800	0.757300	0.298000
C681	C68	0.635700	0.783800	0.246600
C691	C69	0.656200	0.758500	0.286900
C701	C70	0.888700	0.755900	0.323500
H441	H44	0.939800	0.756200	0.331900
C711	C71	0.365600	0.444300	0.071800
H451	H45	0.322100	0.412800	0.071300
C721	C72	0.889000	0.516300	0.425600
H461	H46	0.927400	0.540800	0.409500
H471	H47	0.847700	0.498000	0.409300
H481	H48	0.911900	0.473600	0.439400
Cu71	Cu7	0.914870	0.492430	0.615210
Cu81	Cu8	0.841610	0.635820	0.567110
Cu91	Cu9	0.917030	0.487820	0.522000
N191	N19	0.873100	0.575500	0.641670
N201	N20	0.839600	0.635500	0.622300
N211	N21	0.629100	0.933300	0.993400
N221	N22	0.949300	0.401500	0.549450
N231	N23	0.945300	0.402800	0.590420
N241	N24	0.662300	0.872200	0.012400
N251	N25	0.704300	0.829100	0.910700
O131	O13	0.929200	0.718800	0.734210
O141	O14	0.108300	0.215100	0.566200
N261	N26	0.977800	0.201400	0.572300
O151	O15	0.849500	0.187200	0.582400
O161	O16	0.578600	0.811100	0.896300
O171	O17	0.831300	0.845000	0.925100
C731	C73	0.963600	0.328600	0.537800
C741	C74	0.995500	0.040800	0.572000
C751	C75	0.864500	0.588100	0.680600
N271	N27	0.804400	0.688800	0.722800
O181	O18	0.677700	0.656200	0.712100
C761	C76	0.641800	0.926700	0.954800
C771	C77	0.910800	0.157200	0.576600
C781	C78	0.807900	0.684000	0.648700
C791	C79	0.053400	0.173200	0.570000
C801	C80	0.725900	0.682900	0.733800
C811	C81	0.738400	0.755200	0.996600
H491	H49	0.792800	0.764800	0.994000
H501	H50	0.723900	0.713200	0.979700
H511	H51	0.726800	0.742200	0.023400
C821	C82	0.896000	0.535600	0.710500
H521	H52	0.905800	0.486100	0.698900
H531	H53	0.859500	0.530000	0.731600
H541	H54	0.943400	0.556400	0.720700
C831	C83	0.694300	0.826400	0.985000
C841	C84	0.967900	0.283300	0.571300
C851	C85	0.919600	0.071500	0.573700
C861	C86	0.683100	0.858800	0.949000
C871	C87	0.744900	0.769800	0.836200
C881	C88	0.706400	0.714500	0.774000
C891	C89	0.782200	0.824800	0.901900
C901	C90	0.954000	0.312500	0.646900
H551	H55	0.005600	0.303300	0.656000
H561	H56	0.923200	0.267200	0.651300
H571	H57	0.932200	0.355100	0.661100
C911	C91	0.062500	0.087200	0.571500
C921	C92	0.900200	0.765800	0.812400
H581	H58	0.951600	0.765000	0.804600
C931	C93	0.880600	0.791900	0.850500
H591	H59	0.919100	0.806700	0.868000
C941	C94	0.803200	0.795600	0.861900
C951	C95	0.955400	0.330900	0.603900
C961	C96	0.645600	0.805500	0.886500
C971	C97	0.666900	0.770200	0.847600
C981	C98	0.630000	0.717200	0.785300
H601	H60	0.591300	0.701400	0.768100
C991	C99	0.763600	0.755000	0.637200
H611	H61	0.781400	0.773000	0.612100
H621	H62	0.771500	0.794500	0.656600
H631	H63	0.709600	0.742900	0.635600
C1001	C100	0.857800	0.024900	0.572800
H641	H64	0.808600	0.046400	0.572800
C1011	C101	0.972400	0.306100	0.496300
H651	H65	0.946200	0.342700	0.479800
H661	H66	0.950600	0.255700	0.492400
H671	H67	0.026200	0.305100	0.489600
C1021	C102	0.824700	0.655600	0.685400
C1031	C103	0.765200	0.742700	0.798000
C1041	C104	0.864300	0.716200	0.746600
C1051	C105	0.843800	0.741500	0.786900
C1061	C106	0.611300	0.744100	0.823500
H681	H68	0.560200	0.743800	0.831900
C1071	C107	0.134400	0.055700	0.571800
H691	H69	0.177900	0.087200	0.571300
C1081	C108	0.611000	0.983700	0.925600
H701	H70	0.572600	0.959200	0.909500
H711	H71	0.652300	0.002000	0.909300
H721	H72	0.588100	0.026400	0.939400
Cu101	Cu10	0.414870	0.992430	0.115210
Cu111	Cu11	0.341610	0.135820	0.067110
Cu121	Cu12	0.417030	0.987820	0.022000
N281	N28	0.373100	0.075500	0.141670
N291	N29	0.339600	0.135500	0.122300
N301	N30	0.129100	0.433300	0.493400
N311	N31	0.449300	0.901500	0.049450
N321	N32	0.445300	0.902800	0.090420
N331	N33	0.162300	0.372200	0.512400
N341	N34	0.204300	0.329100	0.410700
O191	O19	0.429200	0.218800	0.234210
O201	O20	0.608300	0.715100	0.066200
N351	N35	0.477800	0.701400	0.072300
O211	O21	0.349500	0.687200	0.082400
O221	O22	0.078600	0.311100	0.396300
O231	O23	0.331300	0.345000	0.425100
C1091	C109	0.463600	0.828600	0.037800
C1101	C110	0.495500	0.540800	0.072000
C1111	C111	0.364500	0.088100	0.180600
N361	N36	0.304400	0.188800	0.222800
O241	O24	0.177700	0.156200	0.212100
C1121	C112	0.141800	0.426700	0.454800
C1131	C113	0.410800	0.657200	0.076600
C1141	C114	0.307900	0.184000	0.148700
C1151	C115	0.553400	0.673200	0.070000
C1161	C116	0.225900	0.182900	0.233800
C1171	C117	0.238400	0.255200	0.496600
H731	H73	0.292800	0.264800	0.494000
H741	H74	0.223900	0.213200	0.479700
H751	H75	0.226800	0.242200	0.523400
C1181	C118	0.396000	0.035600	0.210500
H761	H76	0.405800	0.986100	0.198900
H771	H77	0.359500	0.030000	0.231600
H781	H78	0.443400	0.056400	0.220700
C1191	C119	0.194300	0.326400	0.485000
C1201	C120	0.467900	0.783300	0.071300
C1211	C121	0.419600	0.571500	0.073700
C1221	C122	0.183100	0.358800	0.449000
C1231	C123	0.244900	0.269800	0.336200
C1241	C124	0.206400	0.214500	0.274000
C1251	C125	0.282200	0.324800	0.401900
C1261	C126	0.454000	0.812500	0.146900
H791	H79	0.505600	0.803300	0.156000
H801	H80	0.423200	0.767200	0.151300
H811	H81	0.432200	0.855100	0.161100
C1271	C127	0.562500	0.587200	0.071500
C1281	C128	0.400200	0.265800	0.312400
H821	H82	0.451600	0.265000	0.304600
C1291	C129	0.380600	0.291900	0.350500
H831	H83	0.419100	0.306700	0.368000
C1301	C130	0.303200	0.295600	0.361900
C1311	C131	0.455400	0.830900	0.103900
C1321	C132	0.145600	0.305500	0.386500
C1331	C133	0.166900	0.270200	0.347600
C1341	C134	0.130000	0.217200	0.285300
H841	H84	0.091300	0.201400	0.268100
C1351	C135	0.263600	0.255000	0.137200
H851	H85	0.281400	0.273000	0.112100
H861	H86	0.271500	0.294500	0.156600
H871	H87	0.209600	0.242900	0.135600
C1361	C136	0.357800	0.524900	0.072800
H881	H88	0.308600	0.546400	0.072800
C1371	C137	0.472400	0.806100	0.996300
H891	H89	0.446200	0.842700	0.979800
H901	H90	0.450600	0.755700	0.992400
H911	H91	0.526200	0.805100	0.989600
C1381	C138	0.324700	0.155600	0.185400
C1391	C139	0.265200	0.242700	0.298000
C1401	C140	0.364300	0.216200	0.246600
C1411	C141	0.343800	0.241500	0.286900
C1421	C142	0.111300	0.244100	0.323500
H921	H92	0.060200	0.243800	0.331900
C1431	C143	0.634400	0.555700	0.071800
H931	H93	0.677900	0.587200	0.071300
C1441	C144	0.111000	0.483700	0.425600
H941	H94	0.072600	0.459200	0.409500
H951	H95	0.152300	0.502000	0.409300
H961	H96	0.088100	0.526400	0.439400
Cu131	Cu13	0.507570	0.914870	0.384790
Cu141	Cu14	0.364180	0.841610	0.432890
Cu151	Cu15	0.512180	0.917030	0.478000
N371	N37	0.424500	0.873100	0.358330
N381	N38	0.364500	0.839600	0.377700
N391	N39	0.066700	0.629100	0.006600
N401	N40	0.598500	0.949300	0.450550
N411	N41	0.597200	0.945300	0.409580
N421	N42	0.127800	0.662300	0.987600
N431	N43	0.170900	0.704300	0.089300
O251	O25	0.281200	0.929200	0.265790
O261	O26	0.784900	0.108300	0.433800
N441	N44	0.798600	0.977800	0.427700
O271	O27	0.812800	0.849500	0.417600
O281	O28	0.188900	0.578600	0.103700
O291	O29	0.155000	0.831300	0.074900
C1451	C145	0.671400	0.963600	0.462200
C1461	C146	0.959200	0.995500	0.428000
C1471	C147	0.411900	0.864500	0.319400
N451	N45	0.311200	0.804400	0.277200
O301	O30	0.343800	0.677700	0.287900
C1481	C148	0.073300	0.641800	0.045200
C1491	C149	0.842800	0.910800	0.423400
C1501	C150	0.316000	0.807900	0.351300
C1511	C151	0.826800	0.053400	0.430000
C1521	C152	0.317100	0.725900	0.266200
C1531	C153	0.244800	0.738400	0.003400
H971	H97	0.235200	0.792800	0.006000
H981	H98	0.286800	0.723900	0.020300
H991	H99	0.257800	0.726800	0.976600
C1541	C154	0.464400	0.896000	0.289500
H1001	H100	0.513900	0.905800	0.301100
H1011	H101	0.470000	0.859500	0.268400
H1021	H102	0.443600	0.943400	0.279300
C1551	C155	0.173600	0.694300	0.015000
C1561	C156	0.716700	0.967900	0.428700
C1571	C157	0.928500	0.919600	0.426300
C1581	C158	0.141200	0.683100	0.051000
C1591	C159	0.230200	0.744900	0.163800
C1601	C160	0.285500	0.706400	0.226000
C1611	C161	0.175200	0.782200	0.098100
C1621	C162	0.687500	0.954000	0.353100
H1031	H103	0.696700	0.005600	0.344000
H1041	H104	0.732800	0.923200	0.348700
H1051	H105	0.644900	0.932200	0.338900
C1631	C163	0.912800	0.062500	0.428500
C1641	C164	0.234200	0.900200	0.187600
H1061	H106	0.235000	0.951600	0.195400
C1651	C165	0.208100	0.880600	0.149500
H1071	H107	0.193300	0.919100	0.132000
C1661	C166	0.204400	0.803200	0.138100
C1671	C167	0.669100	0.955400	0.396100
C1681	C168	0.194500	0.645600	0.113500
C1691	C169	0.229800	0.666900	0.152400
C1701	C170	0.282800	0.630000	0.214700
H1081	H108	0.298600	0.591300	0.231900
C1711	C171	0.245000	0.763600	0.362800
H1091	H109	0.227000	0.781400	0.387900
H1101	H110	0.205500	0.771500	0.343400
H1111	H111	0.257100	0.709600	0.364400
C1721	C172	0.975100	0.857800	0.427200
H1121	H112	0.953600	0.808600	0.427200
C1731	C173	0.693900	0.972400	0.503700
H1131	H113	0.657300	0.946200	0.520200
H1141	H114	0.744300	0.950600	0.507600
H1151	H115	0.694900	0.026200	0.510400
C1741	C174	0.344400	0.824700	0.314600
C1751	C175	0.257300	0.765200	0.202000
C1761	C176	0.283800	0.864300	0.253400
C1771	C177	0.258500	0.843800	0.213100
C1781	C178	0.255900	0.611300	0.176500
H1161	H116	0.256200	0.560200	0.168100
C1791	C179	0.944300	0.134400	0.428200
H1171	H117	0.912800	0.177900	0.428700
C1801	C180	0.016300	0.611000	0.074400
H1181	H118	0.040800	0.572600	0.090500
H1191	H119	0.998000	0.652300	0.090700
H1201	H120	0.973600	0.588100	0.060600
Cu161	Cu16	0.007570	0.414870	0.884790
Cu171	Cu17	0.864180	0.341610	0.932890
Cu181	Cu18	0.012180	0.417030	0.978000
N461	N46	0.924500	0.373100	0.858330
N471	N47	0.864500	0.339600	0.877700
N481	N48	0.566700	0.129100	0.506600
N491	N49	0.098500	0.449300	0.950550
N501	N50	0.097200	0.445300	0.909580
N511	N51	0.627800	0.162300	0.487600
N521	N52	0.670900	0.204300	0.589300
O311	O31	0.781200	0.429200	0.765790
O321	O32	0.284900	0.608300	0.933800
N531	N53	0.298600	0.477800	0.927700
O331	O33	0.312800	0.349500	0.917600
O341	O34	0.688900	0.078600	0.603700
O351	O35	0.655000	0.331300	0.574900
C1811	C181	0.171400	0.463600	0.962200
C1821	C182	0.459200	0.495500	0.928000
C1831	C183	0.911900	0.364500	0.819400
N541	N54	0.811200	0.304400	0.777200
O361	O36	0.843800	0.177700	0.787900
C1841	C184	0.573300	0.141800	0.545200
C1851	C185	0.342800	0.410800	0.923400
C1861	C186	0.816000	0.307900	0.851300
C1871	C187	0.326800	0.553400	0.930000
C1881	C188	0.817100	0.225900	0.766200
C1891	C189	0.744800	0.238400	0.503400
H1211	H121	0.735200	0.292800	0.506000
H1221	H122	0.786800	0.223900	0.520300
H1231	H123	0.757800	0.226800	0.476600
C1901	C190	0.964400	0.396000	0.789500
H1241	H124	0.013900	0.405800	0.801100
H1251	H125	0.970000	0.359500	0.768400
H1261	H126	0.943600	0.443400	0.779300
C1911	C191	0.673600	0.194300	0.515000
C1921	C192	0.216700	0.467900	0.928700
C1931	C193	0.428500	0.419600	0.926300
C1941	C194	0.641200	0.183100	0.551000
C1951	C195	0.730200	0.244900	0.663800
C1961	C196	0.785500	0.206400	0.726000
C1971	C197	0.675200	0.282200	0.598100
C1981	C198	0.187500	0.454000	0.853100
H1271	H127	0.196700	0.505600	0.844000
H1281	H128	0.232800	0.423200	0.848700
H1291	H129	0.144900	0.432200	0.838900
C1991	C199	0.412800	0.562500	0.928500
C2001	C200	0.734200	0.400200	0.687600
H1301	H130	0.735000	0.451600	0.695400
C2011	C201	0.708100	0.380600	0.649500
H1311	H131	0.693300	0.419100	0.632000
C2021	C202	0.704400	0.303200	0.638100
C2031	C203	0.169100	0.455400	0.896100
C2041	C204	0.694500	0.145600	0.613500
C2051	C205	0.729800	0.166900	0.652400
C2061	C206	0.782800	0.130000	0.714700
H1321	H132	0.798600	0.091300	0.731900
C2071	C207	0.745000	0.263600	0.862800
H1331	H133	0.727000	0.281400	0.887900
H1341	H134	0.705500	0.271500	0.843400
H1351	H135	0.757100	0.209600	0.864400
C2081	C208	0.475100	0.357800	0.927200
H1361	H136	0.453600	0.308600	0.927200
C2091	C209	0.193900	0.472400	0.003700
H1371	H137	0.157300	0.446200	0.020200
H1381	H138	0.244300	0.450600	0.007600
H1391	H139	0.194900	0.526200	0.010400
C2101	C210	0.844400	0.324700	0.814600
C2111	C211	0.757300	0.265200	0.702000
C2121	C212	0.783800	0.364300	0.753400
C2131	C213	0.758500	0.343800	0.713100
C2141	C214	0.755900	0.111300	0.676500
H1401	H140	0.756200	0.060200	0.668100
C2151	C215	0.444300	0.634400	0.928200
H1411	H141	0.412800	0.677900	0.928700
C2161	C216	0.516300	0.111000	0.574400
H1421	H142	0.540800	0.072600	0.590500
H1431	H143	0.498000	0.152300	0.590700
H1441	H144	0.473600	0.088100	0.560600
Cu191	Cu19	0.492430	0.085130	0.384790
Cu201	Cu20	0.635820	0.158390	0.432890
Cu211	Cu21	0.487820	0.082970	0.478000
N551	N55	0.575500	0.126900	0.358330
N561	N56	0.635500	0.160400	0.377700
N571	N57	0.933300	0.370900	0.006600
N581	N58	0.401500	0.050700	0.450550
N591	N59	0.402800	0.054700	0.409580
N601	N60	0.872200	0.337700	0.987600
N611	N61	0.829100	0.295700	0.089300
O371	O37	0.718800	0.070800	0.265790
O381	O38	0.215100	0.891700	0.433800
N621	N62	0.201400	0.022200	0.427700
O391	O39	0.187200	0.150500	0.417600
O401	O40	0.811100	0.421400	0.103700
O411	O41	0.845000	0.168700	0.074900
C2171	C217	0.328600	0.036400	0.462200
C2181	C218	0.040800	0.004500	0.428000
C2191	C219	0.588100	0.135500	0.319400
N631	N63	0.688800	0.195600	0.277200
O421	O42	0.656200	0.322300	0.287900
C2201	C220	0.926700	0.358200	0.045200
C2211	C221	0.157200	0.089200	0.423400
C2221	C222	0.684000	0.192100	0.351300
C2231	C223	0.173200	0.946600	0.430000
C2241	C224	0.682900	0.274100	0.266200
C2251	C225	0.755200	0.261600	0.003400
H1451	H145	0.764800	0.207200	0.006000
H1461	H146	0.713200	0.276100	0.020300
H1471	H147	0.742200	0.273200	0.976600
C2261	C226	0.535600	0.104000	0.289500
H1481	H148	0.486100	0.094200	0.301100
H1491	H149	0.530000	0.140500	0.268400
H1501	H150	0.556400	0.056600	0.279300
C2271	C227	0.826400	0.305700	0.015000
C2281	C228	0.283300	0.032100	0.428700
C2291	C229	0.071500	0.080400	0.426300
C2301	C230	0.858800	0.316900	0.051000
C2311	C231	0.769800	0.255100	0.163800
C2321	C232	0.714500	0.293600	0.226000
C2331	C233	0.824800	0.217800	0.098100
C2341	C234	0.312500	0.046000	0.353100
H1511	H151	0.303300	0.994400	0.344000
H1521	H152	0.267200	0.076800	0.348700
H1531	H153	0.355100	0.067800	0.338900
C2351	C235	0.087200	0.937500	0.428500
C2361	C236	0.765800	0.099800	0.187600
H1541	H154	0.765000	0.048400	0.195400
C2371	C237	0.791900	0.119400	0.149500
H1551	H155	0.806700	0.080900	0.132000
C2381	C238	0.795600	0.196800	0.138100
C2391	C239	0.330900	0.044600	0.396100
C2401	C240	0.805500	0.354400	0.113500
C2411	C241	0.770200	0.333100	0.152400
C2421	C242	0.717200	0.370000	0.214700
H1561	H156	0.701400	0.408700	0.231900
C2431	C243	0.755000	0.236400	0.362800
H1571	H157	0.773000	0.218600	0.387900
H1581	H158	0.794500	0.228500	0.343400
H1591	H159	0.742900	0.290400	0.364400
C2441	C244	0.024900	0.142200	0.427200
H1601	H160	0.046400	0.191400	0.427200
C2451	C245	0.306100	0.027600	0.503700
H1611	H161	0.342700	0.053800	0.520200
H1621	H162	0.255700	0.049400	0.507600
H1631	H163	0.305100	0.973800	0.510400
C2461	C246	0.655600	0.175300	0.314600
C2471	C247	0.742700	0.234800	0.202000
C2481	C248	0.716200	0.135700	0.253400
C2491	C249	0.741500	0.156200	0.213100
C2501	C250	0.744100	0.388700	0.176500
H1641	H164	0.743800	0.439800	0.168100
C2511	C251	0.055700	0.865600	0.428200
H1651	H165	0.087200	0.822100	0.428700
C2521	C252	0.983700	0.389000	0.074400
H1661	H166	0.959200	0.427400	0.090500
H1671	H167	0.002000	0.347700	0.090700
H1681	H168	0.026400	0.411900	0.060600
Cu221	Cu22	0.992430	0.585130	0.884790
Cu231	Cu23	0.135820	0.658390	0.932890
Cu241	Cu24	0.987820	0.582970	0.978000
N641	N64	0.075500	0.626900	0.858330
N651	N65	0.135500	0.660400	0.877700
N661	N66	0.433300	0.870900	0.506600
N671	N67	0.901500	0.550700	0.950550
N681	N68	0.902800	0.554700	0.909580
N691	N69	0.372200	0.837700	0.487600
N701	N70	0.329100	0.795700	0.589300
O431	O43	0.218800	0.570800	0.765790
O441	O44	0.715100	0.391700	0.933800
N711	N71	0.701400	0.522200	0.927700
O451	O45	0.687200	0.650500	0.917600
O461	O46	0.311100	0.921400	0.603700
O471	O47	0.345000	0.668700	0.574900
C2531	C253	0.828600	0.536400	0.962200
C2541	C254	0.540800	0.504500	0.928000
C2551	C255	0.088100	0.635500	0.819400
N721	N72	0.188800	0.695600	0.777200
O481	O48	0.156200	0.822300	0.787900
C2561	C256	0.426700	0.858200	0.545200
C2571	C257	0.657200	0.589200	0.923400
C2581	C258	0.184000	0.692100	0.851300
C2591	C259	0.673200	0.446600	0.930000
C2601	C260	0.182900	0.774100	0.766200
C2611	C261	0.255200	0.761600	0.503400
H1691	H169	0.264800	0.707200	0.506000
H1701	H170	0.213200	0.776100	0.520300
H1711	H171	0.242200	0.773200	0.476600
C2621	C262	0.035600	0.604000	0.789500
H1721	H172	0.986100	0.594200	0.801100
H1731	H173	0.030000	0.640500	0.768400
H1741	H174	0.056400	0.556600	0.779300
C2631	C263	0.326400	0.805700	0.515000
C2641	C264	0.783300	0.532100	0.928700
C2651	C265	0.571500	0.580400	0.926300
C2661	C266	0.358800	0.816900	0.551000
C2671	C267	0.269800	0.755100	0.663800
C2681	C268	0.214500	0.793600	0.726000
C2691	C269	0.324800	0.717800	0.598100
C2701	C270	0.812500	0.546000	0.853100
H1751	H175	0.803300	0.494400	0.844000
H1761	H176	0.767200	0.576800	0.848700
H1771	H177	0.855100	0.567800	0.838900
C2711	C271	0.587200	0.437500	0.928500
C2721	C272	0.265800	0.599800	0.687600
H1781	H178	0.265000	0.548400	0.695400
C2731	C273	0.291900	0.619400	0.649500
H1791	H179	0.306700	0.580900	0.632000
C2741	C274	0.295600	0.696800	0.638100
C2751	C275	0.830900	0.544600	0.896100
C2761	C276	0.305500	0.854400	0.613500
C2771	C277	0.270200	0.833100	0.652400
C2781	C278	0.217200	0.870000	0.714700
H1801	H180	0.201400	0.908700	0.731900
C2791	C279	0.255000	0.736400	0.862800
H1811	H181	0.273000	0.718600	0.887900
H1821	H182	0.294500	0.728500	0.843400
H1831	H183	0.242900	0.790400	0.864400
C2801	C280	0.524900	0.642200	0.927200
H1841	H184	0.546400	0.691400	0.927200
C2811	C281	0.806100	0.527600	0.003700
H1851	H185	0.842700	0.553800	0.020200
H1861	H186	0.755700	0.549400	0.007600
H1871	H187	0.805100	0.473800	0.010400
C2821	C282	0.155600	0.675300	0.814600
C2831	C283	0.242700	0.734800	0.702000
C2841	C284	0.216200	0.635700	0.753400
C2851	C285	0.241500	0.656200	0.713100
C2861	C286	0.244100	0.888700	0.676500
H1881	H188	0.243800	0.939800	0.668100
C2871	C287	0.555700	0.365600	0.928200
H1891	H189	0.587200	0.322100	0.928700
C2881	C288	0.483700	0.889000	0.574400
H1901	H190	0.459200	0.927400	0.590500
H1911	H191	0.502000	0.847700	0.590700
H1921	H192	0.526400	0.911900	0.560600
