data_GAMTEU_freeONLY_PM
_symmetry_space_group_name_H-M	'P1'
_cell_length_a	8.582000
_cell_length_b	10.956000
_cell_length_c	11.217000
_cell_angle_alpha	64.170000
_cell_angle_beta	79.980000
_cell_angle_gamma	73.431000
_symmetry_Int_Tables_number 1

loop_
_symmetry_equiv_pos_as_xyz
'x,y,z'

loop_
_atom_site_label
_atom_site_type_symbol
_atom_site_fract_x
_atom_site_fract_y
_atom_site_fract_z
Ce11	Ce1	0.748000	0.502660	0.003240
Ce21	Ce2	0.252000	0.497340	0.996760
H11	H1	0.093000	0.109100	0.515900
H21	H2	0.763300	0.068500	0.827400
H31	H3	0.751700	0.448100	0.521000
H41	H4	0.117900	0.328200	0.355600
H51	H5	0.015900	0.466000	0.373900
H61	H6	0.058200	0.874900	0.674500
H71	H7	0.933100	0.856700	0.801200
H81	H8	0.517800	0.411200	0.681900
H91	H9	0.527700	0.266200	0.809100
H101	H10	0.907000	0.890900	0.484100
H111	H11	0.236700	0.931500	0.172600
H121	H12	0.248300	0.551900	0.479000
H131	H13	0.882100	0.671800	0.644400
H141	H14	0.984100	0.534000	0.626100
H151	H15	0.941800	0.125100	0.325500
H161	H16	0.066900	0.143300	0.198800
H171	H17	0.482200	0.588800	0.318100
H181	H18	0.472300	0.733800	0.190900
C11	C1	0.933700	0.291500	0.501800
C21	C2	0.001400	0.150000	0.558600
C31	C3	0.933000	0.066000	0.681600
C41	C4	0.804700	0.125000	0.743000
C51	C5	0.731100	0.268400	0.684500
C61	C6	0.799000	0.350800	0.562200
C71	C7	0.006200	0.380700	0.368400
C81	C8	0.916400	0.425400	0.246000
C91	C9	0.015900	0.908200	0.745700
C101	C10	0.158000	0.874300	0.832300
C111	C11	0.590400	0.336100	0.750500
C121	C12	0.640200	0.397900	0.832600
C131	C13	0.066300	0.708500	0.498200
C141	C14	0.998600	0.850000	0.441400
C151	C15	0.067000	0.934000	0.318400
C161	C16	0.195300	0.875000	0.257000
C171	C17	0.268900	0.731600	0.315500
C181	C18	0.201000	0.649200	0.437800
C191	C19	0.993800	0.619300	0.631600
C201	C20	0.083600	0.574600	0.754000
C211	C21	0.984100	0.091800	0.254300
C221	C22	0.842000	0.125700	0.167700
C231	C23	0.409600	0.663900	0.249500
C241	C24	0.359800	0.602100	0.167400
O11	O1	0.754100	0.447500	0.249400
O21	O2	0.991900	0.456900	0.130600
O31	O3	0.221600	0.743500	0.884100
O41	O4	0.193400	0.960600	0.853900
O51	O5	0.782600	0.415600	0.822500
O61	O6	0.528800	0.443200	0.907700
O71	O7	0.616000	0.716700	0.803900
O81	O8	0.752800	0.727100	0.014900
O91	O9	0.245900	0.552500	0.750600
O101	O10	0.008100	0.543100	0.869400
O111	O11	0.778400	0.256500	0.115900
O121	O12	0.806600	0.039400	0.146100
O131	O13	0.217400	0.584400	0.177500
O141	O14	0.471200	0.556800	0.092300
O151	O15	0.384000	0.283300	0.196100
O161	O16	0.247200	0.272900	0.985100
