data_GARLOD_freeONLY_PM
_symmetry_space_group_name_H-M	'P1'
_cell_length_a	15.858000
_cell_length_b	10.522000
_cell_length_c	20.970000
_cell_angle_alpha	90.000000
_cell_angle_beta	107.520000
_cell_angle_gamma	90.000000
_symmetry_Int_Tables_number 1

loop_
_symmetry_equiv_pos_as_xyz
'x,y,z'

loop_
_atom_site_label
_atom_site_type_symbol
_atom_site_fract_x
_atom_site_fract_y
_atom_site_fract_z
C11	C1	0.748700	0.727900	0.755100
C21	C2	0.696500	0.752700	0.689000
H11	H1	0.706800	0.708100	0.653800
C31	C3	0.629400	0.843700	0.676000
C41	C4	0.613300	0.913800	0.727200
H21	H2	0.568500	0.974200	0.718200
C51	C5	0.666200	0.891200	0.792000
C61	C6	0.731200	0.800200	0.806300
H31	H3	0.764300	0.786000	0.850500
C71	C7	0.654000	0.968300	0.849500
C81	C8	0.576000	0.866500	0.604000
C91	C9	0.864600	0.601500	0.835600
H41	H4	0.879500	0.511900	0.837500
H51	H5	0.829600	0.615800	0.865700
C101	C10	0.949500	0.678500	0.859700
C111	C11	0.965200	0.784800	0.827200
H61	H6	0.923000	0.810500	0.788000
C121	C12	0.041700	0.854300	0.851100
H71	H7	0.051000	0.925700	0.827900
C131	C13	0.104600	0.817800	0.909400
C141	C14	0.091400	0.709800	0.941400
H81	H8	0.134600	0.683000	0.979800
C151	C15	0.015000	0.640500	0.917400
H91	H9	0.006900	0.567400	0.939800
C161	C16	0.187300	0.893000	0.937300
C171	C17	0.839700	0.577700	0.713800
H101	H10	0.900500	0.549600	0.731600
H111	H11	0.837800	0.643200	0.680900
C181	C18	0.783100	0.466100	0.679400
C191	C19	0.705500	0.432100	0.691900
H121	H12	0.687700	0.475500	0.724300
C201	C20	0.653600	0.334000	0.656700
H131	H13	0.601200	0.313000	0.665500
C211	C21	0.678600	0.267900	0.609400
C221	C22	0.619400	0.167900	0.569000
C231	C23	0.758700	0.298100	0.597600
H141	H14	0.777800	0.251100	0.567000
C241	C24	0.809200	0.398400	0.631700
H151	H15	0.861100	0.420500	0.622500
C251	C25	0.381700	0.407000	0.560500
C261	C26	0.394000	0.636600	0.585800
H161	H16	0.406000	0.679900	0.627900
H171	H17	0.336900	0.661600	0.557200
H181	H18	0.438400	0.658400	0.565100
C271	C27	0.400500	0.474000	0.667300
H191	H19	0.407000	0.551400	0.692400
H201	H20	0.450600	0.419900	0.686500
H211	H21	0.347500	0.431100	0.668500
C281	C28	0.325700	0.431400	0.489200
H221	H22	0.329200	0.519600	0.478700
H231	H23	0.265300	0.409500	0.484400
H241	H24	0.347000	0.380500	0.459300
N11	N1	0.811600	0.632700	0.768100
N21	N2	0.395000	0.503300	0.596600
O11	O1	0.241300	0.865600	0.989700
O21	O2	0.195400	0.989800	0.901100
O31	O3	0.605600	0.065700	0.837900
O41	O4	0.502400	0.921400	0.593000
O51	O5	0.608400	0.830700	0.559400
O61	O6	0.381500	0.295800	0.574200
O71	O7	0.688900	0.929200	0.908400
O81	O8	0.540300	0.170100	0.566400
O91	O9	0.652600	0.087400	0.538600
Sm11	Sm1	0.399320	0.079270	0.546080
C291	C29	0.251300	0.727900	0.744900
C301	C30	0.303500	0.752700	0.811000
H251	H25	0.293200	0.708100	0.846200
C311	C31	0.370600	0.843700	0.824000
C321	C32	0.386700	0.913800	0.772800
H261	H26	0.431500	0.974200	0.781800
C331	C33	0.333800	0.891200	0.708000
C341	C34	0.268800	0.800200	0.693700
H271	H27	0.235700	0.786000	0.649500
C351	C35	0.346000	0.968300	0.650500
C361	C36	0.424000	0.866500	0.896000
C371	C37	0.135400	0.601500	0.664400
H281	H28	0.120500	0.511900	0.662500
H291	H29	0.170400	0.615800	0.634300
C381	C38	0.050500	0.678500	0.640300
C391	C39	0.034800	0.784800	0.672800
H301	H30	0.077000	0.810500	0.712000
C401	C40	0.958300	0.854300	0.648900
H311	H31	0.949000	0.925700	0.672100
C411	C41	0.895400	0.817800	0.590600
C421	C42	0.908600	0.709800	0.558600
H321	H32	0.865400	0.683000	0.520200
C431	C43	0.985000	0.640500	0.582600
H331	H33	0.993100	0.567400	0.560200
C441	C44	0.812700	0.893000	0.562700
C451	C45	0.160300	0.577700	0.786200
H341	H34	0.099500	0.549600	0.768400
H351	H35	0.162200	0.643200	0.819100
C461	C46	0.216900	0.466100	0.820600
C471	C47	0.294500	0.432100	0.808100
H361	H36	0.312300	0.475500	0.775700
C481	C48	0.346400	0.334000	0.843300
H371	H37	0.398800	0.313000	0.834500
C491	C49	0.321400	0.267900	0.890600
C501	C50	0.380600	0.167900	0.931000
C511	C51	0.241300	0.298100	0.902400
H381	H38	0.222200	0.251100	0.933000
C521	C52	0.190800	0.398400	0.868300
H391	H39	0.138900	0.420500	0.877500
C531	C53	0.618300	0.407000	0.939500
C541	C54	0.606000	0.636600	0.914200
H401	H40	0.594000	0.679900	0.872100
H411	H41	0.663100	0.661600	0.942800
H421	H42	0.561600	0.658400	0.934900
C551	C55	0.599500	0.474000	0.832700
H431	H43	0.593000	0.551400	0.807600
H441	H44	0.549400	0.419900	0.813500
H451	H45	0.652500	0.431100	0.831500
C561	C56	0.674300	0.431400	0.010800
H461	H46	0.670800	0.519600	0.021300
H471	H47	0.734700	0.409500	0.015600
H481	H48	0.653000	0.380500	0.040700
N31	N3	0.188400	0.632700	0.731900
N41	N4	0.605000	0.503300	0.903400
O101	O10	0.758700	0.865600	0.510300
O111	O11	0.804600	0.989800	0.598900
O121	O12	0.394400	0.065700	0.662100
O131	O13	0.497600	0.921400	0.907000
O141	O14	0.391600	0.830700	0.940600
O151	O15	0.618500	0.295800	0.925800
O161	O16	0.311100	0.929200	0.591600
O171	O17	0.459700	0.170100	0.933600
O181	O18	0.347400	0.087400	0.961400
Sm21	Sm2	0.600680	0.079270	0.953920
C571	C57	0.251300	0.272100	0.244900
C581	C58	0.303500	0.247300	0.311000
H491	H49	0.293200	0.291900	0.346200
C591	C59	0.370600	0.156300	0.324000
C601	C60	0.386700	0.086200	0.272800
H501	H50	0.431500	0.025800	0.281800
C611	C61	0.333800	0.108800	0.208000
C621	C62	0.268800	0.199800	0.193700
H511	H51	0.235700	0.214000	0.149500
C631	C63	0.346000	0.031700	0.150500
C641	C64	0.424000	0.133500	0.396000
C651	C65	0.135400	0.398500	0.164400
H521	H52	0.120500	0.488100	0.162500
H531	H53	0.170400	0.384200	0.134300
C661	C66	0.050500	0.321500	0.140300
C671	C67	0.034800	0.215200	0.172800
H541	H54	0.077000	0.189500	0.212000
C681	C68	0.958300	0.145700	0.148900
H551	H55	0.949000	0.074300	0.172100
C691	C69	0.895400	0.182200	0.090600
C701	C70	0.908600	0.290200	0.058600
H561	H56	0.865400	0.317000	0.020200
C711	C71	0.985000	0.359500	0.082600
H571	H57	0.993100	0.432600	0.060200
C721	C72	0.812700	0.107000	0.062700
C731	C73	0.160300	0.422300	0.286200
H581	H58	0.099500	0.450400	0.268400
H591	H59	0.162200	0.356800	0.319100
C741	C74	0.216900	0.533900	0.320600
C751	C75	0.294500	0.567900	0.308100
H601	H60	0.312300	0.524500	0.275700
C761	C76	0.346400	0.666000	0.343300
H611	H61	0.398800	0.687000	0.334500
C771	C77	0.321400	0.732100	0.390600
C781	C78	0.380600	0.832100	0.431000
C791	C79	0.241300	0.701900	0.402400
H621	H62	0.222200	0.748900	0.433000
C801	C80	0.190800	0.601600	0.368300
H631	H63	0.138900	0.579500	0.377500
C811	C81	0.618300	0.593000	0.439500
C821	C82	0.606000	0.363400	0.414200
H641	H64	0.594000	0.320100	0.372100
H651	H65	0.663100	0.338400	0.442800
H661	H66	0.561600	0.341600	0.434900
C831	C83	0.599500	0.526000	0.332700
H671	H67	0.593000	0.448600	0.307600
H681	H68	0.549400	0.580100	0.313500
H691	H69	0.652500	0.568900	0.331500
C841	C84	0.674300	0.568600	0.510800
H701	H70	0.670800	0.480400	0.521300
H711	H71	0.734700	0.590500	0.515600
H721	H72	0.653000	0.619500	0.540700
N51	N5	0.188400	0.367300	0.231900
N61	N6	0.605000	0.496700	0.403400
O191	O19	0.758700	0.134400	0.010300
O201	O20	0.804600	0.010200	0.098900
O211	O21	0.394400	0.934300	0.162100
O221	O22	0.497600	0.078600	0.407000
O231	O23	0.391600	0.169300	0.440600
O241	O24	0.618500	0.704200	0.425800
O251	O25	0.311100	0.070800	0.091600
O261	O26	0.459700	0.829900	0.433600
O271	O27	0.347400	0.912600	0.461400
Sm31	Sm3	0.600680	0.920730	0.453920
C851	C85	0.748700	0.272100	0.255100
C861	C86	0.696500	0.247300	0.189000
H731	H73	0.706800	0.291900	0.153800
C871	C87	0.629400	0.156300	0.176000
C881	C88	0.613300	0.086200	0.227200
H741	H74	0.568500	0.025800	0.218200
C891	C89	0.666200	0.108800	0.292000
C901	C90	0.731200	0.199800	0.306300
H751	H75	0.764300	0.214000	0.350500
C911	C91	0.654000	0.031700	0.349500
C921	C92	0.576000	0.133500	0.104000
C931	C93	0.864600	0.398500	0.335600
H761	H76	0.879500	0.488100	0.337500
H771	H77	0.829600	0.384200	0.365700
C941	C94	0.949500	0.321500	0.359700
C951	C95	0.965200	0.215200	0.327200
H781	H78	0.923000	0.189500	0.288000
C961	C96	0.041700	0.145700	0.351100
H791	H79	0.051000	0.074300	0.327900
C971	C97	0.104600	0.182200	0.409400
C981	C98	0.091400	0.290200	0.441400
H801	H80	0.134600	0.317000	0.479800
C991	C99	0.015000	0.359500	0.417400
H811	H81	0.006900	0.432600	0.439800
C1001	C100	0.187300	0.107000	0.437300
C1011	C101	0.839700	0.422300	0.213800
H821	H82	0.900500	0.450400	0.231600
H831	H83	0.837800	0.356800	0.180900
C1021	C102	0.783100	0.533900	0.179400
C1031	C103	0.705500	0.567900	0.191900
H841	H84	0.687700	0.524500	0.224300
C1041	C104	0.653600	0.666000	0.156700
H851	H85	0.601200	0.687000	0.165500
C1051	C105	0.678600	0.732100	0.109400
C1061	C106	0.619400	0.832100	0.069000
C1071	C107	0.758700	0.701900	0.097600
H861	H86	0.777800	0.748900	0.067000
C1081	C108	0.809200	0.601600	0.131700
H871	H87	0.861100	0.579500	0.122500
C1091	C109	0.381700	0.593000	0.060500
C1101	C110	0.394000	0.363400	0.085800
H881	H88	0.406000	0.320100	0.127900
H891	H89	0.336900	0.338400	0.057200
H901	H90	0.438400	0.341600	0.065100
C1111	C111	0.400500	0.526000	0.167300
H911	H91	0.407000	0.448600	0.192400
H921	H92	0.450600	0.580100	0.186500
H931	H93	0.347500	0.568900	0.168500
C1121	C112	0.325700	0.568600	0.989200
H941	H94	0.329200	0.480400	0.978700
H951	H95	0.265300	0.590500	0.984400
H961	H96	0.347000	0.619500	0.959300
N71	N7	0.811600	0.367300	0.268100
N81	N8	0.395000	0.496700	0.096600
O281	O28	0.241300	0.134400	0.489700
O291	O29	0.195400	0.010200	0.401100
O301	O30	0.605600	0.934300	0.337900
O311	O31	0.502400	0.078600	0.093000
O321	O32	0.608400	0.169300	0.059400
O331	O33	0.381500	0.704200	0.074200
O341	O34	0.688900	0.070800	0.408400
O351	O35	0.540300	0.829900	0.066400
O361	O36	0.652600	0.912600	0.038600
Sm41	Sm4	0.399320	0.920730	0.046080
