data_GARMAQ_freeONLY_PM
_symmetry_space_group_name_H-M	'P1'
_cell_length_a	15.894000
_cell_length_b	10.491000
_cell_length_c	20.909000
_cell_angle_alpha	90.000000
_cell_angle_beta	107.841000
_cell_angle_gamma	90.000000
_symmetry_Int_Tables_number 1

loop_
_symmetry_equiv_pos_as_xyz
'x,y,z'

loop_
_atom_site_label
_atom_site_type_symbol
_atom_site_fract_x
_atom_site_fract_y
_atom_site_fract_z
C11	C1	0.866100	0.602500	0.836100
H11	H1	0.881500	0.512800	0.837800
H21	H2	0.831400	0.615700	0.866500
C21	C2	0.950400	0.680300	0.860600
C31	C3	0.015800	0.641000	0.917500
H31	H3	0.008000	0.567300	0.939700
C41	C4	0.093200	0.710900	0.941800
H41	H4	0.136800	0.683600	0.980100
C51	C5	0.105900	0.820600	0.909500
C61	C6	0.042300	0.856800	0.851200
H51	H5	0.051100	0.928200	0.827700
C71	C7	0.964900	0.786500	0.827600
H61	H6	0.922000	0.812300	0.788500
C81	C8	0.187600	0.894800	0.936500
C91	C9	0.748200	0.728200	0.755800
C101	C10	0.731500	0.801000	0.807000
H71	H7	0.765500	0.787500	0.851300
C111	C11	0.666000	0.891900	0.792800
C121	C12	0.613000	0.914300	0.727800
H81	H8	0.568000	0.974600	0.718800
C131	C13	0.628800	0.844300	0.676000
C141	C14	0.695600	0.753900	0.689400
H91	H9	0.705900	0.709500	0.654000
C151	C15	0.575000	0.867300	0.603700
C161	C16	0.653100	0.968400	0.850900
C171	C17	0.838800	0.577000	0.714900
H101	H10	0.899200	0.547200	0.733200
H111	H11	0.838200	0.642400	0.682000
C181	C18	0.705200	0.432800	0.692600
H121	H12	0.688300	0.476200	0.725400
C191	C19	0.782000	0.467300	0.679700
C201	C20	0.652800	0.334800	0.657500
H131	H13	0.600700	0.313800	0.666500
C211	C21	0.677300	0.268600	0.609500
C221	C22	0.617900	0.167100	0.568800
C231	C23	0.755500	0.298300	0.597800
H141	H14	0.773900	0.250800	0.567000
C241	C24	0.807400	0.398900	0.631800
H151	H15	0.859100	0.420400	0.622300
C251	C25	0.383100	0.405300	0.562900
C261	C26	0.430000	0.443400	0.511100
H161	H16	0.430400	0.534500	0.507300
H171	H17	0.399000	0.407000	0.468200
H181	H18	0.489600	0.412300	0.525600
C271	C27	0.397800	0.465000	0.664700
H191	H19	0.404900	0.540000	0.692000
H201	H20	0.447000	0.408600	0.683100
H211	H21	0.344000	0.422300	0.664100
C281	C28	0.392800	0.636000	0.585000
H221	H22	0.404500	0.679400	0.627300
H231	H23	0.335800	0.661100	0.555900
H241	H24	0.437300	0.658000	0.564700
N11	N1	0.811900	0.633500	0.768400
N21	N2	0.393800	0.500500	0.595900
O11	O1	0.381700	0.293400	0.572800
O21	O2	0.605100	0.066500	0.838800
O31	O3	0.539300	0.168600	0.567900
O41	O4	0.651000	0.087300	0.538600
O51	O5	0.607200	0.831300	0.559300
O61	O6	0.500900	0.920500	0.592500
O71	O7	0.688400	0.929900	0.909500
O81	O8	0.196400	0.990700	0.899600
O91	O9	0.243300	0.866400	0.989200
Gd11	Gd1	0.399370	0.078180	0.545540
C291	C29	0.133900	0.602500	0.663900
H251	H25	0.118500	0.512800	0.662200
H261	H26	0.168600	0.615700	0.633500
C301	C30	0.049600	0.680300	0.639400
C311	C31	0.984200	0.641000	0.582500
H271	H27	0.992000	0.567300	0.560300
C321	C32	0.906800	0.710900	0.558200
H281	H28	0.863200	0.683600	0.519900
C331	C33	0.894100	0.820600	0.590500
C341	C34	0.957700	0.856800	0.648800
H291	H29	0.948900	0.928200	0.672300
C351	C35	0.035100	0.786500	0.672400
H301	H30	0.078000	0.812300	0.711500
C361	C36	0.812400	0.894800	0.563500
C371	C37	0.251800	0.728200	0.744200
C381	C38	0.268500	0.801000	0.693000
H311	H31	0.234500	0.787500	0.648700
C391	C39	0.334000	0.891900	0.707200
C401	C40	0.387000	0.914300	0.772200
H321	H32	0.432000	0.974600	0.781200
C411	C41	0.371200	0.844300	0.824000
C421	C42	0.304400	0.753900	0.810600
H331	H33	0.294100	0.709500	0.846000
C431	C43	0.425000	0.867300	0.896300
C441	C44	0.346900	0.968400	0.649100
C451	C45	0.161200	0.577000	0.785100
H341	H34	0.100800	0.547200	0.766800
H351	H35	0.161800	0.642400	0.818000
C461	C46	0.294800	0.432800	0.807400
H361	H36	0.311700	0.476200	0.774600
C471	C47	0.218000	0.467300	0.820300
C481	C48	0.347200	0.334800	0.842500
H371	H37	0.399300	0.313800	0.833500
C491	C49	0.322700	0.268600	0.890500
C501	C50	0.382100	0.167100	0.931200
C511	C51	0.244500	0.298300	0.902200
H381	H38	0.226100	0.250800	0.933000
C521	C52	0.192600	0.398900	0.868200
H391	H39	0.140900	0.420400	0.877700
C531	C53	0.616900	0.405300	0.937100
C541	C54	0.570000	0.443400	0.988900
H401	H40	0.569600	0.534500	0.992700
H411	H41	0.601000	0.407000	0.031800
H421	H42	0.510400	0.412300	0.974400
C551	C55	0.602200	0.465000	0.835300
H431	H43	0.595100	0.540000	0.808000
H441	H44	0.553000	0.408600	0.816900
H451	H45	0.656000	0.422300	0.835900
C561	C56	0.607200	0.636000	0.915000
H461	H46	0.595500	0.679400	0.872700
H471	H47	0.664200	0.661100	0.944100
H481	H48	0.562700	0.658000	0.935300
N31	N3	0.188100	0.633500	0.731600
N41	N4	0.606200	0.500500	0.904100
O101	O10	0.618300	0.293400	0.927200
O111	O11	0.394900	0.066500	0.661200
O121	O12	0.460700	0.168600	0.932100
O131	O13	0.349000	0.087300	0.961400
O141	O14	0.392800	0.831300	0.940700
O151	O15	0.499100	0.920500	0.907500
O161	O16	0.311600	0.929900	0.590500
O171	O17	0.803600	0.990700	0.600400
O181	O18	0.756700	0.866400	0.510800
Gd21	Gd2	0.600620	0.078180	0.954460
C571	C57	0.133900	0.397500	0.163900
H491	H49	0.118500	0.487200	0.162200
H501	H50	0.168600	0.384300	0.133500
C581	C58	0.049600	0.319700	0.139400
C591	C59	0.984200	0.359000	0.082500
H511	H51	0.992000	0.432700	0.060300
C601	C60	0.906800	0.289100	0.058200
H521	H52	0.863200	0.316400	0.019900
C611	C61	0.894100	0.179400	0.090500
C621	C62	0.957700	0.143200	0.148800
H531	H53	0.948900	0.071800	0.172300
C631	C63	0.035100	0.213500	0.172400
H541	H54	0.078000	0.187700	0.211500
C641	C64	0.812400	0.105200	0.063500
C651	C65	0.251800	0.271800	0.244200
C661	C66	0.268500	0.199000	0.193000
H551	H55	0.234500	0.212500	0.148700
C671	C67	0.334000	0.108100	0.207200
C681	C68	0.387000	0.085700	0.272200
H561	H56	0.432000	0.025400	0.281200
C691	C69	0.371200	0.155700	0.324000
C701	C70	0.304400	0.246100	0.310600
H571	H57	0.294100	0.290500	0.346000
C711	C71	0.425000	0.132700	0.396300
C721	C72	0.346900	0.031600	0.149100
C731	C73	0.161200	0.423000	0.285100
H581	H58	0.100800	0.452800	0.266800
H591	H59	0.161800	0.357600	0.318000
C741	C74	0.294800	0.567200	0.307400
H601	H60	0.311700	0.523800	0.274600
C751	C75	0.218000	0.532700	0.320300
C761	C76	0.347200	0.665200	0.342500
H611	H61	0.399300	0.686200	0.333500
C771	C77	0.322700	0.731400	0.390500
C781	C78	0.382100	0.832900	0.431200
C791	C79	0.244500	0.701700	0.402200
H621	H62	0.226100	0.749200	0.433000
C801	C80	0.192600	0.601100	0.368200
H631	H63	0.140900	0.579600	0.377700
C811	C81	0.616900	0.594700	0.437100
C821	C82	0.570000	0.556600	0.488900
H641	H64	0.569600	0.465500	0.492700
H651	H65	0.601000	0.593000	0.531800
H661	H66	0.510400	0.587700	0.474400
C831	C83	0.602200	0.535000	0.335300
H671	H67	0.595100	0.460000	0.308000
H681	H68	0.553000	0.591400	0.316900
H691	H69	0.656000	0.577700	0.335900
C841	C84	0.607200	0.364000	0.415000
H701	H70	0.595500	0.320600	0.372700
H711	H71	0.664200	0.338900	0.444100
H721	H72	0.562700	0.342000	0.435300
N51	N5	0.188100	0.366500	0.231600
N61	N6	0.606200	0.499500	0.404100
O191	O19	0.618300	0.706600	0.427200
O201	O20	0.394900	0.933500	0.161200
O211	O21	0.460700	0.831400	0.432100
O221	O22	0.349000	0.912700	0.461400
O231	O23	0.392800	0.168700	0.440700
O241	O24	0.499100	0.079500	0.407500
O251	O25	0.311600	0.070100	0.090500
O261	O26	0.803600	0.009300	0.100400
O271	O27	0.756700	0.133600	0.010800
Gd31	Gd3	0.600620	0.921820	0.454460
C851	C85	0.866100	0.397500	0.336100
H731	H73	0.881500	0.487200	0.337800
H741	H74	0.831400	0.384300	0.366500
C861	C86	0.950400	0.319700	0.360600
C871	C87	0.015800	0.359000	0.417500
H751	H75	0.008000	0.432700	0.439700
C881	C88	0.093200	0.289100	0.441800
H761	H76	0.136800	0.316400	0.480100
C891	C89	0.105900	0.179400	0.409500
C901	C90	0.042300	0.143200	0.351200
H771	H77	0.051100	0.071800	0.327700
C911	C91	0.964900	0.213500	0.327600
H781	H78	0.922000	0.187700	0.288500
C921	C92	0.187600	0.105200	0.436500
C931	C93	0.748200	0.271800	0.255800
C941	C94	0.731500	0.199000	0.307000
H791	H79	0.765500	0.212500	0.351300
C951	C95	0.666000	0.108100	0.292800
C961	C96	0.613000	0.085700	0.227800
H801	H80	0.568000	0.025400	0.218800
C971	C97	0.628800	0.155700	0.176000
C981	C98	0.695600	0.246100	0.189400
H811	H81	0.705900	0.290500	0.154000
C991	C99	0.575000	0.132700	0.103700
C1001	C100	0.653100	0.031600	0.350900
C1011	C101	0.838800	0.423000	0.214900
H821	H82	0.899200	0.452800	0.233200
H831	H83	0.838200	0.357600	0.182000
C1021	C102	0.705200	0.567200	0.192600
H841	H84	0.688300	0.523800	0.225400
C1031	C103	0.782000	0.532700	0.179700
C1041	C104	0.652800	0.665200	0.157500
H851	H85	0.600700	0.686200	0.166500
C1051	C105	0.677300	0.731400	0.109500
C1061	C106	0.617900	0.832900	0.068800
C1071	C107	0.755500	0.701700	0.097800
H861	H86	0.773900	0.749200	0.067000
C1081	C108	0.807400	0.601100	0.131800
H871	H87	0.859100	0.579600	0.122300
C1091	C109	0.383100	0.594700	0.062900
C1101	C110	0.430000	0.556600	0.011100
H881	H88	0.430400	0.465500	0.007300
H891	H89	0.399000	0.593000	0.968200
H901	H90	0.489600	0.587700	0.025600
C1111	C111	0.397800	0.535000	0.164700
H911	H91	0.404900	0.460000	0.192000
H921	H92	0.447000	0.591400	0.183100
H931	H93	0.344000	0.577700	0.164100
C1121	C112	0.392800	0.364000	0.085000
H941	H94	0.404500	0.320600	0.127300
H951	H95	0.335800	0.338900	0.055900
H961	H96	0.437300	0.342000	0.064700
N71	N7	0.811900	0.366500	0.268400
N81	N8	0.393800	0.499500	0.095900
O281	O28	0.381700	0.706600	0.072800
O291	O29	0.605100	0.933500	0.338800
O301	O30	0.539300	0.831400	0.067900
O311	O31	0.651000	0.912700	0.038600
O321	O32	0.607200	0.168700	0.059300
O331	O33	0.500900	0.079500	0.092500
O341	O34	0.688400	0.070100	0.409500
O351	O35	0.196400	0.009300	0.399600
O361	O36	0.243300	0.133600	0.489200
Gd41	Gd4	0.399370	0.921820	0.045540
