data_GAVYAG_freeONLY_PM
_symmetry_space_group_name_H-M	'P1'
_cell_length_a	10.370000
_cell_length_b	10.025000
_cell_length_c	19.575000
_cell_angle_alpha	90.000000
_cell_angle_beta	92.130000
_cell_angle_gamma	90.000000
_symmetry_Int_Tables_number 1

loop_
_symmetry_equiv_pos_as_xyz
'x,y,z'

loop_
_atom_site_label
_atom_site_type_symbol
_atom_site_fract_x
_atom_site_fract_y
_atom_site_fract_z
Zn11	Zn1	0.991330	0.741990	0.341040
O11	O1	0.934000	0.635800	0.446300
O21	O2	0.803400	0.681600	0.360200
O31	O3	0.046900	0.937000	0.434800
O41	O4	0.164900	0.793300	0.379100
N11	N1	0.168200	0.551700	0.271200
N21	N2	0.039700	0.581700	0.282700
N31	N3	0.841300	0.481400	0.251600
H11	H1	0.798240	0.543580	0.270590
H21	H2	0.801470	0.416210	0.231510
N41	N4	0.048400	0.399700	0.221700
N51	N5	0.171000	0.445100	0.233900
C11	C1	0.484400	0.538200	0.471100
C21	C2	0.505800	0.964300	0.468400
C31	C3	0.714400	0.570100	0.456300
C41	C4	0.588200	0.590800	0.432900
H31	H3	0.571040	0.638250	0.392730
C51	C5	0.274800	0.938700	0.459500
C61	C6	0.631600	0.944400	0.443400
H41	H4	0.641260	0.901660	0.401770
C71	C7	0.392600	0.916000	0.434800
H51	H5	0.399320	0.867430	0.394590
C81	C8	0.972500	0.486000	0.253200
C91	C9	0.262500	0.012800	0.520200
H61	H6	0.180820	0.032570	0.535380
C101	C10	0.355700	0.558800	0.448700
H71	H7	0.337410	0.608400	0.409360
C111	C11	0.823000	0.633700	0.419400
C121	C12	0.155000	0.888600	0.421900
C131	C13	0.744200	0.494700	0.515000
H81	H8	0.829660	0.480830	0.529360
Zn21	Zn2	0.008670	0.241990	0.158960
O51	O5	0.066000	0.135800	0.053700
O61	O6	0.196600	0.181600	0.139800
O71	O7	0.953100	0.437000	0.065200
O81	O8	0.835100	0.293300	0.120900
N61	N6	0.831800	0.051700	0.228800
N71	N7	0.960300	0.081700	0.217300
N81	N8	0.158700	0.981400	0.248400
H91	H9	0.201760	0.043580	0.229410
H101	H10	0.198530	0.916210	0.268490
N91	N9	0.951600	0.899700	0.278300
N101	N10	0.829000	0.945100	0.266100
C141	C14	0.515600	0.038200	0.028900
C151	C15	0.494200	0.464300	0.031600
C161	C16	0.285600	0.070100	0.043700
C171	C17	0.411800	0.090800	0.067100
H111	H11	0.428960	0.138250	0.107270
C181	C18	0.725200	0.438700	0.040500
C191	C19	0.368400	0.444400	0.056600
H121	H12	0.358740	0.401660	0.098230
C201	C20	0.607400	0.416000	0.065200
H131	H13	0.600680	0.367430	0.105410
C211	C21	0.027500	0.986000	0.246800
C221	C22	0.737500	0.512800	0.979800
H141	H14	0.819180	0.532570	0.964620
C231	C23	0.644300	0.058800	0.051300
H151	H15	0.662590	0.108400	0.090640
C241	C24	0.177000	0.133700	0.080600
C251	C25	0.845000	0.388600	0.078100
C261	C26	0.255800	0.994700	0.985000
H161	H16	0.170340	0.980830	0.970640
Zn31	Zn3	0.008670	0.258010	0.658960
O91	O9	0.066000	0.364200	0.553700
O101	O10	0.196600	0.318400	0.639800
O111	O11	0.953100	0.063000	0.565200
O121	O12	0.835100	0.206700	0.620900
N111	N11	0.831800	0.448300	0.728800
N121	N12	0.960300	0.418300	0.717300
N131	N13	0.158700	0.518600	0.748400
H171	H17	0.201760	0.456420	0.729410
H181	H18	0.198530	0.583790	0.768490
N141	N14	0.951600	0.600300	0.778300
N151	N15	0.829000	0.554900	0.766100
C271	C27	0.515600	0.461800	0.528900
C281	C28	0.494200	0.035700	0.531600
C291	C29	0.285600	0.429900	0.543700
C301	C30	0.411800	0.409200	0.567100
H191	H19	0.428960	0.361750	0.607270
C311	C31	0.725200	0.061300	0.540500
C321	C32	0.368400	0.055600	0.556600
H201	H20	0.358740	0.098340	0.598230
C331	C33	0.607400	0.084000	0.565200
H211	H21	0.600680	0.132570	0.605410
C341	C34	0.027500	0.514000	0.746800
C351	C35	0.737500	0.987200	0.479800
H221	H22	0.819180	0.967430	0.464620
C361	C36	0.644300	0.441200	0.551300
H231	H23	0.662590	0.391600	0.590640
C371	C37	0.177000	0.366300	0.580600
C381	C38	0.845000	0.111400	0.578100
C391	C39	0.255800	0.505300	0.485000
H241	H24	0.170340	0.519170	0.470640
Zn41	Zn4	0.991330	0.758010	0.841040
O131	O13	0.934000	0.864200	0.946300
O141	O14	0.803400	0.818400	0.860200
O151	O15	0.046900	0.563000	0.934800
O161	O16	0.164900	0.706700	0.879100
N161	N16	0.168200	0.948300	0.771200
N171	N17	0.039700	0.918300	0.782700
N181	N18	0.841300	0.018600	0.751600
H251	H25	0.798240	0.956420	0.770590
H261	H26	0.801470	0.083790	0.731510
N191	N19	0.048400	0.100300	0.721700
N201	N20	0.171000	0.054900	0.733900
C401	C40	0.484400	0.961800	0.971100
C411	C41	0.505800	0.535700	0.968400
C421	C42	0.714400	0.929900	0.956300
C431	C43	0.588200	0.909200	0.932900
H271	H27	0.571040	0.861750	0.892730
C441	C44	0.274800	0.561300	0.959500
C451	C45	0.631600	0.555600	0.943400
H281	H28	0.641260	0.598340	0.901770
C461	C46	0.392600	0.584000	0.934800
H291	H29	0.399320	0.632570	0.894590
C471	C47	0.972500	0.014000	0.753200
C481	C48	0.262500	0.487200	0.020200
H301	H30	0.180820	0.467430	0.035380
C491	C49	0.355700	0.941200	0.948700
H311	H31	0.337410	0.891600	0.909360
C501	C50	0.823000	0.866300	0.919400
C511	C51	0.155000	0.611400	0.921900
C521	C52	0.744200	0.005300	0.015000
H321	H32	0.829660	0.019170	0.029360
