data_GAWKEW_freeONLY_PM
_symmetry_space_group_name_H-M	'P1'
_cell_length_a	14.907000
_cell_length_b	18.432000
_cell_length_c	33.284000
_cell_angle_alpha	97.890000
_cell_angle_beta	90.000000
_cell_angle_gamma	90.000000
_symmetry_Int_Tables_number 1

loop_
_symmetry_equiv_pos_as_xyz
'x,y,z'

loop_
_atom_site_label
_atom_site_type_symbol
_atom_site_fract_x
_atom_site_fract_y
_atom_site_fract_z
Cu11	Cu1	0.052470	0.480590	0.612900
Cu21	Cu2	0.138610	0.316220	0.623940
Cu31	Cu3	0.744400	0.047980	0.773380
Cu41	Cu4	0.303100	0.948140	0.628830
Cu51	Cu5	0.965910	0.770620	0.792610
Cu61	Cu6	0.211650	0.795290	0.658050
Cu71	Cu7	0.262340	0.471380	0.649840
Cu81	Cu8	0.809400	0.254870	0.520400
Cu91	Cu9	0.552470	0.519410	0.887100
Cu101	Cu10	0.638610	0.683780	0.876060
Cu111	Cu11	0.244400	0.952020	0.726620
Cu121	Cu12	0.803100	0.051860	0.871170
Cu131	Cu13	0.465910	0.229380	0.707390
Cu141	Cu14	0.711650	0.204710	0.841950
Cu151	Cu15	0.762340	0.528620	0.850160
Cu161	Cu16	0.309400	0.745130	0.979600
Cu171	Cu17	0.947530	0.519410	0.387100
Cu181	Cu18	0.861390	0.683780	0.376060
Cu191	Cu19	0.255600	0.952020	0.226620
Cu201	Cu20	0.696900	0.051860	0.371170
Cu211	Cu21	0.034090	0.229380	0.207390
Cu221	Cu22	0.788350	0.204710	0.341950
Cu231	Cu23	0.737660	0.528620	0.350160
Cu241	Cu24	0.190600	0.745130	0.479600
Cu251	Cu25	0.447530	0.480590	0.112900
Cu261	Cu26	0.361390	0.316220	0.123940
Cu271	Cu27	0.755600	0.047980	0.273380
Cu281	Cu28	0.196900	0.948140	0.128830
Cu291	Cu29	0.534090	0.770620	0.292610
Cu301	Cu30	0.288350	0.795290	0.158050
Cu311	Cu31	0.237660	0.471380	0.149840
Cu321	Cu32	0.690600	0.254870	0.020400
P11	P1	0.737300	0.834000	0.578400
P21	P2	0.661700	0.664900	0.631990
P31	P3	0.237300	0.166000	0.921600
P41	P4	0.161700	0.335100	0.868010
P51	P5	0.262700	0.166000	0.421600
P61	P6	0.338300	0.335100	0.368010
P71	P7	0.762700	0.834000	0.078400
P81	P8	0.838300	0.664900	0.131990
H11	H1	0.061300	0.663200	0.619700
H21	H2	0.905700	0.900000	0.856400
H31	H3	0.870600	0.410800	0.570400
H41	H4	0.269300	0.214200	0.667200
H51	H5	0.848100	0.890800	0.743900
H61	H6	0.578800	0.276400	0.784900
H71	H7	0.295200	0.644700	0.667300
H81	H8	0.594300	0.092800	0.711600
H91	H9	0.810500	0.286500	0.430400
H101	H10	0.987500	0.221300	0.569000
H111	H11	0.697400	0.118200	0.466700
H121	H12	0.424600	0.383100	0.686000
H131	H13	0.561300	0.336800	0.880300
H141	H14	0.405700	0.100000	0.643600
H151	H15	0.370600	0.589200	0.929600
H161	H16	0.769300	0.785800	0.832800
H171	H17	0.348100	0.109200	0.756100
H181	H18	0.078800	0.723600	0.715100
H191	H19	0.795200	0.355300	0.832700
H201	H20	0.094300	0.907200	0.788400
H211	H21	0.310500	0.713500	0.069600
H221	H22	0.487500	0.778700	0.931000
H231	H23	0.197400	0.881800	0.033300
H241	H24	0.924600	0.616900	0.814000
H251	H25	0.938700	0.336800	0.380300
H261	H26	0.094300	0.100000	0.143600
H271	H27	0.129400	0.589200	0.429600
H281	H28	0.730700	0.785800	0.332800
H291	H29	0.151900	0.109200	0.256100
H301	H30	0.421200	0.723600	0.215100
H311	H31	0.704800	0.355300	0.332700
H321	H32	0.405700	0.907200	0.288400
H331	H33	0.189500	0.713500	0.569600
H341	H34	0.012500	0.778700	0.431000
H351	H35	0.302600	0.881800	0.533300
H361	H36	0.575400	0.616900	0.314000
H371	H37	0.438700	0.663200	0.119700
H381	H38	0.594300	0.900000	0.356400
H391	H39	0.629400	0.410800	0.070400
H401	H40	0.230700	0.214200	0.167200
H411	H41	0.651900	0.890800	0.243900
H421	H42	0.921200	0.276400	0.284900
H431	H43	0.204800	0.644700	0.167300
H441	H44	0.905700	0.092800	0.211600
H451	H45	0.689500	0.286500	0.930400
H461	H46	0.512500	0.221300	0.069000
H471	H47	0.802600	0.118200	0.966700
H481	H48	0.075400	0.383100	0.186000
W11	W1	0.860750	0.898030	0.499600
W21	W2	0.666060	0.581220	0.722640
W31	W3	0.844030	0.005970	0.590240
W41	W4	0.485090	0.556160	0.659740
W51	W5	0.941470	0.747060	0.552480
W61	W6	0.682260	0.472960	0.631130
W71	W7	0.927680	0.853360	0.642190
W81	W8	0.534780	0.916150	0.610550
W91	W9	0.744110	0.716790	0.486010
W101	W10	0.867550	0.589240	0.603760
W111	W11	0.662500	0.979660	0.527770
W121	W12	0.711320	0.940940	0.672590
W131	W13	0.465740	0.757570	0.662190
W141	W14	0.855310	0.694100	0.693940
W151	W15	0.549950	0.798700	0.513660
W161	W16	0.641720	0.781870	0.724600
W171	W17	0.481280	0.640110	0.564330
W181	W18	0.673950	0.558020	0.537160
W191	W19	0.360750	0.101970	0.000400
W201	W20	0.166060	0.418780	0.777360
W211	W21	0.344030	0.994030	0.909760
W221	W22	0.985090	0.443840	0.840260
W231	W23	0.441470	0.252940	0.947520
W241	W24	0.182260	0.527040	0.868870
W251	W25	0.427680	0.146640	0.857810
W261	W26	0.034780	0.083850	0.889450
W271	W27	0.244110	0.283210	0.013990
W281	W28	0.367550	0.410760	0.896240
W291	W29	0.162500	0.020340	0.972230
W301	W30	0.211320	0.059060	0.827410
W311	W31	0.965740	0.242430	0.837810
W321	W32	0.355310	0.305900	0.806060
W331	W33	0.049950	0.201300	0.986340
W341	W34	0.141720	0.218130	0.775400
W351	W35	0.981280	0.359890	0.935670
W361	W36	0.173950	0.441980	0.962840
W371	W37	0.139250	0.101970	0.500400
W381	W38	0.333940	0.418780	0.277360
W391	W39	0.155970	0.994030	0.409760
W401	W40	0.514910	0.443840	0.340260
W411	W41	0.058530	0.252940	0.447520
W421	W42	0.317740	0.527040	0.368870
W431	W43	0.072320	0.146640	0.357810
W441	W44	0.465220	0.083850	0.389450
W451	W45	0.255890	0.283210	0.513990
W461	W46	0.132450	0.410760	0.396240
W471	W47	0.337500	0.020340	0.472230
W481	W48	0.288680	0.059060	0.327410
W491	W49	0.534260	0.242430	0.337810
W501	W50	0.144690	0.305900	0.306060
W511	W51	0.450050	0.201300	0.486340
W521	W52	0.358280	0.218130	0.275400
W531	W53	0.518720	0.359890	0.435670
W541	W54	0.326050	0.441980	0.462840
W551	W55	0.639250	0.898030	0.999600
W561	W56	0.833940	0.581220	0.222640
W571	W57	0.655970	0.005970	0.090240
W581	W58	0.014910	0.556160	0.159740
W591	W59	0.558530	0.747060	0.052480
W601	W60	0.817740	0.472960	0.131130
W611	W61	0.572320	0.853360	0.142190
W621	W62	0.965220	0.916150	0.110550
W631	W63	0.755890	0.716790	0.986010
W641	W64	0.632450	0.589240	0.103760
W651	W65	0.837500	0.979660	0.027770
W661	W66	0.788680	0.940940	0.172590
W671	W67	0.034260	0.757570	0.162190
W681	W68	0.644690	0.694100	0.193940
W691	W69	0.950050	0.798700	0.013660
W701	W70	0.858280	0.781870	0.224600
W711	W71	0.018720	0.640110	0.064330
W721	W72	0.826050	0.558020	0.037160
C11	C1	0.111300	0.643400	0.630800
C21	C2	0.883000	0.910400	0.831900
C31	C3	0.910900	0.374400	0.575200
C41	C4	0.293100	0.260800	0.667200
C51	C5	0.850100	0.906100	0.771700
C61	C6	0.597200	0.230200	0.772900
C71	C7	0.238400	0.634000	0.656600
C81	C8	0.604600	0.130100	0.732900
C91	C9	0.782100	0.241800	0.431000
C101	C10	0.973900	0.270900	0.574100
C111	C11	0.721100	0.151000	0.450600
C121	C12	0.376500	0.352800	0.677500
C131	C13	0.611300	0.356600	0.869200
C141	C14	0.383000	0.089600	0.668100
C151	C15	0.410900	0.625600	0.924800
C161	C16	0.793100	0.739200	0.832800
C171	C17	0.350100	0.093900	0.728300
C181	C18	0.097200	0.769800	0.727100
C191	C19	0.738400	0.366000	0.843400
C201	C20	0.104600	0.869900	0.767100
C211	C21	0.282100	0.758200	0.069000
C221	C22	0.473900	0.729100	0.925900
C231	C23	0.221100	0.849000	0.049400
C241	C24	0.876500	0.647200	0.822500
C251	C25	0.888700	0.356600	0.369200
C261	C26	0.117000	0.089600	0.168100
C271	C27	0.089100	0.625600	0.424800
C281	C28	0.706900	0.739200	0.332800
C291	C29	0.149900	0.093900	0.228300
C301	C30	0.402800	0.769800	0.227100
C311	C31	0.761600	0.366000	0.343400
C321	C32	0.395400	0.869900	0.267100
C331	C33	0.217900	0.758200	0.569000
C341	C34	0.026100	0.729100	0.425900
C351	C35	0.278900	0.849000	0.549400
C361	C36	0.623500	0.647200	0.322500
C371	C37	0.388700	0.643400	0.130800
C381	C38	0.617000	0.910400	0.331900
C391	C39	0.589100	0.374400	0.075200
C401	C40	0.206900	0.260800	0.167200
C411	C41	0.649900	0.906100	0.271700
C421	C42	0.902800	0.230200	0.272900
C431	C43	0.261600	0.634000	0.156600
C441	C44	0.895400	0.130100	0.232900
C451	C45	0.717900	0.241800	0.931000
C461	C46	0.526100	0.270900	0.074100
C471	C47	0.778900	0.151000	0.950600
C481	C48	0.123500	0.352800	0.177500
N11	N1	0.836300	0.970100	0.827800
N21	N2	0.122700	0.574400	0.631400
N31	N3	0.664600	0.126700	0.762100
N41	N4	0.893100	0.868600	0.798100
N51	N5	0.660600	0.192800	0.787700
N61	N6	0.208300	0.567800	0.648200
N71	N7	0.374100	0.283400	0.681400
N81	N8	0.252700	0.316100	0.653100
N91	N9	0.026600	0.320500	0.594600
N101	N10	0.758800	0.215800	0.465900
N111	N11	0.721400	0.139300	0.411800
N121	N12	0.761100	0.198500	0.399500
N131	N13	0.898300	0.300600	0.561400
N141	N14	0.304000	0.376100	0.660200
N151	N15	0.181600	0.684700	0.648600
N161	N16	0.984000	0.387100	0.595000
N171	N17	0.560500	0.194200	0.737900
N181	N18	0.811900	0.965800	0.789200
N191	N19	0.336300	0.029900	0.672200
N201	N20	0.622700	0.425600	0.868600
N211	N21	0.164600	0.873300	0.737900
N221	N22	0.393100	0.131400	0.701900
N231	N23	0.160600	0.807200	0.712300
N241	N24	0.708300	0.432200	0.851800
N251	N25	0.874100	0.716600	0.818600
N261	N26	0.752700	0.683900	0.846900
N271	N27	0.526600	0.679500	0.905400
N281	N28	0.258800	0.784200	0.034100
N291	N29	0.221400	0.860700	0.088200
N301	N30	0.261100	0.801500	0.100500
N311	N31	0.398300	0.699400	0.938600
N321	N32	0.804000	0.623900	0.839800
N331	N33	0.681600	0.315300	0.851400
N341	N34	0.484000	0.612900	0.905000
N351	N35	0.060500	0.805800	0.762100
N361	N36	0.311900	0.034200	0.710800
N371	N37	0.163700	0.029900	0.172200
N381	N38	0.877300	0.425600	0.368600
N391	N39	0.335400	0.873300	0.237900
N401	N40	0.106900	0.131400	0.201900
N411	N41	0.339400	0.807200	0.212300
N421	N42	0.791700	0.432200	0.351800
N431	N43	0.625900	0.716600	0.318600
N441	N44	0.747300	0.683900	0.346900
N451	N45	0.973400	0.679500	0.405400
N461	N46	0.241200	0.784200	0.534100
N471	N47	0.278600	0.860700	0.588200
N481	N48	0.238900	0.801500	0.600500
N491	N49	0.101700	0.699400	0.438600
N501	N50	0.696000	0.623900	0.339800
N511	N51	0.818400	0.315300	0.351400
N521	N52	0.016000	0.612900	0.405000
N531	N53	0.439500	0.805800	0.262100
N541	N54	0.188100	0.034200	0.210800
N551	N55	0.663700	0.970100	0.327800
N561	N56	0.377300	0.574400	0.131400
N571	N57	0.835400	0.126700	0.262100
N581	N58	0.606900	0.868600	0.298100
N591	N59	0.839400	0.192800	0.287700
N601	N60	0.291700	0.567800	0.148200
N611	N61	0.125900	0.283400	0.181400
N621	N62	0.247300	0.316100	0.153100
N631	N63	0.473400	0.320500	0.094600
N641	N64	0.741200	0.215800	0.965900
N651	N65	0.778600	0.139300	0.911800
N661	N66	0.738900	0.198500	0.899500
N671	N67	0.601700	0.300600	0.061400
N681	N68	0.196000	0.376100	0.160200
N691	N69	0.318400	0.684700	0.148600
N701	N70	0.516000	0.387100	0.095000
N711	N71	0.939500	0.194200	0.237900
N721	N72	0.688100	0.965800	0.289200
O11	O1	0.777800	0.674700	0.438900
O21	O2	0.737200	0.096300	0.831900
O31	O3	0.925500	0.909500	0.458300
O41	O4	0.139900	0.426000	0.641400
O51	O5	0.010400	0.890300	0.674300
O61	O6	0.856900	0.155400	0.524900
O71	O7	0.916700	0.936300	0.611700
O81	O8	0.697300	0.241500	0.563000
O91	O9	0.678400	0.556900	0.769800
O101	O10	0.763100	0.354800	0.512700
O111	O11	0.373300	0.626600	0.545700
O121	O12	0.461200	0.656900	0.675300
O131	O13	0.146900	0.206900	0.606900
O141	O14	0.779700	0.617800	0.711800
O151	O15	0.695300	0.491800	0.690900
O161	O16	0.616100	0.732400	0.656300
O171	O17	0.229000	0.016900	0.595600
O181	O18	0.457700	0.807100	0.483400
O191	O19	0.766100	0.669600	0.635100
O201	O20	0.459700	0.714900	0.607800
O211	O21	0.765300	0.901800	0.558400
O221	O22	0.055000	0.710700	0.817700
O231	O23	0.432100	0.962300	0.610200
O241	O24	0.541400	0.555700	0.712300
O251	O25	0.929100	0.700700	0.733600
O261	O26	0.708700	0.380900	0.621200
O271	O27	0.730700	0.004100	0.715900
O281	O28	0.498800	0.847300	0.645700
O291	O29	0.675200	0.863100	0.613300
O301	O30	0.596100	0.974900	0.575500
O311	O31	0.602100	0.043100	0.502500
O321	O32	0.696000	0.636100	0.506300
O331	O33	0.659900	0.869400	0.700000
O341	O34	0.913700	0.620900	0.658600
O351	O35	0.908100	0.766900	0.664800
O361	O36	0.795600	0.517100	0.627000
O371	O37	0.931100	0.833600	0.528900
O381	O38	0.647500	0.823500	0.775200
O391	O39	0.595400	0.971600	0.656900
O401	O40	0.851900	0.707900	0.517400
O411	O41	0.520200	0.708200	0.531200
O421	O42	0.765700	0.760000	0.712900
O431	O43	0.791600	0.575800	0.559700
O441	O44	0.546300	0.566400	0.531600
O451	O45	0.994800	0.803800	0.599200
O461	O46	0.824000	0.802000	0.594400
O471	O47	0.628000	0.681700	0.733700
O481	O48	0.760600	0.959700	0.489300
O491	O49	0.917800	0.672400	0.585300
O501	O50	0.748800	0.043500	0.559800
O511	O51	0.516100	0.789200	0.715300
O521	O52	0.655000	0.496300	0.579500
O531	O53	0.037100	0.711200	0.527900
O541	O54	0.554200	0.470700	0.641600
O551	O55	0.629000	0.651700	0.588300
O561	O56	0.822700	0.890600	0.669100
O571	O57	0.902000	0.978200	0.538400
O581	O58	0.900900	0.087800	0.606400
O591	O59	0.689000	0.779500	0.546300
O601	O60	0.627300	0.749300	0.473300
O611	O61	0.763800	0.997200	0.632700
O621	O62	0.516300	0.846400	0.565600
O631	O63	0.959000	0.530900	0.587200
O641	O64	0.379800	0.517100	0.668300
O651	O65	0.700500	0.489100	0.498600
O661	O66	0.472700	0.574600	0.605300
O671	O67	0.609200	0.891100	0.506800
O681	O68	0.354500	0.777400	0.673400
O691	O69	0.633500	0.595800	0.653000
O701	O70	0.793400	0.814200	0.481100
O711	O71	0.277800	0.325300	0.061100
O721	O72	0.237200	0.903700	0.668100
O731	O73	0.425500	0.090500	0.041700
O741	O74	0.639900	0.574000	0.858600
O751	O75	0.510400	0.109700	0.825700
O761	O76	0.356900	0.844600	0.975100
O771	O77	0.416700	0.063700	0.888300
O781	O78	0.197300	0.758500	0.937000
O791	O79	0.178400	0.443100	0.730200
O801	O80	0.263100	0.645200	0.987300
O811	O81	0.873300	0.373400	0.954300
O821	O82	0.961200	0.343100	0.824700
O831	O83	0.646900	0.793100	0.893100
O841	O84	0.279700	0.382200	0.788200
O851	O85	0.195300	0.508200	0.809100
O861	O86	0.116100	0.267600	0.843700
O871	O87	0.729000	0.983100	0.904400
O881	O88	0.957700	0.192900	0.016600
O891	O89	0.266100	0.330400	0.864900
O901	O90	0.959700	0.285100	0.892200
O911	O91	0.265300	0.098200	0.941600
O921	O92	0.555000	0.289300	0.682300
O931	O93	0.932100	0.037700	0.889800
O941	O94	0.041400	0.444300	0.787700
O951	O95	0.429100	0.299300	0.766400
O961	O96	0.208700	0.619100	0.878800
O971	O97	0.230700	0.995900	0.784100
O981	O98	0.998800	0.152700	0.854300
O991	O99	0.175200	0.136900	0.886700
O1001	O100	0.096100	0.025100	0.924500
O1011	O101	0.102100	0.956900	0.997500
O1021	O102	0.196000	0.363900	0.993700
O1031	O103	0.159900	0.130600	0.800000
O1041	O104	0.413700	0.379100	0.841400
O1051	O105	0.408100	0.233100	0.835200
O1061	O106	0.295600	0.482900	0.873000
O1071	O107	0.431100	0.166400	0.971100
O1081	O108	0.147500	0.176500	0.724800
O1091	O109	0.095400	0.028400	0.843100
O1101	O110	0.351900	0.292100	0.982600
O1111	O111	0.020200	0.291800	0.968800
O1121	O112	0.265700	0.240000	0.787100
O1131	O113	0.291600	0.424200	0.940300
O1141	O114	0.046300	0.433600	0.968400
O1151	O115	0.494800	0.196200	0.900800
O1161	O116	0.324000	0.198000	0.905600
O1171	O117	0.128000	0.318300	0.766300
O1181	O118	0.260600	0.040300	0.010700
O1191	O119	0.417800	0.327600	0.914700
O1201	O120	0.248800	0.956500	0.940200
O1211	O121	0.016100	0.210800	0.784700
O1221	O122	0.155000	0.503700	0.920500
O1231	O123	0.537100	0.288800	0.972100
O1241	O124	0.054200	0.529300	0.858400
O1251	O125	0.129000	0.348300	0.911700
O1261	O126	0.322700	0.109400	0.830900
O1271	O127	0.402000	0.021800	0.961600
O1281	O128	0.400900	0.912200	0.893600
O1291	O129	0.189000	0.220500	0.953700
O1301	O130	0.127300	0.250700	0.026700
O1311	O131	0.263800	0.002800	0.867300
O1321	O132	0.016300	0.153600	0.934400
O1331	O133	0.459000	0.469100	0.912800
O1341	O134	0.879800	0.482900	0.831700
O1351	O135	0.200500	0.510900	0.001400
O1361	O136	0.972700	0.425400	0.894700
O1371	O137	0.109200	0.108900	0.993200
O1381	O138	0.854500	0.222600	0.826600
O1391	O139	0.133500	0.404200	0.847000
O1401	O140	0.293400	0.185800	0.018900
O1411	O141	0.222200	0.325300	0.561100
O1421	O142	0.262800	0.903700	0.168100
O1431	O143	0.074500	0.090500	0.541700
O1441	O144	0.860100	0.574000	0.358600
O1451	O145	0.989600	0.109700	0.325700
O1461	O146	0.143100	0.844600	0.475100
O1471	O147	0.083300	0.063700	0.388300
O1481	O148	0.302700	0.758500	0.437000
O1491	O149	0.321600	0.443100	0.230200
O1501	O150	0.236900	0.645200	0.487300
O1511	O151	0.626700	0.373400	0.454300
O1521	O152	0.538800	0.343100	0.324700
O1531	O153	0.853100	0.793100	0.393100
O1541	O154	0.220300	0.382200	0.288200
O1551	O155	0.304700	0.508200	0.309100
O1561	O156	0.383900	0.267600	0.343700
O1571	O157	0.771000	0.983100	0.404400
O1581	O158	0.542300	0.192900	0.516600
O1591	O159	0.233900	0.330400	0.364900
O1601	O160	0.540300	0.285100	0.392200
O1611	O161	0.234700	0.098200	0.441600
O1621	O162	0.945000	0.289300	0.182300
O1631	O163	0.567900	0.037700	0.389800
O1641	O164	0.458600	0.444300	0.287700
O1651	O165	0.070900	0.299300	0.266400
O1661	O166	0.291300	0.619100	0.378800
O1671	O167	0.269300	0.995900	0.284100
O1681	O168	0.501200	0.152700	0.354300
O1691	O169	0.324800	0.136900	0.386700
O1701	O170	0.403900	0.025100	0.424500
O1711	O171	0.397900	0.956900	0.497500
O1721	O172	0.304000	0.363900	0.493700
O1731	O173	0.340100	0.130600	0.300000
O1741	O174	0.086300	0.379100	0.341400
O1751	O175	0.091900	0.233100	0.335200
O1761	O176	0.204400	0.482900	0.373000
O1771	O177	0.068900	0.166400	0.471100
O1781	O178	0.352500	0.176500	0.224800
O1791	O179	0.404600	0.028400	0.343100
O1801	O180	0.148100	0.292100	0.482600
O1811	O181	0.479800	0.291800	0.468800
O1821	O182	0.234300	0.240000	0.287100
O1831	O183	0.208400	0.424200	0.440300
O1841	O184	0.453700	0.433600	0.468400
O1851	O185	0.005200	0.196200	0.400800
O1861	O186	0.176000	0.198000	0.405600
O1871	O187	0.372000	0.318300	0.266300
O1881	O188	0.239400	0.040300	0.510700
O1891	O189	0.082200	0.327600	0.414700
O1901	O190	0.251200	0.956500	0.440200
O1911	O191	0.483900	0.210800	0.284700
O1921	O192	0.345000	0.503700	0.420500
O1931	O193	0.962900	0.288800	0.472100
O1941	O194	0.445800	0.529300	0.358400
O1951	O195	0.371000	0.348300	0.411700
O1961	O196	0.177300	0.109400	0.330900
O1971	O197	0.098000	0.021800	0.461600
O1981	O198	0.099100	0.912200	0.393600
O1991	O199	0.311000	0.220500	0.453700
O2001	O200	0.372700	0.250700	0.526700
O2011	O201	0.236200	0.002800	0.367300
O2021	O202	0.483700	0.153600	0.434400
O2031	O203	0.041000	0.469100	0.412800
O2041	O204	0.620200	0.482900	0.331700
O2051	O205	0.299500	0.510900	0.501400
O2061	O206	0.527300	0.425400	0.394700
O2071	O207	0.390800	0.108900	0.493200
O2081	O208	0.645500	0.222600	0.326600
O2091	O209	0.366500	0.404200	0.347000
O2101	O210	0.206600	0.185800	0.518900
O2111	O211	0.722200	0.674700	0.938900
O2121	O212	0.762800	0.096300	0.331900
O2131	O213	0.574500	0.909500	0.958300
O2141	O214	0.360100	0.426000	0.141400
O2151	O215	0.489600	0.890300	0.174300
O2161	O216	0.643100	0.155400	0.024900
O2171	O217	0.583300	0.936300	0.111700
O2181	O218	0.802700	0.241500	0.063000
O2191	O219	0.821600	0.556900	0.269800
O2201	O220	0.736900	0.354800	0.012700
O2211	O221	0.126700	0.626600	0.045700
O2221	O222	0.038800	0.656900	0.175300
O2231	O223	0.353100	0.206900	0.106900
O2241	O224	0.720300	0.617800	0.211800
O2251	O225	0.804700	0.491800	0.190900
O2261	O226	0.883900	0.732400	0.156300
O2271	O227	0.271000	0.016900	0.095600
O2281	O228	0.042300	0.807100	0.983400
O2291	O229	0.733900	0.669600	0.135100
O2301	O230	0.040300	0.714900	0.107800
O2311	O231	0.734700	0.901800	0.058400
O2321	O232	0.445000	0.710700	0.317700
O2331	O233	0.067900	0.962300	0.110200
O2341	O234	0.958600	0.555700	0.212300
O2351	O235	0.570900	0.700700	0.233600
O2361	O236	0.791300	0.380900	0.121200
O2371	O237	0.769300	0.004100	0.215900
O2381	O238	0.001200	0.847300	0.145700
O2391	O239	0.824800	0.863100	0.113300
O2401	O240	0.903900	0.974900	0.075500
O2411	O241	0.897900	0.043100	0.002500
O2421	O242	0.804000	0.636100	0.006300
O2431	O243	0.840100	0.869400	0.200000
O2441	O244	0.586300	0.620900	0.158600
O2451	O245	0.591900	0.766900	0.164800
O2461	O246	0.704400	0.517100	0.127000
O2471	O247	0.568900	0.833600	0.028900
O2481	O248	0.852500	0.823500	0.275200
O2491	O249	0.904600	0.971600	0.156900
O2501	O250	0.648100	0.707900	0.017400
O2511	O251	0.979800	0.708200	0.031200
O2521	O252	0.734300	0.760000	0.212900
O2531	O253	0.708400	0.575800	0.059700
O2541	O254	0.953700	0.566400	0.031600
O2551	O255	0.505200	0.803800	0.099200
O2561	O256	0.676000	0.802000	0.094400
O2571	O257	0.872000	0.681700	0.233700
O2581	O258	0.739400	0.959700	0.989300
O2591	O259	0.582200	0.672400	0.085300
O2601	O260	0.751200	0.043500	0.059800
O2611	O261	0.983900	0.789200	0.215300
O2621	O262	0.845000	0.496300	0.079500
O2631	O263	0.462900	0.711200	0.027900
O2641	O264	0.945800	0.470700	0.141600
O2651	O265	0.871000	0.651700	0.088300
O2661	O266	0.677300	0.890600	0.169100
O2671	O267	0.598000	0.978200	0.038400
O2681	O268	0.599100	0.087800	0.106400
O2691	O269	0.811000	0.779500	0.046300
O2701	O270	0.872700	0.749300	0.973300
O2711	O271	0.736200	0.997200	0.132700
O2721	O272	0.983700	0.846400	0.065600
O2731	O273	0.541000	0.530900	0.087200
O2741	O274	0.120200	0.517100	0.168300
O2751	O275	0.799500	0.489100	0.998600
O2761	O276	0.027300	0.574600	0.105300
O2771	O277	0.890800	0.891100	0.006800
O2781	O278	0.145500	0.777400	0.173400
O2791	O279	0.866500	0.595800	0.153000
O2801	O280	0.706600	0.814200	0.981100
