data_GAXGOD_freeONLY_PM
_symmetry_space_group_name_H-M	'P1'
_cell_length_a	11.296200
_cell_length_b	11.296200
_cell_length_c	25.854400
_cell_angle_alpha	90.174900
_cell_angle_beta	90.174900
_cell_angle_gamma	95.426300
_symmetry_Int_Tables_number 1

loop_
_symmetry_equiv_pos_as_xyz
'x,y,z'

loop_
_atom_site_label
_atom_site_type_symbol
_atom_site_fract_x
_atom_site_fract_y
_atom_site_fract_z
Mn11	Mn1	0.653360	0.296080	0.998990
Mn21	Mn2	0.703920	0.346640	0.501010
Mn31	Mn3	0.346640	0.703920	0.001010
Mn41	Mn4	0.296080	0.653360	0.498990
Mn51	Mn5	0.000000	0.500000	0.500000
Mn61	Mn6	0.500000	0.000000	0.000000
H11	H1	0.289400	0.110000	0.123600
H21	H2	0.152800	0.163000	0.184600
H31	H3	0.265200	0.505600	0.164700
H41	H4	0.405500	0.453300	0.105400
H51	H5	0.313200	0.382400	0.262800
H61	H6	0.352400	0.453200	0.345700
H71	H7	0.013300	0.522700	0.360800
H81	H8	0.974100	0.453900	0.277300
H91	H9	0.764400	0.192400	0.367100
H101	H10	0.782300	0.090100	0.290500
H111	H11	0.137400	0.124800	0.307500
H121	H12	0.117200	0.225000	0.385000
H131	H13	0.617400	0.559000	0.046700
H141	H14	0.698500	0.754300	0.041900
H151	H15	0.865800	0.800000	0.992500
H161	H16	0.028600	0.727200	0.935300
H171	H17	0.100300	0.578700	0.890900
H181	H18	0.083200	0.359600	0.866500
H191	H19	0.987200	0.173200	0.875900
H201	H20	0.821200	0.145400	0.928700
H211	H21	0.890000	0.710600	0.376400
H221	H22	0.837000	0.847200	0.315400
H231	H23	0.494400	0.734800	0.335300
H241	H24	0.546700	0.594500	0.394600
H251	H25	0.617600	0.686800	0.237200
H261	H26	0.546800	0.647600	0.154300
H271	H27	0.477300	0.986700	0.139200
H281	H28	0.546100	0.025900	0.222700
H291	H29	0.807600	0.235600	0.132900
H301	H30	0.909900	0.217700	0.209500
H311	H31	0.875200	0.862600	0.192500
H321	H32	0.775000	0.882800	0.115000
H331	H33	0.441000	0.382600	0.453300
H341	H34	0.245700	0.301500	0.458100
H351	H35	0.200000	0.134200	0.507500
H361	H36	0.272800	0.971400	0.564700
H371	H37	0.421300	0.899700	0.609100
H381	H38	0.640400	0.916800	0.633500
H391	H39	0.826800	0.012800	0.624100
H401	H40	0.854600	0.178800	0.571300
H411	H41	0.710600	0.890000	0.876400
H421	H42	0.847200	0.837000	0.815400
H431	H43	0.734800	0.494400	0.835300
H441	H44	0.594500	0.546700	0.894600
H451	H45	0.686800	0.617600	0.737200
H461	H46	0.647600	0.546800	0.654300
H471	H47	0.986700	0.477300	0.639200
H481	H48	0.025900	0.546100	0.722700
H491	H49	0.235600	0.807600	0.632900
H501	H50	0.217700	0.909900	0.709500
H511	H51	0.862600	0.875200	0.692500
H521	H52	0.882800	0.775000	0.615000
H531	H53	0.382600	0.441000	0.953300
H541	H54	0.301500	0.245700	0.958100
H551	H55	0.134200	0.200000	0.007500
H561	H56	0.971400	0.272800	0.064700
H571	H57	0.899700	0.421300	0.109100
H581	H58	0.916800	0.640400	0.133500
H591	H59	0.012800	0.826800	0.124100
H601	H60	0.178800	0.854600	0.071300
H611	H61	0.110000	0.289400	0.623600
H621	H62	0.163000	0.152800	0.684600
H631	H63	0.505600	0.265200	0.664700
H641	H64	0.453300	0.405500	0.605400
H651	H65	0.382400	0.313200	0.762800
H661	H66	0.453200	0.352400	0.845700
H671	H67	0.522700	0.013300	0.860800
H681	H68	0.453900	0.974100	0.777300
H691	H69	0.192400	0.764400	0.867100
H701	H70	0.090100	0.782300	0.790500
H711	H71	0.124800	0.137400	0.807500
H721	H72	0.225000	0.117200	0.885000
H731	H73	0.559000	0.617400	0.546700
H741	H74	0.754300	0.698500	0.541900
H751	H75	0.800000	0.865800	0.492500
H761	H76	0.727200	0.028600	0.435300
H771	H77	0.578700	0.100300	0.390900
H781	H78	0.359600	0.083200	0.366500
H791	H79	0.173200	0.987200	0.375900
H801	H80	0.145400	0.821200	0.428700
C11	C1	0.449360	0.242080	0.068550
C21	C2	0.361590	0.275690	0.108430
C31	C3	0.285590	0.189650	0.132000
C41	C4	0.203070	0.221190	0.168390
C51	C5	0.197000	0.338640	0.179880
C61	C6	0.270900	0.426160	0.156670
C71	C7	0.354400	0.394700	0.120940
C81	C8	0.140140	0.412340	0.262260
C91	C9	0.253200	0.411180	0.282340
C101	C10	0.276290	0.453370	0.332020
C111	C11	0.187160	0.495900	0.361580
C121	C12	0.073880	0.495220	0.341050
C131	C13	0.050230	0.453750	0.291170
C141	C14	0.216840	0.542640	0.414410
C151	C15	0.921350	0.279750	0.435050
C161	C16	0.939080	0.216400	0.384530
C171	C17	0.839390	0.177170	0.355510
C181	C18	0.849560	0.116020	0.309760
C191	C19	0.961130	0.094030	0.293070
C201	C20	0.062360	0.136620	0.320070
C211	C21	0.049820	0.197140	0.366190
C221	C22	0.685270	0.576730	0.026920
C231	C23	0.733410	0.694930	0.024200
C241	C24	0.832860	0.721660	0.994930
C251	C25	0.885560	0.631460	0.968500
C261	C26	0.829610	0.514870	0.973220
C271	C27	0.876000	0.420340	0.945480
C281	C28	0.977560	0.443240	0.913700
C291	C29	0.989810	0.651010	0.937400
C301	C30	0.033000	0.562600	0.911190
C311	C31	0.016900	0.348100	0.887860
C321	C32	0.960000	0.237600	0.893220
C331	C33	0.859930	0.221270	0.925140
C341	C34	0.757920	0.550640	0.431450
C351	C35	0.724310	0.638410	0.391570
C361	C36	0.810350	0.714410	0.368000
C371	C37	0.778810	0.796930	0.331610
C381	C38	0.661360	0.803000	0.320120
C391	C39	0.573840	0.729100	0.343330
C401	C40	0.605300	0.645600	0.379060
C411	C41	0.587660	0.859860	0.237740
C421	C42	0.588820	0.746800	0.217660
C431	C43	0.546630	0.723710	0.167980
C441	C44	0.504100	0.812840	0.138420
C451	C45	0.504780	0.926120	0.158950
C461	C46	0.546250	0.949770	0.208830
C471	C47	0.457360	0.783160	0.085590
C481	C48	0.720250	0.078650	0.064950
C491	C49	0.783600	0.060920	0.115470
C501	C50	0.822830	0.160610	0.144490
C511	C51	0.883980	0.150440	0.190240
C521	C52	0.905970	0.038870	0.206930
C531	C53	0.863380	0.937640	0.179930
C541	C54	0.802860	0.950180	0.133810
C551	C55	0.423270	0.314730	0.473080
C561	C56	0.305070	0.266590	0.475800
C571	C57	0.278340	0.167140	0.505070
C581	C58	0.368540	0.114440	0.531500
C591	C59	0.485130	0.170390	0.526780
C601	C60	0.579660	0.124000	0.554520
C611	C61	0.556760	0.022440	0.586300
C621	C62	0.348990	0.010190	0.562600
C631	C63	0.437400	0.967000	0.588810
C641	C64	0.651900	0.983100	0.612140
C651	C65	0.762400	0.040000	0.606780
C661	C66	0.778730	0.140070	0.574860
C671	C67	0.550640	0.757920	0.931450
C681	C68	0.638410	0.724310	0.891570
C691	C69	0.714410	0.810350	0.868000
C701	C70	0.796930	0.778810	0.831610
C711	C71	0.803000	0.661360	0.820120
C721	C72	0.729100	0.573840	0.843330
C731	C73	0.645600	0.605300	0.879060
C741	C74	0.859860	0.587660	0.737740
C751	C75	0.746800	0.588820	0.717660
C761	C76	0.723710	0.546630	0.667980
C771	C77	0.812840	0.504100	0.638420
C781	C78	0.926120	0.504780	0.658950
C791	C79	0.949770	0.546250	0.708830
C801	C80	0.783160	0.457360	0.585590
C811	C81	0.078650	0.720250	0.564950
C821	C82	0.060920	0.783600	0.615470
C831	C83	0.160610	0.822830	0.644490
C841	C84	0.150440	0.883980	0.690240
C851	C85	0.038870	0.905970	0.706930
C861	C86	0.937640	0.863380	0.679930
C871	C87	0.950180	0.802860	0.633810
C881	C88	0.314730	0.423270	0.973080
C891	C89	0.266590	0.305070	0.975800
C901	C90	0.167140	0.278340	0.005070
C911	C91	0.114440	0.368540	0.031500
C921	C92	0.170390	0.485130	0.026780
C931	C93	0.124000	0.579660	0.054520
C941	C94	0.022440	0.556760	0.086300
C951	C95	0.010190	0.348990	0.062600
C961	C96	0.967000	0.437400	0.088810
C971	C97	0.983100	0.651900	0.112140
C981	C98	0.040000	0.762400	0.106780
C991	C99	0.140070	0.778730	0.074860
C1001	C100	0.242080	0.449360	0.568550
C1011	C101	0.275690	0.361590	0.608430
C1021	C102	0.189650	0.285590	0.632000
C1031	C103	0.221190	0.203070	0.668390
C1041	C104	0.338640	0.197000	0.679880
C1051	C105	0.426160	0.270900	0.656670
C1061	C106	0.394700	0.354400	0.620940
C1071	C107	0.412340	0.140140	0.762260
C1081	C108	0.411180	0.253200	0.782340
C1091	C109	0.453370	0.276290	0.832020
C1101	C110	0.495900	0.187160	0.861580
C1111	C111	0.495220	0.073880	0.841050
C1121	C112	0.453750	0.050230	0.791170
C1131	C113	0.542640	0.216840	0.914410
C1141	C114	0.279750	0.921350	0.935050
C1151	C115	0.216400	0.939080	0.884530
C1161	C116	0.177170	0.839390	0.855510
C1171	C117	0.116020	0.849560	0.809760
C1181	C118	0.094030	0.961130	0.793070
C1191	C119	0.136620	0.062360	0.820070
C1201	C120	0.197140	0.049820	0.866190
C1211	C121	0.576730	0.685270	0.526920
C1221	C122	0.694930	0.733410	0.524200
C1231	C123	0.721660	0.832860	0.494930
C1241	C124	0.631460	0.885560	0.468500
C1251	C125	0.514870	0.829610	0.473220
C1261	C126	0.420340	0.876000	0.445480
C1271	C127	0.443240	0.977560	0.413700
C1281	C128	0.651010	0.989810	0.437400
C1291	C129	0.562600	0.033000	0.411190
C1301	C130	0.348100	0.016900	0.387860
C1311	C131	0.237600	0.960000	0.393220
C1321	C132	0.221270	0.859930	0.425140
N11	N1	0.731350	0.488670	0.002700
N21	N2	0.819270	0.310310	0.950160
N31	N3	0.511330	0.268650	0.497300
N41	N4	0.689690	0.180730	0.549840
N51	N5	0.268650	0.511330	0.997300
N61	N6	0.180730	0.689690	0.049840
N71	N7	0.488670	0.731350	0.502700
N81	N8	0.310310	0.819270	0.450160
O11	O1	0.523850	0.324730	0.053910
O21	O2	0.136450	0.578250	0.443610
O31	O3	0.323410	0.550810	0.428930
O41	O4	0.818380	0.265380	0.452960
O51	O5	0.443260	0.137300	0.052930
O61	O6	0.007720	0.339000	0.455190
O71	O7	0.107780	0.369320	0.213480
O81	O8	0.675270	0.476150	0.446090
O91	O9	0.421750	0.863550	0.056390
O101	O10	0.449190	0.676590	0.071070
O111	O11	0.734620	0.181620	0.047040
O121	O12	0.862700	0.556740	0.447070
O131	O13	0.661000	0.992280	0.044810
O141	O14	0.630680	0.892220	0.286520
O151	O15	0.476150	0.675270	0.946090
O161	O16	0.863550	0.421750	0.556390
O171	O17	0.676590	0.449190	0.571070
O181	O18	0.181620	0.734620	0.547040
O191	O19	0.556740	0.862700	0.947070
O201	O20	0.992280	0.661000	0.544810
O211	O21	0.892220	0.630680	0.786520
O221	O22	0.324730	0.523850	0.553910
O231	O23	0.578250	0.136450	0.943610
O241	O24	0.550810	0.323410	0.928930
O251	O25	0.265380	0.818380	0.952960
O261	O26	0.137300	0.443260	0.552930
O271	O27	0.339000	0.007720	0.955190
O281	O28	0.369320	0.107780	0.713480
O291	O29	0.976450	0.023550	0.250000
O301	O30	0.023550	0.976450	0.750000
