data_GAXKOH_freeONLY_PM
_symmetry_space_group_name_H-M	'P1'
_cell_length_a	18.007000
_cell_length_b	18.007000
_cell_length_c	19.288000
_cell_angle_alpha	90.000000
_cell_angle_beta	90.000000
_cell_angle_gamma	120.000000
_symmetry_Int_Tables_number 1

loop_
_symmetry_equiv_pos_as_xyz
'x,y,z'

loop_
_atom_site_label
_atom_site_type_symbol
_atom_site_fract_x
_atom_site_fract_y
_atom_site_fract_z
K11	K1	0.666670	0.333340	0.250000
K21	K2	0.333330	0.666660	0.750000
Cd11	Cd1	0.792770	0.585540	0.250000
Cd21	Cd2	0.792770	0.207240	0.250000
Cd31	Cd3	0.414470	0.207240	0.250000
Cd41	Cd4	0.207230	0.414460	0.750000
Cd51	Cd5	0.207230	0.792760	0.750000
Cd61	Cd6	0.585530	0.792760	0.750000
H11	H1	0.928900	0.591600	0.462300
H21	H2	0.873900	0.404400	0.598800
H31	H3	0.777400	0.306200	0.521600
H41	H4	0.759700	0.349400	0.413500
H51	H5	0.059800	0.596300	0.737800
H61	H6	0.960700	0.495200	0.667400
H71	H7	0.024100	0.674900	0.526300
H81	H8	0.124100	0.770300	0.600100
H91	H9	0.662700	0.071100	0.462300
H101	H10	0.530500	0.126100	0.598800
H111	H11	0.528800	0.222600	0.521600
H121	H12	0.589700	0.240300	0.413500
H131	H13	0.536500	0.940200	0.737800
H141	H14	0.534500	0.039300	0.667400
H151	H15	0.650800	0.975900	0.526300
H161	H16	0.646200	0.875900	0.600100
H171	H17	0.408400	0.337300	0.462300
H181	H18	0.595600	0.469500	0.598800
H191	H19	0.693800	0.471200	0.521600
H201	H20	0.650600	0.410300	0.413500
H211	H21	0.403700	0.463500	0.737800
H221	H22	0.504800	0.465500	0.667400
H231	H23	0.325100	0.349200	0.526300
H241	H24	0.229700	0.353800	0.600100
H251	H25	0.662700	0.591600	0.037700
H261	H26	0.530500	0.404400	0.901200
H271	H27	0.528800	0.306200	0.978400
H281	H28	0.589700	0.349400	0.086500
H291	H29	0.536500	0.596300	0.762200
H301	H30	0.534500	0.495200	0.832600
H311	H31	0.650800	0.674900	0.973700
H321	H32	0.646200	0.770300	0.899900
H331	H33	0.408400	0.071100	0.037700
H341	H34	0.595600	0.126100	0.901200
H351	H35	0.693800	0.222600	0.978400
H361	H36	0.650600	0.240300	0.086500
H371	H37	0.403700	0.940200	0.762200
H381	H38	0.504800	0.039300	0.832600
H391	H39	0.325100	0.975900	0.973700
H401	H40	0.229700	0.875900	0.899900
H411	H41	0.928900	0.337300	0.037700
H421	H42	0.873900	0.469500	0.901200
H431	H43	0.777400	0.471200	0.978400
H441	H44	0.759700	0.410300	0.086500
H451	H45	0.059800	0.463500	0.762200
H461	H46	0.960700	0.465500	0.832600
H471	H47	0.024100	0.349200	0.973700
H481	H48	0.124100	0.353800	0.899900
H491	H49	0.071100	0.408400	0.537700
H501	H50	0.126100	0.595600	0.401200
H511	H51	0.222600	0.693800	0.478400
H521	H52	0.240300	0.650600	0.586500
H531	H53	0.940200	0.403700	0.262200
H541	H54	0.039300	0.504800	0.332600
H551	H55	0.975900	0.325100	0.473700
H561	H56	0.875900	0.229700	0.399900
H571	H57	0.337300	0.928900	0.537700
H581	H58	0.469500	0.873900	0.401200
H591	H59	0.471200	0.777400	0.478400
H601	H60	0.410300	0.759700	0.586500
H611	H61	0.463500	0.059800	0.262200
H621	H62	0.465500	0.960700	0.332600
H631	H63	0.349200	0.024100	0.473700
H641	H64	0.353800	0.124100	0.399900
H651	H65	0.591600	0.662700	0.537700
H661	H66	0.404400	0.530500	0.401200
H671	H67	0.306200	0.528800	0.478400
H681	H68	0.349400	0.589700	0.586500
H691	H69	0.596300	0.536500	0.262200
H701	H70	0.495200	0.534500	0.332600
H711	H71	0.674900	0.650800	0.473700
H721	H72	0.770300	0.646200	0.399900
H731	H73	0.337300	0.408400	0.962300
H741	H74	0.469500	0.595600	0.098800
H751	H75	0.471200	0.693800	0.021600
H761	H76	0.410300	0.650600	0.913500
H771	H77	0.463500	0.403700	0.237800
H781	H78	0.465500	0.504800	0.167400
H791	H79	0.349200	0.325100	0.026300
H801	H80	0.353800	0.229700	0.100100
H811	H81	0.591600	0.928900	0.962300
H821	H82	0.404400	0.873900	0.098800
H831	H83	0.306200	0.777400	0.021600
H841	H84	0.349400	0.759700	0.913500
H851	H85	0.596300	0.059800	0.237800
H861	H86	0.495200	0.960700	0.167400
H871	H87	0.674900	0.024100	0.026300
H881	H88	0.770300	0.124100	0.100100
H891	H89	0.071100	0.662700	0.962300
H901	H90	0.126100	0.530500	0.098800
H911	H91	0.222600	0.528800	0.021600
H921	H92	0.240300	0.589700	0.913500
H931	H93	0.940200	0.536500	0.237800
H941	H94	0.039300	0.534500	0.167400
H951	H95	0.975900	0.650800	0.026300
H961	H96	0.875900	0.646200	0.100100
C11	C1	0.840600	0.474800	0.428000
C21	C2	0.898600	0.533900	0.474600
C31	C3	0.912400	0.508900	0.539200
C41	C4	0.866100	0.422800	0.555800
C51	C5	0.808600	0.363900	0.509400
C61	C6	0.797100	0.389700	0.445200
C71	C7	0.825600	0.505400	0.359200
C81	C8	0.052700	0.613300	0.693900
C91	C9	0.991900	0.551700	0.652000
C101	C10	0.976800	0.572900	0.587500
C111	C11	0.029300	0.656300	0.570100
C121	C12	0.089800	0.714100	0.614900
C131	C13	0.634200	0.159400	0.428000
C141	C14	0.635300	0.101400	0.474600
C151	C15	0.596500	0.087600	0.539200
C161	C16	0.556700	0.133900	0.555800
C171	C17	0.555300	0.191400	0.509400
C181	C18	0.592600	0.202900	0.445200
C191	C19	0.679800	0.174400	0.359200
C201	C20	0.560600	0.947300	0.693900
C211	C21	0.559800	0.008100	0.652000
C221	C22	0.596100	0.023200	0.587500
C231	C23	0.627000	0.970700	0.570100
C241	C24	0.624300	0.910200	0.614900
C251	C25	0.525200	0.365800	0.428000
C261	C26	0.466100	0.364700	0.474600
C271	C27	0.491100	0.403500	0.539200
C281	C28	0.577200	0.443300	0.555800
C291	C29	0.636100	0.444700	0.509400
C301	C30	0.610300	0.407400	0.445200
C311	C31	0.494600	0.320200	0.359200
C321	C32	0.386700	0.439400	0.693900
C331	C33	0.448300	0.440200	0.652000
C341	C34	0.427100	0.403900	0.587500
C351	C35	0.343700	0.373000	0.570100
C361	C36	0.285900	0.375700	0.614900
C371	C37	0.634200	0.474800	0.072000
C381	C38	0.635300	0.533900	0.025400
C391	C39	0.596500	0.508900	0.960800
C401	C40	0.556700	0.422800	0.944200
C411	C41	0.555300	0.363900	0.990600
C421	C42	0.592600	0.389700	0.054800
C431	C43	0.679800	0.505400	0.140800
C441	C44	0.560600	0.613300	0.806100
C451	C45	0.559800	0.551700	0.848000
C461	C46	0.596100	0.572900	0.912500
C471	C47	0.627000	0.656300	0.929900
C481	C48	0.624300	0.714100	0.885100
C491	C49	0.525200	0.159400	0.072000
C501	C50	0.466100	0.101400	0.025400
C511	C51	0.491100	0.087600	0.960800
C521	C52	0.577200	0.133900	0.944200
C531	C53	0.636100	0.191400	0.990600
C541	C54	0.610300	0.202900	0.054800
C551	C55	0.494600	0.174400	0.140800
C561	C56	0.386700	0.947300	0.806100
C571	C57	0.448300	0.008100	0.848000
C581	C58	0.427100	0.023200	0.912500
C591	C59	0.343700	0.970700	0.929900
C601	C60	0.285900	0.910200	0.885100
C611	C61	0.840600	0.365800	0.072000
C621	C62	0.898600	0.364700	0.025400
C631	C63	0.912400	0.403500	0.960800
C641	C64	0.866100	0.443300	0.944200
C651	C65	0.808600	0.444700	0.990600
C661	C66	0.797100	0.407400	0.054800
C671	C67	0.825600	0.320200	0.140800
C681	C68	0.052700	0.439400	0.806100
C691	C69	0.991900	0.440200	0.848000
C701	C70	0.976800	0.403900	0.912500
C711	C71	0.029300	0.373000	0.929900
C721	C72	0.089800	0.375700	0.885100
C731	C73	0.159400	0.525200	0.572000
C741	C74	0.101400	0.466100	0.525400
C751	C75	0.087600	0.491100	0.460800
C761	C76	0.133900	0.577200	0.444200
C771	C77	0.191400	0.636100	0.490600
C781	C78	0.202900	0.610300	0.554800
C791	C79	0.174400	0.494600	0.640800
C801	C80	0.947300	0.386700	0.306100
C811	C81	0.008100	0.448300	0.348000
C821	C82	0.023200	0.427100	0.412500
C831	C83	0.970700	0.343700	0.429900
C841	C84	0.910200	0.285900	0.385100
C851	C85	0.365800	0.840600	0.572000
C861	C86	0.364700	0.898600	0.525400
C871	C87	0.403500	0.912400	0.460800
C881	C88	0.443300	0.866100	0.444200
C891	C89	0.444700	0.808600	0.490600
C901	C90	0.407400	0.797100	0.554800
C911	C91	0.320200	0.825600	0.640800
C921	C92	0.439400	0.052700	0.306100
C931	C93	0.440200	0.991900	0.348000
C941	C94	0.403900	0.976800	0.412500
C951	C95	0.373000	0.029300	0.429900
C961	C96	0.375700	0.089800	0.385100
C971	C97	0.474800	0.634200	0.572000
C981	C98	0.533900	0.635300	0.525400
C991	C99	0.508900	0.596500	0.460800
C1001	C100	0.422800	0.556700	0.444200
C1011	C101	0.363900	0.555300	0.490600
C1021	C102	0.389700	0.592600	0.554800
C1031	C103	0.505400	0.679800	0.640800
C1041	C104	0.613300	0.560600	0.306100
C1051	C105	0.551700	0.559800	0.348000
C1061	C106	0.572900	0.596100	0.412500
C1071	C107	0.656300	0.627000	0.429900
C1081	C108	0.714100	0.624300	0.385100
C1091	C109	0.365800	0.525200	0.928000
C1101	C110	0.364700	0.466100	0.974600
C1111	C111	0.403500	0.491100	0.039200
C1121	C112	0.443300	0.577200	0.055800
C1131	C113	0.444700	0.636100	0.009400
C1141	C114	0.407400	0.610300	0.945200
C1151	C115	0.320200	0.494600	0.859200
C1161	C116	0.439400	0.386700	0.193900
C1171	C117	0.440200	0.448300	0.152000
C1181	C118	0.403900	0.427100	0.087500
C1191	C119	0.373000	0.343700	0.070100
C1201	C120	0.375700	0.285900	0.114900
C1211	C121	0.474800	0.840600	0.928000
C1221	C122	0.533900	0.898600	0.974600
C1231	C123	0.508900	0.912400	0.039200
C1241	C124	0.422800	0.866100	0.055800
C1251	C125	0.363900	0.808600	0.009400
C1261	C126	0.389700	0.797100	0.945200
C1271	C127	0.505400	0.825600	0.859200
C1281	C128	0.613300	0.052700	0.193900
C1291	C129	0.551700	0.991900	0.152000
C1301	C130	0.572900	0.976800	0.087500
C1311	C131	0.656300	0.029300	0.070100
C1321	C132	0.714100	0.089800	0.114900
C1331	C133	0.159400	0.634200	0.928000
C1341	C134	0.101400	0.635300	0.974600
C1351	C135	0.087600	0.596500	0.039200
C1361	C136	0.133900	0.556700	0.055800
C1371	C137	0.191400	0.555300	0.009400
C1381	C138	0.202900	0.592600	0.945200
C1391	C139	0.174400	0.679800	0.859200
C1401	C140	0.947300	0.560600	0.193900
C1411	C141	0.008100	0.559800	0.152000
C1421	C142	0.023200	0.596100	0.087500
C1431	C143	0.970700	0.627000	0.070100
C1441	C144	0.910200	0.624300	0.114900
N11	N1	0.101600	0.693700	0.677800
N21	N2	0.592100	0.898400	0.677800
N31	N3	0.306300	0.407900	0.677800
N41	N4	0.592100	0.693700	0.822200
N51	N5	0.306300	0.898400	0.822200
N61	N6	0.101600	0.407900	0.822200
N71	N7	0.898400	0.306300	0.322200
N81	N8	0.407900	0.101600	0.322200
N91	N9	0.693700	0.592100	0.322200
N101	N10	0.407900	0.306300	0.177800
N111	N11	0.693700	0.101600	0.177800
N121	N12	0.898400	0.592100	0.177800
O11	O1	0.866800	0.584000	0.347170
O21	O2	0.772900	0.452700	0.317810
O31	O3	0.717200	0.133200	0.347170
O41	O4	0.679800	0.227100	0.317810
O51	O5	0.416000	0.282800	0.347170
O61	O6	0.547300	0.320200	0.317810
O71	O7	0.717200	0.584000	0.152830
O81	O8	0.679800	0.452700	0.182190
O91	O9	0.416000	0.133200	0.152830
O101	O10	0.547300	0.227100	0.182190
O111	O11	0.866800	0.282800	0.152830
O121	O12	0.772900	0.320200	0.182190
O131	O13	0.133200	0.416000	0.652830
O141	O14	0.227100	0.547300	0.682190
O151	O15	0.282800	0.866800	0.652830
O161	O16	0.320200	0.772900	0.682190
O171	O17	0.584000	0.717200	0.652830
O181	O18	0.452700	0.679800	0.682190
O191	O19	0.282800	0.416000	0.847170
O201	O20	0.320200	0.547300	0.817810
O211	O21	0.584000	0.866800	0.847170
O221	O22	0.452700	0.772900	0.817810
O231	O23	0.133200	0.717200	0.847170
O241	O24	0.227100	0.679800	0.817810
