data_GAZZIS02_charged_PM
_symmetry_space_group_name_H-M	'P1'
_cell_length_a	17.344000
_cell_length_b	17.344000
_cell_length_c	26.443000
_cell_angle_alpha	94.119100
_cell_angle_beta	94.119100
_cell_angle_gamma	110.440000
_symmetry_Int_Tables_number 1

loop_
_symmetry_equiv_pos_as_xyz
'x,y,z'

loop_
_atom_site_label
_atom_site_type_symbol
_atom_site_fract_x
_atom_site_fract_y
_atom_site_fract_z
In11	In1	0.369050	0.859450	0.884560
In21	In2	0.859450	0.369050	0.384560
H11	H1	0.214100	0.765900	0.023600
H21	H2	0.095700	0.686300	0.059800
H31	H3	0.968300	0.628100	0.921100
H41	H4	0.082400	0.708200	0.885900
H51	H5	0.807400	0.345600	0.210800
H61	H6	0.799600	0.376600	0.127100
H71	H7	0.990800	0.593200	0.166000
H81	H8	0.994300	0.563100	0.250100
H91	H9	0.387700	0.140100	0.869300
H101	H10	0.457800	0.282600	0.883300
H111	H11	0.601900	0.247900	0.000400
H121	H12	0.533500	0.105900	0.984900
H131	H13	0.598600	0.764200	0.902300
H141	H14	0.662200	0.666800	0.915300
H151	H15	0.440300	0.497100	0.933300
H161	H16	0.377300	0.589700	0.911500
H171	H17	0.762000	0.449600	0.070400
H181	H18	0.860000	0.586600	0.957900
H191	H19	0.007700	0.580300	0.081900
H201	H20	0.710300	0.597900	0.969800
H211	H21	0.691400	0.362800	0.985600
H221	H22	0.495900	0.408900	0.921400
H231	H23	0.765900	0.214100	0.523600
H241	H24	0.686300	0.095700	0.559800
H251	H25	0.628100	0.968300	0.421100
H261	H26	0.708200	0.082400	0.385900
H271	H27	0.345600	0.807400	0.710800
H281	H28	0.376600	0.799600	0.627100
H291	H29	0.593200	0.990800	0.666000
H301	H30	0.563100	0.994300	0.750100
H311	H31	0.140100	0.387700	0.369300
H321	H32	0.282600	0.457800	0.383300
H331	H33	0.247900	0.601900	0.500400
H341	H34	0.105900	0.533500	0.484900
H351	H35	0.764200	0.598600	0.402300
H361	H36	0.666800	0.662200	0.415300
H371	H37	0.497100	0.440300	0.433300
H381	H38	0.589700	0.377300	0.411500
H391	H39	0.449600	0.762000	0.570400
H401	H40	0.586600	0.860000	0.457900
H411	H41	0.580300	0.007700	0.581900
H421	H42	0.597900	0.710300	0.469800
H431	H43	0.362800	0.691400	0.485600
H441	H44	0.408900	0.495900	0.421400
C11	C1	0.159490	0.745490	0.951000
C21	C2	0.163730	0.738170	0.002600
C31	C3	0.093230	0.689590	0.024060
C41	C4	0.019420	0.646100	0.993350
C51	C5	0.018240	0.655800	0.942560
C61	C6	0.086000	0.703680	0.921490
C71	C7	0.900500	0.451800	0.238810
C81	C8	0.843870	0.396730	0.201770
C91	C9	0.839540	0.414840	0.151890
C101	C10	0.893370	0.488670	0.137740
C111	C11	0.952310	0.543230	0.175080
C121	C12	0.954850	0.525010	0.224980
C131	C13	0.454750	0.109410	0.925030
C141	C14	0.432160	0.162200	0.895570
C151	C15	0.473750	0.247070	0.903990
C161	C16	0.538610	0.280490	0.942370
C171	C17	0.559190	0.226150	0.973110
C181	C18	0.518200	0.141800	0.964190
C191	C19	0.479470	0.686670	0.906940
C201	C20	0.556150	0.573310	0.929930
C211	C21	0.566000	0.709400	0.908000
C221	C22	0.604500	0.652500	0.917300
C231	C23	0.473400	0.551400	0.926900
C241	C24	0.435900	0.607500	0.914700
C251	C25	0.886600	0.512700	0.085160
C261	C26	0.808530	0.486370	0.056790
C271	C27	0.797960	0.512820	0.009530
C281	C28	0.866950	0.566630	0.989800
C291	C29	0.945950	0.591650	0.016220
C301	C30	0.954210	0.563830	0.063670
C311	C31	0.596060	0.513320	0.943730
C321	C32	0.678200	0.540460	0.965870
C331	C33	0.713160	0.484560	0.982190
C341	C34	0.667240	0.401000	0.974600
C351	C35	0.586420	0.371440	0.951260
C361	C36	0.551520	0.428280	0.936620
C371	C37	0.235520	0.793760	0.928070
C381	C38	0.901870	0.434930	0.293840
C391	C39	0.415520	0.018160	0.912930
C401	C40	0.437750	0.746570	0.896750
C411	C41	0.745490	0.159490	0.451000
C421	C42	0.738170	0.163730	0.502600
C431	C43	0.689590	0.093230	0.524060
C441	C44	0.646100	0.019420	0.493350
C451	C45	0.655800	0.018240	0.442560
C461	C46	0.703680	0.086000	0.421490
C471	C47	0.451800	0.900500	0.738810
C481	C48	0.396730	0.843870	0.701770
C491	C49	0.414840	0.839540	0.651890
C501	C50	0.488670	0.893370	0.637740
C511	C51	0.543230	0.952310	0.675080
C521	C52	0.525010	0.954850	0.724980
C531	C53	0.109410	0.454750	0.425030
C541	C54	0.162200	0.432160	0.395570
C551	C55	0.247070	0.473750	0.403990
C561	C56	0.280490	0.538610	0.442370
C571	C57	0.226150	0.559190	0.473110
C581	C58	0.141800	0.518200	0.464190
C591	C59	0.686670	0.479470	0.406940
C601	C60	0.573310	0.556150	0.429930
C611	C61	0.709400	0.566000	0.408000
C621	C62	0.652500	0.604500	0.417300
C631	C63	0.551400	0.473400	0.426900
C641	C64	0.607500	0.435900	0.414700
C651	C65	0.512700	0.886600	0.585160
C661	C66	0.486370	0.808530	0.556790
C671	C67	0.512820	0.797960	0.509530
C681	C68	0.566630	0.866950	0.489800
C691	C69	0.591650	0.945950	0.516220
C701	C70	0.563830	0.954210	0.563670
C711	C71	0.513320	0.596060	0.443730
C721	C72	0.540460	0.678200	0.465870
C731	C73	0.484560	0.713160	0.482190
C741	C74	0.401000	0.667240	0.474600
C751	C75	0.371440	0.586420	0.451260
C761	C76	0.428280	0.551520	0.436620
C771	C77	0.793760	0.235520	0.428070
C781	C78	0.434930	0.901870	0.793840
C791	C79	0.018160	0.415520	0.412930
C801	C80	0.746570	0.437750	0.396750
O11	O1	0.231970	0.799430	0.880490
O21	O2	0.303560	0.826220	0.955400
O31	O3	0.847490	0.367570	0.304420
O41	O4	0.952750	0.485790	0.326770
O51	O5	0.350690	0.985230	0.882490
O61	O6	0.451160	0.972640	0.932860
O71	O7	0.479020	0.823600	0.902600
O81	O8	0.361840	0.721980	0.883410
O91	O9	0.799430	0.231970	0.380490
O101	O10	0.826220	0.303560	0.455400
O111	O11	0.367570	0.847490	0.804420
O121	O12	0.485790	0.952750	0.826770
O131	O13	0.985230	0.350690	0.382490
O141	O14	0.972640	0.451160	0.432860
O151	O15	0.823600	0.479020	0.402600
O161	O16	0.721980	0.361840	0.383410
In31	In3	0.140550	0.630950	0.615440
In41	In4	0.630950	0.140550	0.115440
H451	H45	0.234100	0.785900	0.476400
H461	H46	0.313700	0.904300	0.440200
H471	H47	0.371900	0.031700	0.578900
H481	H48	0.291800	0.917600	0.614100
H491	H49	0.654400	0.192600	0.289200
H501	H50	0.623400	0.200400	0.372900
H511	H51	0.406800	0.009200	0.334000
H521	H52	0.436900	0.005700	0.249900
H531	H53	0.859900	0.612300	0.630700
H541	H54	0.717400	0.542200	0.616700
H551	H55	0.752100	0.398100	0.499600
H561	H56	0.894100	0.466500	0.515100
H571	H57	0.235800	0.401400	0.597700
H581	H58	0.333200	0.337800	0.584700
H591	H59	0.502900	0.559700	0.566700
H601	H60	0.410300	0.622700	0.588500
H611	H61	0.550400	0.238000	0.429600
H621	H62	0.413400	0.140000	0.542100
H631	H63	0.419700	0.992300	0.418100
H641	H64	0.402100	0.289700	0.530200
H651	H65	0.637200	0.308600	0.514400
H661	H66	0.591100	0.504100	0.578600
H671	H67	0.785900	0.234100	0.976400
H681	H68	0.904300	0.313700	0.940200
H691	H69	0.031700	0.371900	0.078900
H701	H70	0.917600	0.291800	0.114100
H711	H71	0.192600	0.654400	0.789200
H721	H72	0.200400	0.623400	0.872900
H731	H73	0.009200	0.406800	0.834000
H741	H74	0.005700	0.436900	0.749900
H751	H75	0.612300	0.859900	0.130700
H761	H76	0.542200	0.717400	0.116700
H771	H77	0.398100	0.752100	0.999600
H781	H78	0.466500	0.894100	0.015100
H791	H79	0.401400	0.235800	0.097700
H801	H80	0.337800	0.333200	0.084700
H811	H81	0.559700	0.502900	0.066700
H821	H82	0.622700	0.410300	0.088500
H831	H83	0.238000	0.550400	0.929600
H841	H84	0.140000	0.413400	0.042100
H851	H85	0.992300	0.419700	0.918100
H861	H86	0.289700	0.402100	0.030200
H871	H87	0.308600	0.637200	0.014400
H881	H88	0.504100	0.591100	0.078600
C811	C81	0.254510	0.840510	0.549000
C821	C82	0.261830	0.836270	0.497400
C831	C83	0.310410	0.906770	0.475940
C841	C84	0.353900	0.980580	0.506650
C851	C85	0.344200	0.981760	0.557440
C861	C86	0.296320	0.914000	0.578510
C871	C87	0.548200	0.099500	0.261190
C881	C88	0.603270	0.156130	0.298230
C891	C89	0.585160	0.160460	0.348110
C901	C90	0.511330	0.106630	0.362260
C911	C91	0.456770	0.047690	0.324920
C921	C92	0.474990	0.045150	0.275020
C931	C93	0.890590	0.545250	0.574970
C941	C94	0.837800	0.567840	0.604430
C951	C95	0.752930	0.526250	0.596010
C961	C96	0.719510	0.461390	0.557630
C971	C97	0.773850	0.440810	0.526890
C981	C98	0.858200	0.481800	0.535810
C991	C99	0.313330	0.520530	0.593060
C1001	C100	0.426690	0.443850	0.570070
C1011	C101	0.290600	0.434000	0.592000
C1021	C102	0.347500	0.395500	0.582700
C1031	C103	0.448600	0.526600	0.573100
C1041	C104	0.392500	0.564100	0.585300
C1051	C105	0.487300	0.113400	0.414840
C1061	C106	0.513630	0.191470	0.443210
C1071	C107	0.487180	0.202040	0.490470
C1081	C108	0.433370	0.133050	0.510200
C1091	C109	0.408350	0.054050	0.483780
C1101	C110	0.436170	0.045790	0.436330
C1111	C111	0.486680	0.403940	0.556270
C1121	C112	0.459540	0.321800	0.534130
C1131	C113	0.515440	0.286840	0.517810
C1141	C114	0.599000	0.332760	0.525400
C1151	C115	0.628560	0.413580	0.548740
C1161	C116	0.571720	0.448480	0.563380
C1171	C117	0.206240	0.764480	0.571930
C1181	C118	0.565070	0.098130	0.206160
C1191	C119	0.981840	0.584480	0.587070
C1201	C120	0.253430	0.562250	0.603250
C1211	C121	0.840510	0.254510	0.049000
C1221	C122	0.836270	0.261830	0.997400
C1231	C123	0.906770	0.310410	0.975940
C1241	C124	0.980580	0.353900	0.006650
C1251	C125	0.981760	0.344200	0.057440
C1261	C126	0.914000	0.296320	0.078510
C1271	C127	0.099500	0.548200	0.761190
C1281	C128	0.156130	0.603270	0.798230
C1291	C129	0.160460	0.585160	0.848110
C1301	C130	0.106630	0.511330	0.862260
C1311	C131	0.047690	0.456770	0.824920
C1321	C132	0.045150	0.474990	0.775020
C1331	C133	0.545250	0.890590	0.074970
C1341	C134	0.567840	0.837800	0.104430
C1351	C135	0.526250	0.752930	0.096010
C1361	C136	0.461390	0.719510	0.057630
C1371	C137	0.440810	0.773850	0.026890
C1381	C138	0.481800	0.858200	0.035810
C1391	C139	0.520530	0.313330	0.093060
C1401	C140	0.443850	0.426690	0.070070
C1411	C141	0.434000	0.290600	0.092000
C1421	C142	0.395500	0.347500	0.082700
C1431	C143	0.526600	0.448600	0.073100
C1441	C144	0.564100	0.392500	0.085300
C1451	C145	0.113400	0.487300	0.914840
C1461	C146	0.191470	0.513630	0.943210
C1471	C147	0.202040	0.487180	0.990470
C1481	C148	0.133050	0.433370	0.010200
C1491	C149	0.054050	0.408350	0.983780
C1501	C150	0.045790	0.436170	0.936330
C1511	C151	0.403940	0.486680	0.056270
C1521	C152	0.321800	0.459540	0.034130
C1531	C153	0.286840	0.515440	0.017810
C1541	C154	0.332760	0.599000	0.025400
C1551	C155	0.413580	0.628560	0.048740
C1561	C156	0.448480	0.571720	0.063380
C1571	C157	0.764480	0.206240	0.071930
C1581	C158	0.098130	0.565070	0.706160
C1591	C159	0.584480	0.981840	0.087070
C1601	C160	0.562250	0.253430	0.103250
O171	O17	0.200570	0.768030	0.619510
O181	O18	0.173780	0.696440	0.544600
O191	O19	0.632430	0.152510	0.195580
O201	O20	0.514210	0.047250	0.173230
O211	O21	0.014770	0.649310	0.617510
O221	O22	0.027360	0.548840	0.567140
O231	O23	0.176400	0.520980	0.597400
O241	O24	0.278020	0.638160	0.616590
O251	O25	0.768030	0.200570	0.119510
O261	O26	0.696440	0.173780	0.044600
O271	O27	0.152510	0.632430	0.695580
O281	O28	0.047250	0.514210	0.673230
O291	O29	0.649310	0.014770	0.117510
O301	O30	0.548840	0.027360	0.067140
O311	O31	0.520980	0.176400	0.097400
O321	O32	0.638160	0.278020	0.116590
H891	H89	0.633100	0.951900	0.884700
H901	H90	0.563500	0.973300	0.904000
H911	H91	0.625900	0.926500	0.968100
H921	H92	0.711100	0.999300	0.962100
H931	H93	0.635700	0.020900	0.982700
H941	H94	0.637200	0.078400	0.858200
H951	H95	0.646400	0.113400	0.916800
H961	H96	0.719300	0.089500	0.894300
C1611	C161	0.650750	0.983250	0.959290
C1621	C162	0.659100	0.074900	0.892800
N11	N1	0.620170	0.988070	0.906770
H971	H97	0.048100	0.366900	0.615300
H981	H98	0.026700	0.436500	0.596000
H991	H99	0.073500	0.374100	0.531900
H1001	H100	0.000700	0.288900	0.537900
H1011	H101	0.979100	0.364300	0.517300
H1021	H102	0.921600	0.362800	0.641800
H1031	H103	0.886600	0.353600	0.583200
H1041	H104	0.910500	0.280700	0.605700
C1631	C163	0.016750	0.349250	0.540710
C1641	C164	0.925100	0.340900	0.607200
N21	N2	0.011930	0.379830	0.593230
H1051	H105	0.366900	0.048100	0.115300
H1061	H106	0.436500	0.026700	0.096000
H1071	H107	0.374100	0.073500	0.031900
H1081	H108	0.288900	0.000700	0.037900
H1091	H109	0.364300	0.979100	0.017300
H1101	H110	0.362800	0.921600	0.141800
H1111	H111	0.353600	0.886600	0.083200
H1121	H112	0.280700	0.910500	0.105700
C1651	C165	0.349250	0.016750	0.040710
C1661	C166	0.340900	0.925100	0.107200
N31	N3	0.379830	0.011930	0.093230
H1131	H113	0.951900	0.633100	0.384700
H1141	H114	0.973300	0.563500	0.404000
H1151	H115	0.926500	0.625900	0.468100
H1161	H116	0.999300	0.711100	0.462100
H1171	H117	0.020900	0.635700	0.482700
H1181	H118	0.078400	0.637200	0.358200
H1191	H119	0.113400	0.646400	0.416800
H1201	H120	0.089500	0.719300	0.394300
C1671	C167	0.983250	0.650750	0.459290
C1681	C168	0.074900	0.659100	0.392800
N41	N4	0.988070	0.620170	0.406770
