data_GAZZIS05_charged_PM
_symmetry_space_group_name_H-M	'P1'
_cell_length_a	17.401700
_cell_length_b	17.401700
_cell_length_c	27.015000
_cell_angle_alpha	92.762600
_cell_angle_beta	92.762600
_cell_angle_gamma	111.757000
_symmetry_Int_Tables_number 1

loop_
_symmetry_equiv_pos_as_xyz
'x,y,z'

loop_
_atom_site_label
_atom_site_type_symbol
_atom_site_fract_x
_atom_site_fract_y
_atom_site_fract_z
In11	In1	0.372370	0.854910	0.883640
In21	In2	0.854910	0.372370	0.383640
H11	H1	0.206900	0.770500	0.023800
H21	H2	0.086900	0.695700	0.060900
H31	H3	0.968800	0.609800	0.924500
H41	H4	0.086600	0.689200	0.888500
H51	H5	0.794900	0.338300	0.210500
H61	H6	0.789400	0.373200	0.130800
H71	H7	0.976900	0.589900	0.167300
H81	H8	0.976700	0.559100	0.248900
H91	H9	0.394200	0.140800	0.868300
H101	H10	0.461000	0.281800	0.884800
H111	H11	0.591900	0.240300	0.999100
H121	H12	0.530200	0.101400	0.981500
H131	H13	0.574700	0.762100	0.956100
H141	H14	0.628800	0.666000	0.979200
H151	H15	0.460800	0.493800	0.890400
H161	H16	0.399300	0.586700	0.868600
H171	H17	0.753600	0.446600	0.073200
H181	H18	0.859900	0.581300	0.961200
H191	H19	0.998300	0.577100	0.083300
H201	H20	0.706500	0.593100	0.973200
H211	H21	0.687200	0.360000	0.986600
H221	H22	0.496900	0.405900	0.924600
H231	H23	0.770500	0.206900	0.523800
H241	H24	0.695700	0.086900	0.560900
H251	H25	0.609800	0.968800	0.424500
H261	H26	0.689200	0.086600	0.388500
H271	H27	0.338300	0.794900	0.710500
H281	H28	0.373200	0.789400	0.630800
H291	H29	0.589900	0.976900	0.667300
H301	H30	0.559100	0.976700	0.748900
H311	H31	0.140800	0.394200	0.368300
H321	H32	0.281800	0.461000	0.384800
H331	H33	0.240300	0.591900	0.499100
H341	H34	0.101400	0.530200	0.481500
H351	H35	0.762100	0.574700	0.456100
H361	H36	0.666000	0.628800	0.479200
H371	H37	0.493800	0.460800	0.390400
H381	H38	0.586700	0.399300	0.368600
H391	H39	0.446600	0.753600	0.573200
H401	H40	0.581300	0.859900	0.461200
H411	H41	0.577100	0.998300	0.583300
H421	H42	0.593100	0.706500	0.473200
H431	H43	0.360000	0.687200	0.486600
H441	H44	0.405900	0.496900	0.424600
C11	C1	0.160220	0.738780	0.952550
C21	C2	0.159100	0.738900	0.004100
C31	C3	0.088300	0.692900	0.026500
C41	C4	0.016700	0.641500	0.944100
C51	C5	0.086700	0.689100	0.922900
C61	C6	0.018200	0.641400	0.996060
C71	C7	0.884900	0.443700	0.238700
C81	C8	0.830600	0.390000	0.202130
C91	C9	0.827900	0.410300	0.154260
C101	C10	0.882300	0.486700	0.139860
C111	C11	0.938700	0.539900	0.176300
C121	C12	0.939900	0.521100	0.225100
C131	C13	0.454490	0.106510	0.923900
C141	C14	0.434700	0.161300	0.894500
C151	C15	0.474900	0.245500	0.904100
C161	C16	0.536580	0.276020	0.942800
C171	C17	0.553280	0.220120	0.971950
C181	C18	0.515410	0.137390	0.962360
C191	C19	0.481310	0.683890	0.909500
C201	C20	0.556030	0.570370	0.933170
C211	C21	0.550900	0.707700	0.942500
C221	C22	0.584900	0.650300	0.955100
C231	C23	0.485500	0.548700	0.903200
C241	C24	0.447000	0.604200	0.890000
C251	C25	0.876000	0.510000	0.087480
C261	C26	0.800500	0.482900	0.059900
C271	C27	0.793440	0.509560	0.012030
C281	C28	0.864200	0.562400	0.992400
C291	C29	0.940060	0.587540	0.017730
C301	C30	0.946660	0.560740	0.065980
C311	C31	0.594360	0.510640	0.946670
C321	C32	0.674770	0.536630	0.969080
C331	C33	0.708330	0.481070	0.985270
C341	C34	0.663600	0.397200	0.976530
C351	C35	0.584380	0.366620	0.953170
C361	C36	0.550690	0.425110	0.939300
C371	C37	0.237850	0.786350	0.928920
C381	C38	0.881700	0.425900	0.292400
C391	C39	0.416200	0.013200	0.909500
C401	C40	0.439730	0.742870	0.898580
C411	C41	0.738780	0.160220	0.452550
C421	C42	0.738900	0.159100	0.504100
C431	C43	0.692900	0.088300	0.526500
C441	C44	0.641500	0.016700	0.444100
C451	C45	0.689100	0.086700	0.422900
C461	C46	0.641400	0.018200	0.496060
C471	C47	0.443700	0.884900	0.738700
C481	C48	0.390000	0.830600	0.702130
C491	C49	0.410300	0.827900	0.654260
C501	C50	0.486700	0.882300	0.639860
C511	C51	0.539900	0.938700	0.676300
C521	C52	0.521100	0.939900	0.725100
C531	C53	0.106510	0.454490	0.423900
C541	C54	0.161300	0.434700	0.394500
C551	C55	0.245500	0.474900	0.404100
C561	C56	0.276020	0.536580	0.442800
C571	C57	0.220120	0.553280	0.471950
C581	C58	0.137390	0.515410	0.462360
C591	C59	0.683890	0.481310	0.409500
C601	C60	0.570370	0.556030	0.433170
C611	C61	0.707700	0.550900	0.442500
C621	C62	0.650300	0.584900	0.455100
C631	C63	0.548700	0.485500	0.403200
C641	C64	0.604200	0.447000	0.390000
C651	C65	0.510000	0.876000	0.587480
C661	C66	0.482900	0.800500	0.559900
C671	C67	0.509560	0.793440	0.512030
C681	C68	0.562400	0.864200	0.492400
C691	C69	0.587540	0.940060	0.517730
C701	C70	0.560740	0.946660	0.565980
C711	C71	0.510640	0.594360	0.446670
C721	C72	0.536630	0.674770	0.469080
C731	C73	0.481070	0.708330	0.485270
C741	C74	0.397200	0.663600	0.476530
C751	C75	0.366620	0.584380	0.453170
C761	C76	0.425110	0.550690	0.439300
C771	C77	0.786350	0.237850	0.428920
C781	C78	0.425900	0.881700	0.792400
C791	C79	0.013200	0.416200	0.409500
C801	C80	0.742870	0.439730	0.398580
O11	O1	0.235170	0.796490	0.883440
O21	O2	0.306320	0.816080	0.955270
O31	O3	0.835680	0.355120	0.302960
O41	O4	0.924800	0.477600	0.324960
O51	O5	0.354650	0.983610	0.878790
O61	O6	0.448540	0.967840	0.930450
O71	O7	0.479400	0.819240	0.909030
O81	O8	0.366970	0.718230	0.879880
O91	O9	0.796490	0.235170	0.383440
O101	O10	0.816080	0.306320	0.455270
O111	O11	0.355120	0.835680	0.802960
O121	O12	0.477600	0.924800	0.824960
O131	O13	0.983610	0.354650	0.378790
O141	O14	0.967840	0.448540	0.430450
O151	O15	0.819240	0.479400	0.409030
O161	O16	0.718230	0.366970	0.379880
In31	In3	0.145090	0.627630	0.616360
In41	In4	0.627630	0.145090	0.116360
H451	H45	0.229500	0.793100	0.476200
H461	H46	0.304300	0.913100	0.439100
H471	H47	0.390200	0.031200	0.575500
H481	H48	0.310800	0.913400	0.611500
H491	H49	0.661700	0.205100	0.289500
H501	H50	0.626800	0.210600	0.369200
H511	H51	0.410100	0.023100	0.332700
H521	H52	0.440900	0.023300	0.251100
H531	H53	0.859200	0.605800	0.631700
H541	H54	0.718200	0.539000	0.615200
H551	H55	0.759700	0.408100	0.500900
H561	H56	0.898600	0.469800	0.518500
H571	H57	0.237900	0.425300	0.543900
H581	H58	0.334000	0.371200	0.520800
H591	H59	0.506200	0.539200	0.609600
H601	H60	0.413300	0.600700	0.631400
H611	H61	0.553400	0.246400	0.426800
H621	H62	0.418700	0.140100	0.538800
H631	H63	0.422900	0.001700	0.416700
H641	H64	0.406900	0.293500	0.526800
H651	H65	0.640000	0.312800	0.513400
H661	H66	0.594100	0.503100	0.575400
H671	H67	0.793100	0.229500	0.976200
H681	H68	0.913100	0.304300	0.939100
H691	H69	0.031200	0.390200	0.075500
H701	H70	0.913400	0.310800	0.111500
H711	H71	0.205100	0.661700	0.789500
H721	H72	0.210600	0.626800	0.869200
H731	H73	0.023100	0.410100	0.832700
H741	H74	0.023300	0.440900	0.751100
H751	H75	0.605800	0.859200	0.131700
H761	H76	0.539000	0.718200	0.115200
H771	H77	0.408100	0.759700	0.000900
H781	H78	0.469800	0.898600	0.018500
H791	H79	0.425300	0.237900	0.043900
H801	H80	0.371200	0.334000	0.020800
H811	H81	0.539200	0.506200	0.109600
H821	H82	0.600700	0.413300	0.131400
H831	H83	0.246400	0.553400	0.926800
H841	H84	0.140100	0.418700	0.038800
H851	H85	0.001700	0.422900	0.916700
H861	H86	0.293500	0.406900	0.026800
H871	H87	0.312800	0.640000	0.013400
H881	H88	0.503100	0.594100	0.075400
C811	C81	0.261220	0.839780	0.547450
C821	C82	0.261100	0.840900	0.495900
C831	C83	0.307100	0.911700	0.473500
C841	C84	0.358500	0.983300	0.555900
C851	C85	0.310900	0.913300	0.577100
C861	C86	0.358600	0.981800	0.503940
C871	C87	0.556300	0.115100	0.261300
C881	C88	0.610000	0.169400	0.297870
C891	C89	0.589700	0.172100	0.345740
C901	C90	0.513300	0.117700	0.360140
C911	C91	0.460100	0.061300	0.323700
C921	C92	0.478900	0.060100	0.274900
C931	C93	0.893490	0.545510	0.576100
C941	C94	0.838700	0.565300	0.605500
C951	C95	0.754500	0.525100	0.595900
C961	C96	0.723980	0.463420	0.557200
C971	C97	0.779880	0.446720	0.528050
C981	C98	0.862610	0.484590	0.537640
C991	C99	0.316110	0.518690	0.590500
C1001	C100	0.429630	0.443970	0.566830
C1011	C101	0.292300	0.449100	0.557500
C1021	C102	0.349700	0.415100	0.544900
C1031	C103	0.451300	0.514500	0.596800
C1041	C104	0.395800	0.553000	0.610000
C1051	C105	0.490000	0.124000	0.412520
C1061	C106	0.517100	0.199500	0.440100
C1071	C107	0.490440	0.206560	0.487970
C1081	C108	0.437600	0.135800	0.507600
C1091	C109	0.412460	0.059940	0.482270
C1101	C110	0.439260	0.053340	0.434020
C1111	C111	0.489360	0.405640	0.553330
C1121	C112	0.463370	0.325230	0.530920
C1131	C113	0.518930	0.291670	0.514730
C1141	C114	0.602800	0.336400	0.523470
C1151	C115	0.633380	0.415620	0.546830
C1161	C116	0.574890	0.449310	0.560700
C1171	C117	0.213650	0.762150	0.571080
C1181	C118	0.574100	0.118300	0.207600
C1191	C119	0.986800	0.583800	0.590500
C1201	C120	0.257130	0.560270	0.601420
C1211	C121	0.839780	0.261220	0.047450
C1221	C122	0.840900	0.261100	0.995900
C1231	C123	0.911700	0.307100	0.973500
C1241	C124	0.983300	0.358500	0.055900
C1251	C125	0.913300	0.310900	0.077100
C1261	C126	0.981800	0.358600	0.003940
C1271	C127	0.115100	0.556300	0.761300
C1281	C128	0.169400	0.610000	0.797870
C1291	C129	0.172100	0.589700	0.845740
C1301	C130	0.117700	0.513300	0.860140
C1311	C131	0.061300	0.460100	0.823700
C1321	C132	0.060100	0.478900	0.774900
C1331	C133	0.545510	0.893490	0.076100
C1341	C134	0.565300	0.838700	0.105500
C1351	C135	0.525100	0.754500	0.095900
C1361	C136	0.463420	0.723980	0.057200
C1371	C137	0.446720	0.779880	0.028050
C1381	C138	0.484590	0.862610	0.037640
C1391	C139	0.518690	0.316110	0.090500
C1401	C140	0.443970	0.429630	0.066830
C1411	C141	0.449100	0.292300	0.057500
C1421	C142	0.415100	0.349700	0.044900
C1431	C143	0.514500	0.451300	0.096800
C1441	C144	0.553000	0.395800	0.110000
C1451	C145	0.124000	0.490000	0.912520
C1461	C146	0.199500	0.517100	0.940100
C1471	C147	0.206560	0.490440	0.987970
C1481	C148	0.135800	0.437600	0.007600
C1491	C149	0.059940	0.412460	0.982270
C1501	C150	0.053340	0.439260	0.934020
C1511	C151	0.405640	0.489360	0.053330
C1521	C152	0.325230	0.463370	0.030920
C1531	C153	0.291670	0.518930	0.014730
C1541	C154	0.336400	0.602800	0.023470
C1551	C155	0.415620	0.633380	0.046830
C1561	C156	0.449310	0.574890	0.060700
C1571	C157	0.762150	0.213650	0.071080
C1581	C158	0.118300	0.574100	0.707600
C1591	C159	0.583800	0.986800	0.090500
C1601	C160	0.560270	0.257130	0.101420
O171	O17	0.203510	0.764830	0.616560
O181	O18	0.183920	0.693680	0.544730
O191	O19	0.644880	0.164320	0.197040
O201	O20	0.522400	0.075200	0.175040
O211	O21	0.016390	0.645350	0.621210
O221	O22	0.032160	0.551460	0.569550
O231	O23	0.180760	0.520600	0.590970
O241	O24	0.281770	0.633030	0.620120
O251	O25	0.764830	0.203510	0.116560
O261	O26	0.693680	0.183920	0.044730
O271	O27	0.164320	0.644880	0.697040
O281	O28	0.075200	0.522400	0.675040
O291	O29	0.645350	0.016390	0.121210
O301	O30	0.551460	0.032160	0.069550
O311	O31	0.520600	0.180760	0.090970
O321	O32	0.633030	0.281770	0.120120
H891	H89	0.650900	0.963700	0.886000
H901	H90	0.571800	0.964800	0.901200
H911	H91	0.635900	0.940100	0.971700
H921	H92	0.716900	0.015700	0.963100
H931	H93	0.638200	0.030800	0.979500
H941	H94	0.628800	0.081000	0.857200
H951	H95	0.631400	0.111600	0.913000
H961	H96	0.711400	0.107000	0.891000
C1611	C161	0.657400	0.994800	0.960000
C1621	C162	0.652000	0.081200	0.890200
N11	N1	0.627300	0.991300	0.905200
H971	H97	0.036300	0.349100	0.614000
H981	H98	0.035200	0.428200	0.598800
H991	H99	0.059900	0.364100	0.528300
H1001	H100	0.984300	0.283100	0.536900
H1011	H101	0.969200	0.361800	0.520500
H1021	H102	0.919000	0.371200	0.642800
H1031	H103	0.888400	0.368600	0.587000
H1041	H104	0.893000	0.288600	0.609000
C1631	C163	0.005200	0.342600	0.540000
C1641	C164	0.918800	0.348000	0.609800
N21	N2	0.008700	0.372700	0.594800
H1051	H105	0.349100	0.036300	0.114000
H1061	H106	0.428200	0.035200	0.098800
H1071	H107	0.364100	0.059900	0.028300
H1081	H108	0.283100	0.984300	0.036900
H1091	H109	0.361800	0.969200	0.020500
H1101	H110	0.371200	0.919000	0.142800
H1111	H111	0.368600	0.888400	0.087000
H1121	H112	0.288600	0.893000	0.109000
C1651	C165	0.342600	0.005200	0.040000
C1661	C166	0.348000	0.918800	0.109800
N31	N3	0.372700	0.008700	0.094800
H1131	H113	0.963700	0.650900	0.386000
H1141	H114	0.964800	0.571800	0.401200
H1151	H115	0.940100	0.635900	0.471700
H1161	H116	0.015700	0.716900	0.463100
H1171	H117	0.030800	0.638200	0.479500
H1181	H118	0.081000	0.628800	0.357200
H1191	H119	0.111600	0.631400	0.413000
H1201	H120	0.107000	0.711400	0.391000
C1671	C167	0.994800	0.657400	0.460000
C1681	C168	0.081200	0.652000	0.390200
N41	N4	0.991300	0.627300	0.405200
