data_GEBCAT_freeONLY_PM
_symmetry_space_group_name_H-M	'P1'
_cell_length_a	13.192700
_cell_length_b	13.192700
_cell_length_c	17.692200
_cell_angle_alpha	111.891000
_cell_angle_beta	111.891000
_cell_angle_gamma	90.000100
_symmetry_Int_Tables_number 1

loop_
_symmetry_equiv_pos_as_xyz
'x,y,z'

loop_
_atom_site_label
_atom_site_type_symbol
_atom_site_fract_x
_atom_site_fract_y
_atom_site_fract_z
K11	K1	0.125000	0.039590	0.750000
K21	K2	0.625000	0.710410	0.750000
K31	K3	0.960410	0.375000	0.250000
K41	K4	0.289590	0.875000	0.250000
Co11	Co1	0.259150	0.814330	0.419340
Co21	Co2	0.160190	0.605010	0.419340
Co31	Co3	0.185670	0.839810	0.580660
Co41	Co4	0.394990	0.740850	0.580660
Co51	Co5	0.089810	0.935670	0.080660
Co61	Co6	0.990850	0.144990	0.080660
Co71	Co7	0.855010	0.910190	0.919340
Co81	Co8	0.064330	0.009150	0.919340
Co91	Co9	0.192130	0.192130	0.384260
Co101	Co10	0.807870	0.807870	0.615740
Co111	Co11	0.057870	0.557870	0.115740
Co121	Co12	0.442130	0.942130	0.884260
H11	H1	0.463300	0.115100	0.584200
H21	H2	0.462800	0.992500	0.521000
H31	H3	0.548500	0.975800	0.662600
H41	H4	0.519400	0.088400	0.718600
H51	H5	0.226530	0.256220	0.801080
H61	H6	0.338090	0.289620	0.856860
H71	H7	0.285470	0.204290	0.692760
H81	H8	0.120900	0.469100	0.584200
H91	H9	0.058200	0.528500	0.521000
H101	H10	0.114100	0.686800	0.662600
H111	H11	0.199200	0.630200	0.718600
H121	H12	0.574550	0.544860	0.801080
H131	H13	0.518770	0.567240	0.856860
H141	H14	0.407290	0.488470	0.692760
H151	H15	0.884900	0.879100	0.415800
H161	H16	0.007500	0.941800	0.479000
H171	H17	0.024200	0.885900	0.337400
H181	H18	0.911600	0.800800	0.281400
H191	H19	0.743780	0.425450	0.198920
H201	H20	0.710380	0.481230	0.143140
H211	H21	0.795710	0.592710	0.307240
H221	H22	0.530900	0.536700	0.415800
H231	H23	0.471500	0.537200	0.479000
H241	H24	0.313200	0.451500	0.337400
H251	H25	0.369800	0.480600	0.281400
H261	H26	0.455140	0.773470	0.198920
H271	H27	0.432760	0.661910	0.143140
H281	H28	0.511530	0.714530	0.307240
H291	H29	0.129100	0.634900	0.915800
H301	H30	0.191800	0.757500	0.979000
H311	H31	0.135900	0.774200	0.837400
H321	H32	0.050800	0.661600	0.781400
H331	H33	0.675450	0.493780	0.698920
H341	H34	0.731230	0.460380	0.643140
H351	H35	0.842710	0.545710	0.807240
H361	H36	0.786700	0.280900	0.915800
H371	H37	0.787200	0.221500	0.979000
H381	H38	0.701500	0.063200	0.837400
H391	H39	0.730600	0.119800	0.781400
H401	H40	0.023470	0.205140	0.698920
H411	H41	0.911910	0.182760	0.643140
H421	H42	0.964530	0.261530	0.807240
H431	H43	0.719100	0.870900	0.084200
H441	H44	0.778500	0.808200	0.021000
H451	H45	0.936800	0.864100	0.162600
H461	H46	0.880200	0.949200	0.218600
H471	H47	0.794860	0.324550	0.301080
H481	H48	0.817240	0.268770	0.356860
H491	H49	0.738470	0.157290	0.192760
H501	H50	0.365100	0.213300	0.084200
H511	H51	0.242500	0.212800	0.021000
H521	H52	0.225800	0.298500	0.162600
H531	H53	0.338400	0.269400	0.218600
H541	H54	0.506220	0.976530	0.301080
H551	H55	0.539620	0.088090	0.356860
H561	H56	0.454290	0.035470	0.192760
C11	C1	0.319540	0.054160	0.473300
C21	C2	0.417100	0.041970	0.546480
C31	C3	0.382330	0.994320	0.604020
C41	C4	0.492000	0.008570	0.684200
C51	C5	0.479510	0.955600	0.743840
C61	C6	0.298930	0.062760	0.635940
C71	C7	0.153760	0.419140	0.473300
C81	C8	0.129380	0.504510	0.546480
C91	C9	0.221690	0.609700	0.604020
C101	C10	0.192200	0.675630	0.684200
C111	C11	0.264330	0.788240	0.743840
C121	C12	0.337010	0.573180	0.635940
C131	C13	0.945840	0.846240	0.526700
C141	C14	0.958030	0.870620	0.453520
C151	C15	0.005680	0.778310	0.395980
C161	C16	0.991430	0.807800	0.315800
C171	C17	0.044400	0.735670	0.256160
C181	C18	0.937240	0.662990	0.364060
C191	C19	0.580860	0.680460	0.526700
C201	C20	0.495490	0.582900	0.453520
C211	C21	0.390300	0.617670	0.395980
C221	C22	0.324370	0.508000	0.315800
C231	C23	0.211760	0.520490	0.256160
C241	C24	0.426820	0.701070	0.364060
C251	C25	0.096240	0.695840	0.026700
C261	C26	0.120620	0.708030	0.953520
C271	C27	0.028310	0.755680	0.895980
C281	C28	0.057800	0.741430	0.815800
C291	C29	0.985670	0.794400	0.756160
C301	C30	0.912990	0.687240	0.864060
C311	C31	0.930460	0.330860	0.026700
C321	C32	0.832900	0.245490	0.953520
C331	C33	0.867670	0.140300	0.895980
C341	C34	0.758000	0.074370	0.815800
C351	C35	0.770490	0.961760	0.756160
C361	C36	0.951070	0.176820	0.864060
C371	C37	0.669140	0.903760	0.973300
C381	C38	0.754510	0.879380	0.046480
C391	C39	0.859700	0.971690	0.104020
C401	C40	0.925630	0.942200	0.184200
C411	C41	0.038240	0.014330	0.243840
C421	C42	0.823180	0.087010	0.135940
C431	C43	0.304160	0.069540	0.973300
C441	C44	0.291970	0.167100	0.046480
C451	C45	0.244320	0.132330	0.104020
C461	C46	0.258570	0.242000	0.184200
C471	C47	0.205600	0.229510	0.243840
C481	C48	0.312760	0.048930	0.135940
O11	O1	0.246690	0.970930	0.415240
O21	O2	0.315930	0.152200	0.470800
O31	O3	0.285600	0.228310	0.833560
O41	O4	0.468650	0.849740	0.718040
O51	O5	0.479930	0.019420	0.817780
O61	O6	0.206290	0.011080	0.623320
O71	O7	0.323890	0.168690	0.670220
O81	O8	0.333470	0.878400	0.557340
O91	O9	0.168550	0.444310	0.415240
O101	O10	0.154870	0.318600	0.470800
O111	O11	0.547960	0.605250	0.833560
O121	O12	0.249390	0.868300	0.718040
O131	O13	0.337850	0.798360	0.817780
O141	O14	0.417030	0.612240	0.623320
O151	O15	0.346330	0.501530	0.670220
O161	O16	0.223870	0.678940	0.557340
O171	O17	0.029070	0.831450	0.584760
O181	O18	0.847800	0.845130	0.529200
O191	O19	0.771690	0.452040	0.166440
O201	O20	0.150260	0.750610	0.281960
O211	O21	0.980580	0.662150	0.182220
O221	O22	0.988920	0.582970	0.376680
O231	O23	0.831310	0.653670	0.329780
O241	O24	0.121600	0.776130	0.442660
O251	O25	0.555690	0.753310	0.584760
O261	O26	0.681400	0.684070	0.529200
O271	O27	0.394750	0.714400	0.166440
O281	O28	0.131700	0.531350	0.281960
O291	O29	0.201640	0.520070	0.182220
O301	O30	0.387760	0.793710	0.376680
O311	O31	0.498470	0.676110	0.329780
O321	O32	0.321060	0.666530	0.442660
O331	O33	0.081450	0.779070	0.084760
O341	O34	0.095130	0.597800	0.029200
O351	O35	0.702040	0.521690	0.666440
O361	O36	0.000610	0.900260	0.781960
O371	O37	0.912150	0.730580	0.682220
O381	O38	0.832970	0.738920	0.876680
O391	O39	0.903670	0.581310	0.829780
O401	O40	0.026130	0.871600	0.942660
O411	O41	0.003310	0.305690	0.084760
O421	O42	0.934070	0.431400	0.029200
O431	O43	0.964400	0.144750	0.666440
O441	O44	0.781350	0.881700	0.781960
O451	O45	0.770070	0.951640	0.682220
O461	O46	0.043710	0.137760	0.876680
O471	O47	0.926110	0.248470	0.829780
O481	O48	0.916530	0.071060	0.942660
O491	O49	0.694310	0.918550	0.915240
O501	O50	0.568600	0.904870	0.970800
O511	O51	0.855250	0.297960	0.333560
O521	O52	0.118300	0.999390	0.218040
O531	O53	0.048360	0.087850	0.317780
O541	O54	0.862240	0.167030	0.123320
O551	O55	0.751530	0.096330	0.170220
O561	O56	0.928940	0.973870	0.057340
O571	O57	0.220930	0.996690	0.915240
O581	O58	0.402200	0.065930	0.970800
O591	O59	0.478310	0.035600	0.333560
O601	O60	0.099740	0.218650	0.218040
O611	O61	0.269420	0.229930	0.317780
O621	O62	0.261080	0.956290	0.123320
O631	O63	0.418690	0.073890	0.170220
O641	O64	0.128400	0.083470	0.057340
