data_GEDLIM_freeONLY_PM
_symmetry_space_group_name_H-M	'P1'
_cell_length_a	12.884200
_cell_length_b	14.595600
_cell_length_c	14.595600
_cell_angle_alpha	90.000000
_cell_angle_beta	90.000000
_cell_angle_gamma	90.000000
_symmetry_Int_Tables_number 1

loop_
_symmetry_equiv_pos_as_xyz
'x,y,z'

loop_
_atom_site_label
_atom_site_type_symbol
_atom_site_fract_x
_atom_site_fract_y
_atom_site_fract_z
Zn11	Zn1	0.000000	0.500000	0.000000
Zn21	Zn2	0.500000	0.000000	0.500000
H11	H1	0.978400	0.191700	0.188600
H21	H2	0.862000	0.098500	0.270300
H31	H3	0.623100	0.243700	0.168800
H41	H4	0.736500	0.338000	0.090400
H51	H5	0.563600	0.057800	0.178800
H61	H6	0.787300	0.095700	0.443000
H71	H7	0.747800	0.195100	0.416800
H81	H8	0.691900	0.139400	0.495800
H91	H9	0.978400	0.808300	0.811400
H101	H10	0.862000	0.901500	0.729700
H111	H11	0.623100	0.756300	0.831200
H121	H12	0.736500	0.662000	0.909600
H131	H13	0.563600	0.942200	0.821200
H141	H14	0.787300	0.904300	0.557000
H151	H15	0.747800	0.804900	0.583200
H161	H16	0.691900	0.860600	0.504200
H171	H17	0.478400	0.691700	0.311400
H181	H18	0.362000	0.598500	0.229700
H191	H19	0.123100	0.743700	0.331200
H201	H20	0.236500	0.838000	0.409600
H211	H21	0.063600	0.557800	0.321200
H221	H22	0.287300	0.595700	0.057000
H231	H23	0.247800	0.695100	0.083200
H241	H24	0.191900	0.639400	0.004200
H251	H25	0.478400	0.308300	0.688600
H261	H26	0.362000	0.401500	0.770300
H271	H27	0.123100	0.256300	0.668800
H281	H28	0.236500	0.162000	0.590400
H291	H29	0.063600	0.442200	0.678800
H301	H30	0.287300	0.404300	0.943000
H311	H31	0.247800	0.304900	0.916800
H321	H32	0.191900	0.360600	0.995800
C11	C1	0.944500	0.335300	0.080200
C21	C2	0.869900	0.273400	0.128900
C31	C3	0.906600	0.202300	0.184200
C41	C4	0.837600	0.146500	0.233300
C51	C5	0.732300	0.164200	0.225600
C61	C6	0.695000	0.233700	0.172800
C71	C7	0.762500	0.289100	0.125400
C81	C8	0.578800	0.060700	0.241700
C91	C9	0.655300	0.094700	0.369500
C101	C10	0.726600	0.134600	0.437000
C111	C11	0.944500	0.664700	0.919800
C121	C12	0.869900	0.726600	0.871100
C131	C13	0.906600	0.797700	0.815800
C141	C14	0.837600	0.853500	0.766700
C151	C15	0.732300	0.835800	0.774400
C161	C16	0.695000	0.766300	0.827200
C171	C17	0.762500	0.710900	0.874600
C181	C18	0.578800	0.939300	0.758300
C191	C19	0.655300	0.905300	0.630500
C201	C20	0.726600	0.865400	0.563000
C211	C21	0.444500	0.835300	0.419800
C221	C22	0.369900	0.773400	0.371100
C231	C23	0.406600	0.702300	0.315800
C241	C24	0.337600	0.646500	0.266700
C251	C25	0.232300	0.664200	0.274400
C261	C26	0.195000	0.733700	0.327200
C271	C27	0.262500	0.789100	0.374600
C281	C28	0.078800	0.560700	0.258300
C291	C29	0.155300	0.594700	0.130500
C301	C30	0.226600	0.634600	0.063000
C311	C31	0.444500	0.164700	0.580200
C321	C32	0.369900	0.226600	0.628900
C331	C33	0.406600	0.297700	0.684200
C341	C34	0.337600	0.353500	0.733300
C351	C35	0.232300	0.335800	0.725600
C361	C36	0.195000	0.266300	0.672800
C371	C37	0.262500	0.210900	0.625400
C381	C38	0.078800	0.439300	0.741700
C391	C39	0.155300	0.405300	0.869500
C401	C40	0.226600	0.365400	0.937000
N11	N1	0.524000	0.019800	0.304800
N21	N2	0.574000	0.041700	0.386200
N31	N3	0.660500	0.108300	0.277500
N41	N4	0.524000	0.980200	0.695200
N51	N5	0.574000	0.958300	0.613800
N61	N6	0.660500	0.891700	0.722500
N71	N7	0.024000	0.519800	0.195200
N81	N8	0.074000	0.541700	0.113800
N91	N9	0.160500	0.608300	0.222500
N101	N10	0.024000	0.480200	0.804800
N111	N11	0.074000	0.458300	0.886200
N121	N12	0.160500	0.391700	0.777500
O11	O1	0.902700	0.404300	0.040100
O21	O2	0.039200	0.318100	0.080000
O31	O3	0.902700	0.595700	0.959900
O41	O4	0.039200	0.681900	0.920000
O51	O5	0.402700	0.904300	0.459900
O61	O6	0.539200	0.818100	0.420000
O71	O7	0.402700	0.095700	0.540100
O81	O8	0.539200	0.181900	0.580000
Zn31	Zn3	0.000000	0.000000	0.500000
Zn41	Zn4	0.500000	0.500000	0.000000
H331	H33	0.978400	0.811400	0.191700
H341	H34	0.862000	0.729700	0.098500
H351	H35	0.623100	0.831200	0.243700
H361	H36	0.736500	0.909600	0.338000
H371	H37	0.563600	0.821200	0.057800
H381	H38	0.787300	0.557000	0.095700
H391	H39	0.747800	0.583200	0.195100
H401	H40	0.691900	0.504200	0.139400
H411	H41	0.978400	0.188600	0.808300
H421	H42	0.862000	0.270300	0.901500
H431	H43	0.623100	0.168800	0.756300
H441	H44	0.736500	0.090400	0.662000
H451	H45	0.563600	0.178800	0.942200
H461	H46	0.787300	0.443000	0.904300
H471	H47	0.747800	0.416800	0.804900
H481	H48	0.691900	0.495800	0.860600
H491	H49	0.478400	0.311400	0.308300
H501	H50	0.362000	0.229700	0.401500
H511	H51	0.123100	0.331200	0.256300
H521	H52	0.236500	0.409600	0.162000
H531	H53	0.063600	0.321200	0.442200
H541	H54	0.287300	0.057000	0.404300
H551	H55	0.247800	0.083200	0.304900
H561	H56	0.191900	0.004200	0.360600
H571	H57	0.478400	0.688600	0.691700
H581	H58	0.362000	0.770300	0.598500
H591	H59	0.123100	0.668800	0.743700
H601	H60	0.236500	0.590400	0.838000
H611	H61	0.063600	0.678800	0.557800
H621	H62	0.287300	0.943000	0.595700
H631	H63	0.247800	0.916800	0.695100
H641	H64	0.191900	0.995800	0.639400
C411	C41	0.944500	0.919800	0.335300
C421	C42	0.869900	0.871100	0.273400
C431	C43	0.906600	0.815800	0.202300
C441	C44	0.837600	0.766700	0.146500
C451	C45	0.732300	0.774400	0.164200
C461	C46	0.695000	0.827200	0.233700
C471	C47	0.762500	0.874600	0.289100
C481	C48	0.578800	0.758300	0.060700
C491	C49	0.655300	0.630500	0.094700
C501	C50	0.726600	0.563000	0.134600
C511	C51	0.944500	0.080200	0.664700
C521	C52	0.869900	0.128900	0.726600
C531	C53	0.906600	0.184200	0.797700
C541	C54	0.837600	0.233300	0.853500
C551	C55	0.732300	0.225600	0.835800
C561	C56	0.695000	0.172800	0.766300
C571	C57	0.762500	0.125400	0.710900
C581	C58	0.578800	0.241700	0.939300
C591	C59	0.655300	0.369500	0.905300
C601	C60	0.726600	0.437000	0.865400
C611	C61	0.444500	0.419800	0.164700
C621	C62	0.369900	0.371100	0.226600
C631	C63	0.406600	0.315800	0.297700
C641	C64	0.337600	0.266700	0.353500
C651	C65	0.232300	0.274400	0.335800
C661	C66	0.195000	0.327200	0.266300
C671	C67	0.262500	0.374600	0.210900
C681	C68	0.078800	0.258300	0.439300
C691	C69	0.155300	0.130500	0.405300
C701	C70	0.226600	0.063000	0.365400
C711	C71	0.444500	0.580200	0.835300
C721	C72	0.369900	0.628900	0.773400
C731	C73	0.406600	0.684200	0.702300
C741	C74	0.337600	0.733300	0.646500
C751	C75	0.232300	0.725600	0.664200
C761	C76	0.195000	0.672800	0.733700
C771	C77	0.262500	0.625400	0.789100
C781	C78	0.078800	0.741700	0.560700
C791	C79	0.155300	0.869500	0.594700
C801	C80	0.226600	0.937000	0.634600
N131	N13	0.524000	0.695200	0.019800
N141	N14	0.574000	0.613800	0.041700
N151	N15	0.660500	0.722500	0.108300
N161	N16	0.524000	0.304800	0.980200
N171	N17	0.574000	0.386200	0.958300
N181	N18	0.660500	0.277500	0.891700
N191	N19	0.024000	0.195200	0.480200
N201	N20	0.074000	0.113800	0.458300
N211	N21	0.160500	0.222500	0.391700
N221	N22	0.024000	0.804800	0.519800
N231	N23	0.074000	0.886200	0.541700
N241	N24	0.160500	0.777500	0.608300
O91	O9	0.902700	0.959900	0.404300
O101	O10	0.039200	0.920000	0.318100
O111	O11	0.902700	0.040100	0.595700
O121	O12	0.039200	0.080000	0.681900
O131	O13	0.402700	0.459900	0.095700
O141	O14	0.539200	0.420000	0.181900
O151	O15	0.402700	0.540100	0.904300
O161	O16	0.539200	0.580000	0.818100
