data_GEDROY_freeONLY_PM
_symmetry_space_group_name_H-M	'P1'
_cell_length_a	12.300200
_cell_length_b	14.523200
_cell_length_c	15.986000
_cell_angle_alpha	117.017000
_cell_angle_beta	104.890000
_cell_angle_gamma	90.000000
_symmetry_Int_Tables_number 1

loop_
_symmetry_equiv_pos_as_xyz
'x,y,z'

loop_
_atom_site_label
_atom_site_type_symbol
_atom_site_fract_x
_atom_site_fract_y
_atom_site_fract_z
Nd11	Nd1	0.929600	0.895560	0.355920
Nd21	Nd2	0.570400	0.539640	0.644080
Nd31	Nd3	0.070400	0.104440	0.644080
Nd41	Nd4	0.429600	0.460360	0.355920
H11	H1	0.037700	0.963700	0.109600
H21	H2	0.096400	0.929600	0.971600
H31	H3	0.120500	0.633300	0.922600
H41	H4	0.062800	0.670600	0.060800
H51	H5	0.071100	0.876900	0.682600
H61	H6	0.268300	0.668000	0.715400
H71	H7	0.172000	0.668700	0.456200
H81	H8	0.613200	0.986100	0.235400
H91	H9	0.617500	0.919100	0.290000
H101	H10	0.671900	0.036400	0.348600
H111	H11	0.112000	0.676000	0.796000
H121	H12	0.462300	0.854100	0.890400
H131	H13	0.403600	0.958000	0.028400
H141	H14	0.379500	0.710700	0.077400
H151	H15	0.437200	0.609800	0.939200
H161	H16	0.428900	0.194300	0.317400
H171	H17	0.231700	0.952600	0.284600
H181	H18	0.328000	0.212500	0.543800
H191	H19	0.886800	0.750700	0.764600
H201	H20	0.882500	0.629100	0.710000
H211	H21	0.828100	0.687800	0.651400
H221	H22	0.388000	0.880000	0.204000
H231	H23	0.962300	0.036300	0.890400
H241	H24	0.903600	0.070400	0.028400
H251	H25	0.879500	0.366700	0.077400
H261	H26	0.937200	0.329400	0.939200
H271	H27	0.928900	0.123100	0.317400
H281	H28	0.731700	0.332000	0.284600
H291	H29	0.828000	0.331300	0.543800
H301	H30	0.386800	0.013900	0.764600
H311	H31	0.382500	0.080900	0.710000
H321	H32	0.328100	0.963600	0.651400
H331	H33	0.888000	0.324000	0.204000
H341	H34	0.537700	0.145900	0.109600
H351	H35	0.596400	0.042000	0.971600
H361	H36	0.620500	0.289300	0.922600
H371	H37	0.562800	0.390200	0.060800
H381	H38	0.571100	0.805700	0.682600
H391	H39	0.768300	0.047400	0.715400
H401	H40	0.672000	0.787500	0.456200
H411	H41	0.113200	0.249300	0.235400
H421	H42	0.117500	0.370900	0.290000
H431	H43	0.171900	0.312200	0.348600
H441	H44	0.612000	0.120000	0.796000
C11	C1	0.001600	0.844800	0.184400
C21	C2	0.045400	0.819600	0.098400
C31	C3	0.054300	0.897600	0.071800
C41	C4	0.088200	0.877000	0.988400
C51	C5	0.109100	0.777500	0.931600
C61	C6	0.102700	0.699300	0.959400
C71	C7	0.069100	0.722300	0.042600
C81	C8	0.135700	0.747200	0.838000
C91	C9	0.050400	0.824600	0.496200
C101	C10	0.112300	0.779800	0.559200
C111	C11	0.109100	0.820000	0.656000
C121	C12	0.163200	0.774200	0.712400
C131	C13	0.228200	0.695100	0.675800
C141	C14	0.233100	0.656300	0.579400
C151	C15	0.172500	0.697100	0.521400
C161	C16	0.305600	0.572100	0.539400
C171	C17	0.657800	0.973600	0.287200
C181	C18	0.498400	0.660400	0.815600
C191	C19	0.454600	0.721200	0.901600
C201	C20	0.445700	0.825800	0.928200
C211	C21	0.411800	0.888600	0.011600
C221	C22	0.390900	0.845900	0.068400
C231	C23	0.397300	0.739900	0.040600
C241	C24	0.430900	0.679700	0.957400
C251	C25	0.364300	0.909200	0.162000
C261	C26	0.449600	0.328400	0.503800
C271	C27	0.387700	0.220600	0.440800
C281	C28	0.390900	0.164000	0.344000
C291	C29	0.336800	0.061800	0.287600
C301	C30	0.271800	0.019300	0.324200
C311	C31	0.266900	0.076900	0.420600
C321	C32	0.327500	0.175700	0.478600
C331	C33	0.194400	0.032700	0.460600
C341	C34	0.842200	0.686400	0.712800
C351	C35	0.998400	0.155200	0.815600
C361	C36	0.954600	0.180400	0.901600
C371	C37	0.945700	0.102400	0.928200
C381	C38	0.911800	0.123000	0.011600
C391	C39	0.890900	0.222500	0.068400
C401	C40	0.897300	0.300700	0.040600
C411	C41	0.930900	0.277700	0.957400
C421	C42	0.864300	0.252800	0.162000
C431	C43	0.949600	0.175400	0.503800
C441	C44	0.887700	0.220200	0.440800
C451	C45	0.890900	0.180000	0.344000
C461	C46	0.836800	0.225800	0.287600
C471	C47	0.771800	0.304900	0.324200
C481	C48	0.766900	0.343700	0.420600
C491	C49	0.827500	0.302900	0.478600
C501	C50	0.694400	0.427900	0.460600
C511	C51	0.342200	0.026400	0.712800
C521	C52	0.501600	0.339600	0.184400
C531	C53	0.545400	0.278800	0.098400
C541	C54	0.554300	0.174200	0.071800
C551	C55	0.588200	0.111400	0.988400
C561	C56	0.609100	0.154100	0.931600
C571	C57	0.602700	0.260100	0.959400
C581	C58	0.569100	0.320300	0.042600
C591	C59	0.635700	0.090800	0.838000
C601	C60	0.550400	0.671600	0.496200
C611	C61	0.612300	0.779400	0.559200
C621	C62	0.609100	0.836000	0.656000
C631	C63	0.663200	0.938200	0.712400
C641	C64	0.728200	0.980700	0.675800
C651	C65	0.733100	0.923100	0.579400
C661	C66	0.672500	0.824300	0.521400
C671	C67	0.805600	0.967300	0.539400
C681	C68	0.157800	0.313600	0.287200
N11	N1	0.149000	0.813300	0.808000
N21	N2	0.351000	0.005300	0.192000
N31	N3	0.851000	0.186700	0.192000
N41	N4	0.649000	0.994700	0.808000
O11	O1	0.996600	0.773700	0.211000
O21	O2	0.966200	0.930400	0.226000
O31	O3	0.017600	0.767100	0.404000
O41	O4	0.030100	0.918200	0.536000
O51	O5	0.297700	0.533900	0.448800
O61	O6	0.367100	0.544800	0.597800
O71	O7	0.759400	0.944800	0.269800
O81	O8	0.793400	0.732200	0.257400
O91	O9	0.503400	0.562700	0.789000
O101	O10	0.533800	0.704400	0.774000
O111	O11	0.482400	0.363100	0.596000
O121	O12	0.469900	0.382200	0.464000
O131	O13	0.202300	0.085100	0.551200
O141	O14	0.132900	0.947000	0.402200
O151	O15	0.740600	0.675000	0.730200
O161	O16	0.706600	0.474800	0.742600
O171	O17	0.003400	0.226300	0.789000
O181	O18	0.033800	0.069600	0.774000
O191	O19	0.982400	0.232900	0.596000
O201	O20	0.969900	0.081800	0.464000
O211	O21	0.702300	0.466100	0.551200
O221	O22	0.632900	0.455200	0.402200
O231	O23	0.240600	0.055200	0.730200
O241	O24	0.206600	0.267800	0.742600
O251	O25	0.496600	0.437300	0.211000
O261	O26	0.466200	0.295600	0.226000
O271	O27	0.517600	0.636900	0.404000
O281	O28	0.530100	0.617800	0.536000
O291	O29	0.797700	0.914900	0.448800
O301	O30	0.867100	0.053000	0.597800
O311	O31	0.259400	0.325000	0.269800
O321	O32	0.293400	0.525200	0.257400
