data_GEDRUE_freeONLY_PM
_symmetry_space_group_name_H-M	'P1'
_cell_length_a	13.247400
_cell_length_b	14.376900
_cell_length_c	16.108800
_cell_angle_alpha	116.503000
_cell_angle_beta	99.494800
_cell_angle_gamma	90.000000
_symmetry_Int_Tables_number 1

loop_
_symmetry_equiv_pos_as_xyz
'x,y,z'

loop_
_atom_site_label
_atom_site_type_symbol
_atom_site_fract_x
_atom_site_fract_y
_atom_site_fract_z
Nd11	Nd1	0.453320	0.468710	0.362880
Nd21	Nd2	0.046680	0.105830	0.637120
Nd31	Nd3	0.546680	0.531290	0.637120
Nd41	Nd4	0.953320	0.894170	0.362880
H11	H1	0.585900	0.383300	0.066000
H21	H2	0.633800	0.278200	0.924600
H31	H3	0.606400	0.031600	0.975400
H41	H4	0.551900	0.135200	0.113600
H51	H5	0.659000	0.118000	0.812000
H61	H6	0.575000	0.800000	0.681600
H71	H7	0.774800	0.028000	0.713600
H81	H8	0.695200	0.780800	0.462000
H91	H9	0.301900	0.213700	0.178600
H101	H10	0.268600	0.300300	0.147800
H111	H11	0.108100	0.272900	0.147800
H121	H12	0.141500	0.160200	0.126600
H131	H13	0.060800	0.258300	0.271400
H141	H14	0.153900	0.192500	0.280400
H151	H15	0.226900	0.355800	0.397400
H161	H16	0.164500	0.415000	0.346000
H171	H17	0.914100	0.317300	0.934000
H181	H18	0.866200	0.353600	0.075400
H191	H19	0.893600	0.056200	0.024600
H201	H20	0.948100	0.021600	0.886400
H211	H21	0.841000	0.306000	0.188000
H221	H22	0.925000	0.118400	0.318400
H231	H23	0.725200	0.314400	0.286400
H241	H24	0.804800	0.318800	0.538000
H251	H25	0.198100	0.035100	0.821400
H261	H26	0.231400	0.152500	0.852200
H271	H27	0.391900	0.125100	0.852200
H281	H28	0.358500	0.033600	0.873400
H291	H29	0.439200	0.986900	0.728600
H301	H30	0.346100	0.912100	0.719600
H311	H31	0.273100	0.958400	0.602600
H321	H32	0.335500	0.069000	0.654000
H331	H33	0.414100	0.616700	0.934000
H341	H34	0.366200	0.721800	0.075400
H351	H35	0.393600	0.968400	0.024600
H361	H36	0.448100	0.864800	0.886400
H371	H37	0.341000	0.882000	0.188000
H381	H38	0.425000	0.200000	0.318400
H391	H39	0.225200	0.972000	0.286400
H401	H40	0.304800	0.219200	0.538000
H411	H41	0.698100	0.786300	0.821400
H421	H42	0.731400	0.699700	0.852200
H431	H43	0.891900	0.727100	0.852200
H441	H44	0.858500	0.839800	0.873400
H451	H45	0.939200	0.741700	0.728600
H461	H46	0.846100	0.807500	0.719600
H471	H47	0.773100	0.644200	0.602600
H481	H48	0.835500	0.585000	0.654000
H491	H49	0.085900	0.682700	0.066000
H501	H50	0.133800	0.646400	0.924600
H511	H51	0.106400	0.943800	0.975400
H521	H52	0.051900	0.978400	0.113600
H531	H53	0.159000	0.694000	0.812000
H541	H54	0.075000	0.881600	0.681600
H551	H55	0.274800	0.685600	0.713600
H561	H56	0.195200	0.681200	0.462000
H571	H57	0.801900	0.964900	0.178600
H581	H58	0.768600	0.847500	0.147800
H591	H59	0.608100	0.874900	0.147800
H601	H60	0.641500	0.966400	0.126600
H611	H61	0.560800	0.013100	0.271400
H621	H62	0.653900	0.087900	0.280400
H631	H63	0.726900	0.041600	0.397400
H641	H64	0.664500	0.931000	0.346000
C11	C1	0.520700	0.336800	0.191800
C21	C2	0.561100	0.270200	0.104200
C31	C3	0.588000	0.312100	0.047000
C41	C4	0.617600	0.249400	0.962800
C51	C5	0.623600	0.143900	0.934200
C61	C6	0.600300	0.102100	0.992800
C71	C7	0.568600	0.164200	0.075800
C81	C8	0.648900	0.079100	0.841800
C91	C9	0.566500	0.670100	0.500400
C101	C10	0.625200	0.774300	0.561800
C111	C11	0.615900	0.829000	0.656000
C121	C12	0.668000	0.927400	0.712200
C131	C13	0.735800	0.965100	0.675400
C141	C14	0.746200	0.909700	0.581800
C151	C15	0.690000	0.816400	0.525400
C161	C16	0.820100	0.953400	0.542400
C171	C17	0.258800	0.271200	0.190200
C181	C18	0.152600	0.233500	0.171800
C191	C19	0.132700	0.249900	0.267400
C201	C20	0.202100	0.354200	0.336600
C211	C21	0.979300	0.145000	0.808200
C221	C22	0.938900	0.166000	0.895800
C231	C23	0.912000	0.265100	0.953000
C241	C24	0.882400	0.286600	0.037200
C251	C25	0.876400	0.209700	0.065800
C261	C26	0.899700	0.109300	0.007200
C271	C27	0.931400	0.088400	0.924200
C281	C28	0.851100	0.237300	0.158200
C291	C29	0.933500	0.169700	0.499600
C301	C30	0.874800	0.212500	0.438200
C311	C31	0.884100	0.173000	0.344000
C321	C32	0.832000	0.215200	0.287800
C331	C33	0.764200	0.289700	0.324600
C341	C34	0.753800	0.327900	0.418200
C351	C35	0.810000	0.291000	0.474600
C361	C36	0.679900	0.411000	0.457600
C371	C37	0.241200	0.081000	0.809800
C381	C38	0.347400	0.061700	0.828200
C391	C39	0.367300	0.982500	0.732600
C401	C40	0.297900	0.017600	0.663400
C411	C41	0.479300	0.663200	0.808200
C421	C42	0.438900	0.729800	0.895800
C431	C43	0.412000	0.687900	0.953000
C441	C44	0.382400	0.750600	0.037200
C451	C45	0.376400	0.856100	0.065800
C461	C46	0.399700	0.897900	0.007200
C471	C47	0.431400	0.835800	0.924200
C481	C48	0.351100	0.920900	0.158200
C491	C49	0.433500	0.329900	0.499600
C501	C50	0.374800	0.225700	0.438200
C511	C51	0.384100	0.171000	0.344000
C521	C52	0.332000	0.072600	0.287800
C531	C53	0.264200	0.034900	0.324600
C541	C54	0.253800	0.090300	0.418200
C551	C55	0.310000	0.183600	0.474600
C561	C56	0.179900	0.046600	0.457600
C571	C57	0.741200	0.728800	0.809800
C581	C58	0.847400	0.766500	0.828200
C591	C59	0.867300	0.750100	0.732600
C601	C60	0.797900	0.645800	0.663400
C611	C61	0.020700	0.855000	0.191800
C621	C62	0.061100	0.834000	0.104200
C631	C63	0.088000	0.734900	0.047000
C641	C64	0.117600	0.713400	0.962800
C651	C65	0.123600	0.790300	0.934200
C661	C66	0.100300	0.890700	0.992800
C671	C67	0.068600	0.911600	0.075800
C681	C68	0.148900	0.762700	0.841800
C691	C69	0.066500	0.830300	0.500400
C701	C70	0.125200	0.787500	0.561800
C711	C71	0.115900	0.827000	0.656000
C721	C72	0.168000	0.784800	0.712200
C731	C73	0.235800	0.710300	0.675400
C741	C74	0.246200	0.672100	0.581800
C751	C75	0.190000	0.709000	0.525400
C761	C76	0.320100	0.589000	0.542400
C771	C77	0.758800	0.919000	0.190200
C781	C78	0.652600	0.938300	0.171800
C791	C79	0.632700	0.017500	0.267400
C801	C80	0.702100	0.982400	0.336600
N11	N1	0.650000	0.980960	0.805920
N21	N2	0.850000	0.175040	0.194080
N31	N3	0.350000	0.019040	0.194080
N41	N4	0.150000	0.824960	0.805920
O11	O1	0.488600	0.295940	0.237280
O21	O2	0.521300	0.434150	0.217100
O31	O3	0.545700	0.639680	0.411760
O41	O4	0.538100	0.615860	0.536720
O51	O5	0.868600	0.039380	0.597160
O61	O6	0.826900	0.898950	0.457500
O71	O7	0.338000	0.541100	0.268600
O81	O8	0.288100	0.350400	0.287200
O91	O9	0.011400	0.058660	0.762720
O101	O10	0.978700	0.217050	0.782900
O111	O11	0.954300	0.227920	0.588240
O121	O12	0.961900	0.079140	0.463280
O131	O13	0.631400	0.442220	0.402840
O141	O14	0.673100	0.441450	0.542500
O151	O15	0.162000	0.272500	0.731400
O161	O16	0.211900	0.063200	0.712800
O171	O17	0.511400	0.704060	0.762720
O181	O18	0.478700	0.565850	0.782900
O191	O19	0.454300	0.360320	0.588240
O201	O20	0.461900	0.384140	0.463280
O211	O21	0.131400	0.960620	0.402840
O221	O22	0.173100	0.101050	0.542500
O231	O23	0.662000	0.458900	0.731400
O241	O24	0.711900	0.649600	0.712800
O251	O25	0.988600	0.941340	0.237280
O261	O26	0.021300	0.782950	0.217100
O271	O27	0.045700	0.772080	0.411760
O281	O28	0.038100	0.920860	0.536720
O291	O29	0.368600	0.557780	0.597160
O301	O30	0.326900	0.558550	0.457500
O311	O31	0.838000	0.727500	0.268600
O321	O32	0.788100	0.936800	0.287200
