data_GEDSUF_freeONLY_PM
_symmetry_space_group_name_H-M	'P1'
_cell_length_a	13.682400
_cell_length_b	15.001200
_cell_length_c	15.649000
_cell_angle_alpha	95.751000
_cell_angle_beta	113.163000
_cell_angle_gamma	90.493000
_symmetry_Int_Tables_number 1

loop_
_symmetry_equiv_pos_as_xyz
'x,y,z'

loop_
_atom_site_label
_atom_site_type_symbol
_atom_site_fract_x
_atom_site_fract_y
_atom_site_fract_z
Nd11	Nd1	0.506990	0.520270	0.133960
Nd21	Nd2	0.889670	0.968510	0.868940
Nd31	Nd3	0.493010	0.479730	0.866040
Nd41	Nd4	0.110330	0.031490	0.131060
H11	H1	0.869000	0.461000	0.383800
H21	H2	0.980400	0.403700	0.516700
H31	H3	0.729300	0.296600	0.547400
H41	H4	0.618000	0.355300	0.415000
H51	H5	0.213200	0.392400	0.797600
H61	H6	0.233200	0.269800	0.021500
H71	H7	0.986200	0.209000	0.775100
H81	H8	0.729600	0.063300	0.546300
H91	H9	0.726700	0.115100	0.411800
H101	H10	0.045500	0.119700	0.516200
H111	H11	0.046300	0.064000	0.648700
H121	H12	0.686100	0.291200	0.207400
H131	H13	0.722400	0.236200	0.965700
H141	H14	0.883200	0.103400	0.185900
H151	H15	0.315400	0.664100	0.158700
H161	H16	0.174200	0.691300	0.199000
H171	H17	0.115600	0.558200	0.242200
H181	H18	0.210600	0.431900	0.277300
H191	H19	0.364300	0.438500	0.244300
H201	H20	0.623100	0.028800	0.784100
H211	H21	0.446300	0.982900	0.743900
H221	H22	0.403300	0.832500	0.743500
H231	H23	0.537100	0.735200	0.790800
H241	H24	0.709100	0.784200	0.830400
H251	H25	0.889000	0.268000	0.657000
H261	H26	0.940000	0.161000	0.347000
H271	H27	0.131000	0.539000	0.616200
H281	H28	0.019600	0.596300	0.483300
H291	H29	0.270700	0.703400	0.452600
H301	H30	0.382000	0.644700	0.585000
H311	H31	0.786800	0.607600	0.202400
H321	H32	0.766800	0.730200	0.978500
H331	H33	0.013800	0.791000	0.224900
H341	H34	0.270400	0.936700	0.453700
H351	H35	0.273300	0.884900	0.588200
H361	H36	0.954500	0.880300	0.483800
H371	H37	0.953700	0.936000	0.351300
H381	H38	0.313900	0.708800	0.792600
H391	H39	0.277600	0.763800	0.034300
H401	H40	0.116800	0.896600	0.814100
H411	H41	0.684600	0.335900	0.841300
H421	H42	0.825800	0.308700	0.801000
H431	H43	0.884400	0.441800	0.757800
H441	H44	0.789400	0.568100	0.722700
H451	H45	0.635700	0.561500	0.755700
H461	H46	0.376900	0.971200	0.215900
H471	H47	0.553700	0.017100	0.256100
H481	H48	0.596700	0.167500	0.256500
H491	H49	0.462900	0.264800	0.209200
H501	H50	0.290900	0.215800	0.169600
H511	H51	0.111000	0.732000	0.343000
H521	H52	0.060000	0.839000	0.653000
C11	C1	0.657200	0.459000	0.303800
C21	C2	0.731000	0.416900	0.386400
C31	C3	0.840300	0.429100	0.417100
C41	C4	0.907200	0.394200	0.496800
C51	C5	0.867500	0.345500	0.547800
C61	C6	0.757900	0.330600	0.515400
C71	C7	0.691200	0.365900	0.435900
C81	C8	0.934700	0.312300	0.636600
C91	C9	0.088300	0.306800	0.772500
C101	C10	0.184200	0.352900	0.824700
C111	C11	0.237900	0.339700	0.919400
C121	C12	0.197700	0.277700	0.958700
C131	C13	0.104000	0.227000	0.904100
C141	C14	0.049200	0.242100	0.811500
C151	C15	0.334100	0.397000	0.982000
C161	C16	0.062600	0.155700	0.944300
C171	C17	0.889200	0.017900	0.696700
C181	C18	0.888400	0.057300	0.611800
C191	C19	0.793400	0.073700	0.540000
C201	C20	0.791400	0.105100	0.459300
C211	C21	0.886100	0.121700	0.449300
C221	C22	0.981400	0.107300	0.521400
C231	C23	0.981800	0.074500	0.601300
C241	C24	0.882200	0.151100	0.361200
C251	C25	0.786600	0.193500	0.210800
C261	C26	0.717500	0.258900	0.172000
C271	C27	0.694200	0.277100	0.081000
C281	C28	0.738500	0.225800	0.027300
C291	C29	0.806800	0.158800	0.065600
C301	C30	0.833600	0.145100	0.158800
C311	C31	0.621000	0.350500	0.042700
C321	C32	0.842600	0.097100	0.003400
C331	C33	0.296800	0.619600	0.187700
C341	C34	0.208900	0.638000	0.205100
C351	C35	0.180000	0.557100	0.235200
C361	C36	0.231400	0.480500	0.254700
C371	C37	0.322600	0.488200	0.234200
C381	C38	0.605800	0.969100	0.785900
C391	C39	0.499200	0.941700	0.760800
C401	C40	0.473800	0.852600	0.761400
C411	C41	0.552800	0.795200	0.788600
C421	C42	0.655900	0.825000	0.812800
C431	C43	0.342800	0.541000	0.696200
C441	C44	0.269000	0.583100	0.613600
C451	C45	0.159700	0.570900	0.582900
C461	C46	0.092800	0.605800	0.503200
C471	C47	0.132500	0.654500	0.452200
C481	C48	0.242100	0.669400	0.484600
C491	C49	0.308800	0.634100	0.564100
C501	C50	0.065300	0.687700	0.363400
C511	C51	0.911700	0.693200	0.227500
C521	C52	0.815800	0.647100	0.175300
C531	C53	0.762100	0.660300	0.080600
C541	C54	0.802300	0.722300	0.041300
C551	C55	0.896000	0.773000	0.095900
C561	C56	0.950800	0.757900	0.188500
C571	C57	0.665900	0.603000	0.018000
C581	C58	0.937400	0.844300	0.055700
C591	C59	0.110800	0.982100	0.303300
C601	C60	0.111600	0.942700	0.388200
C611	C61	0.206600	0.926300	0.460000
C621	C62	0.208600	0.894900	0.540700
C631	C63	0.113900	0.878300	0.550700
C641	C64	0.018600	0.892700	0.478600
C651	C65	0.018200	0.925500	0.398700
C661	C66	0.117800	0.848900	0.638800
C671	C67	0.213400	0.806500	0.789200
C681	C68	0.282500	0.741100	0.828000
C691	C69	0.305800	0.722900	0.919000
C701	C70	0.261500	0.774200	0.972700
C711	C71	0.193200	0.841200	0.934400
C721	C72	0.166400	0.854900	0.841200
C731	C73	0.379000	0.649500	0.957300
C741	C74	0.157400	0.902900	0.996600
C751	C75	0.703200	0.380400	0.812300
C761	C76	0.791100	0.362000	0.794900
C771	C77	0.820000	0.442900	0.764800
C781	C78	0.768600	0.519500	0.745300
C791	C79	0.677400	0.511800	0.765800
C801	C80	0.394200	0.030900	0.214100
C811	C81	0.500800	0.058300	0.239200
C821	C82	0.526200	0.147400	0.238600
C831	C83	0.447200	0.204800	0.211400
C841	C84	0.344100	0.175000	0.187200
N11	N1	0.032300	0.332200	0.680300
N21	N2	0.796500	0.172800	0.300500
N31	N3	0.358800	0.556000	0.202200
N41	N4	0.683500	0.911600	0.812300
N51	N5	0.967700	0.667800	0.319700
N61	N6	0.203500	0.827200	0.699500
N71	N7	0.641200	0.444000	0.797800
N81	N8	0.316500	0.088400	0.187700
O11	O1	0.556400	0.444000	0.278000
O21	O2	0.693700	0.506500	0.261000
O31	O3	0.357200	0.406300	0.069200
O41	O4	0.389000	0.438700	0.947500
O51	O5	0.977200	0.114100	0.892300
O61	O6	0.117300	0.142500	0.029200
O71	O7	0.577900	0.385600	0.094600
O81	O8	0.606800	0.371800	0.963400
O91	O9	0.971700	0.986300	0.749400
O101	O10	0.803500	0.018400	0.710800
O111	O11	0.786800	0.086600	0.916900
O121	O12	0.924900	0.052500	0.038900
O131	O13	0.559700	0.668200	0.226700
O141	O14	0.869100	0.822700	0.774600
O151	O15	0.443600	0.556000	0.722000
O161	O16	0.306300	0.493500	0.739000
O171	O17	0.642800	0.593700	0.930800
O181	O18	0.611000	0.561300	0.052500
O191	O19	0.022800	0.885900	0.107700
O201	O20	0.882700	0.857500	0.970800
O211	O21	0.422100	0.614400	0.905400
O221	O22	0.393200	0.628200	0.036600
O231	O23	0.028300	0.013700	0.250600
O241	O24	0.196500	0.981600	0.289200
O251	O25	0.213200	0.913400	0.083100
O261	O26	0.075100	0.947500	0.961100
O271	O27	0.440300	0.331800	0.773300
O281	O28	0.130900	0.177300	0.225400
