data_GEFYUN_freeONLY_PM
_symmetry_space_group_name_H-M	'P1'
_cell_length_a	18.556100
_cell_length_b	18.556100
_cell_length_c	21.262800
_cell_angle_alpha	90.000000
_cell_angle_beta	90.000000
_cell_angle_gamma	120.000000
_symmetry_Int_Tables_number 1

loop_
_symmetry_equiv_pos_as_xyz
'x,y,z'

loop_
_atom_site_label
_atom_site_type_symbol
_atom_site_fract_x
_atom_site_fract_y
_atom_site_fract_z
Cu11	Cu1	0.842870	0.507850	0.990490
Cu21	Cu2	0.664980	0.157130	0.323820
Cu31	Cu3	0.492150	0.335020	0.657160
Cu41	Cu4	0.335020	0.492150	0.009510
Cu51	Cu5	0.507850	0.842870	0.676180
Cu61	Cu6	0.157130	0.664980	0.342840
P11	P1	0.735950	0.384650	0.026750
P21	P2	0.669200	0.144000	0.217940
P31	P3	0.648700	0.264050	0.360080
P41	P4	0.474800	0.330800	0.551270
P51	P5	0.615350	0.351300	0.693420
P61	P6	0.856000	0.525200	0.884610
P71	P7	0.351300	0.615350	0.973250
P81	P8	0.525200	0.856000	0.782060
P91	P9	0.384650	0.735950	0.639920
P101	P10	0.144000	0.669200	0.448730
P111	P11	0.264050	0.648700	0.306580
P121	P12	0.330800	0.474800	0.115390
H11	H1	0.664500	0.231900	0.100600
H21	H2	0.810500	0.295500	0.256200
H31	H3	0.851200	0.467000	0.126400
H41	H4	0.955100	0.377400	0.268000
H51	H5	0.062500	0.478200	0.324000
H61	H6	0.011800	0.648200	0.269500
H71	H7	0.896500	0.551600	0.214300
H81	H8	0.638000	0.305600	0.915400
H91	H9	0.618200	0.200800	0.848200
H101	H10	0.698400	0.139500	0.860800
H111	H11	0.775600	0.160800	0.951700
H121	H12	0.796700	0.271800	0.019200
H131	H13	0.695700	0.513100	0.061900
H141	H14	0.572600	0.511500	0.088800
H151	H15	0.445100	0.387200	0.083100
H161	H16	0.440600	0.264600	0.050400
H171	H17	0.563700	0.266300	0.023500
H181	H18	0.752300	0.142700	0.100300
H191	H19	0.812000	0.061500	0.066800
H201	H20	0.811300	0.964300	0.130300
H211	H21	0.769100	0.950100	0.235200
H221	H22	0.708500	0.022700	0.268600
H231	H23	0.532400	0.160700	0.214600
H241	H24	0.402600	0.101500	0.166000
H251	H25	0.373600	0.012500	0.081800
H261	H26	0.462800	0.960300	0.069300
H271	H27	0.594700	0.018400	0.115700
H281	H28	0.567400	0.335500	0.433930
H291	H29	0.485000	0.189500	0.589530
H301	H30	0.615800	0.148800	0.459730
H311	H31	0.422300	0.044900	0.601330
H321	H32	0.415700	0.937500	0.657330
H331	H33	0.636400	0.988200	0.602830
H341	H34	0.655100	0.103500	0.547630
H351	H35	0.667600	0.362000	0.248730
H361	H36	0.582600	0.381800	0.181530
H371	H37	0.441100	0.301600	0.194130
H381	H38	0.385200	0.224400	0.285030
H391	H39	0.475100	0.203300	0.352530
H401	H40	0.817400	0.304300	0.395230
H411	H41	0.938900	0.427400	0.422130
H421	H42	0.942100	0.554900	0.416430
H431	H43	0.824000	0.559400	0.383730
H441	H44	0.702600	0.436300	0.356830
H451	H45	0.390400	0.247700	0.433630
H461	H46	0.249500	0.188000	0.400130
H471	H47	0.153000	0.188700	0.463630
H481	H48	0.181000	0.230900	0.568530
H491	H49	0.314200	0.291500	0.601930
H501	H50	0.628300	0.467600	0.547930
H511	H51	0.698900	0.597400	0.499330
H521	H52	0.638900	0.626400	0.415130
H531	H53	0.497500	0.537200	0.402630
H541	H54	0.423700	0.405300	0.449030
H551	H55	0.768100	0.432600	0.767270
H561	H56	0.704500	0.515000	0.922870
H571	H57	0.533000	0.384200	0.793070
H581	H58	0.622600	0.577700	0.934670
H591	H59	0.521800	0.584300	0.990670
H601	H60	0.351800	0.363600	0.936170
H611	H61	0.448400	0.344900	0.880970
H621	H62	0.694400	0.332400	0.582070
H631	H63	0.799200	0.417400	0.514870
H641	H64	0.860500	0.558900	0.527470
H651	H65	0.839200	0.614800	0.618370
H661	H66	0.728200	0.524900	0.685870
H671	H67	0.486900	0.182600	0.728570
H681	H68	0.488500	0.061100	0.755470
H691	H69	0.612800	0.057900	0.749770
H701	H70	0.735400	0.176000	0.717070
H711	H71	0.733700	0.297400	0.690170
H721	H72	0.857300	0.609600	0.766970
H731	H73	0.938500	0.750500	0.733470
H741	H74	0.035700	0.847000	0.796970
H751	H75	0.049900	0.819000	0.901870
H761	H76	0.977300	0.685800	0.935270
H771	H77	0.839300	0.371700	0.881270
H781	H78	0.898500	0.301100	0.832670
H791	H79	0.987500	0.361100	0.748470
H801	H80	0.039700	0.502500	0.735970
H811	H81	0.981600	0.576300	0.782370
H821	H82	0.432600	0.768100	0.899400
H831	H83	0.515000	0.704500	0.743800
H841	H84	0.384200	0.533000	0.873600
H851	H85	0.577700	0.622600	0.732000
H861	H86	0.584300	0.521800	0.676000
H871	H87	0.363600	0.351800	0.730500
H881	H88	0.344900	0.448400	0.785700
H891	H89	0.332400	0.694400	0.084600
H901	H90	0.417400	0.799200	0.151800
H911	H91	0.558900	0.860500	0.139200
H921	H92	0.614800	0.839200	0.048300
H931	H93	0.524900	0.728200	0.980800
H941	H94	0.182600	0.486900	0.938100
H951	H95	0.061100	0.488500	0.911200
H961	H96	0.057900	0.612800	0.916900
H971	H97	0.176000	0.735400	0.949600
H981	H98	0.297400	0.733700	0.976500
H991	H99	0.609600	0.857300	0.899700
H1001	H100	0.750500	0.938500	0.933200
H1011	H101	0.847000	0.035700	0.869700
H1021	H102	0.819000	0.049900	0.764800
H1031	H103	0.685800	0.977300	0.731400
H1041	H104	0.371700	0.839300	0.785400
H1051	H105	0.301100	0.898500	0.834000
H1061	H106	0.361100	0.987500	0.918200
H1071	H107	0.502500	0.039700	0.930700
H1081	H108	0.576300	0.981600	0.884300
H1091	H109	0.231900	0.664500	0.566070
H1101	H110	0.295500	0.810500	0.410470
H1111	H111	0.467000	0.851200	0.540270
H1121	H112	0.377400	0.955100	0.398670
H1131	H113	0.478200	0.062500	0.342670
H1141	H114	0.648200	0.011800	0.397170
H1151	H115	0.551600	0.896500	0.452370
H1161	H116	0.305600	0.638000	0.751270
H1171	H117	0.200800	0.618200	0.818470
H1181	H118	0.139500	0.698400	0.805870
H1191	H119	0.160800	0.775600	0.714970
H1201	H120	0.271800	0.796700	0.647470
H1211	H121	0.513100	0.695700	0.604770
H1221	H122	0.511500	0.572600	0.577870
H1231	H123	0.387200	0.445100	0.583570
H1241	H124	0.264600	0.440600	0.616270
H1251	H125	0.266300	0.563700	0.643170
H1261	H126	0.142700	0.752300	0.566370
H1271	H127	0.061500	0.812000	0.599870
H1281	H128	0.964300	0.811300	0.536370
H1291	H129	0.950100	0.769100	0.431470
H1301	H130	0.022700	0.708500	0.398070
H1311	H131	0.160700	0.532400	0.452070
H1321	H132	0.101500	0.402600	0.500670
H1331	H133	0.012500	0.373600	0.584870
H1341	H134	0.960300	0.462800	0.597370
H1351	H135	0.018400	0.594700	0.550970
H1361	H136	0.335500	0.567400	0.232730
H1371	H137	0.189500	0.485000	0.077130
H1381	H138	0.148800	0.615800	0.206930
H1391	H139	0.044900	0.422300	0.065330
H1401	H140	0.937500	0.415700	0.009330
H1411	H141	0.988200	0.636400	0.063830
H1421	H142	0.103500	0.655100	0.119030
H1431	H143	0.362000	0.667600	0.417930
H1441	H144	0.381800	0.582600	0.485130
H1451	H145	0.301600	0.441100	0.472530
H1461	H146	0.224400	0.385200	0.381630
H1471	H147	0.203300	0.475100	0.314130
H1481	H148	0.304300	0.817400	0.271430
H1491	H149	0.427400	0.938900	0.244530
H1501	H150	0.554900	0.942100	0.250230
H1511	H151	0.559400	0.824000	0.282930
H1521	H152	0.436300	0.702600	0.309830
H1531	H153	0.247700	0.390400	0.233030
H1541	H154	0.188000	0.249500	0.266530
H1551	H155	0.188700	0.153000	0.203030
H1561	H156	0.230900	0.181000	0.098130
H1571	H157	0.291500	0.314200	0.064730
H1581	H158	0.467600	0.628300	0.118730
H1591	H159	0.597400	0.698900	0.167330
H1601	H160	0.626400	0.638900	0.251530
H1611	H161	0.537200	0.497500	0.264030
H1621	H162	0.405300	0.423700	0.217630
C11	C1	0.755500	0.352400	0.104200
C21	C2	0.709400	0.272000	0.125200
C31	C3	0.728600	0.248200	0.184400
C41	C4	0.795400	0.309600	0.217300
C51	C5	0.839200	0.387300	0.197200
C61	C6	0.820000	0.410900	0.140300
C71	C7	0.912700	0.453800	0.234600
C81	C8	0.964700	0.432700	0.268200
C91	C9	0.028500	0.493400	0.300600
C101	C10	0.999000	0.591800	0.269800
C111	C11	0.930500	0.534900	0.236000
C121	C12	0.718000	0.295400	0.977400
C131	C13	0.666200	0.275600	0.923100
C141	C14	0.655900	0.215800	0.882500
C151	C15	0.700700	0.177800	0.891500
C161	C16	0.749200	0.192400	0.943500
C171	C17	0.758900	0.256700	0.985000
C181	C18	0.643900	0.462700	0.059600
C191	C19	0.570800	0.461700	0.075600
C201	C20	0.495000	0.387800	0.072200
C211	C21	0.492400	0.315100	0.052800
C221	C22	0.565500	0.316000	0.036800
C231	C23	0.641300	0.389900	0.040200
C241	C24	0.721700	0.091800	0.190300
C251	C25	0.754100	0.103300	0.127800
C261	C26	0.789300	0.054200	0.107900
C271	C27	0.790700	0.998400	0.146100
C281	C28	0.763600	0.987500	0.207800
C291	C29	0.729500	0.031800	0.226900
C301	C30	0.573700	0.093200	0.173100
C311	C31	0.518600	0.118200	0.184200
C321	C32	0.441300	0.085000	0.153300
C331	C33	0.422100	0.031200	0.106900
C341	C34	0.478200	0.004700	0.098200
C351	C35	0.556600	0.036200	0.127400
C361	C36	0.596900	0.244500	0.437530
C371	C37	0.562600	0.290600	0.458530
C381	C38	0.519600	0.271400	0.517730
C391	C39	0.514200	0.204600	0.550630
C401	C40	0.548100	0.160800	0.530530
C411	C41	0.590900	0.180000	0.473630
C421	C42	0.541100	0.087300	0.567930
C431	C43	0.468000	0.035300	0.601530
C441	C44	0.464900	0.971500	0.633930
C451	C45	0.592800	0.001000	0.603130
C461	C46	0.604400	0.069500	0.569330
C471	C47	0.577400	0.282000	0.310730
C481	C48	0.609400	0.333800	0.256430
C491	C49	0.559900	0.344100	0.215830
C501	C50	0.477100	0.299300	0.224830
C511	C51	0.443200	0.250800	0.276830
C521	C52	0.497800	0.241100	0.318330
C531	C53	0.818800	0.356100	0.392930
C541	C54	0.890900	0.429200	0.408930
C551	C55	0.892800	0.505000	0.405530
C561	C56	0.822700	0.507600	0.386130
C571	C57	0.750500	0.434500	0.370130
C581	C58	0.748600	0.358700	0.373530
C591	C59	0.370100	0.278300	0.523630
C601	C60	0.349200	0.245900	0.461130
C611	C61	0.264900	0.210700	0.441230
C621	C62	0.207700	0.209300	0.479430
C631	C63	0.223900	0.236400	0.541130
C641	C64	0.302300	0.270500	0.560230
C651	C65	0.519500	0.426300	0.506430
C661	C66	0.599600	0.481400	0.517530
C671	C67	0.643700	0.558700	0.486630
C681	C68	0.609100	0.577900	0.440230
C691	C69	0.526500	0.521800	0.431530
C701	C70	0.479600	0.443400	0.460730
C711	C71	0.647600	0.403100	0.770870
C721	C72	0.728000	0.437400	0.791870
C731	C73	0.751800	0.480400	0.851070
C741	C74	0.690400	0.485800	0.883970
C751	C75	0.612700	0.451900	0.863870
C761	C76	0.589100	0.409100	0.806970
C771	C77	0.546200	0.458900	0.901270
C781	C78	0.567300	0.532000	0.934870
C791	C79	0.506600	0.535100	0.967270
C801	C80	0.408200	0.407200	0.936470
C811	C81	0.465100	0.395600	0.902670
C821	C82	0.704600	0.422600	0.644070
C831	C83	0.724400	0.390600	0.589770
C841	C84	0.784200	0.440100	0.549170
C851	C85	0.822200	0.522900	0.558170
C861	C86	0.807600	0.556800	0.610170
C871	C87	0.743300	0.502200	0.651670
C881	C88	0.537300	0.181200	0.726270
C891	C89	0.538300	0.109100	0.742270
C901	C90	0.612200	0.107200	0.738870
C911	C91	0.684900	0.177300	0.719470
C921	C92	0.684000	0.249500	0.703470
C931	C93	0.610100	0.251400	0.706870
C941	C94	0.908200	0.629900	0.856970
C951	C95	0.896700	0.650800	0.794470
C961	C96	0.945800	0.735100	0.774570
C971	C97	0.001600	0.792300	0.812770
C981	C98	0.012500	0.776100	0.874470
C991	C99	0.968200	0.697700	0.893570
C1001	C100	0.906800	0.480500	0.839770
C1011	C101	0.881800	0.400400	0.850870
C1021	C102	0.915000	0.356300	0.819970
C1031	C103	0.968800	0.390900	0.773570
C1041	C104	0.995300	0.473500	0.764870
C1051	C105	0.963800	0.520400	0.794070
C1061	C106	0.403100	0.647600	0.895800
C1071	C107	0.437400	0.728000	0.874800
C1081	C108	0.480400	0.751800	0.815600
C1091	C109	0.485800	0.690400	0.782700
C1101	C110	0.451900	0.612700	0.802800
C1111	C111	0.409100	0.589100	0.859700
C1121	C112	0.458900	0.546200	0.765400
C1131	C113	0.532000	0.567300	0.731800
C1141	C114	0.535100	0.506600	0.699400
C1151	C115	0.407200	0.408200	0.730200
C1161	C116	0.395600	0.465100	0.764000
C1171	C117	0.422600	0.704600	0.022600
C1181	C118	0.390600	0.724400	0.076900
C1191	C119	0.440100	0.784200	0.117500
C1201	C120	0.522900	0.822200	0.108500
C1211	C121	0.556800	0.807600	0.056500
C1221	C122	0.502200	0.743300	0.015000
C1231	C123	0.181200	0.537300	0.940400
C1241	C124	0.109100	0.538300	0.924400
C1251	C125	0.107200	0.612200	0.927800
C1261	C126	0.177300	0.684900	0.947200
C1271	C127	0.249500	0.684000	0.963200
C1281	C128	0.251400	0.610100	0.959800
C1291	C129	0.629900	0.908200	0.809700
C1301	C130	0.650800	0.896700	0.872200
C1311	C131	0.735100	0.945800	0.892100
C1321	C132	0.792300	0.001600	0.853900
C1331	C133	0.776100	0.012500	0.792200
C1341	C134	0.697700	0.968200	0.773100
C1351	C135	0.480500	0.906800	0.826900
C1361	C136	0.400400	0.881800	0.815800
C1371	C137	0.356300	0.915000	0.846700
C1381	C138	0.390900	0.968800	0.893100
C1391	C139	0.473500	0.995300	0.901800
C1401	C140	0.520400	0.963800	0.872600
C1411	C141	0.352400	0.755500	0.562470
C1421	C142	0.272000	0.709400	0.541470
C1431	C143	0.248200	0.728600	0.482270
C1441	C144	0.309600	0.795400	0.449370
C1451	C145	0.387300	0.839200	0.469470
C1461	C146	0.410900	0.820000	0.526370
C1471	C147	0.453800	0.912700	0.432070
C1481	C148	0.432700	0.964700	0.398470
C1491	C149	0.493400	0.028500	0.366070
C1501	C150	0.591800	0.999000	0.396870
C1511	C151	0.534900	0.930500	0.430670
C1521	C152	0.295400	0.718000	0.689270
C1531	C153	0.275600	0.666200	0.743570
C1541	C154	0.215800	0.655900	0.784170
C1551	C155	0.177800	0.700700	0.775170
C1561	C156	0.192400	0.749200	0.723170
C1571	C157	0.256700	0.758900	0.681670
C1581	C158	0.462700	0.643900	0.607070
C1591	C159	0.461700	0.570800	0.591070
C1601	C160	0.387800	0.495000	0.594470
C1611	C161	0.315100	0.492400	0.613870
C1621	C162	0.316000	0.565500	0.629870
C1631	C163	0.389900	0.641300	0.626470
C1641	C164	0.091800	0.721700	0.476370
C1651	C165	0.103300	0.754100	0.538870
C1661	C166	0.054200	0.789300	0.558770
C1671	C167	0.998400	0.790700	0.520570
C1681	C168	0.987500	0.763600	0.458870
C1691	C169	0.031800	0.729500	0.439770
C1701	C170	0.093200	0.573700	0.493570
C1711	C171	0.118200	0.518600	0.482470
C1721	C172	0.085000	0.441300	0.513370
C1731	C173	0.031200	0.422100	0.559770
C1741	C174	0.004700	0.478200	0.568470
C1751	C175	0.036200	0.556600	0.539270
C1761	C176	0.244500	0.596900	0.229130
C1771	C177	0.290600	0.562600	0.208130
C1781	C178	0.271400	0.519600	0.148930
C1791	C179	0.204600	0.514200	0.116030
C1801	C180	0.160800	0.548100	0.136130
C1811	C181	0.180000	0.590900	0.193030
C1821	C182	0.087300	0.541100	0.098730
C1831	C183	0.035300	0.468000	0.065130
C1841	C184	0.971500	0.464900	0.032730
C1851	C185	0.001000	0.592800	0.063530
C1861	C186	0.069500	0.604400	0.097330
C1871	C187	0.282000	0.577400	0.355930
C1881	C188	0.333800	0.609400	0.410230
C1891	C189	0.344100	0.559900	0.450830
C1901	C190	0.299300	0.477100	0.441830
C1911	C191	0.250800	0.443200	0.389830
C1921	C192	0.241100	0.497800	0.348330
C1931	C193	0.356100	0.818800	0.273730
C1941	C194	0.429200	0.890900	0.257730
C1951	C195	0.505000	0.892800	0.261130
C1961	C196	0.507600	0.822700	0.280530
C1971	C197	0.434500	0.750500	0.296530
C1981	C198	0.358700	0.748600	0.293130
C1991	C199	0.278300	0.370100	0.143030
C2001	C200	0.245900	0.349200	0.205530
C2011	C201	0.210700	0.264900	0.225430
C2021	C202	0.209300	0.207700	0.187230
C2031	C203	0.236400	0.223900	0.125530
C2041	C204	0.270500	0.302300	0.106430
C2051	C205	0.426300	0.519500	0.160230
C2061	C206	0.481400	0.599600	0.149130
C2071	C207	0.558700	0.643700	0.180030
C2081	C208	0.577900	0.609100	0.226430
C2091	C209	0.521800	0.526500	0.235130
C2101	C210	0.443400	0.479600	0.205930
Br11	Br1	0.835200	0.623910	0.035120
Br21	Br2	0.788710	0.164800	0.368450
Br31	Br3	0.376090	0.211290	0.701790
Br41	Br4	0.211290	0.376090	0.964880
Br51	Br5	0.623910	0.835200	0.631550
Br61	Br6	0.164800	0.788710	0.298210
N11	N1	0.048300	0.573000	0.302800
N21	N2	0.524700	0.951700	0.636130
N31	N3	0.427000	0.475300	0.969470
N41	N4	0.475300	0.427000	0.697200
N51	N5	0.573000	0.048300	0.363870
N61	N6	0.951700	0.524700	0.030530
