data_GELVID_freeONLY_PM
_symmetry_space_group_name_H-M	'P1'
_cell_length_a	8.824000
_cell_length_b	8.824000
_cell_length_c	10.644000
_cell_angle_alpha	90.000000
_cell_angle_beta	90.000000
_cell_angle_gamma	120.000000
_symmetry_Int_Tables_number 1

loop_
_symmetry_equiv_pos_as_xyz
'x,y,z'

loop_
_atom_site_label
_atom_site_type_symbol
_atom_site_fract_x
_atom_site_fract_y
_atom_site_fract_z
Ni11	Ni1	0.000000	0.958060	0.833330
Ni21	Ni2	0.958060	0.000000	0.500000
Ni31	Ni3	0.041940	0.041940	0.166670
H11	H1	0.211000	0.864000	0.729000
H21	H2	0.512000	0.904000	0.831000
H31	H3	0.653000	0.789000	0.395670
H41	H4	0.392000	0.488000	0.497670
H51	H5	0.136000	0.347000	0.062330
H61	H6	0.096000	0.608000	0.164330
H71	H7	0.347000	0.136000	0.271000
H81	H8	0.608000	0.096000	0.169000
H91	H9	0.864000	0.211000	0.604330
H101	H10	0.904000	0.512000	0.502330
H111	H11	0.789000	0.653000	0.937670
H121	H12	0.488000	0.392000	0.835670
C11	C1	0.472800	0.944500	0.893300
C21	C2	0.314800	0.942600	0.894400
C31	C3	0.471700	0.527200	0.559970
C41	C4	0.627800	0.685200	0.561070
C51	C5	0.055500	0.528300	0.226630
C61	C6	0.057400	0.372200	0.227730
C71	C7	0.528300	0.055500	0.106700
C81	C8	0.372200	0.057400	0.105600
C91	C9	0.944500	0.472800	0.440030
C101	C10	0.942600	0.314800	0.438930
C111	C11	0.527200	0.471700	0.773370
C121	C12	0.685200	0.627800	0.772270
C131	C13	0.263300	0.000000	0.000000
C141	C14	0.747400	0.000000	0.000000
C151	C15	0.579100	0.000000	0.000000
C161	C16	0.736700	0.736700	0.666670
C171	C17	0.252600	0.252600	0.666670
C181	C18	0.420900	0.420900	0.666670
C191	C19	0.000000	0.263300	0.333330
C201	C20	0.000000	0.747400	0.333330
C211	C21	0.000000	0.579100	0.333330
O11	O1	0.195900	0.885500	0.798200
O21	O2	0.829000	0.032100	0.896900
O31	O3	0.689600	0.804100	0.464870
O41	O4	0.203100	0.171000	0.563570
O51	O5	0.114500	0.310400	0.131530
O61	O6	0.967900	0.796900	0.230230
O71	O7	0.310400	0.114500	0.201800
O81	O8	0.796900	0.967900	0.103100
O91	O9	0.885500	0.195900	0.535130
O101	O10	0.032100	0.829000	0.436430
O111	O11	0.804100	0.689600	0.868470
O121	O12	0.171000	0.203100	0.769770
O131	O13	0.113300	0.000000	0.000000
O141	O14	0.886700	0.886700	0.666670
O151	O15	0.000000	0.113300	0.333330
