data_GELVEZ_freeONLY_PM
_symmetry_space_group_name_H-M	'P1'
_cell_length_a	9.063000
_cell_length_b	9.063000
_cell_length_c	10.947000
_cell_angle_alpha	90.000000
_cell_angle_beta	90.000000
_cell_angle_gamma	120.000000
_symmetry_Int_Tables_number 1

loop_
_symmetry_equiv_pos_as_xyz
'x,y,z'

loop_
_atom_site_label
_atom_site_type_symbol
_atom_site_fract_x
_atom_site_fract_y
_atom_site_fract_z
Mn11	Mn1	0.027790	0.027790	0.333330
Mn21	Mn2	0.000000	0.972210	0.666670
Mn31	Mn3	0.972210	0.000000	0.000000
H11	H1	0.370000	0.143000	0.250000
H21	H2	0.597000	0.091000	0.332000
H31	H3	0.773000	0.630000	0.583330
H41	H4	0.494000	0.403000	0.665330
H51	H5	0.857000	0.227000	0.916670
H61	H6	0.909000	0.506000	0.998670
H71	H7	0.227000	0.857000	0.750000
H81	H8	0.506000	0.909000	0.668000
H91	H9	0.143000	0.370000	0.416670
H101	H10	0.091000	0.597000	0.334670
H111	H11	0.630000	0.773000	0.083330
H121	H12	0.403000	0.494000	0.001330
C11	C1	0.521200	0.045400	0.394900
C21	C2	0.371700	0.049200	0.395900
C31	C3	0.524200	0.478800	0.728230
C41	C4	0.677500	0.628300	0.729230
C51	C5	0.954600	0.475800	0.061570
C61	C6	0.950800	0.322500	0.062570
C71	C7	0.475800	0.954600	0.605100
C81	C8	0.322500	0.950800	0.604100
C91	C9	0.045400	0.521200	0.271770
C101	C10	0.049200	0.371700	0.270770
C111	C11	0.478800	0.524200	0.938430
C121	C12	0.628300	0.677500	0.937430
C131	C13	0.738700	0.000000	0.500000
C141	C14	0.267100	0.000000	0.500000
C151	C15	0.574600	0.000000	0.500000
C161	C16	0.261300	0.261300	0.833330
C171	C17	0.732900	0.732900	0.833330
C181	C18	0.425400	0.425400	0.833330
C191	C19	0.000000	0.738700	0.166670
C201	C20	0.000000	0.267100	0.166670
C211	C21	0.000000	0.574600	0.166670
O11	O1	0.307100	0.096600	0.299690
O21	O2	0.781200	0.954500	0.403230
O31	O3	0.789500	0.692900	0.633020
O41	O4	0.173300	0.218800	0.736560
O51	O5	0.903400	0.210500	0.966360
O61	O6	0.045500	0.826700	0.069900
O71	O7	0.210500	0.903400	0.700310
O81	O8	0.826700	0.045500	0.596770
O91	O9	0.096600	0.307100	0.366980
O101	O10	0.954500	0.781200	0.263440
O111	O11	0.692900	0.789500	0.033640
O121	O12	0.218800	0.173300	0.930100
O131	O13	0.120600	0.000000	0.500000
O141	O14	0.879400	0.879400	0.833330
O151	O15	0.000000	0.120600	0.166670
