data_GELVID01_freeONLY_PM
_symmetry_space_group_name_H-M	'P1'
_cell_length_a	8.807900
_cell_length_b	8.807900
_cell_length_c	21.166300
_cell_angle_alpha	90.000000
_cell_angle_beta	90.000000
_cell_angle_gamma	120.000000
_symmetry_Int_Tables_number 1

loop_
_symmetry_equiv_pos_as_xyz
'x,y,z'

loop_
_atom_site_label
_atom_site_type_symbol
_atom_site_fract_x
_atom_site_fract_y
_atom_site_fract_z
Ni11	Ni1	0.965270	0.946290	0.917180
Ni21	Ni2	0.981020	0.034730	0.583850
Ni31	Ni3	0.053710	0.018980	0.250520
Ni41	Ni4	0.018980	0.053710	0.082820
Ni51	Ni5	0.946290	0.965270	0.416150
Ni61	Ni6	0.034730	0.981020	0.749480
H11	H1	0.922100	0.390000	0.925400
H21	H2	0.407400	0.896200	0.911200
H31	H3	0.636000	0.850000	0.866900
H41	H4	0.884000	0.630000	0.972400
H51	H5	0.467900	0.077900	0.592070
H61	H6	0.488800	0.592600	0.577870
H71	H7	0.214000	0.364000	0.533570
H81	H8	0.746000	0.116000	0.639070
H91	H9	0.610000	0.532100	0.258730
H101	H10	0.103800	0.511200	0.244530
H111	H11	0.150000	0.786000	0.200230
H121	H12	0.370000	0.254000	0.305730
H131	H13	0.532100	0.610000	0.074600
H141	H14	0.511200	0.103800	0.088800
H151	H15	0.786000	0.150000	0.133100
H161	H16	0.254000	0.370000	0.027600
H171	H17	0.390000	0.922100	0.407930
H181	H18	0.896200	0.407400	0.422130
H191	H19	0.850000	0.636000	0.466430
H201	H20	0.630000	0.884000	0.360930
H211	H21	0.077900	0.467900	0.741270
H221	H22	0.592600	0.488800	0.755470
H231	H23	0.364000	0.214000	0.799770
H241	H24	0.116000	0.746000	0.694270
C11	C1	0.637600	0.935300	0.948200
C21	C2	0.952300	0.459400	0.888190
C31	C3	0.481700	0.937000	0.947140
C41	C4	0.949600	0.615700	0.887650
C51	C5	0.297700	0.362400	0.614870
C61	C6	0.507100	0.047700	0.554860
C71	C7	0.455300	0.518300	0.613810
C81	C8	0.666100	0.050400	0.554320
C91	C9	0.064700	0.702300	0.281530
C101	C10	0.540600	0.492900	0.221520
C111	C11	0.063000	0.544700	0.280470
C121	C12	0.384300	0.333900	0.220980
C131	C13	0.702300	0.064700	0.051800
C141	C14	0.492900	0.540600	0.111810
C151	C15	0.544700	0.063000	0.052860
C161	C16	0.333900	0.384300	0.112350
C171	C17	0.935300	0.637600	0.385130
C181	C18	0.459400	0.952300	0.445140
C191	C19	0.937000	0.481700	0.386190
C201	C20	0.615700	0.949600	0.445680
C211	C21	0.362400	0.297700	0.718470
C221	C22	0.047700	0.507100	0.778480
C231	C23	0.518300	0.455300	0.719530
C241	C24	0.050400	0.666100	0.779020
C251	C25	0.267000	0.000000	0.000000
C261	C26	0.750800	0.000000	0.000000
C271	C27	0.435400	0.000000	0.000000
C281	C28	0.733000	0.733000	0.666670
C291	C29	0.249200	0.249200	0.666670
C301	C30	0.564600	0.564600	0.666670
C311	C31	0.000000	0.267000	0.333330
C321	C32	0.000000	0.750800	0.333330
C331	C33	0.000000	0.435400	0.333330
C341	C34	0.000000	0.720500	0.833330
C351	C35	0.000000	0.236600	0.833330
C361	C36	0.000000	0.405600	0.833330
C371	C37	0.720500	0.000000	0.500000
C381	C38	0.236600	0.000000	0.500000
C391	C39	0.405600	0.000000	0.500000
C401	C40	0.279500	0.279500	0.166670
C411	C41	0.763400	0.763400	0.166670
C421	C42	0.594400	0.594400	0.166670
O11	O1	0.214200	0.025500	0.947350
O21	O2	0.696500	0.870100	0.900810
O31	O3	0.039300	0.191300	0.884760
O41	O4	0.897900	0.680800	0.936780
O51	O5	0.811300	0.785800	0.614020
O61	O6	0.173600	0.303500	0.567480
O71	O7	0.152000	0.960700	0.551430
O81	O8	0.782900	0.102100	0.603450
O91	O9	0.974500	0.188700	0.280680
O101	O10	0.129900	0.826400	0.234140
O111	O11	0.808700	0.848000	0.218090
O121	O12	0.319200	0.217100	0.270110
O131	O13	0.188700	0.974500	0.052650
O141	O14	0.826400	0.129900	0.099190
O151	O15	0.848000	0.808700	0.115240
O161	O16	0.217100	0.319200	0.063220
O171	O17	0.025500	0.214200	0.385980
O181	O18	0.870100	0.696500	0.432520
O191	O19	0.191300	0.039300	0.448570
O201	O20	0.680800	0.897900	0.396550
O211	O21	0.785800	0.811300	0.719320
O221	O22	0.303500	0.173600	0.765860
O231	O23	0.960700	0.152000	0.781910
O241	O24	0.102100	0.782900	0.729890
O251	O25	0.901400	0.000000	0.000000
O261	O26	0.098600	0.098600	0.666670
O271	O27	0.000000	0.901400	0.333330
O281	O28	0.000000	0.871400	0.833330
O291	O29	0.871400	0.000000	0.500000
O301	O30	0.128600	0.128600	0.166670
