data_GEPDEM_freeONLY_PM
_symmetry_space_group_name_H-M	'P1'
_cell_length_a	9.573100
_cell_length_b	9.573100
_cell_length_c	16.382800
_cell_angle_alpha	87.258000
_cell_angle_beta	74.797700
_cell_angle_gamma	117.994000
_symmetry_Int_Tables_number 1

loop_
_symmetry_equiv_pos_as_xyz
'x,y,z'

loop_
_atom_site_label
_atom_site_type_symbol
_atom_site_fract_x
_atom_site_fract_y
_atom_site_fract_z
Zn11	Zn1	0.327750	0.440110	0.677900
Zn21	Zn2	0.618010	0.005650	0.822100
Zn31	Zn3	0.672250	0.559890	0.322100
Zn41	Zn4	0.381990	0.994350	0.177900
H11	H1	0.878700	0.795100	0.784600
H21	H2	0.019300	0.859200	0.694500
H31	H3	0.682000	0.461200	0.571800
H41	H4	0.589600	0.659200	0.764400
H51	H5	0.931700	0.258100	0.954800
H61	H6	0.464000	0.722000	0.550000
H71	H7	0.301000	0.607000	0.576000
H81	H8	0.079700	0.663300	0.715400
H91	H9	0.053700	0.713800	0.805500
H101	H10	0.533000	0.253800	0.928200
H111	H11	0.923600	0.354000	0.735600
H121	H12	0.712900	0.886500	0.545200
H131	H13	0.772000	0.014000	0.950000
H141	H14	0.683000	0.877000	0.924000
H151	H15	0.121300	0.204900	0.215400
H161	H16	0.980700	0.140800	0.305500
H171	H17	0.318000	0.538800	0.428200
H181	H18	0.410400	0.340800	0.235600
H191	H19	0.068300	0.741900	0.045200
H201	H20	0.536000	0.278000	0.450000
H211	H21	0.699000	0.393000	0.424000
H221	H22	0.920300	0.336700	0.284600
H231	H23	0.946300	0.286200	0.194500
H241	H24	0.467000	0.746200	0.071800
H251	H25	0.076400	0.646000	0.264400
H261	H26	0.287100	0.113500	0.454800
H271	H27	0.228000	0.986000	0.050000
H281	H28	0.317000	0.123000	0.076000
C11	C1	0.929000	0.762400	0.735400
C21	C2	0.696800	0.521600	0.614800
C31	C3	0.642900	0.627700	0.719400
C41	C4	0.113100	0.489900	0.929200
C51	C5	0.155900	0.637000	0.956100
C61	C6	0.959500	0.355700	0.972800
C71	C7	0.223600	0.463000	0.854000
C81	C8	0.321600	0.785800	0.913800
C91	C9	0.997800	0.664400	0.764600
C101	C10	0.636400	0.311600	0.885200
C111	C11	0.847100	0.362300	0.780600
C121	C12	0.919100	0.042300	0.570800
C131	C13	0.093100	0.112000	0.543900
C141	C14	0.828500	0.932300	0.527200
C151	C15	0.817000	0.077600	0.646000
C161	C16	0.199600	0.235400	0.586200
C171	C17	0.071000	0.237600	0.264600
C181	C18	0.303200	0.478400	0.385200
C191	C19	0.357100	0.372300	0.280600
C201	C20	0.886900	0.510100	0.070800
C211	C21	0.844100	0.363000	0.043900
C221	C22	0.040500	0.644300	0.027200
C231	C23	0.776400	0.537000	0.146000
C241	C24	0.678400	0.214200	0.086200
C251	C25	0.002200	0.335600	0.235400
C261	C26	0.363600	0.688400	0.114800
C271	C27	0.152900	0.637700	0.219400
C281	C28	0.080900	0.957700	0.429200
C291	C29	0.906900	0.888000	0.456100
C301	C30	0.171500	0.067700	0.472800
C311	C31	0.183000	0.922400	0.354000
C321	C32	0.800400	0.764600	0.413800
N11	N1	0.804600	0.671100	0.695100
N21	N2	0.839800	0.601900	0.627700
N31	N3	0.570600	0.533200	0.669600
N41	N4	0.866200	0.499700	0.804900
N51	N5	0.729600	0.467500	0.872300
N61	N6	0.702800	0.240200	0.830400
N71	N7	0.195400	0.328900	0.304900
N81	N8	0.160200	0.398100	0.372300
N91	N9	0.429400	0.466800	0.330400
N101	N10	0.133800	0.500300	0.195100
N111	N11	0.270400	0.532500	0.127700
N121	N12	0.297200	0.759800	0.169600
O11	O1	0.215900	0.494900	0.781000
O21	O2	0.303100	0.400500	0.870200
O31	O3	0.429500	0.774300	0.854000
O41	O4	0.354500	0.917500	0.938000
O51	O5	0.388300	0.637300	0.587600
O61	O6	0.775900	0.996900	0.719000
O71	O7	0.770700	0.173300	0.629800
O81	O8	0.128300	0.283500	0.646000
O91	O9	0.355500	0.292500	0.562000
O101	O10	0.724900	0.975900	0.912400
O111	O11	0.784100	0.505100	0.219000
O121	O12	0.696900	0.599500	0.129800
O131	O13	0.570500	0.225700	0.146000
O141	O14	0.645500	0.082500	0.062000
O151	O15	0.611700	0.362700	0.412400
O161	O16	0.224100	0.003100	0.281000
O171	O17	0.229300	0.826700	0.370200
O181	O18	0.871700	0.716500	0.354000
O191	O19	0.644500	0.707500	0.438000
O201	O20	0.275100	0.024100	0.087600
