data_GERWIL_charged_PM
_symmetry_space_group_name_H-M	'P1'
_cell_length_a	14.860000
_cell_length_b	14.860000
_cell_length_c	25.483000
_cell_angle_alpha	80.851900
_cell_angle_beta	80.851900
_cell_angle_gamma	77.562300
_symmetry_Int_Tables_number 1

loop_
_symmetry_equiv_pos_as_xyz
'x,y,z'

loop_
_atom_site_label
_atom_site_type_symbol
_atom_site_fract_x
_atom_site_fract_y
_atom_site_fract_z
Zn11	Zn1	0.265930	0.910670	0.079130
Zn21	Zn2	0.126910	0.478410	0.007120
Zn31	Zn3	0.089330	0.734070	0.420870
Zn41	Zn4	0.521590	0.873090	0.492880
Zn51	Zn5	0.734070	0.089330	0.920870
Zn61	Zn6	0.873090	0.521590	0.992880
Zn71	Zn7	0.910670	0.265930	0.579130
Zn81	Zn8	0.478410	0.126910	0.507120
Zn91	Zn9	0.362750	0.637250	0.750000
Zn101	Zn10	0.637250	0.362750	0.250000
Si11	Si1	0.247720	0.166080	0.812160
Si21	Si2	0.833920	0.752280	0.687840
Si31	Si3	0.752280	0.833920	0.187840
Si41	Si4	0.166080	0.247720	0.312160
H11	H1	0.268200	0.055000	0.915000
H21	H2	0.287600	0.986200	0.766500
H31	H3	0.337700	0.787700	0.890500
H41	H4	0.173700	0.314100	0.883300
H51	H5	0.069700	0.116500	0.836900
H61	H6	0.911800	0.282200	0.938900
H71	H7	0.527200	0.331400	0.856300
H81	H8	0.294300	0.353300	0.792000
H91	H9	0.416800	0.107400	0.861600
H101	H10	0.206700	0.185500	0.595600
H111	H11	0.092100	0.213900	0.747300
H121	H12	0.368300	0.152500	0.711000
H131	H13	0.945000	0.731800	0.585000
H141	H14	0.013800	0.712400	0.733500
H151	H15	0.212300	0.662300	0.609500
H161	H16	0.685900	0.826300	0.616700
H171	H17	0.883500	0.930300	0.663100
H181	H18	0.717800	0.088200	0.561100
H191	H19	0.668600	0.472800	0.643700
H201	H20	0.646700	0.705700	0.708000
H211	H21	0.892600	0.583200	0.638400
H221	H22	0.814500	0.793300	0.904400
H231	H23	0.786100	0.907900	0.752700
H241	H24	0.847500	0.631700	0.789000
H251	H25	0.731800	0.945000	0.085000
H261	H26	0.712400	0.013800	0.233500
H271	H27	0.662300	0.212300	0.109500
H281	H28	0.826300	0.685900	0.116700
H291	H29	0.930300	0.883500	0.163100
H301	H30	0.088200	0.717800	0.061100
H311	H31	0.472800	0.668600	0.143700
H321	H32	0.705700	0.646700	0.208000
H331	H33	0.583200	0.892600	0.138400
H341	H34	0.793300	0.814500	0.404400
H351	H35	0.907900	0.786100	0.252700
H361	H36	0.631700	0.847500	0.289000
H371	H37	0.055000	0.268200	0.415000
H381	H38	0.986200	0.287600	0.266500
H391	H39	0.787700	0.337700	0.390500
H401	H40	0.314100	0.173700	0.383300
H411	H41	0.116500	0.069700	0.336900
H421	H42	0.282200	0.911800	0.438900
H431	H43	0.331400	0.527200	0.356300
H441	H44	0.353300	0.294300	0.292000
H451	H45	0.107400	0.416800	0.361600
H461	H46	0.185500	0.206700	0.095600
H471	H47	0.213900	0.092100	0.247300
H481	H48	0.152500	0.368300	0.211000
C11	C1	0.311800	0.888800	0.970300
C21	C2	0.305700	0.916900	0.911990
C31	C3	0.281350	0.010350	0.891700
C41	C4	0.276220	0.038820	0.836210
C51	C5	0.291820	0.969620	0.802920
C61	C6	0.313550	0.875950	0.823460
C71	C7	0.321490	0.850290	0.877300
C81	C8	0.326850	0.804050	0.785400
C91	C9	0.031500	0.386100	0.950100
C101	C10	0.041800	0.311000	0.916590
C111	C11	0.124970	0.283370	0.884540
C121	C12	0.136780	0.211180	0.854490
C131	C13	0.062500	0.165500	0.856820
C141	C14	0.979100	0.191900	0.888100
C151	C15	0.968000	0.264200	0.917900
C161	C16	0.901300	0.136700	0.889800
C171	C17	0.559100	0.151500	0.893900
C181	C18	0.484530	0.209930	0.863200
C191	C19	0.481100	0.304100	0.848400
C201	C20	0.409820	0.357620	0.822020
C211	C21	0.341960	0.316760	0.810030
C221	C22	0.342880	0.222080	0.824240
C231	C23	0.415030	0.170630	0.851240
C241	C24	0.407800	0.460800	0.807600
C251	C25	0.386600	0.147400	0.607100
C261	C26	0.300800	0.166000	0.647130
C271	C27	0.213300	0.185700	0.631300
C281	C28	0.134200	0.206000	0.668710
C291	C29	0.144780	0.202580	0.722340
C301	C30	0.233440	0.182240	0.739800
C311	C31	0.309000	0.165200	0.700820
C321	C32	0.038900	0.231100	0.651500
C331	C33	0.111200	0.688200	0.529700
C341	C34	0.083100	0.694300	0.588010
C351	C35	0.989650	0.718650	0.608300
C361	C36	0.961180	0.723780	0.663790
C371	C37	0.030380	0.708180	0.697080
C381	C38	0.124050	0.686450	0.676540
C391	C39	0.149710	0.678510	0.622700
C401	C40	0.195950	0.673150	0.714600
C411	C41	0.613900	0.968500	0.549900
C421	C42	0.689000	0.958200	0.583410
C431	C43	0.716630	0.875030	0.615460
C441	C44	0.788820	0.863220	0.645510
C451	C45	0.834500	0.937500	0.643180
C461	C46	0.808100	0.020900	0.611900
C471	C47	0.735800	0.032000	0.582100
C481	C48	0.863300	0.098700	0.610200
C491	C49	0.848500	0.440900	0.606100
C501	C50	0.790070	0.515470	0.636800
C511	C51	0.695900	0.518900	0.651600
C521	C52	0.642380	0.590180	0.677980
C531	C53	0.683240	0.658040	0.689970
C541	C54	0.777920	0.657120	0.675760
C551	C55	0.829370	0.584970	0.648760
C561	C56	0.539200	0.592200	0.692400
C571	C57	0.852600	0.613400	0.892900
C581	C58	0.834000	0.699200	0.852870
C591	C59	0.814300	0.786700	0.868700
C601	C60	0.794000	0.865800	0.831290
C611	C61	0.797420	0.855220	0.777660
C621	C62	0.817760	0.766560	0.760200
C631	C63	0.834800	0.691000	0.799180
C641	C64	0.768900	0.961100	0.848500
C651	C65	0.688200	0.111200	0.029700
C661	C66	0.694300	0.083100	0.088010
C671	C67	0.718650	0.989650	0.108300
C681	C68	0.723780	0.961180	0.163790
C691	C69	0.708180	0.030380	0.197080
C701	C70	0.686450	0.124050	0.176540
C711	C71	0.678510	0.149710	0.122700
C721	C72	0.673150	0.195950	0.214600
C731	C73	0.968500	0.613900	0.049900
C741	C74	0.958200	0.689000	0.083410
C751	C75	0.875030	0.716630	0.115460
C761	C76	0.863220	0.788820	0.145510
C771	C77	0.937500	0.834500	0.143180
C781	C78	0.020900	0.808100	0.111900
C791	C79	0.032000	0.735800	0.082100
C801	C80	0.098700	0.863300	0.110200
C811	C81	0.440900	0.848500	0.106100
C821	C82	0.515470	0.790070	0.136800
C831	C83	0.518900	0.695900	0.151600
C841	C84	0.590180	0.642380	0.177980
C851	C85	0.658040	0.683240	0.189970
C861	C86	0.657120	0.777920	0.175760
C871	C87	0.584970	0.829370	0.148760
C881	C88	0.592200	0.539200	0.192400
C891	C89	0.613400	0.852600	0.392900
C901	C90	0.699200	0.834000	0.352870
C911	C91	0.786700	0.814300	0.368700
C921	C92	0.865800	0.794000	0.331290
C931	C93	0.855220	0.797420	0.277660
C941	C94	0.766560	0.817760	0.260200
C951	C95	0.691000	0.834800	0.299180
C961	C96	0.961100	0.768900	0.348500
C971	C97	0.888800	0.311800	0.470300
C981	C98	0.916900	0.305700	0.411990
C991	C99	0.010350	0.281350	0.391700
C1001	C100	0.038820	0.276220	0.336210
C1011	C101	0.969620	0.291820	0.302920
C1021	C102	0.875950	0.313550	0.323460
C1031	C103	0.850290	0.321490	0.377300
C1041	C104	0.804050	0.326850	0.285400
C1051	C105	0.386100	0.031500	0.450100
C1061	C106	0.311000	0.041800	0.416590
C1071	C107	0.283370	0.124970	0.384540
C1081	C108	0.211180	0.136780	0.354490
C1091	C109	0.165500	0.062500	0.356820
C1101	C110	0.191900	0.979100	0.388100
C1111	C111	0.264200	0.968000	0.417900
C1121	C112	0.136700	0.901300	0.389800
C1131	C113	0.151500	0.559100	0.393900
C1141	C114	0.209930	0.484530	0.363200
C1151	C115	0.304100	0.481100	0.348400
C1161	C116	0.357620	0.409820	0.322020
C1171	C117	0.316760	0.341960	0.310030
C1181	C118	0.222080	0.342880	0.324240
C1191	C119	0.170630	0.415030	0.351240
C1201	C120	0.460800	0.407800	0.307600
C1211	C121	0.147400	0.386600	0.107100
C1221	C122	0.166000	0.300800	0.147130
C1231	C123	0.185700	0.213300	0.131300
C1241	C124	0.206000	0.134200	0.168710
C1251	C125	0.202580	0.144780	0.222340
C1261	C126	0.182240	0.233440	0.239800
C1271	C127	0.165200	0.309000	0.200820
C1281	C128	0.231100	0.038900	0.151500
O11	O1	0.288330	0.952610	0.000530
O21	O2	0.337060	0.806060	0.987170
O31	O3	0.341780	0.718320	0.807550
O41	O4	0.322640	0.827920	0.737320
O51	O5	0.098220	0.428220	0.945520
O61	O6	0.955430	0.403530	0.981300
O71	O7	0.829280	0.165080	0.913740
O81	O8	0.920500	0.067300	0.867200
O91	O9	0.971030	0.238230	0.685790
O101	O10	0.035420	0.243500	0.600500
O111	O11	0.371130	0.133330	0.560720
O121	O12	0.464600	0.145800	0.618730
O131	O13	0.352840	0.505480	0.775220
O141	O14	0.458790	0.496190	0.827800
O151	O15	0.636590	0.177430	0.886250
O161	O16	0.539760	0.082360	0.925950
O171	O17	0.247600	0.521000	0.982600
O181	O18	0.047390	0.711670	0.499470
O191	O19	0.193940	0.662940	0.512830
O201	O20	0.281680	0.658220	0.692450
O211	O21	0.172080	0.677360	0.762680
O221	O22	0.571780	0.901780	0.554480
O231	O23	0.596470	0.044570	0.518700
O241	O24	0.834920	0.170720	0.586260
O251	O25	0.932700	0.079500	0.632800
O261	O26	0.761770	0.028970	0.814210
O271	O27	0.756500	0.964580	0.899500
O281	O28	0.866670	0.628870	0.939280
O291	O29	0.854200	0.535400	0.881270
O301	O30	0.494520	0.647160	0.724780
O311	O31	0.503810	0.541210	0.672200
O321	O32	0.822570	0.363410	0.613750
O331	O33	0.917640	0.460240	0.574050
O341	O34	0.479000	0.752400	0.517400
O351	O35	0.711670	0.047390	0.999470
O361	O36	0.662940	0.193940	0.012830
O371	O37	0.658220	0.281680	0.192450
O381	O38	0.677360	0.172080	0.262680
O391	O39	0.901780	0.571780	0.054480
O401	O40	0.044570	0.596470	0.018700
O411	O41	0.170720	0.834920	0.086260
O421	O42	0.079500	0.932700	0.132800
O431	O43	0.028970	0.761770	0.314210
O441	O44	0.964580	0.756500	0.399500
O451	O45	0.628870	0.866670	0.439280
O461	O46	0.535400	0.854200	0.381270
O471	O47	0.647160	0.494520	0.224780
O481	O48	0.541210	0.503810	0.172200
O491	O49	0.363410	0.822570	0.113750
O501	O50	0.460240	0.917640	0.074050
O511	O51	0.752400	0.479000	0.017400
O521	O52	0.952610	0.288330	0.500530
O531	O53	0.806060	0.337060	0.487170
O541	O54	0.718320	0.341780	0.307550
O551	O55	0.827920	0.322640	0.237320
O561	O56	0.428220	0.098220	0.445520
O571	O57	0.403530	0.955430	0.481300
O581	O58	0.165080	0.829280	0.413740
O591	O59	0.067300	0.920500	0.367200
O601	O60	0.238230	0.971030	0.185790
O611	O61	0.243500	0.035420	0.100500
O621	O62	0.133330	0.371130	0.060720
O631	O63	0.145800	0.464600	0.118730
O641	O64	0.505480	0.352840	0.275220
O651	O65	0.496190	0.458790	0.327800
O661	O66	0.177430	0.636590	0.386250
O671	O67	0.082360	0.539760	0.425950
O681	O68	0.521000	0.247600	0.482600
H491	H49	0.391100	0.885900	0.606500
H501	H50	0.341000	0.954800	0.647500
H511	H51	0.312300	0.969500	0.589700
H521	H52	0.112600	0.892000	0.679100
H531	H53	0.132900	0.981700	0.641700
H541	H54	0.168700	0.956500	0.697800
H551	H55	0.286200	0.818800	0.661900
H561	H56	0.252300	0.841100	0.609900
C1291	C129	0.333000	0.924000	0.618700
C1301	C130	0.157100	0.931700	0.667600
N11	N1	0.263700	0.865700	0.637600
H571	H57	0.483200	0.093800	0.065400
H581	H58	0.394200	0.168200	0.080000
H591	H59	0.469500	0.193300	0.032600
H601	H60	0.289500	0.167900	0.964300
H611	H61	0.347800	0.240400	0.971400
H621	H62	0.271300	0.213300	0.017400
H631	H63	0.361100	0.066700	0.030900
H641	H64	0.431300	0.089500	0.986900
C1311	C131	0.438400	0.144800	0.051200
C1321	C132	0.317900	0.190700	0.989400
N21	N2	0.389500	0.112700	0.013400
H651	H65	0.646800	0.587800	0.798200
H661	H66	0.634400	0.516600	0.850000
H671	H67	0.672400	0.606200	0.852400
H681	H68	0.439400	0.657600	0.913300
H691	H69	0.541000	0.649600	0.925700
H701	H70	0.504400	0.559800	0.922000
H711	H71	0.497600	0.609200	0.833000
H721	H72	0.533000	0.691600	0.836600
C1331	C133	0.630400	0.581200	0.836400
C1341	C134	0.502200	0.624000	0.907800
N31	N3	0.536000	0.631200	0.849600
H731	H73	0.114100	0.608900	0.893500
H741	H74	0.045200	0.659000	0.852500
H751	H75	0.030500	0.687700	0.910300
H761	H76	0.108000	0.887400	0.820900
H771	H77	0.018300	0.867100	0.858300
H781	H78	0.043500	0.831300	0.802200
H791	H79	0.181200	0.713800	0.838100
H801	H80	0.158900	0.747700	0.890100
C1351	C135	0.076000	0.667000	0.881300
C1361	C136	0.068300	0.842900	0.832400
N41	N4	0.134300	0.736300	0.862400
H811	H81	0.906200	0.516800	0.434600
H821	H82	0.831800	0.605800	0.420000
H831	H83	0.806700	0.530500	0.467400
H841	H84	0.832100	0.710500	0.535700
H851	H85	0.759600	0.652200	0.528600
H861	H86	0.786700	0.728700	0.482600
H871	H87	0.933300	0.638900	0.469100
H881	H88	0.910500	0.568700	0.513100
C1371	C137	0.855200	0.561600	0.448800
C1381	C138	0.809300	0.682100	0.510600
N51	N5	0.887300	0.610500	0.486600
H891	H89	0.412200	0.353200	0.701800
H901	H90	0.483400	0.365600	0.650000
H911	H91	0.393800	0.327600	0.647600
H921	H92	0.342400	0.560600	0.586700
H931	H93	0.350400	0.459000	0.574300
H941	H94	0.440200	0.495600	0.578000
H951	H95	0.390800	0.502400	0.667000
H961	H96	0.308400	0.467000	0.663400
C1391	C139	0.418800	0.369600	0.663600
C1401	C140	0.376000	0.497800	0.592200
N61	N6	0.368800	0.464000	0.650400
H971	H97	0.608900	0.114100	0.393500
H981	H98	0.659000	0.045200	0.352500
H991	H99	0.687700	0.030500	0.410300
H1001	H100	0.887400	0.108000	0.320900
H1011	H101	0.867100	0.018300	0.358300
H1021	H102	0.831300	0.043500	0.302200
H1031	H103	0.713800	0.181200	0.338100
H1041	H104	0.747700	0.158900	0.390100
C1411	C141	0.667000	0.076000	0.381300
C1421	C142	0.842900	0.068300	0.332400
N71	N7	0.736300	0.134300	0.362400
H1051	H105	0.516800	0.906200	0.934600
H1061	H106	0.605800	0.831800	0.920000
H1071	H107	0.530500	0.806700	0.967400
H1081	H108	0.710500	0.832100	0.035700
H1091	H109	0.652200	0.759600	0.028600
H1101	H110	0.728700	0.786700	0.982600
H1111	H111	0.638900	0.933300	0.969100
H1121	H112	0.568700	0.910500	0.013100
C1431	C143	0.561600	0.855200	0.948800
C1441	C144	0.682100	0.809300	0.010600
N81	N8	0.610500	0.887300	0.986600
H1131	H113	0.353200	0.412200	0.201800
H1141	H114	0.365600	0.483400	0.150000
H1151	H115	0.327600	0.393800	0.147600
H1161	H116	0.560600	0.342400	0.086700
H1171	H117	0.459000	0.350400	0.074300
H1181	H118	0.495600	0.440200	0.078000
H1191	H119	0.502400	0.390800	0.167000
H1201	H120	0.467000	0.308400	0.163400
C1451	C145	0.369600	0.418800	0.163600
C1461	C146	0.497800	0.376000	0.092200
N91	N9	0.464000	0.368800	0.150400
H1211	H121	0.885900	0.391100	0.106500
H1221	H122	0.954800	0.341000	0.147500
H1231	H123	0.969500	0.312300	0.089700
H1241	H124	0.892000	0.112600	0.179100
H1251	H125	0.981700	0.132900	0.141700
H1261	H126	0.956500	0.168700	0.197800
H1271	H127	0.818800	0.286200	0.161900
H1281	H128	0.841100	0.252300	0.109900
C1471	C147	0.924000	0.333000	0.118700
C1481	C148	0.931700	0.157100	0.167600
N101	N10	0.865700	0.263700	0.137600
H1291	H129	0.093800	0.483200	0.565400
H1301	H130	0.168200	0.394200	0.580000
H1311	H131	0.193300	0.469500	0.532600
H1321	H132	0.167900	0.289500	0.464300
H1331	H133	0.240400	0.347800	0.471400
H1341	H134	0.213300	0.271300	0.517400
H1351	H135	0.066700	0.361100	0.530900
H1361	H136	0.089500	0.431300	0.486900
C1491	C149	0.144800	0.438400	0.551200
C1501	C150	0.190700	0.317900	0.489400
N111	N11	0.112700	0.389500	0.513400
H1371	H137	0.587800	0.646800	0.298200
H1381	H138	0.516600	0.634400	0.350000
H1391	H139	0.606200	0.672400	0.352400
H1401	H140	0.657600	0.439400	0.413300
H1411	H141	0.649600	0.541000	0.425700
H1421	H142	0.559800	0.504400	0.422000
H1431	H143	0.609200	0.497600	0.333000
H1441	H144	0.691600	0.533000	0.336600
C1511	C151	0.581200	0.630400	0.336400
C1521	C152	0.624000	0.502200	0.407800
N121	N12	0.631200	0.536000	0.349600
