data_GEWXAJ_freeONLY_PM
_symmetry_space_group_name_H-M	'P1'
_cell_length_a	7.396020
_cell_length_b	15.666000
_cell_length_c	17.570600
_cell_angle_alpha	110.896000
_cell_angle_beta	102.150000
_cell_angle_gamma	90.000000
_symmetry_Int_Tables_number 1

loop_
_symmetry_equiv_pos_as_xyz
'x,y,z'

loop_
_atom_site_label
_atom_site_type_symbol
_atom_site_fract_x
_atom_site_fract_y
_atom_site_fract_z
Cu11	Cu1	0.890380	0.415030	0.505220
Cu21	Cu2	0.889230	0.407940	0.324540
Cu31	Cu3	0.385160	0.084970	0.494780
Cu41	Cu4	0.564690	0.092060	0.675460
Cu51	Cu5	0.109620	0.584970	0.494780
Cu61	Cu6	0.110770	0.592060	0.675460
Cu71	Cu7	0.614840	0.915030	0.505220
Cu81	Cu8	0.435310	0.907940	0.324540
H11	H1	0.258500	0.469300	0.787200
H21	H2	0.015300	0.260200	0.588400
H31	H3	0.169800	0.225200	0.725400
H41	H4	0.267000	0.304700	0.799800
H51	H5	0.855400	0.116800	0.436000
H61	H6	0.986800	0.135900	0.232400
H71	H7	0.024200	0.981000	0.181600
H81	H8	0.386300	0.316200	0.123800
H91	H9	0.993500	0.894800	0.262000
H101	H10	0.471300	0.030700	0.212800
H111	H11	0.426900	0.239800	0.411600
H121	H12	0.444400	0.274800	0.274600
H131	H13	0.467200	0.195300	0.200200
H141	H14	0.419400	0.383200	0.564000
H151	H15	0.754400	0.364100	0.767600
H161	H16	0.842600	0.519000	0.818400
H171	H17	0.262500	0.183800	0.876200
H181	H18	0.731500	0.605200	0.738000
H191	H19	0.741500	0.530700	0.212800
H201	H20	0.984700	0.739800	0.411600
H211	H21	0.830200	0.774800	0.274600
H221	H22	0.733000	0.695300	0.200200
H231	H23	0.144600	0.883200	0.564000
H241	H24	0.013200	0.864100	0.767600
H251	H25	0.975800	0.019000	0.818400
H261	H26	0.613700	0.683800	0.876200
H271	H27	0.006500	0.105200	0.738000
H281	H28	0.528700	0.969300	0.787200
H291	H29	0.573100	0.760200	0.588400
H301	H30	0.555600	0.725200	0.725400
H311	H31	0.532800	0.804700	0.799800
H321	H32	0.580600	0.616800	0.436000
H331	H33	0.245600	0.635900	0.232400
H341	H34	0.157400	0.481000	0.181600
H351	H35	0.737500	0.816200	0.123800
H361	H36	0.268500	0.394800	0.262000
H371	H37	0.792100	0.250000	0.000000
H381	H38	0.170800	0.250000	0.000000
H391	H39	0.207900	0.750000	0.000000
H401	H40	0.829200	0.750000	0.000000
C11	C1	0.190700	0.434100	0.734000
C21	C2	0.057400	0.319600	0.625000
C31	C3	0.881810	0.937700	0.404020
C41	C4	0.891000	0.089900	0.385400
C51	C5	0.921100	0.142000	0.340000
C61	C6	0.914600	0.996600	0.355200
C71	C7	0.903000	0.243400	0.370800
C81	C8	0.969800	0.100600	0.263400
C91	C9	0.993500	0.008200	0.233200
C101	C10	0.757200	0.329900	0.156400
C111	C11	0.612900	0.289500	0.075600
C121	C12	0.425600	0.289400	0.074200
C131	C13	0.971000	0.956500	0.280200
C141	C14	0.456700	0.065900	0.266000
C151	C15	0.432400	0.180400	0.375000
C161	C16	0.477790	0.562300	0.595980
C171	C17	0.505600	0.410100	0.614600
C181	C18	0.581100	0.358000	0.660000
C191	C19	0.559400	0.503400	0.644800
C201	C20	0.532200	0.256600	0.629200
C211	C21	0.706400	0.399400	0.736600
C221	C22	0.760300	0.491800	0.766800
C231	C23	0.600800	0.170100	0.843600
C241	C24	0.537300	0.210500	0.924400
C251	C25	0.351400	0.210600	0.925800
C261	C26	0.690800	0.543500	0.719800
C271	C27	0.809300	0.565900	0.266000
C281	C28	0.942600	0.680400	0.375000
C291	C29	0.118190	0.062300	0.595980
C301	C30	0.109000	0.910100	0.614600
C311	C31	0.078900	0.858000	0.660000
C321	C32	0.085400	0.003400	0.644800
C331	C33	0.097000	0.756600	0.629200
C341	C34	0.030200	0.899400	0.736600
C351	C35	0.006500	0.991800	0.766800
C361	C36	0.242800	0.670100	0.843600
C371	C37	0.387100	0.710500	0.924400
C381	C38	0.574400	0.710600	0.925800
C391	C39	0.029000	0.043500	0.719800
C401	C40	0.543300	0.934100	0.734000
C411	C41	0.567600	0.819600	0.625000
C421	C42	0.522210	0.437700	0.404020
C431	C43	0.494400	0.589900	0.385400
C441	C44	0.418900	0.642000	0.340000
C451	C45	0.440600	0.496600	0.355200
C461	C46	0.467800	0.743400	0.370800
C471	C47	0.293600	0.600600	0.263400
C481	C48	0.239700	0.508200	0.233200
C491	C49	0.399200	0.829900	0.156400
C501	C50	0.462700	0.789500	0.075600
C511	C51	0.648600	0.789400	0.074200
C521	C52	0.309200	0.456500	0.280200
C531	C53	0.666400	0.250000	0.000000
C541	C54	0.297000	0.250000	0.000000
C551	C55	0.333600	0.750000	0.000000
C561	C56	0.703000	0.750000	0.000000
N11	N1	0.030140	0.392600	0.606880
N21	N2	0.115960	0.465800	0.677120
N31	N3	0.155200	0.341900	0.704400
N41	N4	0.203700	0.282900	0.749000
N51	N5	0.423260	0.107400	0.393120
N61	N6	0.438840	0.034200	0.322880
N71	N7	0.450800	0.158100	0.295600
N81	N8	0.454700	0.217100	0.251000
N91	N9	0.969860	0.607400	0.393120
N101	N10	0.884040	0.534200	0.322880
N111	N11	0.844800	0.658100	0.295600
N121	N12	0.796300	0.717100	0.251000
N131	N13	0.576740	0.892600	0.606880
N141	N14	0.561160	0.965800	0.677120
N151	N15	0.549200	0.841900	0.704400
N161	N16	0.545300	0.782900	0.749000
O11	O1	0.909670	0.282200	0.319340
O21	O2	0.879890	0.282700	0.444780
O31	O3	0.000880	0.890400	0.422760
O41	O4	0.721730	0.942100	0.421860
O51	O5	0.073840	0.455600	0.429080
O61	O6	0.696700	0.362300	0.221200
O71	O7	0.923200	0.328200	0.155600
O81	O8	0.590330	0.217800	0.680660
O91	O9	0.435110	0.217300	0.555220
O101	O10	0.578120	0.609600	0.577240
O111	O11	0.299870	0.557900	0.578140
O121	O12	0.644760	0.044400	0.570920
O131	O13	0.475500	0.137700	0.778800
O141	O14	0.767600	0.171800	0.844400
O151	O15	0.090330	0.717800	0.680660
O161	O16	0.120110	0.717300	0.555220
O171	O17	0.999120	0.109600	0.577240
O181	O18	0.278270	0.057900	0.578140
O191	O19	0.926160	0.544400	0.570920
O201	O20	0.303300	0.637700	0.778800
O211	O21	0.076800	0.671800	0.844400
O221	O22	0.409670	0.782200	0.319340
O231	O23	0.564890	0.782700	0.444780
O241	O24	0.421880	0.390400	0.422760
O251	O25	0.700130	0.442100	0.421860
O261	O26	0.355240	0.955600	0.429080
O271	O27	0.524500	0.862300	0.221200
O281	O28	0.232400	0.828200	0.155600
