data_GIKMOD06_freeONLY_PM
_symmetry_space_group_name_H-M	'P1'
_cell_length_a	7.355000
_cell_length_b	10.152000
_cell_length_c	18.215000
_cell_angle_alpha	90.000000
_cell_angle_beta	90.000000
_cell_angle_gamma	94.502000
_symmetry_Int_Tables_number 1

loop_
_symmetry_equiv_pos_as_xyz
'x,y,z'

loop_
_atom_site_label
_atom_site_type_symbol
_atom_site_fract_x
_atom_site_fract_y
_atom_site_fract_z
Cu11	Cu1	0.866570	0.217670	0.906640
Cu21	Cu2	0.049230	0.934350	0.931520
Cu31	Cu3	0.633430	0.282330	0.406640
Cu41	Cu4	0.450770	0.565650	0.431520
Cu51	Cu5	0.133430	0.782330	0.093360
Cu61	Cu6	0.950770	0.065650	0.068480
Cu71	Cu7	0.366570	0.717670	0.593360
Cu81	Cu8	0.549230	0.434350	0.568480
H11	H1	0.789200	0.168400	0.694200
H21	H2	0.949000	0.799200	0.706900
H31	H3	0.786500	0.941400	0.512900
H41	H4	0.710800	0.331600	0.194200
H51	H5	0.551000	0.700800	0.206900
H61	H6	0.713500	0.558600	0.012900
H71	H7	0.210800	0.831600	0.305800
H81	H8	0.051000	0.200800	0.293100
H91	H9	0.213500	0.058600	0.487100
H101	H10	0.289200	0.668400	0.805800
H111	H11	0.449000	0.299200	0.793100
H121	H12	0.286500	0.441400	0.987100
C11	C1	0.868800	0.851700	0.604880
C21	C2	0.777900	0.073500	0.596430
C31	C3	0.810400	0.088900	0.671570
C41	C4	0.874100	0.986900	0.713190
C51	C5	0.907100	0.010800	0.793370
C61	C6	0.905000	0.867500	0.679790
C71	C7	0.807600	0.953200	0.562910
C81	C8	0.707400	0.185500	0.554910
C91	C9	0.631200	0.648300	0.104880
C101	C10	0.722100	0.426500	0.096430
C111	C11	0.689600	0.411100	0.171570
C121	C12	0.625900	0.513100	0.213190
C131	C13	0.592900	0.489200	0.293370
C141	C14	0.595000	0.632500	0.179790
C151	C15	0.692400	0.546800	0.062910
C161	C16	0.792600	0.314500	0.054910
C171	C17	0.131200	0.148300	0.395120
C181	C18	0.222100	0.926500	0.403570
C191	C19	0.189600	0.911100	0.328430
C201	C20	0.125900	0.013100	0.286810
C211	C21	0.092900	0.989200	0.206630
C221	C22	0.095000	0.132500	0.320210
C231	C23	0.192400	0.046800	0.437090
C241	C24	0.292600	0.814500	0.445090
C251	C25	0.368800	0.351700	0.895120
C261	C26	0.277900	0.573500	0.903570
C271	C27	0.310400	0.588900	0.828430
C281	C28	0.374100	0.486900	0.786810
C291	C29	0.407100	0.510800	0.706630
C301	C30	0.405000	0.367500	0.820210
C311	C31	0.307600	0.453200	0.937090
C321	C32	0.207400	0.685500	0.945090
S11	S1	0.884580	0.693540	0.566140
S21	S2	0.615420	0.806460	0.066140
S31	S3	0.115420	0.306460	0.433860
S41	S4	0.384580	0.193540	0.933860
O11	O1	0.953400	0.915600	0.832290
O21	O2	0.868800	0.054770	0.964840
O31	O3	0.661000	0.164900	0.488910
O41	O4	0.884700	0.126200	0.814790
O51	O5	0.887200	0.705700	0.487160
O61	O6	0.699200	0.293100	0.590330
O71	O7	0.722200	0.618900	0.594140
O81	O8	0.048700	0.642400	0.596740
O91	O9	0.887800	0.379900	0.847590
O101	O10	0.546600	0.584400	0.332290
O111	O11	0.631200	0.445230	0.464840
O121	O12	0.839000	0.335100	0.988910
O131	O13	0.615300	0.373800	0.314790
O141	O14	0.612800	0.794300	0.987160
O151	O15	0.800800	0.206900	0.090330
O161	O16	0.777800	0.881100	0.094140
O171	O17	0.451300	0.857600	0.096740
O181	O18	0.612200	0.120100	0.347590
O191	O19	0.046600	0.084400	0.167710
O201	O20	0.131200	0.945230	0.035160
O211	O21	0.339000	0.835100	0.511090
O221	O22	0.115300	0.873800	0.185210
O231	O23	0.112800	0.294300	0.512840
O241	O24	0.300800	0.706900	0.409670
O251	O25	0.277800	0.381100	0.405860
O261	O26	0.951300	0.357600	0.403260
O271	O27	0.112200	0.620100	0.152410
O281	O28	0.453400	0.415600	0.667710
O291	O29	0.368800	0.554770	0.535160
O301	O30	0.161000	0.664900	0.011090
O311	O31	0.384700	0.626200	0.685210
O321	O32	0.387200	0.205700	0.012840
O331	O33	0.199200	0.793100	0.909670
O341	O34	0.222200	0.118900	0.905860
O351	O35	0.548700	0.142400	0.903260
O361	O36	0.387800	0.879900	0.652410
