data_GIKMOD02_freeONLY_PM
_symmetry_space_group_name_H-M	'P1'
_cell_length_a	7.303300
_cell_length_b	10.127200
_cell_length_c	18.261000
_cell_angle_alpha	90.000000
_cell_angle_beta	90.000000
_cell_angle_gamma	94.841000
_symmetry_Int_Tables_number 1

loop_
_symmetry_equiv_pos_as_xyz
'x,y,z'

loop_
_atom_site_label
_atom_site_type_symbol
_atom_site_fract_x
_atom_site_fract_y
_atom_site_fract_z
Cu11	Cu1	0.866370	0.217190	0.907390
Cu21	Cu2	0.051180	0.935580	0.931510
Cu31	Cu3	0.633630	0.282810	0.407390
Cu41	Cu4	0.448820	0.564420	0.431510
Cu51	Cu5	0.133630	0.782810	0.092610
Cu61	Cu6	0.948820	0.064420	0.068490
Cu71	Cu7	0.366370	0.717190	0.592610
Cu81	Cu8	0.551180	0.435580	0.568490
H11	H1	0.791400	0.170500	0.695000
H21	H2	0.952900	0.800800	0.706800
H31	H3	0.789400	0.944200	0.513200
H41	H4	0.708600	0.329500	0.195000
H51	H5	0.547100	0.699200	0.206800
H61	H6	0.710600	0.555800	0.013200
H71	H7	0.208600	0.829500	0.305000
H81	H8	0.047100	0.199200	0.293200
H91	H9	0.210600	0.055800	0.486800
H101	H10	0.291400	0.670500	0.805000
H111	H11	0.452900	0.300800	0.793200
H121	H12	0.289400	0.444200	0.986800
C11	C1	0.873200	0.855000	0.604860
C21	C2	0.782400	0.076400	0.597130
C31	C3	0.813400	0.091300	0.672200
C41	C4	0.877100	0.988600	0.713470
C51	C5	0.908100	0.011400	0.793730
C61	C6	0.908900	0.869400	0.679940
C71	C7	0.811400	0.956000	0.563060
C81	C8	0.711600	0.188500	0.555660
C91	C9	0.626800	0.645000	0.104860
C101	C10	0.717600	0.423600	0.097130
C111	C11	0.686600	0.408700	0.172200
C121	C12	0.622900	0.511400	0.213470
C131	C13	0.591900	0.488600	0.293730
C141	C14	0.591100	0.630600	0.179940
C151	C15	0.688600	0.544000	0.063060
C161	C16	0.788400	0.311500	0.055660
C171	C17	0.126800	0.145000	0.395140
C181	C18	0.217600	0.923600	0.402870
C191	C19	0.186600	0.908700	0.327800
C201	C20	0.122900	0.011400	0.286530
C211	C21	0.091900	0.988600	0.206270
C221	C22	0.091100	0.130600	0.320060
C231	C23	0.188600	0.044000	0.436940
C241	C24	0.288400	0.811500	0.444340
C251	C25	0.373200	0.355000	0.895140
C261	C26	0.282400	0.576400	0.902870
C271	C27	0.313400	0.591300	0.827800
C281	C28	0.377100	0.488600	0.786530
C291	C29	0.408100	0.511400	0.706270
C301	C30	0.408900	0.369400	0.820060
C311	C31	0.311400	0.456000	0.936940
C321	C32	0.211600	0.688500	0.944340
S11	S1	0.885880	0.695870	0.566360
S21	S2	0.614120	0.804130	0.066360
S31	S3	0.114120	0.304130	0.433640
S41	S4	0.385880	0.195870	0.933640
O11	O1	0.955200	0.916150	0.832370
O21	O2	0.867200	0.053240	0.965030
O31	O3	0.662700	0.167040	0.490240
O41	O4	0.884000	0.126920	0.815470
O51	O5	0.891900	0.708240	0.487460
O61	O6	0.704300	0.295880	0.590640
O71	O7	0.718700	0.622550	0.593180
O81	O8	0.048300	0.642490	0.597770
O91	O9	0.891100	0.381090	0.849260
O101	O10	0.544800	0.583850	0.332370
O111	O11	0.632800	0.446760	0.465030
O121	O12	0.837300	0.332960	0.990240
O131	O13	0.616000	0.373080	0.315470
O141	O14	0.608100	0.791760	0.987460
O151	O15	0.795700	0.204120	0.090640
O161	O16	0.781300	0.877450	0.093180
O171	O17	0.451700	0.857510	0.097770
O181	O18	0.608900	0.118910	0.349260
O191	O19	0.044800	0.083850	0.167630
O201	O20	0.132800	0.946760	0.034970
O211	O21	0.337300	0.832960	0.509760
O221	O22	0.116000	0.873080	0.184530
O231	O23	0.108100	0.291760	0.512540
O241	O24	0.295700	0.704120	0.409360
O251	O25	0.281300	0.377450	0.406820
O261	O26	0.951700	0.357510	0.402230
O271	O27	0.108900	0.618910	0.150740
O281	O28	0.455200	0.416150	0.667630
O291	O29	0.367200	0.553240	0.534970
O301	O30	0.162700	0.667040	0.009760
O311	O31	0.384000	0.626920	0.684530
O321	O32	0.391900	0.208240	0.012540
O331	O33	0.204300	0.795880	0.909360
O341	O34	0.218700	0.122550	0.906820
O351	O35	0.548300	0.142490	0.902230
O361	O36	0.391100	0.881090	0.650740
