data_GIKMOD05_freeONLY_PM
_symmetry_space_group_name_H-M	'P1'
_cell_length_a	7.310000
_cell_length_b	10.145000
_cell_length_c	18.280000
_cell_angle_alpha	90.000000
_cell_angle_beta	90.000000
_cell_angle_gamma	94.645000
_symmetry_Int_Tables_number 1

loop_
_symmetry_equiv_pos_as_xyz
'x,y,z'

loop_
_atom_site_label
_atom_site_type_symbol
_atom_site_fract_x
_atom_site_fract_y
_atom_site_fract_z
Cu11	Cu1	0.866460	0.217500	0.906870
Cu21	Cu2	0.049920	0.934800	0.931520
Cu31	Cu3	0.633540	0.282500	0.406870
Cu41	Cu4	0.450080	0.565200	0.431520
Cu51	Cu5	0.133540	0.782500	0.093130
Cu61	Cu6	0.950080	0.065200	0.068480
Cu71	Cu7	0.366460	0.717500	0.593130
Cu81	Cu8	0.549920	0.434800	0.568480
H11	H1	0.789400	0.168700	0.694400
H21	H2	0.948900	0.799000	0.706900
H31	H3	0.787300	0.942400	0.513300
H41	H4	0.710600	0.331300	0.194400
H51	H5	0.551100	0.701000	0.206900
H61	H6	0.712700	0.557600	0.013300
H71	H7	0.210600	0.831300	0.305600
H81	H8	0.051100	0.201000	0.293100
H91	H9	0.212700	0.057600	0.486700
H101	H10	0.289400	0.668700	0.805600
H111	H11	0.448900	0.299000	0.793100
H121	H12	0.287300	0.442400	0.986700
C11	C1	0.870200	0.853000	0.604910
C21	C2	0.779800	0.074800	0.596930
C31	C3	0.811400	0.089300	0.671740
C41	C4	0.875000	0.987800	0.713350
C51	C5	0.907200	0.010800	0.793320
C61	C6	0.905700	0.867800	0.679880
C71	C7	0.808900	0.954100	0.563060
C81	C8	0.708900	0.186500	0.555060
C91	C9	0.629800	0.647000	0.104910
C101	C10	0.720200	0.425200	0.096930
C111	C11	0.688600	0.410700	0.171740
C121	C12	0.625000	0.512200	0.213350
C131	C13	0.592800	0.489200	0.293320
C141	C14	0.594300	0.632200	0.179880
C151	C15	0.691100	0.545900	0.063060
C161	C16	0.791100	0.313500	0.055060
C171	C17	0.129800	0.147000	0.395090
C181	C18	0.220200	0.925200	0.403070
C191	C19	0.188600	0.910700	0.328260
C201	C20	0.125000	0.012200	0.286650
C211	C21	0.092800	0.989200	0.206680
C221	C22	0.094300	0.132200	0.320120
C231	C23	0.191100	0.045900	0.436940
C241	C24	0.291100	0.813500	0.444940
C251	C25	0.370200	0.353000	0.895090
C261	C26	0.279800	0.574800	0.903070
C271	C27	0.311400	0.589300	0.828260
C281	C28	0.375000	0.487800	0.786650
C291	C29	0.407200	0.510800	0.706680
C301	C30	0.405700	0.367800	0.820120
C311	C31	0.308900	0.454100	0.936940
C321	C32	0.208900	0.686500	0.944940
S11	S1	0.884910	0.694330	0.566200
S21	S2	0.615090	0.805670	0.066200
S31	S3	0.115090	0.305670	0.433800
S41	S4	0.384910	0.194330	0.933800
O11	O1	0.954500	0.915670	0.832470
O21	O2	0.868600	0.054160	0.964970
O31	O3	0.661600	0.165700	0.489560
O41	O4	0.884100	0.126100	0.814960
O51	O5	0.888400	0.706600	0.487380
O61	O6	0.700300	0.293600	0.590500
O71	O7	0.720900	0.620100	0.593780
O81	O8	0.048600	0.642800	0.596930
O91	O9	0.888700	0.379900	0.847950
O101	O10	0.545500	0.584330	0.332470
O111	O11	0.631400	0.445840	0.464970
O121	O12	0.838400	0.334300	0.989560
O131	O13	0.615900	0.373900	0.314960
O141	O14	0.611600	0.793400	0.987380
O151	O15	0.799700	0.206400	0.090500
O161	O16	0.779100	0.879900	0.093780
O171	O17	0.451400	0.857200	0.096930
O181	O18	0.611300	0.120100	0.347950
O191	O19	0.045500	0.084330	0.167530
O201	O20	0.131400	0.945840	0.035030
O211	O21	0.338400	0.834300	0.510440
O221	O22	0.115900	0.873900	0.185040
O231	O23	0.111600	0.293400	0.512620
O241	O24	0.299700	0.706400	0.409500
O251	O25	0.279100	0.379900	0.406220
O261	O26	0.951400	0.357200	0.403070
O271	O27	0.111300	0.620100	0.152050
O281	O28	0.454500	0.415670	0.667530
O291	O29	0.368600	0.554160	0.535030
O301	O30	0.161600	0.665700	0.010440
O311	O31	0.384100	0.626100	0.685040
O321	O32	0.388400	0.206600	0.012620
O331	O33	0.200300	0.793600	0.909500
O341	O34	0.220900	0.120100	0.906220
O351	O35	0.548600	0.142800	0.903070
O361	O36	0.388700	0.879900	0.652050
