data_GIKQIC_freeONLY_PM
_symmetry_space_group_name_H-M	'P1'
_cell_length_a	5.703000
_cell_length_b	10.623000
_cell_length_c	29.890000
_cell_angle_alpha	90.000000
_cell_angle_beta	90.000000
_cell_angle_gamma	90.000000
_symmetry_Int_Tables_number 1

loop_
_symmetry_equiv_pos_as_xyz
'x,y,z'

loop_
_atom_site_label
_atom_site_type_symbol
_atom_site_fract_x
_atom_site_fract_y
_atom_site_fract_z
Cd11	Cd1	0.824800	0.007060	0.760850
Cd21	Cd2	0.675200	0.992940	0.260850
Cd31	Cd3	0.175200	0.507060	0.739150
Cd41	Cd4	0.324800	0.492940	0.239150
H11	H1	0.451800	0.131600	0.827500
H21	H2	0.365400	0.156800	0.901700
H31	H3	0.985700	0.003000	0.932400
H41	H4	0.055600	0.980800	0.857000
H51	H5	0.937400	0.999000	0.094600
H61	H6	0.957500	0.973100	0.170700
H71	H7	0.307300	0.160500	0.112100
H81	H8	0.347200	0.131100	0.187200
H91	H9	0.950500	0.964400	0.986100
H101	H10	0.030900	0.049100	0.021100
H111	H11	0.048200	0.868400	0.327500
H121	H12	0.134600	0.843200	0.401700
H131	H13	0.514300	0.997000	0.432400
H141	H14	0.444400	0.019200	0.357000
H151	H15	0.562600	0.001000	0.594600
H161	H16	0.542500	0.026900	0.670700
H171	H17	0.192700	0.839500	0.612100
H181	H18	0.152800	0.868900	0.687200
H191	H19	0.549500	0.035600	0.486100
H201	H20	0.469100	0.950900	0.521100
H211	H21	0.548200	0.631600	0.672500
H221	H22	0.634600	0.656800	0.598300
H231	H23	0.014300	0.503000	0.567600
H241	H24	0.944400	0.480800	0.643000
H251	H25	0.062600	0.499000	0.405400
H261	H26	0.042500	0.473100	0.329300
H271	H27	0.692700	0.660500	0.387900
H281	H28	0.652800	0.631100	0.312800
H291	H29	0.049500	0.464400	0.513900
H301	H30	0.969100	0.549100	0.478900
H311	H31	0.951800	0.368400	0.172500
H321	H32	0.865400	0.343200	0.098300
H331	H33	0.485700	0.497000	0.067600
H341	H34	0.555600	0.519200	0.143000
H351	H35	0.437400	0.501000	0.905400
H361	H36	0.457500	0.526900	0.829300
H371	H37	0.807300	0.339500	0.887900
H381	H38	0.847200	0.368900	0.812800
H391	H39	0.450500	0.535600	0.013900
H401	H40	0.530900	0.450900	0.978900
C11	C1	0.559300	0.104300	0.848760
C21	C2	0.506200	0.119400	0.893390
C31	C3	0.661700	0.079200	0.925930
C41	C4	0.873300	0.028300	0.911770
C51	C5	0.914200	0.015800	0.866190
C61	C6	0.593300	0.095200	0.973100
C71	C7	0.573400	0.096400	0.045620
C81	C8	0.613700	0.079500	0.093820
C91	C9	0.813700	0.024900	0.112650
C101	C10	0.824200	0.010100	0.158510
C111	C11	0.440500	0.120700	0.123150
C121	C12	0.465500	0.102800	0.168320
C131	C13	0.940700	0.895700	0.348760
C141	C14	0.993800	0.880600	0.393390
C151	C15	0.838300	0.920800	0.425930
C161	C16	0.626700	0.971700	0.411770
C171	C17	0.585800	0.984200	0.366190
C181	C18	0.906700	0.904800	0.473100
C191	C19	0.926600	0.903600	0.545620
C201	C20	0.886300	0.920500	0.593820
C211	C21	0.686300	0.975100	0.612650
C221	C22	0.675800	0.989900	0.658510
C231	C23	0.059500	0.879300	0.623150
C241	C24	0.034500	0.897200	0.668320
C251	C25	0.440700	0.604300	0.651240
C261	C26	0.493800	0.619400	0.606610
C271	C27	0.338300	0.579200	0.574070
C281	C28	0.126700	0.528300	0.588230
C291	C29	0.085800	0.515800	0.633810
C301	C30	0.406700	0.595200	0.526900
C311	C31	0.426600	0.596400	0.454380
C321	C32	0.386300	0.579500	0.406180
C331	C33	0.186300	0.524900	0.387350
C341	C34	0.175800	0.510100	0.341490
C351	C35	0.559500	0.620700	0.376850
C361	C36	0.534500	0.602800	0.331680
C371	C37	0.059300	0.395700	0.151240
C381	C38	0.006200	0.380600	0.106610
C391	C39	0.161700	0.420800	0.074070
C401	C40	0.373300	0.471700	0.088230
C411	C41	0.414200	0.484200	0.133810
C421	C42	0.093300	0.404800	0.026900
C431	C43	0.073400	0.403600	0.954380
C441	C44	0.113700	0.420500	0.906180
C451	C45	0.313700	0.475100	0.887350
C461	C46	0.324200	0.489900	0.841490
C471	C47	0.940500	0.379300	0.876850
C481	C48	0.965500	0.397200	0.831680
S11	S1	0.327070	0.813400	0.781740
S21	S2	0.172930	0.186600	0.281740
S31	S3	0.672930	0.313400	0.718260
S41	S4	0.827070	0.686600	0.218260
N11	N1	0.760400	0.051500	0.834810
N21	N2	0.653000	0.046300	0.186470
N31	N3	0.917300	0.996500	0.012850
N41	N4	0.396800	0.150600	0.984180
N51	N5	0.388900	0.154100	0.031050
N61	N6	0.707900	0.060700	0.010740
N71	N7	0.739600	0.948500	0.334810
N81	N8	0.847000	0.953700	0.686470
N91	N9	0.582700	0.003500	0.512850
N101	N10	0.103200	0.849400	0.484180
N111	N11	0.111100	0.845900	0.531050
N121	N12	0.792100	0.939300	0.510740
N131	N13	0.239600	0.551500	0.665190
N141	N14	0.347000	0.546300	0.313530
N151	N15	0.082700	0.496500	0.487150
N161	N16	0.603200	0.650600	0.515820
N171	N17	0.611100	0.654100	0.468950
N181	N18	0.292100	0.560700	0.489260
N191	N19	0.260400	0.448500	0.165190
N201	N20	0.153000	0.453700	0.813530
N211	N21	0.417300	0.503500	0.987150
N221	N22	0.896800	0.349400	0.015820
N231	N23	0.888900	0.345900	0.968950
N241	N24	0.207900	0.439300	0.989260
O11	O1	0.069500	0.838600	0.778200
O21	O2	0.453800	0.915400	0.758440
O31	O3	0.375100	0.692200	0.758920
O41	O4	0.391900	0.807000	0.828780
O51	O5	0.144000	0.139300	0.761830
O61	O6	0.430500	0.161400	0.278200
O71	O7	0.046200	0.084600	0.258440
O81	O8	0.124900	0.307800	0.258920
O91	O9	0.108100	0.193000	0.328780
O101	O10	0.356000	0.860700	0.261830
O111	O11	0.930500	0.338600	0.721800
O121	O12	0.546200	0.415400	0.741560
O131	O13	0.624900	0.192200	0.741080
O141	O14	0.608100	0.307000	0.671220
O151	O15	0.856000	0.639300	0.738170
O161	O16	0.569500	0.661400	0.221800
O171	O17	0.953800	0.584600	0.241560
O181	O18	0.875100	0.807800	0.241080
O191	O19	0.891900	0.693000	0.171220
O201	O20	0.644000	0.360700	0.238170
