data_GIQXEK_freeONLY_PM
_symmetry_space_group_name_H-M	'P1'
_cell_length_a	9.692100
_cell_length_b	9.692100
_cell_length_c	15.693800
_cell_angle_alpha	92.701700
_cell_angle_beta	92.701700
_cell_angle_gamma	99.019600
_symmetry_Int_Tables_number 1

loop_
_symmetry_equiv_pos_as_xyz
'x,y,z'

loop_
_atom_site_label
_atom_site_type_symbol
_atom_site_fract_x
_atom_site_fract_y
_atom_site_fract_z
Ce11	Ce1	0.011400	0.988600	0.750000
Ce21	Ce2	0.988600	0.011400	0.250000
P11	P1	0.356420	0.045280	0.643900
P21	P2	0.648660	0.974080	0.651650
P31	P3	0.954720	0.643580	0.856100
P41	P4	0.025920	0.351340	0.848350
P51	P5	0.643580	0.954720	0.356100
P61	P6	0.351340	0.025920	0.348350
P71	P7	0.045280	0.356420	0.143900
P81	P8	0.974080	0.648660	0.151650
H11	H1	0.478200	0.160000	0.811700
H21	H2	0.634900	0.127100	0.810700
H31	H3	0.580300	0.225100	0.741600
H41	H4	0.508000	0.824000	0.771000
H51	H5	0.605000	0.403000	0.550000
H61	H6	0.137000	0.817000	0.617000
H71	H7	0.902000	0.102000	0.912000
H81	H8	0.711000	0.391000	0.496000
H91	H9	0.084000	0.728000	0.679000
H101	H10	0.869000	0.963000	0.930000
H111	H11	0.840000	0.521800	0.688300
H121	H12	0.872900	0.365100	0.689300
H131	H13	0.774900	0.419700	0.758400
H141	H14	0.176000	0.492000	0.729000
H151	H15	0.597000	0.395000	0.950000
H161	H16	0.183000	0.863000	0.883000
H171	H17	0.898000	0.098000	0.588000
H181	H18	0.609000	0.289000	0.004000
H191	H19	0.272000	0.916000	0.821000
H201	H20	0.037000	0.131000	0.570000
H211	H21	0.521800	0.840000	0.188300
H221	H22	0.365100	0.872900	0.189300
H231	H23	0.419700	0.774900	0.258400
H241	H24	0.492000	0.176000	0.229000
H251	H25	0.395000	0.597000	0.450000
H261	H26	0.863000	0.183000	0.383000
H271	H27	0.098000	0.898000	0.088000
H281	H28	0.289000	0.609000	0.504000
H291	H29	0.916000	0.272000	0.321000
H301	H30	0.131000	0.037000	0.070000
H311	H31	0.160000	0.478200	0.311700
H321	H32	0.127100	0.634900	0.310700
H331	H33	0.225100	0.580300	0.241600
H341	H34	0.824000	0.508000	0.271000
H351	H35	0.403000	0.605000	0.050000
H361	H36	0.817000	0.137000	0.117000
H371	H37	0.102000	0.902000	0.412000
H381	H38	0.391000	0.711000	0.996000
H391	H39	0.728000	0.084000	0.179000
H401	H40	0.963000	0.869000	0.430000
Ru11	Ru1	0.546220	0.120060	0.502070
Ru21	Ru2	0.879940	0.453780	0.997930
Ru31	Ru3	0.453780	0.879940	0.497930
Ru41	Ru4	0.120060	0.546220	0.002070
C11	C1	0.504000	0.015200	0.715000
C21	C2	0.553800	0.143200	0.775100
C31	C3	0.984800	0.496000	0.785000
C41	C4	0.856800	0.446200	0.724900
C51	C5	0.496000	0.984800	0.285000
C61	C6	0.446200	0.856800	0.224900
C71	C7	0.015200	0.504000	0.215000
C81	C8	0.143200	0.553800	0.275100
O11	O1	0.411070	0.168070	0.589090
O21	O2	0.311640	0.910880	0.585360
O31	O3	0.240160	0.077220	0.697620
O41	O4	0.690030	0.101250	0.597160
O51	O5	0.592290	0.843890	0.592460
O61	O6	0.767810	0.950050	0.710760
O71	O7	0.449830	0.898570	0.764330
O81	O8	0.624270	0.356030	0.506620
O91	O9	0.063140	0.792260	0.645020
O101	O10	0.917410	0.023790	0.895800
O111	O11	0.831930	0.588930	0.910910
O121	O12	0.089120	0.688360	0.914640
O131	O13	0.922780	0.759840	0.802380
O141	O14	0.898750	0.309970	0.902840
O151	O15	0.156110	0.407710	0.907540
O161	O16	0.049950	0.232190	0.789240
O171	O17	0.101430	0.550170	0.735670
O181	O18	0.643970	0.375730	0.993380
O191	O19	0.207740	0.936860	0.854980
O201	O20	0.976210	0.082590	0.604200
O211	O21	0.588930	0.831930	0.410910
O221	O22	0.688360	0.089120	0.414640
O231	O23	0.759840	0.922780	0.302380
O241	O24	0.309970	0.898750	0.402840
O251	O25	0.407710	0.156110	0.407540
O261	O26	0.232190	0.049950	0.289240
O271	O27	0.550170	0.101430	0.235670
O281	O28	0.375730	0.643970	0.493380
O291	O29	0.936860	0.207740	0.354980
O301	O30	0.082590	0.976210	0.104200
O311	O31	0.168070	0.411070	0.089090
O321	O32	0.910880	0.311640	0.085360
O331	O33	0.077220	0.240160	0.197620
O341	O34	0.101250	0.690030	0.097160
O351	O35	0.843890	0.592290	0.092460
O361	O36	0.950050	0.767810	0.210760
O371	O37	0.898570	0.449830	0.264330
O381	O38	0.356030	0.624270	0.006620
O391	O39	0.792260	0.063140	0.145020
O401	O40	0.023790	0.917410	0.395800
