data_GIRYUD_freeONLY_PM
_symmetry_space_group_name_H-M	'P1'
_cell_length_a	16.291000
_cell_length_b	24.684000
_cell_length_c	13.435000
_cell_angle_alpha	90.000000
_cell_angle_beta	124.098000
_cell_angle_gamma	90.000000
_symmetry_Int_Tables_number 1

loop_
_symmetry_equiv_pos_as_xyz
'x,y,z'

loop_
_atom_site_label
_atom_site_type_symbol
_atom_site_fract_x
_atom_site_fract_y
_atom_site_fract_z
Zn11	Zn1	0.825090	0.552380	0.729030
O11	O1	0.236100	0.563400	0.943600
O21	O2	0.120000	0.622300	0.910500
O31	O3	0.150900	0.529800	0.083500
O41	O4	0.250800	0.512900	0.280300
O51	O5	0.469000	0.656800	0.536100
O61	O6	0.518000	0.716400	0.470300
O71	O7	0.959800	0.538970	0.845600
H11	H1	0.998500	0.562000	0.845300
N11	N1	0.468100	0.677800	0.455000
N21	N2	0.959700	0.571000	0.059200
N31	N3	0.737200	0.884400	0.235600
C11	C1	0.268300	0.618000	0.104200
C21	C2	0.281500	0.590300	0.203500
C31	C3	0.349000	0.609600	0.318300
H21	H2	0.359800	0.590800	0.384600
C41	C4	0.400100	0.656700	0.334300
C51	C5	0.388500	0.685400	0.239300
H31	H3	0.424500	0.716800	0.252000
C61	C6	0.321300	0.665900	0.124100
H41	H4	0.311300	0.685200	0.058600
C71	C7	0.200500	0.599700	0.976600
C81	C8	0.221500	0.540400	0.185400
C91	C9	0.979300	0.621600	0.045900
H51	H5	0.018000	0.627000	0.015800
C101	C10	0.946000	0.666300	0.073600
H61	H6	0.961600	0.701000	0.062000
C111	C11	0.887500	0.659000	0.120000
C121	C12	0.867300	0.605700	0.133300
H71	H7	0.829000	0.598700	0.163400
C131	C13	0.903100	0.563600	0.102800
H81	H8	0.888100	0.528400	0.112300
C141	C14	0.848800	0.703300	0.154700
H91	H9	0.809000	0.693500	0.181200
C151	C15	0.863900	0.755200	0.152300
H101	H10	0.905500	0.765300	0.128600
C161	C16	0.794600	0.893000	0.195900
H111	H11	0.807100	0.928600	0.185800
C171	C17	0.836600	0.852300	0.169000
H121	H12	0.875500	0.860800	0.140500
C181	C18	0.821200	0.799200	0.184000
C191	C19	0.762700	0.789600	0.228000
H131	H13	0.751100	0.754400	0.241700
C201	C20	0.722300	0.832900	0.250900
H141	H14	0.682300	0.825700	0.278600
Zn21	Zn2	0.325090	0.052380	0.729030
O81	O8	0.736100	0.063400	0.943600
O91	O9	0.620000	0.122300	0.910500
O101	O10	0.650900	0.029800	0.083500
O111	O11	0.750800	0.012900	0.280300
O121	O12	0.969000	0.156800	0.536100
O131	O13	0.018000	0.216400	0.470300
O141	O14	0.459800	0.038970	0.845600
H151	H15	0.498500	0.062000	0.845300
N41	N4	0.968100	0.177800	0.455000
N51	N5	0.459700	0.071000	0.059200
N61	N6	0.237200	0.384400	0.235600
C211	C21	0.768300	0.118000	0.104200
C221	C22	0.781500	0.090300	0.203500
C231	C23	0.849000	0.109600	0.318300
H161	H16	0.859800	0.090800	0.384600
C241	C24	0.900100	0.156700	0.334300
C251	C25	0.888500	0.185400	0.239300
H171	H17	0.924500	0.216800	0.252000
C261	C26	0.821300	0.165900	0.124100
H181	H18	0.811300	0.185200	0.058600
C271	C27	0.700500	0.099700	0.976600
C281	C28	0.721500	0.040400	0.185400
C291	C29	0.479300	0.121600	0.045900
H191	H19	0.518000	0.127000	0.015800
C301	C30	0.446000	0.166300	0.073600
H201	H20	0.461600	0.201000	0.062000
C311	C31	0.387500	0.159000	0.120000
C321	C32	0.367300	0.105700	0.133300
H211	H21	0.329000	0.098700	0.163400
C331	C33	0.403100	0.063600	0.102800
H221	H22	0.388100	0.028400	0.112300
C341	C34	0.348800	0.203300	0.154700
H231	H23	0.309000	0.193500	0.181200
C351	C35	0.363900	0.255200	0.152300
H241	H24	0.405500	0.265300	0.128600
C361	C36	0.294600	0.393000	0.195900
H251	H25	0.307100	0.428600	0.185800
C371	C37	0.336600	0.352300	0.169000
H261	H26	0.375500	0.360800	0.140500
C381	C38	0.321200	0.299200	0.184000
C391	C39	0.262700	0.289600	0.228000
H271	H27	0.251100	0.254400	0.241700
C401	C40	0.222300	0.332900	0.250900
H281	H28	0.182300	0.325700	0.278600
Zn31	Zn3	0.174910	0.552380	0.770970
O151	O15	0.763900	0.563400	0.556400
O161	O16	0.880000	0.622300	0.589500
O171	O17	0.849100	0.529800	0.416500
O181	O18	0.749200	0.512900	0.219700
O191	O19	0.531000	0.656800	0.963900
O201	O20	0.482000	0.716400	0.029700
O211	O21	0.040200	0.538970	0.654400
H291	H29	0.001500	0.562000	0.654700
N71	N7	0.531900	0.677800	0.045000
N81	N8	0.040300	0.571000	0.440800
N91	N9	0.262800	0.884400	0.264400
C411	C41	0.731700	0.618000	0.395800
C421	C42	0.718500	0.590300	0.296500
C431	C43	0.651000	0.609600	0.181700
H301	H30	0.640200	0.590800	0.115400
C441	C44	0.599900	0.656700	0.165700
C451	C45	0.611500	0.685400	0.260700
H311	H31	0.575500	0.716800	0.248000
C461	C46	0.678700	0.665900	0.375900
H321	H32	0.688700	0.685200	0.441400
C471	C47	0.799500	0.599700	0.523400
C481	C48	0.778500	0.540400	0.314600
C491	C49	0.020700	0.621600	0.454100
H331	H33	0.982000	0.627000	0.484200
C501	C50	0.054000	0.666300	0.426400
H341	H34	0.038400	0.701000	0.438000
C511	C51	0.112500	0.659000	0.380000
C521	C52	0.132700	0.605700	0.366700
H351	H35	0.171000	0.598700	0.336600
C531	C53	0.096900	0.563600	0.397200
H361	H36	0.111900	0.528400	0.387700
C541	C54	0.151200	0.703300	0.345300
H371	H37	0.191000	0.693500	0.318800
C551	C55	0.136100	0.755200	0.347700
H381	H38	0.094500	0.765300	0.371400
C561	C56	0.205400	0.893000	0.304100
H391	H39	0.192900	0.928600	0.314200
C571	C57	0.163400	0.852300	0.331000
H401	H40	0.124500	0.860800	0.359500
C581	C58	0.178800	0.799200	0.316000
C591	C59	0.237300	0.789600	0.272000
H411	H41	0.248900	0.754400	0.258300
C601	C60	0.277700	0.832900	0.249100
H421	H42	0.317700	0.825700	0.221400
Zn41	Zn4	0.674910	0.052380	0.770970
O221	O22	0.263900	0.063400	0.556400
O231	O23	0.380000	0.122300	0.589500
O241	O24	0.349100	0.029800	0.416500
O251	O25	0.249200	0.012900	0.219700
O261	O26	0.031000	0.156800	0.963900
O271	O27	0.982000	0.216400	0.029700
O281	O28	0.540200	0.038970	0.654400
H431	H43	0.501500	0.062000	0.654700
N101	N10	0.031900	0.177800	0.045000
N111	N11	0.540300	0.071000	0.440800
N121	N12	0.762800	0.384400	0.264400
C611	C61	0.231700	0.118000	0.395800
C621	C62	0.218500	0.090300	0.296500
C631	C63	0.151000	0.109600	0.181700
H441	H44	0.140200	0.090800	0.115400
C641	C64	0.099900	0.156700	0.165700
C651	C65	0.111500	0.185400	0.260700
H451	H45	0.075500	0.216800	0.248000
C661	C66	0.178700	0.165900	0.375900
H461	H46	0.188700	0.185200	0.441400
C671	C67	0.299500	0.099700	0.523400
C681	C68	0.278500	0.040400	0.314600
C691	C69	0.520700	0.121600	0.454100
H471	H47	0.482000	0.127000	0.484200
C701	C70	0.554000	0.166300	0.426400
H481	H48	0.538400	0.201000	0.438000
C711	C71	0.612500	0.159000	0.380000
C721	C72	0.632700	0.105700	0.366700
H491	H49	0.671000	0.098700	0.336600
C731	C73	0.596900	0.063600	0.397200
H501	H50	0.611900	0.028400	0.387700
C741	C74	0.651200	0.203300	0.345300
H511	H51	0.691000	0.193500	0.318800
C751	C75	0.636100	0.255200	0.347700
H521	H52	0.594500	0.265300	0.371400
C761	C76	0.705400	0.393000	0.304100
H531	H53	0.692900	0.428600	0.314200
C771	C77	0.663400	0.352300	0.331000
H541	H54	0.624500	0.360800	0.359500
C781	C78	0.678800	0.299200	0.316000
C791	C79	0.737300	0.289600	0.272000
H551	H55	0.748900	0.254400	0.258300
C801	C80	0.777700	0.332900	0.249100
H561	H56	0.817700	0.325700	0.221400
Zn51	Zn5	0.174910	0.447620	0.270970
O291	O29	0.763900	0.436600	0.056400
O301	O30	0.880000	0.377700	0.089500
O311	O31	0.849100	0.470200	0.916500
O321	O32	0.749200	0.487100	0.719700
O331	O33	0.531000	0.343200	0.463900
O341	O34	0.482000	0.283600	0.529700
O351	O35	0.040200	0.461030	0.154400
H571	H57	0.001500	0.438000	0.154700
N131	N13	0.531900	0.322200	0.545000
N141	N14	0.040300	0.429000	0.940800
N151	N15	0.262800	0.115600	0.764400
C811	C81	0.731700	0.382000	0.895800
C821	C82	0.718500	0.409700	0.796500
C831	C83	0.651000	0.390400	0.681700
H581	H58	0.640200	0.409200	0.615400
C841	C84	0.599900	0.343300	0.665700
C851	C85	0.611500	0.314600	0.760700
H591	H59	0.575500	0.283200	0.748000
C861	C86	0.678700	0.334100	0.875900
H601	H60	0.688700	0.314800	0.941400
C871	C87	0.799500	0.400300	0.023400
C881	C88	0.778500	0.459600	0.814600
C891	C89	0.020700	0.378400	0.954100
H611	H61	0.982000	0.373000	0.984200
C901	C90	0.054000	0.333700	0.926400
H621	H62	0.038400	0.299000	0.938000
C911	C91	0.112500	0.341000	0.880000
C921	C92	0.132700	0.394300	0.866700
H631	H63	0.171000	0.401300	0.836600
C931	C93	0.096900	0.436400	0.897200
H641	H64	0.111900	0.471600	0.887700
C941	C94	0.151200	0.296700	0.845300
H651	H65	0.191000	0.306500	0.818800
C951	C95	0.136100	0.244800	0.847700
H661	H66	0.094500	0.234700	0.871400
C961	C96	0.205400	0.107000	0.804100
H671	H67	0.192900	0.071400	0.814200
C971	C97	0.163400	0.147700	0.831000
H681	H68	0.124500	0.139200	0.859500
C981	C98	0.178800	0.200800	0.816000
C991	C99	0.237300	0.210400	0.772000
H691	H69	0.248900	0.245600	0.758300
C1001	C100	0.277700	0.167100	0.749100
H701	H70	0.317700	0.174300	0.721400
Zn61	Zn6	0.674910	0.947620	0.270970
O361	O36	0.263900	0.936600	0.056400
O371	O37	0.380000	0.877700	0.089500
O381	O38	0.349100	0.970200	0.916500
O391	O39	0.249200	0.987100	0.719700
O401	O40	0.031000	0.843200	0.463900
O411	O41	0.982000	0.783600	0.529700
O421	O42	0.540200	0.961030	0.154400
H711	H71	0.501500	0.938000	0.154700
N161	N16	0.031900	0.822200	0.545000
N171	N17	0.540300	0.929000	0.940800
N181	N18	0.762800	0.615600	0.764400
C1011	C101	0.231700	0.882000	0.895800
C1021	C102	0.218500	0.909700	0.796500
C1031	C103	0.151000	0.890400	0.681700
H721	H72	0.140200	0.909200	0.615400
C1041	C104	0.099900	0.843300	0.665700
C1051	C105	0.111500	0.814600	0.760700
H731	H73	0.075500	0.783200	0.748000
C1061	C106	0.178700	0.834100	0.875900
H741	H74	0.188700	0.814800	0.941400
C1071	C107	0.299500	0.900300	0.023400
C1081	C108	0.278500	0.959600	0.814600
C1091	C109	0.520700	0.878400	0.954100
H751	H75	0.482000	0.873000	0.984200
C1101	C110	0.554000	0.833700	0.926400
H761	H76	0.538400	0.799000	0.938000
C1111	C111	0.612500	0.841000	0.880000
C1121	C112	0.632700	0.894300	0.866700
H771	H77	0.671000	0.901300	0.836600
C1131	C113	0.596900	0.936400	0.897200
H781	H78	0.611900	0.971600	0.887700
C1141	C114	0.651200	0.796700	0.845300
H791	H79	0.691000	0.806500	0.818800
C1151	C115	0.636100	0.744800	0.847700
H801	H80	0.594500	0.734700	0.871400
C1161	C116	0.705400	0.607000	0.804100
H811	H81	0.692900	0.571400	0.814200
C1171	C117	0.663400	0.647700	0.831000
H821	H82	0.624500	0.639200	0.859500
C1181	C118	0.678800	0.700800	0.816000
C1191	C119	0.737300	0.710400	0.772000
H831	H83	0.748900	0.745600	0.758300
C1201	C120	0.777700	0.667100	0.749100
H841	H84	0.817700	0.674300	0.721400
Zn71	Zn7	0.825090	0.447620	0.229030
O431	O43	0.236100	0.436600	0.443600
O441	O44	0.120000	0.377700	0.410500
O451	O45	0.150900	0.470200	0.583500
O461	O46	0.250800	0.487100	0.780300
O471	O47	0.469000	0.343200	0.036100
O481	O48	0.518000	0.283600	0.970300
O491	O49	0.959800	0.461030	0.345600
H851	H85	0.998500	0.438000	0.345300
N191	N19	0.468100	0.322200	0.955000
N201	N20	0.959700	0.429000	0.559200
N211	N21	0.737200	0.115600	0.735600
C1211	C121	0.268300	0.382000	0.604200
C1221	C122	0.281500	0.409700	0.703500
C1231	C123	0.349000	0.390400	0.818300
H861	H86	0.359800	0.409200	0.884600
C1241	C124	0.400100	0.343300	0.834300
C1251	C125	0.388500	0.314600	0.739300
H871	H87	0.424500	0.283200	0.752000
C1261	C126	0.321300	0.334100	0.624100
H881	H88	0.311300	0.314800	0.558600
C1271	C127	0.200500	0.400300	0.476600
C1281	C128	0.221500	0.459600	0.685400
C1291	C129	0.979300	0.378400	0.545900
H891	H89	0.018000	0.373000	0.515800
C1301	C130	0.946000	0.333700	0.573600
H901	H90	0.961600	0.299000	0.562000
C1311	C131	0.887500	0.341000	0.620000
C1321	C132	0.867300	0.394300	0.633300
H911	H91	0.829000	0.401300	0.663400
C1331	C133	0.903100	0.436400	0.602800
H921	H92	0.888100	0.471600	0.612300
C1341	C134	0.848800	0.296700	0.654700
H931	H93	0.809000	0.306500	0.681200
C1351	C135	0.863900	0.244800	0.652300
H941	H94	0.905500	0.234700	0.628600
C1361	C136	0.794600	0.107000	0.695900
H951	H95	0.807100	0.071400	0.685800
C1371	C137	0.836600	0.147700	0.669000
H961	H96	0.875500	0.139200	0.640500
C1381	C138	0.821200	0.200800	0.684000
C1391	C139	0.762700	0.210400	0.728000
H971	H97	0.751100	0.245600	0.741700
C1401	C140	0.722300	0.167100	0.750900
H981	H98	0.682300	0.174300	0.778600
Zn81	Zn8	0.325090	0.947620	0.229030
O501	O50	0.736100	0.936600	0.443600
O511	O51	0.620000	0.877700	0.410500
O521	O52	0.650900	0.970200	0.583500
O531	O53	0.750800	0.987100	0.780300
O541	O54	0.969000	0.843200	0.036100
O551	O55	0.018000	0.783600	0.970300
O561	O56	0.459800	0.961030	0.345600
H991	H99	0.498500	0.938000	0.345300
N221	N22	0.968100	0.822200	0.955000
N231	N23	0.459700	0.929000	0.559200
N241	N24	0.237200	0.615600	0.735600
C1411	C141	0.768300	0.882000	0.604200
C1421	C142	0.781500	0.909700	0.703500
C1431	C143	0.849000	0.890400	0.818300
H1001	H100	0.859800	0.909200	0.884600
C1441	C144	0.900100	0.843300	0.834300
C1451	C145	0.888500	0.814600	0.739300
H1011	H101	0.924500	0.783200	0.752000
C1461	C146	0.821300	0.834100	0.624100
H1021	H102	0.811300	0.814800	0.558600
C1471	C147	0.700500	0.900300	0.476600
C1481	C148	0.721500	0.959600	0.685400
C1491	C149	0.479300	0.878400	0.545900
H1031	H103	0.518000	0.873000	0.515800
C1501	C150	0.446000	0.833700	0.573600
H1041	H104	0.461600	0.799000	0.562000
C1511	C151	0.387500	0.841000	0.620000
C1521	C152	0.367300	0.894300	0.633300
H1051	H105	0.329000	0.901300	0.663400
C1531	C153	0.403100	0.936400	0.602800
H1061	H106	0.388100	0.971600	0.612300
C1541	C154	0.348800	0.796700	0.654700
H1071	H107	0.309000	0.806500	0.681200
C1551	C155	0.363900	0.744800	0.652300
H1081	H108	0.405500	0.734700	0.628600
C1561	C156	0.294600	0.607000	0.695900
H1091	H109	0.307100	0.571400	0.685800
C1571	C157	0.336600	0.647700	0.669000
H1101	H110	0.375500	0.639200	0.640500
C1581	C158	0.321200	0.700800	0.684000
C1591	C159	0.262700	0.710400	0.728000
H1111	H111	0.251100	0.745600	0.741700
C1601	C160	0.222300	0.667100	0.750900
H1121	H112	0.182300	0.674300	0.778600
Zn91	Zn9	0.000000	0.500000	0.000000
Zn101	Zn10	0.500000	0.000000	0.000000
Zn111	Zn11	0.000000	0.500000	0.500000
Zn121	Zn12	0.500000	0.000000	0.500000
