data_GIRYIR_freeONLY_PM
_symmetry_space_group_name_H-M	'P1'
_cell_length_a	13.486700
_cell_length_b	13.705700
_cell_length_c	14.794900
_cell_angle_alpha	108.149000
_cell_angle_beta	107.556000
_cell_angle_gamma	109.440000
_symmetry_Int_Tables_number 1

loop_
_symmetry_equiv_pos_as_xyz
'x,y,z'

loop_
_atom_site_label
_atom_site_type_symbol
_atom_site_fract_x
_atom_site_fract_y
_atom_site_fract_z
Zn11	Zn1	0.961970	0.736550	0.102820
Zn21	Zn2	0.359150	0.633730	0.897180
Zn31	Zn3	0.038030	0.263450	0.897180
Zn41	Zn4	0.500000	0.500000	0.000000
Zn51	Zn5	0.000000	0.500000	0.000000
Zn61	Zn6	0.640850	0.366270	0.102820
H11	H1	0.577800	0.963000	0.185000
H21	H2	0.269400	0.508900	0.514200
H31	H3	0.922700	0.141100	0.658000
H41	H4	0.398600	0.335400	0.603000
H51	H5	0.929300	0.374800	0.371000
H61	H6	0.892800	0.778000	0.815000
H71	H7	0.522400	0.144900	0.473400
H81	H8	0.697500	0.584500	0.940400
H91	H9	0.909100	0.566300	0.122200
H101	H10	0.744800	0.005300	0.514200
H111	H11	0.394700	0.256500	0.283600
H121	H12	0.077300	0.858900	0.342000
H131	H13	0.561500	0.749300	0.854800
H141	H14	0.295600	0.732400	0.397000
H151	H15	0.438500	0.250700	0.145200
H161	H16	0.286900	0.444100	0.877800
H171	H17	0.562400	0.225000	0.799400
H181	H18	0.566700	0.886800	0.389400
H191	H19	0.793300	0.105500	0.854800
H201	H20	0.730600	0.491100	0.485800
H211	H21	0.119100	0.606000	0.251000
H221	H22	0.611100	0.972900	0.716400
H231	H23	0.477600	0.855100	0.526600
H241	H24	0.388900	0.027100	0.283600
H251	H25	0.893200	0.141000	0.441800
H261	H26	0.302500	0.415500	0.059600
H271	H27	0.058300	0.003800	0.629000
H281	H28	0.601400	0.664600	0.397000
H291	H29	0.106800	0.859000	0.558200
H301	H30	0.437600	0.775000	0.200600
H311	H31	0.107200	0.222000	0.185000
H321	H32	0.090900	0.433700	0.877800
H331	H33	0.422200	0.037000	0.815000
H341	H34	0.605300	0.743500	0.716400
H351	H35	0.951400	0.699200	0.558200
H361	H36	0.677300	0.497400	0.610600
H371	H37	0.941700	0.996200	0.371000
H381	H38	0.070700	0.625200	0.629000
H391	H39	0.549000	0.671500	0.526600
H401	H40	0.048600	0.300800	0.441800
H411	H41	0.737000	0.574400	0.799400
H421	H42	0.368100	0.355000	0.749000
H431	H43	0.206700	0.894500	0.145200
H441	H44	0.257100	0.644100	0.059600
H451	H45	0.322700	0.502600	0.389400
H461	H46	0.235300	0.516900	0.658000
H471	H47	0.742900	0.355900	0.940400
H481	H48	0.704400	0.267600	0.603000
H491	H49	0.631900	0.645000	0.251000
H501	H50	0.255200	0.994700	0.485800
H511	H51	0.764700	0.483100	0.342000
H521	H52	0.451000	0.328500	0.473400
H531	H53	0.880900	0.394000	0.749000
H541	H54	0.713100	0.555900	0.122200
H551	H55	0.433300	0.113200	0.610600
H561	H56	0.263000	0.425600	0.200600
C11	C1	0.501900	0.699200	0.785400
C21	C2	0.912700	0.744200	0.681000
C31	C3	0.689200	0.436400	0.330000
C41	C4	0.373800	0.741300	0.212800
C51	C5	0.339000	0.471500	0.212800
C61	C6	0.472300	0.621100	0.509200
C71	C7	0.527700	0.378900	0.490800
C81	C8	0.463100	0.111900	0.490800
C91	C9	0.661000	0.528500	0.787200
C101	C10	0.443600	0.625700	0.598400
C111	C11	0.492800	0.145400	0.593400
C121	C12	0.815500	0.360000	0.759000
C131	C13	0.054600	0.657900	0.765000
C141	C14	0.290000	0.716700	0.329200
C151	C15	0.863300	0.388200	0.193800
C161	C16	0.310800	0.563600	0.670000
C171	C17	0.071800	0.253500	0.222000
C181	C18	0.036100	0.300000	0.376200
C191	C19	0.536900	0.888100	0.509200
C201	C20	0.321800	0.118900	0.819400
C211	C21	0.216500	0.913800	0.214600
C221	C22	0.626200	0.258700	0.787200
C231	C23	0.268300	0.936800	0.681000
C241	C24	0.964600	0.343900	0.333200
C251	C25	0.363100	0.465700	0.128200
C261	C26	0.669400	0.442300	0.417200
C271	C27	0.159900	0.923800	0.623800
C281	C28	0.600600	0.448000	0.593400
C291	C29	0.002400	0.299500	0.180600
C301	C30	0.265100	0.662500	0.128200
C311	C31	0.507200	0.854600	0.406600
C321	C32	0.539200	0.612500	0.329200
C331	C33	0.963900	0.700000	0.623800
C341	C34	0.610600	0.228500	0.682600
C351	C35	0.498100	0.300800	0.214600
C361	C36	0.443500	0.399000	0.759000
C371	C37	0.087300	0.255800	0.319000
C381	C38	0.399400	0.552000	0.406600
C391	C39	0.326600	0.994500	0.297800
C401	C40	0.636900	0.534300	0.871800
C411	C41	0.945400	0.342100	0.235000
C421	C42	0.678200	0.881100	0.180600
C431	C43	0.840100	0.076200	0.376200
C441	C44	0.210400	0.107100	0.765000
C451	C45	0.673400	0.005500	0.702200
C461	C46	0.928200	0.746500	0.778000
C471	C47	0.556500	0.601000	0.241000
C481	C48	0.460800	0.387500	0.670800
C491	C49	0.783500	0.086200	0.785400
C501	C50	0.247800	0.974900	0.417200
C511	C51	0.993000	0.306500	0.078400
C521	C52	0.731700	0.063200	0.319000
C531	C53	0.997600	0.700500	0.819400
C541	C54	0.572000	0.454100	0.682600
C551	C55	0.830500	0.805600	0.193800
C561	C56	0.650200	0.968500	0.222000
C571	C57	0.734900	0.337500	0.871800
C581	C58	0.349800	0.031500	0.778000
C591	C59	0.389400	0.771500	0.317400
C601	C60	0.868600	0.989300	0.333200
C611	C61	0.528800	0.696700	0.702200
C621	C62	0.859200	0.106400	0.670000
C631	C63	0.131400	0.010700	0.666800
C641	C64	0.345200	0.027300	0.401600
C651	C65	0.169500	0.194400	0.806200
C661	C66	0.710000	0.283300	0.670800
C671	C67	0.330600	0.557700	0.582800
C681	C68	0.184500	0.640000	0.241000
C691	C69	0.414600	0.228100	0.921600
C701	C70	0.789600	0.892900	0.235000
C711	C71	0.428000	0.545900	0.317400
C721	C72	0.007000	0.693500	0.921600
C731	C73	0.136700	0.611800	0.806200
C741	C74	0.140800	0.893600	0.330000
C751	C75	0.585400	0.771900	0.078400
C761	C76	0.035400	0.656100	0.666800
C771	C77	0.471200	0.303300	0.297800
C781	C78	0.752200	0.025100	0.582800
C791	C79	0.556400	0.374300	0.401600
C801	C80	0.654800	0.972700	0.598400
N11	N1	0.701500	0.153800	0.365400
N21	N2	0.876610	0.138110	0.771620
N31	N3	0.395010	0.633510	0.771620
N41	N4	0.529360	0.470260	0.859520
N51	N5	0.830160	0.389260	0.859520
N61	N6	0.169840	0.610740	0.140480
N71	N7	0.604990	0.366490	0.228380
N81	N8	0.298500	0.846200	0.634600
N91	N9	0.470640	0.529740	0.140480
N101	N10	0.123390	0.861890	0.228380
N111	N11	0.836100	0.788400	0.634600
N121	N12	0.163900	0.211600	0.365400
O11	O1	0.829400	0.795200	0.553600
O21	O2	0.104440	0.507240	0.764680
O31	O3	0.138210	0.188410	0.878620
O41	O4	0.602600	0.137300	0.321000
O51	O5	0.170600	0.204800	0.446400
O61	O6	0.397400	0.862700	0.679000
O71	O7	0.781600	0.816300	0.679000
O81	O8	0.029830	0.249130	0.024260
O91	O9	0.775800	0.241600	0.446400
O101	O10	0.953570	0.370370	0.057140
O111	O11	0.895560	0.492760	0.235320
O121	O12	0.494430	0.775130	0.024260
O131	O13	0.160240	0.257440	0.764680
O141	O14	0.224200	0.758400	0.553600
O151	O15	0.970170	0.750870	0.975740
O161	O16	0.759590	0.309790	0.121380
O171	O17	0.650410	0.493510	0.075620
O181	O18	0.349590	0.506490	0.924380
O191	O19	0.396430	0.313230	0.942860
O201	O20	0.046430	0.629630	0.942860
O211	O21	0.240410	0.690210	0.878620
O221	O22	0.603570	0.686770	0.057140
O231	O23	0.218400	0.183700	0.321000
O241	O24	0.505570	0.224870	0.975740
O251	O25	0.839760	0.742560	0.235320
O261	O26	0.861790	0.811590	0.121380
O271	O27	0.925210	0.582110	0.075620
O281	O28	0.074790	0.417890	0.924380
