data_GISMIG_freeONLY_PM
_symmetry_space_group_name_H-M	'P1'
_cell_length_a	12.204800
_cell_length_b	12.204800
_cell_length_c	16.312200
_cell_angle_alpha	77.639900
_cell_angle_beta	70.509900
_cell_angle_gamma	105.544000
_symmetry_Int_Tables_number 1

loop_
_symmetry_equiv_pos_as_xyz
'x,y,z'

loop_
_atom_site_label
_atom_site_type_symbol
_atom_site_fract_x
_atom_site_fract_y
_atom_site_fract_z
Cd11	Cd1	0.300560	0.174340	0.368700
Cd21	Cd2	0.956960	0.330740	0.868700
Cd31	Cd3	0.043040	0.669260	0.131300
Cd41	Cd4	0.699440	0.825660	0.631300
H11	H1	0.539500	0.865500	0.818600
H21	H2	0.915100	0.747300	0.980600
H31	H3	0.840300	0.838500	0.159800
H41	H4	0.304100	0.632300	0.123400
H51	H5	0.308500	0.951900	0.779800
H61	H6	0.501700	0.999900	0.659800
H71	H7	0.988000	0.851000	0.624600
H81	H8	0.557400	0.447800	0.048600
H91	H9	0.927400	0.307900	0.369700
H101	H10	0.342900	0.198000	0.710900
H111	H11	0.442600	0.552200	0.951400
H121	H12	0.774300	0.729600	0.430500
H131	H13	0.024400	0.387400	0.124600
H141	H14	0.691500	0.048100	0.220200
H151	H15	0.768300	0.911700	0.279800
H161	H16	0.591100	0.946200	0.210900
H171	H17	0.070800	0.106300	0.578300
H181	H18	0.628000	0.628100	0.822500
H191	H19	0.012800	0.057900	0.136100
H201	H20	0.950600	0.450500	0.677500
H211	H21	0.734000	0.851600	0.129400
H221	H22	0.072600	0.692100	0.630300
H231	H23	0.772100	0.104300	0.480600
H241	H24	0.563200	0.487900	0.852100
H251	H25	0.306000	0.851100	0.636100
H261	H26	0.339900	0.795200	0.930500
H271	H27	0.657100	0.802000	0.289100
H281	H28	0.660100	0.204800	0.069500
H291	H29	0.159700	0.161500	0.840200
H301	H30	0.184600	0.649100	0.921700
H311	H31	0.084900	0.252700	0.019400
H321	H32	0.266000	0.148400	0.870600
H331	H33	0.694000	0.148900	0.363900
H341	H34	0.160000	0.584700	0.352100
H351	H35	0.408900	0.053800	0.789100
H361	H36	0.907500	0.477100	0.467800
H371	H37	0.975600	0.612600	0.875400
H381	H38	0.822400	0.702900	0.869700
H391	H39	0.227900	0.895700	0.519400
H401	H40	0.184100	0.358100	0.681400
H411	H41	0.012000	0.149000	0.375400
H421	H42	0.840000	0.415300	0.647900
H431	H43	0.460500	0.134500	0.181400
H441	H44	0.815900	0.641900	0.318600
H451	H45	0.231700	0.088300	0.720200
H461	H46	0.695900	0.367700	0.876600
H471	H47	0.996400	0.606000	0.451400
H481	H48	0.987200	0.942100	0.863900
H491	H49	0.929200	0.893700	0.421700
H501	H50	0.049400	0.549500	0.322500
H511	H51	0.744300	0.572500	0.623400
H521	H52	0.212700	0.952500	0.988200
H531	H53	0.481000	0.863400	0.370600
H541	H54	0.177600	0.297100	0.130300
H551	H55	0.372000	0.371900	0.177500
H561	H56	0.519000	0.136600	0.629400
H571	H57	0.003600	0.394000	0.548600
H581	H58	0.225700	0.270400	0.569500
H591	H59	0.436800	0.512100	0.147900
H601	H60	0.498300	0.000100	0.340200
H611	H61	0.444900	0.375300	0.032200
H621	H62	0.787300	0.047500	0.011800
H631	H63	0.815400	0.350900	0.078300
H641	H64	0.555100	0.624700	0.967800
H651	H65	0.559300	0.799100	0.488200
H661	H66	0.440700	0.200900	0.511800
H671	H67	0.255700	0.427500	0.376600
H681	H68	0.092500	0.522900	0.532200
C11	C1	0.183900	0.375400	0.128500
C21	C2	0.051300	0.226000	0.374900
C31	C3	0.089100	0.829200	0.250900
C41	C4	0.533600	0.399800	0.319000
C51	C5	0.985400	0.813500	0.967300
C61	C6	0.880300	0.704000	0.317900
C71	C7	0.704300	0.379100	0.188400
C81	C8	0.854300	0.758000	0.383500
C91	C9	0.184600	0.376900	0.375300
C101	C10	0.267000	0.673900	0.879100
C111	C11	0.991600	0.523700	0.457900
C121	C12	0.419900	0.660000	0.750900
C131	C13	0.603800	0.881100	0.471500
C141	C14	0.580100	0.340000	0.249100
C151	C15	0.295700	0.620900	0.811600
C161	C16	0.677000	0.072900	0.402900
C171	C17	0.635700	0.964100	0.248600
C181	C18	0.280800	0.952700	0.532700
C191	C19	0.358500	0.762200	0.883500
C201	C20	0.747800	0.440100	0.875300
C211	C21	0.008400	0.476300	0.542100
C221	C22	0.078200	0.524800	0.369600
C231	C23	0.948700	0.774000	0.625100
C241	C24	0.210200	0.113100	0.844700
C251	C25	0.719200	0.047300	0.467300
C261	C26	0.835000	0.998600	0.692800
C271	C27	0.481600	0.449500	0.042100
C281	C28	0.191400	0.527800	0.807200
C291	C29	0.733000	0.326100	0.120900
C301	C30	0.518400	0.550500	0.957900
C311	C31	0.323000	0.927100	0.597100
C321	C32	0.975800	0.079900	0.097100
C331	C33	0.100900	0.426200	0.125100
C341	C34	0.218800	0.852600	0.181000
C351	C35	0.457800	0.054900	0.655300
C361	C36	0.287300	0.115700	0.748600
C371	C37	0.119700	0.296000	0.682100
C381	C38	0.165000	0.001400	0.307200
C391	C39	0.478100	0.801800	0.817900
C401	C40	0.910900	0.170800	0.749100
C411	C41	0.947000	0.853900	0.379100
C421	C42	0.921800	0.475200	0.630400
C431	C43	0.145700	0.242000	0.616500
C441	C44	0.899100	0.573800	0.874900
C451	C45	0.852600	0.075300	0.028500
C461	C46	0.521900	0.198200	0.182100
C471	C47	0.542200	0.945100	0.344700
C481	C48	0.396200	0.118900	0.528500
C491	C49	0.067500	0.892700	0.311600
C501	C50	0.996100	0.687600	0.628500
C511	C51	0.014600	0.186500	0.032700
C521	C52	0.053000	0.146100	0.620900
C531	C53	0.605600	0.552200	0.869600
C541	C54	0.252200	0.559900	0.124700
C551	C55	0.712700	0.884300	0.251400
C561	C56	0.932500	0.107300	0.688400
C571	C57	0.815400	0.623100	0.624700
C581	C58	0.466400	0.600200	0.681000
C591	C59	0.816100	0.624600	0.871500
C601	C60	0.808600	0.472200	0.192800
C611	C61	0.394400	0.447800	0.130400
C621	C62	0.147400	0.924700	0.971500
C631	C63	0.641500	0.237800	0.116500
C641	C64	0.781200	0.147400	0.819000
C651	C65	0.003900	0.312400	0.371500
C661	C66	0.789800	0.886900	0.155300
C671	C67	0.024200	0.920100	0.902900
C681	C68	0.364300	0.035900	0.751400
N11	N1	0.508500	0.751600	0.753300
N21	N2	0.062200	0.815000	0.010400
N31	N3	0.395800	0.034800	0.594000
N41	N4	0.908900	0.591900	0.628800
N51	N5	0.604200	0.965200	0.406000
N61	N6	0.720700	0.537700	0.871200
N71	N7	0.857300	0.457700	0.877400
N81	N8	0.164900	0.265300	0.377400
N91	N9	0.004900	0.261800	0.746700
N101	N10	0.091100	0.408100	0.371200
N111	N11	0.279300	0.462300	0.128800
N121	N12	0.674600	0.927400	0.510400
N131	N13	0.142700	0.542300	0.122600
N141	N14	0.871200	0.010200	0.094000
N151	N15	0.491500	0.248400	0.246700
N161	N16	0.995100	0.738200	0.253300
N171	N17	0.325400	0.072600	0.489600
N181	N18	0.937800	0.185000	0.989600
N191	N19	0.128800	0.989800	0.906000
N201	N20	0.835100	0.734700	0.622600
O11	O1	0.794000	0.903300	0.757700
O21	O2	0.808300	0.009000	0.626700
O31	O3	0.395700	0.502500	0.691600
O41	O4	0.573000	0.654700	0.618300
O51	O5	0.864300	0.565000	0.126700
O61	O6	0.604300	0.497500	0.308400
O71	O7	0.839000	0.448300	0.257700
O81	O8	0.427000	0.345300	0.381700
O91	O9	0.161000	0.551700	0.742300
O101	O10	0.227000	0.808700	0.118300
O111	O11	0.305900	0.912700	0.191600
O121	O12	0.206000	0.096700	0.242300
O131	O13	0.773000	0.191300	0.881700
O141	O14	0.135700	0.435000	0.873300
O151	O15	0.694100	0.087300	0.808400
O161	O16	0.191700	0.991000	0.373300
