data_GITTOT_manual_PM
_symmetry_space_group_name_H-M	'P1'
_cell_length_a	14.686800
_cell_length_b	14.686800
_cell_length_c	14.686800
_cell_angle_alpha	109.471000
_cell_angle_beta	109.471000
_cell_angle_gamma	109.471000
_symmetry_Int_Tables_number 1

loop_
_symmetry_equiv_pos_as_xyz
'x,y,z'

loop_
_atom_site_label
_atom_site_type_symbol
_atom_site_fract_x
_atom_site_fract_y
_atom_site_fract_z
Co11	Co1	0.750000	0.250000	0.500000
Co21	Co2	0.250000	0.750000	0.500000
Co31	Co3	0.500000	0.250000	0.750000
Co41	Co4	0.500000	0.750000	0.250000
Co51	Co5	0.250000	0.500000	0.750000
Co61	Co6	0.750000	0.500000	0.250000
H11	H1	0.573970	0.355080	0.471640
H21	H2	0.883440	0.102330	0.528360
H31	H3	0.116560	0.644920	0.218890
H41	H4	0.426030	0.897670	0.781110
H51	H5	0.218890	0.116560	0.644920
H61	H6	0.781110	0.426030	0.897670
H71	H7	0.471640	0.573970	0.355080
H81	H8	0.528360	0.883440	0.102330
H91	H9	0.102330	0.528360	0.883440
H101	H10	0.355080	0.471640	0.573970
H111	H11	0.897670	0.781110	0.426030
H121	H12	0.644920	0.218890	0.116560
H131	H13	0.102330	0.883440	0.528360
H141	H14	0.355080	0.573970	0.471640
H151	H15	0.897670	0.426030	0.781110
H161	H16	0.644920	0.116560	0.218890
H171	H17	0.573970	0.471640	0.355080
H181	H18	0.883440	0.528360	0.102330
H191	H19	0.116560	0.218890	0.644920
H201	H20	0.426030	0.781110	0.897670
H211	H21	0.218890	0.644920	0.116560
H221	H22	0.781110	0.897670	0.426030
H231	H23	0.471640	0.355080	0.573970
H241	H24	0.528360	0.102330	0.883440
C11	C1	0.585500	0.320200	0.530700
C21	C2	0.789500	0.054800	0.469300
C31	C3	0.210500	0.679800	0.265300
C41	C4	0.414500	0.945200	0.734700
C51	C5	0.265300	0.210500	0.679800
C61	C6	0.734700	0.414500	0.945200
C71	C7	0.530700	0.585500	0.320200
C81	C8	0.469300	0.789500	0.054800
C91	C9	0.054800	0.469300	0.789500
C101	C10	0.320200	0.530700	0.585500
C111	C11	0.945200	0.734700	0.414500
C121	C12	0.679800	0.265300	0.210500
C131	C13	0.054800	0.789500	0.469300
C141	C14	0.320200	0.585500	0.530700
C151	C15	0.945200	0.414500	0.734700
C161	C16	0.679800	0.210500	0.265300
C171	C17	0.585500	0.530700	0.320200
C181	C18	0.789500	0.469300	0.054800
C191	C19	0.210500	0.265300	0.679800
C201	C20	0.414500	0.734700	0.945200
C211	C21	0.265300	0.679800	0.210500
C221	C22	0.734700	0.945200	0.414500
C231	C23	0.530700	0.320200	0.585500
C241	C24	0.469300	0.054800	0.789500
C251	C25	0.630000	0.246800	0.630000
C261	C26	0.678600	0.188600	0.678600
C271	C27	0.616800	0.000000	0.370000
C281	C28	0.510000	0.000000	0.321400
C291	C29	0.383200	0.753200	0.383200
C301	C30	0.490000	0.811400	0.490000
C311	C31	0.370000	0.000000	0.616800
C321	C32	0.321400	0.000000	0.510000
C331	C33	0.383200	0.383200	0.753200
C341	C34	0.490000	0.490000	0.811400
C351	C35	0.616800	0.370000	0.000000
C361	C36	0.510000	0.321400	0.000000
C371	C37	0.630000	0.630000	0.246800
C381	C38	0.678600	0.678600	0.188600
C391	C39	0.370000	0.616800	0.000000
C401	C40	0.321400	0.510000	0.000000
C411	C41	0.000000	0.370000	0.616800
C421	C42	0.000000	0.321400	0.510000
C431	C43	0.246800	0.630000	0.630000
C441	C44	0.188600	0.678600	0.678600
C451	C45	0.000000	0.616800	0.370000
C461	C46	0.000000	0.510000	0.321400
C471	C47	0.753200	0.383200	0.383200
C481	C48	0.811400	0.490000	0.490000
N11	N1	0.651900	0.273500	0.558800
N21	N2	0.714700	0.093100	0.441200
N31	N3	0.285300	0.726500	0.378400
N41	N4	0.348100	0.906900	0.621600
N51	N5	0.378400	0.285300	0.726500
N61	N6	0.621600	0.348100	0.906900
N71	N7	0.558800	0.651900	0.273500
N81	N8	0.441200	0.714700	0.093100
N91	N9	0.093100	0.441200	0.714700
N101	N10	0.273500	0.558800	0.651900
N111	N11	0.906900	0.621600	0.348100
N121	N12	0.726500	0.378400	0.285300
N131	N13	0.093100	0.714700	0.441200
N141	N14	0.273500	0.651900	0.558800
N151	N15	0.906900	0.348100	0.621600
N161	N16	0.726500	0.285300	0.378400
N171	N17	0.651900	0.558800	0.273500
N181	N18	0.714700	0.441200	0.093100
N191	N19	0.285300	0.378400	0.726500
N201	N20	0.348100	0.621600	0.906900
N211	N21	0.378400	0.726500	0.285300
N221	N22	0.621600	0.906900	0.348100
N231	N23	0.558800	0.273500	0.651900
N241	N24	0.441200	0.093100	0.714700
H251	H25	0.735730	0.173680	0.646100
H261	H26	0.608590	0.105220	0.653480
H271	H27	0.728640	0.242400	0.773370
H281	H28	0.437020	0.914270	0.286370
H291	H29	0.502570	0.020210	0.251640
H301	H30	0.508760	0.065520	0.389040
H311	H31	0.559080	0.873590	0.487240
H321	H32	0.512590	0.747570	0.502110
H331	H33	0.479980	0.857540	0.562310
H341	H34	0.304350	0.922120	0.438920
H351	H35	0.382680	0.077350	0.516440
H361	H36	0.240020	0.000530	0.492990
H371	H37	0.497430	0.517640	0.749070
H381	H38	0.562980	0.477250	0.849350
H391	H39	0.491240	0.556760	0.880280
H401	H40	0.487410	0.234980	0.989520
H411	H41	0.440920	0.314500	0.928150
H421	H42	0.520020	0.377560	0.082330
H431	H43	0.617320	0.694680	0.133760
H441	H44	0.695650	0.617770	0.134570
H451	H45	0.759980	0.760510	0.252970
H461	H46	0.391410	0.496630	0.044900
H471	H47	0.264270	0.437960	0.910370
H481	H48	0.271360	0.513760	0.044730
H491	H49	0.052310	0.391410	0.500870
H501	H50	0.910820	0.271320	0.437200
H511	H51	0.036870	0.264310	0.510280
H521	H52	0.128800	0.614770	0.688550
H531	H53	0.139780	0.701740	0.620790
H541	H54	0.252720	0.756440	0.763620
H551	H55	0.023560	0.504150	0.253960
H561	H56	0.913330	0.436920	0.283330
H571	H57	0.063110	0.507280	0.389750
H581	H58	0.860220	0.561960	0.481000
H591	H59	0.871200	0.485970	0.559750
H601	H60	0.747280	0.503720	0.510900
