data_GITZAM_freeONLY_PM
_symmetry_space_group_name_H-M	'P1'
_cell_length_a	11.010600
_cell_length_b	11.010600
_cell_length_c	24.062000
_cell_angle_alpha	92.364600
_cell_angle_beta	92.364600
_cell_angle_gamma	101.204000
_symmetry_Int_Tables_number 1

loop_
_symmetry_equiv_pos_as_xyz
'x,y,z'

loop_
_atom_site_label
_atom_site_type_symbol
_atom_site_fract_x
_atom_site_fract_y
_atom_site_fract_z
Cd11	Cd1	0.944290	0.055710	0.750000
Cd21	Cd2	0.500000	0.500000	0.000000
Cd31	Cd3	0.500000	0.500000	0.500000
Cd41	Cd4	0.055710	0.944290	0.250000
H11	H1	0.309700	0.701500	0.552700
H21	H2	0.171600	0.036200	0.437100
H31	H3	0.983600	0.909400	0.408800
H41	H4	0.725300	0.841900	0.870500
H51	H5	0.112200	0.705400	0.322400
H61	H6	0.788100	0.425900	0.958400
H71	H7	0.792800	0.350400	0.406400
H81	H8	0.703100	0.627900	0.282900
H91	H9	0.273300	0.369700	0.813200
H101	H10	0.692600	0.292600	0.882600
H111	H11	0.307400	0.707400	0.117400
H121	H12	0.562100	0.632700	0.274400
H131	H13	0.630300	0.726700	0.686800
H141	H14	0.036200	0.171600	0.937100
H151	H15	0.057000	0.539200	0.853500
H161	H16	0.016400	0.090600	0.591200
H171	H17	0.943000	0.460800	0.146500
H181	H18	0.322200	0.035200	0.333600
H191	H19	0.472500	0.638500	0.177500
H201	H20	0.472200	0.165000	0.857200
H211	H21	0.035200	0.322200	0.833600
H221	H22	0.792100	0.103100	0.148200
H231	H23	0.361500	0.527500	0.322500
H241	H24	0.660800	0.283400	0.382800
H251	H25	0.594300	0.640300	0.878200
H261	H26	0.649600	0.207200	0.093600
H271	H27	0.283400	0.660800	0.882800
H281	H28	0.425900	0.788100	0.458400
H291	H29	0.296900	0.372100	0.717100
H301	H30	0.705300	0.003900	0.042800
H311	H31	0.829200	0.668800	0.650000
H321	H32	0.619700	0.944300	0.225800
H331	H33	0.786600	0.663600	0.528900
H341	H34	0.213400	0.336400	0.471100
H351	H35	0.935600	0.137400	0.141600
H361	H36	0.677800	0.964800	0.666400
H371	H37	0.380500	0.480500	0.801000
H381	H38	0.508200	0.838600	0.238300
H391	H39	0.828400	0.963800	0.562900
H401	H40	0.841900	0.725300	0.370500
H411	H41	0.480500	0.380500	0.301000
H421	H42	0.868600	0.228600	0.174700
H431	H43	0.274700	0.158100	0.129500
H441	H44	0.165000	0.472200	0.357200
H451	H45	0.369700	0.273300	0.313200
H461	H46	0.527500	0.361500	0.822500
H471	H47	0.170800	0.331200	0.350000
H481	H48	0.336400	0.213400	0.971100
H491	H49	0.103100	0.792100	0.648200
H501	H50	0.658800	0.826800	0.302300
H511	H51	0.055700	0.380300	0.274200
H521	H52	0.380300	0.055700	0.774200
H531	H53	0.663600	0.786600	0.028900
H541	H54	0.690300	0.298500	0.447300
H551	H55	0.607300	0.848900	0.512900
H561	H56	0.944300	0.619700	0.725800
H571	H57	0.211900	0.574100	0.041600
H581	H58	0.826800	0.658800	0.802300
H591	H59	0.619500	0.519500	0.199000
H601	H60	0.090600	0.016400	0.091200
H611	H61	0.627900	0.703100	0.782900
H621	H62	0.151100	0.392700	0.987100
H631	H63	0.131400	0.771400	0.825300
H641	H64	0.726700	0.630300	0.186800
H651	H65	0.848900	0.607300	0.012900
H661	H66	0.835000	0.527800	0.642800
H671	H67	0.064400	0.862600	0.858400
H681	H68	0.437900	0.367300	0.725600
H691	H69	0.638500	0.472500	0.677500
H701	H70	0.896900	0.207900	0.351800
H711	H71	0.137400	0.935600	0.641600
H721	H72	0.173200	0.341200	0.197700
H731	H73	0.003900	0.705300	0.542800
H741	H74	0.668800	0.829200	0.150000
H751	H75	0.539200	0.057000	0.353500
H761	H76	0.367300	0.437900	0.225600
H771	H77	0.632700	0.562100	0.774400
H781	H78	0.705400	0.112200	0.822400
H791	H79	0.298500	0.690300	0.947300
H801	H80	0.207900	0.896900	0.851800
H811	H81	0.294700	0.996100	0.957200
H821	H82	0.491800	0.161400	0.761700
H831	H83	0.771400	0.131400	0.325300
H841	H84	0.350400	0.792800	0.906400
H851	H85	0.405700	0.359700	0.121800
H861	H86	0.331200	0.170800	0.850000
H871	H87	0.392700	0.151100	0.487100
H881	H88	0.372100	0.296900	0.217100
H891	H89	0.887800	0.294600	0.677600
H901	H90	0.963800	0.828400	0.062900
H911	H91	0.862600	0.064400	0.358400
H921	H92	0.909400	0.983600	0.908800
H931	H93	0.527800	0.835000	0.142800
H941	H94	0.519500	0.619500	0.699000
H951	H95	0.161400	0.491800	0.261700
H961	H96	0.838600	0.508200	0.738300
H971	H97	0.701500	0.309700	0.052700
H981	H98	0.996100	0.294700	0.457200
H991	H99	0.339200	0.716600	0.617200
H1001	H100	0.460800	0.943000	0.646500
H1011	H101	0.294600	0.887800	0.177600
H1021	H102	0.228600	0.868600	0.674700
H1031	H103	0.716600	0.339200	0.117200
H1041	H104	0.640300	0.594300	0.378200
H1051	H105	0.292600	0.692600	0.382600
H1061	H106	0.158100	0.274700	0.629500
H1071	H107	0.359700	0.405700	0.621800
H1081	H108	0.207200	0.649600	0.593600
H1091	H109	0.341200	0.173200	0.697700
H1101	H110	0.707400	0.307400	0.617400
H1111	H111	0.964800	0.677800	0.166400
H1121	H112	0.574100	0.211900	0.541600
C11	C1	0.625100	0.695700	0.908010
C21	C2	0.659910	0.054290	0.418810
C31	C3	0.643600	0.609000	0.200130
C41	C4	0.848200	0.813800	0.756860
C51	C5	0.962700	0.228100	0.478050
C61	C6	0.339600	0.356600	0.239940
C71	C7	0.447410	0.983190	0.614260
C81	C8	0.588400	0.802800	0.165280
C91	C9	0.008880	0.320320	0.033390
C101	C10	0.337500	0.225100	0.009680
C111	C11	0.390410	0.455010	0.396940
C121	C12	0.082040	0.534560	0.098290
C131	C13	0.391000	0.356400	0.299870
C141	C14	0.320320	0.008880	0.533390
C151	C15	0.774900	0.662500	0.490320
C161	C16	0.302700	0.193300	0.096800
C171	C17	0.356400	0.391000	0.799870
C181	C18	0.591700	0.855100	0.225120
C191	C19	0.276400	0.715200	0.588150
C201	C20	0.822200	0.229200	0.667840
C211	C21	0.722900	0.237300	0.634450
C221	C22	0.661500	0.554900	0.662650
C231	C23	0.974320	0.105080	0.558580
C241	C24	0.138020	0.970180	0.458190
C251	C25	0.643400	0.660400	0.260060
C261	C26	0.455010	0.390410	0.896940
C271	C27	0.675500	0.800900	0.264340
C281	C28	0.552590	0.016810	0.385740
C291	C29	0.139100	0.830300	0.856400
C301	C30	0.806700	0.697300	0.403200
C311	C31	0.199100	0.324500	0.235660
C321	C32	0.660400	0.643400	0.760060
C331	C33	0.228100	0.962700	0.978050
C341	C34	0.830300	0.139100	0.356400
C351	C35	0.016810	0.552590	0.885740
C361	C36	0.237300	0.722900	0.134450
C371	C37	0.411600	0.197200	0.834720
C381	C38	0.800900	0.675500	0.764340
C391	C39	0.406830	0.108770	0.518640
C401	C40	0.802800	0.588400	0.665280
C411	C41	0.225100	0.337500	0.509680
C421	C42	0.970180	0.138020	0.958190
C431	C43	0.991120	0.679680	0.966610
C441	C44	0.891230	0.593170	0.981360
C451	C45	0.894920	0.025680	0.941420
C461	C46	0.838730	0.233870	0.089580
C471	C47	0.161270	0.766130	0.910420
C481	C48	0.144900	0.408300	0.274880
C491	C49	0.048570	0.707830	0.161950
C501	C50	0.983190	0.447410	0.114260
C511	C51	0.514580	0.145020	0.551210
C521	C52	0.304300	0.374900	0.591990
C531	C53	0.054290	0.659910	0.918810
C541	C54	0.197200	0.411600	0.334720
C551	C55	0.855100	0.591700	0.725120
C561	C56	0.715200	0.276400	0.088150
C571	C57	0.108770	0.406830	0.018640
C581	C58	0.679680	0.991120	0.466610
C591	C59	0.200100	0.946900	0.506430
C601	C60	0.813800	0.848200	0.256860
C611	C61	0.485420	0.854980	0.448790
C621	C62	0.025680	0.894920	0.441420
C631	C63	0.233870	0.838730	0.589580
C641	C64	0.193300	0.302700	0.596800
C651	C65	0.277100	0.762700	0.365550
C661	C66	0.951430	0.292170	0.838050
C671	C67	0.762700	0.277100	0.865550
C681	C68	0.202230	0.023770	0.026410
C691	C69	0.766130	0.161270	0.410420
C701	C70	0.374900	0.304300	0.091990
C711	C71	0.976230	0.797770	0.473590
C721	C72	0.534560	0.082040	0.598290
C731	C73	0.145020	0.514580	0.051210
C741	C74	0.850580	0.151820	0.461730
C751	C75	0.799900	0.053100	0.493570
C761	C76	0.609590	0.544990	0.603060
C771	C77	0.771900	0.037300	0.021950
C781	C78	0.151800	0.186200	0.243140
C791	C79	0.229200	0.822200	0.167840
C801	C80	0.723600	0.284800	0.411850
C811	C81	0.917960	0.465440	0.901710
C821	C82	0.854980	0.485420	0.948790
C831	C83	0.029820	0.861980	0.041810
C841	C84	0.105080	0.974320	0.058580
C851	C85	0.593170	0.891230	0.481360
C861	C86	0.945710	0.340090	0.081190
C871	C87	0.408300	0.144900	0.774880
C881	C88	0.848180	0.149420	0.038270
C891	C89	0.177800	0.770800	0.332160
C901	C90	0.284800	0.723600	0.911850
C911	C91	0.946900	0.200100	0.006430
C921	C92	0.338500	0.445100	0.337350
C931	C93	0.554900	0.661500	0.162650
C941	C94	0.609000	0.643600	0.700130
C951	C95	0.861980	0.029820	0.541810
C961	C96	0.697300	0.806700	0.903200
C971	C97	0.695700	0.625100	0.408010
C981	C98	0.149420	0.848180	0.538270
C991	C99	0.662500	0.774900	0.990320
C1001	C100	0.445100	0.338500	0.837350
C1011	C101	0.053100	0.799900	0.993570
C1021	C102	0.023770	0.202230	0.526410
C1031	C103	0.860900	0.169700	0.143600
C1041	C104	0.707830	0.048570	0.661950
C1051	C105	0.340090	0.945710	0.581190
C1061	C106	0.186200	0.151800	0.743140
C1071	C107	0.169700	0.860900	0.643600
C1081	C108	0.465440	0.917960	0.401710
C1091	C109	0.770800	0.177800	0.832160
C1101	C110	0.544990	0.609590	0.103060
C1111	C111	0.292170	0.951430	0.338050
C1121	C112	0.037300	0.771900	0.521950
C1131	C113	0.797770	0.976230	0.973590
C1141	C114	0.324500	0.199100	0.735660
C1151	C115	0.151820	0.850580	0.961730
C1161	C116	0.356600	0.339600	0.739940
N11	N1	0.812750	0.111230	0.685390
N21	N2	0.674160	0.602420	0.462370
N31	N3	0.879520	0.350680	0.869350
N41	N4	0.187250	0.888770	0.314610
N51	N5	0.325840	0.397580	0.537630
N61	N6	0.278120	0.141440	0.043310
N71	N7	0.397580	0.325840	0.037630
N81	N8	0.888770	0.187250	0.814610
N91	N9	0.120480	0.649320	0.130650
N101	N10	0.649320	0.120480	0.630650
N111	N11	0.141440	0.278120	0.543310
N121	N12	0.858560	0.721880	0.456690
N131	N13	0.602420	0.674160	0.962370
N141	N14	0.111230	0.812750	0.185390
N151	N15	0.721880	0.858560	0.956690
N161	N16	0.350680	0.879520	0.369350
O11	O1	0.808500	0.890100	0.787430
O21	O2	0.620600	0.450720	0.573400
O31	O3	0.549280	0.379400	0.926600
O41	O4	0.077130	0.150970	0.277640
O51	O5	0.890100	0.808500	0.287430
O61	O6	0.379400	0.549280	0.426600
O71	O7	0.627350	0.558350	0.084550
O81	O8	0.150970	0.077130	0.777640
O91	O9	0.849030	0.922870	0.222360
O101	O10	0.441650	0.372650	0.415450
O111	O11	0.558350	0.627350	0.584550
O121	O12	0.450720	0.620600	0.073400
O131	O13	0.109900	0.191500	0.712570
O141	O14	0.191500	0.109900	0.212570
O151	O15	0.372650	0.441650	0.915450
O161	O16	0.922870	0.849030	0.722360
