data_GIVNOQ_freeONLY_PM
_symmetry_space_group_name_H-M	'P1'
_cell_length_a	34.607000
_cell_length_b	12.863100
_cell_length_c	23.875100
_cell_angle_alpha	90.000000
_cell_angle_beta	114.026000
_cell_angle_gamma	90.000000
_symmetry_Int_Tables_number 1

loop_
_symmetry_equiv_pos_as_xyz
'x,y,z'

loop_
_atom_site_label
_atom_site_type_symbol
_atom_site_fract_x
_atom_site_fract_y
_atom_site_fract_z
C11	C1	0.081600	0.950500	0.779700
H11	H1	0.075200	0.933500	0.739000
C21	C2	0.121000	0.933200	0.830300
H21	H2	0.145100	0.904600	0.828400
C31	C3	0.117040	0.965000	0.880300
H31	H3	0.137900	0.961600	0.920000
C41	C4	0.076390	0.004600	0.863500
C51	C5	0.058520	0.048800	0.902600
C61	C6	0.019670	0.096400	0.883700
C71	C7	0.996400	0.123200	0.920900
H41	H4	0.005200	0.110400	0.962600
C81	C8	0.959820	0.169900	0.884000
H51	H5	0.939000	0.195200	0.895700
C91	C9	0.959140	0.173100	0.824500
C101	C10	0.082990	0.032600	0.969800
C111	C11	0.094900	0.934200	0.993400
C121	C12	0.114300	0.923900	0.056600
C131	C13	0.123040	0.005500	0.095500
C141	C14	0.112600	0.107600	0.071600
C151	C15	0.090800	0.118900	0.007800
C161	C16	0.140900	0.990000	0.161000
C171	C17	0.928040	0.220700	0.768900
C181	C18	0.885200	0.240500	0.751600
H61	H6	0.869500	0.225500	0.774200
C191	C19	0.870550	0.286300	0.694800
H71	H7	0.842900	0.307400	0.671300
C201	C20	0.906280	0.295300	0.678800
C211	C21	0.908350	0.337500	0.626100
C221	C22	0.942720	0.373200	0.619900
C231	C23	0.947480	0.406500	0.565500
H81	H8	0.925400	0.412500	0.526900
C241	C24	0.989700	0.428600	0.578400
H91	H9	0.001700	0.446700	0.551300
C251	C25	0.010300	0.416800	0.643800
H101	H10	0.038600	0.432300	0.666900
C261	C26	0.866270	0.352000	0.573600
C271	C27	0.841080	0.263500	0.548400
H111	H11	0.850900	0.198000	0.564400
C281	C28	0.800890	0.273900	0.498800
H121	H12	0.783100	0.217000	0.483900
C291	C29	0.789540	0.368400	0.474400
C301	C30	0.813200	0.458900	0.496000
H131	H13	0.803800	0.523500	0.478200
C311	C31	0.852700	0.445400	0.547200
H141	H14	0.869800	0.503300	0.563100
C321	C32	0.748200	0.382600	0.422400
N11	N1	0.055120	0.996100	0.801100
N21	N2	0.994260	0.124900	0.823870
N31	N3	0.154400	0.980400	0.212200
N41	N4	0.942440	0.254700	0.726810
N51	N5	0.983770	0.380500	0.667500
N61	N6	0.715720	0.396100	0.384800
Ag11	Ag1	0.153000	0.086150	0.804340
C331	C33	0.581600	0.450500	0.779700
H151	H15	0.575200	0.433500	0.739000
C341	C34	0.621000	0.433200	0.830300
H161	H16	0.645100	0.404600	0.828400
C351	C35	0.617040	0.465000	0.880300
H171	H17	0.637900	0.461600	0.920000
C361	C36	0.576390	0.504600	0.863500
C371	C37	0.558520	0.548800	0.902600
C381	C38	0.519670	0.596400	0.883700
C391	C39	0.496400	0.623200	0.920900
H181	H18	0.505200	0.610400	0.962600
C401	C40	0.459820	0.669900	0.884000
H191	H19	0.439000	0.695200	0.895700
C411	C41	0.459140	0.673100	0.824500
C421	C42	0.582990	0.532600	0.969800
C431	C43	0.594900	0.434200	0.993400
C441	C44	0.614300	0.423900	0.056600
C451	C45	0.623040	0.505500	0.095500
C461	C46	0.612600	0.607600	0.071600
C471	C47	0.590800	0.618900	0.007800
C481	C48	0.640900	0.490000	0.161000
C491	C49	0.428040	0.720700	0.768900
C501	C50	0.385200	0.740500	0.751600
H201	H20	0.369500	0.725500	0.774200
C511	C51	0.370550	0.786300	0.694800
H211	H21	0.342900	0.807400	0.671300
C521	C52	0.406280	0.795300	0.678800
C531	C53	0.408350	0.837500	0.626100
C541	C54	0.442720	0.873200	0.619900
C551	C55	0.447480	0.906500	0.565500
H221	H22	0.425400	0.912500	0.526900
C561	C56	0.489700	0.928600	0.578400
H231	H23	0.501700	0.946700	0.551300
C571	C57	0.510300	0.916800	0.643800
H241	H24	0.538600	0.932300	0.666900
C581	C58	0.366270	0.852000	0.573600
C591	C59	0.341080	0.763500	0.548400
H251	H25	0.350900	0.698000	0.564400
C601	C60	0.300890	0.773900	0.498800
H261	H26	0.283100	0.717000	0.483900
C611	C61	0.289540	0.868400	0.474400
C621	C62	0.313200	0.958900	0.496000
H271	H27	0.303800	0.023500	0.478200
C631	C63	0.352700	0.945400	0.547200
H281	H28	0.369800	0.003300	0.563100
C641	C64	0.248200	0.882600	0.422400
N71	N7	0.555120	0.496100	0.801100
N81	N8	0.494260	0.624900	0.823870
N91	N9	0.654400	0.480400	0.212200
N101	N10	0.442440	0.754700	0.726810
N111	N11	0.483770	0.880500	0.667500
N121	N12	0.215720	0.896100	0.384800
Ag21	Ag2	0.653000	0.586150	0.804340
C651	C65	0.918400	0.950500	0.720300
H291	H29	0.924800	0.933500	0.761000
C661	C66	0.879000	0.933200	0.669700
H301	H30	0.854900	0.904600	0.671600
C671	C67	0.882960	0.965000	0.619700
H311	H31	0.862100	0.961600	0.580000
C681	C68	0.923610	0.004600	0.636500
C691	C69	0.941480	0.048800	0.597400
C701	C70	0.980330	0.096400	0.616300
C711	C71	0.003600	0.123200	0.579100
H321	H32	0.994800	0.110400	0.537400
C721	C72	0.040180	0.169900	0.616000
H331	H33	0.061000	0.195200	0.604300
C731	C73	0.040860	0.173100	0.675500
C741	C74	0.917010	0.032600	0.530200
C751	C75	0.905100	0.934200	0.506600
C761	C76	0.885700	0.923900	0.443400
C771	C77	0.876960	0.005500	0.404500
C781	C78	0.887400	0.107600	0.428400
C791	C79	0.909200	0.118900	0.492200
C801	C80	0.859100	0.990000	0.339000
C811	C81	0.071960	0.220700	0.731100
C821	C82	0.114800	0.240500	0.748400
H341	H34	0.130500	0.225500	0.725800
C831	C83	0.129450	0.286300	0.805200
H351	H35	0.157100	0.307400	0.828700
C841	C84	0.093720	0.295300	0.821200
C851	C85	0.091650	0.337500	0.873900
C861	C86	0.057280	0.373200	0.880100
C871	C87	0.052520	0.406500	0.934500
H361	H36	0.074600	0.412500	0.973100
C881	C88	0.010300	0.428600	0.921600
H371	H37	0.998300	0.446700	0.948700
C891	C89	0.989700	0.416800	0.856200
H381	H38	0.961400	0.432300	0.833100
C901	C90	0.133730	0.352000	0.926400
C911	C91	0.158920	0.263500	0.951600
H391	H39	0.149100	0.198000	0.935600
C921	C92	0.199110	0.273900	0.001200
H401	H40	0.216900	0.217000	0.016100
C931	C93	0.210460	0.368400	0.025600
C941	C94	0.186800	0.458900	0.004000
H411	H41	0.196200	0.523500	0.021800
C951	C95	0.147300	0.445400	0.952800
H421	H42	0.130200	0.503300	0.936900
C961	C96	0.251800	0.382600	0.077600
N131	N13	0.944880	0.996100	0.698900
N141	N14	0.005740	0.124900	0.676130
N151	N15	0.845600	0.980400	0.287800
N161	N16	0.057560	0.254700	0.773190
N171	N17	0.016230	0.380500	0.832500
N181	N18	0.284280	0.396100	0.115200
Ag31	Ag3	0.847000	0.086150	0.695660
C971	C97	0.418400	0.450500	0.720300
H431	H43	0.424800	0.433500	0.761000
C981	C98	0.379000	0.433200	0.669700
H441	H44	0.354900	0.404600	0.671600
C991	C99	0.382960	0.465000	0.619700
H451	H45	0.362100	0.461600	0.580000
C1001	C100	0.423610	0.504600	0.636500
C1011	C101	0.441480	0.548800	0.597400
C1021	C102	0.480330	0.596400	0.616300
C1031	C103	0.503600	0.623200	0.579100
H461	H46	0.494800	0.610400	0.537400
C1041	C104	0.540180	0.669900	0.616000
H471	H47	0.561000	0.695200	0.604300
C1051	C105	0.540860	0.673100	0.675500
C1061	C106	0.417010	0.532600	0.530200
C1071	C107	0.405100	0.434200	0.506600
C1081	C108	0.385700	0.423900	0.443400
C1091	C109	0.376960	0.505500	0.404500
C1101	C110	0.387400	0.607600	0.428400
C1111	C111	0.409200	0.618900	0.492200
C1121	C112	0.359100	0.490000	0.339000
C1131	C113	0.571960	0.720700	0.731100
C1141	C114	0.614800	0.740500	0.748400
H481	H48	0.630500	0.725500	0.725800
C1151	C115	0.629450	0.786300	0.805200
H491	H49	0.657100	0.807400	0.828700
C1161	C116	0.593720	0.795300	0.821200
C1171	C117	0.591650	0.837500	0.873900
C1181	C118	0.557280	0.873200	0.880100
C1191	C119	0.552520	0.906500	0.934500
H501	H50	0.574600	0.912500	0.973100
C1201	C120	0.510300	0.928600	0.921600
H511	H51	0.498300	0.946700	0.948700
C1211	C121	0.489700	0.916800	0.856200
H521	H52	0.461400	0.932300	0.833100
C1221	C122	0.633730	0.852000	0.926400
C1231	C123	0.658920	0.763500	0.951600
H531	H53	0.649100	0.698000	0.935600
C1241	C124	0.699110	0.773900	0.001200
H541	H54	0.716900	0.717000	0.016100
C1251	C125	0.710460	0.868400	0.025600
C1261	C126	0.686800	0.958900	0.004000
H551	H55	0.696200	0.023500	0.021800
C1271	C127	0.647300	0.945400	0.952800
H561	H56	0.630200	0.003300	0.936900
C1281	C128	0.751800	0.882600	0.077600
N191	N19	0.444880	0.496100	0.698900
N201	N20	0.505740	0.624900	0.676130
N211	N21	0.345600	0.480400	0.287800
N221	N22	0.557560	0.754700	0.773190
N231	N23	0.516230	0.880500	0.832500
N241	N24	0.784280	0.896100	0.115200
Ag41	Ag4	0.347000	0.586150	0.695660
C1291	C129	0.918400	0.049500	0.220300
H571	H57	0.924800	0.066500	0.261000
C1301	C130	0.879000	0.066800	0.169700
H581	H58	0.854900	0.095400	0.171600
C1311	C131	0.882960	0.035000	0.119700
H591	H59	0.862100	0.038400	0.080000
C1321	C132	0.923610	0.995400	0.136500
C1331	C133	0.941480	0.951200	0.097400
C1341	C134	0.980330	0.903600	0.116300
C1351	C135	0.003600	0.876800	0.079100
H601	H60	0.994800	0.889600	0.037400
C1361	C136	0.040180	0.830100	0.116000
H611	H61	0.061000	0.804800	0.104300
C1371	C137	0.040860	0.826900	0.175500
C1381	C138	0.917010	0.967400	0.030200
C1391	C139	0.905100	0.065800	0.006600
C1401	C140	0.885700	0.076100	0.943400
C1411	C141	0.876960	0.994500	0.904500
C1421	C142	0.887400	0.892400	0.928400
C1431	C143	0.909200	0.881100	0.992200
C1441	C144	0.859100	0.010000	0.839000
C1451	C145	0.071960	0.779300	0.231100
C1461	C146	0.114800	0.759500	0.248400
H621	H62	0.130500	0.774500	0.225800
C1471	C147	0.129450	0.713700	0.305200
H631	H63	0.157100	0.692600	0.328700
C1481	C148	0.093720	0.704700	0.321200
C1491	C149	0.091650	0.662500	0.373900
C1501	C150	0.057280	0.626800	0.380100
C1511	C151	0.052520	0.593500	0.434500
H641	H64	0.074600	0.587500	0.473100
C1521	C152	0.010300	0.571400	0.421600
H651	H65	0.998300	0.553300	0.448700
C1531	C153	0.989700	0.583200	0.356200
H661	H66	0.961400	0.567700	0.333100
C1541	C154	0.133730	0.648000	0.426400
C1551	C155	0.158920	0.736500	0.451600
H671	H67	0.149100	0.802000	0.435600
C1561	C156	0.199110	0.726100	0.501200
H681	H68	0.216900	0.783000	0.516100
C1571	C157	0.210460	0.631600	0.525600
C1581	C158	0.186800	0.541100	0.504000
H691	H69	0.196200	0.476500	0.521800
C1591	C159	0.147300	0.554600	0.452800
H701	H70	0.130200	0.496700	0.436900
C1601	C160	0.251800	0.617400	0.577600
N251	N25	0.944880	0.003900	0.198900
N261	N26	0.005740	0.875100	0.176130
N271	N27	0.845600	0.019600	0.787800
N281	N28	0.057560	0.745300	0.273190
N291	N29	0.016230	0.619500	0.332500
N301	N30	0.284280	0.603900	0.615200
Ag51	Ag5	0.847000	0.913850	0.195660
C1611	C161	0.418400	0.549500	0.220300
H711	H71	0.424800	0.566500	0.261000
C1621	C162	0.379000	0.566800	0.169700
H721	H72	0.354900	0.595400	0.171600
C1631	C163	0.382960	0.535000	0.119700
H731	H73	0.362100	0.538400	0.080000
C1641	C164	0.423610	0.495400	0.136500
C1651	C165	0.441480	0.451200	0.097400
C1661	C166	0.480330	0.403600	0.116300
C1671	C167	0.503600	0.376800	0.079100
H741	H74	0.494800	0.389600	0.037400
C1681	C168	0.540180	0.330100	0.116000
H751	H75	0.561000	0.304800	0.104300
C1691	C169	0.540860	0.326900	0.175500
C1701	C170	0.417010	0.467400	0.030200
C1711	C171	0.405100	0.565800	0.006600
C1721	C172	0.385700	0.576100	0.943400
C1731	C173	0.376960	0.494500	0.904500
C1741	C174	0.387400	0.392400	0.928400
C1751	C175	0.409200	0.381100	0.992200
C1761	C176	0.359100	0.510000	0.839000
C1771	C177	0.571960	0.279300	0.231100
C1781	C178	0.614800	0.259500	0.248400
H761	H76	0.630500	0.274500	0.225800
C1791	C179	0.629450	0.213700	0.305200
H771	H77	0.657100	0.192600	0.328700
C1801	C180	0.593720	0.204700	0.321200
C1811	C181	0.591650	0.162500	0.373900
C1821	C182	0.557280	0.126800	0.380100
C1831	C183	0.552520	0.093500	0.434500
H781	H78	0.574600	0.087500	0.473100
C1841	C184	0.510300	0.071400	0.421600
H791	H79	0.498300	0.053300	0.448700
C1851	C185	0.489700	0.083200	0.356200
H801	H80	0.461400	0.067700	0.333100
C1861	C186	0.633730	0.148000	0.426400
C1871	C187	0.658920	0.236500	0.451600
H811	H81	0.649100	0.302000	0.435600
C1881	C188	0.699110	0.226100	0.501200
H821	H82	0.716900	0.283000	0.516100
C1891	C189	0.710460	0.131600	0.525600
C1901	C190	0.686800	0.041100	0.504000
H831	H83	0.696200	0.976500	0.521800
C1911	C191	0.647300	0.054600	0.452800
H841	H84	0.630200	0.996700	0.436900
C1921	C192	0.751800	0.117400	0.577600
N311	N31	0.444880	0.503900	0.198900
N321	N32	0.505740	0.375100	0.176130
N331	N33	0.345600	0.519600	0.787800
N341	N34	0.557560	0.245300	0.273190
N351	N35	0.516230	0.119500	0.332500
N361	N36	0.784280	0.103900	0.615200
Ag61	Ag6	0.347000	0.413850	0.195660
C1931	C193	0.081600	0.049500	0.279700
H851	H85	0.075200	0.066500	0.239000
C1941	C194	0.121000	0.066800	0.330300
H861	H86	0.145100	0.095400	0.328400
C1951	C195	0.117040	0.035000	0.380300
H871	H87	0.137900	0.038400	0.420000
C1961	C196	0.076390	0.995400	0.363500
C1971	C197	0.058520	0.951200	0.402600
C1981	C198	0.019670	0.903600	0.383700
C1991	C199	0.996400	0.876800	0.420900
H881	H88	0.005200	0.889600	0.462600
C2001	C200	0.959820	0.830100	0.384000
H891	H89	0.939000	0.804800	0.395700
C2011	C201	0.959140	0.826900	0.324500
C2021	C202	0.082990	0.967400	0.469800
C2031	C203	0.094900	0.065800	0.493400
C2041	C204	0.114300	0.076100	0.556600
C2051	C205	0.123040	0.994500	0.595500
C2061	C206	0.112600	0.892400	0.571600
C2071	C207	0.090800	0.881100	0.507800
C2081	C208	0.140900	0.010000	0.661000
C2091	C209	0.928040	0.779300	0.268900
C2101	C210	0.885200	0.759500	0.251600
H901	H90	0.869500	0.774500	0.274200
C2111	C211	0.870550	0.713700	0.194800
H911	H91	0.842900	0.692600	0.171300
C2121	C212	0.906280	0.704700	0.178800
C2131	C213	0.908350	0.662500	0.126100
C2141	C214	0.942720	0.626800	0.119900
C2151	C215	0.947480	0.593500	0.065500
H921	H92	0.925400	0.587500	0.026900
C2161	C216	0.989700	0.571400	0.078400
H931	H93	0.001700	0.553300	0.051300
C2171	C217	0.010300	0.583200	0.143800
H941	H94	0.038600	0.567700	0.166900
C2181	C218	0.866270	0.648000	0.073600
C2191	C219	0.841080	0.736500	0.048400
H951	H95	0.850900	0.802000	0.064400
C2201	C220	0.800890	0.726100	0.998800
H961	H96	0.783100	0.783000	0.983900
C2211	C221	0.789540	0.631600	0.974400
C2221	C222	0.813200	0.541100	0.996000
H971	H97	0.803800	0.476500	0.978200
C2231	C223	0.852700	0.554600	0.047200
H981	H98	0.869800	0.496700	0.063100
C2241	C224	0.748200	0.617400	0.922400
N371	N37	0.055120	0.003900	0.301100
N381	N38	0.994260	0.875100	0.323870
N391	N39	0.154400	0.019600	0.712200
N401	N40	0.942440	0.745300	0.226810
N411	N41	0.983770	0.619500	0.167500
N421	N42	0.715720	0.603900	0.884800
Ag71	Ag7	0.153000	0.913850	0.304340
C2251	C225	0.581600	0.549500	0.279700
H991	H99	0.575200	0.566500	0.239000
C2261	C226	0.621000	0.566800	0.330300
H1001	H100	0.645100	0.595400	0.328400
C2271	C227	0.617040	0.535000	0.380300
H1011	H101	0.637900	0.538400	0.420000
C2281	C228	0.576390	0.495400	0.363500
C2291	C229	0.558520	0.451200	0.402600
C2301	C230	0.519670	0.403600	0.383700
C2311	C231	0.496400	0.376800	0.420900
H1021	H102	0.505200	0.389600	0.462600
C2321	C232	0.459820	0.330100	0.384000
H1031	H103	0.439000	0.304800	0.395700
C2331	C233	0.459140	0.326900	0.324500
C2341	C234	0.582990	0.467400	0.469800
C2351	C235	0.594900	0.565800	0.493400
C2361	C236	0.614300	0.576100	0.556600
C2371	C237	0.623040	0.494500	0.595500
C2381	C238	0.612600	0.392400	0.571600
C2391	C239	0.590800	0.381100	0.507800
C2401	C240	0.640900	0.510000	0.661000
C2411	C241	0.428040	0.279300	0.268900
C2421	C242	0.385200	0.259500	0.251600
H1041	H104	0.369500	0.274500	0.274200
C2431	C243	0.370550	0.213700	0.194800
H1051	H105	0.342900	0.192600	0.171300
C2441	C244	0.406280	0.204700	0.178800
C2451	C245	0.408350	0.162500	0.126100
C2461	C246	0.442720	0.126800	0.119900
C2471	C247	0.447480	0.093500	0.065500
H1061	H106	0.425400	0.087500	0.026900
C2481	C248	0.489700	0.071400	0.078400
H1071	H107	0.501700	0.053300	0.051300
C2491	C249	0.510300	0.083200	0.143800
H1081	H108	0.538600	0.067700	0.166900
C2501	C250	0.366270	0.148000	0.073600
C2511	C251	0.341080	0.236500	0.048400
H1091	H109	0.350900	0.302000	0.064400
C2521	C252	0.300890	0.226100	0.998800
H1101	H110	0.283100	0.283000	0.983900
C2531	C253	0.289540	0.131600	0.974400
C2541	C254	0.313200	0.041100	0.996000
H1111	H111	0.303800	0.976500	0.978200
C2551	C255	0.352700	0.054600	0.047200
H1121	H112	0.369800	0.996700	0.063100
C2561	C256	0.248200	0.117400	0.922400
N431	N43	0.555120	0.503900	0.301100
N441	N44	0.494260	0.375100	0.323870
N451	N45	0.654400	0.519600	0.712200
N461	N46	0.442440	0.245300	0.226810
N471	N47	0.483770	0.119500	0.167500
N481	N48	0.215720	0.103900	0.884800
Ag81	Ag8	0.653000	0.413850	0.304340
Zn11	Zn1	0.000000	0.066860	0.750000
Zn21	Zn2	0.000000	0.314250	0.750000
Zn31	Zn3	0.500000	0.566860	0.750000
Zn41	Zn4	0.500000	0.814250	0.750000
Zn51	Zn5	0.000000	0.933140	0.250000
Zn61	Zn6	0.000000	0.685750	0.250000
Zn71	Zn7	0.500000	0.433140	0.250000
Zn81	Zn8	0.500000	0.185750	0.250000
