data_GIWNUV_freeONLY_PM
_symmetry_space_group_name_H-M	'P1'
_cell_length_a	9.786950
_cell_length_b	16.254600
_cell_length_c	16.254600
_cell_angle_alpha	63.923000
_cell_angle_beta	78.422000
_cell_angle_gamma	101.578000
_symmetry_Int_Tables_number 1

loop_
_symmetry_equiv_pos_as_xyz
'x,y,z'

loop_
_atom_site_label
_atom_site_type_symbol
_atom_site_fract_x
_atom_site_fract_y
_atom_site_fract_z
Cu11	Cu1	0.667060	0.029060	0.642180
Cu21	Cu2	0.380680	0.014980	0.678140
Cu31	Cu3	0.309240	0.642180	0.328760
Cu41	Cu4	0.058820	0.678140	0.306880
Cu51	Cu5	0.638000	0.328760	0.029060
Cu61	Cu6	0.365700	0.306880	0.014980
Cu71	Cu7	0.332940	0.970940	0.357820
Cu81	Cu8	0.619320	0.985020	0.321860
Cu91	Cu9	0.690760	0.357820	0.671240
Cu101	Cu10	0.941180	0.321860	0.693120
Cu111	Cu11	0.362000	0.671240	0.970940
Cu121	Cu12	0.634300	0.693120	0.985020
H11	H1	0.288100	0.777500	0.519200
H21	H2	0.316100	0.717800	0.669500
H31	H3	0.333900	0.812600	0.740900
H41	H4	0.231800	0.162300	0.865900
H51	H5	0.213200	0.034900	0.836300
H61	H6	0.458300	0.278400	0.809500
H71	H7	0.807300	0.519200	0.703300
H81	H8	0.985600	0.669500	0.612700
H91	H9	0.074800	0.740900	0.446500
H101	H10	0.097700	0.865900	0.971800
H111	H11	0.049500	0.836300	0.128800
H121	H12	0.267800	0.809500	0.912100
H131	H13	0.510600	0.703300	0.777500
H141	H14	0.598300	0.612700	0.717800
H151	H15	0.521300	0.446500	0.812600
H161	H16	0.069500	0.971800	0.162300
H171	H17	0.178300	0.128800	0.034900
H181	H18	0.179900	0.912100	0.278400
H191	H19	0.711900	0.222500	0.480800
H201	H20	0.683900	0.282200	0.330500
H211	H21	0.666100	0.187400	0.259100
H221	H22	0.768200	0.837700	0.134100
H231	H23	0.786800	0.965100	0.163700
H241	H24	0.541700	0.721600	0.190500
H251	H25	0.192700	0.480800	0.296700
H261	H26	0.014400	0.330500	0.387300
H271	H27	0.925200	0.259100	0.553500
H281	H28	0.902300	0.134100	0.028200
H291	H29	0.950500	0.163700	0.871200
H301	H30	0.732200	0.190500	0.087900
H311	H31	0.489400	0.296700	0.222500
H321	H32	0.401700	0.387300	0.282200
H331	H33	0.478700	0.553500	0.187400
H341	H34	0.930500	0.028200	0.837700
H351	H35	0.821700	0.871200	0.965100
H361	H36	0.820100	0.087900	0.721600
C11	C1	0.301200	0.817900	0.547000
C21	C2	0.330700	0.839100	0.676500
C31	C3	0.318900	0.783000	0.635100
C41	C4	0.305200	0.085000	0.810200
C51	C5	0.451100	0.224100	0.800200
C61	C6	0.318300	0.155800	0.833600
C71	C7	0.318600	0.967100	0.538700
C81	C8	0.549100	0.162600	0.705100
C91	C9	0.848200	0.547000	0.635100
C101	C10	0.007200	0.676500	0.484400
C111	C11	0.954000	0.635100	0.581900
C121	C12	0.115400	0.810200	0.104800
C131	C13	0.251300	0.800200	0.975700
C141	C14	0.151900	0.833600	0.010600
C151	C15	0.857300	0.538700	0.494200
C161	C16	0.254200	0.705100	0.132300
C171	C17	0.483300	0.635100	0.817900
C181	C18	0.491600	0.484400	0.839100
C191	C19	0.535900	0.581900	0.783000
C201	C20	0.220200	0.104800	0.085000
C211	C21	0.227000	0.975700	0.224100
C221	C22	0.162500	0.010600	0.155800
C231	C23	0.351500	0.494200	0.967100
C241	C24	0.386500	0.132300	0.162600
C251	C25	0.698800	0.182100	0.453000
C261	C26	0.669300	0.160900	0.323500
C271	C27	0.681100	0.217000	0.364900
C281	C28	0.694800	0.915000	0.189800
C291	C29	0.548900	0.775900	0.199800
C301	C30	0.681700	0.844200	0.166400
C311	C31	0.681400	0.032900	0.461300
C321	C32	0.450900	0.837400	0.294900
C331	C33	0.151800	0.453000	0.364900
C341	C34	0.992800	0.323500	0.515600
C351	C35	0.046000	0.364900	0.418100
C361	C36	0.884600	0.189800	0.895200
C371	C37	0.748700	0.199800	0.024300
C381	C38	0.848100	0.166400	0.989400
C391	C39	0.142700	0.461300	0.505800
C401	C40	0.745800	0.294900	0.867700
C411	C41	0.516700	0.364900	0.182100
C421	C42	0.508400	0.515600	0.160900
C431	C43	0.464100	0.418100	0.217000
C441	C44	0.779800	0.895200	0.915000
C451	C45	0.773000	0.024300	0.775900
C461	C46	0.837500	0.989400	0.844200
C471	C47	0.648500	0.505800	0.032900
C481	C48	0.613500	0.867700	0.837400
N11	N1	0.329700	0.930900	0.628500
N21	N2	0.308500	0.911500	0.496900
N31	N3	0.418200	0.091200	0.742000
N41	N4	0.569100	0.222600	0.741700
N51	N5	0.958200	0.628500	0.440600
N61	N6	0.805400	0.496900	0.591600
N71	N7	0.160200	0.742000	0.166800
N81	N8	0.310800	0.741700	0.035700
N91	N9	0.398800	0.440600	0.930900
N101	N10	0.397000	0.591600	0.911500
N111	N11	0.327000	0.166800	0.091200
N121	N12	0.346500	0.035700	0.222600
N131	N13	0.670300	0.069100	0.371500
N141	N14	0.691500	0.088500	0.503100
N151	N15	0.581800	0.908800	0.258000
N161	N16	0.430900	0.777400	0.258300
N171	N17	0.041800	0.371500	0.559400
N181	N18	0.194600	0.503100	0.408400
N191	N19	0.839800	0.258000	0.833200
N201	N20	0.689200	0.258300	0.964300
N211	N21	0.601200	0.559400	0.069100
N221	N22	0.603000	0.408400	0.088500
N231	N23	0.673000	0.833200	0.908800
N241	N24	0.653500	0.964300	0.777400
O11	O1	0.317800	0.048900	0.496000
O21	O2	0.638100	0.181600	0.631100
O31	O3	0.813800	0.496000	0.455100
O41	O4	0.269200	0.631100	0.187300
O51	O5	0.268900	0.455100	0.048900
O61	O6	0.456500	0.187300	0.181600
O71	O7	0.682200	0.951100	0.504000
O81	O8	0.361900	0.818400	0.368900
O91	O9	0.186200	0.504000	0.544900
O101	O10	0.730800	0.368900	0.812700
O111	O11	0.731100	0.544900	0.951100
O121	O12	0.543500	0.812700	0.818400
