data_GIXGOK_freeONLY_PM
_symmetry_space_group_name_H-M	'P1'
_cell_length_a	26.131500
_cell_length_b	26.131500
_cell_length_c	26.131500
_cell_angle_alpha	109.471000
_cell_angle_beta	109.471000
_cell_angle_gamma	109.471000
_symmetry_Int_Tables_number 1

loop_
_symmetry_equiv_pos_as_xyz
'x,y,z'

loop_
_atom_site_label
_atom_site_type_symbol
_atom_site_fract_x
_atom_site_fract_y
_atom_site_fract_z
Cd11	Cd1	0.354870	0.709740	0.854870
Cd21	Cd2	0.854870	0.500000	0.145130
Cd31	Cd3	0.145130	0.290260	0.645130
Cd41	Cd4	0.645130	0.500000	0.354870
Cd51	Cd5	0.645130	0.145130	0.290260
Cd61	Cd6	0.354870	0.645130	0.500000
Cd71	Cd7	0.854870	0.354870	0.709740
Cd81	Cd8	0.145130	0.854870	0.500000
Cd91	Cd9	0.500000	0.145130	0.854870
Cd101	Cd10	0.709740	0.854870	0.354870
Cd111	Cd11	0.500000	0.354870	0.645130
Cd121	Cd12	0.290260	0.645130	0.145130
Cd131	Cd13	0.645130	0.290260	0.145130
Cd141	Cd14	0.145130	0.500000	0.854870
Cd151	Cd15	0.854870	0.709740	0.354870
Cd161	Cd16	0.354870	0.500000	0.645130
Cd171	Cd17	0.354870	0.854870	0.709740
Cd181	Cd18	0.645130	0.354870	0.500000
Cd191	Cd19	0.145130	0.645130	0.290260
Cd201	Cd20	0.854870	0.145130	0.500000
Cd211	Cd21	0.500000	0.854870	0.145130
Cd221	Cd22	0.290260	0.145130	0.645130
Cd231	Cd23	0.500000	0.645130	0.354870
Cd241	Cd24	0.709740	0.354870	0.854870
H11	H1	0.216900	0.631300	0.718200
H21	H2	0.283100	0.783000	0.905700
H31	H3	0.913100	0.498700	0.281800
H41	H4	0.877300	0.377400	0.094300
H51	H5	0.086900	0.368700	0.585600
H61	H6	0.122700	0.217000	0.500100
H71	H7	0.783100	0.501300	0.414400
H81	H8	0.716900	0.622600	0.499900
H91	H9	0.585600	0.086900	0.368700
H101	H10	0.500100	0.122700	0.217000
H111	H11	0.414400	0.783100	0.501300
H121	H12	0.499900	0.716900	0.622600
H131	H13	0.718200	0.216900	0.631300
H141	H14	0.905700	0.283100	0.783000
H151	H15	0.281800	0.913100	0.498700
H161	H16	0.094300	0.877300	0.377400
H171	H17	0.498700	0.281800	0.913100
H181	H18	0.377400	0.094300	0.877300
H191	H19	0.631300	0.718200	0.216900
H201	H20	0.783000	0.905700	0.283100
H211	H21	0.501300	0.414400	0.783100
H221	H22	0.622600	0.499900	0.716900
H231	H23	0.368700	0.585600	0.086900
H241	H24	0.217000	0.500100	0.122700
H251	H25	0.368700	0.783100	0.281800
H261	H26	0.217000	0.716900	0.094300
H271	H27	0.501300	0.086900	0.718200
H281	H28	0.622600	0.122700	0.905700
H291	H29	0.631300	0.913100	0.414400
H301	H30	0.783000	0.877300	0.499900
H311	H31	0.498700	0.216900	0.585600
H321	H32	0.377400	0.283100	0.500100
H331	H33	0.913100	0.414400	0.631300
H341	H34	0.877300	0.499900	0.783000
H351	H35	0.216900	0.585600	0.498700
H361	H36	0.283100	0.500100	0.377400
H371	H37	0.783100	0.281800	0.368700
H381	H38	0.716900	0.094300	0.217000
H391	H39	0.086900	0.718200	0.501300
H401	H40	0.122700	0.905700	0.622600
H411	H41	0.718200	0.501300	0.086900
H421	H42	0.905700	0.622600	0.122700
H431	H43	0.281800	0.368700	0.783100
H441	H44	0.094300	0.217000	0.716900
H451	H45	0.585600	0.498700	0.216900
H461	H46	0.500100	0.377400	0.283100
H471	H47	0.414400	0.631300	0.913100
H481	H48	0.499900	0.783000	0.877300
H491	H49	0.783100	0.368700	0.281800
H501	H50	0.716900	0.217000	0.094300
H511	H51	0.086900	0.501300	0.718200
H521	H52	0.122700	0.622600	0.905700
H531	H53	0.913100	0.631300	0.414400
H541	H54	0.877300	0.783000	0.499900
H551	H55	0.216900	0.498700	0.585600
H561	H56	0.283100	0.377400	0.500100
H571	H57	0.414400	0.913100	0.631300
H581	H58	0.499900	0.877300	0.783000
H591	H59	0.585600	0.216900	0.498700
H601	H60	0.500100	0.283100	0.377400
H611	H61	0.281800	0.783100	0.368700
H621	H62	0.094300	0.716900	0.217000
H631	H63	0.718200	0.086900	0.501300
H641	H64	0.905700	0.122700	0.622600
H651	H65	0.501300	0.718200	0.086900
H661	H66	0.622600	0.905700	0.122700
H671	H67	0.368700	0.281800	0.783100
H681	H68	0.217000	0.094300	0.716900
H691	H69	0.498700	0.585600	0.216900
H701	H70	0.377400	0.500100	0.283100
H711	H71	0.631300	0.414400	0.913100
H721	H72	0.783000	0.499900	0.877300
H731	H73	0.631300	0.216900	0.718200
H741	H74	0.783000	0.283100	0.905700
H751	H75	0.498700	0.913100	0.281800
H761	H76	0.377400	0.877300	0.094300
H771	H77	0.368700	0.086900	0.585600
H781	H78	0.217000	0.122700	0.500100
H791	H79	0.501300	0.783100	0.414400
H801	H80	0.622600	0.716900	0.499900
H811	H81	0.086900	0.585600	0.368700
H821	H82	0.122700	0.500100	0.217000
H831	H83	0.783100	0.414400	0.501300
H841	H84	0.716900	0.499900	0.622600
H851	H85	0.216900	0.718200	0.631300
H861	H86	0.283100	0.905700	0.783000
H871	H87	0.913100	0.281800	0.498700
H881	H88	0.877300	0.094300	0.377400
H891	H89	0.281800	0.498700	0.913100
H901	H90	0.094300	0.377400	0.877300
H911	H91	0.718200	0.631300	0.216900
H921	H92	0.905700	0.783000	0.283100
H931	H93	0.414400	0.501300	0.783100
H941	H94	0.499900	0.622600	0.716900
H951	H95	0.585600	0.368700	0.086900
H961	H96	0.500100	0.217000	0.122700
H971	H97	0.164800	0.549200	0.615600
H981	H98	0.933600	0.549200	0.384400
H991	H99	0.066400	0.450800	0.615600
H1001	H100	0.835200	0.450800	0.384400
H1011	H101	0.615600	0.066400	0.450800
H1021	H102	0.384400	0.835200	0.450800
H1031	H103	0.615600	0.164800	0.549200
H1041	H104	0.384400	0.933600	0.549200
H1051	H105	0.549200	0.384400	0.933600
H1061	H106	0.549200	0.615600	0.164800
H1071	H107	0.450800	0.384400	0.835200
H1081	H108	0.450800	0.615600	0.066400
H1091	H109	0.450800	0.835200	0.384400
H1101	H110	0.450800	0.066400	0.615600
H1111	H111	0.549200	0.933600	0.384400
H1121	H112	0.549200	0.164800	0.615600
H1131	H113	0.933600	0.384400	0.549200
H1141	H114	0.164800	0.615600	0.549200
H1151	H115	0.835200	0.384400	0.450800
H1161	H116	0.066400	0.615600	0.450800
H1171	H117	0.615600	0.450800	0.066400
H1181	H118	0.384400	0.450800	0.835200
H1191	H119	0.615600	0.549200	0.164800
H1201	H120	0.384400	0.549200	0.933600
H1211	H121	0.292300	0.844500	0.000000
H1221	H122	0.844500	0.292300	0.000000
H1231	H123	0.155500	0.155500	0.447800
H1241	H124	0.707700	0.707700	0.552200
H1251	H125	0.447800	0.155500	0.155500
H1261	H126	0.552200	0.707700	0.707700
H1271	H127	0.000000	0.292300	0.844500
H1281	H128	0.000000	0.844500	0.292300
H1291	H129	0.292300	0.000000	0.844500
H1301	H130	0.844500	0.000000	0.292300
H1311	H131	0.707700	0.552200	0.707700
H1321	H132	0.155500	0.447800	0.155500
H1331	H133	0.155500	0.707700	0.000000
H1341	H134	0.707700	0.155500	0.000000
H1351	H135	0.844500	0.844500	0.552200
H1361	H136	0.292300	0.292300	0.447800
H1371	H137	0.844500	0.552200	0.844500
H1381	H138	0.292300	0.447800	0.292300
H1391	H139	0.707700	0.000000	0.155500
H1401	H140	0.155500	0.000000	0.707700
H1411	H141	0.000000	0.707700	0.155500
H1421	H142	0.000000	0.155500	0.707700
H1431	H143	0.447800	0.292300	0.292300
H1441	H144	0.552200	0.844500	0.844500
C11	C1	0.236900	0.610600	0.705100
C21	C2	0.317200	0.797000	0.943800
C31	C3	0.905500	0.531800	0.294900
C41	C4	0.853200	0.373400	0.056200
C51	C5	0.094500	0.389400	0.626300
C61	C6	0.146800	0.203000	0.520200
C71	C7	0.763100	0.468200	0.373700
C81	C8	0.682800	0.626600	0.479800
C91	C9	0.626300	0.094500	0.389400
C101	C10	0.520200	0.146800	0.203000
C111	C11	0.373700	0.763100	0.468200
C121	C12	0.479800	0.682800	0.626600
C131	C13	0.705100	0.236900	0.610600
C141	C14	0.943800	0.317200	0.797000
C151	C15	0.294900	0.905500	0.531800
C161	C16	0.056200	0.853200	0.373400
C171	C17	0.531800	0.294900	0.905500
C181	C18	0.373400	0.056200	0.853200
C191	C19	0.610600	0.705100	0.236900
C201	C20	0.797000	0.943800	0.317200
C211	C21	0.468200	0.373700	0.763100
C221	C22	0.626600	0.479800	0.682800
C231	C23	0.389400	0.626300	0.094500
C241	C24	0.203000	0.520200	0.146800
C251	C25	0.389400	0.763100	0.294900
C261	C26	0.203000	0.682800	0.056200
C271	C27	0.468200	0.094500	0.705100
C281	C28	0.626600	0.146800	0.943800
C291	C29	0.610600	0.905500	0.373700
C301	C30	0.797000	0.853200	0.479800
C311	C31	0.531800	0.236900	0.626300
C321	C32	0.373400	0.317200	0.520200
C331	C33	0.905500	0.373700	0.610600
C341	C34	0.853200	0.479800	0.797000
C351	C35	0.236900	0.626300	0.531800
C361	C36	0.317200	0.520200	0.373400
C371	C37	0.763100	0.294900	0.389400
C381	C38	0.682800	0.056200	0.203000
C391	C39	0.094500	0.705100	0.468200
C401	C40	0.146800	0.943800	0.626600
C411	C41	0.705100	0.468200	0.094500
C421	C42	0.943800	0.626600	0.146800
C431	C43	0.294900	0.389400	0.763100
C441	C44	0.056200	0.203000	0.682800
C451	C45	0.626300	0.531800	0.236900
C461	C46	0.520200	0.373400	0.317200
C471	C47	0.373700	0.610600	0.905500
C481	C48	0.479800	0.797000	0.853200
C491	C49	0.763100	0.389400	0.294900
C501	C50	0.682800	0.203000	0.056200
C511	C51	0.094500	0.468200	0.705100
C521	C52	0.146800	0.626600	0.943800
C531	C53	0.905500	0.610600	0.373700
C541	C54	0.853200	0.797000	0.479800
C551	C55	0.236900	0.531800	0.626300
C561	C56	0.317200	0.373400	0.520200
C571	C57	0.373700	0.905500	0.610600
C581	C58	0.479800	0.853200	0.797000
C591	C59	0.626300	0.236900	0.531800
C601	C60	0.520200	0.317200	0.373400
C611	C61	0.294900	0.763100	0.389400
C621	C62	0.056200	0.682800	0.203000
C631	C63	0.705100	0.094500	0.468200
C641	C64	0.943800	0.146800	0.626600
C651	C65	0.468200	0.705100	0.094500
C661	C66	0.626600	0.943800	0.146800
C671	C67	0.389400	0.294900	0.763100
C681	C68	0.203000	0.056200	0.682800
C691	C69	0.531800	0.626300	0.236900
C701	C70	0.373400	0.520200	0.317200
C711	C71	0.610600	0.373700	0.905500
C721	C72	0.797000	0.479800	0.853200
C731	C73	0.610600	0.236900	0.705100
C741	C74	0.797000	0.317200	0.943800
C751	C75	0.531800	0.905500	0.294900
C761	C76	0.373400	0.853200	0.056200
C771	C77	0.389400	0.094500	0.626300
C781	C78	0.203000	0.146800	0.520200
C791	C79	0.468200	0.763100	0.373700
C801	C80	0.626600	0.682800	0.479800
C811	C81	0.094500	0.626300	0.389400
C821	C82	0.146800	0.520200	0.203000
C831	C83	0.763100	0.373700	0.468200
C841	C84	0.682800	0.479800	0.626600
C851	C85	0.236900	0.705100	0.610600
C861	C86	0.317200	0.943800	0.797000
C871	C87	0.905500	0.294900	0.531800
C881	C88	0.853200	0.056200	0.373400
C891	C89	0.294900	0.531800	0.905500
C901	C90	0.056200	0.373400	0.853200
C911	C91	0.705100	0.610600	0.236900
C921	C92	0.943800	0.797000	0.317200
C931	C93	0.373700	0.468200	0.763100
C941	C94	0.479800	0.626600	0.682800
C951	C95	0.626300	0.389400	0.094500
C961	C96	0.520200	0.203000	0.146800
C971	C97	0.388500	0.617500	0.771000
C981	C98	0.321400	0.596900	0.724500
C991	C99	0.205500	0.561600	0.643900
C1001	C100	0.846500	0.617500	0.229000
C1011	C101	0.872400	0.596900	0.275500
C1021	C102	0.917700	0.561600	0.356100
C1031	C103	0.153500	0.382500	0.771000
C1041	C104	0.127600	0.403100	0.724500
C1051	C105	0.082300	0.438400	0.643900
C1061	C106	0.611500	0.382500	0.229000
C1071	C107	0.678600	0.403100	0.275500
C1081	C108	0.794500	0.438400	0.356100
C1091	C109	0.771000	0.153500	0.382500
C1101	C110	0.724500	0.127600	0.403100
C1111	C111	0.643900	0.082300	0.438400
C1121	C112	0.229000	0.611500	0.382500
C1131	C113	0.275500	0.678600	0.403100
C1141	C114	0.356100	0.794500	0.438400
C1151	C115	0.771000	0.388500	0.617500
C1161	C116	0.724500	0.321400	0.596900
C1171	C117	0.643900	0.205500	0.561600
C1181	C118	0.229000	0.846500	0.617500
C1191	C119	0.275500	0.872400	0.596900
C1201	C120	0.356100	0.917700	0.561600
C1211	C121	0.617500	0.229000	0.846500
C1221	C122	0.596900	0.275500	0.872400
C1231	C123	0.561600	0.356100	0.917700
C1241	C124	0.617500	0.771000	0.388500
C1251	C125	0.596900	0.724500	0.321400
C1261	C126	0.561600	0.643900	0.205500
C1271	C127	0.382500	0.229000	0.611500
C1281	C128	0.403100	0.275500	0.678600
C1291	C129	0.438400	0.356100	0.794500
C1301	C130	0.382500	0.771000	0.153500
C1311	C131	0.403100	0.724500	0.127600
C1321	C132	0.438400	0.643900	0.082300
C1331	C133	0.382500	0.611500	0.229000
C1341	C134	0.403100	0.678600	0.275500
C1351	C135	0.438400	0.794500	0.356100
C1361	C136	0.382500	0.153500	0.771000
C1371	C137	0.403100	0.127600	0.724500
C1381	C138	0.438400	0.082300	0.643900
C1391	C139	0.617500	0.846500	0.229000
C1401	C140	0.596900	0.872400	0.275500
C1411	C141	0.561600	0.917700	0.356100
C1421	C142	0.617500	0.388500	0.771000
C1431	C143	0.596900	0.321400	0.724500
C1441	C144	0.561600	0.205500	0.643900
C1451	C145	0.846500	0.229000	0.617500
C1461	C146	0.872400	0.275500	0.596900
C1471	C147	0.917700	0.356100	0.561600
C1481	C148	0.388500	0.771000	0.617500
C1491	C149	0.321400	0.724500	0.596900
C1501	C150	0.205500	0.643900	0.561600
C1511	C151	0.611500	0.229000	0.382500
C1521	C152	0.678600	0.275500	0.403100
C1531	C153	0.794500	0.356100	0.438400
C1541	C154	0.153500	0.771000	0.382500
C1551	C155	0.127600	0.724500	0.403100
C1561	C156	0.082300	0.643900	0.438400
C1571	C157	0.771000	0.382500	0.153500
C1581	C158	0.724500	0.403100	0.127600
C1591	C159	0.643900	0.438400	0.082300
C1601	C160	0.229000	0.382500	0.611500
C1611	C161	0.275500	0.403100	0.678600
C1621	C162	0.356100	0.438400	0.794500
C1631	C163	0.771000	0.617500	0.388500
C1641	C164	0.724500	0.596900	0.321400
C1651	C165	0.643900	0.561600	0.205500
C1661	C166	0.229000	0.617500	0.846500
C1671	C167	0.275500	0.596900	0.872400
C1681	C168	0.356100	0.561600	0.917700
C1691	C169	0.460400	0.787600	0.000000
C1701	C170	0.408600	0.803600	0.000000
C1711	C171	0.322700	0.833300	0.000000
C1721	C172	0.787600	0.460400	0.000000
C1731	C173	0.803600	0.408600	0.000000
C1741	C174	0.833300	0.322700	0.000000
C1751	C175	0.212400	0.212400	0.672800
C1761	C176	0.196400	0.196400	0.605000
C1771	C177	0.166700	0.166700	0.489400
C1781	C178	0.539600	0.539600	0.327200
C1791	C179	0.591400	0.591400	0.395000
C1801	C180	0.677300	0.677300	0.510600
C1811	C181	0.672800	0.212400	0.212400
C1821	C182	0.605000	0.196400	0.196400
C1831	C183	0.489400	0.166700	0.166700
C1841	C184	0.327200	0.539600	0.539600
C1851	C185	0.395000	0.591400	0.591400
C1861	C186	0.510600	0.677300	0.677300
C1871	C187	0.000000	0.460400	0.787600
C1881	C188	0.000000	0.408600	0.803600
C1891	C189	0.000000	0.322700	0.833300
C1901	C190	0.000000	0.787600	0.460400
C1911	C191	0.000000	0.803600	0.408600
C1921	C192	0.000000	0.833300	0.322700
C1931	C193	0.460400	0.000000	0.787600
C1941	C194	0.408600	0.000000	0.803600
C1951	C195	0.322700	0.000000	0.833300
C1961	C196	0.787600	0.000000	0.460400
C1971	C197	0.803600	0.000000	0.408600
C1981	C198	0.833300	0.000000	0.322700
C1991	C199	0.539600	0.327200	0.539600
C2001	C200	0.591400	0.395000	0.591400
C2011	C201	0.677300	0.510600	0.677300
C2021	C202	0.212400	0.672800	0.212400
C2031	C203	0.196400	0.605000	0.196400
C2041	C204	0.166700	0.489400	0.166700
C2051	C205	0.212400	0.539600	0.000000
C2061	C206	0.196400	0.591400	0.000000
C2071	C207	0.166700	0.677300	0.000000
C2081	C208	0.539600	0.212400	0.000000
C2091	C209	0.591400	0.196400	0.000000
C2101	C210	0.677300	0.166700	0.000000
C2111	C211	0.787600	0.787600	0.327200
C2121	C212	0.803600	0.803600	0.395000
C2131	C213	0.833300	0.833300	0.510600
C2141	C214	0.460400	0.460400	0.672800
C2151	C215	0.408600	0.408600	0.605000
C2161	C216	0.322700	0.322700	0.489400
C2171	C217	0.787600	0.327200	0.787600
C2181	C218	0.803600	0.395000	0.803600
C2191	C219	0.833300	0.510600	0.833300
C2201	C220	0.460400	0.672800	0.460400
C2211	C221	0.408600	0.605000	0.408600
C2221	C222	0.322700	0.489400	0.322700
C2231	C223	0.539600	0.000000	0.212400
C2241	C224	0.591400	0.000000	0.196400
C2251	C225	0.677300	0.000000	0.166700
C2261	C226	0.212400	0.000000	0.539600
C2271	C227	0.196400	0.000000	0.591400
C2281	C228	0.166700	0.000000	0.677300
C2291	C229	0.000000	0.539600	0.212400
C2301	C230	0.000000	0.591400	0.196400
C2311	C231	0.000000	0.677300	0.166700
C2321	C232	0.000000	0.212400	0.539600
C2331	C233	0.000000	0.196400	0.591400
C2341	C234	0.000000	0.166700	0.677300
C2351	C235	0.672800	0.460400	0.460400
C2361	C236	0.605000	0.408600	0.408600
C2371	C237	0.489400	0.322700	0.322700
C2381	C238	0.327200	0.787600	0.787600
C2391	C239	0.395000	0.803600	0.803600
C2401	C240	0.510600	0.833300	0.833300
N11	N1	0.296000	0.628700	0.745900
N21	N2	0.361000	0.782300	0.945100
N31	N3	0.882800	0.550100	0.254100
N41	N4	0.837200	0.415900	0.054900
N51	N5	0.117200	0.371300	0.667300
N61	N6	0.162800	0.217700	0.578700
N71	N7	0.704000	0.449900	0.332700
N81	N8	0.639000	0.584100	0.421300
N91	N9	0.667300	0.117200	0.371300
N101	N10	0.578700	0.162800	0.217700
N111	N11	0.332700	0.704000	0.449900
N121	N12	0.421300	0.639000	0.584100
N131	N13	0.745900	0.296000	0.628700
N141	N14	0.945100	0.361000	0.782300
N151	N15	0.254100	0.882800	0.550100
N161	N16	0.054900	0.837200	0.415900
N171	N17	0.550100	0.254100	0.882800
N181	N18	0.415900	0.054900	0.837200
N191	N19	0.628700	0.745900	0.296000
N201	N20	0.782300	0.945100	0.361000
N211	N21	0.449900	0.332700	0.704000
N221	N22	0.584100	0.421300	0.639000
N231	N23	0.371300	0.667300	0.117200
N241	N24	0.217700	0.578700	0.162800
N251	N25	0.371300	0.704000	0.254100
N261	N26	0.217700	0.639000	0.054900
N271	N27	0.449900	0.117200	0.745900
N281	N28	0.584100	0.162800	0.945100
N291	N29	0.628700	0.882800	0.332700
N301	N30	0.782300	0.837200	0.421300
N311	N31	0.550100	0.296000	0.667300
N321	N32	0.415900	0.361000	0.578700
N331	N33	0.882800	0.332700	0.628700
N341	N34	0.837200	0.421300	0.782300
N351	N35	0.296000	0.667300	0.550100
N361	N36	0.361000	0.578700	0.415900
N371	N37	0.704000	0.254100	0.371300
N381	N38	0.639000	0.054900	0.217700
N391	N39	0.117200	0.745900	0.449900
N401	N40	0.162800	0.945100	0.584100
N411	N41	0.745900	0.449900	0.117200
N421	N42	0.945100	0.584100	0.162800
N431	N43	0.254100	0.371300	0.704000
N441	N44	0.054900	0.217700	0.639000
N451	N45	0.667300	0.550100	0.296000
N461	N46	0.578700	0.415900	0.361000
N471	N47	0.332700	0.628700	0.882800
N481	N48	0.421300	0.782300	0.837200
N491	N49	0.704000	0.371300	0.254100
N501	N50	0.639000	0.217700	0.054900
N511	N51	0.117200	0.449900	0.745900
N521	N52	0.162800	0.584100	0.945100
N531	N53	0.882800	0.628700	0.332700
N541	N54	0.837200	0.782300	0.421300
N551	N55	0.296000	0.550100	0.667300
N561	N56	0.361000	0.415900	0.578700
N571	N57	0.332700	0.882800	0.628700
N581	N58	0.421300	0.837200	0.782300
N591	N59	0.667300	0.296000	0.550100
N601	N60	0.578700	0.361000	0.415900
N611	N61	0.254100	0.704000	0.371300
N621	N62	0.054900	0.639000	0.217700
N631	N63	0.745900	0.117200	0.449900
N641	N64	0.945100	0.162800	0.584100
N651	N65	0.449900	0.745900	0.117200
N661	N66	0.584100	0.945100	0.162800
N671	N67	0.371300	0.254100	0.704000
N681	N68	0.217700	0.054900	0.639000
N691	N69	0.550100	0.667300	0.296000
N701	N70	0.415900	0.578700	0.361000
N711	N71	0.628700	0.332700	0.882800
N721	N72	0.782300	0.421300	0.837200
N731	N73	0.628700	0.296000	0.745900
N741	N74	0.782300	0.361000	0.945100
N751	N75	0.550100	0.882800	0.254100
N761	N76	0.415900	0.837200	0.054900
N771	N77	0.371300	0.117200	0.667300
N781	N78	0.217700	0.162800	0.578700
N791	N79	0.449900	0.704000	0.332700
N801	N80	0.584100	0.639000	0.421300
N811	N81	0.117200	0.667300	0.371300
N821	N82	0.162800	0.578700	0.217700
N831	N83	0.704000	0.332700	0.449900
N841	N84	0.639000	0.421300	0.584100
N851	N85	0.296000	0.745900	0.628700
N861	N86	0.361000	0.945100	0.782300
N871	N87	0.882800	0.254100	0.550100
N881	N88	0.837200	0.054900	0.415900
N891	N89	0.254100	0.550100	0.882800
N901	N90	0.054900	0.415900	0.837200
N911	N91	0.745900	0.628700	0.296000
N921	N92	0.945100	0.782300	0.361000
N931	N93	0.332700	0.449900	0.704000
N941	N94	0.421300	0.584100	0.639000
N951	N95	0.667300	0.371300	0.117200
N961	N96	0.578700	0.217700	0.162800
O11	O1	0.413440	0.661880	0.825520
O21	O2	0.452730	0.755420	0.948010
O31	O3	0.836360	0.587920	0.174480
O41	O4	0.807410	0.504720	0.051990
O51	O5	0.163640	0.338120	0.751560
O61	O6	0.192590	0.244580	0.697310
O71	O7	0.586560	0.412080	0.248440
O81	O8	0.547270	0.495280	0.302690
O91	O9	0.751560	0.163640	0.338120
O101	O10	0.697310	0.192590	0.244580
O111	O11	0.248440	0.586560	0.412080
O121	O12	0.302690	0.547270	0.495280
O131	O13	0.825520	0.413440	0.661880
O141	O14	0.948010	0.452730	0.755420
O151	O15	0.174480	0.836360	0.587920
O161	O16	0.051990	0.807410	0.504720
O171	O17	0.587920	0.174480	0.836360
O181	O18	0.504720	0.051990	0.807410
O191	O19	0.661880	0.825520	0.413440
O201	O20	0.755420	0.948010	0.452730
O211	O21	0.412080	0.248440	0.586560
O221	O22	0.495280	0.302690	0.547270
O231	O23	0.338120	0.751560	0.163640
O241	O24	0.244580	0.697310	0.192590
O251	O25	0.338120	0.586560	0.174480
O261	O26	0.244580	0.547270	0.051990
O271	O27	0.412080	0.163640	0.825520
O281	O28	0.495280	0.192590	0.948010
O291	O29	0.661880	0.836360	0.248440
O301	O30	0.755420	0.807410	0.302690
O311	O31	0.587920	0.413440	0.751560
O321	O32	0.504720	0.452730	0.697310
O331	O33	0.836360	0.248440	0.661880
O341	O34	0.807410	0.302690	0.755420
O351	O35	0.413440	0.751560	0.587920
O361	O36	0.452730	0.697310	0.504720
O371	O37	0.586560	0.174480	0.338120
O381	O38	0.547270	0.051990	0.244580
O391	O39	0.163640	0.825520	0.412080
O401	O40	0.192590	0.948010	0.495280
O411	O41	0.825520	0.412080	0.163640
O421	O42	0.948010	0.495280	0.192590
O431	O43	0.174480	0.338120	0.586560
O441	O44	0.051990	0.244580	0.547270
O451	O45	0.751560	0.587920	0.413440
O461	O46	0.697310	0.504720	0.452730
O471	O47	0.248440	0.661880	0.836360
O481	O48	0.302690	0.755420	0.807410
O491	O49	0.586560	0.338120	0.174480
O501	O50	0.547270	0.244580	0.051990
O511	O51	0.163640	0.412080	0.825520
O521	O52	0.192590	0.495280	0.948010
O531	O53	0.836360	0.661880	0.248440
O541	O54	0.807410	0.755420	0.302690
O551	O55	0.413440	0.587920	0.751560
O561	O56	0.452730	0.504720	0.697310
O571	O57	0.248440	0.836360	0.661880
O581	O58	0.302690	0.807410	0.755420
O591	O59	0.751560	0.413440	0.587920
O601	O60	0.697310	0.452730	0.504720
O611	O61	0.174480	0.586560	0.338120
O621	O62	0.051990	0.547270	0.244580
O631	O63	0.825520	0.163640	0.412080
O641	O64	0.948010	0.192590	0.495280
O651	O65	0.412080	0.825520	0.163640
O661	O66	0.495280	0.948010	0.192590
O671	O67	0.338120	0.174480	0.586560
O681	O68	0.244580	0.051990	0.547270
O691	O69	0.587920	0.751560	0.413440
O701	O70	0.504720	0.697310	0.452730
O711	O71	0.661880	0.248440	0.836360
O721	O72	0.755420	0.302690	0.807410
O731	O73	0.661880	0.413440	0.825520
O741	O74	0.755420	0.452730	0.948010
O751	O75	0.587920	0.836360	0.174480
O761	O76	0.504720	0.807410	0.051990
O771	O77	0.338120	0.163640	0.751560
O781	O78	0.244580	0.192590	0.697310
O791	O79	0.412080	0.586560	0.248440
O801	O80	0.495280	0.547270	0.302690
O811	O81	0.163640	0.751560	0.338120
O821	O82	0.192590	0.697310	0.244580
O831	O83	0.586560	0.248440	0.412080
O841	O84	0.547270	0.302690	0.495280
O851	O85	0.413440	0.825520	0.661880
O861	O86	0.452730	0.948010	0.755420
O871	O87	0.836360	0.174480	0.587920
O881	O88	0.807410	0.051990	0.504720
O891	O89	0.174480	0.587920	0.836360
O901	O90	0.051990	0.504720	0.807410
O911	O91	0.825520	0.661880	0.413440
O921	O92	0.948010	0.755420	0.452730
O931	O93	0.248440	0.412080	0.586560
O941	O94	0.302690	0.495280	0.547270
O951	O95	0.751560	0.338120	0.163640
O961	O96	0.697310	0.244580	0.192590
