data_GIYSEN_freeONLY_PM
_symmetry_space_group_name_H-M	'P1'
_cell_length_a	9.670100
_cell_length_b	11.742000
_cell_length_c	18.852000
_cell_angle_alpha	90.000000
_cell_angle_beta	97.910000
_cell_angle_gamma	90.000000
_symmetry_Int_Tables_number 1

loop_
_symmetry_equiv_pos_as_xyz
'x,y,z'

loop_
_atom_site_label
_atom_site_type_symbol
_atom_site_fract_x
_atom_site_fract_y
_atom_site_fract_z
Cu11	Cu1	0.961860	0.624830	0.889660
Cu21	Cu2	0.279390	0.627140	0.789590
Cu31	Cu3	0.038140	0.624830	0.610340
Cu41	Cu4	0.720610	0.627140	0.710410
Cu51	Cu5	0.038140	0.375170	0.110340
Cu61	Cu6	0.720610	0.372860	0.210410
Cu71	Cu7	0.961860	0.375170	0.389660
Cu81	Cu8	0.279390	0.372860	0.289590
Mo11	Mo1	0.000000	0.627190	0.750000
Mo21	Mo2	0.000000	0.372810	0.250000
H11	H1	0.571300	0.557000	0.854000
H21	H2	0.687800	0.427900	0.932700
H31	H3	0.316700	0.305500	0.968200
H41	H4	0.207600	0.442000	0.892000
H51	H5	0.526400	0.240400	0.044700
H61	H6	0.674400	0.294400	0.034900
H71	H7	0.683200	0.176000	0.933600
H81	H8	0.537600	0.120100	0.946100
H91	H9	0.637900	0.043800	0.054600
H101	H10	0.781400	0.107500	0.048800
H111	H11	0.905100	0.926500	0.070400
H121	H12	0.986100	0.765100	0.022600
H131	H13	0.711700	0.801800	0.848200
H141	H14	0.622800	0.959100	0.895200
H151	H15	0.428700	0.557000	0.646000
H161	H16	0.312200	0.427900	0.567300
H171	H17	0.683300	0.305500	0.531800
H181	H18	0.792400	0.442000	0.608000
H191	H19	0.473600	0.240400	0.455300
H201	H20	0.325600	0.294400	0.465100
H211	H21	0.316800	0.176000	0.566400
H221	H22	0.462400	0.120100	0.553900
H231	H23	0.362100	0.043800	0.445400
H241	H24	0.218600	0.107500	0.451200
H251	H25	0.094900	0.926500	0.429600
H261	H26	0.013900	0.765100	0.477400
H271	H27	0.288300	0.801800	0.651800
H281	H28	0.377200	0.959100	0.604800
H291	H29	0.428700	0.443000	0.146000
H301	H30	0.312200	0.572100	0.067300
H311	H31	0.683300	0.694500	0.031800
H321	H32	0.792400	0.558000	0.108000
H331	H33	0.473600	0.759600	0.955300
H341	H34	0.325600	0.705600	0.965100
H351	H35	0.316800	0.824000	0.066400
H361	H36	0.462400	0.879900	0.053900
H371	H37	0.362100	0.956200	0.945400
H381	H38	0.218600	0.892500	0.951200
H391	H39	0.094900	0.073500	0.929600
H401	H40	0.013900	0.234900	0.977400
H411	H41	0.288300	0.198200	0.151800
H421	H42	0.377200	0.040900	0.104800
H431	H43	0.571300	0.443000	0.354000
H441	H44	0.687800	0.572100	0.432700
H451	H45	0.316700	0.694500	0.468200
H461	H46	0.207600	0.558000	0.392000
H471	H47	0.526400	0.759600	0.544700
H481	H48	0.674400	0.705600	0.534900
H491	H49	0.683200	0.824000	0.433600
H501	H50	0.537600	0.879900	0.446100
H511	H51	0.637900	0.956200	0.554600
H521	H52	0.781400	0.892500	0.548800
H531	H53	0.905100	0.073500	0.570400
H541	H54	0.986100	0.234900	0.522600
H551	H55	0.711700	0.198200	0.348200
H561	H56	0.622800	0.040900	0.395200
C11	C1	0.445300	0.699100	0.759900
C21	C2	0.518100	0.504600	0.877500
C31	C3	0.588600	0.427500	0.924500
C41	C4	0.515200	0.350400	0.959300
C51	C5	0.371900	0.357200	0.945400
C61	C6	0.306700	0.437600	0.898900
C71	C7	0.587800	0.261300	0.008900
C81	C8	0.624400	0.155000	0.970700
C91	C9	0.701100	0.068700	0.020500
C101	C10	0.754500	0.965100	0.987600
C111	C11	0.863600	0.902000	0.024300
C121	C12	0.912000	0.805600	0.995400
C131	C13	0.752100	0.826500	0.894400
C141	C14	0.699800	0.921500	0.922000
C151	C15	0.554700	0.699100	0.740100
C161	C16	0.481900	0.504600	0.622500
C171	C17	0.411400	0.427500	0.575500
C181	C18	0.484800	0.350400	0.540700
C191	C19	0.628100	0.357200	0.554600
C201	C20	0.693300	0.437600	0.601100
C211	C21	0.412200	0.261300	0.491100
C221	C22	0.375600	0.155000	0.529300
C231	C23	0.298900	0.068700	0.479500
C241	C24	0.245500	0.965100	0.512400
C251	C25	0.136400	0.902000	0.475700
C261	C26	0.088000	0.805600	0.504600
C271	C27	0.247900	0.826500	0.605600
C281	C28	0.300200	0.921500	0.578000
C291	C29	0.554700	0.300900	0.240100
C301	C30	0.481900	0.495400	0.122500
C311	C31	0.411400	0.572500	0.075500
C321	C32	0.484800	0.649600	0.040700
C331	C33	0.628100	0.642800	0.054600
C341	C34	0.693300	0.562400	0.101100
C351	C35	0.412200	0.738700	0.991100
C361	C36	0.375600	0.845000	0.029300
C371	C37	0.298900	0.931300	0.979500
C381	C38	0.245500	0.034900	0.012400
C391	C39	0.136400	0.098000	0.975700
C401	C40	0.088000	0.194400	0.004600
C411	C41	0.247900	0.173500	0.105600
C421	C42	0.300200	0.078500	0.078000
C431	C43	0.445300	0.300900	0.259900
C441	C44	0.518100	0.495400	0.377500
C451	C45	0.588600	0.572500	0.424500
C461	C46	0.515200	0.649600	0.459300
C471	C47	0.371900	0.642800	0.445400
C481	C48	0.306700	0.562400	0.398900
C491	C49	0.587800	0.738700	0.508900
C501	C50	0.624400	0.845000	0.470700
C511	C51	0.701100	0.931300	0.520500
C521	C52	0.754500	0.034900	0.487600
C531	C53	0.863600	0.098000	0.524300
C541	C54	0.912000	0.194400	0.495400
C551	C55	0.752100	0.173500	0.394400
C561	C56	0.699800	0.078500	0.422000
S11	S1	0.118400	0.732800	0.836220
S21	S2	0.846800	0.520000	0.798390
S31	S3	0.881600	0.732800	0.663780
S41	S4	0.153200	0.520000	0.701610
S51	S5	0.881600	0.267200	0.163780
S61	S6	0.153200	0.480000	0.201610
S71	S7	0.118400	0.267200	0.336220
S81	S8	0.846800	0.480000	0.298390
N11	N1	0.996200	0.529600	0.974900
N21	N2	0.379200	0.509500	0.863200
N31	N3	0.859800	0.764800	0.929700
N41	N4	0.003800	0.529600	0.525100
N51	N5	0.620800	0.509500	0.636800
N61	N6	0.140200	0.764800	0.570300
N71	N7	0.003800	0.470400	0.025100
N81	N8	0.620800	0.490500	0.136800
N91	N9	0.140200	0.235200	0.070300
N101	N10	0.996200	0.470400	0.474900
N111	N11	0.379200	0.490500	0.363200
N121	N12	0.859800	0.235200	0.429700
