data_GIYSIR_freeONLY_PM
_symmetry_space_group_name_H-M	'P1'
_cell_length_a	9.625000
_cell_length_b	11.780000
_cell_length_c	18.714000
_cell_angle_alpha	90.000000
_cell_angle_beta	98.180000
_cell_angle_gamma	90.000000
_symmetry_Int_Tables_number 1

loop_
_symmetry_equiv_pos_as_xyz
'x,y,z'

loop_
_atom_site_label
_atom_site_type_symbol
_atom_site_fract_x
_atom_site_fract_y
_atom_site_fract_z
Cu11	Cu1	0.719630	0.369870	0.211100
Cu21	Cu2	0.036120	0.372560	0.109480
Cu31	Cu3	0.280370	0.369870	0.288900
Cu41	Cu4	0.963880	0.372560	0.390520
Cu51	Cu5	0.280370	0.630130	0.788900
Cu61	Cu6	0.963880	0.627440	0.890520
Cu71	Cu7	0.719630	0.630130	0.711100
Cu81	Cu8	0.036120	0.627440	0.609480
Mo11	Mo1	0.000000	0.371490	0.250000
Mo21	Mo2	0.000000	0.628510	0.750000
H11	H1	0.427200	0.447100	0.149700
H21	H2	0.310100	0.578300	0.072400
H31	H3	0.683400	0.685700	0.027800
H41	H4	0.790900	0.554400	0.109600
H51	H5	0.471000	0.758500	0.955100
H61	H6	0.323300	0.702000	0.964300
H71	H7	0.455500	0.876600	0.056600
H81	H8	0.307700	0.820300	0.065700
H91	H9	0.361400	0.953400	0.946200
H101	H10	0.215700	0.890700	0.949700
H111	H11	0.363700	0.033200	0.108900
H121	H12	0.271300	0.193600	0.153700
H131	H13	0.022500	0.240900	0.973100
H141	H14	0.089000	0.066900	0.927100
H151	H15	0.572800	0.447100	0.350300
H161	H16	0.689900	0.578300	0.427600
H171	H17	0.316600	0.685700	0.472200
H181	H18	0.209100	0.554400	0.390400
H191	H19	0.529000	0.758500	0.544900
H201	H20	0.676700	0.702000	0.535700
H211	H21	0.544500	0.876600	0.443400
H221	H22	0.692300	0.820300	0.434300
H231	H23	0.638600	0.953400	0.553800
H241	H24	0.784300	0.890700	0.550300
H251	H25	0.636300	0.033200	0.391100
H261	H26	0.728700	0.193600	0.346300
H271	H27	0.977500	0.240900	0.526900
H281	H28	0.911000	0.066900	0.572900
H291	H29	0.572800	0.552900	0.850300
H301	H30	0.689900	0.421700	0.927600
H311	H31	0.316600	0.314300	0.972200
H321	H32	0.209100	0.445600	0.890400
H331	H33	0.529000	0.241500	0.044900
H341	H34	0.676700	0.298000	0.035700
H351	H35	0.544500	0.123400	0.943400
H361	H36	0.692300	0.179700	0.934300
H371	H37	0.638600	0.046600	0.053800
H381	H38	0.784300	0.109300	0.050300
H391	H39	0.636300	0.966800	0.891100
H401	H40	0.728700	0.806400	0.846300
H411	H41	0.977500	0.759100	0.026900
H421	H42	0.911000	0.933100	0.072900
H431	H43	0.427200	0.552900	0.649700
H441	H44	0.310100	0.421700	0.572400
H451	H45	0.683400	0.314300	0.527800
H461	H46	0.790900	0.445600	0.609600
H471	H47	0.471000	0.241500	0.455100
H481	H48	0.323300	0.298000	0.464300
H491	H49	0.455500	0.123400	0.556600
H501	H50	0.307700	0.179700	0.565700
H511	H51	0.361400	0.046600	0.446200
H521	H52	0.215700	0.109300	0.449700
H531	H53	0.363700	0.966800	0.608900
H541	H54	0.271300	0.806400	0.653700
H551	H55	0.022500	0.759100	0.473100
H561	H56	0.089000	0.933100	0.427100
C11	C1	0.001700	0.468600	0.024300
C21	C2	0.480900	0.497700	0.125000
C31	C3	0.409700	0.575700	0.078900
C41	C4	0.484300	0.649700	0.042400
C51	C5	0.627500	0.638500	0.053500
C61	C6	0.691300	0.558700	0.101800
C71	C7	0.409300	0.736600	0.990800
C81	C8	0.369500	0.842300	0.030000
C91	C9	0.295700	0.928700	0.979400
C101	C10	0.240500	0.033600	0.012200
C111	C11	0.290600	0.073100	0.079800
C121	C12	0.235900	0.170200	0.106000
C131	C13	0.089800	0.195600	0.002400
C141	C14	0.132800	0.093500	0.972700
C151	C15	0.998300	0.468600	0.475700
C161	C16	0.519100	0.497700	0.375000
C171	C17	0.590300	0.575700	0.421100
C181	C18	0.515700	0.649700	0.457600
C191	C19	0.372500	0.638500	0.446500
C201	C20	0.308700	0.558700	0.398200
C211	C21	0.590700	0.736600	0.509200
C221	C22	0.630500	0.842300	0.470000
C231	C23	0.704300	0.928700	0.520600
C241	C24	0.759500	0.033600	0.487800
C251	C25	0.709400	0.073100	0.420200
C261	C26	0.764100	0.170200	0.394000
C271	C27	0.910200	0.195600	0.497600
C281	C28	0.867200	0.093500	0.527300
C291	C29	0.998300	0.531400	0.975700
C301	C30	0.519100	0.502300	0.875000
C311	C31	0.590300	0.424300	0.921100
C321	C32	0.515700	0.350300	0.957600
C331	C33	0.372500	0.361500	0.946500
C341	C34	0.308700	0.441300	0.898200
C351	C35	0.590700	0.263400	0.009200
C361	C36	0.630500	0.157700	0.970000
C371	C37	0.704300	0.071300	0.020600
C381	C38	0.759500	0.966400	0.987800
C391	C39	0.709400	0.926900	0.920200
C401	C40	0.764100	0.829800	0.894000
C411	C41	0.910200	0.804400	0.997600
C421	C42	0.867200	0.906500	0.027300
C431	C43	0.001700	0.531400	0.524300
C441	C44	0.480900	0.502300	0.625000
C451	C45	0.409700	0.424300	0.578900
C461	C46	0.484300	0.350300	0.542400
C471	C47	0.627500	0.361500	0.553500
C481	C48	0.691300	0.441300	0.601800
C491	C49	0.409300	0.263400	0.490800
C501	C50	0.369500	0.157700	0.530000
C511	C51	0.295700	0.071300	0.479400
C521	C52	0.240500	0.966400	0.512200
C531	C53	0.290600	0.926900	0.579800
C541	C54	0.235900	0.829800	0.606000
C551	C55	0.089800	0.804400	0.502400
C561	C56	0.132800	0.906500	0.472700
S11	S1	0.880400	0.265230	0.163620
S21	S2	0.847400	0.478400	0.299010
S31	S3	0.119600	0.265230	0.336380
S41	S4	0.152600	0.478400	0.200990
S51	S5	0.119600	0.734770	0.836380
S61	S6	0.152600	0.521600	0.700990
S71	S7	0.880400	0.734770	0.663620
S81	S8	0.847400	0.521600	0.799010
N11	N1	0.619800	0.488700	0.137400
N21	N2	0.136800	0.232800	0.068400
N31	N3	0.554200	0.294200	0.240900
N41	N4	0.380200	0.488700	0.362600
N51	N5	0.863200	0.232800	0.431600
N61	N6	0.445800	0.294200	0.259100
N71	N7	0.380200	0.511300	0.862600
N81	N8	0.863200	0.767200	0.931600
N91	N9	0.445800	0.705800	0.759100
N101	N10	0.619800	0.511300	0.637400
N111	N11	0.136800	0.767200	0.568400
N121	N12	0.554200	0.705800	0.740900
