data_GIYSOX_freeONLY_PM
_symmetry_space_group_name_H-M	'P1'
_cell_length_a	9.636200
_cell_length_b	11.462000
_cell_length_c	19.147000
_cell_angle_alpha	90.000000
_cell_angle_beta	97.980000
_cell_angle_gamma	90.000000
_symmetry_Int_Tables_number 1

loop_
_symmetry_equiv_pos_as_xyz
'x,y,z'

loop_
_atom_site_label
_atom_site_type_symbol
_atom_site_fract_x
_atom_site_fract_y
_atom_site_fract_z
Cu11	Cu1	0.279730	0.617690	0.788410
Cu21	Cu2	0.959840	0.616780	0.887060
Cu31	Cu3	0.720270	0.617690	0.711590
Cu41	Cu4	0.040160	0.616780	0.612940
Cu51	Cu5	0.720270	0.382310	0.211590
Cu61	Cu6	0.040160	0.383220	0.112940
Cu71	Cu7	0.279730	0.382310	0.288410
Cu81	Cu8	0.959840	0.383220	0.387060
Mo11	Mo1	0.000000	0.616470	0.750000
Mo21	Mo2	0.000000	0.383530	0.250000
H11	H1	0.211900	0.424300	0.887600
H21	H2	0.319400	0.297300	0.971100
H31	H3	0.691500	0.425500	0.935500
H41	H4	0.572400	0.550200	0.853500
H51	H5	0.694700	0.297300	0.030900
H61	H6	0.554200	0.240500	0.051500
H71	H7	0.545800	0.110800	0.953100
H81	H8	0.688700	0.166500	0.934200
H91	H9	0.661100	0.041300	0.061300
H101	H10	0.802600	0.105900	0.048800
H111	H11	0.627300	0.959700	0.900500
H121	H12	0.705100	0.789700	0.850400
H131	H13	0.000700	0.747000	0.020900
H141	H14	0.922900	0.917000	0.070900
H151	H15	0.788100	0.424300	0.612400
H161	H16	0.680600	0.297300	0.528900
H171	H17	0.308500	0.425500	0.564500
H181	H18	0.427600	0.550200	0.646500
H191	H19	0.305300	0.297300	0.469100
H201	H20	0.445800	0.240500	0.448500
H211	H21	0.454200	0.110800	0.546900
H221	H22	0.311300	0.166500	0.565800
H231	H23	0.338900	0.041300	0.438700
H241	H24	0.197400	0.105900	0.451200
H251	H25	0.372700	0.959700	0.599500
H261	H26	0.294900	0.789700	0.649600
H271	H27	0.999300	0.747000	0.479100
H281	H28	0.077100	0.917000	0.429100
H291	H29	0.788100	0.575700	0.112400
H301	H30	0.680600	0.702700	0.028900
H311	H31	0.308500	0.574500	0.064500
H321	H32	0.427600	0.449800	0.146500
H331	H33	0.305300	0.702700	0.969100
H341	H34	0.445800	0.759500	0.948500
H351	H35	0.454200	0.889200	0.046900
H361	H36	0.311300	0.833500	0.065800
H371	H37	0.338900	0.958700	0.938700
H381	H38	0.197400	0.894100	0.951200
H391	H39	0.372700	0.040300	0.099500
H401	H40	0.294900	0.210300	0.149600
H411	H41	0.999300	0.253000	0.979100
H421	H42	0.077100	0.083000	0.929100
H431	H43	0.211900	0.575700	0.387600
H441	H44	0.319400	0.702700	0.471100
H451	H45	0.691500	0.574500	0.435500
H461	H46	0.572400	0.449800	0.353500
H471	H47	0.694700	0.702700	0.530900
H481	H48	0.554200	0.759500	0.551500
H491	H49	0.545800	0.889200	0.453100
H501	H50	0.688700	0.833500	0.434200
H511	H51	0.661100	0.958700	0.561300
H521	H52	0.802600	0.894100	0.548800
H531	H53	0.627300	0.040300	0.400500
H541	H54	0.705100	0.210300	0.350400
H551	H55	0.000700	0.253000	0.520900
H561	H56	0.922900	0.083000	0.570900
C11	C1	0.443700	0.695000	0.759100
C21	C2	0.311200	0.425500	0.897600
C31	C3	0.375000	0.348400	0.947500
C41	C4	0.518000	0.345300	0.962900
C51	C5	0.592000	0.423300	0.926800
C61	C6	0.519700	0.497900	0.877900
C71	C7	0.605000	0.259900	0.011500
C81	C8	0.635000	0.148000	0.973300
C91	C9	0.719300	0.064300	0.024800
C101	C10	0.767800	0.954300	0.990400
C111	C11	0.703100	0.916500	0.924900
C121	C12	0.749300	0.815600	0.895200
C131	C13	0.924900	0.790200	0.996400
C141	C14	0.878700	0.891100	0.026200
C151	C15	0.556300	0.695000	0.740900
C161	C16	0.688800	0.425500	0.602400
C171	C17	0.625000	0.348400	0.552500
C181	C18	0.482000	0.345300	0.537100
C191	C19	0.408000	0.423300	0.573200
C201	C20	0.480300	0.497900	0.622100
C211	C21	0.395000	0.259900	0.488500
C221	C22	0.365000	0.148000	0.526700
C231	C23	0.280700	0.064300	0.475200
C241	C24	0.232200	0.954300	0.509600
C251	C25	0.296900	0.916500	0.575100
C261	C26	0.250700	0.815600	0.604800
C271	C27	0.075100	0.790200	0.503600
C281	C28	0.121300	0.891100	0.473800
C291	C29	0.556300	0.305000	0.240900
C301	C30	0.688800	0.574500	0.102400
C311	C31	0.625000	0.651600	0.052500
C321	C32	0.482000	0.654700	0.037100
C331	C33	0.408000	0.576700	0.073200
C341	C34	0.480300	0.502100	0.122100
C351	C35	0.395000	0.740100	0.988500
C361	C36	0.365000	0.852000	0.026700
C371	C37	0.280700	0.935700	0.975200
C381	C38	0.232200	0.045700	0.009600
C391	C39	0.296900	0.083500	0.075100
C401	C40	0.250700	0.184400	0.104800
C411	C41	0.075100	0.209800	0.003600
C421	C42	0.121300	0.108900	0.973800
C431	C43	0.443700	0.305000	0.259100
C441	C44	0.311200	0.574500	0.397600
C451	C45	0.375000	0.651600	0.447500
C461	C46	0.518000	0.654700	0.462900
C471	C47	0.592000	0.576700	0.426800
C481	C48	0.519700	0.502100	0.377900
C491	C49	0.605000	0.740100	0.511500
C501	C50	0.635000	0.852000	0.473300
C511	C51	0.719300	0.935700	0.524800
C521	C52	0.767800	0.045700	0.490400
C531	C53	0.703100	0.083500	0.424900
C541	C54	0.749300	0.184400	0.395200
C551	C55	0.924900	0.209800	0.496400
C561	C56	0.878700	0.108900	0.526200
S11	S1	0.118100	0.725500	0.834390
S21	S2	0.846200	0.506600	0.797720
S31	S3	0.881900	0.725500	0.665610
S41	S4	0.153800	0.506600	0.702280
S51	S5	0.881900	0.274500	0.165610
S61	S6	0.153800	0.493400	0.202280
S71	S7	0.118100	0.274500	0.334390
S81	S8	0.846200	0.493400	0.297720
N11	N1	0.379600	0.500700	0.863000
N21	N2	0.994600	0.525400	0.974200
N31	N3	0.860200	0.752400	0.930900
N41	N4	0.620400	0.500700	0.637000
N51	N5	0.005400	0.525400	0.525800
N61	N6	0.139800	0.752400	0.569100
N71	N7	0.620400	0.499300	0.137000
N81	N8	0.005400	0.474600	0.025800
N91	N9	0.139800	0.247600	0.069100
N101	N10	0.379600	0.499300	0.363000
N111	N11	0.994600	0.474600	0.474200
N121	N12	0.860200	0.247600	0.430900
