data_GOGWAB_freeONLY_PM
_symmetry_space_group_name_H-M	'P1'
_cell_length_a	7.557080
_cell_length_b	12.571000
_cell_length_c	12.571000
_cell_angle_alpha	84.816500
_cell_angle_beta	72.507800
_cell_angle_gamma	72.507800
_symmetry_Int_Tables_number 1

loop_
_symmetry_equiv_pos_as_xyz
'x,y,z'

loop_
_atom_site_label
_atom_site_type_symbol
_atom_site_fract_x
_atom_site_fract_y
_atom_site_fract_z
Zn11	Zn1	0.500000	0.000000	0.000000
Zn21	Zn2	0.750000	0.500000	0.500000
H11	H1	0.784300	0.981000	0.073000
H21	H2	0.838300	0.019000	0.927000
H31	H3	0.142700	0.073000	0.019000
H41	H4	0.234700	0.927000	0.981000
H51	H5	0.411700	0.573000	0.481000
H61	H6	0.465700	0.427000	0.519000
H71	H7	0.015300	0.519000	0.573000
H81	H8	0.107300	0.481000	0.427000
H91	H9	0.625000	0.852000	0.648000
H101	H10	0.125000	0.148000	0.352000
H111	H11	0.727000	0.648000	0.148000
H121	H12	0.523000	0.352000	0.852000
C11	C1	0.611300	0.823700	0.808900
C21	C2	0.243900	0.176300	0.191100
C31	C3	0.579800	0.808900	0.176300
C41	C4	0.565000	0.191100	0.823700
C51	C5	0.006100	0.308900	0.323700
C61	C6	0.638700	0.691100	0.676300
C71	C7	0.685000	0.676300	0.308900
C81	C8	0.670200	0.323700	0.691100
C91	C9	0.625000	0.797200	0.702800
C101	C10	0.625000	0.632000	0.868000
C111	C11	0.125000	0.202800	0.297200
C121	C12	0.125000	0.368000	0.132000
C131	C13	0.672200	0.702800	0.202800
C141	C14	0.507000	0.868000	0.368000
C151	C15	0.577800	0.297200	0.797200
C161	C16	0.743000	0.132000	0.632000
S11	S1	0.625000	0.534060	0.965940
S21	S2	0.125000	0.465940	0.034060
S31	S3	0.409060	0.965940	0.465940
S41	S4	0.840940	0.034060	0.534060
N11	N1	0.613800	0.737500	0.890100
N21	N2	0.241400	0.262500	0.109900
N31	N3	0.496100	0.890100	0.262500
N41	N4	0.648700	0.109900	0.737500
N51	N5	0.008600	0.390100	0.237500
N61	N6	0.636200	0.609900	0.762500
N71	N7	0.601300	0.762500	0.390100
N81	N8	0.753900	0.237500	0.609900
O11	O1	0.603320	0.916190	0.843970
O21	O2	0.363480	0.083810	0.156030
O31	O3	0.552710	0.843970	0.083810
O41	O4	0.480490	0.156030	0.916190
O51	O5	0.886520	0.343970	0.416190
O61	O6	0.646680	0.656030	0.583810
O71	O7	0.769510	0.583810	0.343970
O81	O8	0.697290	0.416190	0.656030
O91	O9	0.768900	0.000000	0.000000
O101	O10	0.231100	0.000000	0.000000
O111	O11	0.481100	0.500000	0.500000
O121	O12	0.018900	0.500000	0.500000
