data_GOMRAC_freeONLY_PM
_symmetry_space_group_name_H-M	'P1'
_cell_length_a	14.733000
_cell_length_b	13.079000
_cell_length_c	15.210000
_cell_angle_alpha	90.000000
_cell_angle_beta	110.990000
_cell_angle_gamma	90.000000
_symmetry_Int_Tables_number 1

loop_
_symmetry_equiv_pos_as_xyz
'x,y,z'

loop_
_atom_site_label
_atom_site_type_symbol
_atom_site_fract_x
_atom_site_fract_y
_atom_site_fract_z
Al11	Al1	0.875150	0.809480	0.123890
Zn11	Zn1	0.083130	0.106760	0.162790
Al21	Al2	0.583130	0.606760	0.162790
Zn21	Zn2	0.248940	0.873880	0.082010
Al31	Al3	0.751060	0.873880	0.417990
P11	P1	0.375670	0.686060	0.127720
P21	P2	0.746080	0.612730	0.079130
P31	P3	0.909150	0.867540	0.329880
O11	O1	0.472100	0.673500	0.113300
O21	O2	0.360900	0.800700	0.136400
O31	O3	0.376200	0.628000	0.214500
O41	O4	0.834600	0.680500	0.110400
O51	O5	0.859500	0.869600	0.223100
O61	O6	0.672300	0.652500	0.120500
O71	O7	0.700500	0.613700	0.972800
O81	O8	0.841100	0.823800	0.374100
O91	O9	0.291500	0.642600	0.045700
O101	O10	0.778800	0.506000	0.112700
O111	O11	0.937600	0.975800	0.363500
O121	O12	0.999800	0.798900	0.359900
Al41	Al4	0.375150	0.309480	0.123890
Zn31	Zn3	0.748940	0.373880	0.082010
Al51	Al5	0.251060	0.373880	0.417990
P41	P4	0.875670	0.186060	0.127720
P51	P5	0.246080	0.112730	0.079130
P61	P6	0.409150	0.367540	0.329880
O131	O13	0.972100	0.173500	0.113300
O141	O14	0.860900	0.300700	0.136400
O151	O15	0.876200	0.128000	0.214500
O161	O16	0.334600	0.180500	0.110400
O171	O17	0.359500	0.369600	0.223100
O181	O18	0.172300	0.152500	0.120500
O191	O19	0.200500	0.113700	0.972800
O201	O20	0.341100	0.323800	0.374100
O211	O21	0.791500	0.142600	0.045700
O221	O22	0.278800	0.006000	0.112700
O231	O23	0.437600	0.475800	0.363500
O241	O24	0.499800	0.298900	0.359900
Al61	Al6	0.124850	0.809480	0.376110
Zn41	Zn4	0.916870	0.106760	0.337210
Al71	Al7	0.416870	0.606760	0.337210
P71	P7	0.624330	0.686060	0.372280
P81	P8	0.253920	0.612730	0.420870
P91	P9	0.090850	0.867540	0.170120
O251	O25	0.527900	0.673500	0.386700
O261	O26	0.639100	0.800700	0.363600
O271	O27	0.623800	0.628000	0.285500
O281	O28	0.165400	0.680500	0.389600
O291	O29	0.140500	0.869600	0.276900
O301	O30	0.327700	0.652500	0.379500
O311	O31	0.299500	0.613700	0.527200
O321	O32	0.158900	0.823800	0.125900
O331	O33	0.708500	0.642600	0.454300
O341	O34	0.221200	0.506000	0.387300
O351	O35	0.062400	0.975800	0.136500
O361	O36	0.000200	0.798900	0.140100
Al81	Al8	0.624850	0.309480	0.376110
P101	P10	0.124330	0.186060	0.372280
P111	P11	0.753920	0.112730	0.420870
P121	P12	0.590850	0.367540	0.170120
O371	O37	0.027900	0.173500	0.386700
O381	O38	0.139100	0.300700	0.363600
O391	O39	0.123800	0.128000	0.285500
O401	O40	0.665400	0.180500	0.389600
O411	O41	0.640500	0.369600	0.276900
O421	O42	0.827700	0.152500	0.379500
O431	O43	0.799500	0.113700	0.527200
O441	O44	0.658900	0.323800	0.125900
O451	O45	0.208500	0.142600	0.454300
O461	O46	0.721200	0.006000	0.387300
O471	O47	0.562400	0.475800	0.136500
O481	O48	0.500200	0.298900	0.140100
Al91	Al9	0.124850	0.190520	0.876110
Zn51	Zn5	0.916870	0.893240	0.837210
Al101	Al10	0.416870	0.393240	0.837210
Zn61	Zn6	0.751060	0.126120	0.917990
Al111	Al11	0.248940	0.126120	0.582010
P131	P13	0.624330	0.313940	0.872280
P141	P14	0.253920	0.387270	0.920870
P151	P15	0.090850	0.132460	0.670120
O491	O49	0.527900	0.326500	0.886700
O501	O50	0.639100	0.199300	0.863600
O511	O51	0.623800	0.372000	0.785500
O521	O52	0.165400	0.319500	0.889600
O531	O53	0.140500	0.130400	0.776900
O541	O54	0.327700	0.347500	0.879500
O551	O55	0.299500	0.386300	0.027200
O561	O56	0.158900	0.176200	0.625900
O571	O57	0.708500	0.357400	0.954300
O581	O58	0.221200	0.494000	0.887300
O591	O59	0.062400	0.024200	0.636500
O601	O60	0.000200	0.201100	0.640100
Al121	Al12	0.624850	0.690520	0.876110
Zn71	Zn7	0.251060	0.626120	0.917990
Al131	Al13	0.748940	0.626120	0.582010
P161	P16	0.124330	0.813940	0.872280
P171	P17	0.753920	0.887270	0.920870
P181	P18	0.590850	0.632460	0.670120
O611	O61	0.027900	0.826500	0.886700
O621	O62	0.139100	0.699300	0.863600
O631	O63	0.123800	0.872000	0.785500
O641	O64	0.665400	0.819500	0.889600
O651	O65	0.640500	0.630400	0.776900
O661	O66	0.827700	0.847500	0.879500
O671	O67	0.799500	0.886300	0.027200
O681	O68	0.658900	0.676200	0.625900
O691	O69	0.208500	0.857400	0.954300
O701	O70	0.721200	0.994000	0.887300
O711	O71	0.562400	0.524200	0.636500
O721	O72	0.500200	0.701100	0.640100
Al141	Al14	0.875150	0.190520	0.623890
Zn81	Zn8	0.083130	0.893240	0.662790
Al151	Al15	0.583130	0.393240	0.662790
P191	P19	0.375670	0.313940	0.627720
P201	P20	0.746080	0.387270	0.579130
P211	P21	0.909150	0.132460	0.829880
O731	O73	0.472100	0.326500	0.613300
O741	O74	0.360900	0.199300	0.636400
O751	O75	0.376200	0.372000	0.714500
O761	O76	0.834600	0.319500	0.610400
O771	O77	0.859500	0.130400	0.723100
O781	O78	0.672300	0.347500	0.620500
O791	O79	0.700500	0.386300	0.472800
O801	O80	0.841100	0.176200	0.874100
O811	O81	0.291500	0.357400	0.545700
O821	O82	0.778800	0.494000	0.612700
O831	O83	0.937600	0.024200	0.863500
O841	O84	0.999800	0.201100	0.859900
Al161	Al16	0.375150	0.690520	0.623890
P221	P22	0.875670	0.813940	0.627720
P231	P23	0.246080	0.887270	0.579130
P241	P24	0.409150	0.632460	0.829880
O851	O85	0.972100	0.826500	0.613300
O861	O86	0.860900	0.699300	0.636400
O871	O87	0.876200	0.872000	0.714500
O881	O88	0.334600	0.819500	0.610400
O891	O89	0.359500	0.630400	0.723100
O901	O90	0.172300	0.847500	0.620500
O911	O91	0.200500	0.886300	0.472800
O921	O92	0.341100	0.676200	0.874100
O931	O93	0.791500	0.857400	0.545700
O941	O94	0.278800	0.994000	0.612700
O951	O95	0.437600	0.524200	0.863500
O961	O96	0.499800	0.701100	0.859900
