data_GOQSIQ_freeONLY_PM
_symmetry_space_group_name_H-M	'P1'
_cell_length_a	9.516100
_cell_length_b	30.157500
_cell_length_c	45.936700
_cell_angle_alpha	90.000000
_cell_angle_beta	90.000000
_cell_angle_gamma	90.000000
_symmetry_Int_Tables_number 1

loop_
_symmetry_equiv_pos_as_xyz
'x,y,z'

loop_
_atom_site_label
_atom_site_type_symbol
_atom_site_fract_x
_atom_site_fract_y
_atom_site_fract_z
Zn11	Zn1	0.996460	0.171730	0.736790
Zn21	Zn2	0.157980	0.683110	0.187490
Zn31	Zn3	0.087720	0.237410	0.424810
Zn41	Zn4	0.587720	0.262590	0.575190
Zn51	Zn5	0.664140	0.003550	0.857960
Zn61	Zn6	0.651750	0.281620	0.029920
Zn71	Zn7	0.427920	0.868460	0.695980
Zn81	Zn8	0.412280	0.762590	0.924810
Zn91	Zn9	0.655110	0.470740	0.067230
Zn101	Zn10	0.085990	0.357690	0.524760
Zn111	Zn11	0.914010	0.857690	0.975240
Zn121	Zn12	0.929620	0.770580	0.652710
Zn131	Zn13	0.151750	0.218380	0.970080
Zn141	Zn14	0.503540	0.828270	0.236790
Zn151	Zn15	0.498550	0.054400	0.735360
Zn161	Zn16	0.927920	0.631540	0.304020
Zn171	Zn17	0.429620	0.729420	0.347290
Zn181	Zn18	0.570380	0.229420	0.152710
Zn191	Zn19	0.496460	0.328270	0.263210
Zn201	Zn20	0.501450	0.554400	0.764640
Zn211	Zn21	0.342020	0.316890	0.687490
Zn221	Zn22	0.414010	0.642310	0.024760
Zn231	Zn23	0.001450	0.945600	0.235360
Zn241	Zn24	0.848250	0.718380	0.529920
Zn251	Zn25	0.072080	0.131540	0.195980
Zn261	Zn26	0.585990	0.142310	0.475240
Zn271	Zn27	0.844890	0.529260	0.567230
Zn281	Zn28	0.572080	0.368460	0.804020
Zn291	Zn29	0.155110	0.029260	0.932770
Zn301	Zn30	0.335860	0.503550	0.642040
Zn311	Zn31	0.003540	0.671730	0.763210
Zn321	Zn32	0.998550	0.445600	0.264640
Zn331	Zn33	0.348250	0.781620	0.470080
Zn341	Zn34	0.835860	0.996450	0.357960
Zn351	Zn35	0.842020	0.183110	0.312510
Zn361	Zn36	0.912280	0.737410	0.075190
Zn371	Zn37	0.070380	0.270580	0.847290
Zn381	Zn38	0.344890	0.970740	0.432770
Zn391	Zn39	0.657980	0.816890	0.812510
Zn401	Zn40	0.164140	0.496450	0.142040
H11	H1	0.894700	0.630400	0.567500
H21	H2	0.661200	0.240600	0.961200
H31	H3	0.070100	0.686100	0.121800
H41	H4	0.786100	0.221300	0.457200
H51	H5	0.236100	0.667900	0.310200
H61	H6	0.901200	0.079400	0.317500
H71	H7	0.968900	0.591400	0.808700
H81	H8	0.060600	0.554600	0.345100
H91	H9	0.190500	0.796200	0.971600
H101	H10	0.533700	0.250900	0.219000
H111	H11	0.272200	0.961300	0.192600
H121	H12	0.938600	0.548400	0.264500
H131	H13	0.919500	0.692400	0.361500
H141	H14	0.995400	0.826700	0.803100
H151	H15	0.940800	0.287200	0.060800
H161	H16	0.401200	0.420600	0.682500
H171	H17	0.690500	0.703800	0.028400
H181	H18	0.136800	0.803400	0.602500
H191	H19	0.873700	0.850100	0.860900
H201	H20	0.492500	0.107500	0.540000
H211	H21	0.253200	0.681200	0.812300
H221	H22	0.468900	0.908600	0.191300
H231	H23	0.561400	0.451600	0.764500
H241	H24	0.891000	0.451600	0.111700
H251	H25	0.144100	0.734100	0.512500
H261	H26	0.713900	0.778700	0.957200
H271	H27	0.348500	0.032500	0.838300
H281	H28	0.505900	0.378500	0.199900
H291	H29	0.792100	0.443900	0.212700
H301	H30	0.651500	0.532500	0.661700
H311	H31	0.644100	0.765900	0.487500
H321	H32	0.966300	0.749100	0.719000
H331	H33	0.636100	0.996900	0.409500
H341	H34	0.061900	0.524200	0.514800
H351	H35	0.068200	0.132300	0.432100
H361	H36	0.939400	0.054600	0.154900
H371	H37	0.465300	0.622700	0.356200
H381	H38	0.394700	0.869600	0.432500
H391	H39	0.863200	0.303400	0.897500
H401	H40	0.227800	0.038700	0.692600
H411	H41	0.938100	0.024200	0.985200
H421	H42	0.746800	0.181200	0.687700
H431	H43	0.605300	0.369600	0.067500
H441	H44	0.931800	0.632300	0.067900
H451	H45	0.083300	0.574600	0.661200
H461	H46	0.363900	0.496900	0.090500
H471	H47	0.161200	0.259400	0.038800
H481	H48	0.005900	0.121500	0.800100
H491	H49	0.927400	0.063600	0.405300
H501	H50	0.848500	0.467500	0.161700
H511	H51	0.507500	0.607500	0.960000
H521	H52	0.624500	0.224800	0.513900
H531	H53	0.042700	0.368200	0.312600
H541	H54	0.098800	0.579400	0.182500
H551	H55	0.292100	0.056100	0.787300
H561	H56	0.007500	0.892500	0.040000
H571	H57	0.105300	0.130400	0.932500
H581	H58	0.378200	0.946100	0.939800
H591	H59	0.596700	0.575300	0.059400
H601	H60	0.372500	0.701200	0.865400
H611	H61	0.636800	0.696600	0.397500
H621	H62	0.431800	0.867700	0.932100
H631	H63	0.323300	0.544700	0.998300
H641	H64	0.903300	0.424700	0.559400
H651	H65	0.874400	0.925600	0.881300
H661	H66	0.900000	0.284400	0.948900
H671	H67	0.625400	0.415100	0.129900
H681	H68	0.391000	0.048400	0.888300
H691	H69	0.732900	0.665000	0.249500
H701	H70	0.859500	0.266200	0.717400
H711	H71	0.600000	0.715600	0.448900
H721	H72	0.125600	0.425600	0.618700
H731	H73	0.427400	0.436400	0.594700
H741	H74	0.718100	0.899200	0.254900
H751	H75	0.609000	0.548400	0.611700
H761	H76	0.531100	0.408600	0.308700
H771	H77	0.970600	0.663000	0.654300
H781	H78	0.286100	0.278700	0.542800
H791	H79	0.072600	0.563600	0.094700
H801	H80	0.373700	0.266200	0.879600
H811	H81	0.162600	0.211900	0.901500
H821	H82	0.916700	0.074600	0.838800
H831	H83	0.753200	0.818800	0.187700
H841	H84	0.640500	0.733800	0.217400
H851	H85	0.400000	0.215600	0.051100
H861	H86	0.570100	0.813900	0.878200
H871	H87	0.207500	0.857900	0.505000
H881	H88	0.416700	0.425400	0.161200
H891	H89	0.894900	0.979100	0.173200
H901	H90	0.207600	0.869700	0.250900
H911	H91	0.873700	0.233800	0.120400
H921	H92	0.355900	0.265900	0.012500
H931	H93	0.855900	0.234100	0.987500
H941	H94	0.875500	0.775200	0.013900
H951	H95	0.838800	0.759400	0.461200
H961	H96	0.470600	0.837000	0.345700
H971	H97	0.020500	0.275900	0.318500
H981	H98	0.763900	0.167900	0.189800
H991	H99	0.363200	0.196600	0.102500
H1001	H100	0.560600	0.945400	0.654900
H1011	H101	0.362800	0.406900	0.546800
H1021	H102	0.640300	0.852600	0.747500
H1031	H103	0.105100	0.479100	0.326800
H1041	H104	0.403300	0.075300	0.440600
H1051	H105	0.059200	0.787200	0.439200
H1061	H106	0.100000	0.784400	0.551100
H1071	H107	0.583300	0.925400	0.338800
H1081	H108	0.151500	0.967500	0.338300
H1091	H109	0.203400	0.794600	0.689300
H1101	H110	0.626300	0.149900	0.360900
H1111	H111	0.707500	0.642100	0.495000
H1121	H112	0.707600	0.630300	0.749100
H1131	H113	0.796600	0.294600	0.810700
H1141	H114	0.494100	0.878500	0.300100
H1151	H115	0.809500	0.296200	0.528400
H1161	H116	0.538200	0.155500	0.407700
H1171	H117	0.165300	0.934600	0.486500
H1181	H118	0.429900	0.313900	0.621800
H1191	H119	0.127500	0.298800	0.365400
H1201	H120	0.336100	0.194900	0.386000
H1211	H121	0.328300	0.816300	0.797800
H1221	H122	0.979500	0.775900	0.181500
H1231	H123	0.373700	0.649900	0.139100
H1241	H124	0.767100	0.335000	0.749500
H1251	H125	0.748400	0.725100	0.787600
H1261	H126	0.878200	0.553900	0.060200
H1271	H127	0.961800	0.844500	0.907700
H1281	H128	0.109000	0.951600	0.388300
H1291	H129	0.529400	0.337000	0.154300
H1301	H130	0.461800	0.655500	0.092300
H1311	H131	0.676700	0.044700	0.501700
H1321	H132	0.034700	0.377300	0.856200
H1331	H133	0.621800	0.446100	0.560200
H1341	H134	0.992500	0.392500	0.460000
H1351	H135	0.306700	0.525100	0.710800
H1361	H136	0.965300	0.877300	0.643800
H1371	H137	0.394900	0.520900	0.826800
H1381	H138	0.663900	0.694900	0.114000
H1391	H139	0.031100	0.091400	0.691300
H1401	H140	0.329500	0.082500	0.161300
H1411	H141	0.693300	0.025100	0.789200
H1421	H142	0.359500	0.233800	0.282600
H1431	H143	0.338800	0.740600	0.538800
H1441	H144	0.627500	0.201200	0.634600
H1451	H145	0.337400	0.788100	0.401500
H1461	H146	0.126300	0.350100	0.639100
H1471	H147	0.359700	0.352600	0.752500
H1481	H148	0.872500	0.798800	0.134600
H1491	H149	0.292400	0.130300	0.750900
H1501	H150	0.561900	0.975800	0.485200
H1511	H151	0.061400	0.048400	0.235500
H1521	H152	0.792500	0.357900	0.995000
H1531	H153	0.501100	0.156700	0.582900
H1541	H154	0.823300	0.955300	0.001700
H1551	H155	0.309500	0.203800	0.471600
H1561	H156	0.176700	0.455300	0.498300
H1571	H157	0.334700	0.065400	0.986500
H1581	H158	0.375500	0.724800	0.986100
H1591	H159	0.772200	0.538700	0.807400
H1601	H160	0.419500	0.807600	0.638500
H1611	H161	0.572600	0.936400	0.905300
H1621	H162	0.292500	0.142100	0.005000
H1631	H163	0.504600	0.173300	0.303100
H1641	H164	0.121800	0.053900	0.439800
H1651	H165	0.374400	0.574400	0.118700
H1661	H166	0.004600	0.326700	0.696900
H1671	H167	0.374600	0.915100	0.370100
H1681	H168	0.251600	0.225100	0.712400
H1691	H169	0.534700	0.122700	0.143800
H1701	H170	0.792400	0.369700	0.249100
H1711	H171	0.568200	0.367700	0.567900
H1721	H172	0.207900	0.943900	0.287300
H1731	H173	0.296600	0.205400	0.189300
H1741	H174	0.625600	0.074400	0.381300
H1751	H175	0.246800	0.318800	0.312300
H1761	H176	0.834700	0.434600	0.013500
H1771	H177	0.998900	0.843300	0.082900
H1781	H178	0.171700	0.183700	0.297800
H1791	H179	0.213900	0.721300	0.042800
H1801	H180	0.163900	0.805100	0.886000
H1811	H181	0.806700	0.974900	0.289200
H1821	H182	0.665300	0.565400	0.513500
H1831	H183	0.001100	0.343300	0.417100
H1841	H184	0.124500	0.275200	0.486100
H1851	H185	0.038200	0.344500	0.592300
H1861	H186	0.466300	0.750900	0.281000
H1871	H187	0.859700	0.147400	0.247500
H1881	H188	0.080500	0.192400	0.138500
H1891	H189	0.029400	0.163000	0.845700
H1901	H190	0.542700	0.131800	0.687400
H1911	H191	0.598800	0.920600	0.817500
H1921	H192	0.662600	0.288100	0.098500
H1931	H193	0.125400	0.084900	0.870100
H1941	H194	0.193300	0.474900	0.210800
H1951	H195	0.457300	0.631800	0.812600
H1961	H196	0.248400	0.774900	0.212400
H1971	H197	0.232900	0.835000	0.750500
H1981	H198	0.520500	0.224100	0.681500
H1991	H199	0.874600	0.584900	0.629900
H2001	H200	0.703400	0.705400	0.310700
H2011	H201	0.136100	0.503100	0.590500
H2021	H202	0.670500	0.582500	0.338700
H2031	H203	0.559200	0.712800	0.560800
H2041	H204	0.994100	0.621500	0.699900
H2051	H205	0.439400	0.445400	0.845100
H2061	H206	0.605100	0.020900	0.673200
H2071	H207	0.781900	0.100800	0.754900
H2081	H208	0.863900	0.003100	0.909500
H2091	H209	0.957300	0.868200	0.187400
H2101	H210	0.837400	0.711900	0.598500
H2111	H211	0.267100	0.165000	0.250500
H2121	H212	0.033700	0.249100	0.781000
H2131	H213	0.707900	0.556100	0.712700
H2141	H214	0.438100	0.475800	0.014800
H2151	H215	0.862800	0.093100	0.453200
H2161	H216	0.671700	0.316300	0.702200
H2171	H217	0.438600	0.951600	0.735500
H2181	H218	0.836100	0.305100	0.614000
H2191	H219	0.479500	0.724100	0.818500
H2201	H220	0.637200	0.906900	0.953200
H2211	H221	0.126300	0.733800	0.379600
H2221	H222	0.140300	0.647400	0.252500
H2231	H223	0.498900	0.656700	0.917100
H2241	H224	0.736100	0.832100	0.689800
H2251	H225	0.218100	0.600800	0.745100
H2261	H226	0.929900	0.186100	0.378200
H2271	H227	0.281900	0.399200	0.245100
H2281	H228	0.580500	0.307600	0.861500
H2291	H229	0.751600	0.274900	0.287600
H2301	H230	0.140500	0.766200	0.782600
H2311	H231	0.495400	0.673300	0.196900
H2321	H232	0.828300	0.683700	0.202200
H2331	H233	0.263900	0.332100	0.810200
H2341	H234	0.440800	0.212800	0.939200
H2351	H235	0.626300	0.766200	0.620400
H2361	H236	0.727800	0.461300	0.307400
H2371	H237	0.137200	0.593100	0.046800
H2381	H238	0.096700	0.924700	0.940600
H2391	H239	0.829500	0.417500	0.838700
H2401	H240	0.170500	0.917500	0.661300
C11	C1	0.848500	0.387000	0.835040
C21	C2	0.034100	0.711800	0.131080
C31	C3	0.986000	0.038100	0.406600
C41	C4	0.028700	0.175700	0.826790
C51	C5	0.381500	0.825500	0.781370
C61	C6	0.430500	0.438600	0.142670
C71	C7	0.626900	0.875600	0.951500
C81	C8	0.541900	0.955600	0.674100
C91	C9	0.317600	0.584600	0.134400
C101	C10	0.831300	0.320500	0.819940
C111	C11	0.531400	0.277900	0.208370
C121	C12	0.617700	0.131100	0.701080
C131	C13	0.271600	0.658500	0.798410
C141	C14	0.986500	0.146000	0.439930
C151	C15	0.590300	0.201500	0.525890
C161	C16	0.927100	0.772900	0.137730
C171	C17	0.585000	0.521600	0.602030
C181	C18	0.010700	0.692100	0.353100
C191	C19	0.542300	0.735100	0.213800
C201	C20	0.217400	0.064000	0.704600
C211	C21	0.255900	0.130600	0.987400
C221	C22	0.069500	0.255700	0.031000
C231	C23	0.034100	0.829800	0.918200
C241	C24	0.484400	0.847300	0.301770
C251	C25	0.538800	0.634900	0.344710
C261	C26	0.348500	0.113000	0.164960
C271	C27	0.597300	0.977100	0.395560
C281	C28	0.158100	0.803400	0.952610
C291	C29	0.873100	0.124400	0.451500
C301	C30	0.658100	0.696600	0.047390
C311	C31	0.935200	0.002600	0.184200
C321	C32	0.548700	0.845000	0.754060
C331	C33	0.552200	0.730100	0.543600
C341	C34	0.670400	0.336100	0.744470
C351	C35	0.829500	0.743400	0.788790
C361	C36	0.329600	0.836100	0.755530
C371	C37	0.667200	0.806000	0.953660
C381	C38	0.608900	0.407000	0.295800
C391	C39	0.341900	0.196600	0.452610
C401	C40	0.947800	0.269900	0.043600
C411	C41	0.151500	0.887000	0.664960
C421	C42	0.976000	0.835100	0.063530
C431	C43	0.090300	0.298500	0.474110
C441	C44	0.070400	0.782600	0.595280
C451	C45	0.817600	0.915400	0.865600
C461	C46	0.124700	0.715000	0.363000
C471	C47	0.315800	0.626200	0.145470
C481	C48	0.072900	0.272900	0.362270
C491	C49	0.965900	0.329800	0.581800
C501	C50	0.513500	0.854000	0.939930
C511	C51	0.755900	0.369400	0.012600
C521	C52	0.572900	0.227100	0.637730
C531	C53	0.644600	0.692200	0.093790
C541	C54	0.024000	0.335100	0.436470
C551	C55	0.457700	0.235100	0.286200
C561	C56	0.773700	0.412800	0.021400
C571	C57	0.404600	0.966600	0.925100
C581	C58	0.085000	0.978400	0.397970
C591	C59	0.968600	0.722100	0.708370
C601	C60	0.126900	0.624400	0.048500
C611	C61	0.332800	0.306000	0.546340
C621	C62	0.331500	0.412300	0.668720
C631	C63	0.331300	0.179500	0.180060
C641	C64	0.489300	0.307900	0.853100
C651	C65	0.087200	0.965000	0.322500
C661	C66	0.949700	0.271900	0.932900
C671	C67	0.382300	0.631100	0.798920
C681	C68	0.273700	0.087200	0.978600
C691	C69	0.014900	0.260100	0.336340
C701	C70	0.592700	0.267200	0.092920
C711	C71	0.515600	0.347300	0.198230
C721	C72	0.435200	0.497400	0.815800
C731	C73	0.052200	0.769900	0.456400
C741	C74	0.717400	0.436000	0.295400
C751	C75	0.093000	0.740500	0.495200
C761	C76	0.744100	0.630600	0.512600
C771	C77	0.752500	0.885400	0.237680
C781	C78	0.534100	0.670200	0.081800
C791	C79	0.681300	0.820700	0.674170
C801	C80	0.818700	0.179300	0.174170
C811	C81	0.013500	0.646000	0.060070
C821	C82	0.458100	0.455600	0.825900
C831	C83	0.038600	0.298600	0.702900
C841	C84	0.391100	0.907000	0.204200
C851	C85	0.514900	0.239900	0.663660
C861	C86	0.108900	0.093000	0.704200
C871	C87	0.985100	0.760100	0.163660
C881	C88	0.486000	0.461900	0.593400
C891	C89	0.855400	0.307800	0.593790
C901	C90	0.605400	0.042700	0.487300
C911	C91	0.069500	0.561400	0.642670
C921	C92	0.373100	0.375600	0.548500
C931	C93	0.486500	0.354000	0.560070
C941	C94	0.980300	0.862200	0.039820
C951	C95	0.875300	0.215000	0.137000
C961	C96	0.881700	0.452800	0.205800
C971	C97	0.728400	0.158500	0.701590
C981	C98	0.957700	0.264900	0.713800
C991	C99	0.624700	0.785000	0.637000
C1001	C100	0.514000	0.961900	0.906600
C1011	C101	0.375300	0.285000	0.863000
C1021	C102	0.534100	0.788200	0.868920
C1031	C103	0.550300	0.728100	0.432900
C1041	C104	0.468600	0.777900	0.291630
C1051	C105	0.168500	0.587700	0.168720
C1061	C106	0.476000	0.664900	0.936470
C1071	C107	0.909700	0.798500	0.025890
C1081	C108	0.961400	0.798600	0.797100
C1091	C109	0.930500	0.061400	0.857330
C1101	C110	0.430500	0.744300	0.531000
C1111	C111	0.848400	0.623200	0.549800
C1121	C112	0.951300	0.155000	0.254060
C1131	C113	0.882300	0.868900	0.201080
C1141	C114	0.412800	0.035000	0.822500
C1151	C115	0.957300	0.995300	0.978000
C1161	C116	0.118300	0.952800	0.294200
C1171	C117	0.031400	0.222100	0.791630
C1181	C118	0.041900	0.544400	0.325900
C1191	C119	0.429600	0.217400	0.095280
C1201	C120	0.184200	0.373800	0.645470
C1211	C121	0.449700	0.228100	0.067100
C1221	C122	0.971300	0.675700	0.673210
C1231	C123	0.958100	0.044400	0.174100
C1241	C124	0.355400	0.192200	0.406210
C1251	C125	0.726300	0.587200	0.521400
C1261	C126	0.832800	0.194000	0.453660
C1271	C127	0.097300	0.522900	0.604440
C1281	C128	0.528700	0.324300	0.173210
C1291	C129	0.618300	0.547200	0.705800
C1301	C130	0.427100	0.727100	0.862270
C1311	C131	0.894600	0.957300	0.987300
C1321	C132	0.831500	0.087700	0.331280
C1331	C133	0.670500	0.256600	0.288790
C1341	C134	0.907000	0.240500	0.004800
C1351	C135	0.954000	0.567000	0.625470
C1361	C136	0.471300	0.824300	0.326790
C1371	C137	0.961200	0.365100	0.844710
C1381	C138	0.618500	0.325500	0.718630
C1391	C139	0.348400	0.876800	0.450200
C1401	C140	0.465900	0.170200	0.418200
C1411	C141	0.904600	0.533400	0.074900
C1421	C142	0.454000	0.933000	0.374530
C1431	C143	0.461400	0.701400	0.202900
C1441	C144	0.118500	0.174500	0.281370
C1451	C145	0.930500	0.755700	0.469000
C1461	C146	0.181300	0.679300	0.325830
C1471	C147	0.447800	0.230100	0.956400
C1481	C148	0.168700	0.820500	0.680060
C1491	C149	0.891100	0.593000	0.795800
C1501	C150	0.457300	0.504700	0.022000
C1511	C151	0.407000	0.259500	0.995200
C1521	C152	0.477000	0.959500	0.717090
C1531	C153	0.524000	0.164900	0.563530
C1541	C154	0.252500	0.614600	0.762320
C1551	C155	0.485100	0.739900	0.836340
C1561	C156	0.046000	0.067000	0.874530
C1571	C157	0.682400	0.084600	0.365600
C1581	C158	0.668500	0.912300	0.831280
C1591	C159	0.381700	0.047200	0.794200
C1601	C160	0.815800	0.873800	0.854530
C1611	C161	0.064800	0.502600	0.315800
C1621	C162	0.407300	0.767200	0.407080
C1631	C163	0.038800	0.865100	0.655290
C1641	C164	0.095400	0.033400	0.425100
C1651	C165	0.510700	0.807900	0.646900
C1661	C166	0.912800	0.465000	0.177500
C1671	C167	0.092700	0.232800	0.907080
C1681	C168	0.457600	0.058900	0.454210
C1691	C169	0.965900	0.211800	0.368920
C1701	C170	0.228400	0.341500	0.298410
C1711	C171	0.117700	0.368900	0.298920
C1721	C172	0.167200	0.694000	0.046340
C1731	C173	0.546000	0.433000	0.125470
C1741	C174	0.144600	0.807800	0.906210
C1751	C175	0.042400	0.941100	0.954210
C1761	C176	0.989300	0.192100	0.146900
C1771	C177	0.394600	0.542700	0.012700
C1781	C178	0.749400	0.386700	0.264100
C1791	C179	0.415000	0.021600	0.897970
C1801	C180	0.915000	0.478400	0.102030
C1811	C181	0.595400	0.466600	0.574900
C1821	C182	0.957600	0.441100	0.545790
C1831	C183	0.318700	0.320700	0.825830
C1841	C184	0.564800	0.997400	0.684200
C1851	C185	0.841900	0.303400	0.547390
C1861	C186	0.771600	0.841500	0.201590
C1871	C187	0.523000	0.459500	0.782910
C1881	C188	0.538600	0.201400	0.297100
C1891	C189	0.050300	0.771900	0.567100
C1901	C190	0.829600	0.663900	0.244470
C1911	C191	0.461200	0.134900	0.155290
C1921	C192	0.587200	0.535000	0.677500
C1931	C193	0.170500	0.243400	0.711210
C1941	C194	0.747500	0.114600	0.737680
C1951	C195	0.929600	0.282600	0.904720
C1961	C196	0.600500	0.031100	0.795740
C1971	C197	0.907300	0.732800	0.592920
C1981	C198	0.048700	0.655000	0.245940
C1991	C199	0.399500	0.531100	0.704260
C2001	C200	0.684200	0.126200	0.354530
C2011	C201	0.250600	0.886700	0.235900
C2021	C202	0.984400	0.652700	0.698230
C2031	C203	0.042700	0.495300	0.522000
C2041	C204	0.465900	0.288200	0.631080
C2051	C205	0.249400	0.113300	0.735900
C2061	C206	0.569500	0.938600	0.357330
C2071	C207	0.282600	0.936000	0.204600
C2081	C208	0.247500	0.385400	0.262320
C2091	C209	0.542400	0.558900	0.045790
C2101	C210	0.902700	0.022900	0.895560
C2111	C211	0.042300	0.764900	0.786200
C2121	C212	0.899500	0.968900	0.295740
C2131	C213	0.480300	0.637800	0.960180
C2141	C214	0.750600	0.613300	0.764100
C2151	C215	0.651600	0.376800	0.049800
C2161	C216	0.977000	0.540500	0.282910
C2171	C217	0.100500	0.468900	0.204260
C2181	C218	0.015600	0.152700	0.801770
C2191	C219	0.593000	0.759500	0.504800
C2201	C220	0.451300	0.345000	0.745940
C2211	C221	0.881500	0.674500	0.218630
C2221	C222	0.105400	0.457300	0.512700
C2231	C223	0.014000	0.538100	0.093400
C2241	C224	0.651500	0.613000	0.335040
C2251	C225	0.668700	0.679500	0.319940
C2261	C226	0.570400	0.717400	0.404720
C2271	C227	0.023000	0.040500	0.217090
C2281	C228	0.542700	0.004700	0.478000
C2291	C229	0.569500	0.244300	0.969000
C2301	C230	0.170400	0.163900	0.255530
C2311	C231	0.519700	0.137800	0.539820
C2321	C232	0.402700	0.477100	0.104440
C2331	C233	0.409700	0.701500	0.974110
C2341	C234	0.182400	0.415400	0.634400
C2351	C235	0.782600	0.564000	0.795400
C2361	C236	0.019700	0.362200	0.460180
C2371	C237	0.244100	0.869400	0.487400
C2381	C238	0.151600	0.123200	0.950200
C2391	C239	0.226300	0.912800	0.478600
C2401	C240	0.329500	0.756600	0.211210
N11	N1	0.450600	0.330950	0.829400
N21	N2	0.816600	0.583200	0.544040
N31	N3	0.777800	0.059460	0.350030
N41	N4	0.692100	0.577680	0.774770
N51	N5	0.935200	0.651210	0.262840
N61	N6	0.549300	0.077380	0.472560
N71	N7	0.872900	0.624110	0.775410
N81	N8	0.999400	0.455800	0.221910
N91	N9	0.040900	0.219760	0.820960
N101	N10	0.837300	0.033520	0.870990
N111	N11	0.223100	0.790350	0.928430
N121	N12	0.192100	0.922320	0.225230
N131	N13	0.037800	0.690440	0.058420
N141	N14	0.476500	0.742100	0.388210
N151	N15	0.036300	0.234400	0.004580
N161	N16	0.061800	0.473010	0.176550
N171	N17	0.022000	0.499800	0.288370
N181	N18	0.547500	0.678600	0.335060
N191	N19	0.439800	0.660760	0.984000
N201	N20	0.766900	0.206780	0.154480
N211	N21	0.988200	0.568880	0.303990
N221	N22	0.276900	0.209650	0.428430
N231	N23	0.981400	0.682370	0.720700
N241	N24	0.183400	0.083200	0.955960
N251	N25	0.500600	0.544200	0.721910
N261	N26	0.499400	0.044200	0.778090
N271	N27	0.235400	0.859310	0.680810
N281	N28	0.683100	0.345800	0.031220
N291	N29	0.976400	0.169960	0.280530
N301	N30	0.044000	0.827410	0.947620
N311	N31	0.000600	0.955800	0.278090
N321	N32	0.957700	0.729540	0.781570
N331	N33	0.522000	0.000200	0.711630
N341	N34	0.473100	0.498860	0.609470
N351	N35	0.781300	0.128860	0.332930
N361	N36	0.189900	0.648910	0.775080
N371	N37	0.433000	0.705770	0.945440
N381	N38	0.764600	0.359310	0.819190
N391	N39	0.807900	0.422320	0.274770
N401	N40	0.222200	0.559460	0.149970
N411	N41	0.049300	0.422620	0.527440
N421	N42	0.959100	0.719760	0.679040
N431	N43	0.976500	0.757900	0.611790
N441	N44	0.733100	0.793220	0.654480
N451	N45	0.162100	0.994080	0.419120
N461	N46	0.127100	0.124110	0.724590
N471	N47	0.553500	0.260100	0.064850
N481	N48	0.776900	0.290350	0.571570
N491	N49	0.946900	0.220460	0.340660
N501	N50	0.307900	0.077680	0.725230
N511	N51	0.337900	0.005920	0.919120
N521	N52	0.962200	0.190440	0.441580
N531	N53	0.372900	0.875890	0.224590
N541	N54	0.450700	0.577380	0.027440
N551	N55	0.561800	0.026990	0.823450
N561	N56	0.722200	0.940540	0.850030
N571	N57	0.938200	0.973010	0.323450
N581	N58	0.960500	0.742370	0.117340
N591	N59	0.662100	0.505920	0.580880
N601	N60	0.049900	0.985710	0.957060
N611	N61	0.233100	0.706780	0.345520
N621	N62	0.067000	0.294230	0.445440
N631	N63	0.264600	0.140690	0.180810
N641	N64	0.718700	0.871140	0.832930
N651	N65	0.435200	0.848790	0.737160
N661	N66	0.720400	0.845440	0.959960
N671	N67	0.316600	0.916800	0.455960
N681	N68	0.450100	0.014290	0.457060
N691	N69	0.518600	0.317630	0.220700
N701	N70	0.481400	0.817630	0.279300
N711	N71	0.963700	0.734400	0.495420
N721	N72	0.476400	0.330040	0.719470
N731	N73	0.564800	0.348790	0.762840
N741	N74	0.478000	0.500200	0.788370
N751	N75	0.662400	0.744900	0.527180
N761	N76	0.462200	0.309560	0.558420
N771	N77	0.537800	0.809560	0.941580
N781	N78	0.011800	0.068880	0.196010
N791	N79	0.456000	0.172590	0.447620
N801	N80	0.523500	0.242100	0.111790
N811	N81	0.631700	0.101660	0.723860
N821	N82	0.542300	0.270460	0.281570
N831	N83	0.277800	0.440540	0.649970
N841	N84	0.053100	0.720460	0.159340
N851	N85	0.053500	0.239900	0.935150
N861	N86	0.438200	0.526990	0.676550
N871	N87	0.950600	0.169050	0.170600
N881	N88	0.326000	0.714510	0.202140
N891	N89	0.042300	0.229540	0.718430
N901	N90	0.218700	0.628860	0.167070
N911	N91	0.549900	0.514290	0.042940
N921	N92	0.956000	0.327410	0.552380
N931	N93	0.527300	0.457590	0.100930
N941	N94	0.779600	0.154560	0.459960
N951	N95	0.816900	0.654200	0.531220
N961	N96	0.460500	0.757630	0.882660
N971	N97	0.810100	0.148910	0.724920
N981	N98	0.662700	0.966480	0.370990
N991	N99	0.023500	0.257900	0.888210
N1001	N100	0.540900	0.280240	0.179040
N1011	N101	0.368300	0.601660	0.776140
N1021	N102	0.526900	0.998860	0.890530
N1031	N103	0.952500	0.321400	0.835060
N1041	N104	0.523600	0.830040	0.780530
N1051	N105	0.279600	0.345440	0.540040
N1061	N106	0.457700	0.770460	0.218430
N1071	N107	0.553100	0.779540	0.840660
N1081	N108	0.539500	0.257630	0.617340
N1091	N109	0.459100	0.780240	0.320960
N1101	N110	0.511800	0.431120	0.803990
N1111	N111	0.488200	0.931120	0.696010
N1121	N112	0.463700	0.765600	0.504580
N1131	N113	0.567000	0.205770	0.554560
N1141	N114	0.049400	0.669050	0.329400
N1151	N115	0.337300	0.466480	0.129010
N1161	N116	0.973100	0.001140	0.390530
N1171	N117	0.549400	0.830950	0.670600
N1181	N118	0.281300	0.371140	0.667070
N1191	N119	0.039500	0.242370	0.382660
N1201	N120	0.972700	0.542410	0.600930
N1211	N121	0.446900	0.279540	0.659340
N1221	N122	0.162400	0.755100	0.472820
N1231	N123	0.220400	0.654560	0.040040
N1241	N124	0.939800	0.839240	0.016000
N1251	N125	0.544000	0.672590	0.052380
N1261	N126	0.837600	0.255100	0.027180
N1271	N127	0.735400	0.640690	0.319190
N1281	N128	0.023600	0.669960	0.219470
N1291	N129	0.826000	0.785490	0.797860
N1301	N130	0.723100	0.709650	0.071570
N1311	N131	0.536300	0.265600	0.995420
N1321	N132	0.026900	0.501140	0.109470
N1331	N133	0.950100	0.485710	0.542940
N1341	N134	0.837900	0.494080	0.080880
N1351	N135	0.064800	0.151210	0.237160
N1361	N136	0.472700	0.957590	0.399070
N1371	N137	0.452500	0.178600	0.164940
N1381	N138	0.174000	0.285490	0.702140
N1391	N139	0.131700	0.398340	0.276140
N1401	N140	0.868300	0.898340	0.223860
N1411	N141	0.162700	0.533520	0.629010
N1421	N142	0.950700	0.922620	0.972560
N1431	N143	0.683400	0.416800	0.044040
N1441	N144	0.946500	0.739900	0.564850
N1451	N145	0.689900	0.851090	0.224920
N1461	N146	0.978000	0.999800	0.211630
N1471	N147	0.674000	0.214510	0.297860
N1481	N148	0.627100	0.375890	0.275410
N1491	N149	0.266900	0.293220	0.845520
N1501	N150	0.337600	0.244900	0.972820
N1511	N151	0.933000	0.794230	0.054560
N1521	N152	0.560200	0.160760	0.516000
N1531	N153	0.018600	0.182370	0.779300
N1541	N154	0.183100	0.154200	0.968780
N1551	N155	0.310100	0.351090	0.275080
N1561	N156	0.060200	0.339240	0.484000
N1571	N157	0.027300	0.042410	0.899070
N1581	N158	0.446500	0.760100	0.435150
N1591	N159	0.316900	0.845800	0.468780
N1601	N160	0.047500	0.821400	0.664940
