data_GORQAF_freeONLY_PM
_symmetry_space_group_name_H-M	'P1'
_cell_length_a	8.116000
_cell_length_b	8.116000
_cell_length_c	14.721000
_cell_angle_alpha	90.000000
_cell_angle_beta	90.000000
_cell_angle_gamma	90.000000
_symmetry_Int_Tables_number 1

loop_
_symmetry_equiv_pos_as_xyz
'x,y,z'

loop_
_atom_site_label
_atom_site_type_symbol
_atom_site_fract_x
_atom_site_fract_y
_atom_site_fract_z
Cd11	Cd1	0.000000	0.250000	0.375000
Cd21	Cd2	0.500000	0.750000	0.875000
Cd31	Cd3	0.000000	0.750000	0.625000
Cd41	Cd4	0.500000	0.250000	0.125000
N11	N1	0.000000	0.451500	0.473000
N21	N2	0.500000	0.951500	0.973000
N31	N3	0.500000	0.548500	0.973000
N41	N4	0.000000	0.048500	0.473000
N51	N5	0.798500	0.750000	0.723000
N61	N6	0.701500	0.250000	0.223000
N71	N7	0.500000	0.451500	0.027000
N81	N8	0.000000	0.951500	0.527000
N91	N9	0.000000	0.548500	0.527000
N101	N10	0.500000	0.048500	0.027000
N111	N11	0.701500	0.750000	0.777000
N121	N12	0.798500	0.250000	0.277000
N131	N13	0.201500	0.250000	0.277000
N141	N14	0.298500	0.750000	0.777000
N151	N15	0.298500	0.250000	0.223000
N161	N16	0.201500	0.750000	0.723000
