data_GOSDID_freeONLY_PM
_symmetry_space_group_name_H-M	'P1'
_cell_length_a	15.822500
_cell_length_b	16.819600
_cell_length_c	28.476000
_cell_angle_alpha	96.700000
_cell_angle_beta	100.221000
_cell_angle_gamma	109.597000
_symmetry_Int_Tables_number 1

loop_
_symmetry_equiv_pos_as_xyz
'x,y,z'

loop_
_atom_site_label
_atom_site_type_symbol
_atom_site_fract_x
_atom_site_fract_y
_atom_site_fract_z
Zn11	Zn1	0.725410	0.764940	0.225520
Zn21	Zn2	0.711830	0.591830	0.882560
Zn31	Zn3	0.257540	0.173820	0.406920
Zn41	Zn4	0.926880	0.740620	0.289240
Zn51	Zn5	0.742460	0.826180	0.593080
Zn61	Zn6	0.827980	0.025480	0.689680
Zn71	Zn7	0.352960	0.594930	0.210570
Zn81	Zn8	0.288170	0.408170	0.117440
Zn91	Zn9	0.172020	0.974520	0.310320
Zn101	Zn10	0.274590	0.235060	0.774480
Zn111	Zn11	0.647040	0.405070	0.789430
Zn121	Zn12	0.073120	0.259380	0.710760
H11	H1	0.231900	0.990800	0.027800
H21	H2	0.329000	0.487300	0.464800
H31	H3	0.237900	0.088000	0.863000
H41	H4	0.791600	0.400600	0.222100
H51	H5	0.483500	0.286200	0.355400
H61	H6	0.208400	0.599400	0.777900
H71	H7	0.403300	0.054900	0.262800
H81	H8	0.612800	0.483800	0.130400
H91	H9	0.540600	0.958300	0.170400
H101	H10	0.155800	0.608800	0.139900
H111	H11	0.573000	0.177600	0.937500
H121	H12	0.204300	0.620600	0.966500
H131	H13	0.098200	0.823600	0.389600
H141	H14	0.762900	0.873500	0.939000
H151	H15	0.000600	0.681000	0.690000
H161	H16	0.663500	0.111800	0.965500
H171	H17	0.459400	0.041700	0.829600
H181	H18	0.789000	0.467100	0.978800
H191	H19	0.808900	0.289500	0.787100
H201	H20	0.047400	0.446700	0.505900
H211	H21	0.855200	0.385800	0.130500
H221	H22	0.256800	0.035500	0.504300
H231	H23	0.844200	0.391200	0.860100
H241	H24	0.537400	0.904100	0.015800
H251	H25	0.336500	0.888200	0.034500
H261	H26	0.534700	0.767200	0.984100
H271	H27	0.921500	0.674800	0.529100
H281	H28	0.120300	0.477600	0.822000
H291	H29	0.191100	0.710500	0.212900
H301	H30	0.242400	0.056400	0.694600
H311	H31	0.243500	0.560400	0.601400
H321	H32	0.727500	0.159800	0.283100
H331	H33	0.007000	0.018900	0.398800
H341	H34	0.698900	0.391600	0.497300
H351	H35	0.989000	0.563800	0.604600
H361	H36	0.999400	0.319000	0.310000
H371	H37	0.762100	0.912000	0.137000
H381	H38	0.524100	0.258900	0.192700
H391	H39	0.035700	0.275400	0.148600
H401	H40	0.011000	0.436200	0.395400
H411	H41	0.438700	0.940700	0.875100
H421	H42	0.596700	0.945100	0.737200
H431	H43	0.779900	0.015900	0.089800
H441	H44	0.082600	0.732500	0.442100
H451	H45	0.938900	0.722600	0.167900
H461	H46	0.755400	0.058400	0.443500
H471	H47	0.460400	0.892100	0.762900
H481	H48	0.743200	0.964500	0.495700
H491	H49	0.190200	0.922400	0.764700
H501	H50	0.904100	0.473600	0.772300
H511	H51	0.692900	0.202500	0.130300
H521	H52	0.964300	0.724600	0.851400
H531	H53	0.106800	0.256300	0.334400
H541	H54	0.516500	0.713800	0.644600
H551	H55	0.387200	0.516200	0.869600
H561	H56	0.671000	0.512700	0.535200
H571	H57	0.465300	0.232800	0.015900
H581	H58	0.272500	0.840200	0.716900
H591	H59	0.583400	0.344400	0.085100
H601	H60	0.962700	0.447300	0.642900
H611	H61	0.624200	0.564700	0.256000
H621	H62	0.219700	0.451800	0.642200
H631	H63	0.088100	0.374600	0.907200
H641	H64	0.809800	0.077600	0.235300
H651	H65	0.061100	0.277400	0.832100
H661	H66	0.817100	0.314300	0.519100
H671	H67	0.889700	0.273200	0.372300
H681	H68	0.144800	0.614200	0.869500
H691	H69	0.272600	0.505100	0.727100
H701	H70	0.427000	0.822400	0.062500
H711	H71	0.996600	0.146700	0.439000
H721	H72	0.301100	0.608400	0.502700
H731	H73	0.037200	0.528200	0.742600
H741	H74	0.962800	0.471800	0.257400
H751	H75	0.780300	0.548200	0.357800
H761	H76	0.220100	0.984100	0.910200
H771	H77	0.037300	0.552700	0.357100
H781	H78	0.795700	0.379400	0.033500
H791	H79	0.952600	0.553300	0.494100
H801	H80	0.375800	0.435300	0.744000
H811	H81	0.901800	0.176400	0.610400
H821	H82	0.993000	0.981100	0.601200
H831	H83	0.081800	0.986200	0.743900
H841	H84	0.608200	0.340900	0.321200
H851	H85	0.727400	0.494900	0.272900
H861	H86	0.237100	0.126500	0.061000
H871	H87	0.427700	0.342300	0.174900
H881	H88	0.307100	0.797500	0.869700
H891	H89	0.757600	0.943600	0.305400
H901	H90	0.910700	0.223100	0.183000
H911	H91	0.917400	0.267500	0.557900
H921	H92	0.391800	0.659100	0.678800
H931	H93	0.258100	0.928600	0.652100
H941	H94	0.893200	0.743700	0.665600
H951	H95	0.211000	0.532900	0.021200
H961	H96	0.572300	0.657700	0.825100
H971	H97	0.416600	0.655600	0.914900
H981	H98	0.426600	0.734700	0.116100
H991	H99	0.182900	0.685700	0.480900
H1001	H100	0.475900	0.741100	0.807300
H1011	H101	0.561300	0.059300	0.124900
H1021	H102	0.911900	0.625400	0.092800
H1031	H103	0.768100	0.009200	0.972200
H1041	H104	0.078500	0.325200	0.470900
H1051	H105	0.462600	0.095900	0.984200
H1061	H106	0.573400	0.265300	0.883900
H1071	H107	0.539600	0.107900	0.237100
H1081	H108	0.756500	0.439600	0.398600
H1091	H109	0.110300	0.726800	0.627700
H1101	H110	0.741900	0.071400	0.347900
H1111	H111	0.089300	0.776900	0.817000
H1121	H112	0.095900	0.526400	0.227700
H1131	H113	0.918200	0.013800	0.256100
H1141	H114	0.879700	0.522400	0.178000
H1151	H115	0.003400	0.853300	0.561000
H1161	H116	0.244600	0.941600	0.556500
C11	C1	0.328400	0.955200	0.896300
C21	C2	0.318000	0.782500	0.978900
C31	C3	0.559500	0.842800	0.681400
C41	C4	0.315300	0.725500	0.009600
C51	C5	0.470500	0.858700	0.736700
C61	C6	0.629700	0.364300	0.238800
C71	C7	0.655900	0.975900	0.999100
C81	C8	0.947700	0.282600	0.190200
C91	C9	0.834100	0.311300	0.488700
C101	C10	0.324100	0.574700	0.104500
C111	C11	0.350900	0.128900	0.813400
C121	C12	0.187200	0.537500	0.611200
C131	C13	0.334500	0.929600	0.975200
C141	C14	0.803900	0.007300	0.587700
C151	C15	0.222500	0.650400	0.764700
C161	C16	0.677700	0.250400	0.266400
C171	C17	0.745400	0.447200	0.503400
C181	C18	0.155000	0.622600	0.532200
C191	C19	0.665500	0.070400	0.024800
C201	C20	0.694600	0.250400	0.070800
C211	C21	0.041300	0.619500	0.102000
C221	C22	0.216900	0.922200	0.522700
C231	C23	0.885200	0.361500	0.857400
C241	C24	0.797300	0.611100	0.534800
C251	C25	0.980700	0.435300	0.236500
C261	C26	0.952400	0.776600	0.685900
C271	C27	0.615300	0.284800	0.914800
C281	C28	0.305400	0.749600	0.929200
C291	C29	0.456800	0.682000	0.793200
C301	C30	0.079500	0.367600	0.668600
C311	C31	0.180200	0.510400	0.841600
C321	C32	0.384700	0.715200	0.085200
C331	C33	0.019300	0.564700	0.763500
C341	C34	0.665200	0.463700	0.255900
C351	C35	0.322300	0.749600	0.733600
C361	C36	0.882700	0.207700	0.547700
C371	C37	0.926400	0.259300	0.802600
C381	C38	0.281500	0.039300	0.024700
C391	C39	0.529500	0.141300	0.263300
C401	C40	0.971000	0.646000	0.114500
C411	C41	0.942400	0.532800	0.780600
C421	C42	0.845000	0.377400	0.467800
C431	C43	0.861200	0.213100	0.423700
C441	C44	0.753500	0.522400	0.157900
C451	C45	0.172500	0.543200	0.509000
C461	C46	0.572100	0.281300	0.314600
C471	C47	0.130100	0.888800	0.745700
C481	C48	0.827500	0.456800	0.491000
C491	C49	0.980100	0.527000	0.365500
C501	C50	0.052300	0.717400	0.809800
C511	C51	0.680300	0.371700	0.928500
C521	C52	0.894200	0.543800	0.501500
C531	C53	0.865700	0.359400	0.422500
C541	C54	0.196100	0.992700	0.412300
C551	C55	0.057600	0.467200	0.219400
C561	C56	0.947600	0.109100	0.413200
C571	C57	0.427900	0.718700	0.685400
C581	C58	0.449900	0.108500	0.278700
C591	C59	0.355000	0.290100	0.063600
C601	C60	0.583600	0.815800	0.980500
C611	C61	0.331000	0.873400	0.000600
C621	C62	0.925300	0.342100	0.221800
C631	C63	0.645000	0.709900	0.936400
C641	C64	0.326200	0.897100	0.925200
C651	C65	0.394200	0.495700	0.754000
C661	C66	0.398600	0.972000	0.871900
C671	C67	0.979100	0.688100	0.828800
C681	C68	0.154000	0.767700	0.530900
C691	C69	0.202700	0.388900	0.465200
C701	C70	0.663200	0.465200	0.130500
C711	C71	0.134300	0.640600	0.577500
C721	C72	0.723100	0.944400	0.134000
C731	C73	0.416400	0.184200	0.019500
C741	C74	0.684700	0.274500	0.990400
C751	C75	0.048000	0.970500	0.611800
C761	C76	0.909500	0.189300	0.756300
C771	C77	0.825900	0.241700	0.259100
C781	C78	0.777500	0.349600	0.235300
C791	C79	0.819800	0.489600	0.158400
C801	C80	0.195300	0.019000	0.667900
C811	C81	0.047600	0.223400	0.314100
C821	C82	0.920500	0.632400	0.331400
C831	C83	0.406300	0.781100	0.716200
C841	C84	0.360800	0.127900	0.338700
C851	C85	0.873900	0.157200	0.576700
C861	C86	0.156600	0.688900	0.759900
C871	C87	0.671600	0.044800	0.103700
C881	C88	0.774700	0.024700	0.506100
C891	C89	0.196000	0.596500	0.870500
C901	C90	0.836100	0.168900	0.496900
C911	C91	0.649100	0.871100	0.186600
C921	C92	0.035100	0.539900	0.612300
C931	C93	0.589800	0.972400	0.154300
C941	C94	0.675900	0.425300	0.895500
C951	C95	0.485900	0.368400	0.197300
C961	C96	0.182800	0.935400	0.444300
C971	C97	0.732100	0.002900	0.106900
C981	C98	0.174100	0.758300	0.740900
C991	C99	0.078000	0.404800	0.187400
C1001	C100	0.863700	0.300700	0.811000
C1011	C101	0.783100	0.077800	0.477300
C1021	C102	0.833500	0.560700	0.829000
C1031	C103	0.922000	0.595200	0.812600
C1041	C104	0.985400	0.259200	0.300400
C1051	C105	0.869900	0.111200	0.254300
C1061	C106	0.614900	0.235500	0.944200
C1071	C107	0.138800	0.786900	0.576300
C1081	C108	0.718500	0.960700	0.975300
C1091	C109	0.090500	0.810700	0.243700
C1101	C110	0.319700	0.628300	0.071500
C1111	C111	0.118200	0.034900	0.651000
C1121	C112	0.225300	0.975300	0.493900
C1131	C113	0.165900	0.688700	0.511300
C1141	C114	0.895500	0.202900	0.270400
C1151	C115	0.304300	0.679200	0.752300
C1161	C116	0.883000	0.427100	0.398900
C1171	C117	0.512700	0.451900	0.219400
C1181	C118	0.585400	0.900500	0.000900
C1191	C119	0.932300	0.073500	0.266500
C1201	C120	0.770900	0.613100	0.191700
C1211	C121	0.669000	0.126600	0.999400
C1221	C122	0.117000	0.572900	0.601100
C1231	C123	0.370300	0.635700	0.761200
C1241	C124	0.130000	0.873100	0.602200
C1251	C125	0.501400	0.750500	0.666900
C1261	C126	0.797500	0.061700	0.358000
C1271	C127	0.272200	0.478300	0.474000
C1281	C128	0.173000	0.474700	0.633600
C1291	C129	0.988300	0.706200	0.161500
C1301	C130	0.450900	0.501300	0.210100
C1311	C131	0.910600	0.908900	0.688000
C1321	C132	0.647000	0.800100	0.956200
C1331	C133	0.812800	0.462500	0.388800
C1341	C134	0.029000	0.354000	0.885500
C1351	C135	0.873800	0.277800	0.402900
C1361	C136	0.549100	0.498700	0.789900
C1371	C137	0.727800	0.521700	0.526000
C1381	C138	0.104500	0.797100	0.729600
C1391	C139	0.276900	0.055600	0.866000
C1401	C140	0.353000	0.199900	0.043800
C1411	C141	0.639200	0.872100	0.661300
C1421	C142	0.073600	0.740700	0.197400
C1431	C143	0.202500	0.938300	0.642000
C1441	C144	0.312000	0.810900	0.903700
C1451	C145	0.089400	0.091100	0.312000
C1461	C146	0.605800	0.504300	0.246000
C1471	C147	0.117300	0.792300	0.452300
C1481	C148	0.284600	0.123500	0.045400
C1491	C149	0.644800	0.378400	0.102200
C1501	C150	0.114800	0.638500	0.142600
C1511	C151	0.414600	0.099500	0.999100
C1521	C152	0.014600	0.740800	0.699600
C1531	C153	0.975200	0.444800	0.945500
C1541	C154	0.742400	0.211700	0.270800
C1551	C155	0.804000	0.403500	0.129500
C1561	C156	0.875100	0.619200	0.523400
C1571	C157	0.843400	0.311100	0.240100
C1581	C158	0.011700	0.293800	0.838500
C1591	C159	0.827000	0.525300	0.366400
C1601	C160	0.888500	0.876700	0.322600
C1611	C161	0.817200	0.064600	0.555700
C1621	C162	0.067700	0.926500	0.733500
C1631	C163	0.881800	0.965100	0.349000
C1641	C164	0.846000	0.232300	0.469100
C1651	C165	0.344100	0.024100	0.000900
C1661	C166	0.550100	0.891500	0.721300
C1671	C167	0.166500	0.439300	0.171000
C1681	C168	0.653200	0.933400	0.157900
C1691	C169	0.246500	0.477600	0.842100
C1701	C170	0.248700	0.640100	0.996600
C1711	C171	0.804700	0.981000	0.332100
C1721	C172	0.964900	0.460100	0.387700
C1731	C173	0.514100	0.631600	0.802700
C1741	C174	0.410200	0.027600	0.845700
C1751	C175	0.229100	0.386900	0.808300
C1761	C176	0.024800	0.555200	0.054500
C1771	C177	0.111500	0.123300	0.677400
C1781	C178	0.126100	0.842800	0.423300
C1791	C179	0.981300	0.872400	0.704500
C1801	C180	0.870000	0.126900	0.397800
C1811	C181	0.713700	0.344700	0.099600
C1821	C182	0.440500	0.157200	0.318600
C1831	C183	0.346800	0.066600	0.842100
C1841	C184	0.355200	0.621600	0.897800
C1851	C185	0.593700	0.218900	0.283800
C1861	C186	0.052400	0.890900	0.586800
C1871	C187	0.126200	0.722200	0.597100
C1881	C188	0.695700	0.320800	0.247700
C1891	C189	0.251900	0.591100	0.027500
C1901	C190	0.018700	0.127600	0.295500
C1911	C191	0.091400	0.441700	0.644900
C1921	C192	0.257600	0.788300	0.729200
C1931	C193	0.682000	0.217500	0.021100
C1941	C194	0.688000	0.189100	0.096300
C1951	C195	0.124900	0.380800	0.476600
C1961	C196	0.774000	0.689600	0.555400
C1971	C197	0.385100	0.764500	0.055800
C1981	C198	0.958700	0.380500	0.898000
C1991	C199	0.751300	0.359900	0.003400
C2001	C200	0.267900	0.997100	0.893100
C2011	C201	0.286300	0.655300	0.900400
C2021	C202	0.543200	0.318000	0.206800
C2031	C203	0.601400	0.028000	0.128100
C2041	C204	0.136300	0.699300	0.189000
C2051	C205	0.748100	0.408900	0.972500
C2061	C206	0.498600	0.249500	0.333100
C2071	C207	0.334800	0.536300	0.744100
C2081	C208	0.074700	0.657900	0.778200
C2091	C209	0.105800	0.456200	0.498500
C2101	C210	0.226000	0.310400	0.444600
C2111	C211	0.020900	0.311900	0.171200
C2121	C212	0.715400	0.876500	0.954600
C2131	C213	0.163900	0.831100	0.503100
C2141	C214	0.487300	0.548100	0.780600
C2151	C215	0.254600	0.552800	0.496600
C2161	C216	0.673800	0.102900	0.074800
C2171	C217	0.336800	0.534800	0.869500
C2181	C218	0.952000	0.029500	0.388200
C2191	C219	0.908600	0.558300	0.355100
C2201	C220	0.019900	0.473000	0.634500
O11	O1	0.703200	0.947100	0.687400
O21	O2	0.632400	0.744200	0.261800
O31	O3	0.162000	0.171600	0.718200
O41	O4	0.286600	0.353900	0.811200
O51	O5	0.367600	0.255800	0.738200
O61	O6	0.639900	0.825300	0.622700
O71	O7	0.146900	0.342800	0.676600
O81	O8	0.367300	0.453800	0.183500
O91	O9	0.036200	0.808300	0.268300
O101	O10	0.010200	0.582700	0.014400
O111	O11	0.360100	0.174700	0.377300
O121	O12	0.004700	0.342800	0.679000
O131	O13	0.015400	0.473300	0.046700
O141	O14	0.047400	0.140400	0.658300
O151	O15	0.175900	0.235100	0.445000
O161	O16	0.707300	0.685500	0.569400
O171	O17	0.586200	0.642300	0.938900
O181	O18	0.710900	0.843200	0.190100
O191	O19	0.069400	0.010300	0.291700
O201	O20	0.289100	0.156800	0.809900
O211	O21	0.820500	0.053200	0.632050
O221	O22	0.582800	0.851200	0.205000
O231	O23	0.336700	0.569800	0.276400
O241	O24	0.853100	0.657200	0.323400
O251	O25	0.708300	0.704000	0.914300
O261	O26	0.989800	0.417300	0.985600
O271	O27	0.165300	0.146500	0.345100
O281	O28	0.834700	0.853500	0.654900
O291	O29	0.777800	0.925900	0.569050
O301	O30	0.824100	0.764900	0.555000
O311	O31	0.478000	0.586200	0.228900
O321	O32	0.851200	0.653300	0.223400
O331	O33	0.627900	0.276700	0.754300
O341	O34	0.522000	0.413800	0.771100
O351	O35	0.296800	0.052900	0.312600
O361	O36	0.984600	0.526700	0.953300
O371	O37	0.417200	0.148800	0.795000
O381	O38	0.413800	0.357700	0.061100
O391	O39	0.372100	0.723300	0.245700
O401	O40	0.952600	0.859600	0.341700
O411	O41	0.663300	0.430200	0.723600
O421	O42	0.148800	0.346700	0.776600
O431	O43	0.930600	0.989700	0.708300
O441	O44	0.835600	0.128800	0.741700
O451	O45	0.963800	0.191700	0.731700
O461	O46	0.360600	0.617000	0.148100
O471	O47	0.632700	0.546200	0.816500
O481	O48	0.995300	0.657200	0.321000
O491	O49	0.179500	0.946800	0.367950
O501	O50	0.713400	0.646100	0.188800
O511	O51	0.291700	0.296000	0.085700
O521	O52	0.639400	0.383000	0.851900
O531	O53	0.222200	0.074100	0.430950
O541	O54	0.284700	0.489900	0.083210
O551	O55	0.177800	0.378000	0.139800
O561	O56	0.838000	0.828400	0.281800
O571	O57	0.715300	0.510100	0.916790
O581	O58	0.784600	0.479500	0.813000
O591	O59	0.164400	0.871200	0.258300
O601	O60	0.292700	0.314500	0.430600
O611	O61	0.215400	0.520500	0.187000
O621	O62	0.822200	0.622000	0.860200
