data_GOYPER_freeONLY_PM
_symmetry_space_group_name_H-M	'P1'
_cell_length_a	8.824600
_cell_length_b	11.733600
_cell_length_c	8.325800
_cell_angle_alpha	90.000000
_cell_angle_beta	90.000000
_cell_angle_gamma	90.000000
_symmetry_Int_Tables_number 1

loop_
_symmetry_equiv_pos_as_xyz
'x,y,z'

loop_
_atom_site_label
_atom_site_type_symbol
_atom_site_fract_x
_atom_site_fract_y
_atom_site_fract_z
O11	O1	0.582950	0.322120	0.589160
O21	O2	0.238510	0.094090	0.387520
O31	O3	0.415200	0.316650	0.394950
C11	C1	0.469950	0.281630	0.523330
H11	H1	0.424300	0.217200	0.567500
O41	O4	0.917050	0.677880	0.589160
O51	O5	0.261490	0.905910	0.387520
O61	O6	0.084800	0.683350	0.394950
C21	C2	0.030050	0.718370	0.523330
H21	H2	0.075700	0.782800	0.567500
O71	O7	0.917050	0.822120	0.910840
O81	O8	0.261490	0.594090	0.112480
O91	O9	0.084800	0.816650	0.105050
C31	C3	0.030050	0.781630	0.976670
H31	H3	0.075700	0.717200	0.932500
O101	O10	0.582950	0.177880	0.910840
O111	O11	0.238510	0.405910	0.112480
O121	O12	0.415200	0.183350	0.105050
C41	C4	0.469950	0.218370	0.976670
H41	H4	0.424300	0.282800	0.932500
O131	O13	0.417050	0.677880	0.410840
O141	O14	0.761490	0.905910	0.612480
O151	O15	0.584800	0.683350	0.605050
C51	C5	0.530050	0.718370	0.476670
H51	H5	0.575700	0.782800	0.432500
O161	O16	0.082950	0.322120	0.410840
O171	O17	0.738510	0.094090	0.612480
O181	O18	0.915200	0.316650	0.605050
C61	C6	0.969950	0.281630	0.476670
H61	H6	0.924300	0.217200	0.432500
O191	O19	0.082950	0.177880	0.089160
O201	O20	0.738510	0.405910	0.887520
O211	O21	0.915200	0.183350	0.894950
C71	C7	0.969950	0.218370	0.023330
H71	H7	0.924300	0.282800	0.067500
O221	O22	0.417050	0.822120	0.089160
O231	O23	0.761490	0.594090	0.887520
O241	O24	0.584800	0.816650	0.894950
C81	C8	0.530050	0.781630	0.023330
H81	H8	0.575700	0.717200	0.067500
Fe11	Fe1	0.238460	0.250000	0.250000
Fe21	Fe2	0.261540	0.750000	0.250000
Fe31	Fe3	0.761540	0.750000	0.750000
Fe41	Fe4	0.738460	0.250000	0.750000
C91	C9	0.250000	0.000000	0.319100
H91	H9	0.250000	0.000000	0.207400
C101	C10	0.250000	0.500000	0.180900
H101	H10	0.250000	0.500000	0.292600
C111	C11	0.750000	0.000000	0.680900
H111	H11	0.750000	0.000000	0.792600
C121	C12	0.750000	0.500000	0.819100
H121	H12	0.750000	0.500000	0.707400
