data_GUBBAG_freeONLY_PM
_symmetry_space_group_name_H-M	'P1'
_cell_length_a	8.166000
_cell_length_b	22.154000
_cell_length_c	18.475000
_cell_angle_alpha	90.000000
_cell_angle_beta	98.700000
_cell_angle_gamma	90.000000
_symmetry_Int_Tables_number 1

loop_
_symmetry_equiv_pos_as_xyz
'x,y,z'

loop_
_atom_site_label
_atom_site_type_symbol
_atom_site_fract_x
_atom_site_fract_y
_atom_site_fract_z
Cd11	Cd1	0.559130	0.123500	0.168960
Cd21	Cd2	0.710470	0.959000	0.401470
Cd31	Cd3	0.848520	0.159780	0.757480
C11	C1	0.945400	0.992100	0.480200
C21	C2	0.538300	0.991400	0.479200
C31	C3	0.910000	0.112600	0.866100
N11	N1	0.943000	0.081500	0.911300
C41	C4	0.818000	0.047000	0.070400
N21	N2	0.757000	0.063600	0.091300
C51	C5	0.334500	0.083000	0.102200
N31	N3	0.228300	0.058700	0.069200
C61	C6	0.650300	0.069900	0.268200
N41	N4	0.686400	0.038800	0.317500
C71	C7	0.038800	0.119100	0.696900
N51	N5	0.875900	0.905200	0.332900
C81	C8	0.671000	0.206600	0.131000
N61	N6	0.728000	0.248100	0.111200
C91	C9	0.869900	0.259000	0.751400
N71	N7	0.394200	0.193100	0.240500
C101	C10	0.614600	0.116900	0.705900
N81	N8	0.488000	0.911000	0.322900
Cd41	Cd4	0.940870	0.623500	0.331040
Cd51	Cd5	0.789530	0.459000	0.098530
Cd61	Cd6	0.651480	0.659780	0.742520
C111	C11	0.554600	0.492100	0.019800
C121	C12	0.961700	0.491400	0.020800
C131	C13	0.590000	0.612600	0.633900
N91	N9	0.557000	0.581500	0.588700
C141	C14	0.682000	0.547000	0.429600
N101	N10	0.743000	0.563600	0.408700
C151	C15	0.165500	0.583000	0.397800
N111	N11	0.271700	0.558700	0.430800
C161	C16	0.849700	0.569900	0.231800
N121	N12	0.813600	0.538800	0.182500
C171	C17	0.461200	0.619100	0.803100
N131	N13	0.624100	0.405200	0.167100
C181	C18	0.829000	0.706600	0.369000
N141	N14	0.772000	0.748100	0.388800
C191	C19	0.630100	0.759000	0.748600
N151	N15	0.105800	0.693100	0.259500
C201	C20	0.885400	0.616900	0.794100
N161	N16	0.012000	0.411000	0.177100
Cd71	Cd7	0.440870	0.876500	0.831040
Cd81	Cd8	0.289530	0.041000	0.598530
Cd91	Cd9	0.151480	0.840220	0.242520
C211	C21	0.054600	0.007900	0.519800
C221	C22	0.461700	0.008600	0.520800
C231	C23	0.090000	0.887400	0.133900
N171	N17	0.057000	0.918500	0.088700
C241	C24	0.182000	0.953000	0.929600
N181	N18	0.243000	0.936400	0.908700
C251	C25	0.665500	0.917000	0.897800
N191	N19	0.771700	0.941300	0.930800
C261	C26	0.349700	0.930100	0.731800
N201	N20	0.313600	0.961200	0.682500
C271	C27	0.961200	0.880900	0.303100
N211	N21	0.124100	0.094800	0.667100
C281	C28	0.329000	0.793400	0.869000
N221	N22	0.272000	0.751900	0.888800
C291	C29	0.130100	0.741000	0.248600
N231	N23	0.605800	0.806900	0.759500
C301	C30	0.385400	0.883100	0.294100
N241	N24	0.512000	0.089000	0.677100
Cd101	Cd10	0.059130	0.376500	0.668960
Cd111	Cd11	0.210470	0.541000	0.901470
Cd121	Cd12	0.348520	0.340220	0.257480
C311	C31	0.445400	0.507900	0.980200
C321	C32	0.038300	0.508600	0.979200
C331	C33	0.410000	0.387400	0.366100
N251	N25	0.443000	0.418500	0.411300
C341	C34	0.318000	0.453000	0.570400
N261	N26	0.257000	0.436400	0.591300
C351	C35	0.834500	0.417000	0.602200
N271	N27	0.728300	0.441300	0.569200
C361	C36	0.150300	0.430100	0.768200
N281	N28	0.186400	0.461200	0.817500
C371	C37	0.538800	0.380900	0.196900
N291	N29	0.375900	0.594800	0.832900
C381	C38	0.171000	0.293400	0.631000
N301	N30	0.228000	0.251900	0.611200
C391	C39	0.369900	0.241000	0.251400
N311	N31	0.894200	0.306900	0.740500
C401	C40	0.114600	0.383100	0.205900
N321	N32	0.988000	0.589000	0.822900
Cd131	Cd13	0.000000	0.000000	0.000000
Cd141	Cd14	0.500000	0.500000	0.500000
