data_GUBSED_freeONLY_PM
_symmetry_space_group_name_H-M	'P1'
_cell_length_a	15.565300
_cell_length_b	15.385600
_cell_length_c	14.836400
_cell_angle_alpha	90.000000
_cell_angle_beta	109.725000
_cell_angle_gamma	90.000000
_symmetry_Int_Tables_number 1

loop_
_symmetry_equiv_pos_as_xyz
'x,y,z'

loop_
_atom_site_label
_atom_site_type_symbol
_atom_site_fract_x
_atom_site_fract_y
_atom_site_fract_z
Cd11	Cd1	0.622290	0.850350	0.743460
Cd21	Cd2	0.822420	0.678230	0.766840
N11	N1	0.471400	0.254500	0.351800
N21	N2	0.727900	0.943100	0.846500
N31	N3	0.739300	0.575600	0.661500
N41	N4	0.819400	0.595200	0.904200
N51	N5	0.065900	0.228600	0.137900
N61	N6	0.986500	0.621600	0.730200
C11	C1	0.485600	0.330600	0.318100
H11	H1	0.457300	0.341800	0.253200
C21	C2	0.540600	0.394400	0.374800
H21	H2	0.547800	0.447300	0.348000
C31	C3	0.584900	0.379200	0.471800
C41	C4	0.571500	0.298600	0.504900
H31	H3	0.601100	0.284200	0.568700
C51	C5	0.514500	0.238900	0.444300
H41	H4	0.505800	0.185400	0.469100
C61	C6	0.791000	0.917500	0.927900
H51	H5	0.791000	0.859600	0.945800
C71	C7	0.855900	0.971800	0.986900
H61	H6	0.899400	0.949800	0.041800
C81	C8	0.856900	0.059000	0.964800
C91	C9	0.790200	0.086800	0.880900
H71	H7	0.787100	0.144900	0.863200
C101	C10	0.728700	0.028000	0.824200
H81	H8	0.685600	0.047900	0.767800
C111	C11	0.024900	0.242000	0.043800
H91	H9	0.043500	0.289200	0.015700
C121	C12	0.956500	0.189200	0.986700
H101	H10	0.930100	0.201400	0.921800
C131	C13	0.927300	0.118800	0.025300
C141	C14	0.969000	0.105400	0.123300
H111	H11	0.951200	0.059100	0.153200
C151	C15	0.036700	0.161000	0.175700
H121	H12	0.063500	0.150900	0.241100
C161	C16	0.672100	0.596600	0.580600
H131	H13	0.658900	0.654900	0.566200
C171	C17	0.621500	0.534300	0.517700
H141	H14	0.574900	0.551200	0.462500
C181	C18	0.639900	0.446700	0.536600
C191	C19	0.711700	0.425900	0.619000
H151	H15	0.728200	0.368100	0.633400
C201	C20	0.758300	0.490900	0.679400
H161	H16	0.805100	0.475500	0.735200
C211	C21	0.704000	0.702400	0.904900
C221	C22	0.771100	0.630900	0.955000
C231	C23	0.778400	0.603300	0.046600
C241	C24	0.834200	0.532100	0.082700
H171	H17	0.840100	0.510600	0.143000
C251	C25	0.880900	0.493400	0.029400
H181	H18	0.917800	0.445200	0.052700
C261	C26	0.871900	0.527400	0.941300
H191	H19	0.904200	0.501600	0.905900
C271	C27	0.732500	0.645600	0.110700
O11	O1	0.712400	0.734200	0.828400
O21	O2	0.645800	0.723600	0.939700
O31	O3	0.526300	0.843000	0.833500
H201	H20	0.506500	0.786800	0.840500
H211	H21	0.473100	0.874900	0.806700
O41	O4	0.511600	0.962100	0.678400
H221	H22	0.536500	0.014200	0.693000
H231	H23	0.466100	0.958500	0.701300
O51	O5	0.668800	0.602200	0.122800
O61	O6	0.764600	0.713900	0.151500
O71	O7	0.938400	0.680200	0.679100
O81	O8	0.956400	0.582100	0.786400
O91	O9	0.060600	0.601900	0.724600
Cd31	Cd3	0.377710	0.350350	0.756540
Cd41	Cd4	0.177580	0.178230	0.733160
N71	N7	0.528600	0.754500	0.148200
N81	N8	0.272100	0.443100	0.653500
N91	N9	0.260700	0.075600	0.838500
N101	N10	0.180600	0.095200	0.595800
N111	N11	0.934100	0.728600	0.362100
N121	N12	0.013500	0.121600	0.769800
C281	C28	0.514400	0.830600	0.181900
H241	H24	0.542700	0.841800	0.246800
C291	C29	0.459400	0.894400	0.125200
H251	H25	0.452200	0.947300	0.152000
C301	C30	0.415100	0.879200	0.028200
C311	C31	0.428500	0.798600	0.995100
H261	H26	0.398900	0.784200	0.931300
C321	C32	0.485500	0.738900	0.055700
H271	H27	0.494200	0.685400	0.030900
C331	C33	0.209000	0.417500	0.572100
H281	H28	0.209000	0.359600	0.554200
C341	C34	0.144100	0.471800	0.513100
H291	H29	0.100600	0.449800	0.458200
C351	C35	0.143100	0.559000	0.535200
C361	C36	0.209800	0.586800	0.619100
H301	H30	0.212900	0.644900	0.636800
C371	C37	0.271300	0.528000	0.675800
H311	H31	0.314400	0.547900	0.732200
C381	C38	0.975100	0.742000	0.456200
H321	H32	0.956500	0.789200	0.484300
C391	C39	0.043500	0.689200	0.513300
H331	H33	0.069900	0.701400	0.578200
C401	C40	0.072700	0.618800	0.474700
C411	C41	0.031000	0.605400	0.376700
H341	H34	0.048800	0.559100	0.346800
C421	C42	0.963300	0.661000	0.324300
H351	H35	0.936500	0.650900	0.258900
C431	C43	0.327900	0.096600	0.919400
H361	H36	0.341100	0.154900	0.933800
C441	C44	0.378500	0.034300	0.982300
H371	H37	0.425100	0.051200	0.037500
C451	C45	0.360100	0.946700	0.963400
C461	C46	0.288300	0.925900	0.881000
H381	H38	0.271800	0.868100	0.866600
C471	C47	0.241700	0.990900	0.820600
H391	H39	0.194900	0.975500	0.764800
C481	C48	0.296000	0.202400	0.595100
C491	C49	0.228900	0.130900	0.545000
C501	C50	0.221600	0.103300	0.453400
C511	C51	0.165800	0.032100	0.417300
H401	H40	0.159900	0.010600	0.357000
C521	C52	0.119100	0.993400	0.470600
H411	H41	0.082200	0.945200	0.447300
C531	C53	0.128100	0.027400	0.558700
H421	H42	0.095800	0.001600	0.594100
C541	C54	0.267500	0.145600	0.389300
O101	O10	0.287600	0.234200	0.671600
O111	O11	0.354200	0.223600	0.560300
O121	O12	0.473700	0.343000	0.666500
H431	H43	0.493500	0.286800	0.659500
H441	H44	0.526900	0.374900	0.693300
O131	O13	0.488400	0.462100	0.821600
H451	H45	0.463500	0.514200	0.807000
H461	H46	0.533900	0.458500	0.798700
O141	O14	0.331200	0.102200	0.377200
O151	O15	0.235400	0.213900	0.348500
O161	O16	0.061600	0.180200	0.820900
O171	O17	0.043600	0.082100	0.713600
O181	O18	0.939400	0.101900	0.775400
Cd51	Cd5	0.377710	0.149650	0.256540
Cd61	Cd6	0.177580	0.321770	0.233160
N131	N13	0.528600	0.745500	0.648200
N141	N14	0.272100	0.056900	0.153500
N151	N15	0.260700	0.424400	0.338500
N161	N16	0.180600	0.404800	0.095800
N171	N17	0.934100	0.771400	0.862100
N181	N18	0.013500	0.378400	0.269800
C551	C55	0.514400	0.669400	0.681900
H471	H47	0.542700	0.658200	0.746800
C561	C56	0.459400	0.605600	0.625200
H481	H48	0.452200	0.552700	0.652000
C571	C57	0.415100	0.620800	0.528200
C581	C58	0.428500	0.701400	0.495100
H491	H49	0.398900	0.715800	0.431300
C591	C59	0.485500	0.761100	0.555700
H501	H50	0.494200	0.814600	0.530900
C601	C60	0.209000	0.082500	0.072100
H511	H51	0.209000	0.140400	0.054200
C611	C61	0.144100	0.028200	0.013100
H521	H52	0.100600	0.050200	0.958200
C621	C62	0.143100	0.941000	0.035200
C631	C63	0.209800	0.913200	0.119100
H531	H53	0.212900	0.855100	0.136800
C641	C64	0.271300	0.972000	0.175800
H541	H54	0.314400	0.952100	0.232200
C651	C65	0.975100	0.758000	0.956200
H551	H55	0.956500	0.710800	0.984300
C661	C66	0.043500	0.810800	0.013300
H561	H56	0.069900	0.798600	0.078200
C671	C67	0.072700	0.881200	0.974700
C681	C68	0.031000	0.894600	0.876700
H571	H57	0.048800	0.940900	0.846800
C691	C69	0.963300	0.839000	0.824300
H581	H58	0.936500	0.849100	0.758900
C701	C70	0.327900	0.403400	0.419400
H591	H59	0.341100	0.345100	0.433800
C711	C71	0.378500	0.465700	0.482300
H601	H60	0.425100	0.448800	0.537500
C721	C72	0.360100	0.553300	0.463400
C731	C73	0.288300	0.574100	0.381000
H611	H61	0.271800	0.631900	0.366600
C741	C74	0.241700	0.509100	0.320600
H621	H62	0.194900	0.524500	0.264800
C751	C75	0.296000	0.297600	0.095100
C761	C76	0.228900	0.369100	0.045000
C771	C77	0.221600	0.396700	0.953400
C781	C78	0.165800	0.467900	0.917300
H631	H63	0.159900	0.489400	0.857000
C791	C79	0.119100	0.506600	0.970600
H641	H64	0.082200	0.554800	0.947300
C801	C80	0.128100	0.472600	0.058700
H651	H65	0.095800	0.498400	0.094100
C811	C81	0.267500	0.354400	0.889300
O191	O19	0.287600	0.265800	0.171600
O201	O20	0.354200	0.276400	0.060300
O211	O21	0.473700	0.157000	0.166500
H661	H66	0.493500	0.213200	0.159500
H671	H67	0.526900	0.125100	0.193300
O221	O22	0.488400	0.037900	0.321600
H681	H68	0.463500	0.985800	0.307000
H691	H69	0.533900	0.041500	0.298700
O231	O23	0.331200	0.397800	0.877200
O241	O24	0.235400	0.286100	0.848500
O251	O25	0.061600	0.319800	0.320900
O261	O26	0.043600	0.417900	0.213600
O271	O27	0.939400	0.398100	0.275400
Cd71	Cd7	0.622290	0.649650	0.243460
Cd81	Cd8	0.822420	0.821770	0.266840
N191	N19	0.471400	0.245500	0.851800
N201	N20	0.727900	0.556900	0.346500
N211	N21	0.739300	0.924400	0.161500
N221	N22	0.819400	0.904800	0.404200
N231	N23	0.065900	0.271400	0.637900
N241	N24	0.986500	0.878400	0.230200
C821	C82	0.485600	0.169400	0.818100
H701	H70	0.457300	0.158200	0.753200
C831	C83	0.540600	0.105600	0.874800
H711	H71	0.547800	0.052700	0.848000
C841	C84	0.584900	0.120800	0.971800
C851	C85	0.571500	0.201400	0.004900
H721	H72	0.601100	0.215800	0.068700
C861	C86	0.514500	0.261100	0.944300
H731	H73	0.505800	0.314600	0.969100
C871	C87	0.791000	0.582500	0.427900
H741	H74	0.791000	0.640400	0.445800
C881	C88	0.855900	0.528200	0.486900
H751	H75	0.899400	0.550200	0.541800
C891	C89	0.856900	0.441000	0.464800
C901	C90	0.790200	0.413200	0.380900
H761	H76	0.787100	0.355100	0.363200
C911	C91	0.728700	0.472000	0.324200
H771	H77	0.685600	0.452100	0.267800
C921	C92	0.024900	0.258000	0.543800
H781	H78	0.043500	0.210800	0.515700
C931	C93	0.956500	0.310800	0.486700
H791	H79	0.930100	0.298600	0.421800
C941	C94	0.927300	0.381200	0.525300
C951	C95	0.969000	0.394600	0.623300
H801	H80	0.951200	0.440900	0.653200
C961	C96	0.036700	0.339000	0.675700
H811	H81	0.063500	0.349100	0.741100
C971	C97	0.672100	0.903400	0.080600
H821	H82	0.658900	0.845100	0.066200
C981	C98	0.621500	0.965700	0.017700
H831	H83	0.574900	0.948800	0.962500
C991	C99	0.639900	0.053300	0.036600
C1001	C100	0.711700	0.074100	0.119000
H841	H84	0.728200	0.131900	0.133400
C1011	C101	0.758300	0.009100	0.179400
H851	H85	0.805100	0.024500	0.235200
C1021	C102	0.704000	0.797600	0.404900
C1031	C103	0.771100	0.869100	0.455000
C1041	C104	0.778400	0.896700	0.546600
C1051	C105	0.834200	0.967900	0.582700
H861	H86	0.840100	0.989400	0.643000
C1061	C106	0.880900	0.006600	0.529400
H871	H87	0.917800	0.054800	0.552700
C1071	C107	0.871900	0.972600	0.441300
H881	H88	0.904200	0.998400	0.405900
C1081	C108	0.732500	0.854400	0.610700
O281	O28	0.712400	0.765800	0.328400
O291	O29	0.645800	0.776400	0.439700
O301	O30	0.526300	0.657000	0.333500
H891	H89	0.506500	0.713200	0.340500
H901	H90	0.473100	0.625100	0.306700
O311	O31	0.511600	0.537900	0.178400
H911	H91	0.536500	0.485800	0.193000
H921	H92	0.466100	0.541500	0.201300
O321	O32	0.668800	0.897800	0.622800
O331	O33	0.764600	0.786100	0.651500
O341	O34	0.938400	0.819800	0.179100
O351	O35	0.956400	0.917900	0.286400
O361	O36	0.060600	0.898100	0.224600
