data_GUCHUJ_freeONLY_PM
_symmetry_space_group_name_H-M	'P1'
_cell_length_a	7.998500
_cell_length_b	9.729600
_cell_length_c	10.850600
_cell_angle_alpha	84.315000
_cell_angle_beta	78.168000
_cell_angle_gamma	75.064000
_symmetry_Int_Tables_number 1

loop_
_symmetry_equiv_pos_as_xyz
'x,y,z'

loop_
_atom_site_label
_atom_site_type_symbol
_atom_site_fract_x
_atom_site_fract_y
_atom_site_fract_z
Cu11	Cu1	0.414700	0.687000	0.824000
Cu21	Cu2	0.161300	0.546100	0.874900
Cu31	Cu3	0.804000	0.128200	0.345400
O11	O1	0.421700	0.671000	0.643600
O21	O2	0.204500	0.551500	0.690100
O31	O3	0.555500	0.360800	0.549600
O41	O4	0.645600	0.307300	0.346000
O51	O5	0.151400	0.564000	0.055900
O61	O6	0.372700	0.675000	0.009300
O71	O7	0.970300	0.951600	0.342300
O81	O8	0.024900	0.880300	0.146500
O91	O9	0.747600	0.107800	0.180100
H11	H1	0.634500	0.106400	0.186700
H21	H2	0.813800	0.026700	0.146200
O101	O10	0.816300	0.125200	0.524200
H31	H3	0.827500	0.037300	0.560000
H41	H4	0.719200	0.181100	0.566700
O111	O11	0.756400	0.859200	0.652600
O121	O12	0.572600	0.829800	0.833100
O131	O13	0.990300	0.730900	0.868200
O141	O14	0.206400	0.849700	0.825700
O151	O15	0.379500	0.388000	0.875800
O161	O16	0.592600	0.501400	0.821800
O171	O17	0.007500	0.402900	0.868500
O181	O18	0.810700	0.394300	0.043900
C11	C1	0.411100	0.503200	0.393300
C21	C2	0.374700	0.509000	0.267500
H51	H5	0.428000	0.428100	0.218400
C31	C3	0.267100	0.624500	0.213600
C41	C4	0.162800	0.730200	0.304400
C51	C5	0.181700	0.718400	0.427100
H61	H6	0.106600	0.786300	0.484000
C61	C6	0.307800	0.609700	0.470500
C71	C7	0.317000	0.609300	0.613900
C81	C8	0.545000	0.379400	0.437200
C91	C9	0.260000	0.627600	0.085100
C101	C10	0.041700	0.860100	0.260000
C111	C11	0.835800	0.238300	0.889800
C121	C12	0.951700	0.105900	0.879700
H71	H7	0.067700	0.095600	0.893700
C131	C13	0.904800	0.986200	0.849600
C141	C14	0.747900	0.998800	0.820300
C151	C15	0.627000	0.135300	0.819300
H81	H8	0.518900	0.144200	0.792100
C161	C16	0.661600	0.252500	0.855900
C171	C17	0.689600	0.880700	0.766300
C181	C18	0.042800	0.839200	0.849900
C191	C19	0.536600	0.388000	0.853500
C201	C20	0.885400	0.356100	0.938000
