data_GUCJAQ_freeONLY_PM
_symmetry_space_group_name_H-M	'P1'
_cell_length_a	22.882300
_cell_length_b	18.447400
_cell_length_c	9.682300
_cell_angle_alpha	90.000000
_cell_angle_beta	95.477000
_cell_angle_gamma	90.000000
_symmetry_Int_Tables_number 1

loop_
_symmetry_equiv_pos_as_xyz
'x,y,z'

loop_
_atom_site_label
_atom_site_type_symbol
_atom_site_fract_x
_atom_site_fract_y
_atom_site_fract_z
Zn11	Zn1	0.084580	0.033450	0.018540
O11	O1	0.041950	0.042900	0.181540
O21	O2	0.966960	0.943310	0.143270
O31	O3	0.135100	0.118510	0.051980
O41	O4	0.186160	0.076220	0.886100
O51	O5	0.277640	0.068130	0.130000
O61	O6	0.350220	0.094850	0.001400
C11	C1	0.190090	0.255280	0.970400
C21	C2	0.215210	0.187580	0.992700
C31	C3	0.275960	0.182550	0.024500
C41	C4	0.176750	0.121000	0.974300
C51	C5	0.305010	0.110270	0.050400
C61	C6	0.149900	0.913460	0.899700
C71	C7	0.167110	0.843810	0.878600
C81	C8	0.154650	0.789210	0.969600
C91	C9	0.126010	0.809930	0.083000
C101	C10	0.109880	0.881370	0.098600
C111	C11	0.170340	0.712500	0.947800
C121	C12	0.205600	0.691340	0.847800
C131	C13	0.218110	0.619230	0.827500
C141	C14	0.165000	0.587000	0.001100
C151	C15	0.150400	0.657890	0.027100
N11	N1	0.120380	0.932880	0.007500
N21	N2	0.197590	0.567770	0.902700
H11	H1	0.145300	0.258200	0.946900
H21	H2	0.159700	0.950000	0.835600
H31	H3	0.188000	0.832600	0.799900
H41	H4	0.117200	0.774400	0.150100
H51	H5	0.090000	0.894900	0.179200
H61	H6	0.222300	0.727900	0.790600
H71	H7	0.242700	0.606200	0.754900
H81	H8	0.151800	0.548600	0.061600
H91	H9	0.127700	0.669600	0.104800
H101	H10	0.205700	0.519900	0.887800
Zn21	Zn2	0.584580	0.533450	0.018540
O71	O7	0.541950	0.542900	0.181540
O81	O8	0.466960	0.443310	0.143270
O91	O9	0.635100	0.618510	0.051980
O101	O10	0.686160	0.576220	0.886100
O111	O11	0.777640	0.568130	0.130000
O121	O12	0.850220	0.594850	0.001400
C161	C16	0.690090	0.755280	0.970400
C171	C17	0.715210	0.687580	0.992700
C181	C18	0.775960	0.682550	0.024500
C191	C19	0.676750	0.621000	0.974300
C201	C20	0.805010	0.610270	0.050400
C211	C21	0.649900	0.413460	0.899700
C221	C22	0.667110	0.343810	0.878600
C231	C23	0.654650	0.289210	0.969600
C241	C24	0.626010	0.309930	0.083000
C251	C25	0.609880	0.381370	0.098600
C261	C26	0.670340	0.212500	0.947800
C271	C27	0.705600	0.191340	0.847800
C281	C28	0.718110	0.119230	0.827500
C291	C29	0.665000	0.087000	0.001100
C301	C30	0.650400	0.157890	0.027100
N31	N3	0.620380	0.432880	0.007500
N41	N4	0.697590	0.067770	0.902700
H111	H11	0.645300	0.758200	0.946900
H121	H12	0.659700	0.450000	0.835600
H131	H13	0.688000	0.332600	0.799900
H141	H14	0.617200	0.274400	0.150100
H151	H15	0.590000	0.394900	0.179200
H161	H16	0.722300	0.227900	0.790600
H171	H17	0.742700	0.106200	0.754900
H181	H18	0.651800	0.048600	0.061600
H191	H19	0.627700	0.169600	0.104800
H201	H20	0.705700	0.019900	0.887800
Zn31	Zn3	0.915420	0.033450	0.481460
O131	O13	0.958050	0.042900	0.318460
O141	O14	0.033040	0.943310	0.356730
O151	O15	0.864900	0.118510	0.448020
O161	O16	0.813840	0.076220	0.613900
O171	O17	0.722360	0.068130	0.370000
O181	O18	0.649780	0.094850	0.498600
C311	C31	0.809910	0.255280	0.529600
C321	C32	0.784790	0.187580	0.507300
C331	C33	0.724040	0.182550	0.475500
C341	C34	0.823250	0.121000	0.525700
C351	C35	0.694990	0.110270	0.449600
C361	C36	0.850100	0.913460	0.600300
C371	C37	0.832890	0.843810	0.621400
C381	C38	0.845350	0.789210	0.530400
C391	C39	0.873990	0.809930	0.417000
C401	C40	0.890120	0.881370	0.401400
C411	C41	0.829660	0.712500	0.552200
C421	C42	0.794400	0.691340	0.652200
C431	C43	0.781890	0.619230	0.672500
C441	C44	0.835000	0.587000	0.498900
C451	C45	0.849600	0.657890	0.472900
N51	N5	0.879620	0.932880	0.492500
N61	N6	0.802410	0.567770	0.597300
H211	H21	0.854700	0.258200	0.553100
H221	H22	0.840300	0.950000	0.664400
H231	H23	0.812000	0.832600	0.700100
H241	H24	0.882800	0.774400	0.349900
H251	H25	0.910000	0.894900	0.320800
H261	H26	0.777700	0.727900	0.709400
H271	H27	0.757300	0.606200	0.745100
H281	H28	0.848200	0.548600	0.438400
H291	H29	0.872300	0.669600	0.395200
H301	H30	0.794300	0.519900	0.612200
Zn41	Zn4	0.415420	0.533450	0.481460
O191	O19	0.458050	0.542900	0.318460
O201	O20	0.533040	0.443310	0.356730
O211	O21	0.364900	0.618510	0.448020
O221	O22	0.313840	0.576220	0.613900
O231	O23	0.222360	0.568130	0.370000
O241	O24	0.149780	0.594850	0.498600
C461	C46	0.309910	0.755280	0.529600
C471	C47	0.284790	0.687580	0.507300
C481	C48	0.224040	0.682550	0.475500
C491	C49	0.323250	0.621000	0.525700
C501	C50	0.194990	0.610270	0.449600
C511	C51	0.350100	0.413460	0.600300
C521	C52	0.332890	0.343810	0.621400
C531	C53	0.345350	0.289210	0.530400
C541	C54	0.373990	0.309930	0.417000
C551	C55	0.390120	0.381370	0.401400
C561	C56	0.329660	0.212500	0.552200
C571	C57	0.294400	0.191340	0.652200
C581	C58	0.281890	0.119230	0.672500
C591	C59	0.335000	0.087000	0.498900
C601	C60	0.349600	0.157890	0.472900
N71	N7	0.379620	0.432880	0.492500
N81	N8	0.302410	0.067770	0.597300
H311	H31	0.354700	0.758200	0.553100
H321	H32	0.340300	0.450000	0.664400
H331	H33	0.312000	0.332600	0.700100
H341	H34	0.382800	0.274400	0.349900
H351	H35	0.410000	0.394900	0.320800
H361	H36	0.277700	0.227900	0.709400
H371	H37	0.257300	0.106200	0.745100
H381	H38	0.348200	0.048600	0.438400
H391	H39	0.372300	0.169600	0.395200
H401	H40	0.294300	0.019900	0.612200
Zn51	Zn5	0.915420	0.966550	0.981460
O251	O25	0.958050	0.957100	0.818460
O261	O26	0.033040	0.056690	0.856730
O271	O27	0.864900	0.881490	0.948020
O281	O28	0.813840	0.923780	0.113900
O291	O29	0.722360	0.931870	0.870000
O301	O30	0.649780	0.905150	0.998600
C611	C61	0.809910	0.744720	0.029600
C621	C62	0.784790	0.812420	0.007300
C631	C63	0.724040	0.817450	0.975500
C641	C64	0.823250	0.879000	0.025700
C651	C65	0.694990	0.889730	0.949600
C661	C66	0.850100	0.086540	0.100300
C671	C67	0.832890	0.156190	0.121400
C681	C68	0.845350	0.210790	0.030400
C691	C69	0.873990	0.190070	0.917000
C701	C70	0.890120	0.118630	0.901400
C711	C71	0.829660	0.287500	0.052200
C721	C72	0.794400	0.308660	0.152200
C731	C73	0.781890	0.380770	0.172500
C741	C74	0.835000	0.413000	0.998900
C751	C75	0.849600	0.342110	0.972900
N91	N9	0.879620	0.067120	0.992500
N101	N10	0.802410	0.432230	0.097300
H411	H41	0.854700	0.741800	0.053100
H421	H42	0.840300	0.050000	0.164400
H431	H43	0.812000	0.167400	0.200100
H441	H44	0.882800	0.225600	0.849900
H451	H45	0.910000	0.105100	0.820800
H461	H46	0.777700	0.272100	0.209400
H471	H47	0.757300	0.393800	0.245100
H481	H48	0.848200	0.451400	0.938400
H491	H49	0.872300	0.330400	0.895200
H501	H50	0.794300	0.480100	0.112200
Zn61	Zn6	0.415420	0.466550	0.981460
O311	O31	0.458050	0.457100	0.818460
O321	O32	0.533040	0.556690	0.856730
O331	O33	0.364900	0.381490	0.948020
O341	O34	0.313840	0.423780	0.113900
O351	O35	0.222360	0.431870	0.870000
O361	O36	0.149780	0.405150	0.998600
C761	C76	0.309910	0.244720	0.029600
C771	C77	0.284790	0.312420	0.007300
C781	C78	0.224040	0.317450	0.975500
C791	C79	0.323250	0.379000	0.025700
C801	C80	0.194990	0.389730	0.949600
C811	C81	0.350100	0.586540	0.100300
C821	C82	0.332890	0.656190	0.121400
C831	C83	0.345350	0.710790	0.030400
C841	C84	0.373990	0.690070	0.917000
C851	C85	0.390120	0.618630	0.901400
C861	C86	0.329660	0.787500	0.052200
C871	C87	0.294400	0.808660	0.152200
C881	C88	0.281890	0.880770	0.172500
C891	C89	0.335000	0.913000	0.998900
C901	C90	0.349600	0.842110	0.972900
N111	N11	0.379620	0.567120	0.992500
N121	N12	0.302410	0.932230	0.097300
H511	H51	0.354700	0.241800	0.053100
H521	H52	0.340300	0.550000	0.164400
H531	H53	0.312000	0.667400	0.200100
H541	H54	0.382800	0.725600	0.849900
H551	H55	0.410000	0.605100	0.820800
H561	H56	0.277700	0.772100	0.209400
H571	H57	0.257300	0.893800	0.245100
H581	H58	0.348200	0.951400	0.938400
H591	H59	0.372300	0.830400	0.895200
H601	H60	0.294300	0.980100	0.112200
Zn71	Zn7	0.084580	0.966550	0.518540
O371	O37	0.041950	0.957100	0.681540
O381	O38	0.966960	0.056690	0.643270
O391	O39	0.135100	0.881490	0.551980
O401	O40	0.186160	0.923780	0.386100
O411	O41	0.277640	0.931870	0.630000
O421	O42	0.350220	0.905150	0.501400
C911	C91	0.190090	0.744720	0.470400
C921	C92	0.215210	0.812420	0.492700
C931	C93	0.275960	0.817450	0.524500
C941	C94	0.176750	0.879000	0.474300
C951	C95	0.305010	0.889730	0.550400
C961	C96	0.149900	0.086540	0.399700
C971	C97	0.167110	0.156190	0.378600
C981	C98	0.154650	0.210790	0.469600
C991	C99	0.126010	0.190070	0.583000
C1001	C100	0.109880	0.118630	0.598600
C1011	C101	0.170340	0.287500	0.447800
C1021	C102	0.205600	0.308660	0.347800
C1031	C103	0.218110	0.380770	0.327500
C1041	C104	0.165000	0.413000	0.501100
C1051	C105	0.150400	0.342110	0.527100
N131	N13	0.120380	0.067120	0.507500
N141	N14	0.197590	0.432230	0.402700
H611	H61	0.145300	0.741800	0.446900
H621	H62	0.159700	0.050000	0.335600
H631	H63	0.188000	0.167400	0.299900
H641	H64	0.117200	0.225600	0.650100
H651	H65	0.090000	0.105100	0.679200
H661	H66	0.222300	0.272100	0.290600
H671	H67	0.242700	0.393800	0.254900
H681	H68	0.151800	0.451400	0.561600
H691	H69	0.127700	0.330400	0.604800
H701	H70	0.205700	0.480100	0.387800
Zn81	Zn8	0.584580	0.466550	0.518540
O431	O43	0.541950	0.457100	0.681540
O441	O44	0.466960	0.556690	0.643270
O451	O45	0.635100	0.381490	0.551980
O461	O46	0.686160	0.423780	0.386100
O471	O47	0.777640	0.431870	0.630000
O481	O48	0.850220	0.405150	0.501400
C1061	C106	0.690090	0.244720	0.470400
C1071	C107	0.715210	0.312420	0.492700
C1081	C108	0.775960	0.317450	0.524500
C1091	C109	0.676750	0.379000	0.474300
C1101	C110	0.805010	0.389730	0.550400
C1111	C111	0.649900	0.586540	0.399700
C1121	C112	0.667110	0.656190	0.378600
C1131	C113	0.654650	0.710790	0.469600
C1141	C114	0.626010	0.690070	0.583000
C1151	C115	0.609880	0.618630	0.598600
C1161	C116	0.670340	0.787500	0.447800
C1171	C117	0.705600	0.808660	0.347800
C1181	C118	0.718110	0.880770	0.327500
C1191	C119	0.665000	0.913000	0.501100
C1201	C120	0.650400	0.842110	0.527100
N151	N15	0.620380	0.567120	0.507500
N161	N16	0.697590	0.932230	0.402700
H711	H71	0.645300	0.241800	0.446900
H721	H72	0.659700	0.550000	0.335600
H731	H73	0.688000	0.667400	0.299900
H741	H74	0.617200	0.725600	0.650100
H751	H75	0.590000	0.605100	0.679200
H761	H76	0.722300	0.772100	0.290600
H771	H77	0.742700	0.893800	0.254900
H781	H78	0.651800	0.951400	0.561600
H791	H79	0.627700	0.830400	0.604800
H801	H80	0.705700	0.980100	0.387800
P11	P1	0.000000	0.992430	0.250000
P21	P2	0.500000	0.492430	0.250000
P31	P3	0.000000	0.007570	0.750000
P41	P4	0.500000	0.507570	0.750000
