data_GUGNON_freeONLY_PM
_symmetry_space_group_name_H-M	'P1'
_cell_length_a	14.320000
_cell_length_b	8.778900
_cell_length_c	27.653000
_cell_angle_alpha	90.000000
_cell_angle_beta	90.305400
_cell_angle_gamma	90.000000
_symmetry_Int_Tables_number 1

loop_
_symmetry_equiv_pos_as_xyz
'x,y,z'

loop_
_atom_site_label
_atom_site_type_symbol
_atom_site_fract_x
_atom_site_fract_y
_atom_site_fract_z
C11	C1	0.468960	0.354480	0.436690
C21	C2	0.386330	0.385000	0.461450
H11	H1	0.336500	0.434000	0.444800
C31	C3	0.375010	0.345510	0.509850
C41	C4	0.447340	0.269240	0.533700
H21	H2	0.440100	0.240600	0.566600
C51	C5	0.530480	0.234450	0.509670
C61	C6	0.540700	0.278430	0.461390
H31	H3	0.597300	0.256300	0.445100
C71	C7	0.496710	0.556100	0.237060
C81	C8	0.493010	0.507060	0.289470
C91	C9	0.437240	0.585160	0.322380
H41	H4	0.403300	0.672500	0.312200
C101	C10	0.431110	0.535930	0.369900
H51	H5	0.393700	0.591400	0.392100
C111	C11	0.479000	0.405840	0.385930
C121	C12	0.536800	0.330960	0.352950
H61	H6	0.571600	0.244400	0.363100
C131	C13	0.543800	0.381890	0.305500
H71	H7	0.583900	0.330300	0.283700
C141	C14	0.044290	0.607240	0.597250
C151	C15	0.130650	0.537070	0.575890
C161	C16	0.125320	0.468060	0.530460
H81	H8	0.067500	0.467200	0.513400
C171	C17	0.203310	0.400680	0.509870
H91	H9	0.198500	0.355400	0.478800
C181	C18	0.289020	0.398790	0.534570
C191	C19	0.293300	0.463220	0.580760
H101	H10	0.350100	0.458800	0.598600
C201	C20	0.215590	0.533910	0.601010
H111	H11	0.220400	0.580100	0.632000
C211	C21	0.838850	0.927090	0.606030
C221	C22	0.757930	0.004920	0.581220
C231	C23	0.665850	0.965360	0.591520
H121	H12	0.653300	0.886600	0.614100
C241	C24	0.592110	0.040850	0.568770
H131	H13	0.529700	0.013800	0.576400
C251	C25	0.608770	0.155760	0.534960
C261	C26	0.701730	0.195880	0.525140
H141	H14	0.714500	0.274700	0.502600
C271	C27	0.774980	0.121460	0.548110
H151	H15	0.837500	0.150200	0.541200
O11	O1	0.384500	0.959530	0.198280
C281	C28	0.348630	0.085000	0.187440
C291	C29	0.332130	0.129100	0.135810
H161	H16	0.351200	0.045300	0.114600
H171	H17	0.368800	0.220200	0.128200
H181	H18	0.265600	0.150600	0.130800
N11	N1	0.325440	0.183340	0.222150
C301	C30	0.282830	0.331900	0.213330
H191	H19	0.261800	0.337900	0.179600
H201	H20	0.328800	0.412300	0.219600
H211	H21	0.229300	0.345300	0.234800
C311	C31	0.342370	0.150070	0.273170
H221	H22	0.373700	0.051200	0.276200
H231	H23	0.282700	0.147000	0.290300
H241	H24	0.382100	0.229700	0.287200
O21	O2	0.447700	0.674280	0.227250
O31	O3	0.543270	0.482260	0.208090
O41	O4	0.968470	0.592220	0.576420
O51	O5	0.054390	0.679920	0.637640
O61	O6	0.819240	0.813950	0.633370
O71	O7	0.918830	0.976790	0.599580
Zn11	Zn1	0.431190	0.770560	0.164060
C321	C32	0.968960	0.145520	0.936690
C331	C33	0.886330	0.115000	0.961450
H251	H25	0.836500	0.066000	0.944800
C341	C34	0.875010	0.154490	0.009850
C351	C35	0.947340	0.230760	0.033700
H261	H26	0.940100	0.259400	0.066600
C361	C36	0.030480	0.265550	0.009670
C371	C37	0.040700	0.221570	0.961390
H271	H27	0.097300	0.243700	0.945100
C381	C38	0.996710	0.943900	0.737060
C391	C39	0.993010	0.992940	0.789470
C401	C40	0.937240	0.914840	0.822380
H281	H28	0.903300	0.827500	0.812200
C411	C41	0.931110	0.964070	0.869900
H291	H29	0.893700	0.908600	0.892100
C421	C42	0.979000	0.094160	0.885930
C431	C43	0.036800	0.169040	0.852950
H301	H30	0.071600	0.255600	0.863100
C441	C44	0.043800	0.118110	0.805500
H311	H31	0.083900	0.169700	0.783700
C451	C45	0.544290	0.892760	0.097250
C461	C46	0.630650	0.962930	0.075890
C471	C47	0.625320	0.031940	0.030460
H321	H32	0.567500	0.032800	0.013400
C481	C48	0.703310	0.099320	0.009870
H331	H33	0.698500	0.144600	0.978800
C491	C49	0.789020	0.101210	0.034570
C501	C50	0.793300	0.036780	0.080760
H341	H34	0.850100	0.041200	0.098600
C511	C51	0.715590	0.966090	0.101010
H351	H35	0.720400	0.919900	0.132000
C521	C52	0.338850	0.572910	0.106030
C531	C53	0.257930	0.495080	0.081220
C541	C54	0.165850	0.534640	0.091520
H361	H36	0.153300	0.613400	0.114100
C551	C55	0.092110	0.459150	0.068770
H371	H37	0.029700	0.486200	0.076400
C561	C56	0.108770	0.344240	0.034960
C571	C57	0.201730	0.304120	0.025140
H381	H38	0.214500	0.225300	0.002600
C581	C58	0.274980	0.378540	0.048110
H391	H39	0.337500	0.349800	0.041200
O81	O8	0.884500	0.540470	0.698280
C591	C59	0.848630	0.415000	0.687440
C601	C60	0.832130	0.370900	0.635810
H401	H40	0.851200	0.454700	0.614600
H411	H41	0.868800	0.279800	0.628200
H421	H42	0.765600	0.349400	0.630800
N21	N2	0.825440	0.316660	0.722150
C611	C61	0.782830	0.168100	0.713330
H431	H43	0.761800	0.162100	0.679600
H441	H44	0.828800	0.087700	0.719600
H451	H45	0.729300	0.154700	0.734800
C621	C62	0.842370	0.349930	0.773170
H461	H46	0.873700	0.448800	0.776200
H471	H47	0.782700	0.353000	0.790300
H481	H48	0.882100	0.270300	0.787200
O91	O9	0.947700	0.825720	0.727250
O101	O10	0.043270	0.017740	0.708090
O111	O11	0.468470	0.907780	0.076420
O121	O12	0.554390	0.820080	0.137640
O131	O13	0.319240	0.686050	0.133370
O141	O14	0.418830	0.523210	0.099580
Zn21	Zn2	0.931190	0.729440	0.664060
C631	C63	0.031040	0.854480	0.063310
C641	C64	0.113670	0.885000	0.038550
H491	H49	0.163500	0.934000	0.055200
C651	C65	0.124990	0.845510	0.990150
C661	C66	0.052660	0.769240	0.966300
H501	H50	0.059900	0.740600	0.933400
C671	C67	0.969520	0.734450	0.990330
C681	C68	0.959300	0.778430	0.038610
H511	H51	0.902700	0.756300	0.054900
C691	C69	0.003290	0.056100	0.262940
C701	C70	0.006990	0.007060	0.210530
C711	C71	0.062760	0.085160	0.177620
H521	H52	0.096700	0.172500	0.187800
C721	C72	0.068890	0.035930	0.130100
H531	H53	0.106300	0.091400	0.107900
C731	C73	0.021000	0.905840	0.114070
C741	C74	0.963200	0.830960	0.147050
H541	H54	0.928400	0.744400	0.136900
C751	C75	0.956200	0.881890	0.194500
H551	H55	0.916100	0.830300	0.216300
C761	C76	0.455710	0.107240	0.902750
C771	C77	0.369350	0.037070	0.924110
C781	C78	0.374680	0.968060	0.969540
H561	H56	0.432500	0.967200	0.986600
C791	C79	0.296690	0.900680	0.990130
H571	H57	0.301500	0.855400	0.021200
C801	C80	0.210980	0.898790	0.965430
C811	C81	0.206700	0.963220	0.919240
H581	H58	0.149900	0.958800	0.901400
C821	C82	0.284410	0.033910	0.898990
H591	H59	0.279600	0.080100	0.868000
C831	C83	0.661150	0.427090	0.893970
C841	C84	0.742070	0.504920	0.918780
C851	C85	0.834150	0.465360	0.908480
H601	H60	0.846700	0.386600	0.885900
C861	C86	0.907890	0.540850	0.931230
H611	H61	0.970300	0.513800	0.923600
C871	C87	0.891230	0.655760	0.965040
C881	C88	0.798270	0.695880	0.974860
H621	H62	0.785500	0.774700	0.997400
C891	C89	0.725020	0.621460	0.951890
H631	H63	0.662500	0.650200	0.958800
O151	O15	0.115500	0.459530	0.301720
C901	C90	0.151370	0.585000	0.312560
C911	C91	0.167870	0.629100	0.364190
H641	H64	0.148800	0.545300	0.385400
H651	H65	0.131200	0.720200	0.371800
H661	H66	0.234400	0.650600	0.369200
N31	N3	0.174560	0.683340	0.277850
C921	C92	0.217170	0.831900	0.286670
H671	H67	0.238200	0.837900	0.320400
H681	H68	0.171200	0.912300	0.280400
H691	H69	0.270700	0.845300	0.265200
C931	C93	0.157630	0.650070	0.226830
H701	H70	0.126300	0.551200	0.223800
H711	H71	0.217300	0.647000	0.209700
H721	H72	0.117900	0.729700	0.212800
O161	O16	0.052300	0.174280	0.272750
O171	O17	0.956730	0.982260	0.291910
O181	O18	0.531530	0.092220	0.923580
O191	O19	0.445610	0.179920	0.862360
O201	O20	0.680760	0.313950	0.866630
O211	O21	0.581170	0.476790	0.900420
Zn31	Zn3	0.068810	0.270560	0.335940
C941	C94	0.531040	0.645520	0.563310
C951	C95	0.613670	0.615000	0.538550
H731	H73	0.663500	0.566000	0.555200
C961	C96	0.624990	0.654490	0.490150
C971	C97	0.552660	0.730760	0.466300
H741	H74	0.559900	0.759400	0.433400
C981	C98	0.469520	0.765550	0.490330
C991	C99	0.459300	0.721570	0.538610
H751	H75	0.402700	0.743700	0.554900
C1001	C100	0.503290	0.443900	0.762940
C1011	C101	0.506990	0.492940	0.710530
C1021	C102	0.562760	0.414840	0.677620
H761	H76	0.596700	0.327500	0.687800
C1031	C103	0.568890	0.464070	0.630100
H771	H77	0.606300	0.408600	0.607900
C1041	C104	0.521000	0.594160	0.614070
C1051	C105	0.463200	0.669040	0.647050
H781	H78	0.428400	0.755600	0.636900
C1061	C106	0.456200	0.618110	0.694500
H791	H79	0.416100	0.669700	0.716300
C1071	C107	0.955710	0.392760	0.402750
C1081	C108	0.869350	0.462930	0.424110
C1091	C109	0.874680	0.531940	0.469540
H801	H80	0.932500	0.532800	0.486600
C1101	C110	0.796690	0.599320	0.490130
H811	H81	0.801500	0.644600	0.521200
C1111	C111	0.710980	0.601210	0.465430
C1121	C112	0.706700	0.536780	0.419240
H821	H82	0.649900	0.541200	0.401400
C1131	C113	0.784410	0.466090	0.398990
H831	H83	0.779600	0.419900	0.368000
C1141	C114	0.161150	0.072910	0.393970
C1151	C115	0.242070	0.995080	0.418780
C1161	C116	0.334150	0.034640	0.408480
H841	H84	0.346700	0.113400	0.385900
C1171	C117	0.407890	0.959150	0.431230
H851	H85	0.470300	0.986200	0.423600
C1181	C118	0.391230	0.844240	0.465040
C1191	C119	0.298270	0.804120	0.474860
H861	H86	0.285500	0.725300	0.497400
C1201	C120	0.225020	0.878540	0.451890
H871	H87	0.162500	0.849800	0.458800
O221	O22	0.615500	0.040470	0.801720
C1211	C121	0.651370	0.915000	0.812560
C1221	C122	0.667870	0.870900	0.864190
H881	H88	0.648800	0.954700	0.885400
H891	H89	0.631200	0.779800	0.871800
H901	H90	0.734400	0.849400	0.869200
N41	N4	0.674560	0.816660	0.777850
C1231	C123	0.717170	0.668100	0.786670
H911	H91	0.738200	0.662100	0.820400
H921	H92	0.671200	0.587700	0.780400
H931	H93	0.770700	0.654700	0.765200
C1241	C124	0.657630	0.849930	0.726830
H941	H94	0.626300	0.948800	0.723800
H951	H95	0.717300	0.853000	0.709700
H961	H96	0.617900	0.770300	0.712800
O231	O23	0.552300	0.325720	0.772750
O241	O24	0.456730	0.517740	0.791910
O251	O25	0.031530	0.407780	0.423580
O261	O26	0.945610	0.320080	0.362360
O271	O27	0.180760	0.186050	0.366630
O281	O28	0.081170	0.023210	0.400420
Zn41	Zn4	0.568810	0.229440	0.835940
