data_GUGXOX_freeONLY_PM
_symmetry_space_group_name_H-M	'P1'
_cell_length_a	7.529200
_cell_length_b	14.099900
_cell_length_c	16.591000
_cell_angle_alpha	90.000000
_cell_angle_beta	95.740000
_cell_angle_gamma	90.000000
_symmetry_Int_Tables_number 1

loop_
_symmetry_equiv_pos_as_xyz
'x,y,z'

loop_
_atom_site_label
_atom_site_type_symbol
_atom_site_fract_x
_atom_site_fract_y
_atom_site_fract_z
Be11	Be1	0.390400	0.891100	0.427500
Be21	Be2	0.375700	0.618000	0.446800
Be31	Be3	0.386300	0.750600	0.135100
P11	P1	0.295140	0.089480	0.445580
P21	P2	0.216840	0.763500	0.536190
P31	P3	0.472160	0.742490	0.316640
P41	P4	0.727500	0.589950	0.540880
O11	O1	0.277600	0.174560	0.388420
O21	O2	0.107800	0.070670	0.477620
H11	H1	0.041000	0.115400	0.465300
O31	O3	0.423000	0.108220	0.518630
O41	O4	0.339000	0.000510	0.399000
O51	O5	0.235100	0.845270	0.477830
O61	O6	0.403700	0.838210	0.342430
O71	O7	0.042300	0.775330	0.574410
O81	O8	0.366600	0.770460	0.609480
H21	H2	0.460100	0.788400	0.593000
O91	O9	0.221100	0.666460	0.496140
O101	O10	0.462800	0.735480	0.226140
O111	O11	0.678200	0.733420	0.347430
H31	H3	0.689300	0.707800	0.392000
O121	O12	0.375000	0.660230	0.353940
O131	O13	0.571100	0.641800	0.495670
O141	O14	0.808200	0.642190	0.616620
O151	O15	0.677900	0.491220	0.564780
O161	O16	0.873700	0.584700	0.478670
H41	H4	0.963100	0.613800	0.497000
Be41	Be4	0.109600	0.391100	0.072500
Be51	Be5	0.124300	0.118000	0.053200
Be61	Be6	0.113700	0.250600	0.364900
P51	P5	0.204860	0.589480	0.054420
P61	P6	0.283160	0.263500	0.963810
P71	P7	0.027840	0.242490	0.183360
P81	P8	0.772500	0.089950	0.959120
O171	O17	0.222400	0.674560	0.111580
O181	O18	0.392200	0.570670	0.022380
H51	H5	0.459000	0.615400	0.034700
O191	O19	0.077000	0.608220	0.981370
O201	O20	0.161000	0.500510	0.101000
O211	O21	0.264900	0.345270	0.022170
O221	O22	0.096300	0.338210	0.157570
O231	O23	0.457700	0.275330	0.925590
O241	O24	0.133400	0.270460	0.890520
H61	H6	0.039900	0.288400	0.907000
O251	O25	0.278900	0.166460	0.003860
O261	O26	0.037200	0.235480	0.273860
O271	O27	0.821800	0.233420	0.152570
H71	H7	0.810700	0.207800	0.108000
O281	O28	0.125000	0.160230	0.146060
O291	O29	0.928900	0.141800	0.004330
O301	O30	0.691800	0.142190	0.883380
O311	O31	0.822100	0.991220	0.935220
O321	O32	0.626300	0.084700	0.021330
H81	H8	0.536900	0.113800	0.003000
Be71	Be7	0.609600	0.108900	0.572500
Be81	Be8	0.624300	0.382000	0.553200
Be91	Be9	0.613700	0.249400	0.864900
P91	P9	0.704860	0.910520	0.554420
P101	P10	0.783160	0.236500	0.463810
P111	P11	0.527840	0.257510	0.683360
P121	P12	0.272500	0.410050	0.459120
O331	O33	0.722400	0.825440	0.611580
O341	O34	0.892200	0.929330	0.522380
H91	H9	0.959000	0.884600	0.534700
O351	O35	0.577000	0.891780	0.481370
O361	O36	0.661000	0.999490	0.601000
O371	O37	0.764900	0.154730	0.522170
O381	O38	0.596300	0.161790	0.657570
O391	O39	0.957700	0.224670	0.425590
O401	O40	0.633400	0.229540	0.390520
H101	H10	0.539900	0.211600	0.407000
O411	O41	0.778900	0.333540	0.503860
O421	O42	0.537200	0.264520	0.773860
O431	O43	0.321800	0.266580	0.652570
H111	H11	0.310700	0.292200	0.608000
O441	O44	0.625000	0.339770	0.646060
O451	O45	0.428900	0.358200	0.504330
O461	O46	0.191800	0.357810	0.383380
O471	O47	0.322100	0.508780	0.435220
O481	O48	0.126300	0.415300	0.521330
H121	H12	0.036900	0.386200	0.503000
Be101	Be10	0.890400	0.608900	0.927500
Be111	Be11	0.875700	0.882000	0.946800
Be121	Be12	0.886300	0.749400	0.635100
P131	P13	0.795140	0.410520	0.945580
P141	P14	0.716840	0.736500	0.036190
P151	P15	0.972160	0.757510	0.816640
P161	P16	0.227500	0.910050	0.040880
O491	O49	0.777600	0.325440	0.888420
O501	O50	0.607800	0.429330	0.977620
H131	H13	0.541000	0.384600	0.965300
O511	O51	0.923000	0.391780	0.018630
O521	O52	0.839000	0.499490	0.899000
O531	O53	0.735100	0.654730	0.977830
O541	O54	0.903700	0.661790	0.842430
O551	O55	0.542300	0.724670	0.074410
O561	O56	0.866600	0.729540	0.109480
H141	H14	0.960100	0.711600	0.093000
O571	O57	0.721100	0.833540	0.996140
O581	O58	0.962800	0.764520	0.726140
O591	O59	0.178200	0.766580	0.847430
H151	H15	0.189300	0.792200	0.892000
O601	O60	0.875000	0.839770	0.853940
O611	O61	0.071100	0.858200	0.995670
O621	O62	0.308200	0.857810	0.116620
O631	O63	0.177900	0.008780	0.064780
O641	O64	0.373700	0.915300	0.978670
H161	H16	0.463100	0.886200	0.997000
