data_GUKYUI_freeONLY_PM
_symmetry_space_group_name_H-M	'P1'
_cell_length_a	11.805100
_cell_length_b	14.150800
_cell_length_c	7.691500
_cell_angle_alpha	90.000000
_cell_angle_beta	91.038000
_cell_angle_gamma	90.000000
_symmetry_Int_Tables_number 1

loop_
_symmetry_equiv_pos_as_xyz
'x,y,z'

loop_
_atom_site_label
_atom_site_type_symbol
_atom_site_fract_x
_atom_site_fract_y
_atom_site_fract_z
O11	O1	0.376600	0.392700	0.223100
O21	O2	0.404300	0.438700	0.488400
N11	N1	0.288800	0.224300	0.317100
N21	N2	0.243000	0.157000	0.079000
C11	C1	0.366300	0.380700	0.377200
C21	C2	0.300100	0.297800	0.447500
H11	H1	0.338700	0.272700	0.549800
H21	H2	0.225400	0.318900	0.481300
C31	C3	0.359200	0.150700	0.299600
H31	H3	0.418900	0.136000	0.375400
C41	C4	0.330900	0.101500	0.157400
H41	H4	0.361200	0.044800	0.118700
C51	C5	0.220900	0.227500	0.179600
H51	H5	0.165800	0.273200	0.158300
C61	C6	0.181300	0.130200	0.920300
H61	H6	0.233200	0.100900	0.840200
H71	H7	0.150400	0.186400	0.865000
C71	C7	0.086200	0.062300	0.958900
C81	C8	0.982700	0.097900	0.996900
H81	H8	0.969800	0.162700	0.996700
C91	C9	0.893200	0.032600	0.037600
H91	H9	0.821200	0.055200	0.061600
O31	O3	0.405800	0.332900	0.869900
H101	H10	0.389100	0.282000	0.816100
H111	H11	0.454100	0.319200	0.953500
O41	O4	0.323700	0.385300	0.863800
H121	H12	0.241100	0.398200	0.885200
H131	H13	0.347600	0.427800	0.934000
O51	O5	0.623400	0.392700	0.276900
O61	O6	0.595700	0.438700	0.011600
N31	N3	0.711200	0.224300	0.182900
N41	N4	0.757000	0.157000	0.421000
C101	C10	0.633700	0.380700	0.122800
C111	C11	0.699900	0.297800	0.052500
H141	H14	0.661300	0.272700	0.950200
H151	H15	0.774600	0.318900	0.018700
C121	C12	0.640800	0.150700	0.200400
H161	H16	0.581100	0.136000	0.124600
C131	C13	0.669100	0.101500	0.342600
H171	H17	0.638800	0.044800	0.381300
C141	C14	0.779100	0.227500	0.320400
H181	H18	0.834200	0.273200	0.341700
C151	C15	0.818700	0.130200	0.579700
H191	H19	0.766800	0.100900	0.659800
H201	H20	0.849600	0.186400	0.635000
C161	C16	0.913800	0.062300	0.541100
C171	C17	0.017300	0.097900	0.503100
H211	H21	0.030200	0.162700	0.503300
C181	C18	0.106800	0.032600	0.462400
H221	H22	0.178800	0.055200	0.438400
O71	O7	0.594200	0.332900	0.630100
H231	H23	0.610900	0.282000	0.683900
H241	H24	0.545900	0.319200	0.546500
O81	O8	0.676300	0.385300	0.636200
H251	H25	0.758900	0.398200	0.614800
H261	H26	0.652400	0.427800	0.566000
O91	O9	0.623400	0.607300	0.776900
O101	O10	0.595700	0.561300	0.511600
N51	N5	0.711200	0.775700	0.682900
N61	N6	0.757000	0.843000	0.921000
C191	C19	0.633700	0.619300	0.622800
C201	C20	0.699900	0.702200	0.552500
H271	H27	0.661300	0.727300	0.450200
H281	H28	0.774600	0.681100	0.518700
C211	C21	0.640800	0.849300	0.700400
H291	H29	0.581100	0.864000	0.624600
C221	C22	0.669100	0.898500	0.842600
H301	H30	0.638800	0.955200	0.881300
C231	C23	0.779100	0.772500	0.820400
H311	H31	0.834200	0.726800	0.841700
C241	C24	0.818700	0.869800	0.079700
H321	H32	0.766800	0.899100	0.159800
H331	H33	0.849600	0.813600	0.135000
C251	C25	0.913800	0.937700	0.041100
C261	C26	0.017300	0.902100	0.003100
H341	H34	0.030200	0.837300	0.003300
C271	C27	0.106800	0.967400	0.962400
H351	H35	0.178800	0.944800	0.938400
O111	O11	0.594200	0.667100	0.130100
H361	H36	0.610900	0.718000	0.183900
H371	H37	0.545900	0.680800	0.046500
O121	O12	0.676300	0.614700	0.136200
H381	H38	0.758900	0.601800	0.114800
H391	H39	0.652400	0.572200	0.066000
O131	O13	0.376600	0.607300	0.723100
O141	O14	0.404300	0.561300	0.988400
N71	N7	0.288800	0.775700	0.817100
N81	N8	0.243000	0.843000	0.579000
C281	C28	0.366300	0.619300	0.877200
C291	C29	0.300100	0.702200	0.947500
H401	H40	0.338700	0.727300	0.049800
H411	H41	0.225400	0.681100	0.981300
C301	C30	0.359200	0.849300	0.799600
H421	H42	0.418900	0.864000	0.875400
C311	C31	0.330900	0.898500	0.657400
H431	H43	0.361200	0.955200	0.618700
C321	C32	0.220900	0.772500	0.679600
H441	H44	0.165800	0.726800	0.658300
C331	C33	0.181300	0.869800	0.420300
H451	H45	0.233200	0.899100	0.340200
H461	H46	0.150400	0.813600	0.365000
C341	C34	0.086200	0.937700	0.458900
C351	C35	0.982700	0.902100	0.496900
H471	H47	0.969800	0.837300	0.496700
C361	C36	0.893200	0.967400	0.537600
H481	H48	0.821200	0.944800	0.561600
O151	O15	0.405800	0.667100	0.369900
H491	H49	0.389100	0.718000	0.316100
H501	H50	0.454100	0.680800	0.453500
O161	O16	0.323700	0.614700	0.363800
H511	H51	0.241100	0.601800	0.385200
H521	H52	0.347600	0.572200	0.434000
Ca11	Ca1	0.500000	0.468190	0.750000
Ca21	Ca2	0.500000	0.531810	0.250000
