data_GULBAR_freeONLY_PM
_symmetry_space_group_name_H-M	'P1'
_cell_length_a	17.160000
_cell_length_b	16.787000
_cell_length_c	10.072000
_cell_angle_alpha	90.000000
_cell_angle_beta	120.770000
_cell_angle_gamma	90.000000
_symmetry_Int_Tables_number 1

loop_
_symmetry_equiv_pos_as_xyz
'x,y,z'

loop_
_atom_site_label
_atom_site_type_symbol
_atom_site_fract_x
_atom_site_fract_y
_atom_site_fract_z
Zn11	Zn1	0.251280	0.102370	0.845690
O11	O1	0.348600	0.180820	0.926300
O21	O2	0.445810	0.080070	0.017800
N11	N1	0.376810	0.984730	0.188200
N21	N2	0.237530	0.049520	0.009600
N31	N3	0.153350	0.051170	0.994100
N41	N4	0.154350	0.009310	0.101200
N51	N5	0.239300	0.977500	0.192300
N61	N6	0.644870	0.320470	0.233500
C11	C1	0.428430	0.152080	0.003000
C21	C2	0.504120	0.212020	0.081300
C31	C3	0.593160	0.186220	0.168800
H11	H1	0.606700	0.132100	0.177500
C41	C4	0.661290	0.241680	0.242700
H21	H2	0.720900	0.224000	0.301100
C51	C5	0.558750	0.345160	0.147100
H31	H3	0.546900	0.399600	0.138500
C61	C6	0.486920	0.292940	0.070200
H41	H4	0.427900	0.312000	0.011700
C71	C7	0.288540	0.003230	0.132500
H51	H5	0.404000	0.974000	0.273000
H61	H6	0.404000	0.010000	0.144000
Zn21	Zn2	0.751280	0.602370	0.845690
O31	O3	0.848600	0.680820	0.926300
O41	O4	0.945810	0.580070	0.017800
N71	N7	0.876810	0.484730	0.188200
N81	N8	0.737530	0.549520	0.009600
N91	N9	0.653350	0.551170	0.994100
N101	N10	0.654350	0.509310	0.101200
N111	N11	0.739300	0.477500	0.192300
N121	N12	0.144870	0.820470	0.233500
C81	C8	0.928430	0.652080	0.003000
C91	C9	0.004120	0.712020	0.081300
C101	C10	0.093160	0.686220	0.168800
H71	H7	0.106700	0.632100	0.177500
C111	C11	0.161290	0.741680	0.242700
H81	H8	0.220900	0.724000	0.301100
C121	C12	0.058750	0.845160	0.147100
H91	H9	0.046900	0.899600	0.138500
C131	C13	0.986920	0.792940	0.070200
H101	H10	0.927900	0.812000	0.011700
C141	C14	0.788540	0.503230	0.132500
H111	H11	0.904000	0.474000	0.273000
H121	H12	0.904000	0.510000	0.144000
Zn31	Zn3	0.251280	0.897630	0.345690
O51	O5	0.348600	0.819180	0.426300
O61	O6	0.445810	0.919930	0.517800
N131	N13	0.376810	0.015270	0.688200
N141	N14	0.237530	0.950480	0.509600
N151	N15	0.153350	0.948830	0.494100
N161	N16	0.154350	0.990690	0.601200
N171	N17	0.239300	0.022500	0.692300
N181	N18	0.644870	0.679530	0.733500
C151	C15	0.428430	0.847920	0.503000
C161	C16	0.504120	0.787980	0.581300
C171	C17	0.593160	0.813780	0.668800
H131	H13	0.606700	0.867900	0.677500
C181	C18	0.661290	0.758320	0.742700
H141	H14	0.720900	0.776000	0.801100
C191	C19	0.558750	0.654840	0.647100
H151	H15	0.546900	0.600400	0.638500
C201	C20	0.486920	0.707060	0.570200
H161	H16	0.427900	0.688000	0.511700
C211	C21	0.288540	0.996770	0.632500
H171	H17	0.404000	0.026000	0.773000
H181	H18	0.404000	0.990000	0.644000
Zn41	Zn4	0.751280	0.397630	0.345690
O71	O7	0.848600	0.319180	0.426300
O81	O8	0.945810	0.419930	0.517800
N191	N19	0.876810	0.515270	0.688200
N201	N20	0.737530	0.450480	0.509600
N211	N21	0.653350	0.448830	0.494100
N221	N22	0.654350	0.490690	0.601200
N231	N23	0.739300	0.522500	0.692300
N241	N24	0.144870	0.179530	0.733500
C221	C22	0.928430	0.347920	0.503000
C231	C23	0.004120	0.287980	0.581300
C241	C24	0.093160	0.313780	0.668800
H191	H19	0.106700	0.367900	0.677500
C251	C25	0.161290	0.258320	0.742700
H201	H20	0.220900	0.276000	0.801100
C261	C26	0.058750	0.154840	0.647100
H211	H21	0.046900	0.100400	0.638500
C271	C27	0.986920	0.207060	0.570200
H221	H22	0.927900	0.188000	0.511700
C281	C28	0.788540	0.496770	0.632500
H231	H23	0.904000	0.526000	0.773000
H241	H24	0.904000	0.490000	0.644000
Zn51	Zn5	0.748720	0.102370	0.654310
O91	O9	0.651400	0.180820	0.573700
O101	O10	0.554190	0.080070	0.482200
N251	N25	0.623190	0.984730	0.311800
N261	N26	0.762470	0.049520	0.490400
N271	N27	0.846650	0.051170	0.505900
N281	N28	0.845650	0.009310	0.398800
N291	N29	0.760700	0.977500	0.307700
N301	N30	0.355130	0.320470	0.266500
C291	C29	0.571570	0.152080	0.497000
C301	C30	0.495880	0.212020	0.418700
C311	C31	0.406840	0.186220	0.331200
H251	H25	0.393300	0.132100	0.322500
C321	C32	0.338710	0.241680	0.257300
H261	H26	0.279100	0.224000	0.198900
C331	C33	0.441250	0.345160	0.352900
H271	H27	0.453100	0.399600	0.361500
C341	C34	0.513080	0.292940	0.429800
H281	H28	0.572100	0.312000	0.488300
C351	C35	0.711460	0.003230	0.367500
H291	H29	0.596000	0.974000	0.227000
H301	H30	0.596000	0.010000	0.356000
Zn61	Zn6	0.248720	0.602370	0.654310
O111	O11	0.151400	0.680820	0.573700
O121	O12	0.054190	0.580070	0.482200
N311	N31	0.123190	0.484730	0.311800
N321	N32	0.262470	0.549520	0.490400
N331	N33	0.346650	0.551170	0.505900
N341	N34	0.345650	0.509310	0.398800
N351	N35	0.260700	0.477500	0.307700
N361	N36	0.855130	0.820470	0.266500
C361	C36	0.071570	0.652080	0.497000
C371	C37	0.995880	0.712020	0.418700
C381	C38	0.906840	0.686220	0.331200
H311	H31	0.893300	0.632100	0.322500
C391	C39	0.838710	0.741680	0.257300
H321	H32	0.779100	0.724000	0.198900
C401	C40	0.941250	0.845160	0.352900
H331	H33	0.953100	0.899600	0.361500
C411	C41	0.013080	0.792940	0.429800
H341	H34	0.072100	0.812000	0.488300
C421	C42	0.211460	0.503230	0.367500
H351	H35	0.096000	0.474000	0.227000
H361	H36	0.096000	0.510000	0.356000
Zn71	Zn7	0.748720	0.897630	0.154310
O131	O13	0.651400	0.819180	0.073700
O141	O14	0.554190	0.919930	0.982200
N371	N37	0.623190	0.015270	0.811800
N381	N38	0.762470	0.950480	0.990400
N391	N39	0.846650	0.948830	0.005900
N401	N40	0.845650	0.990690	0.898800
N411	N41	0.760700	0.022500	0.807700
N421	N42	0.355130	0.679530	0.766500
C431	C43	0.571570	0.847920	0.997000
C441	C44	0.495880	0.787980	0.918700
C451	C45	0.406840	0.813780	0.831200
H371	H37	0.393300	0.867900	0.822500
C461	C46	0.338710	0.758320	0.757300
H381	H38	0.279100	0.776000	0.698900
C471	C47	0.441250	0.654840	0.852900
H391	H39	0.453100	0.600400	0.861500
C481	C48	0.513080	0.707060	0.929800
H401	H40	0.572100	0.688000	0.988300
C491	C49	0.711460	0.996770	0.867500
H411	H41	0.596000	0.026000	0.727000
H421	H42	0.596000	0.990000	0.856000
Zn81	Zn8	0.248720	0.397630	0.154310
O151	O15	0.151400	0.319180	0.073700
O161	O16	0.054190	0.419930	0.982200
N431	N43	0.123190	0.515270	0.811800
N441	N44	0.262470	0.450480	0.990400
N451	N45	0.346650	0.448830	0.005900
N461	N46	0.345650	0.490690	0.898800
N471	N47	0.260700	0.522500	0.807700
N481	N48	0.855130	0.179530	0.766500
C501	C50	0.071570	0.347920	0.997000
C511	C51	0.995880	0.287980	0.918700
C521	C52	0.906840	0.313780	0.831200
H431	H43	0.893300	0.367900	0.822500
C531	C53	0.838710	0.258320	0.757300
H441	H44	0.779100	0.276000	0.698900
C541	C54	0.941250	0.154840	0.852900
H451	H45	0.953100	0.100400	0.861500
C551	C55	0.013080	0.207060	0.929800
H461	H46	0.072100	0.188000	0.988300
C561	C56	0.211460	0.496770	0.867500
H471	H47	0.096000	0.526000	0.727000
H481	H48	0.096000	0.490000	0.856000
