data_GULWAM_freeONLY_PM
_symmetry_space_group_name_H-M	'P1'
_cell_length_a	16.079800
_cell_length_b	22.709600
_cell_length_c	38.484000
_cell_angle_alpha	90.000000
_cell_angle_beta	90.000000
_cell_angle_gamma	90.000000
_symmetry_Int_Tables_number 1

loop_
_symmetry_equiv_pos_as_xyz
'x,y,z'

loop_
_atom_site_label
_atom_site_type_symbol
_atom_site_fract_x
_atom_site_fract_y
_atom_site_fract_z
Yb11	Yb1	0.250000	0.500000	0.532580
Yb21	Yb2	0.250000	0.000000	0.967420
Yb31	Yb3	0.750000	0.500000	0.467420
Yb41	Yb4	0.750000	0.000000	0.032580
Yb51	Yb5	0.500000	0.500000	0.500000
Yb61	Yb6	0.000000	0.500000	0.500000
Yb71	Yb7	0.000000	0.000000	0.000000
Yb81	Yb8	0.500000	0.000000	0.000000
H11	H1	0.437100	0.640700	0.424900
H21	H2	0.393500	0.703700	0.381100
H31	H3	0.155300	0.672000	0.406600
H41	H4	0.199000	0.608900	0.450400
H51	H5	0.294100	0.742900	0.344200
H61	H6	0.134400	0.731700	0.361000
H71	H7	0.991400	0.816000	0.272700
H81	H8	0.272400	0.796200	0.297400
H91	H9	0.875400	0.755400	0.337400
H101	H10	0.896600	0.780500	0.300500
H111	H11	0.910300	0.819500	0.333600
H121	H12	0.128400	0.861900	0.204300
H131	H13	0.968000	0.858000	0.221800
H141	H14	0.885400	0.901100	0.185400
H151	H15	0.837600	0.934900	0.131100
H161	H16	0.069100	0.928500	0.096500
H171	H17	0.113000	0.893300	0.148800
H181	H18	0.463300	0.357800	0.481000
H191	H19	0.508800	0.261900	0.472600
H201	H20	0.385900	0.211100	0.558400
H211	H21	0.340500	0.306900	0.566800
H221	H22	0.513900	0.160700	0.488000
H231	H23	0.407700	0.120000	0.533800
H241	H24	0.550600	0.076800	0.467700
H251	H25	0.342300	0.000100	0.598000
H261	H26	0.349500	0.950700	0.569700
H271	H27	0.426300	0.966100	0.593100
H281	H28	0.062900	0.359300	0.424900
H291	H29	0.106500	0.296300	0.381100
H301	H30	0.344700	0.328000	0.406600
H311	H31	0.301000	0.391100	0.450400
H321	H32	0.205900	0.257100	0.344200
H331	H33	0.365600	0.268300	0.361000
H341	H34	0.508600	0.184000	0.272700
H351	H35	0.227600	0.203800	0.297400
H361	H36	0.624600	0.244600	0.337400
H371	H37	0.603400	0.219500	0.300500
H381	H38	0.589700	0.180500	0.333600
H391	H39	0.371600	0.138100	0.204300
H401	H40	0.532000	0.142000	0.221800
H411	H41	0.614600	0.098900	0.185400
H421	H42	0.662400	0.065100	0.131100
H431	H43	0.430900	0.071500	0.096500
H441	H44	0.387000	0.106700	0.148800
H451	H45	0.036700	0.642200	0.481000
H461	H46	0.991200	0.738100	0.472600
H471	H47	0.114100	0.788900	0.558400
H481	H48	0.159500	0.693100	0.566800
H491	H49	0.986100	0.839300	0.488000
H501	H50	0.092300	0.880000	0.533800
H511	H51	0.949400	0.923200	0.467700
H521	H52	0.157700	0.999900	0.598000
H531	H53	0.150500	0.049300	0.569700
H541	H54	0.073700	0.033900	0.593100
H551	H55	0.062900	0.140700	0.075100
H561	H56	0.106500	0.203700	0.118900
H571	H57	0.344700	0.172000	0.093400
H581	H58	0.301000	0.108900	0.049600
H591	H59	0.205900	0.242900	0.155800
H601	H60	0.365600	0.231700	0.139000
H611	H61	0.508600	0.316000	0.227300
H621	H62	0.227600	0.296200	0.202600
H631	H63	0.624600	0.255400	0.162600
H641	H64	0.603400	0.280500	0.199500
H651	H65	0.589700	0.319500	0.166400
H661	H66	0.371600	0.361900	0.295700
H671	H67	0.532000	0.358000	0.278200
H681	H68	0.614600	0.401100	0.314600
H691	H69	0.662400	0.434900	0.368900
H701	H70	0.430900	0.428500	0.403500
H711	H71	0.387000	0.393300	0.351200
H721	H72	0.036700	0.857800	0.019000
H731	H73	0.991200	0.761900	0.027400
H741	H74	0.114100	0.711100	0.941600
H751	H75	0.159500	0.806900	0.933200
H761	H76	0.986100	0.660700	0.012000
H771	H77	0.092300	0.620000	0.966200
H781	H78	0.949400	0.576800	0.032300
H791	H79	0.157700	0.500100	0.902000
H801	H80	0.150500	0.450700	0.930300
H811	H81	0.073700	0.466100	0.906900
H821	H82	0.437100	0.859300	0.075100
H831	H83	0.393500	0.796300	0.118900
H841	H84	0.155300	0.828000	0.093400
H851	H85	0.199000	0.891100	0.049600
H861	H86	0.294100	0.757100	0.155800
H871	H87	0.134400	0.768300	0.139000
H881	H88	0.991400	0.684000	0.227300
H891	H89	0.272400	0.703800	0.202600
H901	H90	0.875400	0.744600	0.162600
H911	H91	0.896600	0.719500	0.199500
H921	H92	0.910300	0.680500	0.166400
H931	H93	0.128400	0.638100	0.295700
H941	H94	0.968000	0.642000	0.278200
H951	H95	0.885400	0.598900	0.314600
H961	H96	0.837600	0.565100	0.368900
H971	H97	0.069100	0.571500	0.403500
H981	H98	0.113000	0.606700	0.351200
H991	H99	0.463300	0.142200	0.019000
H1001	H100	0.508800	0.238100	0.027400
H1011	H101	0.385900	0.288900	0.941600
H1021	H102	0.340500	0.193100	0.933200
H1031	H103	0.513900	0.339300	0.012000
H1041	H104	0.407700	0.380000	0.966200
H1051	H105	0.550600	0.423200	0.032300
H1061	H106	0.342300	0.499900	0.902000
H1071	H107	0.349500	0.549300	0.930300
H1081	H108	0.426300	0.533900	0.906900
H1091	H109	0.562900	0.359300	0.575100
H1101	H110	0.606500	0.296300	0.618900
H1111	H111	0.844700	0.328000	0.593400
H1121	H112	0.801000	0.391100	0.549600
H1131	H113	0.705900	0.257100	0.655800
H1141	H114	0.865600	0.268300	0.639000
H1151	H115	0.008600	0.184000	0.727300
H1161	H116	0.727600	0.203800	0.702600
H1171	H117	0.124600	0.244600	0.662600
H1181	H118	0.103400	0.219500	0.699500
H1191	H119	0.089700	0.180500	0.666400
H1201	H120	0.871600	0.138100	0.795700
H1211	H121	0.032000	0.142000	0.778200
H1221	H122	0.114600	0.098900	0.814600
H1231	H123	0.162400	0.065100	0.868900
H1241	H124	0.930900	0.071500	0.903500
H1251	H125	0.887000	0.106700	0.851200
H1261	H126	0.536700	0.642200	0.519000
H1271	H127	0.491200	0.738100	0.527400
H1281	H128	0.614100	0.788900	0.441600
H1291	H129	0.659500	0.693100	0.433200
H1301	H130	0.486100	0.839300	0.512000
H1311	H131	0.592300	0.880000	0.466200
H1321	H132	0.449400	0.923200	0.532300
H1331	H133	0.657700	0.999900	0.402000
H1341	H134	0.650500	0.049300	0.430300
H1351	H135	0.573700	0.033900	0.406900
H1361	H136	0.937100	0.640700	0.575100
H1371	H137	0.893500	0.703700	0.618900
H1381	H138	0.655300	0.672000	0.593400
H1391	H139	0.699000	0.608900	0.549600
H1401	H140	0.794100	0.742900	0.655800
H1411	H141	0.634400	0.731700	0.639000
H1421	H142	0.491400	0.816000	0.727300
H1431	H143	0.772400	0.796200	0.702600
H1441	H144	0.375400	0.755400	0.662600
H1451	H145	0.396600	0.780500	0.699500
H1461	H146	0.410300	0.819500	0.666400
H1471	H147	0.628400	0.861900	0.795700
H1481	H148	0.468000	0.858000	0.778200
H1491	H149	0.385400	0.901100	0.814600
H1501	H150	0.337600	0.934900	0.868900
H1511	H151	0.569100	0.928500	0.903500
H1521	H152	0.613000	0.893300	0.851200
H1531	H153	0.963300	0.357800	0.519000
H1541	H154	0.008800	0.261900	0.527400
H1551	H155	0.885900	0.211100	0.441600
H1561	H156	0.840500	0.306900	0.433200
H1571	H157	0.013900	0.160700	0.512000
H1581	H158	0.907700	0.120000	0.466200
H1591	H159	0.050600	0.076800	0.532300
H1601	H160	0.842300	0.000100	0.402000
H1611	H161	0.849500	0.950700	0.430300
H1621	H162	0.926300	0.966100	0.406900
H1631	H163	0.937100	0.859300	0.924900
H1641	H164	0.893500	0.796300	0.881100
H1651	H165	0.655300	0.828000	0.906600
H1661	H166	0.699000	0.891100	0.950400
H1671	H167	0.794100	0.757100	0.844200
H1681	H168	0.634400	0.768300	0.861000
H1691	H169	0.491400	0.684000	0.772700
H1701	H170	0.772400	0.703800	0.797400
H1711	H171	0.375400	0.744600	0.837400
H1721	H172	0.396600	0.719500	0.800500
H1731	H173	0.410300	0.680500	0.833600
H1741	H174	0.628400	0.638100	0.704300
H1751	H175	0.468000	0.642000	0.721800
H1761	H176	0.385400	0.598900	0.685400
H1771	H177	0.337600	0.565100	0.631100
H1781	H178	0.569100	0.571500	0.596500
H1791	H179	0.613000	0.606700	0.648800
H1801	H180	0.963300	0.142200	0.981000
H1811	H181	0.008800	0.238100	0.972600
H1821	H182	0.885900	0.288900	0.058400
H1831	H183	0.840500	0.193100	0.066800
H1841	H184	0.013900	0.339300	0.988000
H1851	H185	0.907700	0.380000	0.033800
H1861	H186	0.050600	0.423200	0.967700
H1871	H187	0.842300	0.499900	0.098000
H1881	H188	0.849500	0.549300	0.069700
H1891	H189	0.926300	0.533900	0.093100
H1901	H190	0.562900	0.140700	0.924900
H1911	H191	0.606500	0.203700	0.881100
H1921	H192	0.844700	0.172000	0.906600
H1931	H193	0.801000	0.108900	0.950400
H1941	H194	0.705900	0.242900	0.844200
H1951	H195	0.865600	0.231700	0.861000
H1961	H196	0.008600	0.316000	0.772700
H1971	H197	0.727600	0.296200	0.797400
H1981	H198	0.124600	0.255400	0.837400
H1991	H199	0.103400	0.280500	0.800500
H2001	H200	0.089700	0.319500	0.833600
H2011	H201	0.871600	0.361900	0.704300
H2021	H202	0.032000	0.358000	0.721800
H2031	H203	0.114600	0.401100	0.685400
H2041	H204	0.162400	0.434900	0.631100
H2051	H205	0.930900	0.428500	0.596500
H2061	H206	0.887000	0.393300	0.648800
H2071	H207	0.536700	0.857800	0.981000
H2081	H208	0.491200	0.761900	0.972600
H2091	H209	0.614100	0.711100	0.058400
H2101	H210	0.659500	0.806900	0.066800
H2111	H211	0.486100	0.660700	0.988000
H2121	H212	0.592300	0.620000	0.033800
H2131	H213	0.449400	0.576800	0.967700
H2141	H214	0.657700	0.500100	0.098000
H2151	H215	0.650500	0.450700	0.069700
H2161	H216	0.573700	0.466100	0.093100
C11	C1	0.347600	0.575600	0.469520
C21	C2	0.322400	0.618500	0.442000
C31	C3	0.380600	0.646900	0.421200
C41	C4	0.354500	0.684700	0.395000
C51	C5	0.270100	0.694100	0.389500
C61	C6	0.211800	0.665700	0.410300
C71	C7	0.238000	0.627900	0.436500
C81	C8	0.249400	0.729800	0.357400
C91	C9	0.178700	0.743300	0.347000
C101	C10	0.157100	0.776000	0.314700
C111	C11	0.072900	0.782000	0.307300
C121	C12	0.047700	0.812000	0.277600
C131	C13	0.106700	0.836200	0.255400
C141	C14	0.190900	0.830200	0.262800
C151	C15	0.216100	0.800200	0.292500
C161	C16	0.912700	0.780200	0.324500
C171	C17	0.084500	0.856700	0.219700
C181	C18	0.014500	0.867400	0.208600
C191	C19	0.004000	0.895900	0.173200
C201	C20	0.923200	0.906800	0.167400
C211	C21	0.893700	0.926800	0.134500
C221	C22	0.950500	0.933800	0.107890
C231	C23	0.030500	0.922600	0.114100
C241	C24	0.057100	0.902600	0.145800
C251	C25	0.918500	0.953500	0.073210
C261	C26	0.363800	0.401600	0.529090
C271	C27	0.397400	0.341900	0.524740
C281	C28	0.447800	0.328400	0.496500
C291	C29	0.475100	0.271000	0.491500
C301	C30	0.451900	0.227000	0.514600
C311	C31	0.401500	0.240500	0.542900
C321	C32	0.374200	0.297900	0.547920
C331	C33	0.474400	0.164300	0.505500
C341	C34	0.449500	0.117400	0.517200
C351	C35	0.477500	0.056800	0.508300
C361	C36	0.528400	0.045700	0.480500
C371	C37	0.453600	0.011200	0.528500
C381	C38	0.379000	0.981900	0.581300
C391	C39	0.152400	0.424400	0.469520
C401	C40	0.177600	0.381500	0.442000
C411	C41	0.119400	0.353100	0.421200
C421	C42	0.145500	0.315300	0.395000
C431	C43	0.229900	0.305900	0.389500
C441	C44	0.288200	0.334300	0.410300
C451	C45	0.262000	0.372100	0.436500
C461	C46	0.250600	0.270200	0.357400
C471	C47	0.321300	0.256700	0.347000
C481	C48	0.342900	0.224000	0.314700
C491	C49	0.427100	0.218000	0.307300
C501	C50	0.452300	0.188000	0.277600
C511	C51	0.393300	0.163800	0.255400
C521	C52	0.309100	0.169800	0.262800
C531	C53	0.283900	0.199800	0.292500
C541	C54	0.587300	0.219800	0.324500
C551	C55	0.415500	0.143300	0.219700
C561	C56	0.485500	0.132600	0.208600
C571	C57	0.496000	0.104100	0.173200
C581	C58	0.576800	0.093200	0.167400
C591	C59	0.606300	0.073200	0.134500
C601	C60	0.549500	0.066200	0.107890
C611	C61	0.469500	0.077400	0.114100
C621	C62	0.442900	0.097400	0.145800
C631	C63	0.581500	0.046500	0.073210
C641	C64	0.136200	0.598400	0.529090
C651	C65	0.102600	0.658100	0.524740
C661	C66	0.052200	0.671600	0.496500
C671	C67	0.024900	0.729000	0.491500
C681	C68	0.048100	0.773000	0.514600
C691	C69	0.098500	0.759500	0.542900
C701	C70	0.125800	0.702100	0.547920
C711	C71	0.025600	0.835700	0.505500
C721	C72	0.050500	0.882600	0.517200
C731	C73	0.022500	0.943200	0.508300
C741	C74	0.971600	0.954300	0.480500
C751	C75	0.046400	0.988800	0.528500
C761	C76	0.121000	0.018100	0.581300
C771	C77	0.152400	0.075600	0.030480
C781	C78	0.177600	0.118500	0.058000
C791	C79	0.119400	0.146900	0.078800
C801	C80	0.145500	0.184700	0.105000
C811	C81	0.229900	0.194100	0.110500
C821	C82	0.288200	0.165700	0.089700
C831	C83	0.262000	0.127900	0.063500
C841	C84	0.250600	0.229800	0.142600
C851	C85	0.321300	0.243300	0.153000
C861	C86	0.342900	0.276000	0.185300
C871	C87	0.427100	0.282000	0.192700
C881	C88	0.452300	0.312000	0.222400
C891	C89	0.393300	0.336200	0.244600
C901	C90	0.309100	0.330200	0.237200
C911	C91	0.283900	0.300200	0.207500
C921	C92	0.587300	0.280200	0.175500
C931	C93	0.415500	0.356700	0.280300
C941	C94	0.485500	0.367400	0.291400
C951	C95	0.496000	0.395900	0.326800
C961	C96	0.576800	0.406800	0.332600
C971	C97	0.606300	0.426800	0.365500
C981	C98	0.549500	0.433800	0.392110
C991	C99	0.469500	0.422600	0.385900
C1001	C100	0.442900	0.402600	0.354200
C1011	C101	0.581500	0.453500	0.426790
C1021	C102	0.136200	0.901600	0.970910
C1031	C103	0.102600	0.841900	0.975260
C1041	C104	0.052200	0.828400	0.003500
C1051	C105	0.024900	0.771000	0.008500
C1061	C106	0.048100	0.727000	0.985400
C1071	C107	0.098500	0.740500	0.957100
C1081	C108	0.125800	0.797900	0.952080
C1091	C109	0.025600	0.664300	0.994500
C1101	C110	0.050500	0.617400	0.982800
C1111	C111	0.022500	0.556800	0.991700
C1121	C112	0.971600	0.545700	0.019500
C1131	C113	0.046400	0.511200	0.971500
C1141	C114	0.121000	0.481900	0.918700
C1151	C115	0.347600	0.924400	0.030480
C1161	C116	0.322400	0.881500	0.058000
C1171	C117	0.380600	0.853100	0.078800
C1181	C118	0.354500	0.815300	0.105000
C1191	C119	0.270100	0.805900	0.110500
C1201	C120	0.211800	0.834300	0.089700
C1211	C121	0.238000	0.872100	0.063500
C1221	C122	0.249400	0.770200	0.142600
C1231	C123	0.178700	0.756700	0.153000
C1241	C124	0.157100	0.724000	0.185300
C1251	C125	0.072900	0.718000	0.192700
C1261	C126	0.047700	0.688000	0.222400
C1271	C127	0.106700	0.663800	0.244600
C1281	C128	0.190900	0.669800	0.237200
C1291	C129	0.216100	0.699800	0.207500
C1301	C130	0.912700	0.719800	0.175500
C1311	C131	0.084500	0.643300	0.280300
C1321	C132	0.014500	0.632600	0.291400
C1331	C133	0.004000	0.604100	0.326800
C1341	C134	0.923200	0.593200	0.332600
C1351	C135	0.893700	0.573200	0.365500
C1361	C136	0.950500	0.566200	0.392110
C1371	C137	0.030500	0.577400	0.385900
C1381	C138	0.057100	0.597400	0.354200
C1391	C139	0.918500	0.546500	0.426790
C1401	C140	0.363800	0.098400	0.970910
C1411	C141	0.397400	0.158100	0.975260
C1421	C142	0.447800	0.171600	0.003500
C1431	C143	0.475100	0.229000	0.008500
C1441	C144	0.451900	0.273000	0.985400
C1451	C145	0.401500	0.259500	0.957100
C1461	C146	0.374200	0.202100	0.952080
C1471	C147	0.474400	0.335700	0.994500
C1481	C148	0.449500	0.382600	0.982800
C1491	C149	0.477500	0.443200	0.991700
C1501	C150	0.528400	0.454300	0.019500
C1511	C151	0.453600	0.488800	0.971500
C1521	C152	0.379000	0.518100	0.918700
C1531	C153	0.652400	0.424400	0.530480
C1541	C154	0.677600	0.381500	0.558000
C1551	C155	0.619400	0.353100	0.578800
C1561	C156	0.645500	0.315300	0.605000
C1571	C157	0.729900	0.305900	0.610500
C1581	C158	0.788200	0.334300	0.589700
C1591	C159	0.762000	0.372100	0.563500
C1601	C160	0.750600	0.270200	0.642600
C1611	C161	0.821300	0.256700	0.653000
C1621	C162	0.842900	0.224000	0.685300
C1631	C163	0.927100	0.218000	0.692700
C1641	C164	0.952300	0.188000	0.722400
C1651	C165	0.893300	0.163800	0.744600
C1661	C166	0.809100	0.169800	0.737200
C1671	C167	0.783900	0.199800	0.707500
C1681	C168	0.087300	0.219800	0.675500
C1691	C169	0.915500	0.143300	0.780300
C1701	C170	0.985500	0.132600	0.791400
C1711	C171	0.996000	0.104100	0.826800
C1721	C172	0.076800	0.093200	0.832600
C1731	C173	0.106300	0.073200	0.865500
C1741	C174	0.049500	0.066200	0.892110
C1751	C175	0.969500	0.077400	0.885900
C1761	C176	0.942900	0.097400	0.854200
C1771	C177	0.081500	0.046500	0.926790
C1781	C178	0.636200	0.598400	0.470910
C1791	C179	0.602600	0.658100	0.475260
C1801	C180	0.552200	0.671600	0.503500
C1811	C181	0.524900	0.729000	0.508500
C1821	C182	0.548100	0.773000	0.485400
C1831	C183	0.598500	0.759500	0.457100
C1841	C184	0.625800	0.702100	0.452080
C1851	C185	0.525600	0.835700	0.494500
C1861	C186	0.550500	0.882600	0.482800
C1871	C187	0.522500	0.943200	0.491700
C1881	C188	0.471600	0.954300	0.519500
C1891	C189	0.546400	0.988800	0.471500
C1901	C190	0.621000	0.018100	0.418700
C1911	C191	0.847600	0.575600	0.530480
C1921	C192	0.822400	0.618500	0.558000
C1931	C193	0.880600	0.646900	0.578800
C1941	C194	0.854500	0.684700	0.605000
C1951	C195	0.770100	0.694100	0.610500
C1961	C196	0.711800	0.665700	0.589700
C1971	C197	0.738000	0.627900	0.563500
C1981	C198	0.749400	0.729800	0.642600
C1991	C199	0.678700	0.743300	0.653000
C2001	C200	0.657100	0.776000	0.685300
C2011	C201	0.572900	0.782000	0.692700
C2021	C202	0.547700	0.812000	0.722400
C2031	C203	0.606700	0.836200	0.744600
C2041	C204	0.690900	0.830200	0.737200
C2051	C205	0.716100	0.800200	0.707500
C2061	C206	0.412700	0.780200	0.675500
C2071	C207	0.584500	0.856700	0.780300
C2081	C208	0.514500	0.867400	0.791400
C2091	C209	0.504000	0.895900	0.826800
C2101	C210	0.423200	0.906800	0.832600
C2111	C211	0.393700	0.926800	0.865500
C2121	C212	0.450500	0.933800	0.892110
C2131	C213	0.530500	0.922600	0.885900
C2141	C214	0.557100	0.902600	0.854200
C2151	C215	0.418500	0.953500	0.926790
C2161	C216	0.863800	0.401600	0.470910
C2171	C217	0.897400	0.341900	0.475260
C2181	C218	0.947800	0.328400	0.503500
C2191	C219	0.975100	0.271000	0.508500
C2201	C220	0.951900	0.227000	0.485400
C2211	C221	0.901500	0.240500	0.457100
C2221	C222	0.874200	0.297900	0.452080
C2231	C223	0.974400	0.164300	0.494500
C2241	C224	0.949500	0.117400	0.482800
C2251	C225	0.977500	0.056800	0.491700
C2261	C226	0.028400	0.045700	0.519500
C2271	C227	0.953600	0.011200	0.471500
C2281	C228	0.879000	0.981900	0.418700
C2291	C229	0.847600	0.924400	0.969520
C2301	C230	0.822400	0.881500	0.942000
C2311	C231	0.880600	0.853100	0.921200
C2321	C232	0.854500	0.815300	0.895000
C2331	C233	0.770100	0.805900	0.889500
C2341	C234	0.711800	0.834300	0.910300
C2351	C235	0.738000	0.872100	0.936500
C2361	C236	0.749400	0.770200	0.857400
C2371	C237	0.678700	0.756700	0.847000
C2381	C238	0.657100	0.724000	0.814700
C2391	C239	0.572900	0.718000	0.807300
C2401	C240	0.547700	0.688000	0.777600
C2411	C241	0.606700	0.663800	0.755400
C2421	C242	0.690900	0.669800	0.762800
C2431	C243	0.716100	0.699800	0.792500
C2441	C244	0.412700	0.719800	0.824500
C2451	C245	0.584500	0.643300	0.719700
C2461	C246	0.514500	0.632600	0.708600
C2471	C247	0.504000	0.604100	0.673200
C2481	C248	0.423200	0.593200	0.667400
C2491	C249	0.393700	0.573200	0.634500
C2501	C250	0.450500	0.566200	0.607890
C2511	C251	0.530500	0.577400	0.614100
C2521	C252	0.557100	0.597400	0.645800
C2531	C253	0.418500	0.546500	0.573210
C2541	C254	0.863800	0.098400	0.029090
C2551	C255	0.897400	0.158100	0.024740
C2561	C256	0.947800	0.171600	0.996500
C2571	C257	0.975100	0.229000	0.991500
C2581	C258	0.951900	0.273000	0.014600
C2591	C259	0.901500	0.259500	0.042900
C2601	C260	0.874200	0.202100	0.047920
C2611	C261	0.974400	0.335700	0.005500
C2621	C262	0.949500	0.382600	0.017200
C2631	C263	0.977500	0.443200	0.008300
C2641	C264	0.028400	0.454300	0.980500
C2651	C265	0.953600	0.488800	0.028500
C2661	C266	0.879000	0.518100	0.081300
C2671	C267	0.652400	0.075600	0.969520
C2681	C268	0.677600	0.118500	0.942000
C2691	C269	0.619400	0.146900	0.921200
C2701	C270	0.645500	0.184700	0.895000
C2711	C271	0.729900	0.194100	0.889500
C2721	C272	0.788200	0.165700	0.910300
C2731	C273	0.762000	0.127900	0.936500
C2741	C274	0.750600	0.229800	0.857400
C2751	C275	0.821300	0.243300	0.847000
C2761	C276	0.842900	0.276000	0.814700
C2771	C277	0.927100	0.282000	0.807300
C2781	C278	0.952300	0.312000	0.777600
C2791	C279	0.893300	0.336200	0.755400
C2801	C280	0.809100	0.330200	0.762800
C2811	C281	0.783900	0.300200	0.792500
C2821	C282	0.087300	0.280200	0.824500
C2831	C283	0.915500	0.356700	0.719700
C2841	C284	0.985500	0.367400	0.708600
C2851	C285	0.996000	0.395900	0.673200
C2861	C286	0.076800	0.406800	0.667400
C2871	C287	0.106300	0.426800	0.634500
C2881	C288	0.049500	0.433800	0.607890
C2891	C289	0.969500	0.422600	0.614100
C2901	C290	0.942900	0.402600	0.645800
C2911	C291	0.081500	0.453500	0.573210
C2921	C292	0.636200	0.901600	0.029090
C2931	C293	0.602600	0.841900	0.024740
C2941	C294	0.552200	0.828400	0.996500
C2951	C295	0.524900	0.771000	0.991500
C2961	C296	0.548100	0.727000	0.014600
C2971	C297	0.598500	0.740500	0.042900
C2981	C298	0.625800	0.797900	0.047920
C2991	C299	0.525600	0.664300	0.005500
C3001	C300	0.550500	0.617400	0.017200
C3011	C301	0.522500	0.556800	0.008300
C3021	C302	0.471600	0.545700	0.980500
C3031	C303	0.546400	0.511200	0.028500
C3041	C304	0.621000	0.481900	0.081300
O11	O1	0.007300	0.755000	0.328000
O21	O2	0.252900	0.854200	0.241200
O31	O3	0.405700	0.026300	0.555600
O41	O4	0.296500	0.558300	0.491060
O51	O5	0.423500	0.560900	0.469730
O61	O6	0.844000	0.967200	0.069930
O71	O7	0.971600	0.954500	0.048710
O81	O8	0.388600	0.444600	0.510210
O91	O9	0.306000	0.409900	0.550510
O101	O10	0.492700	0.245000	0.328000
O111	O11	0.247100	0.145800	0.241200
O121	O12	0.094300	0.973700	0.555600
O131	O13	0.203500	0.441700	0.491060
O141	O14	0.076500	0.439100	0.469730
O151	O15	0.656000	0.032800	0.069930
O161	O16	0.528400	0.045500	0.048710
O171	O17	0.111400	0.555400	0.510210
O181	O18	0.194000	0.590100	0.550510
O191	O19	0.492700	0.255000	0.172000
O201	O20	0.247100	0.354200	0.258800
O211	O21	0.094300	0.526300	0.944400
O221	O22	0.203500	0.058300	0.008940
O231	O23	0.076500	0.060900	0.030270
O241	O24	0.656000	0.467200	0.430070
O251	O25	0.528400	0.454500	0.451290
O261	O26	0.111400	0.944600	0.989790
O271	O27	0.194000	0.909900	0.949490
O281	O28	0.007300	0.745000	0.172000
O291	O29	0.252900	0.645800	0.258800
O301	O30	0.405700	0.473700	0.944400
O311	O31	0.296500	0.941700	0.008940
O321	O32	0.423500	0.939100	0.030270
O331	O33	0.844000	0.532800	0.430070
O341	O34	0.971600	0.545500	0.451290
O351	O35	0.388600	0.055400	0.989790
O361	O36	0.306000	0.090100	0.949490
O371	O37	0.992700	0.245000	0.672000
O381	O38	0.747100	0.145800	0.758800
O391	O39	0.594300	0.973700	0.444400
O401	O40	0.703500	0.441700	0.508940
O411	O41	0.576500	0.439100	0.530270
O421	O42	0.156000	0.032800	0.930070
O431	O43	0.028400	0.045500	0.951290
O441	O44	0.611400	0.555400	0.489790
O451	O45	0.694000	0.590100	0.449490
O461	O46	0.507300	0.755000	0.672000
O471	O47	0.752900	0.854200	0.758800
O481	O48	0.905700	0.026300	0.444400
O491	O49	0.796500	0.558300	0.508940
O501	O50	0.923500	0.560900	0.530270
O511	O51	0.344000	0.967200	0.930070
O521	O52	0.471600	0.954500	0.951290
O531	O53	0.888600	0.444600	0.489790
O541	O54	0.806000	0.409900	0.449490
O551	O55	0.507300	0.745000	0.828000
O561	O56	0.752900	0.645800	0.741200
O571	O57	0.905700	0.473700	0.055600
O581	O58	0.796500	0.941700	0.991060
O591	O59	0.923500	0.939100	0.969730
O601	O60	0.344000	0.532800	0.569930
O611	O61	0.471600	0.545500	0.548710
O621	O62	0.888600	0.055400	0.010210
O631	O63	0.806000	0.090100	0.050510
O641	O64	0.992700	0.255000	0.828000
O651	O65	0.747100	0.354200	0.741200
O661	O66	0.594300	0.526300	0.055600
O671	O67	0.703500	0.058300	0.991060
O681	O68	0.576500	0.060900	0.969730
O691	O69	0.156000	0.467200	0.569930
O701	O70	0.028400	0.454500	0.548710
O711	O71	0.611400	0.944600	0.010210
O721	O72	0.694000	0.909900	0.050510
