data_GUMBIA_freeONLY_PM
_symmetry_space_group_name_H-M	'P1'
_cell_length_a	19.791000
_cell_length_b	22.674000
_cell_length_c	12.877000
_cell_angle_alpha	90.000000
_cell_angle_beta	113.271000
_cell_angle_gamma	90.000000
_symmetry_Int_Tables_number 1

loop_
_symmetry_equiv_pos_as_xyz
'x,y,z'

loop_
_atom_site_label
_atom_site_type_symbol
_atom_site_fract_x
_atom_site_fract_y
_atom_site_fract_z
Cu11	Cu1	0.495560	0.761150	0.547980
O11	O1	0.577690	0.742390	0.688520
O21	O2	0.576710	0.804800	0.823500
O31	O3	0.512190	0.846780	0.559990
O41	O4	0.627190	0.848260	0.567200
N11	N1	0.404290	0.766830	0.407900
N21	N2	0.465630	0.675830	0.532590
N31	N3	0.570980	0.928870	0.799930
C11	C1	0.375000	0.816250	0.350900
H11	H1	0.396800	0.852700	0.380200
C21	C2	0.313810	0.815200	0.250400
H21	H2	0.293700	0.850600	0.212900
C31	C3	0.283000	0.762900	0.206300
H31	H3	0.241900	0.761400	0.137100
C41	C4	0.312500	0.711700	0.263800
H41	H4	0.291700	0.675000	0.234000
C51	C5	0.372860	0.714510	0.365600
C61	C6	0.407320	0.663160	0.436300
C71	C7	0.383500	0.605750	0.409700
H51	H5	0.343000	0.597400	0.342100
C81	C8	0.419200	0.560840	0.482600
H61	H6	0.403300	0.521600	0.465700
C91	C9	0.478400	0.573990	0.580300
H71	H7	0.503600	0.544000	0.631300
C101	C10	0.500560	0.631840	0.602700
H81	H8	0.541500	0.640800	0.669300
C111	C11	0.644260	0.923790	0.848300
H91	H9	0.665400	0.886000	0.865200
C121	C12	0.689730	0.972860	0.874100
H101	H10	0.741100	0.968400	0.907900
C131	C13	0.659100	0.027380	0.850100
H111	H11	0.689300	0.061000	0.867200
C141	C14	0.583400	0.033250	0.800300
H121	H12	0.561600	0.070800	0.782900
C151	C15	0.540230	0.982820	0.776400
C161	C16	0.603510	0.763300	0.785900
C171	C17	0.673240	0.736750	0.865500
H131	H13	0.688400	0.700500	0.846400
C181	C18	0.714990	0.761980	0.962200
H141	H14	0.698400	0.797200	0.982900
C191	C19	0.569200	0.873000	0.558800
C201	C20	0.564830	0.938210	0.546300
H151	H15	0.609000	0.959400	0.566800
C211	C21	0.502030	0.968300	0.507800
H161	H16	0.457900	0.947300	0.489800
O51	O5	0.568740	0.749070	0.445000
H171	H17	0.590000	0.716000	0.462000
H181	H18	0.605100	0.769700	0.485000
Cu21	Cu2	0.995560	0.261150	0.547980
O61	O6	0.077690	0.242390	0.688520
O71	O7	0.076710	0.304800	0.823500
O81	O8	0.012190	0.346780	0.559990
O91	O9	0.127190	0.348260	0.567200
N41	N4	0.904290	0.266830	0.407900
N51	N5	0.965630	0.175830	0.532590
N61	N6	0.070980	0.428870	0.799930
C221	C22	0.875000	0.316250	0.350900
H191	H19	0.896800	0.352700	0.380200
C231	C23	0.813810	0.315200	0.250400
H201	H20	0.793700	0.350600	0.212900
C241	C24	0.783000	0.262900	0.206300
H211	H21	0.741900	0.261400	0.137100
C251	C25	0.812500	0.211700	0.263800
H221	H22	0.791700	0.175000	0.234000
C261	C26	0.872860	0.214510	0.365600
C271	C27	0.907320	0.163160	0.436300
C281	C28	0.883500	0.105750	0.409700
H231	H23	0.843000	0.097400	0.342100
C291	C29	0.919200	0.060840	0.482600
H241	H24	0.903300	0.021600	0.465700
C301	C30	0.978400	0.073990	0.580300
H251	H25	0.003600	0.044000	0.631300
C311	C31	0.000560	0.131840	0.602700
H261	H26	0.041500	0.140800	0.669300
C321	C32	0.144260	0.423790	0.848300
H271	H27	0.165400	0.386000	0.865200
C331	C33	0.189730	0.472860	0.874100
H281	H28	0.241100	0.468400	0.907900
C341	C34	0.159100	0.527380	0.850100
H291	H29	0.189300	0.561000	0.867200
C351	C35	0.083400	0.533250	0.800300
H301	H30	0.061600	0.570800	0.782900
C361	C36	0.040230	0.482820	0.776400
C371	C37	0.103510	0.263300	0.785900
C381	C38	0.173240	0.236750	0.865500
H311	H31	0.188400	0.200500	0.846400
C391	C39	0.214990	0.261980	0.962200
H321	H32	0.198400	0.297200	0.982900
C401	C40	0.069200	0.373000	0.558800
C411	C41	0.064830	0.438210	0.546300
H331	H33	0.109000	0.459400	0.566800
C421	C42	0.002030	0.468300	0.507800
H341	H34	0.957900	0.447300	0.489800
O101	O10	0.068740	0.249070	0.445000
H351	H35	0.090000	0.216000	0.462000
H361	H36	0.105100	0.269700	0.485000
Cu31	Cu3	0.504440	0.761150	0.952020
O111	O11	0.422310	0.742390	0.811480
O121	O12	0.423290	0.804800	0.676500
O131	O13	0.487810	0.846780	0.940010
O141	O14	0.372810	0.848260	0.932800
N71	N7	0.595710	0.766830	0.092100
N81	N8	0.534370	0.675830	0.967410
N91	N9	0.429020	0.928870	0.700070
C431	C43	0.625000	0.816250	0.149100
H371	H37	0.603200	0.852700	0.119800
C441	C44	0.686190	0.815200	0.249600
H381	H38	0.706300	0.850600	0.287100
C451	C45	0.717000	0.762900	0.293700
H391	H39	0.758100	0.761400	0.362900
C461	C46	0.687500	0.711700	0.236200
H401	H40	0.708300	0.675000	0.266000
C471	C47	0.627140	0.714510	0.134400
C481	C48	0.592680	0.663160	0.063700
C491	C49	0.616500	0.605750	0.090300
H411	H41	0.657000	0.597400	0.157900
C501	C50	0.580800	0.560840	0.017400
H421	H42	0.596700	0.521600	0.034300
C511	C51	0.521600	0.573990	0.919700
H431	H43	0.496400	0.544000	0.868700
C521	C52	0.499440	0.631840	0.897300
H441	H44	0.458500	0.640800	0.830700
C531	C53	0.355740	0.923790	0.651700
H451	H45	0.334600	0.886000	0.634800
C541	C54	0.310270	0.972860	0.625900
H461	H46	0.258900	0.968400	0.592100
C551	C55	0.340900	0.027380	0.649900
H471	H47	0.310700	0.061000	0.632800
C561	C56	0.416600	0.033250	0.699700
H481	H48	0.438400	0.070800	0.717100
C571	C57	0.459770	0.982820	0.723600
C581	C58	0.396490	0.763300	0.714100
C591	C59	0.326760	0.736750	0.634500
H491	H49	0.311600	0.700500	0.653600
C601	C60	0.285010	0.761980	0.537800
H501	H50	0.301600	0.797200	0.517100
C611	C61	0.430800	0.873000	0.941200
C621	C62	0.435170	0.938210	0.953700
H511	H51	0.391000	0.959400	0.933200
C631	C63	0.497970	0.968300	0.992200
H521	H52	0.542100	0.947300	0.010200
O151	O15	0.431260	0.749070	0.055000
H531	H53	0.410000	0.716000	0.038000
H541	H54	0.394900	0.769700	0.015000
Cu41	Cu4	0.004440	0.261150	0.952020
O161	O16	0.922310	0.242390	0.811480
O171	O17	0.923290	0.304800	0.676500
O181	O18	0.987810	0.346780	0.940010
O191	O19	0.872810	0.348260	0.932800
N101	N10	0.095710	0.266830	0.092100
N111	N11	0.034370	0.175830	0.967410
N121	N12	0.929020	0.428870	0.700070
C641	C64	0.125000	0.316250	0.149100
H551	H55	0.103200	0.352700	0.119800
C651	C65	0.186190	0.315200	0.249600
H561	H56	0.206300	0.350600	0.287100
C661	C66	0.217000	0.262900	0.293700
H571	H57	0.258100	0.261400	0.362900
C671	C67	0.187500	0.211700	0.236200
H581	H58	0.208300	0.175000	0.266000
C681	C68	0.127140	0.214510	0.134400
C691	C69	0.092680	0.163160	0.063700
C701	C70	0.116500	0.105750	0.090300
H591	H59	0.157000	0.097400	0.157900
C711	C71	0.080800	0.060840	0.017400
H601	H60	0.096700	0.021600	0.034300
C721	C72	0.021600	0.073990	0.919700
H611	H61	0.996400	0.044000	0.868700
C731	C73	0.999440	0.131840	0.897300
H621	H62	0.958500	0.140800	0.830700
C741	C74	0.855740	0.423790	0.651700
H631	H63	0.834600	0.386000	0.634800
C751	C75	0.810270	0.472860	0.625900
H641	H64	0.758900	0.468400	0.592100
C761	C76	0.840900	0.527380	0.649900
H651	H65	0.810700	0.561000	0.632800
C771	C77	0.916600	0.533250	0.699700
H661	H66	0.938400	0.570800	0.717100
C781	C78	0.959770	0.482820	0.723600
C791	C79	0.896490	0.263300	0.714100
C801	C80	0.826760	0.236750	0.634500
H671	H67	0.811600	0.200500	0.653600
C811	C81	0.785010	0.261980	0.537800
H681	H68	0.801600	0.297200	0.517100
C821	C82	0.930800	0.373000	0.941200
C831	C83	0.935170	0.438210	0.953700
H691	H69	0.891000	0.459400	0.933200
C841	C84	0.997970	0.468300	0.992200
H701	H70	0.042100	0.447300	0.010200
O201	O20	0.931260	0.249070	0.055000
H711	H71	0.910000	0.216000	0.038000
H721	H72	0.894900	0.269700	0.015000
Cu51	Cu5	0.504440	0.238850	0.452020
O211	O21	0.422310	0.257610	0.311480
O221	O22	0.423290	0.195200	0.176500
O231	O23	0.487810	0.153220	0.440010
O241	O24	0.372810	0.151740	0.432800
N131	N13	0.595710	0.233170	0.592100
N141	N14	0.534370	0.324170	0.467410
N151	N15	0.429020	0.071130	0.200070
C851	C85	0.625000	0.183750	0.649100
H731	H73	0.603200	0.147300	0.619800
C861	C86	0.686190	0.184800	0.749600
H741	H74	0.706300	0.149400	0.787100
C871	C87	0.717000	0.237100	0.793700
H751	H75	0.758100	0.238600	0.862900
C881	C88	0.687500	0.288300	0.736200
H761	H76	0.708300	0.325000	0.766000
C891	C89	0.627140	0.285490	0.634400
C901	C90	0.592680	0.336840	0.563700
C911	C91	0.616500	0.394250	0.590300
H771	H77	0.657000	0.402600	0.657900
C921	C92	0.580800	0.439160	0.517400
H781	H78	0.596700	0.478400	0.534300
C931	C93	0.521600	0.426010	0.419700
H791	H79	0.496400	0.456000	0.368700
C941	C94	0.499440	0.368160	0.397300
H801	H80	0.458500	0.359200	0.330700
C951	C95	0.355740	0.076210	0.151700
H811	H81	0.334600	0.114000	0.134800
C961	C96	0.310270	0.027140	0.125900
H821	H82	0.258900	0.031600	0.092100
C971	C97	0.340900	0.972620	0.149900
H831	H83	0.310700	0.939000	0.132800
C981	C98	0.416600	0.966750	0.199700
H841	H84	0.438400	0.929200	0.217100
C991	C99	0.459770	0.017180	0.223600
C1001	C100	0.396490	0.236700	0.214100
C1011	C101	0.326760	0.263250	0.134500
H851	H85	0.311600	0.299500	0.153600
C1021	C102	0.285010	0.238020	0.037800
H861	H86	0.301600	0.202800	0.017100
C1031	C103	0.430800	0.127000	0.441200
C1041	C104	0.435170	0.061790	0.453700
H871	H87	0.391000	0.040600	0.433200
C1051	C105	0.497970	0.031700	0.492200
H881	H88	0.542100	0.052700	0.510200
O251	O25	0.431260	0.250930	0.555000
H891	H89	0.410000	0.284000	0.538000
H901	H90	0.394900	0.230300	0.515000
Cu61	Cu6	0.004440	0.738850	0.452020
O261	O26	0.922310	0.757610	0.311480
O271	O27	0.923290	0.695200	0.176500
O281	O28	0.987810	0.653220	0.440010
O291	O29	0.872810	0.651740	0.432800
N161	N16	0.095710	0.733170	0.592100
N171	N17	0.034370	0.824170	0.467410
N181	N18	0.929020	0.571130	0.200070
C1061	C106	0.125000	0.683750	0.649100
H911	H91	0.103200	0.647300	0.619800
C1071	C107	0.186190	0.684800	0.749600
H921	H92	0.206300	0.649400	0.787100
C1081	C108	0.217000	0.737100	0.793700
H931	H93	0.258100	0.738600	0.862900
C1091	C109	0.187500	0.788300	0.736200
H941	H94	0.208300	0.825000	0.766000
C1101	C110	0.127140	0.785490	0.634400
C1111	C111	0.092680	0.836840	0.563700
C1121	C112	0.116500	0.894250	0.590300
H951	H95	0.157000	0.902600	0.657900
C1131	C113	0.080800	0.939160	0.517400
H961	H96	0.096700	0.978400	0.534300
C1141	C114	0.021600	0.926010	0.419700
H971	H97	0.996400	0.956000	0.368700
C1151	C115	0.999440	0.868160	0.397300
H981	H98	0.958500	0.859200	0.330700
C1161	C116	0.855740	0.576210	0.151700
H991	H99	0.834600	0.614000	0.134800
C1171	C117	0.810270	0.527140	0.125900
H1001	H100	0.758900	0.531600	0.092100
C1181	C118	0.840900	0.472620	0.149900
H1011	H101	0.810700	0.439000	0.132800
C1191	C119	0.916600	0.466750	0.199700
H1021	H102	0.938400	0.429200	0.217100
C1201	C120	0.959770	0.517180	0.223600
C1211	C121	0.896490	0.736700	0.214100
C1221	C122	0.826760	0.763250	0.134500
H1031	H103	0.811600	0.799500	0.153600
C1231	C123	0.785010	0.738020	0.037800
H1041	H104	0.801600	0.702800	0.017100
C1241	C124	0.930800	0.627000	0.441200
C1251	C125	0.935170	0.561790	0.453700
H1051	H105	0.891000	0.540600	0.433200
C1261	C126	0.997970	0.531700	0.492200
H1061	H106	0.042100	0.552700	0.510200
O301	O30	0.931260	0.750930	0.555000
H1071	H107	0.910000	0.784000	0.538000
H1081	H108	0.894900	0.730300	0.515000
Cu71	Cu7	0.495560	0.238850	0.047980
O311	O31	0.577690	0.257610	0.188520
O321	O32	0.576710	0.195200	0.323500
O331	O33	0.512190	0.153220	0.059990
O341	O34	0.627190	0.151740	0.067200
N191	N19	0.404290	0.233170	0.907900
N201	N20	0.465630	0.324170	0.032590
N211	N21	0.570980	0.071130	0.299930
C1271	C127	0.375000	0.183750	0.850900
H1091	H109	0.396800	0.147300	0.880200
C1281	C128	0.313810	0.184800	0.750400
H1101	H110	0.293700	0.149400	0.712900
C1291	C129	0.283000	0.237100	0.706300
H1111	H111	0.241900	0.238600	0.637100
C1301	C130	0.312500	0.288300	0.763800
H1121	H112	0.291700	0.325000	0.734000
C1311	C131	0.372860	0.285490	0.865600
C1321	C132	0.407320	0.336840	0.936300
C1331	C133	0.383500	0.394250	0.909700
H1131	H113	0.343000	0.402600	0.842100
C1341	C134	0.419200	0.439160	0.982600
H1141	H114	0.403300	0.478400	0.965700
C1351	C135	0.478400	0.426010	0.080300
H1151	H115	0.503600	0.456000	0.131300
C1361	C136	0.500560	0.368160	0.102700
H1161	H116	0.541500	0.359200	0.169300
C1371	C137	0.644260	0.076210	0.348300
H1171	H117	0.665400	0.114000	0.365200
C1381	C138	0.689730	0.027140	0.374100
H1181	H118	0.741100	0.031600	0.407900
C1391	C139	0.659100	0.972620	0.350100
H1191	H119	0.689300	0.939000	0.367200
C1401	C140	0.583400	0.966750	0.300300
H1201	H120	0.561600	0.929200	0.282900
C1411	C141	0.540230	0.017180	0.276400
C1421	C142	0.603510	0.236700	0.285900
C1431	C143	0.673240	0.263250	0.365500
H1211	H121	0.688400	0.299500	0.346400
C1441	C144	0.714990	0.238020	0.462200
H1221	H122	0.698400	0.202800	0.482900
C1451	C145	0.569200	0.127000	0.058800
C1461	C146	0.564830	0.061790	0.046300
H1231	H123	0.609000	0.040600	0.066800
C1471	C147	0.502030	0.031700	0.007800
H1241	H124	0.457900	0.052700	0.989800
O351	O35	0.568740	0.250930	0.945000
H1251	H125	0.590000	0.284000	0.962000
H1261	H126	0.605100	0.230300	0.985000
Cu81	Cu8	0.995560	0.738850	0.047980
O361	O36	0.077690	0.757610	0.188520
O371	O37	0.076710	0.695200	0.323500
O381	O38	0.012190	0.653220	0.059990
O391	O39	0.127190	0.651740	0.067200
N221	N22	0.904290	0.733170	0.907900
N231	N23	0.965630	0.824170	0.032590
N241	N24	0.070980	0.571130	0.299930
C1481	C148	0.875000	0.683750	0.850900
H1271	H127	0.896800	0.647300	0.880200
C1491	C149	0.813810	0.684800	0.750400
H1281	H128	0.793700	0.649400	0.712900
C1501	C150	0.783000	0.737100	0.706300
H1291	H129	0.741900	0.738600	0.637100
C1511	C151	0.812500	0.788300	0.763800
H1301	H130	0.791700	0.825000	0.734000
C1521	C152	0.872860	0.785490	0.865600
C1531	C153	0.907320	0.836840	0.936300
C1541	C154	0.883500	0.894250	0.909700
H1311	H131	0.843000	0.902600	0.842100
C1551	C155	0.919200	0.939160	0.982600
H1321	H132	0.903300	0.978400	0.965700
C1561	C156	0.978400	0.926010	0.080300
H1331	H133	0.003600	0.956000	0.131300
C1571	C157	0.000560	0.868160	0.102700
H1341	H134	0.041500	0.859200	0.169300
C1581	C158	0.144260	0.576210	0.348300
H1351	H135	0.165400	0.614000	0.365200
C1591	C159	0.189730	0.527140	0.374100
H1361	H136	0.241100	0.531600	0.407900
C1601	C160	0.159100	0.472620	0.350100
H1371	H137	0.189300	0.439000	0.367200
C1611	C161	0.083400	0.466750	0.300300
H1381	H138	0.061600	0.429200	0.282900
C1621	C162	0.040230	0.517180	0.276400
C1631	C163	0.103510	0.736700	0.285900
C1641	C164	0.173240	0.763250	0.365500
H1391	H139	0.188400	0.799500	0.346400
C1651	C165	0.214990	0.738020	0.462200
H1401	H140	0.198400	0.702800	0.482900
C1661	C166	0.069200	0.627000	0.058800
C1671	C167	0.064830	0.561790	0.046300
H1411	H141	0.109000	0.540600	0.066800
C1681	C168	0.002030	0.531700	0.007800
H1421	H142	0.957900	0.552700	0.989800
O401	O40	0.068740	0.750930	0.945000
H1431	H143	0.090000	0.784000	0.962000
H1441	H144	0.105100	0.730300	0.985000
Cu91	Cu9	0.500000	0.862120	0.750000
Cu101	Cu10	0.000000	0.362120	0.750000
Cu111	Cu11	0.500000	0.137880	0.250000
Cu121	Cu12	0.000000	0.637880	0.250000
