data_GUMDEZ_freeONLY_PM
_symmetry_space_group_name_H-M	'P1'
_cell_length_a	11.270000
_cell_length_b	9.842000
_cell_length_c	13.990000
_cell_angle_alpha	90.000000
_cell_angle_beta	93.250000
_cell_angle_gamma	90.000000
_symmetry_Int_Tables_number 1

loop_
_symmetry_equiv_pos_as_xyz
'x,y,z'

loop_
_atom_site_label
_atom_site_type_symbol
_atom_site_fract_x
_atom_site_fract_y
_atom_site_fract_z
Zn11	Zn1	0.744720	0.252330	0.840550
S11	S1	0.777400	0.065000	0.673700
C11	C1	0.598500	0.302800	0.007000
H11	H1	0.629100	0.390500	0.011000
C21	C2	0.567100	0.097900	0.961200
C31	C3	0.563400	0.974000	0.914800
H21	H2	0.602600	0.957000	0.859300
C41	C4	0.495700	0.877500	0.958700
C51	C5	0.980700	0.318300	0.939200
H31	H3	0.975600	0.409500	0.922300
C61	C6	0.042800	0.125900	0.004500
C71	C7	0.107900	0.029400	0.059300
H41	H4	0.174800	0.050900	0.098400
C81	C8	0.937100	0.100500	0.950400
C91	C9	0.896300	0.103500	0.694000
H51	H5	0.909600	0.191700	0.667400
H61	H6	0.948000	0.038700	0.666300
H71	H7	0.912600	0.106200	0.762000
C101	C10	0.741600	0.062800	0.573700
H81	H8	0.753600	0.151100	0.546700
H91	H9	0.659000	0.039000	0.565900
H101	H10	0.788200	0.997100	0.541800
N11	N1	0.625700	0.217500	0.936300
N21	N2	0.898300	0.220400	0.907200
N31	N3	0.064500	0.268700	0.994700
N41	N4	0.471100	0.742300	0.931700
O11	O1	0.700200	0.150100	0.727000
O21	O2	0.761500	0.931000	0.714500
Zn21	Zn2	0.755280	0.752330	0.659450
S21	S2	0.722600	0.565000	0.826300
C111	C11	0.901500	0.802800	0.493000
H111	H11	0.870900	0.890500	0.489000
C121	C12	0.932900	0.597900	0.538800
C131	C13	0.936600	0.474000	0.585200
H121	H12	0.897400	0.457000	0.640700
C141	C14	0.004300	0.377500	0.541300
C151	C15	0.519300	0.818300	0.560800
H131	H13	0.524400	0.909500	0.577700
C161	C16	0.457200	0.625900	0.495500
C171	C17	0.392100	0.529400	0.440700
H141	H14	0.325200	0.550900	0.401600
C181	C18	0.562900	0.600500	0.549600
C191	C19	0.603700	0.603500	0.806000
H151	H15	0.590400	0.691700	0.832600
H161	H16	0.552000	0.538700	0.833700
H171	H17	0.587400	0.606200	0.738000
C201	C20	0.758400	0.562800	0.926300
H181	H18	0.746400	0.651100	0.953300
H191	H19	0.841000	0.539000	0.934100
H201	H20	0.711800	0.497100	0.958200
N51	N5	0.874300	0.717500	0.563700
N61	N6	0.601700	0.720400	0.592800
N71	N7	0.435500	0.768700	0.505300
N81	N8	0.028900	0.242300	0.568300
O31	O3	0.799800	0.650100	0.773000
O41	O4	0.738500	0.431000	0.785500
Zn31	Zn3	0.255280	0.747670	0.159450
S31	S3	0.222600	0.935000	0.326300
C211	C21	0.401500	0.697200	0.993000
H211	H21	0.370900	0.609500	0.989000
C221	C22	0.432900	0.902100	0.038800
C231	C23	0.436600	0.026000	0.085200
H221	H22	0.397400	0.043000	0.140700
C241	C24	0.504300	0.122500	0.041300
C251	C25	0.019300	0.681700	0.060800
H231	H23	0.024400	0.590500	0.077700
C261	C26	0.957200	0.874100	0.995500
C271	C27	0.892100	0.970600	0.940700
H241	H24	0.825200	0.949100	0.901600
C281	C28	0.062900	0.899500	0.049600
C291	C29	0.103700	0.896500	0.306000
H251	H25	0.090400	0.808300	0.332600
H261	H26	0.052000	0.961300	0.333700
H271	H27	0.087400	0.893800	0.238000
C301	C30	0.258400	0.937200	0.426300
H281	H28	0.246400	0.848900	0.453300
H291	H29	0.341000	0.961000	0.434100
H301	H30	0.211800	0.002900	0.458200
N91	N9	0.374300	0.782500	0.063700
N101	N10	0.101700	0.779600	0.092800
N111	N11	0.935500	0.731300	0.005300
N121	N12	0.528900	0.257700	0.068300
O51	O5	0.299800	0.849900	0.273000
O61	O6	0.238500	0.069000	0.285500
Zn41	Zn4	0.244720	0.247670	0.340550
S41	S4	0.277400	0.435000	0.173700
C311	C31	0.098500	0.197200	0.507000
H311	H31	0.129100	0.109500	0.511000
C321	C32	0.067100	0.402100	0.461200
C331	C33	0.063400	0.526000	0.414800
H321	H32	0.102600	0.543000	0.359300
C341	C34	0.995700	0.622500	0.458700
C351	C35	0.480700	0.181700	0.439200
H331	H33	0.475600	0.090500	0.422300
C361	C36	0.542800	0.374100	0.504500
C371	C37	0.607900	0.470600	0.559300
H341	H34	0.674800	0.449100	0.598400
C381	C38	0.437100	0.399500	0.450400
C391	C39	0.396300	0.396500	0.194000
H351	H35	0.409600	0.308300	0.167400
H361	H36	0.448000	0.461300	0.166300
H371	H37	0.412600	0.393800	0.262000
C401	C40	0.241600	0.437200	0.073700
H381	H38	0.253600	0.348900	0.046700
H391	H39	0.159000	0.461000	0.065900
H401	H40	0.288200	0.502900	0.041800
N131	N13	0.125700	0.282500	0.436300
N141	N14	0.398300	0.279600	0.407200
N151	N15	0.564500	0.231300	0.494700
N161	N16	0.971100	0.757700	0.431700
O71	O7	0.200200	0.349900	0.227000
O81	O8	0.261500	0.569000	0.214500
