data_GUPBUP_SL_PM
_symmetry_space_group_name_H-M	'P1'
_cell_length_a	15.692900
_cell_length_b	15.692900
_cell_length_c	15.692900
_cell_angle_alpha	109.471000
_cell_angle_beta	109.471000
_cell_angle_gamma	109.471000
_symmetry_Int_Tables_number 1

loop_
_symmetry_equiv_pos_as_xyz
'x,y,z'

loop_
_atom_site_label
_atom_site_type_symbol
_atom_site_fract_x
_atom_site_fract_y
_atom_site_fract_z
Cd11	Cd1	0.750000	0.500000	0.250000
Cd21	Cd2	0.250000	0.500000	0.750000
Cd31	Cd3	0.250000	0.750000	0.500000
Cd41	Cd4	0.750000	0.250000	0.500000
Cd51	Cd5	0.500000	0.750000	0.250000
Cd61	Cd6	0.500000	0.250000	0.750000
H11	H1	0.584960	0.488870	0.357440
H21	H2	0.131430	0.227520	0.642560
H31	H3	0.868570	0.511130	0.096080
H41	H4	0.415040	0.772480	0.903910
H51	H5	0.096080	0.868570	0.511130
H61	H6	0.903910	0.415040	0.772480
H71	H7	0.357440	0.584960	0.488870
H81	H8	0.642560	0.131430	0.227520
H91	H9	0.227520	0.642560	0.131430
H101	H10	0.488870	0.357440	0.584960
H111	H11	0.772480	0.903910	0.415040
H121	H12	0.511130	0.096080	0.868570
H131	H13	0.227520	0.131430	0.642560
H141	H14	0.488870	0.584960	0.357440
H151	H15	0.772480	0.415040	0.903910
H161	H16	0.511130	0.868570	0.096080
H171	H17	0.584960	0.357440	0.488870
H181	H18	0.131430	0.642560	0.227520
H191	H19	0.868570	0.096080	0.511130
H201	H20	0.415040	0.903910	0.772480
H211	H21	0.096080	0.511130	0.868570
H221	H22	0.903910	0.772480	0.415040
H231	H23	0.357440	0.488870	0.584960
H241	H24	0.642560	0.227520	0.131430
C11	C1	0.593200	0.541600	0.321800
C21	C2	0.219800	0.271400	0.678200
C31	C3	0.780200	0.458400	0.051600
C41	C4	0.406800	0.728600	0.948400
C51	C5	0.051600	0.780200	0.458400
C61	C6	0.948400	0.406800	0.728600
C71	C7	0.321800	0.593200	0.541600
C81	C8	0.678200	0.219800	0.271400
C91	C9	0.271400	0.678200	0.219800
C101	C10	0.541600	0.321800	0.593200
C111	C11	0.728600	0.948400	0.406800
C121	C12	0.458400	0.051600	0.780200
C131	C13	0.271400	0.219800	0.678200
C141	C14	0.541600	0.593200	0.321800
C151	C15	0.728600	0.406800	0.948400
C161	C16	0.458400	0.780200	0.051600
C171	C17	0.593200	0.321800	0.541600
C181	C18	0.219800	0.678200	0.271400
C191	C19	0.780200	0.051600	0.458400
C201	C20	0.406800	0.948400	0.728600
C211	C21	0.051600	0.458400	0.780200
C221	C22	0.948400	0.728600	0.406800
C231	C23	0.321800	0.541600	0.593200
C241	C24	0.678200	0.271400	0.219800
C251	C25	0.672200	0.672200	0.190200
C261	C26	0.624100	0.624100	0.247800
C271	C27	0.482000	0.482000	0.809800
C281	C28	0.376300	0.376300	0.752200
C291	C29	0.518000	0.327800	0.000000
C301	C30	0.623700	0.375900	0.000000
C311	C31	0.327800	0.518000	0.000000
C321	C32	0.375900	0.623700	0.000000
C331	C33	0.000000	0.518000	0.327800
C341	C34	0.000000	0.623700	0.375900
C351	C35	0.000000	0.327800	0.518000
C361	C36	0.000000	0.375900	0.623700
C371	C37	0.190200	0.672200	0.672200
C381	C38	0.247800	0.624100	0.624100
C391	C39	0.809800	0.482000	0.482000
C401	C40	0.752200	0.376300	0.376300
C411	C41	0.482000	0.809800	0.482000
C421	C42	0.376300	0.752200	0.376300
C431	C43	0.672200	0.190200	0.672200
C441	C44	0.624100	0.247800	0.624100
C451	C45	0.518000	0.000000	0.327800
C461	C46	0.623700	0.000000	0.375900
C471	C47	0.327800	0.000000	0.518000
C481	C48	0.375900	0.000000	0.623700
N11	N1	0.650200	0.564500	0.275100
N21	N2	0.289400	0.375100	0.724900
N31	N3	0.710600	0.435500	0.085700
N41	N4	0.349800	0.624900	0.914300
N51	N5	0.085700	0.710600	0.435500
N61	N6	0.914300	0.349800	0.624900
N71	N7	0.275100	0.650200	0.564500
N81	N8	0.724900	0.289400	0.375100
N91	N9	0.375100	0.724900	0.289400
N101	N10	0.564500	0.275100	0.650200
N111	N11	0.624900	0.914300	0.349800
N121	N12	0.435500	0.085700	0.710600
N131	N13	0.375100	0.289400	0.724900
N141	N14	0.564500	0.650200	0.275100
N151	N15	0.624900	0.349800	0.914300
N161	N16	0.435500	0.710600	0.085700
N171	N17	0.650200	0.275100	0.564500
N181	N18	0.289400	0.724900	0.375100
N191	N19	0.710600	0.085700	0.435500
N201	N20	0.349800	0.914300	0.624900
N211	N21	0.085700	0.435500	0.710600
N221	N22	0.914300	0.624900	0.349800
N231	N23	0.275100	0.564500	0.650200
N241	N24	0.724900	0.375100	0.289400
H251	H25	0.614850	0.687240	0.138880
H261	H26	0.688160	0.615270	0.139640
H271	H27	0.748370	0.748860	0.250440
H281	H28	0.488950	0.507870	0.751460
H291	H29	0.550300	0.470070	0.845320
H301	H30	0.483160	0.544480	0.874260
H311	H31	0.496860	0.246920	0.990190
H321	H32	0.453350	0.321350	0.932760
H331	H33	0.527380	0.380360	0.077050
H341	H34	0.393320	0.505480	0.042020
H351	H35	0.274340	0.450580	0.916120
H361	H36	0.280970	0.521520	0.041860
H371	H37	0.022040	0.512530	0.264680
H381	H38	0.918890	0.449600	0.292170
H391	H39	0.059070	0.515460	0.391770
H411	H41	0.048960	0.393330	0.509450
H421	H42	0.916530	0.280930	0.449870
H431	H43	0.034510	0.274370	0.518260
H441	H44	0.134240	0.612460	0.681520
H451	H45	0.144510	0.693860	0.618090
H461	H46	0.250210	0.745050	0.751770
H471	H47	0.855490	0.549350	0.473580
H481	H48	0.865760	0.478230	0.547280
H491	H49	0.749790	0.494840	0.501560
H501	H50	0.546650	0.868000	0.479410
H511	H51	0.503140	0.750060	0.493330
H521	H52	0.472620	0.852980	0.549670
H531	H53	0.725670	0.176240	0.641780
H541	H54	0.606680	0.112160	0.648690
H551	H55	0.719030	0.240550	0.760900
H561	H56	0.449700	0.919770	0.295020
H571	H57	0.511050	0.018910	0.262510
H581	H58	0.516840	0.061320	0.391100
H601	H60	0.311840	0.927110	0.451480
H611	H61	0.385150	0.072390	0.524030
H621	H62	0.251630	0.000500	0.502080
