data_GUPCAW_freeONLY_PM
_symmetry_space_group_name_H-M	'P1'
_cell_length_a	20.287000
_cell_length_b	23.017300
_cell_length_c	23.017300
_cell_angle_alpha	78.801500
_cell_angle_beta	63.852000
_cell_angle_gamma	63.852100
_symmetry_Int_Tables_number 1

loop_
_symmetry_equiv_pos_as_xyz
'x,y,z'

loop_
_atom_site_label
_atom_site_type_symbol
_atom_site_fract_x
_atom_site_fract_y
_atom_site_fract_z
Cd11	Cd1	0.422670	0.844170	0.625650
Cd21	Cd2	0.733100	0.844200	0.374320
Cd31	Cd3	0.892490	0.155830	0.374350
Cd41	Cd4	0.951620	0.155800	0.625680
Cd51	Cd5	0.048320	0.374350	0.844170
Cd61	Cd6	0.107420	0.625680	0.844200
Cd71	Cd7	0.266840	0.625650	0.155830
Cd81	Cd8	0.577300	0.374320	0.155800
Cd91	Cd9	0.577330	0.155830	0.374350
Cd101	Cd10	0.266900	0.155800	0.625680
Cd111	Cd11	0.107510	0.844170	0.625650
Cd121	Cd12	0.048380	0.844200	0.374320
Cd131	Cd13	0.951680	0.625650	0.155830
Cd141	Cd14	0.892580	0.374320	0.155800
Cd151	Cd15	0.733160	0.374350	0.844170
Cd161	Cd16	0.422700	0.625680	0.844200
H11	H1	0.396900	0.828000	0.494200
H21	H2	0.484300	0.699100	0.638100
H31	H3	0.442400	0.656800	0.689200
H41	H4	0.527400	0.648500	0.679900
H51	H5	0.774300	0.830300	0.506700
H61	H6	0.266700	0.042900	0.576500
H71	H7	0.263100	0.976900	0.607500
H81	H8	0.338600	0.977700	0.545900
H91	H9	0.377700	0.062400	0.703200
H101	H10	0.440900	0.939300	0.701300
H111	H11	0.731000	0.723700	0.480300
H121	H12	0.619300	0.726200	0.578000
H131	H13	0.395300	0.862000	0.777200
H141	H14	0.397300	0.777400	0.860400
H151	H15	0.719100	0.172000	0.505800
H161	H16	0.821500	0.300900	0.361900
H171	H17	0.788400	0.343200	0.310800
H181	H18	0.855800	0.351500	0.320100
H191	H19	0.111300	0.169700	0.493300
H201	H20	0.886100	0.957100	0.423500
H211	H21	0.847500	0.023100	0.392500
H221	H22	0.862200	0.022300	0.454100
H231	H23	0.143300	0.937600	0.296800
H241	H24	0.081500	0.060700	0.298700
H251	H25	0.935000	0.276300	0.519700
H261	H26	0.923500	0.273800	0.422000
H271	H27	0.034500	0.138000	0.222800
H281	H28	0.035100	0.222600	0.139600
H291	H29	0.891100	0.505800	0.828000
H301	H30	0.122400	0.361900	0.699100
H311	H31	0.131600	0.310800	0.656800
H321	H32	0.207300	0.320100	0.648500
H331	H33	0.281000	0.493300	0.830300
H341	H34	0.843200	0.423500	0.042900
H351	H35	0.870600	0.392500	0.976900
H361	H36	0.884500	0.454100	0.977700
H371	H37	0.080900	0.296800	0.062400
H381	H38	0.142200	0.298700	0.939300
H391	H39	0.211300	0.519700	0.723700
H401	H40	0.197300	0.422000	0.726200
H411	H41	0.172500	0.222800	0.862000
H421	H42	0.257700	0.139600	0.777400
H431	H43	0.224900	0.494200	0.172000
H441	H44	0.183400	0.638100	0.300900
H451	H45	0.099200	0.689200	0.343200
H461	H46	0.175900	0.679900	0.351500
H471	H47	0.604600	0.506700	0.169700
H481	H48	0.309600	0.576500	0.957100
H491	H49	0.240000	0.607500	0.023100
H501	H50	0.316300	0.545900	0.022300
H511	H51	0.440100	0.703200	0.937600
H521	H52	0.380200	0.701300	0.060700
H531	H53	0.454700	0.480300	0.276300
H541	H54	0.345500	0.578000	0.273800
H551	H55	0.257300	0.777200	0.138000
H561	H56	0.174700	0.860400	0.222600
H571	H57	0.603100	0.172000	0.505800
H581	H58	0.515700	0.300900	0.361900
H591	H59	0.557600	0.343200	0.310800
H601	H60	0.472600	0.351500	0.320100
H611	H61	0.225700	0.169700	0.493300
H621	H62	0.733300	0.957100	0.423500
H631	H63	0.736900	0.023100	0.392500
H641	H64	0.661400	0.022300	0.454100
H651	H65	0.622300	0.937600	0.296800
H661	H66	0.559100	0.060700	0.298700
H671	H67	0.269000	0.276300	0.519700
H681	H68	0.380700	0.273800	0.422000
H691	H69	0.604700	0.138000	0.222800
H701	H70	0.602700	0.222600	0.139600
H711	H71	0.280900	0.828000	0.494200
H721	H72	0.178500	0.699100	0.638100
H731	H73	0.211600	0.656800	0.689200
H741	H74	0.144200	0.648500	0.679900
H751	H75	0.888700	0.830300	0.506700
H761	H76	0.113900	0.042900	0.576500
H771	H77	0.152500	0.976900	0.607500
H781	H78	0.137800	0.977700	0.545900
H791	H79	0.856700	0.062400	0.703200
H801	H80	0.918500	0.939300	0.701300
H811	H81	0.065000	0.723700	0.480300
H821	H82	0.076500	0.726200	0.578000
H831	H83	0.965500	0.862000	0.777200
H841	H84	0.964900	0.777400	0.860400
H851	H85	0.108900	0.494200	0.172000
H861	H86	0.877600	0.638100	0.300900
H871	H87	0.868400	0.689200	0.343200
H881	H88	0.792700	0.679900	0.351500
H891	H89	0.719000	0.506700	0.169700
H901	H90	0.156800	0.576500	0.957100
H911	H91	0.129400	0.607500	0.023100
H921	H92	0.115500	0.545900	0.022300
H931	H93	0.919100	0.703200	0.937600
H941	H94	0.857800	0.701300	0.060700
H951	H95	0.788700	0.480300	0.276300
H961	H96	0.802700	0.578000	0.273800
H971	H97	0.827500	0.777200	0.138000
H981	H98	0.742300	0.860400	0.222600
H991	H99	0.775100	0.505800	0.828000
H1001	H100	0.816600	0.361900	0.699100
H1011	H101	0.900800	0.310800	0.656800
H1021	H102	0.824100	0.320100	0.648500
H1031	H103	0.395400	0.493300	0.830300
H1041	H104	0.690400	0.423500	0.042900
H1051	H105	0.760000	0.392500	0.976900
H1061	H106	0.683700	0.454100	0.977700
H1071	H107	0.559900	0.296800	0.062400
H1081	H108	0.619800	0.298700	0.939300
H1091	H109	0.545300	0.519700	0.723700
H1101	H110	0.654500	0.422000	0.726200
H1111	H111	0.742700	0.222800	0.862000
H1121	H112	0.825300	0.139600	0.777400
C11	C1	0.579300	0.844300	0.499700
C21	C2	0.351800	0.828900	0.531100
C31	C3	0.476500	0.679000	0.679800
C41	C4	0.439400	0.727800	0.728600
C51	C5	0.819000	0.830200	0.469800
C61	C6	0.297600	0.999500	0.585700
C71	C7	0.335000	0.000800	0.627400
C81	C8	0.371500	0.035500	0.682500
C91	C9	0.406500	0.966100	0.681500
C101	C10	0.678600	0.754700	0.492100
C111	C11	0.616900	0.755700	0.544300
C121	C12	0.404500	0.819600	0.772400
C131	C13	0.405200	0.772400	0.818400
C141	C14	0.923300	0.155700	0.500300
C151	C15	0.711800	0.171100	0.468900
C161	C16	0.835300	0.321000	0.320200
C171	C17	0.895800	0.272200	0.271400
C181	C18	0.119000	0.169800	0.530200
C191	C19	0.882800	0.000500	0.414300
C201	C20	0.963200	0.999200	0.372600
C211	C21	0.089500	0.964500	0.317500
C221	C22	0.054100	0.033900	0.318500
C231	C23	0.925400	0.245300	0.507900
C241	C24	0.916900	0.244300	0.455700
C251	C25	0.996500	0.180400	0.227600
C261	C26	0.996000	0.227600	0.181600
C271	C27	0.079000	0.500300	0.844300
C281	C28	0.882900	0.468900	0.828900
C291	C29	0.156300	0.320200	0.679000
C301	C30	0.168000	0.271400	0.727800
C311	C31	0.288800	0.530200	0.830200
C321	C32	0.883300	0.414300	0.999500
C331	C33	0.962400	0.372600	0.000800
C341	C34	0.054000	0.317500	0.035500
C351	C35	0.088000	0.318500	0.966100
C361	C36	0.170700	0.507900	0.754700
C371	C37	0.161200	0.455700	0.755700
C381	C38	0.176900	0.227600	0.819600
C391	C39	0.223600	0.181600	0.772400
C401	C40	0.423600	0.499700	0.155700
C411	C41	0.180700	0.531100	0.171100
C421	C42	0.155500	0.679800	0.321000
C431	C43	0.167200	0.728600	0.272200
C441	C44	0.649200	0.469800	0.169800
C451	C45	0.297100	0.585700	0.000500
C461	C46	0.335800	0.627400	0.999200
C471	C47	0.407000	0.682500	0.964500
C481	C48	0.372600	0.681500	0.033900
C491	C49	0.433300	0.492100	0.245300
C501	C50	0.372600	0.544300	0.244300
C511	C51	0.224100	0.772400	0.180400
C521	C52	0.177600	0.818400	0.227600
C531	C53	0.420700	0.155700	0.500300
C541	C54	0.648200	0.171100	0.468900
C551	C55	0.523500	0.321000	0.320200
C561	C56	0.560600	0.272200	0.271400
C571	C57	0.181000	0.169800	0.530200
C581	C58	0.702400	0.000500	0.414300
C591	C59	0.665000	0.999200	0.372600
C601	C60	0.628500	0.964500	0.317500
C611	C61	0.593500	0.033900	0.318500
C621	C62	0.321400	0.245300	0.507900
C631	C63	0.383100	0.244300	0.455700
C641	C64	0.595500	0.180400	0.227600
C651	C65	0.594800	0.227600	0.181600
C661	C66	0.076700	0.844300	0.499700
C671	C67	0.288200	0.828900	0.531100
C681	C68	0.164700	0.679000	0.679800
C691	C69	0.104200	0.727800	0.728600
C701	C70	0.881000	0.830200	0.469800
C711	C71	0.117200	0.999500	0.585700
C721	C72	0.036800	0.000800	0.627400
C731	C73	0.910500	0.035500	0.682500
C741	C74	0.945900	0.966100	0.681500
C751	C75	0.074600	0.754700	0.492100
C761	C76	0.083100	0.755700	0.544300
C771	C77	0.003500	0.819600	0.772400
C781	C78	0.004000	0.772400	0.818400
C791	C79	0.921000	0.499700	0.155700
C801	C80	0.117100	0.531100	0.171100
C811	C81	0.843700	0.679800	0.321000
C821	C82	0.832000	0.728600	0.272200
C831	C83	0.711200	0.469800	0.169800
C841	C84	0.116700	0.585700	0.000500
C851	C85	0.037600	0.627400	0.999200
C861	C86	0.946000	0.682500	0.964500
C871	C87	0.912000	0.681500	0.033900
C881	C88	0.829300	0.492100	0.245300
C891	C89	0.838800	0.544300	0.244300
C901	C90	0.823100	0.772400	0.180400
C911	C91	0.776400	0.818400	0.227600
C921	C92	0.576400	0.500300	0.844300
C931	C93	0.819300	0.468900	0.828900
C941	C94	0.844500	0.320200	0.679000
C951	C95	0.832800	0.271400	0.727800
C961	C96	0.350800	0.530200	0.830200
C971	C97	0.702900	0.414300	0.999500
C981	C98	0.664200	0.372600	0.000800
C991	C99	0.593000	0.317500	0.035500
C1001	C100	0.627400	0.318500	0.966100
C1011	C101	0.566700	0.507900	0.754700
C1021	C102	0.627400	0.455700	0.755700
C1031	C103	0.775900	0.227600	0.819600
C1041	C104	0.822400	0.181600	0.772400
C1051	C105	0.231400	0.833500	0.703700
C1061	C106	0.268200	0.832000	0.631600
C1071	C107	0.768600	0.166500	0.296300
C1081	C108	0.731800	0.168000	0.368400
C1091	C109	0.935100	0.296300	0.833500
C1101	C110	0.899800	0.368400	0.832000
C1111	C111	0.064900	0.703700	0.166500
C1121	C112	0.100200	0.631600	0.168000
C1131	C113	0.934800	0.832200	0.298200
C1141	C114	0.898500	0.833700	0.369300
C1151	C115	0.065200	0.167800	0.701800
C1161	C116	0.101500	0.166300	0.630700
C1171	C117	0.233000	0.701800	0.832200
C1181	C118	0.267800	0.630700	0.833700
C1191	C119	0.767000	0.298200	0.167800
C1201	C120	0.732200	0.369300	0.166300
N11	N1	0.650000	0.810900	0.455900
N21	N2	0.539600	0.811100	0.543900
N31	N3	0.343200	0.830600	0.594000
N41	N4	0.420100	0.792200	0.717200
N51	N5	0.419300	0.716400	0.793600
N61	N6	0.827200	0.830000	0.406000
N71	N7	0.327800	0.053300	0.647100
N81	N8	0.381200	0.946600	0.647200
N91	N9	0.916800	0.189100	0.544100
N101	N10	0.894600	0.188900	0.456100
N111	N11	0.767800	0.169400	0.406000
N121	N12	0.929500	0.207800	0.282800
N131	N13	0.929300	0.283600	0.206400
N141	N14	0.063200	0.170000	0.594000
N151	N15	0.028200	0.946700	0.352900
N161	N16	0.975000	0.053400	0.352800
N171	N17	0.105900	0.544100	0.810900
N181	N18	0.083500	0.456100	0.811100
N191	N19	0.937200	0.406000	0.830600
N201	N20	0.137300	0.282800	0.792200
N211	N21	0.212900	0.206400	0.716400
N221	N22	0.233200	0.594000	0.830000
N231	N23	0.974900	0.352900	0.053300
N241	N24	0.028400	0.352800	0.946600
N251	N25	0.460900	0.455900	0.189100
N261	N26	0.350700	0.543900	0.188900
N271	N27	0.173800	0.594000	0.169400
N281	N28	0.212300	0.717200	0.207800
N291	N29	0.135700	0.793600	0.283600
N301	N30	0.657200	0.406000	0.170000
N311	N31	0.381100	0.647100	0.946700
N321	N32	0.327800	0.647200	0.053400
N331	N33	0.350000	0.189100	0.544100
N341	N34	0.460400	0.188900	0.456100
N351	N35	0.656800	0.169400	0.406000
N361	N36	0.579900	0.207800	0.282800
N371	N37	0.580700	0.283600	0.206400
N381	N38	0.172800	0.170000	0.594000
N391	N39	0.672200	0.946700	0.352900
N401	N40	0.618800	0.053400	0.352800
N411	N41	0.083200	0.810900	0.455900
N421	N42	0.105400	0.811100	0.543900
N431	N43	0.232200	0.830600	0.594000
N441	N44	0.070500	0.792200	0.717200
N451	N45	0.070700	0.716400	0.793600
N461	N46	0.936800	0.830000	0.406000
N471	N47	0.971800	0.053300	0.647100
N481	N48	0.025000	0.946600	0.647200
N491	N49	0.894100	0.455900	0.189100
N501	N50	0.916500	0.543900	0.188900
N511	N51	0.062800	0.594000	0.169400
N521	N52	0.862700	0.717200	0.207800
N531	N53	0.787100	0.793600	0.283600
N541	N54	0.766800	0.406000	0.170000
N551	N55	0.025100	0.647100	0.946700
N561	N56	0.971600	0.647200	0.053400
N571	N57	0.539100	0.544100	0.810900
N581	N58	0.649300	0.456100	0.811100
N591	N59	0.826200	0.406000	0.830600
N601	N60	0.787700	0.282800	0.792200
N611	N61	0.864300	0.206400	0.716400
N621	N62	0.342800	0.594000	0.830000
N631	N63	0.618900	0.352900	0.053300
N641	N64	0.672200	0.352800	0.946600
