data_GUQTOB_freeONLY_PM
_symmetry_space_group_name_H-M	'P1'
_cell_length_a	5.003000
_cell_length_b	8.543400
_cell_length_c	12.433600
_cell_angle_alpha	92.990000
_cell_angle_beta	97.138000
_cell_angle_gamma	91.465000
_symmetry_Int_Tables_number 1

loop_
_symmetry_equiv_pos_as_xyz
'x,y,z'

loop_
_atom_site_label
_atom_site_type_symbol
_atom_site_fract_x
_atom_site_fract_y
_atom_site_fract_z
C11	C1	0.040500	0.085000	0.517300
Zn11	Zn1	0.606300	0.136740	0.940450
Zn21	Zn2	0.113800	0.362760	0.139500
Zn31	Zn3	0.855300	0.968200	0.702330
P11	P1	0.617800	0.176100	0.200300
P21	P2	0.041800	0.287900	0.876900
O11	O1	0.339100	0.275000	0.876700
O21	O2	0.545100	0.085600	0.090300
O31	O3	0.881300	0.136700	0.828700
O41	O4	0.954800	0.305100	0.993000
O51	O5	0.948100	0.426200	0.809900
O61	O6	0.490100	0.336400	0.191800
O71	O7	0.928400	0.201300	0.221500
O81	O8	0.527600	0.080200	0.289700
O91	O9	0.989900	0.136800	0.609900
O101	O10	0.143000	0.163500	0.450700
C21	C2	0.959500	0.915000	0.482700
Zn41	Zn4	0.393700	0.863260	0.059550
Zn51	Zn5	0.886200	0.637240	0.860500
Zn61	Zn6	0.144700	0.031800	0.297670
P31	P3	0.382200	0.823900	0.799700
P41	P4	0.958200	0.712100	0.123100
O111	O11	0.660900	0.725000	0.123300
O121	O12	0.454900	0.914400	0.909700
O131	O13	0.118700	0.863300	0.171300
O141	O14	0.045200	0.694900	0.007000
O151	O15	0.051900	0.573800	0.190100
O161	O16	0.509900	0.663600	0.808200
O171	O17	0.071600	0.798700	0.778500
O181	O18	0.472400	0.919800	0.710300
O191	O19	0.010100	0.863200	0.390100
O201	O20	0.857000	0.836500	0.549300
