data_GUQWOG_freeONLY_PM
_symmetry_space_group_name_H-M	'P1'
_cell_length_a	29.479000
_cell_length_b	16.687600
_cell_length_c	15.766400
_cell_angle_alpha	90.000000
_cell_angle_beta	113.530000
_cell_angle_gamma	90.000000
_symmetry_Int_Tables_number 1

loop_
_symmetry_equiv_pos_as_xyz
'x,y,z'

loop_
_atom_site_label
_atom_site_type_symbol
_atom_site_fract_x
_atom_site_fract_y
_atom_site_fract_z
Cd11	Cd1	0.248170	0.281100	0.874960
N11	N1	0.331700	0.282700	0.946800
N21	N2	0.662500	0.218600	0.301800
C11	C1	0.358700	0.224500	0.924500
H11	H1	0.341400	0.184700	0.883000
C21	C2	0.637200	0.283800	0.295000
H21	H2	0.652900	0.329300	0.327500
C31	C3	0.563800	0.219400	0.195200
C41	C4	0.585300	0.286400	0.238200
H31	H3	0.567200	0.333300	0.231600
C51	C5	0.638300	0.153300	0.274400
H41	H4	0.654700	0.104400	0.290400
C61	C6	0.359000	0.343500	0.994100
H51	H5	0.342600	0.388900	0.001000
C71	C7	0.587600	0.155200	0.220500
H61	H6	0.570800	0.106900	0.202500
C81	C8	0.410700	0.222100	0.960900
H71	H7	0.428200	0.183500	0.944000
C91	C9	0.409900	0.344600	0.033900
H81	H8	0.426900	0.389100	0.066900
C101	C10	0.491200	0.280000	0.068600
H91	H9	0.512200	0.310700	0.050500
C111	C11	0.433300	0.282100	0.024100
C121	C12	0.166700	0.415400	0.271400
C131	C13	0.245900	0.358500	0.723000
C141	C14	0.242400	0.401700	0.637100
C151	C15	0.244600	0.483900	0.637800
H101	H10	0.248000	0.512000	0.691000
C161	C16	0.236500	0.359800	0.558300
H111	H11	0.234500	0.304200	0.557800
C171	C17	0.233600	0.400600	0.479300
C181	C18	0.246400	0.614400	0.563800
C191	C19	0.218200	0.389800	0.316600
H121	H12	0.225400	0.352200	0.276700
H131	H13	0.239600	0.435900	0.325200
C201	C20	0.235800	0.484100	0.478200
H141	H14	0.233300	0.511400	0.425100
C211	C21	0.125500	0.433300	0.234700
H151	H15	0.092400	0.447600	0.205300
C221	C22	0.506200	0.222800	0.141000
H161	H16	0.484300	0.191100	0.155700
O11	O1	0.246100	0.282800	0.722700
O21	O2	0.249600	0.648200	0.635500
O31	O3	0.248700	0.399100	0.792900
O41	O4	0.247000	0.652400	0.497100
C231	C23	0.241700	0.525400	0.558900
O51	O5	0.228900	0.352500	0.404900
Cd21	Cd2	0.748170	0.781100	0.874960
N31	N3	0.831700	0.782700	0.946800
N41	N4	0.162500	0.718600	0.301800
C241	C24	0.858700	0.724500	0.924500
H171	H17	0.841400	0.684700	0.883000
C251	C25	0.137200	0.783800	0.295000
H181	H18	0.152900	0.829300	0.327500
C261	C26	0.063800	0.719400	0.195200
C271	C27	0.085300	0.786400	0.238200
H191	H19	0.067200	0.833300	0.231600
C281	C28	0.138300	0.653300	0.274400
H201	H20	0.154700	0.604400	0.290400
C291	C29	0.859000	0.843500	0.994100
H211	H21	0.842600	0.888900	0.001000
C301	C30	0.087600	0.655200	0.220500
H221	H22	0.070800	0.606900	0.202500
C311	C31	0.910700	0.722100	0.960900
H231	H23	0.928200	0.683500	0.944000
C321	C32	0.909900	0.844600	0.033900
H241	H24	0.926900	0.889100	0.066900
C331	C33	0.991200	0.780000	0.068600
H251	H25	0.012200	0.810700	0.050500
C341	C34	0.933300	0.782100	0.024100
C351	C35	0.666700	0.915400	0.271400
C361	C36	0.745900	0.858500	0.723000
C371	C37	0.742400	0.901700	0.637100
C381	C38	0.744600	0.983900	0.637800
H261	H26	0.748000	0.012000	0.691000
C391	C39	0.736500	0.859800	0.558300
H271	H27	0.734500	0.804200	0.557800
C401	C40	0.733600	0.900600	0.479300
C411	C41	0.746400	0.114400	0.563800
C421	C42	0.718200	0.889800	0.316600
H281	H28	0.725400	0.852200	0.276700
H291	H29	0.739600	0.935900	0.325200
C431	C43	0.735800	0.984100	0.478200
H301	H30	0.733300	0.011400	0.425100
C441	C44	0.625500	0.933300	0.234700
H311	H31	0.592400	0.947600	0.205300
C451	C45	0.006200	0.722800	0.141000
H321	H32	0.984300	0.691100	0.155700
O61	O6	0.746100	0.782800	0.722700
O71	O7	0.749600	0.148200	0.635500
O81	O8	0.748700	0.899100	0.792900
O91	O9	0.747000	0.152400	0.497100
C461	C46	0.741700	0.025400	0.558900
O101	O10	0.728900	0.852500	0.404900
Cd31	Cd3	0.751830	0.281100	0.625040
N51	N5	0.668300	0.282700	0.553200
N61	N6	0.337500	0.218600	0.198200
C471	C47	0.641300	0.224500	0.575500
H331	H33	0.658600	0.184700	0.617000
C481	C48	0.362800	0.283800	0.205000
H341	H34	0.347100	0.329300	0.172500
C491	C49	0.436200	0.219400	0.304800
C501	C50	0.414700	0.286400	0.261800
H351	H35	0.432800	0.333300	0.268400
C511	C51	0.361700	0.153300	0.225600
H361	H36	0.345300	0.104400	0.209600
C521	C52	0.641000	0.343500	0.505900
H371	H37	0.657400	0.388900	0.499000
C531	C53	0.412400	0.155200	0.279500
H381	H38	0.429200	0.106900	0.297500
C541	C54	0.589300	0.222100	0.539100
H391	H39	0.571800	0.183500	0.556000
C551	C55	0.590100	0.344600	0.466100
H401	H40	0.573100	0.389100	0.433100
C561	C56	0.508800	0.280000	0.431400
H411	H41	0.487800	0.310700	0.449500
C571	C57	0.566700	0.282100	0.475900
C581	C58	0.833300	0.415400	0.228600
C591	C59	0.754100	0.358500	0.777000
C601	C60	0.757600	0.401700	0.862900
C611	C61	0.755400	0.483900	0.862200
H421	H42	0.752000	0.512000	0.809000
C621	C62	0.763500	0.359800	0.941700
H431	H43	0.765500	0.304200	0.942200
C631	C63	0.766400	0.400600	0.020700
C641	C64	0.753600	0.614400	0.936200
C651	C65	0.781800	0.389800	0.183400
H441	H44	0.774600	0.352200	0.223300
H451	H45	0.760400	0.435900	0.174800
C661	C66	0.764200	0.484100	0.021800
H461	H46	0.766700	0.511400	0.074900
C671	C67	0.874500	0.433300	0.265300
H471	H47	0.907600	0.447600	0.294700
C681	C68	0.493800	0.222800	0.359000
H481	H48	0.515700	0.191100	0.344300
O111	O11	0.753900	0.282800	0.777300
O121	O12	0.750400	0.648200	0.864500
O131	O13	0.751300	0.399100	0.707100
O141	O14	0.753000	0.652400	0.002900
C691	C69	0.758300	0.525400	0.941100
O151	O15	0.771100	0.352500	0.095100
Cd41	Cd4	0.251830	0.781100	0.625040
N71	N7	0.168300	0.782700	0.553200
N81	N8	0.837500	0.718600	0.198200
C701	C70	0.141300	0.724500	0.575500
H491	H49	0.158600	0.684700	0.617000
C711	C71	0.862800	0.783800	0.205000
H501	H50	0.847100	0.829300	0.172500
C721	C72	0.936200	0.719400	0.304800
C731	C73	0.914700	0.786400	0.261800
H511	H51	0.932800	0.833300	0.268400
C741	C74	0.861700	0.653300	0.225600
H521	H52	0.845300	0.604400	0.209600
C751	C75	0.141000	0.843500	0.505900
H531	H53	0.157400	0.888900	0.499000
C761	C76	0.912400	0.655200	0.279500
H541	H54	0.929200	0.606900	0.297500
C771	C77	0.089300	0.722100	0.539100
H551	H55	0.071800	0.683500	0.556000
C781	C78	0.090100	0.844600	0.466100
H561	H56	0.073100	0.889100	0.433100
C791	C79	0.008800	0.780000	0.431400
H571	H57	0.987800	0.810700	0.449500
C801	C80	0.066700	0.782100	0.475900
C811	C81	0.333300	0.915400	0.228600
C821	C82	0.254100	0.858500	0.777000
C831	C83	0.257600	0.901700	0.862900
C841	C84	0.255400	0.983900	0.862200
H581	H58	0.252000	0.012000	0.809000
C851	C85	0.263500	0.859800	0.941700
H591	H59	0.265500	0.804200	0.942200
C861	C86	0.266400	0.900600	0.020700
C871	C87	0.253600	0.114400	0.936200
C881	C88	0.281800	0.889800	0.183400
H601	H60	0.274600	0.852200	0.223300
H611	H61	0.260400	0.935900	0.174800
C891	C89	0.264200	0.984100	0.021800
H621	H62	0.266700	0.011400	0.074900
C901	C90	0.374500	0.933300	0.265300
H631	H63	0.407600	0.947600	0.294700
C911	C91	0.993800	0.722800	0.359000
H641	H64	0.015700	0.691100	0.344300
O161	O16	0.253900	0.782800	0.777300
O171	O17	0.250400	0.148200	0.864500
O181	O18	0.251300	0.899100	0.707100
O191	O19	0.253000	0.152400	0.002900
C921	C92	0.258300	0.025400	0.941100
O201	O20	0.271100	0.852500	0.095100
Cd51	Cd5	0.751830	0.718900	0.125040
N91	N9	0.668300	0.717300	0.053200
N101	N10	0.337500	0.781400	0.698200
C931	C93	0.641300	0.775500	0.075500
H651	H65	0.658600	0.815300	0.117000
C941	C94	0.362800	0.716200	0.705000
H661	H66	0.347100	0.670700	0.672500
C951	C95	0.436200	0.780600	0.804800
C961	C96	0.414700	0.713600	0.761800
H671	H67	0.432800	0.666700	0.768400
C971	C97	0.361700	0.846700	0.725600
H681	H68	0.345300	0.895600	0.709600
C981	C98	0.641000	0.656500	0.005900
H691	H69	0.657400	0.611100	0.999000
C991	C99	0.412400	0.844800	0.779500
H701	H70	0.429200	0.893100	0.797500
C1001	C100	0.589300	0.777900	0.039100
H711	H71	0.571800	0.816500	0.056000
C1011	C101	0.590100	0.655400	0.966100
H721	H72	0.573100	0.610900	0.933100
C1021	C102	0.508800	0.720000	0.931400
H731	H73	0.487800	0.689300	0.949500
C1031	C103	0.566700	0.717900	0.975900
C1041	C104	0.833300	0.584600	0.728600
C1051	C105	0.754100	0.641500	0.277000
C1061	C106	0.757600	0.598300	0.362900
C1071	C107	0.755400	0.516100	0.362200
H741	H74	0.752000	0.488000	0.309000
C1081	C108	0.763500	0.640200	0.441700
H751	H75	0.765500	0.695800	0.442200
C1091	C109	0.766400	0.599400	0.520700
C1101	C110	0.753600	0.385600	0.436200
C1111	C111	0.781800	0.610200	0.683400
H761	H76	0.774600	0.647800	0.723300
H771	H77	0.760400	0.564100	0.674800
C1121	C112	0.764200	0.515900	0.521800
H781	H78	0.766700	0.488600	0.574900
C1131	C113	0.874500	0.566700	0.765300
H791	H79	0.907600	0.552400	0.794700
C1141	C114	0.493800	0.777200	0.859000
H801	H80	0.515700	0.808900	0.844300
O211	O21	0.753900	0.717200	0.277300
O221	O22	0.750400	0.351800	0.364500
O231	O23	0.751300	0.600900	0.207100
O241	O24	0.753000	0.347600	0.502900
C1151	C115	0.758300	0.474600	0.441100
O251	O25	0.771100	0.647500	0.595100
Cd61	Cd6	0.251830	0.218900	0.125040
N111	N11	0.168300	0.217300	0.053200
N121	N12	0.837500	0.281400	0.698200
C1161	C116	0.141300	0.275500	0.075500
H811	H81	0.158600	0.315300	0.117000
C1171	C117	0.862800	0.216200	0.705000
H821	H82	0.847100	0.170700	0.672500
C1181	C118	0.936200	0.280600	0.804800
C1191	C119	0.914700	0.213600	0.761800
H831	H83	0.932800	0.166700	0.768400
C1201	C120	0.861700	0.346700	0.725600
H841	H84	0.845300	0.395600	0.709600
C1211	C121	0.141000	0.156500	0.005900
H851	H85	0.157400	0.111100	0.999000
C1221	C122	0.912400	0.344800	0.779500
H861	H86	0.929200	0.393100	0.797500
C1231	C123	0.089300	0.277900	0.039100
H871	H87	0.071800	0.316500	0.056000
C1241	C124	0.090100	0.155400	0.966100
H881	H88	0.073100	0.110900	0.933100
C1251	C125	0.008800	0.220000	0.931400
H891	H89	0.987800	0.189300	0.949500
C1261	C126	0.066700	0.217900	0.975900
C1271	C127	0.333300	0.084600	0.728600
C1281	C128	0.254100	0.141500	0.277000
C1291	C129	0.257600	0.098300	0.362900
C1301	C130	0.255400	0.016100	0.362200
H901	H90	0.252000	0.988000	0.309000
C1311	C131	0.263500	0.140200	0.441700
H911	H91	0.265500	0.195800	0.442200
C1321	C132	0.266400	0.099400	0.520700
C1331	C133	0.253600	0.885600	0.436200
C1341	C134	0.281800	0.110200	0.683400
H921	H92	0.274600	0.147800	0.723300
H931	H93	0.260400	0.064100	0.674800
C1351	C135	0.264200	0.015900	0.521800
H941	H94	0.266700	0.988600	0.574900
C1361	C136	0.374500	0.066700	0.765300
H951	H95	0.407600	0.052400	0.794700
C1371	C137	0.993800	0.277200	0.859000
H961	H96	0.015700	0.308900	0.844300
O261	O26	0.253900	0.217200	0.277300
O271	O27	0.250400	0.851800	0.364500
O281	O28	0.251300	0.100900	0.207100
O291	O29	0.253000	0.847600	0.502900
C1381	C138	0.258300	0.974600	0.441100
O301	O30	0.271100	0.147500	0.595100
Cd71	Cd7	0.248170	0.718900	0.374960
N131	N13	0.331700	0.717300	0.446800
N141	N14	0.662500	0.781400	0.801800
C1391	C139	0.358700	0.775500	0.424500
H971	H97	0.341400	0.815300	0.383000
C1401	C140	0.637200	0.716200	0.795000
H981	H98	0.652900	0.670700	0.827500
C1411	C141	0.563800	0.780600	0.695200
C1421	C142	0.585300	0.713600	0.738200
H991	H99	0.567200	0.666700	0.731600
C1431	C143	0.638300	0.846700	0.774400
H1001	H100	0.654700	0.895600	0.790400
C1441	C144	0.359000	0.656500	0.494100
H1011	H101	0.342600	0.611100	0.501000
C1451	C145	0.587600	0.844800	0.720500
H1021	H102	0.570800	0.893100	0.702500
C1461	C146	0.410700	0.777900	0.460900
H1031	H103	0.428200	0.816500	0.444000
C1471	C147	0.409900	0.655400	0.533900
H1041	H104	0.426900	0.610900	0.566900
C1481	C148	0.491200	0.720000	0.568600
H1051	H105	0.512200	0.689300	0.550500
C1491	C149	0.433300	0.717900	0.524100
C1501	C150	0.166700	0.584600	0.771400
C1511	C151	0.245900	0.641500	0.223000
C1521	C152	0.242400	0.598300	0.137100
C1531	C153	0.244600	0.516100	0.137800
H1061	H106	0.248000	0.488000	0.191000
C1541	C154	0.236500	0.640200	0.058300
H1071	H107	0.234500	0.695800	0.057800
C1551	C155	0.233600	0.599400	0.979300
C1561	C156	0.246400	0.385600	0.063800
C1571	C157	0.218200	0.610200	0.816600
H1081	H108	0.225400	0.647800	0.776700
H1091	H109	0.239600	0.564100	0.825200
C1581	C158	0.235800	0.515900	0.978200
H1101	H110	0.233300	0.488600	0.925100
C1591	C159	0.125500	0.566700	0.734700
H1111	H111	0.092400	0.552400	0.705300
C1601	C160	0.506200	0.777200	0.641000
H1121	H112	0.484300	0.808900	0.655700
O311	O31	0.246100	0.717200	0.222700
O321	O32	0.249600	0.351800	0.135500
O331	O33	0.248700	0.600900	0.292900
O341	O34	0.247000	0.347600	0.997100
C1611	C161	0.241700	0.474600	0.058900
O351	O35	0.228900	0.647500	0.904900
Cd81	Cd8	0.748170	0.218900	0.374960
N151	N15	0.831700	0.217300	0.446800
N161	N16	0.162500	0.281400	0.801800
C1621	C162	0.858700	0.275500	0.424500
H1131	H113	0.841400	0.315300	0.383000
C1631	C163	0.137200	0.216200	0.795000
H1141	H114	0.152900	0.170700	0.827500
C1641	C164	0.063800	0.280600	0.695200
C1651	C165	0.085300	0.213600	0.738200
H1151	H115	0.067200	0.166700	0.731600
C1661	C166	0.138300	0.346700	0.774400
H1161	H116	0.154700	0.395600	0.790400
C1671	C167	0.859000	0.156500	0.494100
H1171	H117	0.842600	0.111100	0.501000
C1681	C168	0.087600	0.344800	0.720500
H1181	H118	0.070800	0.393100	0.702500
C1691	C169	0.910700	0.277900	0.460900
H1191	H119	0.928200	0.316500	0.444000
C1701	C170	0.909900	0.155400	0.533900
H1201	H120	0.926900	0.110900	0.566900
C1711	C171	0.991200	0.220000	0.568600
H1211	H121	0.012200	0.189300	0.550500
C1721	C172	0.933300	0.217900	0.524100
C1731	C173	0.666700	0.084600	0.771400
C1741	C174	0.745900	0.141500	0.223000
C1751	C175	0.742400	0.098300	0.137100
C1761	C176	0.744600	0.016100	0.137800
H1221	H122	0.748000	0.988000	0.191000
C1771	C177	0.736500	0.140200	0.058300
H1231	H123	0.734500	0.195800	0.057800
C1781	C178	0.733600	0.099400	0.979300
C1791	C179	0.746400	0.885600	0.063800
C1801	C180	0.718200	0.110200	0.816600
H1241	H124	0.725400	0.147800	0.776700
H1251	H125	0.739600	0.064100	0.825200
C1811	C181	0.735800	0.015900	0.978200
H1261	H126	0.733300	0.988600	0.925100
C1821	C182	0.625500	0.066700	0.734700
H1271	H127	0.592400	0.052400	0.705300
C1831	C183	0.006200	0.277200	0.641000
H1281	H128	0.984300	0.308900	0.655700
O361	O36	0.746100	0.217200	0.222700
O371	O37	0.749600	0.851800	0.135500
O381	O38	0.748700	0.100900	0.292900
O391	O39	0.747000	0.847600	0.997100
C1841	C184	0.741700	0.974600	0.058900
O401	O40	0.728900	0.147500	0.904900
