data_GURPIT_freeONLY_PM
_symmetry_space_group_name_H-M	'P1'
_cell_length_a	21.918000
_cell_length_b	14.033000
_cell_length_c	22.467000
_cell_angle_alpha	90.000000
_cell_angle_beta	92.639000
_cell_angle_gamma	90.000000
_symmetry_Int_Tables_number 1

loop_
_symmetry_equiv_pos_as_xyz
'x,y,z'

loop_
_atom_site_label
_atom_site_type_symbol
_atom_site_fract_x
_atom_site_fract_y
_atom_site_fract_z
Cr11	Cr1	0.764100	0.961900	0.659390
Cr21	Cr2	0.519940	0.966370	0.675790
Cr31	Cr3	0.882760	0.225690	0.537930
Cr41	Cr4	0.910440	0.740840	0.800890
O11	O1	0.686700	0.943400	0.606400
O21	O2	0.699300	0.962900	0.723300
O31	O3	0.584200	0.959300	0.611900
O41	O4	0.598500	0.962800	0.731100
O51	O5	0.762600	0.106900	0.646300
O61	O6	0.824500	0.969600	0.592300
O71	O7	0.808000	0.217300	0.593500
O81	O8	0.873200	0.079800	0.541200
O91	O9	0.834000	0.976000	0.723800
O101	O10	0.783200	0.822900	0.674900
O111	O11	0.895100	0.883200	0.784900
O121	O12	0.845100	0.729700	0.732300
O131	O13	0.449600	0.969600	0.610600
O141	O14	0.501900	0.820800	0.670300
O151	O15	0.392800	0.870800	0.555900
O161	O16	0.446800	0.721500	0.610300
O171	O17	0.519900	0.116000	0.683300
O181	O18	0.460200	0.982800	0.742700
O191	O19	0.477800	0.228400	0.739900
O201	O20	0.419500	0.095300	0.799100
O211	O21	0.830800	0.251600	0.458400
O221	O22	0.950600	0.223600	0.474900
O231	O23	0.842000	0.264700	0.361300
O241	O24	0.962700	0.238900	0.377500
C11	C1	0.637300	0.954000	0.633700
C21	C2	0.646800	0.958800	0.702100
C31	C3	0.798600	0.130200	0.606900
C41	C4	0.834200	0.052100	0.579500
C51	C5	0.854600	0.895900	0.745000
C61	C6	0.823800	0.810300	0.714600
C71	C7	0.432300	0.887600	0.596000
C81	C8	0.462500	0.801400	0.627700
C91	C9	0.486400	0.144300	0.723700
C101	C10	0.452800	0.067700	0.759200
C111	C11	0.860300	0.252800	0.410900
C121	C12	0.931400	0.237300	0.420900
Mn11	Mn1	0.410440	0.240840	0.800890
Cr51	Cr5	0.264100	0.461900	0.659390
Cr61	Cr6	0.019940	0.466370	0.675790
Cr71	Cr7	0.382760	0.725690	0.537930
O251	O25	0.186700	0.443400	0.606400
O261	O26	0.199300	0.462900	0.723300
O271	O27	0.084200	0.459300	0.611900
O281	O28	0.098500	0.462800	0.731100
O291	O29	0.262600	0.606900	0.646300
O301	O30	0.324500	0.469600	0.592300
O311	O31	0.308000	0.717300	0.593500
O321	O32	0.373200	0.579800	0.541200
O331	O33	0.334000	0.476000	0.723800
O341	O34	0.283200	0.322900	0.674900
O351	O35	0.395100	0.383200	0.784900
O361	O36	0.345100	0.229700	0.732300
O371	O37	0.949600	0.469600	0.610600
O381	O38	0.001900	0.320800	0.670300
O391	O39	0.892800	0.370800	0.555900
O401	O40	0.946800	0.221500	0.610300
O411	O41	0.019900	0.616000	0.683300
O421	O42	0.960200	0.482800	0.742700
O431	O43	0.977800	0.728400	0.739900
O441	O44	0.919500	0.595300	0.799100
O451	O45	0.330800	0.751600	0.458400
O461	O46	0.450600	0.723600	0.474900
O471	O47	0.342000	0.764700	0.361300
O481	O48	0.462700	0.738900	0.377500
C131	C13	0.137300	0.454000	0.633700
C141	C14	0.146800	0.458800	0.702100
C151	C15	0.298600	0.630200	0.606900
C161	C16	0.334200	0.552100	0.579500
C171	C17	0.354600	0.395900	0.745000
C181	C18	0.323800	0.310300	0.714600
C191	C19	0.932300	0.387600	0.596000
C201	C20	0.962500	0.301400	0.627700
C211	C21	0.986400	0.644300	0.723700
C221	C22	0.952800	0.567700	0.759200
C231	C23	0.360300	0.752800	0.410900
C241	C24	0.431400	0.737300	0.420900
Cr81	Cr8	0.764100	0.038100	0.159390
Cr91	Cr9	0.519940	0.033630	0.175790
Cr101	Cr10	0.882760	0.774310	0.037930
Cr111	Cr11	0.910440	0.259160	0.300890
O491	O49	0.686700	0.056600	0.106400
O501	O50	0.699300	0.037100	0.223300
O511	O51	0.584200	0.040700	0.111900
O521	O52	0.598500	0.037200	0.231100
O531	O53	0.762600	0.893100	0.146300
O541	O54	0.824500	0.030400	0.092300
O551	O55	0.808000	0.782700	0.093500
O561	O56	0.873200	0.920200	0.041200
O571	O57	0.834000	0.024000	0.223800
O581	O58	0.783200	0.177100	0.174900
O591	O59	0.895100	0.116800	0.284900
O601	O60	0.845100	0.270300	0.232300
O611	O61	0.449600	0.030400	0.110600
O621	O62	0.501900	0.179200	0.170300
O631	O63	0.392800	0.129200	0.055900
O641	O64	0.446800	0.278500	0.110300
O651	O65	0.519900	0.884000	0.183300
O661	O66	0.460200	0.017200	0.242700
O671	O67	0.477800	0.771600	0.239900
O681	O68	0.419500	0.904700	0.299100
O691	O69	0.830800	0.748400	0.958400
O701	O70	0.950600	0.776400	0.974900
O711	O71	0.842000	0.735300	0.861300
O721	O72	0.962700	0.761100	0.877500
C251	C25	0.637300	0.046000	0.133700
C261	C26	0.646800	0.041200	0.202100
C271	C27	0.798600	0.869800	0.106900
C281	C28	0.834200	0.947900	0.079500
C291	C29	0.854600	0.104100	0.245000
C301	C30	0.823800	0.189700	0.214600
C311	C31	0.432300	0.112400	0.096000
C321	C32	0.462500	0.198600	0.127700
C331	C33	0.486400	0.855700	0.223700
C341	C34	0.452800	0.932300	0.259200
C351	C35	0.860300	0.747200	0.910900
C361	C36	0.931400	0.762700	0.920900
Mn21	Mn2	0.410440	0.759160	0.300890
Cr121	Cr12	0.264100	0.538100	0.159390
Cr131	Cr13	0.019940	0.533630	0.175790
Cr141	Cr14	0.382760	0.274310	0.037930
O731	O73	0.186700	0.556600	0.106400
O741	O74	0.199300	0.537100	0.223300
O751	O75	0.084200	0.540700	0.111900
O761	O76	0.098500	0.537200	0.231100
O771	O77	0.262600	0.393100	0.146300
O781	O78	0.324500	0.530400	0.092300
O791	O79	0.308000	0.282700	0.093500
O801	O80	0.373200	0.420200	0.041200
O811	O81	0.334000	0.524000	0.223800
O821	O82	0.283200	0.677100	0.174900
O831	O83	0.395100	0.616800	0.284900
O841	O84	0.345100	0.770300	0.232300
O851	O85	0.949600	0.530400	0.110600
O861	O86	0.001900	0.679200	0.170300
O871	O87	0.892800	0.629200	0.055900
O881	O88	0.946800	0.778500	0.110300
O891	O89	0.019900	0.384000	0.183300
O901	O90	0.960200	0.517200	0.242700
O911	O91	0.977800	0.271600	0.239900
O921	O92	0.919500	0.404700	0.299100
O931	O93	0.330800	0.248400	0.958400
O941	O94	0.450600	0.276400	0.974900
O951	O95	0.342000	0.235300	0.861300
O961	O96	0.462700	0.261100	0.877500
C371	C37	0.137300	0.546000	0.133700
C381	C38	0.146800	0.541200	0.202100
C391	C39	0.298600	0.369800	0.106900
C401	C40	0.334200	0.447900	0.079500
C411	C41	0.354600	0.604100	0.245000
C421	C42	0.323800	0.689700	0.214600
C431	C43	0.932300	0.612400	0.096000
C441	C44	0.962500	0.698600	0.127700
C451	C45	0.986400	0.355700	0.223700
C461	C46	0.952800	0.432300	0.259200
C471	C47	0.360300	0.247200	0.910900
C481	C48	0.431400	0.262700	0.920900
