data_GUVKUE_freeONLY_PM
_symmetry_space_group_name_H-M	'P1'
_cell_length_a	27.742000
_cell_length_b	13.871900
_cell_length_c	44.522000
_cell_angle_alpha	90.000000
_cell_angle_beta	90.000000
_cell_angle_gamma	90.000000
_symmetry_Int_Tables_number 1

loop_
_symmetry_equiv_pos_as_xyz
'x,y,z'

loop_
_atom_site_label
_atom_site_type_symbol
_atom_site_fract_x
_atom_site_fract_y
_atom_site_fract_z
Zn11	Zn1	0.524400	0.881760	0.585150
Zn21	Zn2	0.546040	0.642310	0.412300
Zn31	Zn3	0.260570	0.181400	0.819890
I11	I1	0.506730	0.804300	0.534060
I21	I2	0.573210	0.797440	0.625160
I31	I3	0.480840	0.555680	0.382980
I41	I4	0.556510	0.824180	0.415140
I51	I5	0.171670	0.178320	0.834330
I61	I6	0.302720	0.342920	0.812520
C11	C1	0.549490	0.057300	0.549830
H11	H1	0.535000	0.021700	0.534000
C21	C2	0.564370	0.150300	0.544060
H21	H2	0.560600	0.177800	0.524700
C31	C3	0.575040	0.066200	0.598740
H31	H3	0.579000	0.036600	0.617800
C41	C4	0.590630	0.159600	0.595080
H41	H4	0.604900	0.193600	0.611300
C51	C5	0.585120	0.203000	0.567410
C61	C6	0.598900	0.305700	0.562700
C71	C7	0.699500	0.504800	0.650090
H51	H5	0.713300	0.472400	0.666800
C81	C8	0.677200	0.450600	0.628250
H61	H6	0.675400	0.382400	0.630000
C91	C9	0.683200	0.644900	0.625420
H71	H7	0.684800	0.713200	0.624400
C101	C10	0.660400	0.596200	0.602310
H81	H8	0.647100	0.630400	0.585800
C111	C11	0.657540	0.496800	0.603760
C121	C12	0.632440	0.442300	0.579660
C131	C13	0.571000	0.634000	0.477680
H91	H9	0.576000	0.701300	0.475400
C141	C14	0.584300	0.590600	0.504530
H101	H10	0.598100	0.627800	0.520300
C151	C15	0.542440	0.489800	0.458890
H111	H11	0.526900	0.455100	0.443200
C161	C16	0.554890	0.441300	0.484850
H121	H12	0.548500	0.374400	0.486900
C171	C17	0.577040	0.492700	0.508080
C181	C18	0.593120	0.441400	0.535650
C191	C19	0.112390	0.936600	0.633720
H131	H13	0.083000	0.946100	0.644200
C201	C20	0.155130	0.954700	0.648380
H141	H14	0.155100	0.975000	0.668700
C211	C21	0.152490	0.895900	0.590180
H151	H15	0.151500	0.875300	0.569800
C221	C22	0.196980	0.914000	0.603110
H161	H16	0.225900	0.907100	0.591900
C231	C23	0.198090	0.942700	0.633090
C241	C24	0.244560	0.957700	0.648920
C251	C25	0.417660	0.906100	0.590700
H171	H17	0.418200	0.888100	0.570100
C261	C26	0.373130	0.921400	0.604460
H181	H18	0.344000	0.914000	0.593500
C271	C27	0.458250	0.942800	0.634190
H191	H19	0.487900	0.950800	0.644600
C281	C28	0.415720	0.959400	0.649600
H201	H20	0.416200	0.978600	0.670100
C291	C29	0.372220	0.947500	0.634570
C301	C30	0.325710	0.960100	0.650060
C311	C31	0.313200	0.105500	0.766720
H211	H21	0.340200	0.131900	0.776900
C321	C32	0.319480	0.068900	0.738390
H221	H22	0.350400	0.069100	0.729300
C331	C33	0.232690	0.066800	0.766650
H231	H23	0.202600	0.064300	0.776800
C341	C34	0.235820	0.029600	0.737580
H241	H24	0.208200	0.003600	0.727900
C351	C35	0.280070	0.031600	0.723240
C361	C36	0.283290	0.998100	0.691650
N11	N1	0.554500	0.014900	0.576570
N21	N2	0.702790	0.601600	0.648900
N31	N3	0.551510	0.584700	0.454880
N41	N4	0.625290	0.348200	0.584070
N51	N5	0.617800	0.492700	0.555740
N61	N6	0.581720	0.348400	0.538090
N71	N7	0.110710	0.906000	0.605020
N81	N8	0.459430	0.915900	0.605190
N91	N9	0.270370	0.105600	0.780720
N101	N10	0.285660	0.945000	0.634020
N111	N11	0.327090	0.987000	0.679230
N121	N12	0.241370	0.983700	0.677770
Zn41	Zn4	0.975600	0.118240	0.085150
Zn51	Zn5	0.953960	0.357690	0.912300
Zn61	Zn6	0.239430	0.818600	0.319890
I71	I7	0.993270	0.195700	0.034060
I81	I8	0.926790	0.202560	0.125160
I91	I9	0.019160	0.444320	0.882980
I101	I10	0.943490	0.175820	0.915140
I111	I11	0.328330	0.821680	0.334330
I121	I12	0.197280	0.657080	0.312520
C371	C37	0.950510	0.942700	0.049830
H251	H25	0.965000	0.978300	0.034000
C381	C38	0.935630	0.849700	0.044060
H261	H26	0.939400	0.822200	0.024700
C391	C39	0.924960	0.933800	0.098740
H271	H27	0.921000	0.963400	0.117800
C401	C40	0.909370	0.840400	0.095080
H281	H28	0.895100	0.806400	0.111300
C411	C41	0.914880	0.797000	0.067410
C421	C42	0.901100	0.694300	0.062700
C431	C43	0.800500	0.495200	0.150090
H291	H29	0.786700	0.527600	0.166800
C441	C44	0.822800	0.549400	0.128250
H301	H30	0.824600	0.617600	0.130000
C451	C45	0.816800	0.355100	0.125420
H311	H31	0.815200	0.286800	0.124400
C461	C46	0.839600	0.403800	0.102310
H321	H32	0.852900	0.369600	0.085800
C471	C47	0.842460	0.503200	0.103760
C481	C48	0.867560	0.557700	0.079660
C491	C49	0.929000	0.366000	0.977680
H331	H33	0.924000	0.298700	0.975400
C501	C50	0.915700	0.409400	0.004530
H341	H34	0.901900	0.372200	0.020300
C511	C51	0.957560	0.510200	0.958890
H351	H35	0.973100	0.544900	0.943200
C521	C52	0.945110	0.558700	0.984850
H361	H36	0.951500	0.625600	0.986900
C531	C53	0.922960	0.507300	0.008080
C541	C54	0.906880	0.558600	0.035650
C551	C55	0.387610	0.063400	0.133720
H371	H37	0.417000	0.053900	0.144200
C561	C56	0.344870	0.045300	0.148380
H381	H38	0.344900	0.025000	0.168700
C571	C57	0.347510	0.104100	0.090180
H391	H39	0.348500	0.124700	0.069800
C581	C58	0.303020	0.086000	0.103110
H401	H40	0.274100	0.092900	0.091900
C591	C59	0.301910	0.057300	0.133090
C601	C60	0.255440	0.042300	0.148920
C611	C61	0.082340	0.093900	0.090700
H411	H41	0.081800	0.111900	0.070100
C621	C62	0.126870	0.078600	0.104460
H421	H42	0.156000	0.086000	0.093500
C631	C63	0.041750	0.057200	0.134190
H431	H43	0.012100	0.049200	0.144600
C641	C64	0.084280	0.040600	0.149600
H441	H44	0.083800	0.021400	0.170100
C651	C65	0.127780	0.052500	0.134570
C661	C66	0.174290	0.039900	0.150060
C671	C67	0.186800	0.894500	0.266720
H451	H45	0.159800	0.868100	0.276900
C681	C68	0.180520	0.931100	0.238390
H461	H46	0.149600	0.930900	0.229300
C691	C69	0.267310	0.933200	0.266650
H471	H47	0.297400	0.935700	0.276800
C701	C70	0.264180	0.970400	0.237580
H481	H48	0.291800	0.996400	0.227900
C711	C71	0.219930	0.968400	0.223240
C721	C72	0.216710	0.001900	0.191650
N131	N13	0.945500	0.985100	0.076570
N141	N14	0.797210	0.398400	0.148900
N151	N15	0.948490	0.415300	0.954880
N161	N16	0.874710	0.651800	0.084070
N171	N17	0.882200	0.507300	0.055740
N181	N18	0.918280	0.651600	0.038090
N191	N19	0.389290	0.094000	0.105020
N201	N20	0.040570	0.084100	0.105190
N211	N21	0.229630	0.894400	0.280720
N221	N22	0.214340	0.055000	0.134020
N231	N23	0.172910	0.013000	0.179230
N241	N24	0.258630	0.016300	0.177770
Zn71	Zn7	0.475600	0.381760	0.914850
Zn81	Zn8	0.453960	0.142310	0.087700
Zn91	Zn9	0.739430	0.681400	0.680110
I131	I13	0.493270	0.304300	0.965940
I141	I14	0.426790	0.297440	0.874840
I151	I15	0.519160	0.055680	0.117020
I161	I16	0.443490	0.324180	0.084860
I171	I17	0.828330	0.678320	0.665670
I181	I18	0.697280	0.842920	0.687480
C731	C73	0.450510	0.557300	0.950170
H491	H49	0.465000	0.521700	0.966000
C741	C74	0.435630	0.650300	0.955940
H501	H50	0.439400	0.677800	0.975300
C751	C75	0.424960	0.566200	0.901260
H511	H51	0.421000	0.536600	0.882200
C761	C76	0.409370	0.659600	0.904920
H521	H52	0.395100	0.693600	0.888700
C771	C77	0.414880	0.703000	0.932590
C781	C78	0.401100	0.805700	0.937300
C791	C79	0.300500	0.004800	0.849910
H531	H53	0.286700	0.972400	0.833200
C801	C80	0.322800	0.950600	0.871750
H541	H54	0.324600	0.882400	0.870000
C811	C81	0.316800	0.144900	0.874580
H551	H55	0.315200	0.213200	0.875600
C821	C82	0.339600	0.096200	0.897690
H561	H56	0.352900	0.130400	0.914200
C831	C83	0.342460	0.996800	0.896240
C841	C84	0.367560	0.942300	0.920340
C851	C85	0.429000	0.134000	0.022320
H571	H57	0.424000	0.201300	0.024600
C861	C86	0.415700	0.090600	0.995470
H581	H58	0.401900	0.127800	0.979700
C871	C87	0.457560	0.989800	0.041110
H591	H59	0.473100	0.955100	0.056800
C881	C88	0.445110	0.941300	0.015150
H601	H60	0.451500	0.874400	0.013100
C891	C89	0.422960	0.992700	0.991920
C901	C90	0.406880	0.941400	0.964350
C911	C91	0.887610	0.436600	0.866280
H611	H61	0.917000	0.446100	0.855800
C921	C92	0.844870	0.454700	0.851620
H621	H62	0.844900	0.475000	0.831300
C931	C93	0.847510	0.395900	0.909820
H631	H63	0.848500	0.375300	0.930200
C941	C94	0.803020	0.414000	0.896890
H641	H64	0.774100	0.407100	0.908100
C951	C95	0.801910	0.442700	0.866910
C961	C96	0.755440	0.457700	0.851080
C971	C97	0.582340	0.406100	0.909300
H651	H65	0.581800	0.388100	0.929900
C981	C98	0.626870	0.421400	0.895540
H661	H66	0.656000	0.414000	0.906500
C991	C99	0.541750	0.442800	0.865810
H671	H67	0.512100	0.450800	0.855400
C1001	C100	0.584280	0.459400	0.850400
H681	H68	0.583800	0.478600	0.829900
C1011	C101	0.627780	0.447500	0.865430
C1021	C102	0.674290	0.460100	0.849940
C1031	C103	0.686800	0.605500	0.733280
H691	H69	0.659800	0.631900	0.723100
C1041	C104	0.680520	0.568900	0.761610
H701	H70	0.649600	0.569100	0.770700
C1051	C105	0.767310	0.566800	0.733350
H711	H71	0.797400	0.564300	0.723200
C1061	C106	0.764180	0.529600	0.762420
H721	H72	0.791800	0.503600	0.772100
C1071	C107	0.719930	0.531600	0.776760
C1081	C108	0.716710	0.498100	0.808350
N251	N25	0.445500	0.514900	0.923430
N261	N26	0.297210	0.101600	0.851100
N271	N27	0.448490	0.084700	0.045120
N281	N28	0.374710	0.848200	0.915930
N291	N29	0.382200	0.992700	0.944260
N301	N30	0.418280	0.848400	0.961910
N311	N31	0.889290	0.406000	0.894980
N321	N32	0.540570	0.415900	0.894810
N331	N33	0.729630	0.605600	0.719280
N341	N34	0.714340	0.445000	0.865980
N351	N35	0.672910	0.487000	0.820770
N361	N36	0.758630	0.483700	0.822230
Zn101	Zn10	0.024400	0.618240	0.414850
Zn111	Zn11	0.046040	0.857690	0.587700
Zn121	Zn12	0.760570	0.318600	0.180110
I191	I19	0.006730	0.695700	0.465940
I201	I20	0.073210	0.702560	0.374840
I211	I21	0.980840	0.944320	0.617020
I221	I22	0.056510	0.675820	0.584860
I231	I23	0.671670	0.321680	0.165670
I241	I24	0.802720	0.157080	0.187480
C1091	C109	0.049490	0.442700	0.450170
H731	H73	0.035000	0.478300	0.466000
C1101	C110	0.064370	0.349700	0.455940
H741	H74	0.060600	0.322200	0.475300
C1111	C111	0.075040	0.433800	0.401260
H751	H75	0.079000	0.463400	0.382200
C1121	C112	0.090630	0.340400	0.404920
H761	H76	0.104900	0.306400	0.388700
C1131	C113	0.085120	0.297000	0.432590
C1141	C114	0.098900	0.194300	0.437300
C1151	C115	0.199500	0.995200	0.349910
H771	H77	0.213300	0.027600	0.333200
C1161	C116	0.177200	0.049400	0.371750
H781	H78	0.175400	0.117600	0.370000
C1171	C117	0.183200	0.855100	0.374580
H791	H79	0.184800	0.786800	0.375600
C1181	C118	0.160400	0.903800	0.397690
H801	H80	0.147100	0.869600	0.414200
C1191	C119	0.157540	0.003200	0.396240
C1201	C120	0.132440	0.057700	0.420340
C1211	C121	0.071000	0.866000	0.522320
H811	H81	0.076000	0.798700	0.524600
C1221	C122	0.084300	0.909400	0.495470
H821	H82	0.098100	0.872200	0.479700
C1231	C123	0.042440	0.010200	0.541110
H831	H83	0.026900	0.044900	0.556800
C1241	C124	0.054890	0.058700	0.515150
H841	H84	0.048500	0.125600	0.513100
C1251	C125	0.077040	0.007300	0.491920
C1261	C126	0.093120	0.058600	0.464350
C1271	C127	0.612390	0.563400	0.366280
H851	H85	0.583000	0.553900	0.355800
C1281	C128	0.655130	0.545300	0.351620
H861	H86	0.655100	0.525000	0.331300
C1291	C129	0.652490	0.604100	0.409820
H871	H87	0.651500	0.624700	0.430200
C1301	C130	0.696980	0.586000	0.396890
H881	H88	0.725900	0.592900	0.408100
C1311	C131	0.698090	0.557300	0.366910
C1321	C132	0.744560	0.542300	0.351080
C1331	C133	0.917660	0.593900	0.409300
H891	H89	0.918200	0.611900	0.429900
C1341	C134	0.873130	0.578600	0.395540
H901	H90	0.844000	0.586000	0.406500
C1351	C135	0.958250	0.557200	0.365810
H911	H91	0.987900	0.549200	0.355400
C1361	C136	0.915720	0.540600	0.350400
H921	H92	0.916200	0.521400	0.329900
C1371	C137	0.872220	0.552500	0.365430
C1381	C138	0.825710	0.539900	0.349940
C1391	C139	0.813200	0.394500	0.233280
H931	H93	0.840200	0.368100	0.223100
C1401	C140	0.819480	0.431100	0.261610
H941	H94	0.850400	0.430900	0.270700
C1411	C141	0.732690	0.433200	0.233350
H951	H95	0.702600	0.435700	0.223200
C1421	C142	0.735820	0.470400	0.262420
H961	H96	0.708200	0.496400	0.272100
C1431	C143	0.780070	0.468400	0.276760
C1441	C144	0.783290	0.501900	0.308350
N371	N37	0.054500	0.485100	0.423430
N381	N38	0.202790	0.898400	0.351100
N391	N39	0.051510	0.915300	0.545120
N401	N40	0.125290	0.151800	0.415930
N411	N41	0.117800	0.007300	0.444260
N421	N42	0.081720	0.151600	0.461910
N431	N43	0.610710	0.594000	0.394980
N441	N44	0.959430	0.584100	0.394810
N451	N45	0.770370	0.394400	0.219280
N461	N46	0.785660	0.555000	0.365980
N471	N47	0.827090	0.513000	0.320770
N481	N48	0.741370	0.516300	0.322230
Zn131	Zn13	0.475600	0.118240	0.414850
Zn141	Zn14	0.453960	0.357690	0.587700
Zn151	Zn15	0.739430	0.818600	0.180110
I251	I25	0.493270	0.195700	0.465940
I261	I26	0.426790	0.202560	0.374840
I271	I27	0.519160	0.444320	0.617020
I281	I28	0.443490	0.175820	0.584860
I291	I29	0.828330	0.821680	0.165670
I301	I30	0.697280	0.657080	0.187480
C1451	C145	0.450510	0.942700	0.450170
H971	H97	0.465000	0.978300	0.466000
C1461	C146	0.435630	0.849700	0.455940
H981	H98	0.439400	0.822200	0.475300
C1471	C147	0.424960	0.933800	0.401260
H991	H99	0.421000	0.963400	0.382200
C1481	C148	0.409370	0.840400	0.404920
H1001	H100	0.395100	0.806400	0.388700
C1491	C149	0.414880	0.797000	0.432590
C1501	C150	0.401100	0.694300	0.437300
C1511	C151	0.300500	0.495200	0.349910
H1011	H101	0.286700	0.527600	0.333200
C1521	C152	0.322800	0.549400	0.371750
H1021	H102	0.324600	0.617600	0.370000
C1531	C153	0.316800	0.355100	0.374580
H1031	H103	0.315200	0.286800	0.375600
C1541	C154	0.339600	0.403800	0.397690
H1041	H104	0.352900	0.369600	0.414200
C1551	C155	0.342460	0.503200	0.396240
C1561	C156	0.367560	0.557700	0.420340
C1571	C157	0.429000	0.366000	0.522320
H1051	H105	0.424000	0.298700	0.524600
C1581	C158	0.415700	0.409400	0.495470
H1061	H106	0.401900	0.372200	0.479700
C1591	C159	0.457560	0.510200	0.541110
H1071	H107	0.473100	0.544900	0.556800
C1601	C160	0.445110	0.558700	0.515150
H1081	H108	0.451500	0.625600	0.513100
C1611	C161	0.422960	0.507300	0.491920
C1621	C162	0.406880	0.558600	0.464350
C1631	C163	0.887610	0.063400	0.366280
H1091	H109	0.917000	0.053900	0.355800
C1641	C164	0.844870	0.045300	0.351620
H1101	H110	0.844900	0.025000	0.331300
C1651	C165	0.847510	0.104100	0.409820
H1111	H111	0.848500	0.124700	0.430200
C1661	C166	0.803020	0.086000	0.396890
H1121	H112	0.774100	0.092900	0.408100
C1671	C167	0.801910	0.057300	0.366910
C1681	C168	0.755440	0.042300	0.351080
C1691	C169	0.582340	0.093900	0.409300
H1131	H113	0.581800	0.111900	0.429900
C1701	C170	0.626870	0.078600	0.395540
H1141	H114	0.656000	0.086000	0.406500
C1711	C171	0.541750	0.057200	0.365810
H1151	H115	0.512100	0.049200	0.355400
C1721	C172	0.584280	0.040600	0.350400
H1161	H116	0.583800	0.021400	0.329900
C1731	C173	0.627780	0.052500	0.365430
C1741	C174	0.674290	0.039900	0.349940
C1751	C175	0.686800	0.894500	0.233280
H1171	H117	0.659800	0.868100	0.223100
C1761	C176	0.680520	0.931100	0.261610
H1181	H118	0.649600	0.930900	0.270700
C1771	C177	0.767310	0.933200	0.233350
H1191	H119	0.797400	0.935700	0.223200
C1781	C178	0.764180	0.970400	0.262420
H1201	H120	0.791800	0.996400	0.272100
C1791	C179	0.719930	0.968400	0.276760
C1801	C180	0.716710	0.001900	0.308350
N491	N49	0.445500	0.985100	0.423430
N501	N50	0.297210	0.398400	0.351100
N511	N51	0.448490	0.415300	0.545120
N521	N52	0.374710	0.651800	0.415930
N531	N53	0.382200	0.507300	0.444260
N541	N54	0.418280	0.651600	0.461910
N551	N55	0.889290	0.094000	0.394980
N561	N56	0.540570	0.084100	0.394810
N571	N57	0.729630	0.894400	0.219280
N581	N58	0.714340	0.055000	0.365980
N591	N59	0.672910	0.013000	0.320770
N601	N60	0.758630	0.016300	0.322230
Zn161	Zn16	0.024400	0.881760	0.914850
Zn171	Zn17	0.046040	0.642310	0.087700
Zn181	Zn18	0.760570	0.181400	0.680110
I311	I31	0.006730	0.804300	0.965940
I321	I32	0.073210	0.797440	0.874840
I331	I33	0.980840	0.555680	0.117020
I341	I34	0.056510	0.824180	0.084860
I351	I35	0.671670	0.178320	0.665670
I361	I36	0.802720	0.342920	0.687480
C1811	C181	0.049490	0.057300	0.950170
H1211	H121	0.035000	0.021700	0.966000
C1821	C182	0.064370	0.150300	0.955940
H1221	H122	0.060600	0.177800	0.975300
C1831	C183	0.075040	0.066200	0.901260
H1231	H123	0.079000	0.036600	0.882200
C1841	C184	0.090630	0.159600	0.904920
H1241	H124	0.104900	0.193600	0.888700
C1851	C185	0.085120	0.203000	0.932590
C1861	C186	0.098900	0.305700	0.937300
C1871	C187	0.199500	0.504800	0.849910
H1251	H125	0.213300	0.472400	0.833200
C1881	C188	0.177200	0.450600	0.871750
H1261	H126	0.175400	0.382400	0.870000
C1891	C189	0.183200	0.644900	0.874580
H1271	H127	0.184800	0.713200	0.875600
C1901	C190	0.160400	0.596200	0.897690
H1281	H128	0.147100	0.630400	0.914200
C1911	C191	0.157540	0.496800	0.896240
C1921	C192	0.132440	0.442300	0.920340
C1931	C193	0.071000	0.634000	0.022320
H1291	H129	0.076000	0.701300	0.024600
C1941	C194	0.084300	0.590600	0.995470
H1301	H130	0.098100	0.627800	0.979700
C1951	C195	0.042440	0.489800	0.041110
H1311	H131	0.026900	0.455100	0.056800
C1961	C196	0.054890	0.441300	0.015150
H1321	H132	0.048500	0.374400	0.013100
C1971	C197	0.077040	0.492700	0.991920
C1981	C198	0.093120	0.441400	0.964350
C1991	C199	0.612390	0.936600	0.866280
H1331	H133	0.583000	0.946100	0.855800
C2001	C200	0.655130	0.954700	0.851620
H1341	H134	0.655100	0.975000	0.831300
C2011	C201	0.652490	0.895900	0.909820
H1351	H135	0.651500	0.875300	0.930200
C2021	C202	0.696980	0.914000	0.896890
H1361	H136	0.725900	0.907100	0.908100
C2031	C203	0.698090	0.942700	0.866910
C2041	C204	0.744560	0.957700	0.851080
C2051	C205	0.917660	0.906100	0.909300
H1371	H137	0.918200	0.888100	0.929900
C2061	C206	0.873130	0.921400	0.895540
H1381	H138	0.844000	0.914000	0.906500
C2071	C207	0.958250	0.942800	0.865810
H1391	H139	0.987900	0.950800	0.855400
C2081	C208	0.915720	0.959400	0.850400
H1401	H140	0.916200	0.978600	0.829900
C2091	C209	0.872220	0.947500	0.865430
C2101	C210	0.825710	0.960100	0.849940
C2111	C211	0.813200	0.105500	0.733280
H1411	H141	0.840200	0.131900	0.723100
C2121	C212	0.819480	0.068900	0.761610
H1421	H142	0.850400	0.069100	0.770700
C2131	C213	0.732690	0.066800	0.733350
H1431	H143	0.702600	0.064300	0.723200
C2141	C214	0.735820	0.029600	0.762420
H1441	H144	0.708200	0.003600	0.772100
C2151	C215	0.780070	0.031600	0.776760
C2161	C216	0.783290	0.998100	0.808350
N611	N61	0.054500	0.014900	0.923430
N621	N62	0.202790	0.601600	0.851100
N631	N63	0.051510	0.584700	0.045120
N641	N64	0.125290	0.348200	0.915930
N651	N65	0.117800	0.492700	0.944260
N661	N66	0.081720	0.348400	0.961910
N671	N67	0.610710	0.906000	0.894980
N681	N68	0.959430	0.915900	0.894810
N691	N69	0.770370	0.105600	0.719280
N701	N70	0.785660	0.945000	0.865980
N711	N71	0.827090	0.987000	0.820770
N721	N72	0.741370	0.983700	0.822230
Zn191	Zn19	0.524400	0.618240	0.085150
Zn201	Zn20	0.546040	0.857690	0.912300
Zn211	Zn21	0.260570	0.318600	0.319890
I371	I37	0.506730	0.695700	0.034060
I381	I38	0.573210	0.702560	0.125160
I391	I39	0.480840	0.944320	0.882980
I401	I40	0.556510	0.675820	0.915140
I411	I41	0.171670	0.321680	0.334330
I421	I42	0.302720	0.157080	0.312520
C2171	C217	0.549490	0.442700	0.049830
H1451	H145	0.535000	0.478300	0.034000
C2181	C218	0.564370	0.349700	0.044060
H1461	H146	0.560600	0.322200	0.024700
C2191	C219	0.575040	0.433800	0.098740
H1471	H147	0.579000	0.463400	0.117800
C2201	C220	0.590630	0.340400	0.095080
H1481	H148	0.604900	0.306400	0.111300
C2211	C221	0.585120	0.297000	0.067410
C2221	C222	0.598900	0.194300	0.062700
C2231	C223	0.699500	0.995200	0.150090
H1491	H149	0.713300	0.027600	0.166800
C2241	C224	0.677200	0.049400	0.128250
H1501	H150	0.675400	0.117600	0.130000
C2251	C225	0.683200	0.855100	0.125420
H1511	H151	0.684800	0.786800	0.124400
C2261	C226	0.660400	0.903800	0.102310
H1521	H152	0.647100	0.869600	0.085800
C2271	C227	0.657540	0.003200	0.103760
C2281	C228	0.632440	0.057700	0.079660
C2291	C229	0.571000	0.866000	0.977680
H1531	H153	0.576000	0.798700	0.975400
C2301	C230	0.584300	0.909400	0.004530
H1541	H154	0.598100	0.872200	0.020300
C2311	C231	0.542440	0.010200	0.958890
H1551	H155	0.526900	0.044900	0.943200
C2321	C232	0.554890	0.058700	0.984850
H1561	H156	0.548500	0.125600	0.986900
C2331	C233	0.577040	0.007300	0.008080
C2341	C234	0.593120	0.058600	0.035650
C2351	C235	0.112390	0.563400	0.133720
H1571	H157	0.083000	0.553900	0.144200
C2361	C236	0.155130	0.545300	0.148380
H1581	H158	0.155100	0.525000	0.168700
C2371	C237	0.152490	0.604100	0.090180
H1591	H159	0.151500	0.624700	0.069800
C2381	C238	0.196980	0.586000	0.103110
H1601	H160	0.225900	0.592900	0.091900
C2391	C239	0.198090	0.557300	0.133090
C2401	C240	0.244560	0.542300	0.148920
C2411	C241	0.417660	0.593900	0.090700
H1611	H161	0.418200	0.611900	0.070100
C2421	C242	0.373130	0.578600	0.104460
H1621	H162	0.344000	0.586000	0.093500
C2431	C243	0.458250	0.557200	0.134190
H1631	H163	0.487900	0.549200	0.144600
C2441	C244	0.415720	0.540600	0.149600
H1641	H164	0.416200	0.521400	0.170100
C2451	C245	0.372220	0.552500	0.134570
C2461	C246	0.325710	0.539900	0.150060
C2471	C247	0.313200	0.394500	0.266720
H1651	H165	0.340200	0.368100	0.276900
C2481	C248	0.319480	0.431100	0.238390
H1661	H166	0.350400	0.430900	0.229300
C2491	C249	0.232690	0.433200	0.266650
H1671	H167	0.202600	0.435700	0.276800
C2501	C250	0.235820	0.470400	0.237580
H1681	H168	0.208200	0.496400	0.227900
C2511	C251	0.280070	0.468400	0.223240
C2521	C252	0.283290	0.501900	0.191650
N731	N73	0.554500	0.485100	0.076570
N741	N74	0.702790	0.898400	0.148900
N751	N75	0.551510	0.915300	0.954880
N761	N76	0.625290	0.151800	0.084070
N771	N77	0.617800	0.007300	0.055740
N781	N78	0.581720	0.151600	0.038090
N791	N79	0.110710	0.594000	0.105020
N801	N80	0.459430	0.584100	0.105190
N811	N81	0.270370	0.394400	0.280720
N821	N82	0.285660	0.555000	0.134020
N831	N83	0.327090	0.513000	0.179230
N841	N84	0.241370	0.516300	0.177770
Zn221	Zn22	0.975600	0.381760	0.585150
Zn231	Zn23	0.953960	0.142310	0.412300
Zn241	Zn24	0.239430	0.681400	0.819890
I431	I43	0.993270	0.304300	0.534060
I441	I44	0.926790	0.297440	0.625160
I451	I45	0.019160	0.055680	0.382980
I461	I46	0.943490	0.324180	0.415140
I471	I47	0.328330	0.678320	0.834330
I481	I48	0.197280	0.842920	0.812520
C2531	C253	0.950510	0.557300	0.549830
H1691	H169	0.965000	0.521700	0.534000
C2541	C254	0.935630	0.650300	0.544060
H1701	H170	0.939400	0.677800	0.524700
C2551	C255	0.924960	0.566200	0.598740
H1711	H171	0.921000	0.536600	0.617800
C2561	C256	0.909370	0.659600	0.595080
H1721	H172	0.895100	0.693600	0.611300
C2571	C257	0.914880	0.703000	0.567410
C2581	C258	0.901100	0.805700	0.562700
C2591	C259	0.800500	0.004800	0.650090
H1731	H173	0.786700	0.972400	0.666800
C2601	C260	0.822800	0.950600	0.628250
H1741	H174	0.824600	0.882400	0.630000
C2611	C261	0.816800	0.144900	0.625420
H1751	H175	0.815200	0.213200	0.624400
C2621	C262	0.839600	0.096200	0.602310
H1761	H176	0.852900	0.130400	0.585800
C2631	C263	0.842460	0.996800	0.603760
C2641	C264	0.867560	0.942300	0.579660
C2651	C265	0.929000	0.134000	0.477680
H1771	H177	0.924000	0.201300	0.475400
C2661	C266	0.915700	0.090600	0.504530
H1781	H178	0.901900	0.127800	0.520300
C2671	C267	0.957560	0.989800	0.458890
H1791	H179	0.973100	0.955100	0.443200
C2681	C268	0.945110	0.941300	0.484850
H1801	H180	0.951500	0.874400	0.486900
C2691	C269	0.922960	0.992700	0.508080
C2701	C270	0.906880	0.941400	0.535650
C2711	C271	0.387610	0.436600	0.633720
H1811	H181	0.417000	0.446100	0.644200
C2721	C272	0.344870	0.454700	0.648380
H1821	H182	0.344900	0.475000	0.668700
C2731	C273	0.347510	0.395900	0.590180
H1831	H183	0.348500	0.375300	0.569800
C2741	C274	0.303020	0.414000	0.603110
H1841	H184	0.274100	0.407100	0.591900
C2751	C275	0.301910	0.442700	0.633090
C2761	C276	0.255440	0.457700	0.648920
C2771	C277	0.082340	0.406100	0.590700
H1851	H185	0.081800	0.388100	0.570100
C2781	C278	0.126870	0.421400	0.604460
H1861	H186	0.156000	0.414000	0.593500
C2791	C279	0.041750	0.442800	0.634190
H1871	H187	0.012100	0.450800	0.644600
C2801	C280	0.084280	0.459400	0.649600
H1881	H188	0.083800	0.478600	0.670100
C2811	C281	0.127780	0.447500	0.634570
C2821	C282	0.174290	0.460100	0.650060
C2831	C283	0.186800	0.605500	0.766720
H1891	H189	0.159800	0.631900	0.776900
C2841	C284	0.180520	0.568900	0.738390
H1901	H190	0.149600	0.569100	0.729300
C2851	C285	0.267310	0.566800	0.766650
H1911	H191	0.297400	0.564300	0.776800
C2861	C286	0.264180	0.529600	0.737580
H1921	H192	0.291800	0.503600	0.727900
C2871	C287	0.219930	0.531600	0.723240
C2881	C288	0.216710	0.498100	0.691650
N851	N85	0.945500	0.514900	0.576570
N861	N86	0.797210	0.101600	0.648900
N871	N87	0.948490	0.084700	0.454880
N881	N88	0.874710	0.848200	0.584070
N891	N89	0.882200	0.992700	0.555740
N901	N90	0.918280	0.848400	0.538090
N911	N91	0.389290	0.406000	0.605020
N921	N92	0.040570	0.415900	0.605190
N931	N93	0.229630	0.605600	0.780720
N941	N94	0.214340	0.445000	0.634020
N951	N95	0.172910	0.487000	0.679230
N961	N96	0.258630	0.483700	0.677770
