data_GUXZIJ_freeONLY_PM
_symmetry_space_group_name_H-M	'P1'
_cell_length_a	9.793200
_cell_length_b	10.659200
_cell_length_c	17.564300
_cell_angle_alpha	83.846000
_cell_angle_beta	86.318000
_cell_angle_gamma	65.184000
_symmetry_Int_Tables_number 1

loop_
_symmetry_equiv_pos_as_xyz
'x,y,z'

loop_
_atom_site_label
_atom_site_type_symbol
_atom_site_fract_x
_atom_site_fract_y
_atom_site_fract_z
U11	U1	0.942800	0.185450	0.751100
U21	U2	0.313030	0.288990	0.749610
U31	U3	0.624900	0.739170	0.751040
P11	P1	0.686300	0.020600	0.812880
P21	P2	0.006500	0.503800	0.680740
P31	P3	0.754700	0.026600	0.171830
P41	P4	0.575500	0.451700	0.678350
O11	O1	0.793900	0.067600	0.765700
O21	O2	0.722100	0.869100	0.804300
O31	O3	0.523500	0.112300	0.793300
O41	O4	0.035300	0.358900	0.720300
O51	O5	0.145400	0.523900	0.699400
O61	O6	0.862100	0.617300	0.705000
O71	O7	0.787400	0.877900	0.209200
O81	O8	0.898300	0.042700	0.186400
O91	O9	0.612700	0.138300	0.202400
O101	O10	0.740500	0.351900	0.688400
O111	O11	0.471800	0.399000	0.724900
O121	O12	0.546700	0.598100	0.698800
O131	O13	0.017800	0.117900	0.662000
O141	O14	0.871700	0.255000	0.841200
O151	O15	0.274200	0.349600	0.842500
O161	O16	0.350900	0.231100	0.656400
O171	O17	0.669800	0.626200	0.837500
O181	O18	0.583400	0.849600	0.664600
C11	C1	0.587900	0.109200	0.957500
H11	H1	0.493000	0.163800	0.934900
C21	C2	0.705400	0.031900	0.912400
C31	C3	0.839700	0.955000	0.948500
H21	H2	0.926500	0.904500	0.919000
C41	C4	0.928900	0.622400	0.533200
H31	H3	0.880000	0.707500	0.556000
C51	C5	0.999300	0.499700	0.581100
C61	C6	0.072700	0.375200	0.545400
H41	H4	0.123000	0.289900	0.575400
C71	C7	0.850600	0.951000	0.026000
H51	H5	0.943400	0.891300	0.049100
C81	C8	0.736000	0.028200	0.071400
C91	C9	0.602800	0.110300	0.034300
H61	H6	0.519300	0.169200	0.063100
C101	C10	0.388000	0.510100	0.554100
H71	H7	0.310400	0.517800	0.591100
C111	C11	0.534900	0.471200	0.579100
C121	C12	0.647200	0.462600	0.522800
H81	H8	0.747400	0.437900	0.537700
U41	U4	0.057200	0.814550	0.248900
U51	U5	0.686970	0.711010	0.250390
U61	U6	0.375100	0.260830	0.248960
P51	P5	0.313700	0.979400	0.187120
P61	P6	0.993500	0.496200	0.319260
P71	P7	0.245300	0.973400	0.828170
P81	P8	0.424500	0.548300	0.321650
O191	O19	0.206100	0.932400	0.234300
O201	O20	0.277900	0.130900	0.195700
O211	O21	0.476500	0.887700	0.206700
O221	O22	0.964700	0.641100	0.279700
O231	O23	0.854600	0.476100	0.300600
O241	O24	0.137900	0.382700	0.295000
O251	O25	0.212600	0.122100	0.790800
O261	O26	0.101700	0.957300	0.813600
O271	O27	0.387300	0.861700	0.797600
O281	O28	0.259500	0.648100	0.311600
O291	O29	0.528200	0.601000	0.275100
O301	O30	0.453300	0.401900	0.301200
O311	O31	0.982200	0.882100	0.338000
O321	O32	0.128300	0.745000	0.158800
O331	O33	0.725800	0.650400	0.157500
O341	O34	0.649100	0.768900	0.343600
O351	O35	0.330200	0.373800	0.162500
O361	O36	0.416600	0.150400	0.335400
C131	C13	0.412100	0.890800	0.042500
H91	H9	0.507000	0.836200	0.065100
C141	C14	0.294600	0.968100	0.087600
C151	C15	0.160300	0.045000	0.051500
H101	H10	0.073500	0.095500	0.081000
C161	C16	0.071100	0.377600	0.466800
H111	H11	0.120000	0.292500	0.444000
C171	C17	0.000700	0.500300	0.418900
C181	C18	0.927300	0.624800	0.454600
H121	H12	0.877000	0.710100	0.424600
C191	C19	0.149400	0.049000	0.974000
H131	H13	0.056600	0.108700	0.950900
C201	C20	0.264000	0.971800	0.928600
C211	C21	0.397200	0.889700	0.965700
H141	H14	0.480700	0.830800	0.936900
C221	C22	0.612000	0.489900	0.445900
H151	H15	0.689600	0.482200	0.408900
C231	C23	0.465100	0.528800	0.420900
C241	C24	0.352800	0.537400	0.477200
H161	H16	0.252600	0.562100	0.462300
