data_HABKOM_freeONLY_PM
_symmetry_space_group_name_H-M	'P1'
_cell_length_a	9.097000
_cell_length_b	16.994000
_cell_length_c	9.644100
_cell_angle_alpha	90.000000
_cell_angle_beta	103.456000
_cell_angle_gamma	90.000000
_symmetry_Int_Tables_number 1

loop_
_symmetry_equiv_pos_as_xyz
'x,y,z'

loop_
_atom_site_label
_atom_site_type_symbol
_atom_site_fract_x
_atom_site_fract_y
_atom_site_fract_z
Ga11	Ga1	0.797410	0.776570	0.075930
Ga21	Ga2	0.215940	0.765700	0.963330
V11	V1	0.314400	0.003170	0.165340
P11	P1	0.499370	0.870340	0.008130
P21	P2	0.892710	0.837720	0.814600
P31	P3	0.109170	0.845110	0.214010
O11	O1	0.439100	0.917200	0.115300
O21	O2	0.373100	0.818400	0.917400
O31	O3	0.565400	0.916700	0.905600
O41	O4	0.618500	0.813800	0.097800
O51	O5	0.824500	0.774000	0.895500
O61	O6	0.851400	0.919600	0.849300
O71	O7	0.832600	0.821100	0.655500
O81	O8	0.064900	0.832000	0.852500
O91	O9	0.934900	0.845600	0.180200
O101	O10	0.164300	0.777600	0.133300
O111	O11	0.168200	0.829100	0.373500
O121	O12	0.156500	0.925000	0.176000
O131	O13	0.186100	0.992900	0.917600
O141	O14	0.395100	0.009500	0.331400
H11	H1	0.094200	0.979000	0.910600
H21	H2	0.186400	0.037600	0.876900
Ga31	Ga3	0.202590	0.276570	0.424070
Ga41	Ga4	0.784060	0.265700	0.536670
V21	V2	0.685600	0.503170	0.334660
P41	P4	0.500630	0.370340	0.491870
P51	P5	0.107290	0.337720	0.685400
P61	P6	0.890830	0.345110	0.285990
O151	O15	0.560900	0.417200	0.384700
O161	O16	0.626900	0.318400	0.582600
O171	O17	0.434600	0.416700	0.594400
O181	O18	0.381500	0.313800	0.402200
O191	O19	0.175500	0.274000	0.604500
O201	O20	0.148600	0.419600	0.650700
O211	O21	0.167400	0.321100	0.844500
O221	O22	0.935100	0.332000	0.647500
O231	O23	0.065100	0.345600	0.319800
O241	O24	0.835700	0.277600	0.366700
O251	O25	0.831800	0.329100	0.126500
O261	O26	0.843500	0.425000	0.324000
O271	O27	0.813900	0.492900	0.582400
O281	O28	0.604900	0.509500	0.168600
H31	H3	0.905800	0.479000	0.589400
H41	H4	0.813600	0.537600	0.623100
Ga51	Ga5	0.202590	0.223430	0.924070
Ga61	Ga6	0.784060	0.234300	0.036670
V31	V3	0.685600	0.996830	0.834660
P71	P7	0.500630	0.129660	0.991870
P81	P8	0.107290	0.162280	0.185400
P91	P9	0.890830	0.154890	0.785990
O291	O29	0.560900	0.082800	0.884700
O301	O30	0.626900	0.181600	0.082600
O311	O31	0.434600	0.083300	0.094400
O321	O32	0.381500	0.186200	0.902200
O331	O33	0.175500	0.226000	0.104500
O341	O34	0.148600	0.080400	0.150700
O351	O35	0.167400	0.178900	0.344500
O361	O36	0.935100	0.168000	0.147500
O371	O37	0.065100	0.154400	0.819800
O381	O38	0.835700	0.222400	0.866700
O391	O39	0.831800	0.170900	0.626500
O401	O40	0.843500	0.075000	0.824000
O411	O41	0.813900	0.007100	0.082400
O421	O42	0.604900	0.990500	0.668600
H51	H5	0.905800	0.021000	0.089400
H61	H6	0.813600	0.962400	0.123100
Ga71	Ga7	0.797410	0.723430	0.575930
Ga81	Ga8	0.215940	0.734300	0.463330
V41	V4	0.314400	0.496830	0.665340
P101	P10	0.499370	0.629660	0.508130
P111	P11	0.892710	0.662280	0.314600
P121	P12	0.109170	0.654890	0.714010
O431	O43	0.439100	0.582800	0.615300
O441	O44	0.373100	0.681600	0.417400
O451	O45	0.565400	0.583300	0.405600
O461	O46	0.618500	0.686200	0.597800
O471	O47	0.824500	0.726000	0.395500
O481	O48	0.851400	0.580400	0.349300
O491	O49	0.832600	0.678900	0.155500
O501	O50	0.064900	0.668000	0.352500
O511	O51	0.934900	0.654400	0.680200
O521	O52	0.164300	0.722400	0.633300
O531	O53	0.168200	0.670900	0.873500
O541	O54	0.156500	0.575000	0.676000
O551	O55	0.186100	0.507100	0.417600
O561	O56	0.395100	0.490500	0.831400
H71	H7	0.094200	0.521000	0.410600
H81	H8	0.186400	0.462400	0.376900
