data_HABRIN_freeONLY_PM
_symmetry_space_group_name_H-M	'P1'
_cell_length_a	12.489500
_cell_length_b	12.489500
_cell_length_c	18.254000
_cell_angle_alpha	98.756700
_cell_angle_beta	98.756700
_cell_angle_gamma	116.378000
_symmetry_Int_Tables_number 1

loop_
_symmetry_equiv_pos_as_xyz
'x,y,z'

loop_
_atom_site_label
_atom_site_type_symbol
_atom_site_fract_x
_atom_site_fract_y
_atom_site_fract_z
Zn11	Zn1	0.202230	0.336250	0.959480
Zn21	Zn2	0.663750	0.797770	0.540520
Zn31	Zn3	0.797770	0.663750	0.040520
Zn41	Zn4	0.336250	0.202230	0.459480
Zn51	Zn5	0.763760	0.236240	0.250000
Zn61	Zn6	0.236240	0.763760	0.750000
B11	B1	0.711500	0.034300	0.945300
B21	B2	0.965700	0.288500	0.554700
B31	B3	0.288500	0.965700	0.054700
B41	B4	0.034300	0.711500	0.445300
H11	H1	0.805000	0.977000	0.819000
H21	H2	0.020000	0.108000	0.812000
H31	H3	0.947000	0.233000	0.005000
H41	H4	0.584000	0.712000	0.064000
H51	H5	0.550000	0.880000	0.026000
H61	H6	0.824000	0.876000	0.954000
H71	H7	0.768000	0.082000	0.103000
H81	H8	0.756000	0.378000	0.098000
H91	H9	0.698000	0.256000	0.963000
H101	H10	0.671000	0.113000	0.820000
H111	H11	0.464000	0.000000	0.722000
H121	H12	0.472000	0.844000	0.884000
H131	H13	0.193000	0.419000	0.246000
H141	H14	0.420000	0.670000	0.142000
H151	H15	0.271000	0.363000	0.676000
H161	H16	0.497000	0.597000	0.881000
H171	H17	0.922000	0.150000	0.233000
H181	H18	0.023000	0.195000	0.681000
H191	H19	0.892000	0.980000	0.688000
H201	H20	0.767000	0.053000	0.495000
H211	H21	0.288000	0.416000	0.436000
H221	H22	0.120000	0.450000	0.474000
H231	H23	0.124000	0.176000	0.546000
H241	H24	0.918000	0.232000	0.397000
H251	H25	0.622000	0.244000	0.402000
H261	H26	0.744000	0.302000	0.537000
H271	H27	0.887000	0.329000	0.680000
H281	H28	0.000000	0.536000	0.778000
H291	H29	0.156000	0.528000	0.616000
H301	H30	0.581000	0.807000	0.254000
H311	H31	0.330000	0.580000	0.358000
H321	H32	0.637000	0.729000	0.824000
H331	H33	0.403000	0.503000	0.619000
H341	H34	0.850000	0.078000	0.267000
H351	H35	0.195000	0.023000	0.181000
H361	H36	0.980000	0.892000	0.188000
H371	H37	0.053000	0.767000	0.995000
H381	H38	0.416000	0.288000	0.936000
H391	H39	0.450000	0.120000	0.974000
H401	H40	0.176000	0.124000	0.046000
H411	H41	0.232000	0.918000	0.897000
H421	H42	0.244000	0.622000	0.902000
H431	H43	0.302000	0.744000	0.037000
H441	H44	0.329000	0.887000	0.180000
H451	H45	0.536000	0.000000	0.278000
H461	H46	0.528000	0.156000	0.116000
H471	H47	0.807000	0.581000	0.754000
H481	H48	0.580000	0.330000	0.858000
H491	H49	0.729000	0.637000	0.324000
H501	H50	0.503000	0.403000	0.119000
H511	H51	0.078000	0.850000	0.767000
H521	H52	0.977000	0.805000	0.319000
H531	H53	0.108000	0.020000	0.312000
H541	H54	0.233000	0.947000	0.505000
H551	H55	0.712000	0.584000	0.564000
H561	H56	0.880000	0.550000	0.526000
H571	H57	0.876000	0.824000	0.454000
H581	H58	0.082000	0.768000	0.603000
H591	H59	0.378000	0.756000	0.598000
H601	H60	0.256000	0.698000	0.463000
H611	H61	0.113000	0.671000	0.320000
H621	H62	0.000000	0.464000	0.222000
H631	H63	0.844000	0.472000	0.384000
H641	H64	0.419000	0.193000	0.746000
H651	H65	0.670000	0.420000	0.642000
H661	H66	0.363000	0.271000	0.176000
H671	H67	0.597000	0.497000	0.381000
H681	H68	0.150000	0.922000	0.733000
C11	C1	0.858200	0.041000	0.854100
C21	C2	0.974600	0.115000	0.854200
C31	C3	0.938100	0.188700	0.955800
C41	C4	0.620500	0.770500	0.036000
C51	C5	0.606000	0.863000	0.015800
C61	C6	0.760300	0.860300	0.978600
C71	C7	0.761000	0.143800	0.086900
C81	C8	0.748300	0.306100	0.081100
C91	C9	0.717100	0.239700	0.009200
C101	C10	0.598300	0.051900	0.817200
C111	C11	0.489300	0.984900	0.767200
C121	C12	0.493100	0.893100	0.855300
C131	C13	0.217100	0.443900	0.108900
C141	C14	0.272100	0.518100	0.252100
C151	C15	0.295800	0.539400	0.181300
C161	C16	0.398400	0.645000	0.181500
C171	C17	0.287700	0.388700	0.828500
C181	C18	0.371200	0.471400	0.786900
C191	C19	0.346200	0.443400	0.708900
C201	C20	0.476200	0.578200	0.828400
C211	C21	0.959000	0.141800	0.645900
C221	C22	0.885000	0.025400	0.645800
C231	C23	0.811300	0.061900	0.544200
C241	C24	0.229500	0.379500	0.464000
C251	C25	0.137000	0.394000	0.484200
C261	C26	0.139700	0.239700	0.521400
C271	C27	0.856200	0.239000	0.413100
C281	C28	0.693900	0.251700	0.418900
C291	C29	0.760300	0.282900	0.490800
C301	C30	0.948100	0.401700	0.682800
C311	C31	0.015100	0.510700	0.732800
C321	C32	0.106900	0.506900	0.644700
C331	C33	0.556100	0.782900	0.391100
C341	C34	0.481900	0.727900	0.247900
C351	C35	0.460600	0.704200	0.318700
C361	C36	0.355000	0.601600	0.318500
C371	C37	0.611300	0.712300	0.671500
C381	C38	0.528600	0.628800	0.713100
C391	C39	0.556600	0.653800	0.791100
C401	C40	0.421800	0.523800	0.671600
C411	C41	0.141800	0.959000	0.145900
C421	C42	0.025400	0.885000	0.145800
C431	C43	0.061900	0.811300	0.044200
C441	C44	0.379500	0.229500	0.964000
C451	C45	0.394000	0.137000	0.984200
C461	C46	0.239700	0.139700	0.021400
C471	C47	0.239000	0.856200	0.913100
C481	C48	0.251700	0.693900	0.918900
C491	C49	0.282900	0.760300	0.990800
C501	C50	0.401700	0.948100	0.182800
C511	C51	0.510700	0.015100	0.232800
C521	C52	0.506900	0.106900	0.144700
C531	C53	0.782900	0.556100	0.891100
C541	C54	0.727900	0.481900	0.747900
C551	C55	0.704200	0.460600	0.818700
C561	C56	0.601600	0.355000	0.818500
C571	C57	0.712300	0.611300	0.171500
C581	C58	0.628800	0.528600	0.213100
C591	C59	0.653800	0.556600	0.291100
C601	C60	0.523800	0.421800	0.171600
C611	C61	0.041000	0.858200	0.354100
C621	C62	0.115000	0.974600	0.354200
C631	C63	0.188700	0.938100	0.455800
C641	C64	0.770500	0.620500	0.536000
C651	C65	0.863000	0.606000	0.515800
C661	C66	0.860300	0.760300	0.478600
C671	C67	0.143800	0.761000	0.586900
C681	C68	0.306100	0.748300	0.581100
C691	C69	0.239700	0.717100	0.509200
C701	C70	0.051900	0.598300	0.317200
C711	C71	0.984900	0.489300	0.267200
C721	C72	0.893100	0.493100	0.355300
C731	C73	0.443900	0.217100	0.608900
C741	C74	0.518100	0.272100	0.752100
C751	C75	0.539400	0.295800	0.681300
C761	C76	0.645000	0.398400	0.681500
C771	C77	0.388700	0.287700	0.328500
C781	C78	0.471400	0.371200	0.286900
C791	C79	0.443400	0.346200	0.208900
C801	C80	0.578200	0.476200	0.328400
N11	N1	0.025700	0.211300	0.919000
N21	N2	0.833000	0.086400	0.919000
N31	N3	0.720800	0.769800	0.013200
N41	N4	0.693200	0.919800	0.977500
N51	N5	0.777300	0.244500	0.131800
N61	N6	0.723200	0.132600	0.011300
N71	N7	0.604200	0.993600	0.875500
N81	N8	0.421000	0.882000	0.791600
N91	N9	0.788700	0.974300	0.581000
N101	N10	0.913600	0.167000	0.581000
N111	N11	0.230200	0.279200	0.486800
N121	N12	0.080200	0.306800	0.522500
N131	N13	0.755500	0.222700	0.368200
N141	N14	0.867400	0.276800	0.488700
N151	N15	0.006400	0.395800	0.624500
N161	N16	0.118000	0.579000	0.708400
N171	N17	0.974300	0.788700	0.081000
N181	N18	0.167000	0.913600	0.081000
N191	N19	0.279200	0.230200	0.986800
N201	N20	0.306800	0.080200	0.022500
N211	N21	0.222700	0.755500	0.868200
N221	N22	0.276800	0.867400	0.988700
N231	N23	0.395800	0.006400	0.124500
N241	N24	0.579000	0.118000	0.208400
N251	N25	0.211300	0.025700	0.419000
N261	N26	0.086400	0.833000	0.419000
N271	N27	0.769800	0.720800	0.513200
N281	N28	0.919800	0.693200	0.477500
N291	N29	0.244500	0.777300	0.631800
N301	N30	0.132600	0.723200	0.511300
N311	N31	0.993600	0.604200	0.375500
N321	N32	0.882000	0.421000	0.291600
O11	O1	0.133000	0.343400	0.108800
O21	O2	0.247100	0.471100	0.047300
O31	O3	0.213100	0.278300	0.794200
O41	O4	0.297300	0.434300	0.897300
O51	O5	0.656600	0.867000	0.391200
O61	O6	0.528900	0.752900	0.452700
O71	O7	0.721700	0.786900	0.705800
O81	O8	0.565700	0.702700	0.602700
O91	O9	0.867000	0.656600	0.891200
O101	O10	0.752900	0.528900	0.952700
O111	O11	0.786900	0.721700	0.205800
O121	O12	0.702700	0.565700	0.102700
O131	O13	0.343400	0.133000	0.608800
O141	O14	0.471100	0.247100	0.547300
O151	O15	0.278300	0.213100	0.294200
O161	O16	0.434300	0.297300	0.397300
O171	O17	0.858900	0.141100	0.250000
O181	O18	0.141100	0.858900	0.750000
