data_HADQUA_freeONLY_PM
_symmetry_space_group_name_H-M	'P1'
_cell_length_a	23.530300
_cell_length_b	23.530300
_cell_length_c	23.530300
_cell_angle_alpha	109.471000
_cell_angle_beta	109.471000
_cell_angle_gamma	109.471000
_symmetry_Int_Tables_number 1

loop_
_symmetry_equiv_pos_as_xyz
'x,y,z'

loop_
_atom_site_label
_atom_site_type_symbol
_atom_site_fract_x
_atom_site_fract_y
_atom_site_fract_z
Zn11	Zn1	0.274140	0.000000	0.000000
Zn21	Zn2	0.500000	0.274140	0.500000
Zn31	Zn3	0.000000	0.500000	0.774140
Zn41	Zn4	0.225860	0.225860	0.725860
Zn51	Zn5	0.774140	0.000000	0.000000
Zn61	Zn6	0.500000	0.774140	0.500000
Zn71	Zn7	0.725860	0.725860	0.225860
Zn81	Zn8	0.000000	0.500000	0.274140
Zn91	Zn9	0.625000	0.375000	0.250000
Zn101	Zn10	0.875000	0.125000	0.750000
Zn111	Zn11	0.250000	0.875000	0.625000
Zn121	Zn12	0.750000	0.625000	0.875000
Zn131	Zn13	0.375000	0.750000	0.125000
Zn141	Zn14	0.125000	0.250000	0.375000
H11	H1	0.427000	0.026700	0.094300
H21	H2	0.540500	0.118700	0.161400
H31	H3	0.562800	0.229800	0.189000
H41	H4	0.167900	0.057700	0.971200
H51	H5	0.172000	0.164300	0.002500
H61	H6	0.281000	0.267900	0.072900
H71	H7	0.524300	0.427000	0.207100
H81	H8	0.432400	0.332700	0.405700
H91	H9	0.457300	0.379100	0.338600
H101	H10	0.540800	0.373800	0.311000
H111	H11	0.586500	0.196700	0.528800
H121	H12	0.661800	0.169500	0.497500
H131	H13	0.695000	0.208100	0.427100
H141	H14	0.719900	0.317200	0.292900
H151	H15	0.067600	0.473300	0.900300
H161	H16	0.042700	0.381300	0.921800
H171	H17	0.959200	0.270200	0.833000
H181	H18	0.913500	0.442300	0.610200
H191	H19	0.838200	0.335700	0.507700
H201	H20	0.805000	0.232100	0.513100
H211	H21	0.780100	0.073000	0.597300
H221	H22	0.073000	0.167300	0.599700
H231	H23	0.959500	0.120900	0.578200
H241	H24	0.937200	0.126200	0.667000
H251	H25	0.332100	0.303300	0.889800
H261	H26	0.328000	0.330500	0.992300
H271	H27	0.219000	0.291900	0.986900
H281	H28	0.975700	0.182800	0.902700
H291	H29	0.400300	0.067600	0.973300
H301	H30	0.421800	0.042700	0.881300
H311	H31	0.333000	0.959200	0.770200
H321	H32	0.110200	0.913500	0.942300
H331	H33	0.007700	0.838200	0.835700
H341	H34	0.013100	0.805000	0.732100
H351	H35	0.097300	0.780100	0.573000
H361	H36	0.099700	0.073000	0.667300
H371	H37	0.078200	0.959500	0.620900
H381	H38	0.167000	0.937200	0.626200
H391	H39	0.389800	0.332100	0.803300
H401	H40	0.492300	0.328000	0.830500
H411	H41	0.486900	0.219000	0.791900
H421	H42	0.402700	0.975700	0.682800
H431	H43	0.594300	0.427000	0.526700
H441	H44	0.661400	0.540500	0.618700
H451	H45	0.689000	0.562800	0.729800
H461	H46	0.471200	0.167900	0.557700
H471	H47	0.502500	0.172000	0.664300
H481	H48	0.572900	0.281000	0.767900
H491	H49	0.707100	0.524300	0.927000
H501	H50	0.905700	0.432400	0.832700
H511	H51	0.838600	0.457300	0.879100
H521	H52	0.811000	0.540800	0.873800
H531	H53	0.028800	0.586500	0.696700
H541	H54	0.997500	0.661800	0.669500
H551	H55	0.927100	0.695000	0.708100
H561	H56	0.792900	0.719900	0.817200
H571	H57	0.332700	0.905700	0.932400
H581	H58	0.379100	0.838600	0.957300
H591	H59	0.373800	0.811000	0.040800
H601	H60	0.196700	0.028800	0.086500
H611	H61	0.169500	0.997500	0.161800
H621	H62	0.208100	0.927100	0.195000
H631	H63	0.317200	0.792900	0.219900
H641	H64	0.026700	0.594300	0.927000
H651	H65	0.118700	0.661400	0.040500
H661	H66	0.229800	0.689000	0.062800
H671	H67	0.057700	0.471200	0.667900
H681	H68	0.164300	0.502500	0.672000
H691	H69	0.267900	0.572900	0.781000
H701	H70	0.427000	0.707100	0.024300
H711	H71	0.167300	0.099700	0.573000
H721	H72	0.120900	0.078200	0.459500
H731	H73	0.126200	0.167000	0.437200
H741	H74	0.303300	0.389800	0.832100
H751	H75	0.330500	0.492300	0.828000
H761	H76	0.291900	0.486900	0.719000
H771	H77	0.182800	0.402700	0.475700
H781	H78	0.473300	0.400300	0.567600
H791	H79	0.381300	0.421800	0.542700
H801	H80	0.270200	0.333000	0.459200
H811	H81	0.442300	0.110200	0.413500
H821	H82	0.335700	0.007700	0.338200
H831	H83	0.232100	0.013100	0.305000
H841	H84	0.073000	0.097300	0.280100
H851	H85	0.832700	0.932400	0.905700
H861	H86	0.879100	0.957300	0.838600
H871	H87	0.873800	0.040800	0.811000
H881	H88	0.696700	0.086500	0.028800
H891	H89	0.669500	0.161800	0.997500
H901	H90	0.708100	0.195000	0.927100
H911	H91	0.817200	0.219900	0.792900
H921	H92	0.526700	0.927000	0.594300
H931	H93	0.618700	0.040500	0.661400
H941	H94	0.729800	0.062800	0.689000
H951	H95	0.557700	0.667900	0.471200
H961	H96	0.664300	0.672000	0.502500
H971	H97	0.767900	0.781000	0.572900
H981	H98	0.927000	0.024300	0.707100
H991	H99	0.667300	0.573000	0.099700
H1001	H100	0.620900	0.459500	0.078200
H1011	H101	0.626200	0.437200	0.167000
H1021	H102	0.803300	0.832100	0.389800
H1031	H103	0.830500	0.828000	0.492300
H1041	H104	0.791900	0.719000	0.486900
H1051	H105	0.682800	0.475700	0.402700
H1061	H106	0.973300	0.567600	0.400300
H1071	H107	0.881300	0.542700	0.421800
H1081	H108	0.770200	0.459200	0.333000
H1091	H109	0.942300	0.413500	0.110200
H1101	H110	0.835700	0.338200	0.007700
H1111	H111	0.732100	0.305000	0.013100
H1121	H112	0.573000	0.280100	0.097300
H1131	H113	0.927000	0.094300	0.026700
H1141	H114	0.040500	0.161400	0.118700
H1151	H115	0.062800	0.189000	0.229800
H1161	H116	0.667900	0.971200	0.057700
H1171	H117	0.672000	0.002500	0.164300
H1181	H118	0.781000	0.072900	0.267900
H1191	H119	0.024300	0.207100	0.427000
H1201	H120	0.932400	0.405700	0.332700
H1211	H121	0.957300	0.338600	0.379100
H1221	H122	0.040800	0.311000	0.373800
H1231	H123	0.086500	0.528800	0.196700
H1241	H124	0.161800	0.497500	0.169500
H1251	H125	0.195000	0.427100	0.208100
H1261	H126	0.219900	0.292900	0.317200
H1271	H127	0.567600	0.900300	0.473300
H1281	H128	0.542700	0.921800	0.381300
H1291	H129	0.459200	0.833000	0.270200
H1301	H130	0.413500	0.610200	0.442300
H1311	H131	0.338200	0.507700	0.335700
H1321	H132	0.305000	0.513100	0.232100
H1331	H133	0.280100	0.597300	0.073000
H1341	H134	0.573000	0.599700	0.167300
H1351	H135	0.459500	0.578200	0.120900
H1361	H136	0.437200	0.667000	0.126200
H1371	H137	0.832100	0.889800	0.303300
H1381	H138	0.828000	0.992300	0.330500
H1391	H139	0.719000	0.986900	0.291900
H1401	H140	0.475700	0.902700	0.182800
H1411	H141	0.900300	0.973300	0.067600
H1421	H142	0.921800	0.881300	0.042700
H1431	H143	0.833000	0.770200	0.959200
H1441	H144	0.610200	0.942300	0.913500
H1451	H145	0.507700	0.835700	0.838200
H1461	H146	0.513100	0.732100	0.805000
H1471	H147	0.597300	0.573000	0.780100
H1481	H148	0.599700	0.667300	0.073000
H1491	H149	0.578200	0.620900	0.959500
H1501	H150	0.667000	0.626200	0.937200
H1511	H151	0.889800	0.803300	0.332100
H1521	H152	0.992300	0.830500	0.328000
H1531	H153	0.986900	0.791900	0.219000
H1541	H154	0.902700	0.682800	0.975700
H1551	H155	0.094300	0.526700	0.427000
H1561	H156	0.161400	0.618700	0.540500
H1571	H157	0.189000	0.729800	0.562800
H1581	H158	0.971200	0.557700	0.167900
H1591	H159	0.002500	0.664300	0.172000
H1601	H160	0.072900	0.767900	0.281000
H1611	H161	0.207100	0.927000	0.524300
H1621	H162	0.405700	0.832700	0.432400
H1631	H163	0.338600	0.879100	0.457300
H1641	H164	0.311000	0.873800	0.540800
H1651	H165	0.528800	0.696700	0.586500
H1661	H166	0.497500	0.669500	0.661800
H1671	H167	0.427100	0.708100	0.695000
H1681	H168	0.292900	0.817200	0.719900
C11	C1	0.435000	0.072100	0.104500
C21	C2	0.503100	0.127100	0.145200
C31	C3	0.516200	0.192300	0.161700
C41	C4	0.460300	0.205300	0.138200
C51	C5	0.391500	0.144600	0.095300
C61	C6	0.211900	0.099100	0.002000
C71	C7	0.213800	0.162800	0.019200
C81	C8	0.277900	0.223800	0.061100
C91	C9	0.338400	0.218510	0.085910
C101	C10	0.331970	0.152890	0.068860
C111	C11	0.496000	0.378000	0.185600
C121	C12	0.407400	0.277700	0.128700
C131	C13	0.465200	0.270300	0.151500
C141	C14	0.467600	0.330500	0.395500
C151	C15	0.481900	0.357900	0.354800
C161	C16	0.530600	0.354500	0.338300
C171	C17	0.567100	0.322100	0.361800
C181	C18	0.549300	0.296200	0.404700
C191	C19	0.597100	0.209900	0.498000
C201	C20	0.643600	0.194600	0.480800
C211	C21	0.662700	0.216800	0.438900
C221	C22	0.632600	0.252490	0.414090
C231	C23	0.584030	0.263110	0.431140
C241	C24	0.692400	0.310400	0.314400
C251	C25	0.649000	0.278700	0.371300
C261	C26	0.618800	0.313700	0.348500
C271	C27	0.032400	0.427900	0.862900
C281	C28	0.018100	0.372900	0.876000
C291	C29	0.969400	0.307700	0.823900
C301	C30	0.932900	0.294700	0.755000
C311	C31	0.950700	0.355400	0.746900
C321	C32	0.902900	0.400900	0.612800
C331	C33	0.856400	0.337200	0.551000
C341	C34	0.837300	0.276200	0.554100
C351	C35	0.867400	0.281490	0.619890
C361	C36	0.915970	0.347110	0.679080
C371	C37	0.807600	0.122000	0.618000
C381	C38	0.851000	0.222300	0.629700
C391	C39	0.881200	0.229700	0.694900
C401	C40	0.065000	0.169500	0.637100
C411	C41	0.996900	0.142100	0.624000
C421	C42	0.983800	0.145500	0.676100
C431	C43	0.039700	0.177900	0.745000
C441	C44	0.108500	0.203800	0.753100
C451	C45	0.288100	0.290100	0.887200
C461	C46	0.286200	0.305400	0.949000
C471	C47	0.222100	0.283200	0.945900
C481	C48	0.161600	0.247510	0.880110
C491	C49	0.168030	0.236890	0.820920
C501	C50	0.004000	0.189600	0.882000
C511	C51	0.092600	0.221300	0.870300
C521	C52	0.034800	0.186300	0.805100
C531	C53	0.362900	0.032400	0.927900
C541	C54	0.376000	0.018100	0.872900
C551	C55	0.323900	0.969400	0.807700
C561	C56	0.255000	0.932900	0.794700
C571	C57	0.246900	0.950700	0.855400
C581	C58	0.112800	0.902900	0.900900
C591	C59	0.051000	0.856400	0.837200
C601	C60	0.054100	0.837300	0.776200
C611	C61	0.119890	0.867400	0.781490
C621	C62	0.179080	0.915970	0.847110
C631	C63	0.118000	0.807600	0.622000
C641	C64	0.129700	0.851000	0.722300
C651	C65	0.194900	0.881200	0.729700
C661	C66	0.137100	0.065000	0.669500
C671	C67	0.124000	0.996900	0.642100
C681	C68	0.176100	0.983800	0.645500
C691	C69	0.245000	0.039700	0.677900
C701	C70	0.253100	0.108500	0.703800
C711	C71	0.387200	0.288100	0.790100
C721	C72	0.449000	0.286200	0.805400
C731	C73	0.445900	0.222100	0.783200
C741	C74	0.380110	0.161600	0.747510
C751	C75	0.320920	0.168030	0.736890
C761	C76	0.382000	0.004000	0.689600
C771	C77	0.370300	0.092600	0.721300
C781	C78	0.305100	0.034800	0.686300
C791	C79	0.604500	0.435000	0.572100
C801	C80	0.645200	0.503100	0.627100
C811	C81	0.661700	0.516200	0.692300
C821	C82	0.638200	0.460300	0.705300
C831	C83	0.595300	0.391500	0.644600
C841	C84	0.502000	0.211900	0.599100
C851	C85	0.519200	0.213800	0.662800
C861	C86	0.561100	0.277900	0.723800
C871	C87	0.585910	0.338400	0.718510
C881	C88	0.568860	0.331970	0.652890
C891	C89	0.685600	0.496000	0.878000
C901	C90	0.628700	0.407400	0.777700
C911	C91	0.651500	0.465200	0.770300
C921	C92	0.895500	0.467600	0.830500
C931	C93	0.854800	0.481900	0.857900
C941	C94	0.838300	0.530600	0.854500
C951	C95	0.861800	0.567100	0.822100
C961	C96	0.904700	0.549300	0.796200
C971	C97	0.998000	0.597100	0.709900
C981	C98	0.980800	0.643600	0.694600
C991	C99	0.938900	0.662700	0.716800
C1001	C100	0.914090	0.632600	0.752490
C1011	C101	0.931140	0.584030	0.763110
C1021	C102	0.814400	0.692400	0.810400
C1031	C103	0.871300	0.649000	0.778700
C1041	C104	0.848500	0.618800	0.813700
C1051	C105	0.330500	0.895500	0.967600
C1061	C106	0.357900	0.854800	0.981900
C1071	C107	0.354500	0.838300	0.030600
C1081	C108	0.322100	0.861800	0.067100
C1091	C109	0.296200	0.904700	0.049300
C1101	C110	0.209900	0.998000	0.097100
C1111	C111	0.194600	0.980800	0.143600
C1121	C112	0.216800	0.938900	0.162700
C1131	C113	0.252490	0.914090	0.132600
C1141	C114	0.263110	0.931140	0.084030
C1151	C115	0.310400	0.814400	0.192400
C1161	C116	0.278700	0.871300	0.149000
C1171	C117	0.313700	0.848500	0.118800
C1181	C118	0.072100	0.604500	0.935000
C1191	C119	0.127100	0.645200	0.003100
C1201	C120	0.192300	0.661700	0.016200
C1211	C121	0.205300	0.638200	0.960300
C1221	C122	0.144600	0.595300	0.891500
C1231	C123	0.099100	0.502000	0.711900
C1241	C124	0.162800	0.519200	0.713800
C1251	C125	0.223800	0.561100	0.777900
C1261	C126	0.218510	0.585910	0.838400
C1271	C127	0.152890	0.568860	0.831970
C1281	C128	0.378000	0.685600	0.996000
C1291	C129	0.277700	0.628700	0.907400
C1301	C130	0.270300	0.651500	0.965200
C1311	C131	0.169500	0.137100	0.565000
C1321	C132	0.142100	0.124000	0.496900
C1331	C133	0.145500	0.176100	0.483800
C1341	C134	0.177900	0.245000	0.539700
C1351	C135	0.203800	0.253100	0.608500
C1361	C136	0.290100	0.387200	0.788100
C1371	C137	0.305400	0.449000	0.786200
C1381	C138	0.283200	0.445900	0.722100
C1391	C139	0.247510	0.380110	0.661600
C1401	C140	0.236890	0.320920	0.668030
C1411	C141	0.189600	0.382000	0.504000
C1421	C142	0.221300	0.370300	0.592600
C1431	C143	0.186300	0.305100	0.534800
C1441	C144	0.427900	0.362900	0.532400
C1451	C145	0.372900	0.376000	0.518100
C1461	C146	0.307700	0.323900	0.469400
C1471	C147	0.294700	0.255000	0.432900
C1481	C148	0.355400	0.246900	0.450700
C1491	C149	0.400900	0.112800	0.402900
C1501	C150	0.337200	0.051000	0.356400
C1511	C151	0.276200	0.054100	0.337300
C1521	C152	0.281490	0.119890	0.367400
C1531	C153	0.347110	0.179080	0.415970
C1541	C154	0.122000	0.118000	0.307600
C1551	C155	0.222300	0.129700	0.351000
C1561	C156	0.229700	0.194900	0.381200
C1571	C157	0.830500	0.967600	0.895500
C1581	C158	0.857900	0.981900	0.854800
C1591	C159	0.854500	0.030600	0.838300
C1601	C160	0.822100	0.067100	0.861800
C1611	C161	0.796200	0.049300	0.904700
C1621	C162	0.709900	0.097100	0.998000
C1631	C163	0.694600	0.143600	0.980800
C1641	C164	0.716800	0.162700	0.938900
C1651	C165	0.752490	0.132600	0.914090
C1661	C166	0.763110	0.084030	0.931140
C1671	C167	0.810400	0.192400	0.814400
C1681	C168	0.778700	0.149000	0.871300
C1691	C169	0.813700	0.118800	0.848500
C1701	C170	0.572100	0.935000	0.604500
C1711	C171	0.627100	0.003100	0.645200
C1721	C172	0.692300	0.016200	0.661700
C1731	C173	0.705300	0.960300	0.638200
C1741	C174	0.644600	0.891500	0.595300
C1751	C175	0.599100	0.711900	0.502000
C1761	C176	0.662800	0.713800	0.519200
C1771	C177	0.723800	0.777900	0.561100
C1781	C178	0.718510	0.838400	0.585910
C1791	C179	0.652890	0.831970	0.568860
C1801	C180	0.878000	0.996000	0.685600
C1811	C181	0.777700	0.907400	0.628700
C1821	C182	0.770300	0.965200	0.651500
C1831	C183	0.669500	0.565000	0.137100
C1841	C184	0.642100	0.496900	0.124000
C1851	C185	0.645500	0.483800	0.176100
C1861	C186	0.677900	0.539700	0.245000
C1871	C187	0.703800	0.608500	0.253100
C1881	C188	0.790100	0.788100	0.387200
C1891	C189	0.805400	0.786200	0.449000
C1901	C190	0.783200	0.722100	0.445900
C1911	C191	0.747510	0.661600	0.380110
C1921	C192	0.736890	0.668030	0.320920
C1931	C193	0.689600	0.504000	0.382000
C1941	C194	0.721300	0.592600	0.370300
C1951	C195	0.686300	0.534800	0.305100
C1961	C196	0.927900	0.532400	0.362900
C1971	C197	0.872900	0.518100	0.376000
C1981	C198	0.807700	0.469400	0.323900
C1991	C199	0.794700	0.432900	0.255000
C2001	C200	0.855400	0.450700	0.246900
C2011	C201	0.900900	0.402900	0.112800
C2021	C202	0.837200	0.356400	0.051000
C2031	C203	0.776200	0.337300	0.054100
C2041	C204	0.781490	0.367400	0.119890
C2051	C205	0.847110	0.415970	0.179080
C2061	C206	0.622000	0.307600	0.118000
C2071	C207	0.722300	0.351000	0.129700
C2081	C208	0.729700	0.381200	0.194900
C2091	C209	0.935000	0.104500	0.072100
C2101	C210	0.003100	0.145200	0.127100
C2111	C211	0.016200	0.161700	0.192300
C2121	C212	0.960300	0.138200	0.205300
C2131	C213	0.891500	0.095300	0.144600
C2141	C214	0.711900	0.002000	0.099100
C2151	C215	0.713800	0.019200	0.162800
C2161	C216	0.777900	0.061100	0.223800
C2171	C217	0.838400	0.085910	0.218510
C2181	C218	0.831970	0.068860	0.152890
C2191	C219	0.996000	0.185600	0.378000
C2201	C220	0.907400	0.128700	0.277700
C2211	C221	0.965200	0.151500	0.270300
C2221	C222	0.967600	0.395500	0.330500
C2231	C223	0.981900	0.354800	0.357900
C2241	C224	0.030600	0.338300	0.354500
C2251	C225	0.067100	0.361800	0.322100
C2261	C226	0.049300	0.404700	0.296200
C2271	C227	0.097100	0.498000	0.209900
C2281	C228	0.143600	0.480800	0.194600
C2291	C229	0.162700	0.438900	0.216800
C2301	C230	0.132600	0.414090	0.252490
C2311	C231	0.084030	0.431140	0.263110
C2321	C232	0.192400	0.314400	0.310400
C2331	C233	0.149000	0.371300	0.278700
C2341	C234	0.118800	0.348500	0.313700
C2351	C235	0.532400	0.862900	0.427900
C2361	C236	0.518100	0.876000	0.372900
C2371	C237	0.469400	0.823900	0.307700
C2381	C238	0.432900	0.755000	0.294700
C2391	C239	0.450700	0.746900	0.355400
C2401	C240	0.402900	0.612800	0.400900
C2411	C241	0.356400	0.551000	0.337200
C2421	C242	0.337300	0.554100	0.276200
C2431	C243	0.367400	0.619890	0.281490
C2441	C244	0.415970	0.679080	0.347110
C2451	C245	0.307600	0.618000	0.122000
C2461	C246	0.351000	0.629700	0.222300
C2471	C247	0.381200	0.694900	0.229700
C2481	C248	0.565000	0.637100	0.169500
C2491	C249	0.496900	0.624000	0.142100
C2501	C250	0.483800	0.676100	0.145500
C2511	C251	0.539700	0.745000	0.177900
C2521	C252	0.608500	0.753100	0.203800
C2531	C253	0.788100	0.887200	0.290100
C2541	C254	0.786200	0.949000	0.305400
C2551	C255	0.722100	0.945900	0.283200
C2561	C256	0.661600	0.880110	0.247510
C2571	C257	0.668030	0.820920	0.236890
C2581	C258	0.504000	0.882000	0.189600
C2591	C259	0.592600	0.870300	0.221300
C2601	C260	0.534800	0.805100	0.186300
C2611	C261	0.862900	0.927900	0.032400
C2621	C262	0.876000	0.872900	0.018100
C2631	C263	0.823900	0.807700	0.969400
C2641	C264	0.755000	0.794700	0.932900
C2651	C265	0.746900	0.855400	0.950700
C2661	C266	0.612800	0.900900	0.902900
C2671	C267	0.551000	0.837200	0.856400
C2681	C268	0.554100	0.776200	0.837300
C2691	C269	0.619890	0.781490	0.867400
C2701	C270	0.679080	0.847110	0.915970
C2711	C271	0.618000	0.622000	0.807600
C2721	C272	0.629700	0.722300	0.851000
C2731	C273	0.694900	0.729700	0.881200
C2741	C274	0.637100	0.669500	0.065000
C2751	C275	0.624000	0.642100	0.996900
C2761	C276	0.676100	0.645500	0.983800
C2771	C277	0.745000	0.677900	0.039700
C2781	C278	0.753100	0.703800	0.108500
C2791	C279	0.887200	0.790100	0.288100
C2801	C280	0.949000	0.805400	0.286200
C2811	C281	0.945900	0.783200	0.222100
C2821	C282	0.880110	0.747510	0.161600
C2831	C283	0.820920	0.736890	0.168030
C2841	C284	0.882000	0.689600	0.004000
C2851	C285	0.870300	0.721300	0.092600
C2861	C286	0.805100	0.686300	0.034800
C2871	C287	0.104500	0.572100	0.435000
C2881	C288	0.145200	0.627100	0.503100
C2891	C289	0.161700	0.692300	0.516200
C2901	C290	0.138200	0.705300	0.460300
C2911	C291	0.095300	0.644600	0.391500
C2921	C292	0.002000	0.599100	0.211900
C2931	C293	0.019200	0.662800	0.213800
C2941	C294	0.061100	0.723800	0.277900
C2951	C295	0.085910	0.718510	0.338400
C2961	C296	0.068860	0.652890	0.331970
C2971	C297	0.185600	0.878000	0.496000
C2981	C298	0.128700	0.777700	0.407400
C2991	C299	0.151500	0.770300	0.465200
C3001	C300	0.395500	0.830500	0.467600
C3011	C301	0.354800	0.857900	0.481900
C3021	C302	0.338300	0.854500	0.530600
C3031	C303	0.361800	0.822100	0.567100
C3041	C304	0.404700	0.796200	0.549300
C3051	C305	0.498000	0.709900	0.597100
C3061	C306	0.480800	0.694600	0.643600
C3071	C307	0.438900	0.716800	0.662700
C3081	C308	0.414090	0.752490	0.632600
C3091	C309	0.431140	0.763110	0.584030
C3101	C310	0.314400	0.810400	0.692400
C3111	C311	0.371300	0.778700	0.649000
C3121	C312	0.348500	0.813700	0.618800
N11	N1	0.380820	0.080410	0.079250
N21	N2	0.268840	0.093350	0.026570
N31	N3	0.524290	0.336490	0.190200
N41	N4	0.427000	0.346400	0.149800
N51	N5	0.501160	0.301570	0.420750
N61	N6	0.566780	0.242270	0.473430
N71	N7	0.646290	0.334090	0.309800
N81	N8	0.696600	0.277200	0.350200
N91	N9	0.998840	0.419590	0.800410
N101	N10	0.933220	0.406650	0.675490
N111	N11	0.853710	0.163510	0.687800
N121	N12	0.803400	0.153600	0.580600
N131	N13	0.119180	0.198430	0.699590
N141	N14	0.231160	0.257730	0.824510
N151	N15	0.975710	0.165910	0.812200
N161	N16	0.073000	0.222800	0.919400
N171	N17	0.300410	0.998840	0.919590
N181	N18	0.175490	0.933220	0.906650
N191	N19	0.187800	0.853710	0.663510
N201	N20	0.080600	0.803400	0.653600
N211	N21	0.199590	0.119180	0.698430
N221	N22	0.324510	0.231160	0.757730
N231	N23	0.312200	0.975710	0.665910
N241	N24	0.419400	0.073000	0.722800
N251	N25	0.579250	0.380820	0.580410
N261	N26	0.526570	0.268840	0.593350
N271	N27	0.690200	0.524290	0.836490
N281	N28	0.649800	0.427000	0.846400
N291	N29	0.920750	0.501160	0.801570
N301	N30	0.973430	0.566780	0.742270
N311	N31	0.809800	0.646290	0.834090
N321	N32	0.850200	0.696600	0.777200
N331	N33	0.301570	0.920750	0.001160
N341	N34	0.242270	0.973430	0.066780
N351	N35	0.334090	0.809800	0.146290
N361	N36	0.277200	0.850200	0.196600
N371	N37	0.080410	0.579250	0.880820
N381	N38	0.093350	0.526570	0.768840
N391	N39	0.336490	0.690200	0.024290
N401	N40	0.346400	0.649800	0.927000
N411	N41	0.198430	0.199590	0.619180
N421	N42	0.257730	0.324510	0.731160
N431	N43	0.165910	0.312200	0.475710
N441	N44	0.222800	0.419400	0.573000
N451	N45	0.419590	0.300410	0.498840
N461	N46	0.406650	0.175490	0.433220
N471	N47	0.163510	0.187800	0.353710
N481	N48	0.153600	0.080600	0.303400
N491	N49	0.801570	0.001160	0.920750
N501	N50	0.742270	0.066780	0.973430
N511	N51	0.834090	0.146290	0.809800
N521	N52	0.777200	0.196600	0.850200
N531	N53	0.580410	0.880820	0.579250
N541	N54	0.593350	0.768840	0.526570
N551	N55	0.836490	0.024290	0.690200
N561	N56	0.846400	0.927000	0.649800
N571	N57	0.698430	0.619180	0.199590
N581	N58	0.757730	0.731160	0.324510
N591	N59	0.665910	0.475710	0.312200
N601	N60	0.722800	0.573000	0.419400
N611	N61	0.919590	0.498840	0.300410
N621	N62	0.906650	0.433220	0.175490
N631	N63	0.663510	0.353710	0.187800
N641	N64	0.653600	0.303400	0.080600
N651	N65	0.880820	0.079250	0.080410
N661	N66	0.768840	0.026570	0.093350
N671	N67	0.024290	0.190200	0.336490
N681	N68	0.927000	0.149800	0.346400
N691	N69	0.001160	0.420750	0.301570
N701	N70	0.066780	0.473430	0.242270
N711	N71	0.146290	0.309800	0.334090
N721	N72	0.196600	0.350200	0.277200
N731	N73	0.498840	0.800410	0.419590
N741	N74	0.433220	0.675490	0.406650
N751	N75	0.353710	0.687800	0.163510
N761	N76	0.303400	0.580600	0.153600
N771	N77	0.619180	0.699590	0.198430
N781	N78	0.731160	0.824510	0.257730
N791	N79	0.475710	0.812200	0.165910
N801	N80	0.573000	0.919400	0.222800
N811	N81	0.800410	0.919590	0.998840
N821	N82	0.675490	0.906650	0.933220
N831	N83	0.687800	0.663510	0.853710
N841	N84	0.580600	0.653600	0.803400
N851	N85	0.699590	0.698430	0.119180
N861	N86	0.824510	0.757730	0.231160
N871	N87	0.812200	0.665910	0.975710
N881	N88	0.919400	0.722800	0.073000
N891	N89	0.079250	0.580410	0.380820
N901	N90	0.026570	0.593350	0.268840
N911	N91	0.190200	0.836490	0.524290
N921	N92	0.149800	0.846400	0.427000
N931	N93	0.420750	0.801570	0.501160
N941	N94	0.473430	0.742270	0.566780
N951	N95	0.309800	0.834090	0.646290
N961	N96	0.350200	0.777200	0.696600
