data_HAFVUH_SL_PM
_symmetry_space_group_name_H-M	'P1'
_cell_length_a	15.292700
_cell_length_b	15.292700
_cell_length_c	12.301000
_cell_angle_alpha	90.000000
_cell_angle_beta	90.000000
_cell_angle_gamma	90.000000
_symmetry_Int_Tables_number 1

loop_
_symmetry_equiv_pos_as_xyz
'x,y,z'

loop_
_atom_site_label
_atom_site_type_symbol
_atom_site_fract_x
_atom_site_fract_y
_atom_site_fract_z
H11	H1	0.617000	0.559200	0.581600
C21	C2	0.569200	0.536700	0.619200
C31	C3	0.568400	0.540400	0.732200
C41	C4	0.639800	0.587700	0.791800
O51	O5	0.620300	0.615500	0.885400
O61	O6	0.711170	0.596940	0.745600
H71	H7	0.297320	0.288390	0.409030
H81	H8	0.117000	0.059200	0.081600
C91	C9	0.069200	0.036700	0.119200
C101	C10	0.068400	0.040400	0.232200
C111	C11	0.139800	0.087700	0.291800
O121	O12	0.120300	0.115500	0.385400
O131	O13	0.211170	0.096940	0.245600
H141	H14	0.797320	0.788390	0.909030
H151	H15	0.883000	0.940800	0.081600
C161	C16	0.930800	0.963300	0.119200
C171	C17	0.931600	0.959600	0.232200
C181	C18	0.860200	0.912300	0.291800
O191	O19	0.879700	0.884500	0.385400
O201	O20	0.788830	0.903060	0.245600
H211	H21	0.202680	0.211610	0.909030
H221	H22	0.383000	0.440800	0.581600
C231	C23	0.430800	0.463300	0.619200
C241	C24	0.431600	0.459600	0.732200
C251	C25	0.360200	0.412300	0.791800
O261	O26	0.379700	0.384500	0.885400
O271	O27	0.288830	0.403060	0.745600
H281	H28	0.702680	0.711610	0.409030
H291	H29	0.440800	0.117000	0.831600
C301	C30	0.463300	0.069200	0.869200
C311	C31	0.459600	0.068400	0.982200
C321	C32	0.412300	0.139800	0.041800
O331	O33	0.384500	0.120300	0.135400
O341	O34	0.403060	0.211170	0.995600
H351	H35	0.711610	0.797320	0.659030
H361	H36	0.940800	0.617000	0.331600
C371	C37	0.963300	0.569200	0.369200
C381	C38	0.959600	0.568400	0.482200
C391	C39	0.912300	0.639800	0.541800
O401	O40	0.884500	0.620300	0.635400
O411	O41	0.903060	0.711170	0.495600
H421	H42	0.211610	0.297320	0.159030
H431	H43	0.059200	0.383000	0.331600
C441	C44	0.036700	0.430800	0.369200
C451	C45	0.040400	0.431600	0.482200
C461	C46	0.087700	0.360200	0.541800
O471	O47	0.115500	0.379700	0.635400
O481	O48	0.096940	0.288830	0.495600
H491	H49	0.788390	0.702680	0.159030
H501	H50	0.559200	0.883000	0.831600
C511	C51	0.536700	0.930800	0.869200
C521	C52	0.540400	0.931600	0.982200
C531	C53	0.587700	0.860200	0.041800
O541	O54	0.615500	0.879700	0.135400
O551	O55	0.596940	0.788830	0.995600
H561	H56	0.288390	0.202680	0.659030
H571	H57	0.883000	0.559200	0.168400
C581	C58	0.930800	0.536700	0.130800
C591	C59	0.931600	0.540400	0.017800
C601	C60	0.860200	0.587700	0.958200
O611	O61	0.879700	0.615500	0.864600
O621	O62	0.788830	0.596940	0.004400
H631	H63	0.202680	0.288390	0.340970
H641	H64	0.383000	0.059200	0.668400
C651	C65	0.430800	0.036700	0.630800
C661	C66	0.431600	0.040400	0.517800
C671	C67	0.360200	0.087700	0.458200
O681	O68	0.379700	0.115500	0.364600
O691	O69	0.288830	0.096940	0.504400
H701	H70	0.702680	0.788390	0.840970
H711	H71	0.617000	0.940800	0.668400
C721	C72	0.569200	0.963300	0.630800
C731	C73	0.568400	0.959600	0.517800
C741	C74	0.639800	0.912300	0.458200
O751	O75	0.620300	0.884500	0.364600
O761	O76	0.711170	0.903060	0.504400
H771	H77	0.297320	0.211610	0.840970
H781	H78	0.117000	0.440800	0.168400
C791	C79	0.069200	0.463300	0.130800
C801	C80	0.068400	0.459600	0.017800
C811	C81	0.139800	0.412300	0.958200
O821	O82	0.120300	0.384500	0.864600
O831	O83	0.211170	0.403060	0.004400
H841	H84	0.797320	0.711610	0.340970
H851	H85	0.059200	0.117000	0.918400
C861	C86	0.036700	0.069200	0.880800
C871	C87	0.040400	0.068400	0.767800
C881	C88	0.087700	0.139800	0.708200
O891	O89	0.115500	0.120300	0.614600
O901	O90	0.096940	0.211170	0.754400
H911	H91	0.788390	0.797320	0.090970
H921	H92	0.559200	0.617000	0.418400
C931	C93	0.536700	0.569200	0.380800
C941	C94	0.540400	0.568400	0.267800
C951	C95	0.587700	0.639800	0.208200
O961	O96	0.615500	0.620300	0.114600
O971	O97	0.596940	0.711170	0.254400
H981	H98	0.288390	0.297320	0.590970
H991	H99	0.440800	0.383000	0.418400
C1001	C100	0.463300	0.430800	0.380800
C1011	C101	0.459600	0.431600	0.267800
C1021	C102	0.412300	0.360200	0.208200
O1031	O103	0.384500	0.379700	0.114600
O1041	O104	0.403060	0.288830	0.254400
H1051	H105	0.711610	0.702680	0.590970
H1061	H106	0.940800	0.883000	0.918400
C1071	C107	0.963300	0.930800	0.880800
C1081	C108	0.959600	0.931600	0.767800
C1091	C109	0.912300	0.860200	0.708200
O1101	O110	0.884500	0.879700	0.614600
O1111	O111	0.903060	0.788830	0.754400
H1121	H112	0.211610	0.202680	0.090970
Mg1131	Mg113	0.184800	0.184800	0.500000
Mg1141	Mg114	0.315200	0.315200	0.000000
Mg1151	Mg115	0.815200	0.684800	0.750000
Mg1161	Mg116	0.684800	0.815200	0.250000
Mg1171	Mg117	0.315200	0.184800	0.250000
Mg1181	Mg118	0.184800	0.315200	0.750000
Mg1191	Mg119	0.684800	0.684800	0.000000
Mg1201	Mg120	0.815200	0.815200	0.500000
H1211	H121	0.000000	0.000000	0.363900
C1221	C122	0.000000	0.000000	0.061000
C1231	C123	0.000000	0.000000	0.288300
H1241	H124	0.500000	0.500000	0.863900
C1251	C125	0.500000	0.500000	0.561000
C1261	C126	0.500000	0.500000	0.788300
H1271	H127	0.000000	0.500000	0.613900
C1281	C128	0.000000	0.500000	0.311000
C1291	C129	0.000000	0.500000	0.538300
H1301	H130	0.500000	0.000000	0.113900
C1311	C131	0.500000	0.000000	0.811000
C1321	C132	0.500000	0.000000	0.038300
H1331	H133	0.500000	0.000000	0.386100
C1341	C134	0.500000	0.000000	0.689000
C1351	C135	0.500000	0.000000	0.461700
H1361	H136	0.000000	0.500000	0.886100
C1371	C137	0.000000	0.500000	0.189000
C1381	C138	0.000000	0.500000	0.961700
H1391	H139	0.500000	0.500000	0.136100
C1401	C140	0.500000	0.500000	0.439000
C1411	C141	0.500000	0.500000	0.211700
H1421	H142	0.000000	0.000000	0.636100
C1431	C143	0.000000	0.000000	0.939000
C1441	C144	0.000000	0.000000	0.711700
O1451	O145	0.755400	0.750000	0.125000
O1461	O146	0.255400	0.250000	0.625000
O1471	O147	0.744600	0.750000	0.625000
O1481	O148	0.244600	0.250000	0.125000
O1491	O149	0.250000	0.255400	0.375000
O1501	O150	0.750000	0.755400	0.875000
O1511	O151	0.250000	0.244600	0.875000
O1521	O152	0.750000	0.744600	0.375000
