data_HAFWUI_charged_PM
_symmetry_space_group_name_H-M	'P1'
_cell_length_a	11.737000
_cell_length_b	12.255400
_cell_length_c	19.301000
_cell_angle_alpha	93.633800
_cell_angle_beta	90.000000
_cell_angle_gamma	118.610000
_symmetry_Int_Tables_number 1

loop_
_symmetry_equiv_pos_as_xyz
'x,y,z'

loop_
_atom_site_label
_atom_site_type_symbol
_atom_site_fract_x
_atom_site_fract_y
_atom_site_fract_z
Na11	Na1	0.401160	0.000000	0.250000
Na21	Na2	0.598840	0.000000	0.750000
Co11	Co1	0.371710	0.751620	0.337780
Co21	Co2	0.620090	0.248380	0.162220
Co31	Co3	0.628290	0.248380	0.662220
Co41	Co4	0.379910	0.751620	0.837780
H11	H1	0.372200	0.037600	0.479400
H21	H2	0.260300	0.774400	0.615900
H31	H3	0.115200	0.629200	0.533000
H41	H4	0.974600	0.385000	0.313800
H51	H5	0.790000	0.588400	0.327400
H61	H6	0.954700	0.735200	0.400500
H71	H7	0.334600	0.962400	0.020600
H81	H8	0.485900	0.225600	0.884100
H91	H9	0.486000	0.370800	0.967000
H101	H10	0.589600	0.615000	0.186200
H111	H11	0.201600	0.411600	0.172600
H121	H12	0.219500	0.264800	0.099500
H131	H13	0.627800	0.962400	0.520600
H141	H14	0.739700	0.225600	0.384100
H151	H15	0.884800	0.370800	0.467000
H161	H16	0.025400	0.615000	0.686200
H171	H17	0.210000	0.411600	0.672600
H181	H18	0.045300	0.264800	0.599500
H191	H19	0.665400	0.037600	0.979400
H201	H20	0.514100	0.774400	0.115900
H211	H21	0.514000	0.629200	0.033000
H221	H22	0.410400	0.385000	0.813800
H231	H23	0.798400	0.588400	0.827400
H241	H24	0.780500	0.735200	0.900500
C11	C1	0.161770	0.743540	0.454650
C21	C2	0.239800	0.867600	0.438400
C31	C3	0.322730	0.954860	0.489580
C41	C4	0.332970	0.920940	0.555540
C51	C5	0.254900	0.798000	0.571710
C61	C6	0.168710	0.710620	0.521610
C71	C7	0.064380	0.648560	0.402890
C81	C8	0.070650	0.542900	0.376930
C91	C9	0.970620	0.455240	0.331670
C101	C10	0.866030	0.471460	0.313220
C111	C11	0.860080	0.576960	0.339470
C121	C12	0.958600	0.664400	0.383470
C131	C13	0.247390	0.904780	0.365030
C141	C14	0.569010	0.987420	0.390300
C151	C15	0.180610	0.518420	0.395400
C161	C16	0.760660	0.381120	0.262770
C171	C17	0.418230	0.256460	0.045350
C181	C18	0.372200	0.132400	0.061600
C191	C19	0.367870	0.045140	0.010420
C201	C20	0.412030	0.079060	0.944460
C211	C21	0.456900	0.202000	0.928290
C221	C22	0.458090	0.289380	0.978390
C231	C23	0.415820	0.351440	0.097110
C241	C24	0.527750	0.457100	0.123070
C251	C25	0.515380	0.544760	0.168330
C261	C26	0.394570	0.528540	0.186780
C271	C27	0.283120	0.423040	0.160530
C281	C28	0.294200	0.335600	0.116530
C291	C29	0.342610	0.095220	0.134970
C301	C30	0.581590	0.012580	0.109700
C311	C31	0.662190	0.481580	0.104600
C321	C32	0.379540	0.618880	0.237230
C331	C33	0.838230	0.256460	0.545350
C341	C34	0.760200	0.132400	0.561600
C351	C35	0.677270	0.045140	0.510420
C361	C36	0.667030	0.079060	0.444460
C371	C37	0.745100	0.202000	0.428290
C381	C38	0.831290	0.289380	0.478390
C391	C39	0.935620	0.351440	0.597110
C401	C40	0.929350	0.457100	0.623070
C411	C41	0.029380	0.544760	0.668330
C421	C42	0.133970	0.528540	0.686780
C431	C43	0.139920	0.423040	0.660530
C441	C44	0.041400	0.335600	0.616530
C451	C45	0.752610	0.095220	0.634970
C461	C46	0.430990	0.012580	0.609700
C471	C47	0.819390	0.481580	0.604600
C481	C48	0.239340	0.618880	0.737230
C491	C49	0.581770	0.743540	0.954650
C501	C50	0.627800	0.867600	0.938400
C511	C51	0.632130	0.954860	0.989580
C521	C52	0.587970	0.920940	0.055540
C531	C53	0.543100	0.798000	0.071710
C541	C54	0.541910	0.710620	0.021610
C551	C55	0.584180	0.648560	0.902890
C561	C56	0.472250	0.542900	0.876930
C571	C57	0.484620	0.455240	0.831670
C581	C58	0.605430	0.471460	0.813220
C591	C59	0.716880	0.576960	0.839470
C601	C60	0.705800	0.664400	0.883470
C611	C61	0.657390	0.904780	0.865030
C621	C62	0.418410	0.987420	0.890300
C631	C63	0.337810	0.518420	0.895400
C641	C64	0.620460	0.381120	0.762770
O11	O1	0.241360	0.998920	0.351750
O21	O2	0.267280	0.836580	0.318160
O31	O3	0.508810	0.874240	0.405270
O41	O4	0.551920	0.026840	0.335780
O51	O5	0.296420	0.608480	0.397280
O61	O6	0.152040	0.411280	0.409090
O71	O7	0.660240	0.390680	0.253920
O81	O8	0.777980	0.298960	0.228690
O91	O9	0.242440	0.001080	0.148250
O101	O10	0.430700	0.163420	0.181840
O111	O11	0.634570	0.125760	0.094730
O121	O12	0.525080	0.973160	0.164220
O131	O13	0.687940	0.391520	0.102720
O141	O14	0.740760	0.588720	0.090910
O151	O15	0.269560	0.609320	0.246080
O161	O16	0.479020	0.701040	0.271310
O171	O17	0.758640	0.001080	0.648250
O181	O18	0.732720	0.163420	0.681840
O191	O19	0.491190	0.125760	0.594730
O201	O20	0.448080	0.973160	0.664220
O211	O21	0.703580	0.391520	0.602720
O221	O22	0.847960	0.588720	0.590910
O231	O23	0.339760	0.609320	0.746080
O241	O24	0.222020	0.701040	0.771310
O251	O25	0.757560	0.998920	0.851750
O261	O26	0.569300	0.836580	0.818160
O271	O27	0.365430	0.874240	0.905270
O281	O28	0.474920	0.026840	0.835780
O291	O29	0.312060	0.608480	0.897280
O301	O30	0.259240	0.411280	0.909090
O311	O31	0.730440	0.390680	0.753920
O321	O32	0.520980	0.298960	0.728690
H251	H25	0.073500	0.374600	0.941400
H261	H26	0.717000	0.270600	0.869500
H271	H27	0.714700	0.281400	0.996100
H281	H28	0.050300	0.360800	0.811200
H291	H29	0.912900	0.255200	0.784800
H301	H30	0.944400	0.395000	0.787200
H311	H31	0.041900	0.414400	0.072600
H321	H32	0.899000	0.369400	0.095500
H331	H33	0.975000	0.242000	0.136300
H341	H34	0.858200	0.164000	0.083300
H351	H35	0.000900	0.208800	0.060200
C651	C65	0.985470	0.350940	0.939190
C661	C66	0.787580	0.293160	0.899780
C671	C67	0.786290	0.298980	0.969060
C681	C68	0.959200	0.335200	0.809900
C691	C69	0.953160	0.347520	0.066240
C701	C70	0.946200	0.230000	0.088500
N11	N1	0.912720	0.326640	0.881600
N21	N2	0.910330	0.335660	0.992840
H361	H36	0.698900	0.625400	0.558600
H371	H37	0.446400	0.729400	0.630500
H381	H38	0.433300	0.718600	0.503900
H391	H39	0.689500	0.639200	0.688800
H401	H40	0.657700	0.744800	0.715200
H411	H41	0.549400	0.605000	0.712800
H421	H42	0.627500	0.585600	0.427400
H431	H43	0.529600	0.630600	0.404500
H441	H44	0.733000	0.758000	0.363700
H451	H45	0.694200	0.836000	0.416700
H461	H46	0.792100	0.791200	0.439800
C711	C71	0.634530	0.649060	0.560810
C721	C72	0.494420	0.706840	0.600220
C731	C73	0.487310	0.701020	0.530940
C741	C74	0.624000	0.664800	0.690100
C751	C75	0.605640	0.652480	0.433760
C761	C76	0.716200	0.770000	0.411500
N31	N3	0.586080	0.673360	0.618400
N41	N4	0.574670	0.664340	0.507160
H471	H47	0.926500	0.625400	0.058600
H481	H48	0.283000	0.729400	0.130500
H491	H49	0.285300	0.718600	0.003900
H501	H50	0.949700	0.639200	0.188800
H511	H51	0.087100	0.744800	0.215200
H521	H52	0.055600	0.605000	0.212800
H531	H53	0.958100	0.585600	0.927400
H541	H54	0.101000	0.630600	0.904500
H551	H55	0.025000	0.758000	0.863700
H561	H56	0.141800	0.836000	0.916700
H571	H57	0.999100	0.791200	0.939800
C771	C77	0.014530	0.649060	0.060810
C781	C78	0.212420	0.706840	0.100220
C791	C79	0.213710	0.701020	0.030940
C801	C80	0.040800	0.664800	0.190100
C811	C81	0.046840	0.652480	0.933760
C821	C82	0.053800	0.770000	0.911500
N51	N5	0.087280	0.673360	0.118400
N61	N6	0.089670	0.664340	0.007160
H581	H58	0.301100	0.374600	0.441400
H591	H59	0.553600	0.270600	0.369500
H601	H60	0.566700	0.281400	0.496100
H611	H61	0.310500	0.360800	0.311200
H621	H62	0.342300	0.255200	0.284800
H631	H63	0.450600	0.395000	0.287200
H641	H64	0.372500	0.414400	0.572600
H651	H65	0.470400	0.369400	0.595500
H661	H66	0.267000	0.242000	0.636300
H671	H67	0.305800	0.164000	0.583300
H681	H68	0.207900	0.208800	0.560200
C831	C83	0.365470	0.350940	0.439190
C841	C84	0.505580	0.293160	0.399780
C851	C85	0.512690	0.298980	0.469060
C861	C86	0.376000	0.335200	0.309900
C871	C87	0.394360	0.347520	0.566240
C881	C88	0.283800	0.230000	0.588500
N71	N7	0.413920	0.326640	0.381600
N81	N8	0.425330	0.335660	0.492840
