data_HAFWUI01_charged_PM
_symmetry_space_group_name_H-M	'P1'
_cell_length_a	11.806200
_cell_length_b	12.269400
_cell_length_c	19.411400
_cell_angle_alpha	94.023700
_cell_angle_beta	90.000000
_cell_angle_gamma	118.759000
_symmetry_Int_Tables_number 1

loop_
_symmetry_equiv_pos_as_xyz
'x,y,z'

loop_
_atom_site_label
_atom_site_type_symbol
_atom_site_fract_x
_atom_site_fract_y
_atom_site_fract_z
Na11	Na1	0.402690	0.000000	0.750000
Na21	Na2	0.597310	0.000000	0.250000
Co11	Co1	0.374920	0.752480	0.838310
Co21	Co2	0.622440	0.247520	0.661690
Co31	Co3	0.625080	0.247520	0.161690
Co41	Co4	0.377560	0.752480	0.338310
H11	H1	0.371200	0.036000	0.979800
H21	H2	0.260600	0.775000	0.114900
H31	H3	0.116900	0.628600	0.032500
H41	H4	0.982700	0.384800	0.811900
H51	H5	0.791700	0.579200	0.828800
H61	H6	0.953500	0.727200	0.902400
H71	H7	0.335200	0.964000	0.520200
H81	H8	0.485600	0.225000	0.385100
H91	H9	0.488300	0.371400	0.467500
H101	H10	0.597900	0.615200	0.688100
H111	H11	0.212500	0.420800	0.671200
H121	H12	0.226300	0.272800	0.597600
H131	H13	0.628800	0.964000	0.020200
H141	H14	0.739400	0.225000	0.885100
H151	H15	0.883100	0.371400	0.967500
H161	H16	0.017300	0.615200	0.188100
H171	H17	0.208300	0.420800	0.171200
H181	H18	0.046500	0.272800	0.097600
H191	H19	0.664800	0.036000	0.479800
H201	H20	0.514400	0.775000	0.614900
H211	H21	0.511700	0.628600	0.532500
H221	H22	0.402100	0.384800	0.311900
H231	H23	0.787500	0.579200	0.328800
H241	H24	0.773700	0.727200	0.402400
C11	C1	0.162810	0.741220	0.954880
C21	C2	0.239950	0.864500	0.938830
C31	C3	0.322330	0.953260	0.989900
C41	C4	0.332270	0.919940	0.055420
C51	C5	0.255230	0.798060	0.070910
C61	C6	0.169890	0.709780	0.021130
C71	C7	0.065990	0.645580	0.903510
C81	C8	0.074540	0.541080	0.876490
C91	C9	0.976810	0.453620	0.830760
C101	C10	0.871140	0.467280	0.812970
C111	C11	0.862700	0.569600	0.840300
C121	C12	0.959620	0.657840	0.884700
C131	C13	0.247440	0.901880	0.865910
C141	C14	0.429190	0.012980	0.109630
C151	C15	0.184850	0.518500	0.895290
C161	C16	0.767480	0.376560	0.761880
C171	C17	0.421590	0.258780	0.545120
C181	C18	0.375450	0.135500	0.561170
C191	C19	0.369070	0.046740	0.510100
C201	C20	0.412330	0.080060	0.444580
C211	C21	0.457170	0.201940	0.429090
C221	C22	0.460110	0.290220	0.478870
C231	C23	0.420410	0.354420	0.596490
C241	C24	0.533460	0.458920	0.623510
C251	C25	0.523190	0.546380	0.669240
C261	C26	0.403860	0.532720	0.687030
C271	C27	0.293100	0.430400	0.659700
C281	C28	0.301780	0.342160	0.615300
C291	C29	0.345560	0.098120	0.634090
C301	C30	0.416210	0.987020	0.390370
C311	C31	0.666350	0.481500	0.604710
C321	C32	0.390920	0.623440	0.738120
C331	C33	0.837190	0.258780	0.045120
C341	C34	0.760050	0.135500	0.061170
C351	C35	0.677670	0.046740	0.010100
C361	C36	0.667730	0.080060	0.944580
C371	C37	0.744770	0.201940	0.929090
C381	C38	0.830110	0.290220	0.978870
C391	C39	0.934010	0.354420	0.096490
C401	C40	0.925460	0.458920	0.123510
C411	C41	0.023190	0.546380	0.169240
C421	C42	0.128860	0.532720	0.187030
C431	C43	0.137300	0.430400	0.159700
C441	C44	0.040380	0.342160	0.115300
C451	C45	0.752560	0.098120	0.134090
C461	C46	0.570810	0.987020	0.890370
C471	C47	0.815150	0.481500	0.104710
C481	C48	0.232520	0.623440	0.238120
C491	C49	0.578410	0.741220	0.454880
C501	C50	0.624550	0.864500	0.438830
C511	C51	0.630930	0.953260	0.489900
C521	C52	0.587670	0.919940	0.555420
C531	C53	0.542830	0.798060	0.570910
C541	C54	0.539890	0.709780	0.521130
C551	C55	0.579590	0.645580	0.403510
C561	C56	0.466540	0.541080	0.376490
C571	C57	0.476810	0.453620	0.330760
C581	C58	0.596140	0.467280	0.312970
C591	C59	0.706900	0.569600	0.340300
C601	C60	0.698220	0.657840	0.384700
C611	C61	0.654440	0.901880	0.365910
C621	C62	0.583790	0.012980	0.609630
C631	C63	0.333650	0.518500	0.395290
C641	C64	0.609080	0.376560	0.261880
O11	O1	0.237380	0.993360	0.853160
O21	O2	0.269380	0.835260	0.819330
O31	O3	0.488980	0.125560	0.094420
O41	O4	0.445900	0.976000	0.163910
O51	O5	0.299660	0.608840	0.896260
O61	O6	0.157890	0.413180	0.909230
O71	O7	0.665190	0.380580	0.755170
O81	O8	0.788370	0.300740	0.725830
O91	O9	0.244020	0.006640	0.646840
O101	O10	0.434120	0.164740	0.680670
O111	O11	0.363420	0.874440	0.405580
O121	O12	0.469900	0.024000	0.336090
O131	O13	0.690820	0.391160	0.603740
O141	O14	0.744710	0.586820	0.590770
O151	O15	0.284610	0.619420	0.744830
O161	O16	0.487630	0.699260	0.774170
O171	O17	0.762620	0.006640	0.146840
O181	O18	0.730620	0.164740	0.180670
O191	O19	0.511020	0.874440	0.905580
O201	O20	0.554100	0.024000	0.836090
O211	O21	0.700340	0.391160	0.103740
O221	O22	0.842110	0.586820	0.090770
O231	O23	0.334810	0.619420	0.244830
O241	O24	0.211630	0.699260	0.274170
O251	O25	0.755980	0.993360	0.353160
O261	O26	0.565880	0.835260	0.319330
O271	O27	0.636580	0.125560	0.594420
O281	O28	0.530100	0.976000	0.663910
O291	O29	0.309180	0.608840	0.396260
O301	O30	0.255290	0.413180	0.409230
O311	O31	0.715390	0.380580	0.255170
O321	O32	0.512370	0.300740	0.225830
H251	H25	0.303400	0.374000	0.938100
H261	H26	0.558500	0.275600	0.870100
H271	H27	0.563900	0.279800	0.995700
H281	H28	0.319100	0.365800	0.810300
H291	H29	0.460900	0.404600	0.789300
H301	H30	0.355000	0.263600	0.782400
H311	H31	0.465400	0.365200	0.093700
H321	H32	0.371100	0.413400	0.070400
H331	H33	0.261200	0.239800	0.131200
H341	H34	0.205000	0.210000	0.054900
H351	H35	0.299200	0.161800	0.078000
C651	C65	0.367600	0.350600	0.936870
C661	C66	0.508310	0.296020	0.899710
C671	C67	0.511700	0.298400	0.968450
C681	C68	0.385500	0.341800	0.809400
C691	C69	0.390980	0.345360	0.063870
C701	C70	0.279300	0.229000	0.083700
N11	N1	0.418380	0.328760	0.880390
N21	N2	0.423200	0.333800	0.991290
H361	H36	0.929400	0.626000	0.561900
H371	H37	0.282900	0.724400	0.629900
H381	H38	0.284100	0.720200	0.504300
H391	H39	0.953300	0.634200	0.689700
H401	H40	0.056300	0.595400	0.710700
H411	H41	0.091400	0.736400	0.717600
H421	H42	0.100200	0.634800	0.406300
H431	H43	0.957700	0.586600	0.429600
H441	H44	0.021400	0.760200	0.368800
H451	H45	0.995000	0.790000	0.445100
H461	H46	0.137400	0.838200	0.422000
C711	C71	0.017000	0.649400	0.563130
C721	C72	0.212290	0.703980	0.600290
C731	C73	0.213300	0.701600	0.531550
C741	C74	0.043700	0.658200	0.690600
C751	C75	0.045620	0.654640	0.436130
C761	C76	0.050300	0.771000	0.416300
N31	N3	0.089620	0.671240	0.619610
N41	N4	0.089400	0.666200	0.508710
H471	H47	0.696600	0.626000	0.061900
H481	H48	0.441500	0.724400	0.129900
H491	H49	0.436100	0.720200	0.004300
H501	H50	0.680900	0.634200	0.189700
H511	H51	0.539100	0.595400	0.210700
H521	H52	0.645000	0.736400	0.217600
H531	H53	0.534600	0.634800	0.906300
H541	H54	0.628900	0.586600	0.929600
H551	H55	0.738800	0.760200	0.868800
H561	H56	0.795000	0.790000	0.945100
H571	H57	0.700800	0.838200	0.922000
C771	C77	0.632400	0.649400	0.063130
C781	C78	0.491690	0.703980	0.100290
C791	C79	0.488300	0.701600	0.031550
C801	C80	0.614500	0.658200	0.190600
C811	C81	0.609020	0.654640	0.936130
C821	C82	0.720700	0.771000	0.916300
N51	N5	0.581620	0.671240	0.119610
N61	N6	0.576800	0.666200	0.008710
H581	H58	0.070600	0.374000	0.438100
H591	H59	0.717100	0.275600	0.370100
H601	H60	0.715900	0.279800	0.495700
H611	H61	0.046700	0.365800	0.310300
H621	H62	0.943700	0.404600	0.289300
H631	H63	0.908600	0.263600	0.282400
H641	H64	0.899800	0.365200	0.593700
H651	H65	0.042300	0.413400	0.570400
H661	H66	0.978600	0.239800	0.631200
H671	H67	0.005000	0.210000	0.554900
H681	H68	0.862600	0.161800	0.578000
C831	C83	0.983000	0.350600	0.436870
C841	C84	0.787710	0.296020	0.399710
C851	C85	0.786700	0.298400	0.468450
C861	C86	0.956300	0.341800	0.309400
C871	C87	0.954380	0.345360	0.563870
C881	C88	0.949700	0.229000	0.583700
N71	N7	0.910380	0.328760	0.380390
N81	N8	0.910600	0.333800	0.491290
