data_HAHPOW_freeONLY_PM
_symmetry_space_group_name_H-M	'P1'
_cell_length_a	21.599000
_cell_length_b	21.599000
_cell_length_c	12.196000
_cell_angle_alpha	90.000000
_cell_angle_beta	90.000000
_cell_angle_gamma	120.000000
_symmetry_Int_Tables_number 1

loop_
_symmetry_equiv_pos_as_xyz
'x,y,z'

loop_
_atom_site_label
_atom_site_type_symbol
_atom_site_fract_x
_atom_site_fract_y
_atom_site_fract_z
C11	C1	0.117600	0.499200	0.634400
C21	C2	0.158000	0.602700	0.567900
C31	C3	0.070300	0.425500	0.666700
C41	C4	0.001300	0.402700	0.709200
H11	H1	0.984500	0.434800	0.712700
C51	C5	0.959000	0.334300	0.745200
H21	H2	0.914700	0.320700	0.776200
C61	C6	0.981100	0.287500	0.735900
H31	H3	0.948900	0.240000	0.752200
C71	C7	0.047400	0.304600	0.704200
H41	H4	0.063600	0.272100	0.708300
C81	C8	0.091900	0.376100	0.663600
H51	H5	0.136500	0.389000	0.634500
C91	C9	0.162700	0.667400	0.516500
C101	C10	0.108700	0.684800	0.540400
H61	H6	0.069200	0.653600	0.581900
C111	C11	0.114700	0.747600	0.502200
H71	H7	0.080600	0.760300	0.519600
C121	C12	0.177400	0.794500	0.432100
H81	H8	0.182500	0.836800	0.403900
C131	C13	0.225600	0.775800	0.410300
H91	H9	0.264300	0.805300	0.365800
C141	C14	0.220400	0.713300	0.451700
H101	H10	0.255900	0.702200	0.435800
N11	N1	0.214000	0.602700	0.607300
N21	N2	0.187800	0.534100	0.650100
N31	N3	0.097200	0.543400	0.582900
C151	C15	0.500800	0.618400	0.634400
C161	C16	0.397300	0.555300	0.567900
C171	C17	0.574500	0.644800	0.666700
C181	C18	0.597300	0.598600	0.709200
H111	H11	0.565200	0.549700	0.712700
C191	C19	0.665700	0.624700	0.745200
H121	H12	0.679300	0.594000	0.776200
C201	C20	0.712500	0.693600	0.735900
H131	H13	0.760000	0.708900	0.752200
C211	C21	0.695400	0.742800	0.704200
H141	H14	0.727900	0.791500	0.708300
C221	C22	0.623900	0.715800	0.663600
H151	H15	0.611000	0.747500	0.634500
C231	C23	0.332600	0.495300	0.516500
C241	C24	0.315200	0.423900	0.540400
H161	H16	0.346400	0.415600	0.581900
C251	C25	0.252400	0.367100	0.502200
H171	H17	0.239700	0.320300	0.519600
C261	C26	0.205500	0.382900	0.432100
H181	H18	0.163200	0.345700	0.403900
C271	C27	0.224200	0.449800	0.410300
H191	H19	0.194700	0.459000	0.365800
C281	C28	0.286700	0.507100	0.451700
H201	H20	0.297800	0.553700	0.435800
N41	N4	0.397300	0.611300	0.607300
N51	N5	0.465900	0.653700	0.650100
N61	N6	0.456600	0.553800	0.582900
C291	C29	0.381600	0.882400	0.634400
C301	C30	0.444700	0.842000	0.567900
C311	C31	0.355200	0.929700	0.666700
C321	C32	0.401400	0.998700	0.709200
H211	H21	0.450300	0.015500	0.712700
C331	C33	0.375300	0.041000	0.745200
H221	H22	0.406000	0.085300	0.776200
C341	C34	0.306400	0.018900	0.735900
H231	H23	0.291100	0.051100	0.752200
C351	C35	0.257200	0.952600	0.704200
H241	H24	0.208500	0.936400	0.708300
C361	C36	0.284200	0.908100	0.663600
H251	H25	0.252500	0.863500	0.634500
C371	C37	0.504700	0.837300	0.516500
C381	C38	0.576100	0.891300	0.540400
H261	H26	0.584400	0.930800	0.581900
C391	C39	0.632900	0.885300	0.502200
H271	H27	0.679700	0.919400	0.519600
C401	C40	0.617100	0.822600	0.432100
H281	H28	0.654300	0.817500	0.403900
C411	C41	0.550200	0.774400	0.410300
H291	H29	0.541000	0.735700	0.365800
C421	C42	0.492900	0.779600	0.451700
H301	H30	0.446300	0.744100	0.435800
N71	N7	0.388700	0.786000	0.607300
N81	N8	0.346300	0.812200	0.650100
N91	N9	0.446200	0.902800	0.582900
C431	C43	0.882400	0.500800	0.134400
C441	C44	0.842000	0.397300	0.067900
C451	C45	0.929700	0.574500	0.166700
C461	C46	0.998700	0.597300	0.209200
H311	H31	0.015500	0.565200	0.212700
C471	C47	0.041000	0.665700	0.245200
H321	H32	0.085300	0.679300	0.276200
C481	C48	0.018900	0.712500	0.235900
H331	H33	0.051100	0.760000	0.252200
C491	C49	0.952600	0.695400	0.204200
H341	H34	0.936400	0.727900	0.208300
C501	C50	0.908100	0.623900	0.163600
H351	H35	0.863500	0.611000	0.134500
C511	C51	0.837300	0.332600	0.016500
C521	C52	0.891300	0.315200	0.040400
H361	H36	0.930800	0.346400	0.081900
C531	C53	0.885300	0.252400	0.002200
H371	H37	0.919400	0.239700	0.019600
C541	C54	0.822600	0.205500	0.932100
H381	H38	0.817500	0.163200	0.903900
C551	C55	0.774400	0.224200	0.910300
H391	H39	0.735700	0.194700	0.865800
C561	C56	0.779600	0.286700	0.951700
H401	H40	0.744100	0.297800	0.935800
N101	N10	0.786000	0.397300	0.107300
N111	N11	0.812200	0.465900	0.150100
N121	N12	0.902800	0.456600	0.082900
C571	C57	0.499200	0.381600	0.134400
C581	C58	0.602700	0.444700	0.067900
C591	C59	0.425500	0.355200	0.166700
C601	C60	0.402700	0.401400	0.209200
H411	H41	0.434800	0.450300	0.212700
C611	C61	0.334300	0.375300	0.245200
H421	H42	0.320700	0.406000	0.276200
C621	C62	0.287500	0.306400	0.235900
H431	H43	0.240000	0.291100	0.252200
C631	C63	0.304600	0.257200	0.204200
H441	H44	0.272100	0.208500	0.208300
C641	C64	0.376100	0.284200	0.163600
H451	H45	0.389000	0.252500	0.134500
C651	C65	0.667400	0.504700	0.016500
C661	C66	0.684800	0.576100	0.040400
H461	H46	0.653600	0.584400	0.081900
C671	C67	0.747600	0.632900	0.002200
H471	H47	0.760300	0.679700	0.019600
C681	C68	0.794500	0.617100	0.932100
H481	H48	0.836800	0.654300	0.903900
C691	C69	0.775800	0.550200	0.910300
H491	H49	0.805300	0.541000	0.865800
C701	C70	0.713300	0.492900	0.951700
H501	H50	0.702200	0.446300	0.935800
N131	N13	0.602700	0.388700	0.107300
N141	N14	0.534100	0.346300	0.150100
N151	N15	0.543400	0.446200	0.082900
C711	C71	0.618400	0.117600	0.134400
C721	C72	0.555300	0.158000	0.067900
C731	C73	0.644800	0.070300	0.166700
C741	C74	0.598600	0.001300	0.209200
H511	H51	0.549700	0.984500	0.212700
C751	C75	0.624700	0.959000	0.245200
H521	H52	0.594000	0.914700	0.276200
C761	C76	0.693600	0.981100	0.235900
H531	H53	0.708900	0.948900	0.252200
C771	C77	0.742800	0.047400	0.204200
H541	H54	0.791500	0.063600	0.208300
C781	C78	0.715800	0.091900	0.163600
H551	H55	0.747500	0.136500	0.134500
C791	C79	0.495300	0.162700	0.016500
C801	C80	0.423900	0.108700	0.040400
H561	H56	0.415600	0.069200	0.081900
C811	C81	0.367100	0.114700	0.002200
H571	H57	0.320300	0.080600	0.019600
C821	C82	0.382900	0.177400	0.932100
H581	H58	0.345700	0.182500	0.903900
C831	C83	0.449800	0.225600	0.910300
H591	H59	0.459000	0.264300	0.865800
C841	C84	0.507100	0.220400	0.951700
H601	H60	0.553700	0.255900	0.935800
N161	N16	0.611300	0.214000	0.107300
N171	N17	0.653700	0.187800	0.150100
N181	N18	0.553800	0.097200	0.082900
C851	C85	0.499200	0.117600	0.365600
C861	C86	0.602700	0.158000	0.432100
C871	C87	0.425500	0.070300	0.333300
C881	C88	0.402700	0.001300	0.290800
H611	H61	0.434800	0.984500	0.287300
C891	C89	0.334300	0.959000	0.254800
H621	H62	0.320700	0.914700	0.223800
C901	C90	0.287500	0.981100	0.264100
H631	H63	0.240000	0.948900	0.247800
C911	C91	0.304600	0.047400	0.295800
H641	H64	0.272100	0.063600	0.291700
C921	C92	0.376100	0.091900	0.336400
H651	H65	0.389000	0.136500	0.365500
C931	C93	0.667400	0.162700	0.483500
C941	C94	0.684800	0.108700	0.459600
H661	H66	0.653600	0.069200	0.418100
C951	C95	0.747600	0.114700	0.497800
H671	H67	0.760300	0.080600	0.480400
C961	C96	0.794500	0.177400	0.567900
H681	H68	0.836800	0.182500	0.596100
C971	C97	0.775800	0.225600	0.589700
H691	H69	0.805300	0.264300	0.634200
C981	C98	0.713300	0.220400	0.548300
H701	H70	0.702200	0.255900	0.564200
N191	N19	0.602700	0.214000	0.392700
N201	N20	0.534100	0.187800	0.349900
N211	N21	0.543400	0.097200	0.417100
C991	C99	0.618400	0.500800	0.365600
C1001	C100	0.555300	0.397300	0.432100
C1011	C101	0.644800	0.574500	0.333300
C1021	C102	0.598600	0.597300	0.290800
H711	H71	0.549700	0.565200	0.287300
C1031	C103	0.624700	0.665700	0.254800
H721	H72	0.594000	0.679300	0.223800
C1041	C104	0.693600	0.712500	0.264100
H731	H73	0.708900	0.760000	0.247800
C1051	C105	0.742800	0.695400	0.295800
H741	H74	0.791500	0.727900	0.291700
C1061	C106	0.715800	0.623900	0.336400
H751	H75	0.747500	0.611000	0.365500
C1071	C107	0.495300	0.332600	0.483500
C1081	C108	0.423900	0.315200	0.459600
H761	H76	0.415600	0.346400	0.418100
C1091	C109	0.367100	0.252400	0.497800
H771	H77	0.320300	0.239700	0.480400
C1101	C110	0.382900	0.205500	0.567900
H781	H78	0.345700	0.163200	0.596100
C1111	C111	0.449800	0.224200	0.589700
H791	H79	0.459000	0.194700	0.634200
C1121	C112	0.507100	0.286700	0.548300
H801	H80	0.553700	0.297800	0.564200
N221	N22	0.611300	0.397300	0.392700
N231	N23	0.653700	0.465900	0.349900
N241	N24	0.553800	0.456600	0.417100
C1131	C113	0.882400	0.381600	0.365600
C1141	C114	0.842000	0.444700	0.432100
C1151	C115	0.929700	0.355200	0.333300
C1161	C116	0.998700	0.401400	0.290800
H811	H81	0.015500	0.450300	0.287300
C1171	C117	0.041000	0.375300	0.254800
H821	H82	0.085300	0.406000	0.223800
C1181	C118	0.018900	0.306400	0.264100
H831	H83	0.051100	0.291100	0.247800
C1191	C119	0.952600	0.257200	0.295800
H841	H84	0.936400	0.208500	0.291700
C1201	C120	0.908100	0.284200	0.336400
H851	H85	0.863500	0.252500	0.365500
C1211	C121	0.837300	0.504700	0.483500
C1221	C122	0.891300	0.576100	0.459600
H861	H86	0.930800	0.584400	0.418100
C1231	C123	0.885300	0.632900	0.497800
H871	H87	0.919400	0.679700	0.480400
C1241	C124	0.822600	0.617100	0.567900
H881	H88	0.817500	0.654300	0.596100
C1251	C125	0.774400	0.550200	0.589700
H891	H89	0.735700	0.541000	0.634200
C1261	C126	0.779600	0.492900	0.548300
H901	H90	0.744100	0.446300	0.564200
N251	N25	0.786000	0.388700	0.392700
N261	N26	0.812200	0.346300	0.349900
N271	N27	0.902800	0.446200	0.417100
C1271	C127	0.500800	0.882400	0.865600
C1281	C128	0.397300	0.842000	0.932100
C1291	C129	0.574500	0.929700	0.833300
C1301	C130	0.597300	0.998700	0.790800
H911	H91	0.565200	0.015500	0.787300
C1311	C131	0.665700	0.041000	0.754800
H921	H92	0.679300	0.085300	0.723800
C1321	C132	0.712500	0.018900	0.764100
H931	H93	0.760000	0.051100	0.747800
C1331	C133	0.695400	0.952600	0.795800
H941	H94	0.727900	0.936400	0.791700
C1341	C134	0.623900	0.908100	0.836400
H951	H95	0.611000	0.863500	0.865500
C1351	C135	0.332600	0.837300	0.983500
C1361	C136	0.315200	0.891300	0.959600
H961	H96	0.346400	0.930800	0.918100
C1371	C137	0.252400	0.885300	0.997800
H971	H97	0.239700	0.919400	0.980400
C1381	C138	0.205500	0.822600	0.067900
H981	H98	0.163200	0.817500	0.096100
C1391	C139	0.224200	0.774400	0.089700
H991	H99	0.194700	0.735700	0.134200
C1401	C140	0.286700	0.779600	0.048300
H1001	H100	0.297800	0.744100	0.064200
N281	N28	0.397300	0.786000	0.892700
N291	N29	0.465900	0.812200	0.849900
N301	N30	0.456600	0.902800	0.917100
C1411	C141	0.381600	0.499200	0.865600
C1421	C142	0.444700	0.602700	0.932100
C1431	C143	0.355200	0.425500	0.833300
C1441	C144	0.401400	0.402700	0.790800
H1011	H101	0.450300	0.434800	0.787300
C1451	C145	0.375300	0.334300	0.754800
H1021	H102	0.406000	0.320700	0.723800
C1461	C146	0.306400	0.287500	0.764100
H1031	H103	0.291100	0.240000	0.747800
C1471	C147	0.257200	0.304600	0.795800
H1041	H104	0.208500	0.272100	0.791700
C1481	C148	0.284200	0.376100	0.836400
H1051	H105	0.252500	0.389000	0.865500
C1491	C149	0.504700	0.667400	0.983500
C1501	C150	0.576100	0.684800	0.959600
H1061	H106	0.584400	0.653600	0.918100
C1511	C151	0.632900	0.747600	0.997800
H1071	H107	0.679700	0.760300	0.980400
C1521	C152	0.617100	0.794500	0.067900
H1081	H108	0.654300	0.836800	0.096100
C1531	C153	0.550200	0.775800	0.089700
H1091	H109	0.541000	0.805300	0.134200
C1541	C154	0.492900	0.713300	0.048300
H1101	H110	0.446300	0.702200	0.064200
N311	N31	0.388700	0.602700	0.892700
N321	N32	0.346300	0.534100	0.849900
N331	N33	0.446200	0.543400	0.917100
C1551	C155	0.117600	0.618400	0.865600
C1561	C156	0.158000	0.555300	0.932100
C1571	C157	0.070300	0.644800	0.833300
C1581	C158	0.001300	0.598600	0.790800
H1111	H111	0.984500	0.549700	0.787300
C1591	C159	0.959000	0.624700	0.754800
H1121	H112	0.914700	0.594000	0.723800
C1601	C160	0.981100	0.693600	0.764100
H1131	H113	0.948900	0.708900	0.747800
C1611	C161	0.047400	0.742800	0.795800
H1141	H114	0.063600	0.791500	0.791700
C1621	C162	0.091900	0.715800	0.836400
H1151	H115	0.136500	0.747500	0.865500
C1631	C163	0.162700	0.495300	0.983500
C1641	C164	0.108700	0.423900	0.959600
H1161	H116	0.069200	0.415600	0.918100
C1651	C165	0.114700	0.367100	0.997800
H1171	H117	0.080600	0.320300	0.980400
C1661	C166	0.177400	0.382900	0.067900
H1181	H118	0.182500	0.345700	0.096100
C1671	C167	0.225600	0.449800	0.089700
H1191	H119	0.264300	0.459000	0.134200
C1681	C168	0.220400	0.507100	0.048300
H1201	H120	0.255900	0.553700	0.064200
N341	N34	0.214000	0.611300	0.892700
N351	N35	0.187800	0.653700	0.849900
N361	N36	0.097200	0.553800	0.917100
Ag11	Ag1	0.333330	0.666670	0.601300
Ag21	Ag2	0.666670	0.333330	0.101300
Ag31	Ag3	0.666670	0.333330	0.398700
Ag41	Ag4	0.333330	0.666670	0.898700
Ag51	Ag5	0.259810	0.519620	0.750000
Ag61	Ag6	0.480380	0.740190	0.750000
Ag71	Ag7	0.259810	0.740190	0.750000
Ag81	Ag8	0.740190	0.480380	0.250000
Ag91	Ag9	0.519620	0.259810	0.250000
Ag101	Ag10	0.740190	0.259810	0.250000
Ag111	Ag11	0.501210	0.501210	0.000000
Ag121	Ag12	0.498790	0.000000	0.000000
Ag131	Ag13	0.000000	0.498790	0.000000
Ag141	Ag14	0.498790	0.498790	0.500000
Ag151	Ag15	0.501210	0.000000	0.500000
Ag161	Ag16	0.000000	0.501210	0.500000
