data_HAJLIO_freeONLY_PM
_symmetry_space_group_name_H-M	'P1'
_cell_length_a	10.946300
_cell_length_b	15.046300
_cell_length_c	15.046300
_cell_angle_alpha	65.682700
_cell_angle_beta	75.965800
_cell_angle_gamma	104.034000
_symmetry_Int_Tables_number 1

loop_
_symmetry_equiv_pos_as_xyz
'x,y,z'

loop_
_atom_site_label
_atom_site_type_symbol
_atom_site_fract_x
_atom_site_fract_y
_atom_site_fract_z
Fe11	Fe1	0.500000	0.500000	0.500000
H11	H1	0.229500	0.341100	0.536400
H21	H2	0.475800	0.688900	0.294700
H31	H3	0.346900	0.709000	0.271600
H41	H4	0.443100	0.678300	0.200700
H51	H5	0.031000	0.237500	0.532400
H61	H6	0.041700	0.272500	0.414100
H71	H7	0.949800	0.307000	0.483400
H81	H8	0.026800	0.715200	0.237000
H91	H9	0.164000	0.718200	0.257700
H101	H10	0.019100	0.632300	0.349400
H111	H11	0.128600	0.369200	0.146600
H121	H12	0.118700	0.324900	0.265800
H131	H13	0.259100	0.412400	0.169700
H141	H14	0.991600	0.631600	0.133900
H151	H15	0.770500	0.658900	0.463600
H161	H16	0.524200	0.311100	0.705300
H171	H17	0.653100	0.291000	0.728400
H181	H18	0.556900	0.321700	0.799300
H191	H19	0.969000	0.762500	0.467600
H201	H20	0.958300	0.727500	0.585900
H211	H21	0.050200	0.693000	0.516600
H221	H22	0.973200	0.284800	0.763000
H231	H23	0.836000	0.281800	0.742300
H241	H24	0.980900	0.367700	0.650600
H251	H25	0.871400	0.630800	0.853400
H261	H26	0.881300	0.675100	0.734200
H271	H27	0.740900	0.587600	0.830300
H281	H28	0.008400	0.368400	0.866100
C11	C1	0.275010	0.348640	0.738310
C21	C2	0.315390	0.552260	0.346790
C31	C3	0.199750	0.491500	0.340750
C41	C4	0.152800	0.391720	0.428020
C51	C5	0.402740	0.666950	0.272030
C61	C6	0.033710	0.293890	0.467860
C71	C7	0.083370	0.596900	0.233990
C81	C8	0.139920	0.521540	0.260180
C91	C9	0.116150	0.472590	0.199740
C101	C10	0.072360	0.672030	0.272850
C111	C11	0.159340	0.387470	0.195050
C121	C12	0.724990	0.651360	0.261690
C131	C13	0.684610	0.447740	0.653210
C141	C14	0.800250	0.508500	0.659250
C151	C15	0.847200	0.608280	0.571980
C161	C16	0.597260	0.333050	0.727970
C171	C17	0.966290	0.706110	0.532140
C181	C18	0.916630	0.403100	0.766010
C191	C19	0.860080	0.478460	0.739820
C201	C20	0.883850	0.527410	0.800260
C211	C21	0.927640	0.327970	0.727150
C221	C22	0.840660	0.612530	0.804950
S11	S1	0.182000	0.280380	0.865050
S21	S2	0.818000	0.719620	0.134950
N11	N1	0.343460	0.396520	0.648130
N21	N2	0.338860	0.493280	0.431000
N31	N3	0.238050	0.395670	0.478680
N41	N4	0.048830	0.514290	0.140760
N51	N5	0.032000	0.590500	0.163000
N61	N6	0.656540	0.603480	0.351870
N71	N7	0.661140	0.506720	0.569000
N81	N8	0.761950	0.604330	0.521320
N91	N9	0.951170	0.485710	0.859240
N101	N10	0.968000	0.409500	0.837000
Fe21	Fe2	0.000000	0.500000	0.000000
H291	H29	0.765900	0.536400	0.122500
H301	H30	0.770500	0.294700	0.016400
H311	H31	0.618500	0.271600	0.019400
H321	H32	0.643800	0.200700	0.121000
H331	H33	0.563400	0.532400	0.230100
H341	H34	0.455800	0.414100	0.313400
H351	H35	0.433200	0.483400	0.209600
H361	H36	0.263800	0.237000	0.047800
H371	H37	0.421700	0.257700	0.024100
H381	H38	0.368500	0.349400	0.018300
H391	H39	0.275200	0.146600	0.484200
H401	H40	0.384500	0.265800	0.409300
H411	H41	0.428800	0.169700	0.417900
H421	H42	0.125500	0.133900	0.234500
H431	H43	0.234100	0.463600	0.877500
H441	H44	0.229500	0.705300	0.983600
H451	H45	0.381500	0.728400	0.980600
H461	H46	0.356200	0.799300	0.879000
H471	H47	0.436600	0.467600	0.769900
H481	H48	0.544200	0.585900	0.686600
H491	H49	0.566800	0.516600	0.790400
H501	H50	0.736200	0.763000	0.952200
H511	H51	0.578300	0.742300	0.975900
H521	H52	0.631500	0.650600	0.981700
H531	H53	0.724800	0.853400	0.515800
H541	H54	0.615500	0.734200	0.590700
H551	H55	0.571200	0.830300	0.582100
H561	H56	0.874500	0.866100	0.765500
C231	C23	0.013320	0.738310	0.913050
C241	C24	0.662180	0.346790	0.100950
C251	C25	0.540500	0.340750	0.167750
C261	C26	0.580820	0.428020	0.180260
C271	C27	0.674770	0.272030	0.061020
C281	C28	0.501570	0.467860	0.238250
C291	C29	0.317360	0.233990	0.169110
C301	C30	0.400100	0.260180	0.218280
C311	C31	0.315890	0.199740	0.327670
C321	C32	0.345210	0.272850	0.055120
C331	C33	0.354390	0.195050	0.417480
C341	C34	0.986680	0.261690	0.086950
C351	C35	0.337820	0.653210	0.899050
C361	C36	0.459500	0.659250	0.832250
C371	C37	0.419180	0.571980	0.819740
C381	C38	0.325230	0.727970	0.938980
C391	C39	0.498430	0.532140	0.761750
C401	C40	0.682640	0.766010	0.830890
C411	C41	0.599900	0.739820	0.781720
C421	C42	0.684110	0.800260	0.672330
C431	C43	0.654790	0.727150	0.944880
C441	C44	0.645610	0.804950	0.582520
S31	S3	0.047050	0.865050	0.854570
S41	S4	0.952950	0.134950	0.145430
N111	N11	0.991590	0.648130	0.955350
N121	N12	0.769860	0.431000	0.075720
N131	N13	0.716730	0.478680	0.125650
N141	N14	0.189590	0.140760	0.344950
N151	N15	0.195000	0.163000	0.246500
N161	N16	0.008410	0.351870	0.044650
N171	N17	0.230140	0.569000	0.924280
N181	N18	0.283270	0.521320	0.874350
N191	N19	0.810410	0.859240	0.655050
N201	N20	0.805000	0.837000	0.753500
Fe31	Fe3	0.000000	0.000000	0.500000
H571	H57	0.888400	0.122500	0.341100
H581	H58	0.786900	0.016400	0.688900
H591	H59	0.637900	0.019400	0.709000
H601	H60	0.764800	0.121000	0.678300
H611	H61	0.793500	0.230100	0.237500
H621	H62	0.769200	0.313400	0.272500
H631	H63	0.642800	0.209600	0.307000
H641	H64	0.311600	0.047800	0.715200
H651	H65	0.445800	0.024100	0.718200
H661	H66	0.386800	0.018300	0.632300
H671	H67	0.759400	0.484200	0.369200
H681	H68	0.793800	0.409300	0.324900
H691	H69	0.846700	0.417900	0.412400
H701	H70	0.360000	0.234500	0.631600
H711	H71	0.111600	0.877500	0.658900
H721	H72	0.213100	0.983600	0.311100
H731	H73	0.362100	0.980600	0.291000
H741	H74	0.235200	0.879000	0.321700
H751	H75	0.206500	0.769900	0.762500
H761	H76	0.230800	0.686600	0.727500
H771	H77	0.357200	0.790400	0.693000
H781	H78	0.688400	0.952200	0.284800
H791	H79	0.554200	0.975900	0.281800
H801	H80	0.613200	0.981700	0.367700
H811	H81	0.240600	0.515800	0.630800
H821	H82	0.206200	0.590700	0.675100
H831	H83	0.153300	0.582100	0.587600
H841	H84	0.640000	0.765500	0.368400
C451	C45	0.926370	0.913050	0.348640
C461	C46	0.763130	0.100950	0.552260
C471	C47	0.708250	0.167750	0.491500
C481	C48	0.761080	0.180260	0.391720
C491	C49	0.735790	0.061020	0.666950
C501	C50	0.739820	0.238250	0.293890
C511	C51	0.486470	0.169110	0.596900
C521	C52	0.618380	0.218280	0.521540
C531	C53	0.643560	0.327670	0.472590
C541	C54	0.400330	0.055120	0.672030
C551	C55	0.771870	0.417480	0.387470
C561	C56	0.073630	0.086950	0.651360
C571	C57	0.236870	0.899050	0.447740
C581	C58	0.291750	0.832250	0.508500
C591	C59	0.238920	0.819740	0.608280
C601	C60	0.264210	0.938980	0.333050
C611	C61	0.260180	0.761750	0.706110
C621	C62	0.513530	0.830890	0.403100
C631	C63	0.381620	0.781720	0.478460
C641	C64	0.356440	0.672330	0.527410
C651	C65	0.599670	0.944880	0.327970
C661	C66	0.228130	0.582520	0.612530
S51	S5	0.901620	0.854570	0.280380
S61	S6	0.098380	0.145430	0.719620
N211	N21	0.946940	0.955350	0.396520
N221	N22	0.845580	0.075720	0.493280
N231	N23	0.842380	0.125650	0.395670
N241	N24	0.534540	0.344950	0.514290
N251	N25	0.441500	0.246500	0.590500
N261	N26	0.053060	0.044650	0.603480
N271	N27	0.154420	0.924280	0.506720
N281	N28	0.157620	0.874350	0.604330
N291	N29	0.465460	0.655050	0.485710
N301	N30	0.558500	0.753500	0.409500
