data_HAJPEQ_freeONLY_PM
_symmetry_space_group_name_H-M	'P1'
_cell_length_a	12.819900
_cell_length_b	12.819900
_cell_length_c	32.617000
_cell_angle_alpha	90.000000
_cell_angle_beta	90.000000
_cell_angle_gamma	90.000000
_symmetry_Int_Tables_number 1

loop_
_symmetry_equiv_pos_as_xyz
'x,y,z'

loop_
_atom_site_label
_atom_site_type_symbol
_atom_site_fract_x
_atom_site_fract_y
_atom_site_fract_z
N11	N1	0.421400	0.921300	0.294100
C11	C1	0.469700	0.871200	0.323000
C21	C2	0.317600	0.921000	0.294900
C31	C3	0.419700	0.817200	0.354200
H11	H1	0.542300	0.871600	0.322900
H21	H2	0.281300	0.957600	0.274800
C41	C4	0.262400	0.868100	0.324500
C51	C5	0.312800	0.815000	0.355400
H31	H3	0.458400	0.782600	0.374100
H41	H4	0.189900	0.868300	0.323700
C61	C6	0.252500	0.756500	0.386800
C71	C7	0.300200	0.694500	0.414800
C81	C8	0.146500	0.762500	0.389000
C91	C9	0.242400	0.637300	0.443300
H51	H5	0.372600	0.690000	0.415000
C101	C10	0.089800	0.707000	0.417900
H61	H6	0.111100	0.805100	0.370500
C111	C11	0.133800	0.639400	0.444200
H71	H7	0.277700	0.596400	0.462300
H81	H8	0.018000	0.717200	0.419200
C121	C12	0.068900	0.570200	0.472600
H91	H9	0.180900	0.456900	0.482900
H101	H10	0.043700	0.457100	0.429000
H111	H11	0.043600	0.683300	0.516900
N21	N2	0.578600	0.078700	0.294100
C131	C13	0.530300	0.128800	0.323000
C141	C14	0.682400	0.079000	0.294900
C151	C15	0.580300	0.182800	0.354200
H121	H12	0.457700	0.128400	0.322900
H131	H13	0.718700	0.042400	0.274800
C161	C16	0.737600	0.131900	0.324500
C171	C17	0.687200	0.185000	0.355400
H141	H14	0.541600	0.217400	0.374100
H151	H15	0.810100	0.131700	0.323700
C181	C18	0.747500	0.243500	0.386800
C191	C19	0.699800	0.305500	0.414800
C201	C20	0.853500	0.237500	0.389000
C211	C21	0.757600	0.362700	0.443300
H161	H16	0.627400	0.310000	0.415000
C221	C22	0.910200	0.293000	0.417900
H171	H17	0.888900	0.194900	0.370500
C231	C23	0.866200	0.360600	0.444200
H181	H18	0.722300	0.403600	0.462300
H191	H19	0.982000	0.282800	0.419200
C241	C24	0.931100	0.429800	0.472600
H201	H20	0.819100	0.543100	0.482900
H211	H21	0.956300	0.542900	0.429000
H221	H22	0.956400	0.316700	0.516900
N31	N3	0.578700	0.921400	0.794100
C251	C25	0.628800	0.969700	0.823000
C261	C26	0.579000	0.817600	0.794900
C271	C27	0.682800	0.919700	0.854200
H231	H23	0.628400	0.042300	0.822900
H241	H24	0.542400	0.781300	0.774800
C281	C28	0.631900	0.762400	0.824500
C291	C29	0.685000	0.812800	0.855400
H251	H25	0.717400	0.958400	0.874100
H261	H26	0.631700	0.689900	0.823700
C301	C30	0.743500	0.752500	0.886800
C311	C31	0.805500	0.800200	0.914800
C321	C32	0.737500	0.646500	0.889000
C331	C33	0.862700	0.742400	0.943300
H271	H27	0.810000	0.872600	0.915000
C341	C34	0.793000	0.589800	0.917900
H281	H28	0.694900	0.611100	0.870500
C351	C35	0.860600	0.633800	0.944200
H291	H29	0.903600	0.777700	0.962300
H301	H30	0.782800	0.518000	0.919200
C361	C36	0.929800	0.568900	0.972600
H311	H31	0.043100	0.680900	0.982900
H321	H32	0.042900	0.543700	0.929000
H331	H33	0.816700	0.543600	0.016900
N41	N4	0.421300	0.078600	0.794100
C371	C37	0.371200	0.030300	0.823000
C381	C38	0.421000	0.182400	0.794900
C391	C39	0.317200	0.080300	0.854200
H341	H34	0.371600	0.957700	0.822900
H351	H35	0.457600	0.218700	0.774800
C401	C40	0.368100	0.237600	0.824500
C411	C41	0.315000	0.187200	0.855400
H361	H36	0.282600	0.041600	0.874100
H371	H37	0.368300	0.310100	0.823700
C421	C42	0.256500	0.247500	0.886800
C431	C43	0.194500	0.199800	0.914800
C441	C44	0.262500	0.353500	0.889000
C451	C45	0.137300	0.257600	0.943300
H381	H38	0.190000	0.127400	0.915000
C461	C46	0.207000	0.410200	0.917900
H391	H39	0.305100	0.388900	0.870500
C471	C47	0.139400	0.366200	0.944200
H401	H40	0.096400	0.222300	0.962300
H411	H41	0.217200	0.482000	0.919200
C481	C48	0.070200	0.431100	0.972600
H421	H42	0.956900	0.319100	0.982900
H431	H43	0.957100	0.456300	0.929000
H441	H44	0.183300	0.456400	0.016900
N51	N5	0.578600	0.921300	0.705900
C491	C49	0.530300	0.871200	0.677000
C501	C50	0.682400	0.921000	0.705100
C511	C51	0.580300	0.817200	0.645800
H451	H45	0.457700	0.871600	0.677100
H461	H46	0.718700	0.957600	0.725200
C521	C52	0.737600	0.868100	0.675500
C531	C53	0.687200	0.815000	0.644600
H471	H47	0.541600	0.782600	0.625900
H481	H48	0.810100	0.868300	0.676300
C541	C54	0.747500	0.756500	0.613200
C551	C55	0.699800	0.694500	0.585200
C561	C56	0.853500	0.762500	0.611000
C571	C57	0.757600	0.637300	0.556700
H491	H49	0.627400	0.690000	0.585000
C581	C58	0.910200	0.707000	0.582100
H501	H50	0.888900	0.805100	0.629500
C591	C59	0.866200	0.639400	0.555800
H511	H51	0.722300	0.596400	0.537700
H521	H52	0.982000	0.717200	0.580800
C601	C60	0.931100	0.570200	0.527400
H531	H53	0.819100	0.456900	0.517100
H541	H54	0.956300	0.457100	0.571000
H551	H55	0.956400	0.683300	0.483100
N61	N6	0.421400	0.078700	0.705900
C611	C61	0.469700	0.128800	0.677000
C621	C62	0.317600	0.079000	0.705100
C631	C63	0.419700	0.182800	0.645800
H561	H56	0.542300	0.128400	0.677100
H571	H57	0.281300	0.042400	0.725200
C641	C64	0.262400	0.131900	0.675500
C651	C65	0.312800	0.185000	0.644600
H581	H58	0.458400	0.217400	0.625900
H591	H59	0.189900	0.131700	0.676300
C661	C66	0.252500	0.243500	0.613200
C671	C67	0.300200	0.305500	0.585200
C681	C68	0.146500	0.237500	0.611000
C691	C69	0.242400	0.362700	0.556700
H601	H60	0.372600	0.310000	0.585000
C701	C70	0.089800	0.293000	0.582100
H611	H61	0.111100	0.194900	0.629500
C711	C71	0.133800	0.360600	0.555800
H621	H62	0.277700	0.403600	0.537700
H631	H63	0.018000	0.282800	0.580800
C721	C72	0.068900	0.429800	0.527400
H641	H64	0.180900	0.543100	0.517100
H651	H65	0.043700	0.542900	0.571000
H661	H66	0.043600	0.316700	0.483100
N71	N7	0.421300	0.921400	0.205900
C731	C73	0.371200	0.969700	0.177000
C741	C74	0.421000	0.817600	0.205100
C751	C75	0.317200	0.919700	0.145800
H671	H67	0.371600	0.042300	0.177100
H681	H68	0.457600	0.781300	0.225200
C761	C76	0.368100	0.762400	0.175500
C771	C77	0.315000	0.812800	0.144600
H691	H69	0.282600	0.958400	0.125900
H701	H70	0.368300	0.689900	0.176300
C781	C78	0.256500	0.752500	0.113200
C791	C79	0.194500	0.800200	0.085200
C801	C80	0.262500	0.646500	0.111000
C811	C81	0.137300	0.742400	0.056700
H711	H71	0.190000	0.872600	0.085000
C821	C82	0.207000	0.589800	0.082100
H721	H72	0.305100	0.611100	0.129500
C831	C83	0.139400	0.633800	0.055800
H731	H73	0.096400	0.777700	0.037700
H741	H74	0.217200	0.518000	0.080800
C841	C84	0.070200	0.568900	0.027400
H751	H75	0.956900	0.680900	0.017100
H761	H76	0.957100	0.543700	0.071000
H771	H77	0.183300	0.543600	0.983100
N81	N8	0.578700	0.078600	0.205900
C851	C85	0.628800	0.030300	0.177000
C861	C86	0.579000	0.182400	0.205100
C871	C87	0.682800	0.080300	0.145800
H781	H78	0.628400	0.957700	0.177100
H791	H79	0.542400	0.218700	0.225200
C881	C88	0.631900	0.237600	0.175500
C891	C89	0.685000	0.187200	0.144600
H801	H80	0.717400	0.041600	0.125900
H811	H81	0.631700	0.310100	0.176300
C901	C90	0.743500	0.247500	0.113200
C911	C91	0.805500	0.199800	0.085200
C921	C92	0.737500	0.353500	0.111000
C931	C93	0.862700	0.257600	0.056700
H821	H82	0.810000	0.127400	0.085000
C941	C94	0.793000	0.410200	0.082100
H831	H83	0.694900	0.388900	0.129500
C951	C95	0.860600	0.366200	0.055800
H841	H84	0.903600	0.222300	0.037700
H851	H85	0.782800	0.482000	0.080800
C961	C96	0.929800	0.431100	0.027400
H861	H86	0.043100	0.319100	0.017100
H871	H87	0.042900	0.456300	0.071000
H881	H88	0.816700	0.456400	0.983100
Cu11	Cu1	0.500000	0.000000	0.250000
Cu21	Cu2	0.500000	0.000000	0.750000
C971	C97	0.136400	0.500000	0.500000
C981	C98	0.863600	0.500000	0.500000
C991	C99	0.000000	0.636400	0.000000
C1001	C100	0.000000	0.363600	0.000000
C1011	C101	0.000000	0.500000	0.446500
C1021	C102	0.000000	0.500000	0.946500
C1031	C103	0.000000	0.500000	0.553500
C1041	C104	0.000000	0.500000	0.053500
C1051	C105	0.000000	0.638900	0.500000
C1061	C106	0.000000	0.361100	0.500000
C1071	C107	0.861100	0.500000	0.000000
C1081	C108	0.138900	0.500000	0.000000
N91	N9	0.921400	0.421300	0.794100
C1091	C109	0.969700	0.371200	0.823000
C1101	C110	0.817600	0.421000	0.794900
C1111	C111	0.919700	0.317200	0.854200
H891	H89	0.042300	0.371600	0.822900
H901	H90	0.781300	0.457600	0.774800
C1121	C112	0.762400	0.368100	0.824500
C1131	C113	0.812800	0.315000	0.855400
H911	H91	0.958400	0.282600	0.874100
H921	H92	0.689900	0.368300	0.823700
C1141	C114	0.752500	0.256500	0.886800
C1151	C115	0.800200	0.194500	0.914800
C1161	C116	0.646500	0.262500	0.889000
C1171	C117	0.742400	0.137300	0.943300
H931	H93	0.872600	0.190000	0.915000
C1181	C118	0.589800	0.207000	0.917900
H941	H94	0.611100	0.305100	0.870500
C1191	C119	0.633800	0.139400	0.944200
H951	H95	0.777700	0.096400	0.962300
H961	H96	0.518000	0.217200	0.919200
C1201	C120	0.568900	0.070200	0.972600
H971	H97	0.680900	0.956900	0.982900
H981	H98	0.543700	0.957100	0.929000
H991	H99	0.543600	0.183300	0.016900
N101	N10	0.078600	0.578700	0.794100
C1211	C121	0.030300	0.628800	0.823000
C1221	C122	0.182400	0.579000	0.794900
C1231	C123	0.080300	0.682800	0.854200
H1001	H100	0.957700	0.628400	0.822900
H1011	H101	0.218700	0.542400	0.774800
C1241	C124	0.237600	0.631900	0.824500
C1251	C125	0.187200	0.685000	0.855400
H1021	H102	0.041600	0.717400	0.874100
H1031	H103	0.310100	0.631700	0.823700
C1261	C126	0.247500	0.743500	0.886800
C1271	C127	0.199800	0.805500	0.914800
C1281	C128	0.353500	0.737500	0.889000
C1291	C129	0.257600	0.862700	0.943300
H1041	H104	0.127400	0.810000	0.915000
C1301	C130	0.410200	0.793000	0.917900
H1051	H105	0.388900	0.694900	0.870500
C1311	C131	0.366200	0.860600	0.944200
H1061	H106	0.222300	0.903600	0.962300
H1071	H107	0.482000	0.782800	0.919200
C1321	C132	0.431100	0.929800	0.972600
H1081	H108	0.319100	0.043100	0.982900
H1091	H109	0.456300	0.042900	0.929000
H1101	H110	0.456400	0.816700	0.016900
N111	N11	0.078700	0.421400	0.294100
C1331	C133	0.128800	0.469700	0.323000
C1341	C134	0.079000	0.317600	0.294900
C1351	C135	0.182800	0.419700	0.354200
H1111	H111	0.128400	0.542300	0.322900
H1121	H112	0.042400	0.281300	0.274800
C1361	C136	0.131900	0.262400	0.324500
C1371	C137	0.185000	0.312800	0.355400
H1131	H113	0.217400	0.458400	0.374100
H1141	H114	0.131700	0.189900	0.323700
C1381	C138	0.243500	0.252500	0.386800
C1391	C139	0.305500	0.300200	0.414800
C1401	C140	0.237500	0.146500	0.389000
C1411	C141	0.362700	0.242400	0.443300
H1151	H115	0.310000	0.372600	0.415000
C1421	C142	0.293000	0.089800	0.417900
H1161	H116	0.194900	0.111100	0.370500
C1431	C143	0.360600	0.133800	0.444200
H1171	H117	0.403600	0.277700	0.462300
H1181	H118	0.282800	0.018000	0.419200
C1441	C144	0.429800	0.068900	0.472600
H1191	H119	0.543100	0.180900	0.482900
H1201	H120	0.542900	0.043700	0.429000
H1211	H121	0.316700	0.043600	0.516900
N121	N12	0.921300	0.578600	0.294100
C1451	C145	0.871200	0.530300	0.323000
C1461	C146	0.921000	0.682400	0.294900
C1471	C147	0.817200	0.580300	0.354200
H1221	H122	0.871600	0.457700	0.322900
H1231	H123	0.957600	0.718700	0.274800
C1481	C148	0.868100	0.737600	0.324500
C1491	C149	0.815000	0.687200	0.355400
H1241	H124	0.782600	0.541600	0.374100
H1251	H125	0.868300	0.810100	0.323700
C1501	C150	0.756500	0.747500	0.386800
C1511	C151	0.694500	0.699800	0.414800
C1521	C152	0.762500	0.853500	0.389000
C1531	C153	0.637300	0.757600	0.443300
H1261	H126	0.690000	0.627400	0.415000
C1541	C154	0.707000	0.910200	0.417900
H1271	H127	0.805100	0.888900	0.370500
C1551	C155	0.639400	0.866200	0.444200
H1281	H128	0.596400	0.722300	0.462300
H1291	H129	0.717200	0.982000	0.419200
C1561	C156	0.570200	0.931100	0.472600
H1301	H130	0.456900	0.819100	0.482900
H1311	H131	0.457100	0.956300	0.429000
H1321	H132	0.683300	0.956400	0.516900
N131	N13	0.078600	0.421300	0.205900
C1571	C157	0.030300	0.371200	0.177000
C1581	C158	0.182400	0.421000	0.205100
C1591	C159	0.080300	0.317200	0.145800
H1331	H133	0.957700	0.371600	0.177100
H1341	H134	0.218700	0.457600	0.225200
C1601	C160	0.237600	0.368100	0.175500
C1611	C161	0.187200	0.315000	0.144600
H1351	H135	0.041600	0.282600	0.125900
H1361	H136	0.310100	0.368300	0.176300
C1621	C162	0.247500	0.256500	0.113200
C1631	C163	0.199800	0.194500	0.085200
C1641	C164	0.353500	0.262500	0.111000
C1651	C165	0.257600	0.137300	0.056700
H1371	H137	0.127400	0.190000	0.085000
C1661	C166	0.410200	0.207000	0.082100
H1381	H138	0.388900	0.305100	0.129500
C1671	C167	0.366200	0.139400	0.055800
H1391	H139	0.222300	0.096400	0.037700
H1401	H140	0.482000	0.217200	0.080800
C1681	C168	0.431100	0.070200	0.027400
H1411	H141	0.319100	0.956900	0.017100
H1421	H142	0.456300	0.957100	0.071000
H1431	H143	0.456400	0.183300	0.983100
N141	N14	0.921400	0.578700	0.205900
C1691	C169	0.969700	0.628800	0.177000
C1701	C170	0.817600	0.579000	0.205100
C1711	C171	0.919700	0.682800	0.145800
H1441	H144	0.042300	0.628400	0.177100
H1451	H145	0.781300	0.542400	0.225200
C1721	C172	0.762400	0.631900	0.175500
C1731	C173	0.812800	0.685000	0.144600
H1461	H146	0.958400	0.717400	0.125900
H1471	H147	0.689900	0.631700	0.176300
C1741	C174	0.752500	0.743500	0.113200
C1751	C175	0.800200	0.805500	0.085200
C1761	C176	0.646500	0.737500	0.111000
C1771	C177	0.742400	0.862700	0.056700
H1481	H148	0.872600	0.810000	0.085000
C1781	C178	0.589800	0.793000	0.082100
H1491	H149	0.611100	0.694900	0.129500
C1791	C179	0.633800	0.860600	0.055800
H1501	H150	0.777700	0.903600	0.037700
H1511	H151	0.518000	0.782800	0.080800
C1801	C180	0.568900	0.929800	0.027400
H1521	H152	0.680900	0.043100	0.017100
H1531	H153	0.543700	0.042900	0.071000
H1541	H154	0.543600	0.816700	0.983100
N151	N15	0.921300	0.421400	0.705900
C1811	C181	0.871200	0.469700	0.677000
C1821	C182	0.921000	0.317600	0.705100
C1831	C183	0.817200	0.419700	0.645800
H1551	H155	0.871600	0.542300	0.677100
H1561	H156	0.957600	0.281300	0.725200
C1841	C184	0.868100	0.262400	0.675500
C1851	C185	0.815000	0.312800	0.644600
H1571	H157	0.782600	0.458400	0.625900
H1581	H158	0.868300	0.189900	0.676300
C1861	C186	0.756500	0.252500	0.613200
C1871	C187	0.694500	0.300200	0.585200
C1881	C188	0.762500	0.146500	0.611000
C1891	C189	0.637300	0.242400	0.556700
H1591	H159	0.690000	0.372600	0.585000
C1901	C190	0.707000	0.089800	0.582100
H1601	H160	0.805100	0.111100	0.629500
C1911	C191	0.639400	0.133800	0.555800
H1611	H161	0.596400	0.277700	0.537700
H1621	H162	0.717200	0.018000	0.580800
C1921	C192	0.570200	0.068900	0.527400
H1631	H163	0.456900	0.180900	0.517100
H1641	H164	0.457100	0.043700	0.571000
H1651	H165	0.683300	0.043600	0.483100
N161	N16	0.078700	0.578600	0.705900
C1931	C193	0.128800	0.530300	0.677000
C1941	C194	0.079000	0.682400	0.705100
C1951	C195	0.182800	0.580300	0.645800
H1661	H166	0.128400	0.457700	0.677100
H1671	H167	0.042400	0.718700	0.725200
C1961	C196	0.131900	0.737600	0.675500
C1971	C197	0.185000	0.687200	0.644600
H1681	H168	0.217400	0.541600	0.625900
H1691	H169	0.131700	0.810100	0.676300
C1981	C198	0.243500	0.747500	0.613200
C1991	C199	0.305500	0.699800	0.585200
C2001	C200	0.237500	0.853500	0.611000
C2011	C201	0.362700	0.757600	0.556700
H1701	H170	0.310000	0.627400	0.585000
C2021	C202	0.293000	0.910200	0.582100
H1711	H171	0.194900	0.888900	0.629500
C2031	C203	0.360600	0.866200	0.555800
H1721	H172	0.403600	0.722300	0.537700
H1731	H173	0.282800	0.982000	0.580800
C2041	C204	0.429800	0.931100	0.527400
H1741	H174	0.543100	0.819100	0.517100
H1751	H175	0.542900	0.956300	0.571000
H1761	H176	0.316700	0.956400	0.483100
Cu31	Cu3	0.000000	0.500000	0.250000
Cu41	Cu4	0.000000	0.500000	0.750000
C2051	C205	0.636400	0.000000	0.000000
C2061	C206	0.363600	0.000000	0.000000
C2071	C207	0.500000	0.136400	0.500000
C2081	C208	0.500000	0.863600	0.500000
C2091	C209	0.500000	0.000000	0.946500
C2101	C210	0.500000	0.000000	0.446500
C2111	C211	0.500000	0.000000	0.053500
C2121	C212	0.500000	0.000000	0.553500
C2131	C213	0.500000	0.138900	0.000000
C2141	C214	0.500000	0.861100	0.000000
C2151	C215	0.361100	0.000000	0.500000
C2161	C216	0.638900	0.000000	0.500000
