data_HAJYEZ_freeONLY_PM
_symmetry_space_group_name_H-M	'P1'
_cell_length_a	10.282000
_cell_length_b	11.261000
_cell_length_c	12.171000
_cell_angle_alpha	92.575000
_cell_angle_beta	109.114000
_cell_angle_gamma	109.752000
_symmetry_Int_Tables_number 1

loop_
_symmetry_equiv_pos_as_xyz
'x,y,z'

loop_
_atom_site_label
_atom_site_type_symbol
_atom_site_fract_x
_atom_site_fract_y
_atom_site_fract_z
O11	O1	0.589600	0.687600	0.562200
O21	O2	0.697000	0.483200	0.519300
O31	O3	0.565500	0.462300	0.682100
C11	C1	0.711700	0.752400	0.642500
Ni11	Ni1	0.791810	0.526370	0.702900
H11	H1	0.723600	0.419300	0.526500
H21	H2	0.737900	0.527800	0.476700
C21	C2	0.746200	0.893400	0.672400
O41	O4	0.808400	0.711200	0.698100
O51	O5	0.867800	0.581300	0.885500
O61	O6	0.784800	0.346800	0.700300
O71	O7	0.006800	0.585500	0.706700
C31	C3	0.887900	0.979700	0.689600
C41	C4	0.640000	0.939600	0.685300
H31	H3	0.923600	0.648800	0.936500
H41	H4	0.780400	0.561900	0.885500
C51	C5	0.931800	0.112000	0.721300
H51	H5	0.956500	0.947800	0.679400
C61	C6	0.682500	0.070900	0.715200
C71	C7	0.487300	0.856000	0.670300
O81	O8	0.164100	0.590900	0.938200
O91	O9	0.926500	0.339900	0.881600
C81	C8	0.084000	0.198000	0.733000
C91	C9	0.823900	0.156600	0.735900
H61	H6	0.612200	0.102700	0.721600
C101	C10	0.457300	0.762700	0.737600
C111	C11	0.368800	0.874600	0.586800
H71	H7	0.244500	0.589000	0.934500
H81	H8	0.109800	0.593600	0.869400
C121	C12	0.176700	0.295200	0.832300
C131	C13	0.142100	0.183300	0.647200
C141	C14	0.850200	0.294600	0.775200
H91	H9	0.535500	0.749500	0.793600
C151	C15	0.311800	0.687600	0.723400
H101	H10	0.387300	0.938600	0.541900
C161	C16	0.224400	0.799100	0.570200
C171	C17	0.314600	0.374200	0.841800
H111	H11	0.142600	0.305500	0.892700
C181	C18	0.281300	0.264800	0.656000
H121	H12	0.086000	0.117300	0.582500
H131	H13	0.293200	0.624900	0.769400
C191	C19	0.194200	0.707600	0.639200
H141	H14	0.146500	0.810100	0.511700
C201	C20	0.368900	0.361400	0.751800
H151	H15	0.373500	0.437200	0.908400
H161	H16	0.316300	0.254300	0.596200
C211	C21	0.037100	0.630300	0.622000
C221	C22	0.522200	0.448800	0.768800
O101	O10	0.940800	0.617500	0.519900
O111	O11	0.606200	0.501900	0.872000
O121	O12	0.410400	0.312400	0.437800
O131	O13	0.303000	0.516800	0.480700
O141	O14	0.434500	0.537700	0.317900
C231	C23	0.288300	0.247600	0.357500
Ni21	Ni2	0.208190	0.473630	0.297100
H171	H17	0.276400	0.580700	0.473500
H181	H18	0.262100	0.472200	0.523300
C241	C24	0.253800	0.106600	0.327600
O151	O15	0.191600	0.288800	0.301900
O161	O16	0.132200	0.418700	0.114500
O171	O17	0.215200	0.653200	0.299700
O181	O18	0.993200	0.414500	0.293300
C251	C25	0.112100	0.020300	0.310400
C261	C26	0.360000	0.060400	0.314700
H191	H19	0.076400	0.351200	0.063500
H201	H20	0.219600	0.438100	0.114500
C271	C27	0.068200	0.888000	0.278700
H211	H21	0.043500	0.052200	0.320600
C281	C28	0.317500	0.929100	0.284800
C291	C29	0.512700	0.144000	0.329700
O191	O19	0.835900	0.409100	0.061800
O201	O20	0.073500	0.660100	0.118400
C301	C30	0.916000	0.802000	0.267000
C311	C31	0.176100	0.843400	0.264100
H221	H22	0.387800	0.897300	0.278400
C321	C32	0.542700	0.237300	0.262400
C331	C33	0.631200	0.125400	0.413200
H231	H23	0.755500	0.411000	0.065500
H241	H24	0.890200	0.406400	0.130600
C341	C34	0.823300	0.704800	0.167700
C351	C35	0.857900	0.816700	0.352800
C361	C36	0.149800	0.705400	0.224800
H251	H25	0.464500	0.250500	0.206400
C371	C37	0.688200	0.312400	0.276600
H261	H26	0.612700	0.061400	0.458100
C381	C38	0.775600	0.200900	0.429800
C391	C39	0.685400	0.625800	0.158200
H271	H27	0.857400	0.694500	0.107300
C401	C40	0.718700	0.735200	0.344000
H281	H28	0.914000	0.882700	0.417500
H291	H29	0.706800	0.375100	0.230600
C411	C41	0.805800	0.292400	0.360800
H301	H30	0.853500	0.189900	0.488300
C421	C42	0.631100	0.638600	0.248200
H311	H31	0.626500	0.562800	0.091600
H321	H32	0.683700	0.745700	0.403800
C431	C43	0.962900	0.369700	0.378000
C441	C44	0.477800	0.551200	0.231200
O211	O21	0.059200	0.382500	0.480100
O221	O22	0.393800	0.498100	0.128000
Ni31	Ni3	0.500000	0.500000	0.500000
Ni41	Ni4	0.000000	0.500000	0.000000
