data_HAKCAZ_freeONLY_PM
_symmetry_space_group_name_H-M	'P1'
_cell_length_a	16.729500
_cell_length_b	18.140400
_cell_length_c	33.473900
_cell_angle_alpha	90.000000
_cell_angle_beta	90.000000
_cell_angle_gamma	117.459000
_symmetry_Int_Tables_number 1

loop_
_symmetry_equiv_pos_as_xyz
'x,y,z'

loop_
_atom_site_label
_atom_site_type_symbol
_atom_site_fract_x
_atom_site_fract_y
_atom_site_fract_z
Dy11	Dy1	0.733070	0.466150	0.250000
Dy21	Dy2	0.266930	0.533850	0.250000
Dy31	Dy3	0.266930	0.533850	0.750000
Dy41	Dy4	0.733070	0.466150	0.750000
Dy51	Dy5	0.000000	0.500000	0.283770
Dy61	Dy6	0.500000	0.500000	0.216230
Dy71	Dy7	0.000000	0.500000	0.716230
Dy81	Dy8	0.500000	0.500000	0.783770
Zn11	Zn1	0.644900	0.059940	0.000000
Zn21	Zn2	0.355100	0.940060	0.000000
Zn31	Zn3	0.415040	0.059940	0.500000
Zn41	Zn4	0.584960	0.940060	0.500000
Zn51	Zn5	0.000000	0.000000	0.500000
Zn61	Zn6	0.000000	0.000000	0.000000
H11	H1	0.820700	0.364600	0.036600
H21	H2	0.724900	0.129600	0.146600
H31	H3	0.632900	0.979600	0.145700
H41	H4	0.437400	0.759600	0.035400
H51	H5	0.882600	0.236000	0.116700
H61	H6	0.945200	0.322400	0.171100
H71	H7	0.768600	0.410000	0.159000
H81	H8	0.712700	0.331800	0.101100
H91	H9	0.451600	0.882600	0.136200
H101	H10	0.398900	0.772600	0.182300
H111	H11	0.542000	0.677400	0.127200
H121	H12	0.592900	0.786000	0.080900
H131	H13	0.901600	0.698800	0.463200
H141	H14	0.980000	0.926600	0.352600
H151	H15	0.764700	0.629800	0.353200
H161	H16	0.791000	0.727800	0.403000
H171	H17	0.021900	0.706400	0.337400
H181	H18	0.053800	0.815800	0.381500
H191	H19	0.179300	0.635400	0.036600
H201	H20	0.275100	0.870400	0.146600
H211	H21	0.367100	0.020400	0.145700
H221	H22	0.562600	0.240400	0.035400
H231	H23	0.117400	0.764000	0.116700
H241	H24	0.054800	0.677600	0.171100
H251	H25	0.231400	0.590000	0.159000
H261	H26	0.287300	0.668200	0.101100
H271	H27	0.548400	0.117400	0.136200
H281	H28	0.601100	0.227400	0.182300
H291	H29	0.458000	0.322600	0.127200
H301	H30	0.407100	0.214000	0.080900
H311	H31	0.098400	0.301200	0.463200
H321	H32	0.020000	0.073400	0.352600
H331	H33	0.235300	0.370200	0.353200
H341	H34	0.209000	0.272200	0.403000
H351	H35	0.978100	0.293600	0.337400
H361	H36	0.946200	0.184200	0.381500
H371	H37	0.543900	0.364600	0.463400
H381	H38	0.404700	0.129600	0.353400
H391	H39	0.346700	0.979600	0.354300
H401	H40	0.322200	0.759600	0.464600
H411	H41	0.353400	0.236000	0.383300
H421	H42	0.377200	0.322400	0.328900
H431	H43	0.641400	0.410000	0.341000
H441	H44	0.619100	0.331800	0.398900
H451	H45	0.431000	0.882600	0.363800
H461	H46	0.373700	0.772600	0.317700
H471	H47	0.135400	0.677400	0.372800
H481	H48	0.193100	0.786000	0.419100
H491	H49	0.797200	0.698800	0.036800
H501	H50	0.946600	0.926600	0.147400
H511	H51	0.865100	0.629800	0.146800
H521	H52	0.936800	0.727800	0.097000
H531	H53	0.684500	0.706400	0.162600
H541	H54	0.762000	0.815800	0.118500
H551	H55	0.456100	0.635400	0.463400
H561	H56	0.595300	0.870400	0.353400
H571	H57	0.653300	0.020400	0.354300
H581	H58	0.677800	0.240400	0.464600
H591	H59	0.646600	0.764000	0.383300
H601	H60	0.622800	0.677600	0.328900
H611	H61	0.358600	0.590000	0.341000
H621	H62	0.380900	0.668200	0.398900
H631	H63	0.569000	0.117400	0.363800
H641	H64	0.626300	0.227400	0.317700
H651	H65	0.864600	0.322600	0.372800
H661	H66	0.806900	0.214000	0.419100
H671	H67	0.202800	0.301200	0.036800
H681	H68	0.053400	0.073400	0.147400
H691	H69	0.134900	0.370200	0.146800
H701	H70	0.063200	0.272200	0.097000
H711	H71	0.315500	0.293600	0.162600
H721	H72	0.238000	0.184200	0.118500
H731	H73	0.179300	0.635400	0.963400
H741	H74	0.275100	0.870400	0.853400
H751	H75	0.367100	0.020400	0.854300
H761	H76	0.562600	0.240400	0.964600
H771	H77	0.117400	0.764000	0.883300
H781	H78	0.054800	0.677600	0.828900
H791	H79	0.231400	0.590000	0.841000
H801	H80	0.287300	0.668200	0.898900
H811	H81	0.548400	0.117400	0.863800
H821	H82	0.601100	0.227400	0.817700
H831	H83	0.458000	0.322600	0.872800
H841	H84	0.407100	0.214000	0.919100
H851	H85	0.098400	0.301200	0.536800
H861	H86	0.020000	0.073400	0.647400
H871	H87	0.235300	0.370200	0.646800
H881	H88	0.209000	0.272200	0.597000
H891	H89	0.978100	0.293600	0.662600
H901	H90	0.946200	0.184200	0.618500
H911	H91	0.820700	0.364600	0.963400
H921	H92	0.724900	0.129600	0.853400
H931	H93	0.632900	0.979600	0.854300
H941	H94	0.437400	0.759600	0.964600
H951	H95	0.882600	0.236000	0.883300
H961	H96	0.945200	0.322400	0.828900
H971	H97	0.768600	0.410000	0.841000
H981	H98	0.712700	0.331800	0.898900
H991	H99	0.451600	0.882600	0.863800
H1001	H100	0.398900	0.772600	0.817700
H1011	H101	0.542000	0.677400	0.872800
H1021	H102	0.592900	0.786000	0.919100
H1031	H103	0.901600	0.698800	0.536800
H1041	H104	0.980000	0.926600	0.647400
H1051	H105	0.764700	0.629800	0.646800
H1061	H106	0.791000	0.727800	0.597000
H1071	H107	0.021900	0.706400	0.662600
H1081	H108	0.053800	0.815800	0.618500
H1091	H109	0.456100	0.635400	0.536600
H1101	H110	0.595300	0.870400	0.646600
H1111	H111	0.653300	0.020400	0.645700
H1121	H112	0.677800	0.240400	0.535400
H1131	H113	0.646600	0.764000	0.616700
H1141	H114	0.622800	0.677600	0.671100
H1151	H115	0.358600	0.590000	0.659000
H1161	H116	0.380900	0.668200	0.601100
H1171	H117	0.569000	0.117400	0.636200
H1181	H118	0.626300	0.227400	0.682300
H1191	H119	0.864600	0.322600	0.627200
H1201	H120	0.806900	0.214000	0.580900
H1211	H121	0.202800	0.301200	0.963200
H1221	H122	0.053400	0.073400	0.852600
H1231	H123	0.134900	0.370200	0.853200
H1241	H124	0.063200	0.272200	0.903000
H1251	H125	0.315500	0.293600	0.837400
H1261	H126	0.238000	0.184200	0.881500
H1271	H127	0.543900	0.364600	0.536600
H1281	H128	0.404700	0.129600	0.646600
H1291	H129	0.346700	0.979600	0.645700
H1301	H130	0.322200	0.759600	0.535400
H1311	H131	0.353400	0.236000	0.616700
H1321	H132	0.377200	0.322400	0.671100
H1331	H133	0.641400	0.410000	0.659000
H1341	H134	0.619100	0.331800	0.601100
H1351	H135	0.431000	0.882600	0.636200
H1361	H136	0.373700	0.772600	0.682300
H1371	H137	0.135400	0.677400	0.627200
H1381	H138	0.193100	0.786000	0.580900
H1391	H139	0.797200	0.698800	0.963200
H1401	H140	0.946600	0.926600	0.852600
H1411	H141	0.865100	0.629800	0.853200
H1421	H142	0.936800	0.727800	0.903000
H1431	H143	0.684500	0.706400	0.837400
H1441	H144	0.762000	0.815800	0.881500
C11	C1	0.794260	0.318520	0.019950
C21	C2	0.746110	0.234420	0.032730
C31	C3	0.741660	0.207520	0.072120
C41	C4	0.699720	0.126240	0.083560
C51	C5	0.697200	0.097200	0.124300
C61	C6	0.645500	0.014600	0.123800
C71	C7	0.613840	0.990680	0.083600
C81	C8	0.557800	0.910200	0.071700
C91	C9	0.533600	0.885600	0.032100
C101	C10	0.472910	0.804020	0.018900
C111	C11	0.789400	0.271600	0.104220
C121	C12	0.860300	0.272000	0.124500
C131	C13	0.895500	0.321000	0.158100
C141	C14	0.859600	0.371400	0.171100
C151	C15	0.792000	0.375400	0.150070
C161	C16	0.756770	0.326940	0.116060
C171	C17	0.888700	0.415000	0.210100
C181	C18	0.525500	0.842800	0.104100
C191	C19	0.469400	0.841400	0.134300
C201	C20	0.438600	0.775800	0.162200
C211	C21	0.466800	0.718400	0.160300
C221	C22	0.525500	0.719600	0.129000
C231	C23	0.553400	0.782600	0.101100
C241	C24	0.436000	0.647200	0.191000
C251	C25	0.915500	0.745200	0.480200
C261	C26	0.939400	0.825600	0.468300
C271	C27	0.948500	0.852400	0.427400
C281	C28	0.976500	0.931400	0.415200
C291	C29	0.988200	0.960000	0.374900
C301	C30	0.927500	0.786000	0.396800
C311	C31	0.823700	0.666200	0.360000
C321	C32	0.838500	0.728000	0.388600
C331	C33	0.891200	0.657800	0.342100
C341	C34	0.975400	0.711600	0.350100
C351	C35	0.994400	0.776600	0.377300
C361	C36	0.870700	0.586600	0.313200
C371	C37	0.205740	0.681480	0.019950
C381	C38	0.253890	0.765580	0.032730
C391	C39	0.258340	0.792480	0.072120
C401	C40	0.300280	0.873760	0.083560
C411	C41	0.302800	0.902800	0.124300
C421	C42	0.354500	0.985400	0.123800
C431	C43	0.386160	0.009320	0.083600
C441	C44	0.442200	0.089800	0.071700
C451	C45	0.466400	0.114400	0.032100
C461	C46	0.527090	0.195980	0.018900
C471	C47	0.210600	0.728400	0.104220
C481	C48	0.139700	0.728000	0.124500
C491	C49	0.104500	0.679000	0.158100
C501	C50	0.140400	0.628600	0.171100
C511	C51	0.208000	0.624600	0.150070
C521	C52	0.243230	0.673060	0.116060
C531	C53	0.111300	0.585000	0.210100
C541	C54	0.474500	0.157200	0.104100
C551	C55	0.530600	0.158600	0.134300
C561	C56	0.561400	0.224200	0.162200
C571	C57	0.533200	0.281600	0.160300
C581	C58	0.474500	0.280400	0.129000
C591	C59	0.446600	0.217400	0.101100
C601	C60	0.564000	0.352800	0.191000
C611	C61	0.084500	0.254800	0.480200
C621	C62	0.060600	0.174400	0.468300
C631	C63	0.051500	0.147600	0.427400
C641	C64	0.023500	0.068600	0.415200
C651	C65	0.011800	0.040000	0.374900
C661	C66	0.072500	0.214000	0.396800
C671	C67	0.176300	0.333800	0.360000
C681	C68	0.161500	0.272000	0.388600
C691	C69	0.108800	0.342200	0.342100
C701	C70	0.024600	0.288400	0.350100
C711	C71	0.005600	0.223400	0.377300
C721	C72	0.129300	0.413400	0.313200
C731	C73	0.524260	0.318520	0.480050
C741	C74	0.488310	0.234420	0.467270
C751	C75	0.465860	0.207520	0.427880
C761	C76	0.426520	0.126240	0.416440
C771	C77	0.400000	0.097200	0.375700
C781	C78	0.369100	0.014600	0.376200
C791	C79	0.376840	0.990680	0.416400
C801	C80	0.352400	0.910200	0.428300
C811	C81	0.352000	0.885600	0.467900
C821	C82	0.331110	0.804020	0.481100
C831	C83	0.482200	0.271600	0.395780
C841	C84	0.411700	0.272000	0.375500
C851	C85	0.425500	0.321000	0.341900
C861	C86	0.511800	0.371400	0.328900
C871	C87	0.583400	0.375400	0.349930
C881	C88	0.570170	0.326940	0.383940
C891	C89	0.526300	0.415000	0.289900
C901	C90	0.317300	0.842800	0.395900
C911	C91	0.372000	0.841400	0.365700
C921	C92	0.337200	0.775800	0.337800
C931	C93	0.251600	0.718400	0.339700
C941	C94	0.194100	0.719600	0.371000
C951	C95	0.229200	0.782600	0.398900
C961	C96	0.211200	0.647200	0.309000
C971	C97	0.829700	0.745200	0.019800
C981	C98	0.886200	0.825600	0.031700
C991	C99	0.903900	0.852400	0.072600
C1001	C100	0.954900	0.931400	0.084800
C1011	C101	0.971800	0.960000	0.125100
C1021	C102	0.858500	0.786000	0.103200
C1031	C103	0.842500	0.666200	0.140000
C1041	C104	0.889500	0.728000	0.111400
C1051	C105	0.766600	0.657800	0.157900
C1061	C106	0.736200	0.711600	0.149900
C1071	C107	0.782200	0.776600	0.122700
C1081	C108	0.715900	0.586600	0.186800
C1091	C109	0.475740	0.681480	0.480050
C1101	C110	0.511690	0.765580	0.467270
C1111	C111	0.534140	0.792480	0.427880
C1121	C112	0.573480	0.873760	0.416440
C1131	C113	0.600000	0.902800	0.375700
C1141	C114	0.630900	0.985400	0.376200
C1151	C115	0.623160	0.009320	0.416400
C1161	C116	0.647600	0.089800	0.428300
C1171	C117	0.648000	0.114400	0.467900
C1181	C118	0.668890	0.195980	0.481100
C1191	C119	0.517800	0.728400	0.395780
C1201	C120	0.588300	0.728000	0.375500
C1211	C121	0.574500	0.679000	0.341900
C1221	C122	0.488200	0.628600	0.328900
C1231	C123	0.416600	0.624600	0.349930
C1241	C124	0.429830	0.673060	0.383940
C1251	C125	0.473700	0.585000	0.289900
C1261	C126	0.682700	0.157200	0.395900
C1271	C127	0.628000	0.158600	0.365700
C1281	C128	0.662800	0.224200	0.337800
C1291	C129	0.748400	0.281600	0.339700
C1301	C130	0.805900	0.280400	0.371000
C1311	C131	0.770800	0.217400	0.398900
C1321	C132	0.788800	0.352800	0.309000
C1331	C133	0.170300	0.254800	0.019800
C1341	C134	0.113800	0.174400	0.031700
C1351	C135	0.096100	0.147600	0.072600
C1361	C136	0.045100	0.068600	0.084800
C1371	C137	0.028200	0.040000	0.125100
C1381	C138	0.141500	0.214000	0.103200
C1391	C139	0.157500	0.333800	0.140000
C1401	C140	0.110500	0.272000	0.111400
C1411	C141	0.233400	0.342200	0.157900
C1421	C142	0.263800	0.288400	0.149900
C1431	C143	0.217800	0.223400	0.122700
C1441	C144	0.284100	0.413400	0.186800
C1451	C145	0.205740	0.681480	0.980050
C1461	C146	0.253890	0.765580	0.967270
C1471	C147	0.258340	0.792480	0.927880
C1481	C148	0.300280	0.873760	0.916440
C1491	C149	0.302800	0.902800	0.875700
C1501	C150	0.354500	0.985400	0.876200
C1511	C151	0.386160	0.009320	0.916400
C1521	C152	0.442200	0.089800	0.928300
C1531	C153	0.466400	0.114400	0.967900
C1541	C154	0.527090	0.195980	0.981100
C1551	C155	0.210600	0.728400	0.895780
C1561	C156	0.139700	0.728000	0.875500
C1571	C157	0.104500	0.679000	0.841900
C1581	C158	0.140400	0.628600	0.828900
C1591	C159	0.208000	0.624600	0.849930
C1601	C160	0.243230	0.673060	0.883940
C1611	C161	0.111300	0.585000	0.789900
C1621	C162	0.474500	0.157200	0.895900
C1631	C163	0.530600	0.158600	0.865700
C1641	C164	0.561400	0.224200	0.837800
C1651	C165	0.533200	0.281600	0.839700
C1661	C166	0.474500	0.280400	0.871000
C1671	C167	0.446600	0.217400	0.898900
C1681	C168	0.564000	0.352800	0.809000
C1691	C169	0.084500	0.254800	0.519800
C1701	C170	0.060600	0.174400	0.531700
C1711	C171	0.051500	0.147600	0.572600
C1721	C172	0.023500	0.068600	0.584800
C1731	C173	0.011800	0.040000	0.625100
C1741	C174	0.072500	0.214000	0.603200
C1751	C175	0.176300	0.333800	0.640000
C1761	C176	0.161500	0.272000	0.611400
C1771	C177	0.108800	0.342200	0.657900
C1781	C178	0.024600	0.288400	0.649900
C1791	C179	0.005600	0.223400	0.622700
C1801	C180	0.129300	0.413400	0.686800
C1811	C181	0.794260	0.318520	0.980050
C1821	C182	0.746110	0.234420	0.967270
C1831	C183	0.741660	0.207520	0.927880
C1841	C184	0.699720	0.126240	0.916440
C1851	C185	0.697200	0.097200	0.875700
C1861	C186	0.645500	0.014600	0.876200
C1871	C187	0.613840	0.990680	0.916400
C1881	C188	0.557800	0.910200	0.928300
C1891	C189	0.533600	0.885600	0.967900
C1901	C190	0.472910	0.804020	0.981100
C1911	C191	0.789400	0.271600	0.895780
C1921	C192	0.860300	0.272000	0.875500
C1931	C193	0.895500	0.321000	0.841900
C1941	C194	0.859600	0.371400	0.828900
C1951	C195	0.792000	0.375400	0.849930
C1961	C196	0.756770	0.326940	0.883940
C1971	C197	0.888700	0.415000	0.789900
C1981	C198	0.525500	0.842800	0.895900
C1991	C199	0.469400	0.841400	0.865700
C2001	C200	0.438600	0.775800	0.837800
C2011	C201	0.466800	0.718400	0.839700
C2021	C202	0.525500	0.719600	0.871000
C2031	C203	0.553400	0.782600	0.898900
C2041	C204	0.436000	0.647200	0.809000
C2051	C205	0.915500	0.745200	0.519800
C2061	C206	0.939400	0.825600	0.531700
C2071	C207	0.948500	0.852400	0.572600
C2081	C208	0.976500	0.931400	0.584800
C2091	C209	0.988200	0.960000	0.625100
C2101	C210	0.927500	0.786000	0.603200
C2111	C211	0.823700	0.666200	0.640000
C2121	C212	0.838500	0.728000	0.611400
C2131	C213	0.891200	0.657800	0.657900
C2141	C214	0.975400	0.711600	0.649900
C2151	C215	0.994400	0.776600	0.622700
C2161	C216	0.870700	0.586600	0.686800
C2171	C217	0.475740	0.681480	0.519950
C2181	C218	0.511690	0.765580	0.532730
C2191	C219	0.534140	0.792480	0.572120
C2201	C220	0.573480	0.873760	0.583560
C2211	C221	0.600000	0.902800	0.624300
C2221	C222	0.630900	0.985400	0.623800
C2231	C223	0.623160	0.009320	0.583600
C2241	C224	0.647600	0.089800	0.571700
C2251	C225	0.648000	0.114400	0.532100
C2261	C226	0.668890	0.195980	0.518900
C2271	C227	0.517800	0.728400	0.604220
C2281	C228	0.588300	0.728000	0.624500
C2291	C229	0.574500	0.679000	0.658100
C2301	C230	0.488200	0.628600	0.671100
C2311	C231	0.416600	0.624600	0.650070
C2321	C232	0.429830	0.673060	0.616060
C2331	C233	0.473700	0.585000	0.710100
C2341	C234	0.682700	0.157200	0.604100
C2351	C235	0.628000	0.158600	0.634300
C2361	C236	0.662800	0.224200	0.662200
C2371	C237	0.748400	0.281600	0.660300
C2381	C238	0.805900	0.280400	0.629000
C2391	C239	0.770800	0.217400	0.601100
C2401	C240	0.788800	0.352800	0.691000
C2411	C241	0.170300	0.254800	0.980200
C2421	C242	0.113800	0.174400	0.968300
C2431	C243	0.096100	0.147600	0.927400
C2441	C244	0.045100	0.068600	0.915200
C2451	C245	0.028200	0.040000	0.874900
C2461	C246	0.141500	0.214000	0.896800
C2471	C247	0.157500	0.333800	0.860000
C2481	C248	0.110500	0.272000	0.888600
C2491	C249	0.233400	0.342200	0.842100
C2501	C250	0.263800	0.288400	0.850100
C2511	C251	0.217800	0.223400	0.877300
C2521	C252	0.284100	0.413400	0.813200
C2531	C253	0.524260	0.318520	0.519950
C2541	C254	0.488310	0.234420	0.532730
C2551	C255	0.465860	0.207520	0.572120
C2561	C256	0.426520	0.126240	0.583560
C2571	C257	0.400000	0.097200	0.624300
C2581	C258	0.369100	0.014600	0.623800
C2591	C259	0.376840	0.990680	0.583600
C2601	C260	0.352400	0.910200	0.571700
C2611	C261	0.352000	0.885600	0.532100
C2621	C262	0.331110	0.804020	0.518900
C2631	C263	0.482200	0.271600	0.604220
C2641	C264	0.411700	0.272000	0.624500
C2651	C265	0.425500	0.321000	0.658100
C2661	C266	0.511800	0.371400	0.671100
C2671	C267	0.583400	0.375400	0.650070
C2681	C268	0.570170	0.326940	0.616060
C2691	C269	0.526300	0.415000	0.710100
C2701	C270	0.317300	0.842800	0.604100
C2711	C271	0.372000	0.841400	0.634300
C2721	C272	0.337200	0.775800	0.662200
C2731	C273	0.251600	0.718400	0.660300
C2741	C274	0.194100	0.719600	0.629000
C2751	C275	0.229200	0.782600	0.601100
C2761	C276	0.211200	0.647200	0.691000
C2771	C277	0.829700	0.745200	0.980200
C2781	C278	0.886200	0.825600	0.968300
C2791	C279	0.903900	0.852400	0.927400
C2801	C280	0.954900	0.931400	0.915200
C2811	C281	0.971800	0.960000	0.874900
C2821	C282	0.858500	0.786000	0.896800
C2831	C283	0.842500	0.666200	0.860000
C2841	C284	0.889500	0.728000	0.888600
C2851	C285	0.766600	0.657800	0.842100
C2861	C286	0.736200	0.711600	0.850100
C2871	C287	0.782200	0.776600	0.877300
C2881	C288	0.715900	0.586600	0.813200
N11	N1	0.649070	0.058740	0.058410
N21	N2	0.350930	0.941260	0.058410
N31	N3	0.409670	0.058740	0.441590
N41	N4	0.590330	0.941260	0.441590
N51	N5	0.350930	0.941260	0.941590
N61	N6	0.649070	0.058740	0.941590
N71	N7	0.590330	0.941260	0.558410
N81	N8	0.409670	0.058740	0.558410
N91	N9	0.716800	0.182200	0.000000
N101	N10	0.567900	0.939000	0.000000
N111	N11	0.283200	0.817800	0.000000
N121	N12	0.432100	0.061000	0.000000
N131	N13	0.465400	0.182200	0.500000
N141	N14	0.371100	0.939000	0.500000
N151	N15	0.534600	0.817800	0.500000
N161	N16	0.628900	0.061000	0.500000
N171	N17	0.957400	0.877400	0.500000
N181	N18	0.042600	0.122600	0.500000
N191	N19	0.920000	0.877400	0.000000
N201	N20	0.080000	0.122600	0.000000
N211	N21	0.000000	0.000000	0.440300
N221	N22	0.000000	0.000000	0.059700
N231	N23	0.000000	0.000000	0.559700
N241	N24	0.000000	0.000000	0.940300
O11	O1	0.853510	0.458020	0.223580
O21	O2	0.953800	0.410800	0.228490
O31	O3	0.369200	0.637800	0.212200
O41	O4	0.479750	0.607100	0.192880
O51	O5	0.935190	0.580180	0.298970
O61	O6	0.786600	0.555200	0.297000
O71	O7	0.146490	0.541980	0.223580
O81	O8	0.046200	0.589200	0.228490
O91	O9	0.630800	0.362200	0.212200
O101	O10	0.520250	0.392900	0.192880
O111	O11	0.064810	0.419820	0.298970
O121	O12	0.213400	0.444800	0.297000
O131	O13	0.604510	0.458020	0.276420
O141	O14	0.457000	0.410800	0.271510
O151	O15	0.268600	0.637800	0.287800
O161	O16	0.127350	0.607100	0.307120
O171	O17	0.644990	0.580180	0.201030
O181	O18	0.768600	0.555200	0.203000
O191	O19	0.395490	0.541980	0.276420
O201	O20	0.543000	0.589200	0.271510
O211	O21	0.731400	0.362200	0.287800
O221	O22	0.872650	0.392900	0.307120
O231	O23	0.355010	0.419820	0.201030
O241	O24	0.231400	0.444800	0.203000
O251	O25	0.146490	0.541980	0.776420
O261	O26	0.046200	0.589200	0.771510
O271	O27	0.630800	0.362200	0.787800
O281	O28	0.520250	0.392900	0.807120
O291	O29	0.064810	0.419820	0.701030
O301	O30	0.213400	0.444800	0.703000
O311	O31	0.853510	0.458020	0.776420
O321	O32	0.953800	0.410800	0.771510
O331	O33	0.369200	0.637800	0.787800
O341	O34	0.479750	0.607100	0.807120
O351	O35	0.935190	0.580180	0.701030
O361	O36	0.786600	0.555200	0.703000
O371	O37	0.395490	0.541980	0.723580
O381	O38	0.543000	0.589200	0.728490
O391	O39	0.731400	0.362200	0.712200
O401	O40	0.872650	0.392900	0.692880
O411	O41	0.355010	0.419820	0.798970
O421	O42	0.231400	0.444800	0.797000
O431	O43	0.604510	0.458020	0.723580
O441	O44	0.457000	0.410800	0.728490
O451	O45	0.268600	0.637800	0.712200
O461	O46	0.127350	0.607100	0.692880
O471	O47	0.644990	0.580180	0.798970
O481	O48	0.768600	0.555200	0.797000
O491	O49	0.000000	0.500000	0.355100
O501	O50	0.500000	0.500000	0.144900
O511	O51	0.000000	0.500000	0.644900
O521	O52	0.500000	0.500000	0.855100
