data_HAKCIG_freeONLY_PM
_symmetry_space_group_name_H-M	'P1'
_cell_length_a	14.652400
_cell_length_b	15.591100
_cell_length_c	15.591100
_cell_angle_alpha	106.104000
_cell_angle_beta	94.584500
_cell_angle_gamma	85.415500
_symmetry_Int_Tables_number 1

loop_
_symmetry_equiv_pos_as_xyz
'x,y,z'

loop_
_atom_site_label
_atom_site_type_symbol
_atom_site_fract_x
_atom_site_fract_y
_atom_site_fract_z
Cu11	Cu1	0.021880	0.248170	0.644430
Cu21	Cu2	0.478120	0.644430	0.248170
Cu31	Cu3	0.978120	0.751830	0.355570
Cu41	Cu4	0.521880	0.355570	0.751830
Cu51	Cu5	0.750000	0.141030	0.141030
Cu61	Cu6	0.250000	0.858970	0.858970
H11	H1	0.189500	0.492900	0.558900
H21	H2	0.031900	0.310000	0.273200
H31	H3	0.933400	0.226300	0.165300
H41	H4	0.780600	0.193600	0.348000
H51	H5	0.873500	0.277900	0.461700
H61	H6	0.060200	0.035700	0.354500
H71	H7	0.236600	0.196300	0.695100
H81	H8	0.362600	0.263900	0.774300
H91	H9	0.447100	0.308900	0.558700
H101	H10	0.321800	0.243700	0.473500
H111	H11	0.619800	0.848200	0.011000
H121	H12	0.581300	0.030000	0.782000
H131	H13	0.553400	0.143200	0.711600
H141	H14	0.566900	0.326900	0.941100
H151	H15	0.597900	0.219900	0.018700
H161	H16	0.310500	0.558900	0.492900
H171	H17	0.468100	0.273200	0.310000
H181	H18	0.566600	0.165300	0.226300
H191	H19	0.719400	0.348000	0.193600
H201	H20	0.626500	0.461700	0.277900
H211	H21	0.439800	0.354500	0.035700
H221	H22	0.263400	0.695100	0.196300
H231	H23	0.137400	0.774300	0.263900
H241	H24	0.052900	0.558700	0.308900
H251	H25	0.178200	0.473500	0.243700
H261	H26	0.880200	0.011000	0.848200
H271	H27	0.918700	0.782000	0.030000
H281	H28	0.946600	0.711600	0.143200
H291	H29	0.933100	0.941100	0.326900
H301	H30	0.902100	0.018700	0.219900
H311	H31	0.810500	0.507100	0.441100
H321	H32	0.968100	0.690000	0.726800
H331	H33	0.066600	0.773700	0.834700
H341	H34	0.219400	0.806400	0.652000
H351	H35	0.126500	0.722100	0.538300
H361	H36	0.939800	0.964300	0.645500
H371	H37	0.763400	0.803700	0.304900
H381	H38	0.637400	0.736100	0.225700
H391	H39	0.552900	0.691100	0.441300
H401	H40	0.678200	0.756300	0.526500
H411	H41	0.380200	0.151800	0.989000
H421	H42	0.418700	0.970000	0.218000
H431	H43	0.446600	0.856800	0.288400
H441	H44	0.433100	0.673100	0.058900
H451	H45	0.402100	0.780100	0.981300
H461	H46	0.689500	0.441100	0.507100
H471	H47	0.531900	0.726800	0.690000
H481	H48	0.433400	0.834700	0.773700
H491	H49	0.280600	0.652000	0.806400
H501	H50	0.373500	0.538300	0.722100
H511	H51	0.560200	0.645500	0.964300
H521	H52	0.736600	0.304900	0.803700
H531	H53	0.862600	0.225700	0.736100
H541	H54	0.947100	0.441300	0.691100
H551	H55	0.821800	0.526500	0.756300
H561	H56	0.119800	0.989000	0.151800
H571	H57	0.081300	0.218000	0.970000
H581	H58	0.053400	0.288400	0.856800
H591	H59	0.066900	0.058900	0.673100
H601	H60	0.097900	0.981300	0.780100
C11	C1	0.136600	0.400070	0.672930
C21	C2	0.106700	0.401320	0.578880
C31	C3	0.144100	0.451280	0.534120
C41	C4	0.028500	0.354030	0.449770
C51	C5	0.965100	0.303200	0.380000
C61	C6	0.980600	0.286830	0.290570
C71	C7	0.921400	0.236700	0.226500
C81	C8	0.832500	0.217970	0.332830
C91	C9	0.887700	0.267710	0.401090
C101	C10	0.951600	0.110780	0.504020
C111	C11	0.048200	0.114960	0.482500
C121	C12	0.089400	0.073870	0.405930
C131	C13	0.187500	0.165850	0.521710
C141	C14	0.265300	0.211580	0.575280
C151	C15	0.279200	0.219190	0.665450
C161	C16	0.354200	0.259580	0.712260
C171	C17	0.403100	0.285930	0.586670
C181	C18	0.329200	0.246720	0.535280
C191	C19	0.687100	0.983440	0.159760
C201	C20	0.650900	0.978770	0.065630
C211	C21	0.621000	0.906180	0.002620
C221	C22	0.612600	0.043190	0.956210
C231	C23	0.593700	0.112500	0.908700
C241	C24	0.579400	0.090770	0.816430
C251	C25	0.562200	0.158980	0.775020
C261	C26	0.570400	0.265670	0.908290
C271	C27	0.588800	0.202220	0.955380
C281	C28	0.363400	0.672930	0.400070
C291	C29	0.393300	0.578880	0.401320
C301	C30	0.355900	0.534120	0.451280
C311	C31	0.471500	0.449770	0.354030
C321	C32	0.534900	0.380000	0.303200
C331	C33	0.519400	0.290570	0.286830
C341	C34	0.578600	0.226500	0.236700
C351	C35	0.667500	0.332830	0.217970
C361	C36	0.612300	0.401090	0.267710
C371	C37	0.548400	0.504020	0.110780
C381	C38	0.451800	0.482500	0.114960
C391	C39	0.410600	0.405930	0.073870
C401	C40	0.312500	0.521710	0.165850
C411	C41	0.234700	0.575280	0.211580
C421	C42	0.220800	0.665450	0.219190
C431	C43	0.145800	0.712260	0.259580
C441	C44	0.096900	0.586670	0.285930
C451	C45	0.170800	0.535280	0.246720
C461	C46	0.812900	0.159760	0.983440
C471	C47	0.849100	0.065630	0.978770
C481	C48	0.879000	0.002620	0.906180
C491	C49	0.887400	0.956210	0.043190
C501	C50	0.906300	0.908700	0.112500
C511	C51	0.920600	0.816430	0.090770
C521	C52	0.937800	0.775020	0.158980
C531	C53	0.929600	0.908290	0.265670
C541	C54	0.911200	0.955380	0.202220
C551	C55	0.863400	0.599930	0.327070
C561	C56	0.893300	0.598680	0.421120
C571	C57	0.855900	0.548720	0.465880
C581	C58	0.971500	0.645970	0.550230
C591	C59	0.034900	0.696800	0.620000
C601	C60	0.019400	0.713170	0.709430
C611	C61	0.078600	0.763300	0.773500
C621	C62	0.167500	0.782030	0.667170
C631	C63	0.112300	0.732290	0.598910
C641	C64	0.048400	0.889220	0.495980
C651	C65	0.951800	0.885040	0.517500
C661	C66	0.910600	0.926130	0.594070
C671	C67	0.812500	0.834150	0.478290
C681	C68	0.734700	0.788420	0.424720
C691	C69	0.720800	0.780810	0.334550
C701	C70	0.645800	0.740420	0.287740
C711	C71	0.596900	0.714070	0.413330
C721	C72	0.670800	0.753280	0.464720
C731	C73	0.312900	0.016560	0.840240
C741	C74	0.349100	0.021230	0.934370
C751	C75	0.379000	0.093820	0.997380
C761	C76	0.387400	0.956810	0.043790
C771	C77	0.406300	0.887500	0.091300
C781	C78	0.420600	0.909230	0.183570
C791	C79	0.437800	0.841020	0.224980
C801	C80	0.429600	0.734330	0.091710
C811	C81	0.411200	0.797780	0.044620
C821	C82	0.636600	0.327070	0.599930
C831	C83	0.606700	0.421120	0.598680
C841	C84	0.644100	0.465880	0.548720
C851	C85	0.528500	0.550230	0.645970
C861	C86	0.465100	0.620000	0.696800
C871	C87	0.480600	0.709430	0.713170
C881	C88	0.421400	0.773500	0.763300
C891	C89	0.332500	0.667170	0.782030
C901	C90	0.387700	0.598910	0.732290
C911	C91	0.451600	0.495980	0.889220
C921	C92	0.548200	0.517500	0.885040
C931	C93	0.589400	0.594070	0.926130
C941	C94	0.687500	0.478290	0.834150
C951	C95	0.765300	0.424720	0.788420
C961	C96	0.779200	0.334550	0.780810
C971	C97	0.854200	0.287740	0.740420
C981	C98	0.903100	0.413330	0.714070
C991	C99	0.829200	0.464720	0.753280
C1001	C100	0.187100	0.840240	0.016560
C1011	C101	0.150900	0.934370	0.021230
C1021	C102	0.121000	0.997380	0.093820
C1031	C103	0.112600	0.043790	0.956810
C1041	C104	0.093700	0.091300	0.887500
C1051	C105	0.079400	0.183570	0.909230
C1061	C106	0.062200	0.224980	0.841020
C1071	C107	0.070400	0.091710	0.734330
C1081	C108	0.088800	0.044620	0.797780
S11	S1	0.098420	0.429120	0.427260
S21	S2	0.200630	0.100030	0.414350
S31	S3	0.585970	0.933840	0.906520
S41	S4	0.401580	0.427260	0.429120
S51	S5	0.299370	0.414350	0.100030
S61	S6	0.914030	0.906520	0.933840
S71	S7	0.901580	0.570880	0.572740
S81	S8	0.799370	0.899970	0.585650
S91	S9	0.414030	0.066160	0.093480
S101	S10	0.598420	0.572740	0.570880
S111	S11	0.700630	0.585650	0.899970
S121	S12	0.085970	0.093480	0.066160
N11	N1	0.039500	0.347310	0.530910
N21	N2	0.848000	0.202060	0.246080
N31	N3	0.103900	0.167490	0.548510
N41	N4	0.416100	0.293150	0.674690
N51	N5	0.646000	0.056300	0.039260
N61	N6	0.557270	0.245520	0.819360
N71	N7	0.460500	0.530910	0.347310
N81	N8	0.652000	0.246080	0.202060
N91	N9	0.396100	0.548510	0.167490
N101	N10	0.083900	0.674690	0.293150
N111	N11	0.854000	0.039260	0.056300
N121	N12	0.942730	0.819360	0.245520
N131	N13	0.960500	0.652690	0.469090
N141	N14	0.152000	0.797940	0.753920
N151	N15	0.896100	0.832510	0.451490
N161	N16	0.583900	0.706850	0.325310
N171	N17	0.354000	0.943700	0.960740
N181	N18	0.442730	0.754480	0.180640
N191	N19	0.539500	0.469090	0.652690
N201	N20	0.348000	0.753920	0.797940
N211	N21	0.603900	0.451490	0.832510
N221	N22	0.916100	0.325310	0.706850
N231	N23	0.146000	0.960740	0.943700
N241	N24	0.057270	0.180640	0.754480
O11	O1	0.106100	0.341690	0.703290
O21	O2	0.190960	0.455430	0.714430
O31	O3	0.930420	0.163370	0.579390
O41	O4	0.899910	0.060260	0.450980
O51	O5	0.718300	0.058010	0.204490
O61	O6	0.684730	0.917570	0.189270
O71	O7	0.393900	0.703290	0.341690
O81	O8	0.309040	0.714430	0.455430
O91	O9	0.569580	0.579390	0.163370
O101	O10	0.600090	0.450980	0.060260
O111	O11	0.781700	0.204490	0.058010
O121	O12	0.815270	0.189270	0.917570
O131	O13	0.893900	0.658310	0.296710
O141	O14	0.809040	0.544570	0.285570
O151	O15	0.069580	0.836630	0.420610
O161	O16	0.100090	0.939740	0.549020
O171	O17	0.281700	0.941990	0.795510
O181	O18	0.315270	0.082430	0.810730
O191	O19	0.606100	0.296710	0.658310
O201	O20	0.690960	0.285570	0.544570
O211	O21	0.430420	0.420610	0.836630
O221	O22	0.399910	0.549020	0.939740
O231	O23	0.218300	0.795510	0.941990
O241	O24	0.184730	0.810730	0.082430
