data_HALQUJ_freeONLY_PM
_symmetry_space_group_name_H-M	'P1'
_cell_length_a	17.872900
_cell_length_b	8.729800
_cell_length_c	22.752400
_cell_angle_alpha	90.000000
_cell_angle_beta	96.072000
_cell_angle_gamma	90.000000
_symmetry_Int_Tables_number 1

loop_
_symmetry_equiv_pos_as_xyz
'x,y,z'

loop_
_atom_site_label
_atom_site_type_symbol
_atom_site_fract_x
_atom_site_fract_y
_atom_site_fract_z
Cu11	Cu1	0.567450	0.037550	0.755200
N11	N1	0.633000	0.965000	0.688800
N21	N2	0.750100	0.755500	0.516650
H11	H1	0.702900	0.773600	0.507800
N31	N3	0.649300	0.514900	0.325950
N41	N4	0.925700	0.855300	0.685800
N51	N5	0.936400	0.498500	0.416600
N61	N6	0.498400	0.355000	0.742300
C11	C1	0.689000	0.053500	0.673700
H21	H2	0.693400	0.151900	0.689400
C21	C2	0.740800	0.006800	0.636000
H31	H3	0.779300	0.071700	0.627100
C31	C3	0.733800	0.862500	0.612100
C41	C4	0.675400	0.769600	0.626600
H41	H4	0.668900	0.672100	0.610500
C51	C5	0.627100	0.824600	0.665500
H51	H5	0.588900	0.760900	0.675800
C61	C6	0.785500	0.803700	0.570000
C71	C7	0.860200	0.793000	0.582600
C81	C8	0.913000	0.739700	0.537600
H61	H6	0.948100	0.663900	0.556600
C91	C9	0.865000	0.662800	0.486700
C101	C10	0.789700	0.678600	0.477300
C111	C11	0.709100	0.601400	0.320600
H71	H7	0.719600	0.627800	0.282700
C121	C12	0.757200	0.655000	0.368000
H81	H8	0.798600	0.715200	0.361900
C131	C13	0.742000	0.616800	0.424900
C141	C14	0.679800	0.525300	0.431400
H91	H9	0.667800	0.498500	0.468900
C151	C15	0.636000	0.474600	0.381500
H101	H10	0.595600	0.410100	0.386100
C161	C16	0.895400	0.829200	0.640200
C171	C17	0.903100	0.570500	0.447300
C181	C18	0.958100	0.874600	0.517100
C191	C19	0.924500	0.983100	0.478800
H111	H11	0.874100	0.973000	0.464400
C201	C20	0.966200	0.108600	0.461500
H121	H12	0.943200	0.181100	0.435600
C211	C21	0.527600	0.236900	0.747800
Cu21	Cu2	0.432550	0.537550	0.744800
N71	N7	0.367000	0.465000	0.811200
N81	N8	0.249900	0.255500	0.983350
H131	H13	0.297100	0.273600	0.992200
N91	N9	0.350700	0.014900	0.174050
N101	N10	0.074300	0.355300	0.814200
N111	N11	0.063600	0.998500	0.083400
N121	N12	0.501600	0.855000	0.757700
C221	C22	0.311000	0.553500	0.826300
H141	H14	0.306600	0.651900	0.810600
C231	C23	0.259200	0.506800	0.864000
H151	H15	0.220700	0.571700	0.872900
C241	C24	0.266200	0.362500	0.887900
C251	C25	0.324600	0.269600	0.873400
H161	H16	0.331100	0.172100	0.889500
C261	C26	0.372900	0.324600	0.834500
H171	H17	0.411100	0.260900	0.824200
C271	C27	0.214500	0.303700	0.930000
C281	C28	0.139800	0.293000	0.917400
C291	C29	0.087000	0.239700	0.962400
H181	H18	0.051900	0.163900	0.943400
C301	C30	0.135000	0.162800	0.013300
C311	C31	0.210300	0.178600	0.022700
C321	C32	0.290900	0.101400	0.179400
H191	H19	0.280400	0.127800	0.217300
C331	C33	0.242800	0.155000	0.132000
H201	H20	0.201400	0.215200	0.138100
C341	C34	0.258000	0.116800	0.075100
C351	C35	0.320200	0.025300	0.068600
H211	H21	0.332200	0.998500	0.031100
C361	C36	0.364000	0.974600	0.118500
H221	H22	0.404400	0.910100	0.113900
C371	C37	0.104600	0.329200	0.859800
C381	C38	0.096900	0.070500	0.052700
C391	C39	0.041900	0.374600	0.982900
C401	C40	0.075500	0.483100	0.021200
H231	H23	0.125900	0.473000	0.035600
C411	C41	0.033800	0.608600	0.038500
H241	H24	0.056800	0.681100	0.064400
C421	C42	0.472400	0.736900	0.752200
Cu31	Cu3	0.432550	0.962450	0.244800
N131	N13	0.367000	0.035000	0.311200
N141	N14	0.249900	0.244500	0.483350
H251	H25	0.297100	0.226400	0.492200
N151	N15	0.350700	0.485100	0.674050
N161	N16	0.074300	0.144700	0.314200
N171	N17	0.063600	0.501500	0.583400
N181	N18	0.501600	0.645000	0.257700
C431	C43	0.311000	0.946500	0.326300
H261	H26	0.306600	0.848100	0.310600
C441	C44	0.259200	0.993200	0.364000
H271	H27	0.220700	0.928300	0.372900
C451	C45	0.266200	0.137500	0.387900
C461	C46	0.324600	0.230400	0.373400
H281	H28	0.331100	0.327900	0.389500
C471	C47	0.372900	0.175400	0.334500
H291	H29	0.411100	0.239100	0.324200
C481	C48	0.214500	0.196300	0.430000
C491	C49	0.139800	0.207000	0.417400
C501	C50	0.087000	0.260300	0.462400
H301	H30	0.051900	0.336100	0.443400
C511	C51	0.135000	0.337200	0.513300
C521	C52	0.210300	0.321400	0.522700
C531	C53	0.290900	0.398600	0.679400
H311	H31	0.280400	0.372200	0.717300
C541	C54	0.242800	0.345000	0.632000
H321	H32	0.201400	0.284800	0.638100
C551	C55	0.258000	0.383200	0.575100
C561	C56	0.320200	0.474700	0.568600
H331	H33	0.332200	0.501500	0.531100
C571	C57	0.364000	0.525400	0.618500
H341	H34	0.404400	0.589900	0.613900
C581	C58	0.104600	0.170800	0.359800
C591	C59	0.096900	0.429500	0.552700
C601	C60	0.041900	0.125400	0.482900
C611	C61	0.075500	0.016900	0.521200
H351	H35	0.125900	0.027000	0.535600
C621	C62	0.033800	0.891400	0.538500
H361	H36	0.056800	0.818900	0.564400
C631	C63	0.472400	0.763100	0.252200
Cu41	Cu4	0.567450	0.462450	0.255200
N191	N19	0.633000	0.535000	0.188800
N201	N20	0.750100	0.744500	0.016650
H371	H37	0.702900	0.726400	0.007800
N211	N21	0.649300	0.985100	0.825950
N221	N22	0.925700	0.644700	0.185800
N231	N23	0.936400	0.001500	0.916600
N241	N24	0.498400	0.145000	0.242300
C641	C64	0.689000	0.446500	0.173700
H381	H38	0.693400	0.348100	0.189400
C651	C65	0.740800	0.493200	0.136000
H391	H39	0.779300	0.428300	0.127100
C661	C66	0.733800	0.637500	0.112100
C671	C67	0.675400	0.730400	0.126600
H401	H40	0.668900	0.827900	0.110500
C681	C68	0.627100	0.675400	0.165500
H411	H41	0.588900	0.739100	0.175800
C691	C69	0.785500	0.696300	0.070000
C701	C70	0.860200	0.707000	0.082600
C711	C71	0.913000	0.760300	0.037600
H421	H42	0.948100	0.836100	0.056600
C721	C72	0.865000	0.837200	0.986700
C731	C73	0.789700	0.821400	0.977300
C741	C74	0.709100	0.898600	0.820600
H431	H43	0.719600	0.872200	0.782700
C751	C75	0.757200	0.845000	0.868000
H441	H44	0.798600	0.784800	0.861900
C761	C76	0.742000	0.883200	0.924900
C771	C77	0.679800	0.974700	0.931400
H451	H45	0.667800	0.001500	0.968900
C781	C78	0.636000	0.025400	0.881500
H461	H46	0.595600	0.089900	0.886100
C791	C79	0.895400	0.670800	0.140200
C801	C80	0.903100	0.929500	0.947300
C811	C81	0.958100	0.625400	0.017100
C821	C82	0.924500	0.516900	0.978800
H471	H47	0.874100	0.527000	0.964400
C831	C83	0.966200	0.391400	0.961500
H481	H48	0.943200	0.318900	0.935600
C841	C84	0.527600	0.263100	0.247800
