data_HAMJOW_freeONLY_PM
_symmetry_space_group_name_H-M	'P1'
_cell_length_a	13.749000
_cell_length_b	13.990000
_cell_length_c	14.073000
_cell_angle_alpha	110.538000
_cell_angle_beta	90.000000
_cell_angle_gamma	90.000000
_symmetry_Int_Tables_number 1

loop_
_symmetry_equiv_pos_as_xyz
'x,y,z'

loop_
_atom_site_label
_atom_site_type_symbol
_atom_site_fract_x
_atom_site_fract_y
_atom_site_fract_z
Zn11	Zn1	0.058300	0.904920	0.957270
Zn21	Zn2	0.558300	0.095080	0.542730
Zn31	Zn3	0.941700	0.095080	0.042730
Zn41	Zn4	0.441700	0.904920	0.457270
H11	H1	0.894600	0.602200	0.166600
H21	H2	0.916400	0.744500	0.119300
H31	H3	0.767500	0.003900	0.268500
H41	H4	0.700600	0.740100	0.314600
H51	H5	0.021200	0.306700	0.116600
H61	H6	0.969700	0.474200	0.177300
H71	H7	0.691800	0.373800	0.159300
H81	H8	0.749700	0.207000	0.096200
H91	H9	0.394600	0.397800	0.333400
H101	H10	0.416400	0.255500	0.380700
H111	H11	0.267500	0.996100	0.231500
H121	H12	0.200600	0.259900	0.185400
H131	H13	0.521200	0.693300	0.383400
H141	H14	0.469700	0.525800	0.322700
H151	H15	0.191800	0.626200	0.340700
H161	H16	0.249700	0.793000	0.403800
H171	H17	0.105400	0.397800	0.833400
H181	H18	0.083600	0.255500	0.880700
H191	H19	0.232500	0.996100	0.731500
H201	H20	0.299400	0.259900	0.685400
H211	H21	0.978800	0.693300	0.883400
H221	H22	0.030300	0.525800	0.822700
H231	H23	0.308200	0.626200	0.840700
H241	H24	0.250300	0.793000	0.903800
H251	H25	0.605400	0.602200	0.666600
H261	H26	0.583600	0.744500	0.619300
H271	H27	0.732500	0.003900	0.768500
H281	H28	0.799400	0.740100	0.814600
H291	H29	0.478800	0.306700	0.616600
H301	H30	0.530300	0.474200	0.677300
H311	H31	0.808200	0.373800	0.659300
H321	H32	0.750300	0.207000	0.596200
C11	C1	0.813300	0.726600	0.215200
C21	C2	0.866900	0.779000	0.165700
C31	C3	0.848800	0.882000	0.183500
C41	C4	0.777900	0.933000	0.253300
C51	C5	0.722000	0.879600	0.300900
C61	C6	0.739000	0.776200	0.282200
C71	C7	0.781800	0.549200	0.211200
C81	C8	0.953500	0.320500	0.125100
C91	C9	0.923400	0.420500	0.161300
C101	C10	0.825000	0.442400	0.174400
C111	C11	0.759700	0.361300	0.150400
C121	C12	0.794700	0.262000	0.113300
C131	C13	0.905500	0.935700	0.124200
C141	C14	0.643000	0.933300	0.375100
C151	C15	0.313300	0.273400	0.284800
C161	C16	0.366900	0.221000	0.334300
C171	C17	0.348800	0.118000	0.316500
C181	C18	0.277900	0.067000	0.246700
C191	C19	0.222000	0.120400	0.199100
C201	C20	0.239000	0.223800	0.217800
C211	C21	0.281800	0.450800	0.288800
C221	C22	0.453500	0.679500	0.374900
C231	C23	0.423400	0.579500	0.338700
C241	C24	0.325000	0.557600	0.325600
C251	C25	0.259700	0.638700	0.349600
C261	C26	0.294700	0.738000	0.386700
C271	C27	0.405500	0.064300	0.375800
C281	C28	0.143000	0.066700	0.124900
C291	C29	0.186700	0.273400	0.784800
C301	C30	0.133100	0.221000	0.834300
C311	C31	0.151200	0.118000	0.816500
C321	C32	0.222100	0.067000	0.746700
C331	C33	0.278000	0.120400	0.699100
C341	C34	0.261000	0.223800	0.717800
C351	C35	0.218200	0.450800	0.788800
C361	C36	0.046500	0.679500	0.874900
C371	C37	0.076600	0.579500	0.838700
C381	C38	0.175000	0.557600	0.825600
C391	C39	0.240300	0.638700	0.849600
C401	C40	0.205300	0.738000	0.886700
C411	C41	0.094500	0.064300	0.875800
C421	C42	0.357000	0.066700	0.624900
C431	C43	0.686700	0.726600	0.715200
C441	C44	0.633100	0.779000	0.665700
C451	C45	0.651200	0.882000	0.683500
C461	C46	0.722100	0.933000	0.753300
C471	C47	0.778000	0.879600	0.800900
C481	C48	0.761000	0.776200	0.782200
C491	C49	0.718200	0.549200	0.711200
C501	C50	0.546500	0.320500	0.625100
C511	C51	0.576600	0.420500	0.661300
C521	C52	0.675000	0.442400	0.674400
C531	C53	0.740300	0.361300	0.650400
C541	C54	0.705300	0.262000	0.613300
C551	C55	0.594500	0.935700	0.624200
C561	C56	0.857000	0.933300	0.875100
N11	N1	0.837200	0.622000	0.194000
N21	N2	0.890900	0.241000	0.101000
N31	N3	0.337200	0.378000	0.306000
N41	N4	0.390900	0.759000	0.399000
N51	N5	0.162800	0.378000	0.806000
N61	N6	0.109100	0.759000	0.899000
N71	N7	0.662800	0.622000	0.694000
N81	N8	0.609100	0.241000	0.601000
O11	O1	0.702600	0.565100	0.252600
O21	O2	0.973000	0.884500	0.069000
O31	O3	0.879700	0.024500	0.132400
O41	O4	0.657000	0.024200	0.431800
O51	O5	0.567800	0.880300	0.374400
O61	O6	0.202600	0.434900	0.247400
O71	O7	0.473000	0.115500	0.431000
O81	O8	0.379700	0.975500	0.367600
O91	O9	0.157000	0.975800	0.068200
O101	O10	0.067800	0.119700	0.125600
O111	O11	0.297400	0.434900	0.747400
O121	O12	0.027000	0.115500	0.931000
O131	O13	0.120300	0.975500	0.867600
O141	O14	0.343000	0.975800	0.568200
O151	O15	0.432200	0.119700	0.625600
O161	O16	0.797400	0.565100	0.752600
O171	O17	0.527000	0.884500	0.569000
O181	O18	0.620300	0.024500	0.632400
O191	O19	0.843000	0.024200	0.931800
O201	O20	0.932200	0.880300	0.874400
