data_HAPBEI_freeONLY_PM
_symmetry_space_group_name_H-M	'P1'
_cell_length_a	13.527000
_cell_length_b	25.847000
_cell_length_c	26.657000
_cell_angle_alpha	98.870000
_cell_angle_beta	103.892000
_cell_angle_gamma	103.725000
_symmetry_Int_Tables_number 1

loop_
_symmetry_equiv_pos_as_xyz
'x,y,z'

loop_
_atom_site_label
_atom_site_type_symbol
_atom_site_fract_x
_atom_site_fract_y
_atom_site_fract_z
Ti11	Ti1	0.516850	0.121400	0.549750
Ti21	Ti2	0.100390	0.081170	0.085260
Ti31	Ti3	0.662890	0.075590	0.491560
Ti41	Ti4	0.366420	0.035100	0.450320
Ti51	Ti5	0.383130	0.425960	0.429860
Ti61	Ti6	0.846500	0.967940	0.030290
Ti71	Ti7	0.361350	0.555520	0.503300
Ti81	Ti8	0.052950	0.963740	0.108560
Ti91	Ti9	0.292310	0.438330	0.525590
Ti101	Ti10	0.490270	0.472510	0.081360
Ti111	Ti11	0.501000	0.403250	0.949330
Ti121	Ti12	0.690820	0.457970	0.052490
Cu11	Cu1	0.672070	0.241260	0.293690
Cu21	Cu2	0.683090	0.242880	0.196200
Cu31	Cu3	0.814340	0.200750	0.255200
Cu41	Cu4	0.843580	0.304950	0.283910
I11	I1	0.870940	0.247910	0.357720
I21	I2	0.654730	0.329390	0.256210
I31	I3	0.599840	0.149570	0.220260
I41	I4	0.885920	0.263640	0.194490
P11	P1	0.289600	0.420460	0.977460
P21	P2	0.508000	0.982750	0.388600
P31	P3	0.461900	0.544400	0.404210
P41	P4	0.888500	0.085850	0.001070
C11	C1	0.937700	0.418300	0.284700
H11	H1	0.889500	0.407700	0.250100
C21	C2	0.998900	0.471600	0.303100
H21	H2	0.992900	0.496300	0.280400
C31	C3	0.072500	0.451900	0.380800
C41	C4	0.857100	0.048400	0.274700
H31	H3	0.836500	0.024900	0.296800
C51	C5	0.012200	0.399000	0.362100
H41	H4	0.019300	0.373800	0.384200
C61	C6	0.154700	0.471100	0.434300
C71	C7	0.420400	0.566300	0.344300
C81	C8	0.486400	0.582300	0.315400
H51	H5	0.558000	0.581500	0.327300
C91	C9	0.455000	0.599600	0.269800
H61	H6	0.505500	0.613300	0.252000
C101	C10	0.355000	0.597000	0.251100
H71	H7	0.332700	0.607600	0.218600
C111	C11	0.285000	0.580600	0.274800
H81	H8	0.212400	0.578700	0.259500
C121	C12	0.315600	0.564800	0.325200
H91	H9	0.265700	0.554100	0.344100
C131	C13	0.281800	0.542500	0.601300
H101	H10	0.313800	0.582500	0.604900
C141	C14	0.344700	0.529100	0.650100
H111	H11	0.321100	0.489700	0.647700
H121	H12	0.333400	0.548700	0.681700
H131	H13	0.420500	0.540100	0.652400
C151	C15	0.167600	0.535200	0.592300
H141	H14	0.129900	0.496100	0.583200
H151	H15	0.141400	0.551900	0.563100
H161	H16	0.155100	0.552800	0.624600
C161	C16	0.116000	0.376700	0.577500
H171	H17	0.073000	0.400700	0.588200
C171	C17	0.172000	0.359000	0.614000
H181	H18	0.161300	0.373300	0.648500
H191	H19	0.246800	0.372500	0.616200
H201	H20	0.149200	0.319300	0.606100
C181	C18	0.060000	0.325000	0.545000
C191	C19	0.293200	0.323600	0.468500
H211	H21	0.321000	0.313900	0.437800
C201	C20	0.357100	0.307300	0.508600
H221	H22	0.365700	0.330700	0.542900
H231	H23	0.426800	0.310700	0.502600
H241	H24	0.323700	0.269200	0.508400
C211	C21	0.176500	0.295800	0.445700
H251	H25	0.160400	0.259100	0.452900
H261	H26	0.156000	0.292900	0.407300
H271	H27	0.136700	0.317100	0.462000
C221	C22	0.265000	0.362100	0.315600
H281	H28	0.333000	0.370700	0.306100
C231	C23	0.200000	0.382200	0.283600
C241	C24	0.224000	0.300800	0.303100
C251	C25	0.223700	0.632800	0.489300
H291	H29	0.159500	0.600300	0.476500
C261	C26	0.235000	0.650300	0.442700
H301	H30	0.186400	0.672000	0.432900
H311	H31	0.219200	0.618400	0.413800
H321	H32	0.308600	0.672700	0.449200
C271	C27	0.199900	0.668500	0.527100
H331	H33	0.266000	0.696600	0.547700
H341	H34	0.170800	0.647900	0.550800
C281	C28	0.602000	0.286600	0.104400
H351	H35	0.659300	0.317900	0.123600
C291	C29	0.535200	0.288800	0.056900
C301	C30	0.446200	0.202300	0.047900
H361	H36	0.390800	0.170400	0.028000
C311	C31	0.508900	0.199400	0.095000
H371	H37	0.495300	0.166500	0.107200
C321	C32	0.556700	0.341100	0.036600
C331	C33	0.166600	0.367800	0.965000
C341	C34	0.088400	0.354400	0.916700
H381	H38	0.098200	0.374100	0.890100
C351	C35	0.996000	0.312300	0.907200
H391	H39	0.942600	0.303200	0.874200
C361	C36	0.981600	0.283500	0.946100
H401	H40	0.918400	0.254700	0.939700
C371	C37	0.059700	0.296900	0.994500
H411	H41	0.049900	0.277200	0.021000
C381	C38	0.152200	0.339000	0.003900
H421	H42	0.205600	0.348100	0.037000
C391	C39	0.392000	0.416900	0.158200
H431	H43	0.445200	0.427500	0.193900
C401	C40	0.388000	0.366300	0.153000
H441	H44	0.401000	0.357300	0.188000
H451	H45	0.442600	0.359200	0.136700
H461	H46	0.317800	0.343700	0.130400
C411	C41	0.332000	0.442400	0.175000
H471	H47	0.263400	0.433100	0.147100
H481	H48	0.365600	0.481800	0.182300
H491	H49	0.319600	0.431800	0.206800
C421	C42	0.713000	0.511000	0.166800
H501	H50	0.785600	0.521500	0.161900
C431	C43	0.702000	0.562300	0.186900
H511	H51	0.694000	0.563700	0.222600
H521	H52	0.639200	0.567900	0.163700
H531	H53	0.765400	0.591100	0.188400
C441	C44	0.722900	0.470700	0.200100
H541	H54	0.781700	0.487700	0.232500
H551	H55	0.736700	0.439300	0.180400
H561	H56	0.656600	0.458600	0.209400
C451	C45	0.912000	0.442500	0.105200
C461	C46	0.906000	0.393300	0.111000
H571	H57	0.906400	0.370700	0.078100
H581	H58	0.839600	0.378200	0.119400
H591	H59	0.966500	0.393600	0.140000
C471	C47	0.997000	0.481000	0.128000
H601	H60	0.030200	0.493400	0.101800
H611	H61	0.045500	0.468100	0.153300
H621	H62	0.979000	0.511500	0.147500
C481	C48	0.738000	0.410500	0.951300
C491	C49	0.763000	0.441400	0.920600
H631	H63	0.824100	0.472700	0.940900
H641	H64	0.702900	0.454500	0.905200
H651	H65	0.782200	0.420700	0.892100
C501	C50	0.744000	0.355000	0.947600
H661	H66	0.769200	0.344100	0.917300
H671	H67	0.672900	0.330400	0.942800
H681	H68	0.792800	0.352700	0.980300
C511	C51	0.835100	0.097300	0.278900
H691	H69	0.796400	0.106100	0.302700
C521	C52	0.918300	0.118800	0.217500
H701	H70	0.941600	0.143300	0.196700
C531	C53	0.939400	0.068300	0.212800
C541	C54	0.994500	0.052800	0.172500
C551	C55	0.815500	0.135900	0.998700
C561	C56	0.755800	0.139400	0.951700
H711	H71	0.752800	0.115400	0.920300
C571	C57	0.697500	0.178000	0.948100
H721	H72	0.654900	0.179800	0.914900
C581	C58	0.703700	0.211900	0.993100
H731	H73	0.664400	0.237900	0.991600
C591	C59	0.764000	0.209600	0.039100
H741	H74	0.767500	0.234000	0.070500
C601	C60	0.821400	0.171700	0.041800
H751	H75	0.866000	0.171300	0.075200
C611	C61	0.209600	0.194700	0.159500
H761	H76	0.184300	0.184100	0.189700
C621	C62	0.321600	0.219500	0.180400
H771	H77	0.359200	0.192500	0.172900
H781	H78	0.339700	0.233100	0.218800
H791	H79	0.342800	0.250000	0.163800
C631	C63	0.148800	0.228300	0.139000
H801	H80	0.166800	0.262600	0.165300
H811	H81	0.073000	0.209400	0.131100
H821	H82	0.164300	0.236200	0.106500
C641	C64	0.282700	0.045100	0.151800
H831	H83	0.303100	0.082200	0.144100
C651	C65	0.300200	0.063900	0.208400
H841	H84	0.291300	0.032400	0.224900
H851	H85	0.248700	0.083500	0.214000
H861	H86	0.372400	0.088400	0.224300
C661	C66	0.342800	0.024000	0.127200
H871	H87	0.417400	0.045300	0.143200
H881	H88	0.321100	0.025000	0.089600
H891	H89	0.334400	0.986100	0.130500
C671	C67	0.151000	0.911300	0.202900
H901	H90	0.223000	0.938800	0.217300
C681	C68	0.098000	0.925000	0.241500
H911	H91	0.025600	0.900300	0.230800
H921	H92	0.095000	0.962700	0.243900
H931	H93	0.136900	0.921100	0.276200
C691	C69	0.175000	0.865200	0.188800
H941	H94	0.188100	0.848200	0.219300
H951	H95	0.239400	0.873300	0.177000
H961	H96	0.116100	0.840200	0.159900
C701	C70	0.848500	0.865400	0.078500
H971	H97	0.916000	0.861000	0.100400
C711	C71	0.807000	0.867100	0.123400
H981	H98	0.739500	0.838500	0.114300
H991	H99	0.795600	0.902900	0.133100
H1001	H100	0.858000	0.861200	0.153400
C721	C72	0.844000	0.825400	0.039900
H1011	H101	0.845100	0.793000	0.054600
H1021	H102	0.907000	0.836200	0.027500
C731	C73	0.642800	0.975200	0.056000
H1031	H103	0.628500	0.997600	0.029100
C741	C74	0.549000	0.940000	0.051500
H1041	H104	0.560800	0.913400	0.073200
H1051	H105	0.515600	0.920800	0.014300
H1061	H106	0.503200	0.959900	0.063700
C751	C75	0.677000	0.012000	0.107000
H1071	H107	0.615200	0.019900	0.116000
H1081	H108	0.726600	0.046000	0.106100
H1091	H109	0.712500	0.995100	0.133700
C761	C76	0.542000	0.277300	0.360900
H1101	H110	0.535300	0.303000	0.339300
C771	C77	0.502900	0.280100	0.403800
H1111	H111	0.470200	0.307900	0.411300
C781	C78	0.557700	0.206600	0.423300
C791	C79	0.597800	0.204200	0.381200
H1121	H112	0.632500	0.176900	0.374700
C801	C80	0.569100	0.167600	0.459400
C811	C81	0.543000	0.011500	0.296400
H1131	H113	0.556800	0.048500	0.314000
C821	C82	0.549700	0.999800	0.246200
H1141	H114	0.567900	0.029000	0.229300
C831	C83	0.532100	0.949700	0.220100
H1151	H115	0.542600	0.943400	0.186000
C841	C84	0.499000	0.907500	0.241400
H1161	H116	0.477500	0.871000	0.220900
C851	C85	0.497800	0.918000	0.294700
H1171	H117	0.483700	0.888700	0.311900
C861	C86	0.230000	0.058300	0.352300
C871	C87	0.275400	0.102400	0.526700
H1181	H118	0.310000	0.119400	0.565200
C881	C88	0.252800	0.150200	0.508400
H1191	H119	0.228400	0.141700	0.469600
H1201	H120	0.317400	0.181100	0.521000
H1211	H121	0.197200	0.159800	0.522500
C891	C89	0.201300	0.056500	0.530800
H1221	H122	0.148000	0.068100	0.545400
H1231	H123	0.237600	0.036900	0.554400
H1241	H124	0.166200	0.032300	0.495700
C901	C90	0.513000	0.230000	0.622600
H1251	H125	0.435700	0.226400	0.609400
C911	C91	0.554000	0.272200	0.606200
H1261	H126	0.520200	0.300700	0.613900
H1271	H127	0.543200	0.261900	0.567900
H1281	H128	0.630700	0.286000	0.624400
C921	C92	0.527000	0.230700	0.679000
H1291	H129	0.585100	0.215700	0.692500
H1301	H130	0.460800	0.208500	0.683300
H1311	H131	0.542500	0.268400	0.698800
C931	C93	0.762300	0.159900	0.598700
H1321	H132	0.814700	0.142800	0.587400
C941	C94	0.803600	0.215000	0.592100
H1331	H133	0.750000	0.234600	0.592200
H1341	H134	0.820800	0.213100	0.558300
H1351	H135	0.868000	0.234300	0.621200
C951	C95	0.768000	0.144800	0.646700
H1361	H136	0.698600	0.138600	0.653200
H1371	H137	0.820700	0.174000	0.675200
H1381	H138	0.789900	0.111100	0.645600
C961	C96	0.857100	0.128400	0.456500
H1391	H139	0.815100	0.148300	0.434600
C971	C97	0.953500	0.168800	0.493200
H1401	H140	0.985600	0.152200	0.521200
H1411	H141	0.934600	0.200500	0.509100
H1421	H142	0.004500	0.180500	0.473600
C981	C98	0.879000	0.089400	0.422500
H1431	H143	0.955100	0.099600	0.425900
H1441	H144	0.838800	0.087100	0.385900
H1451	H145	0.858000	0.053800	0.431600
C991	C99	0.516600	0.970900	0.321800
N11	N1	0.588000	0.241800	0.123800
N21	N2	0.590800	0.238200	0.348400
N31	N3	0.943000	0.381200	0.313300
N41	N4	0.865300	0.133000	0.251300
N51	N5	0.509000	0.245100	0.435200
N61	N6	0.457000	0.246800	0.027300
N71	N7	0.908400	0.032200	0.239100
N81	N8	0.067000	0.490000	0.351900
O11	O1	0.365100	0.091200	0.512400
O21	O2	0.372900	0.479300	0.484500
O31	O3	0.308500	0.974700	0.468400
O41	O4	0.524700	0.171000	0.495200
O51	O5	0.989900	0.009000	0.063100
O61	O6	0.512100	0.063700	0.490100
O71	O7	0.668800	0.129200	0.557400
O81	O8	0.835500	0.929000	0.968600
O91	O9	0.414500	0.005100	0.390800
O101	O10	0.904100	0.920200	0.077000
O111	O11	0.158900	0.435800	0.462700
O121	O12	0.992300	0.110500	0.044600
O131	O13	0.793700	0.102800	0.487200
O141	O14	0.170400	0.031100	0.123100
O151	O15	0.027300	0.088500	0.149500
O161	O16	0.626500	0.137700	0.451300
O171	O17	0.612400	0.024100	0.422600
O181	O18	0.414600	0.482900	0.390800
O191	O19	0.312400	0.381500	0.474900
O201	O20	0.188700	0.145700	0.122100
O211	O21	0.004000	0.004800	0.167000
O221	O22	0.300300	0.515300	0.553200
O231	O23	0.820200	0.034600	0.011100
O241	O24	0.518500	0.178600	0.595800
O251	O25	0.538800	0.449800	0.023000
O261	O26	0.582000	0.560600	0.419700
O271	O27	0.491300	0.586300	0.554800
O281	O28	0.104000	0.928700	0.156100
O291	O29	0.491300	0.927000	0.402900
O301	O30	0.419900	0.572200	0.445600
O311	O31	0.352400	0.397300	0.944700
O321	O32	0.496400	0.339900	0.992700
O331	O33	0.904500	0.074000	0.946400
O341	O34	0.213400	0.518000	0.445300
O351	O35	0.259200	0.469000	0.958000
O361	O36	0.485100	0.540800	0.086500
O371	O37	0.722400	0.953100	0.046100
O381	O38	0.345200	0.434700	0.036100
O391	O39	0.269900	0.056100	0.405400
O401	O40	0.649100	0.485700	0.114100
O411	O41	0.308400	0.611900	0.511900
O421	O42	0.292300	0.379300	0.370900
O431	O43	0.204100	0.401100	0.555100
O441	O44	0.635800	0.379400	0.065900
O451	O45	0.460800	0.446400	0.135900
O461	O46	0.663300	0.421100	0.978000
O471	O47	0.476500	0.349200	0.894500
O481	O48	0.820100	0.454600	0.082300
C1001	C100	0.304000	0.119900	0.355000
C1011	C101	0.153000	0.077000	0.342000
Ti131	Ti13	0.483150	0.878600	0.450250
Ti141	Ti14	0.899610	0.918830	0.914740
Ti151	Ti15	0.337110	0.924410	0.508440
Ti161	Ti16	0.633580	0.964900	0.549680
Ti171	Ti17	0.616870	0.574040	0.570140
Ti181	Ti18	0.153500	0.032060	0.969710
Ti191	Ti19	0.638650	0.444480	0.496700
Ti201	Ti20	0.947050	0.036260	0.891440
Ti211	Ti21	0.707690	0.561670	0.474410
Ti221	Ti22	0.509730	0.527490	0.918640
Ti231	Ti23	0.499000	0.596750	0.050670
Ti241	Ti24	0.309180	0.542030	0.947510
Cu51	Cu5	0.327930	0.758740	0.706310
Cu61	Cu6	0.316910	0.757120	0.803800
Cu71	Cu7	0.185660	0.799250	0.744800
Cu81	Cu8	0.156420	0.695050	0.716090
I51	I5	0.129060	0.752090	0.642280
I61	I6	0.345270	0.670610	0.743790
I71	I7	0.400160	0.850430	0.779740
I81	I8	0.114080	0.736360	0.805510
P51	P5	0.710400	0.579540	0.022540
P61	P6	0.492000	0.017250	0.611400
P71	P7	0.538100	0.455600	0.595790
P81	P8	0.111500	0.914150	0.998930
C1021	C102	0.062300	0.581700	0.715300
H1461	H146	0.110500	0.592300	0.749900
C1031	C103	0.001100	0.528400	0.696900
H1471	H147	0.007100	0.503700	0.719600
C1041	C104	0.927500	0.548100	0.619200
C1051	C105	0.142900	0.951600	0.725300
H1481	H148	0.163500	0.975100	0.703200
C1061	C106	0.987800	0.601000	0.637900
H1491	H149	0.980700	0.626200	0.615800
C1071	C107	0.845300	0.528900	0.565700
C1081	C108	0.579600	0.433700	0.655700
C1091	C109	0.513600	0.417700	0.684600
H1501	H150	0.442000	0.418500	0.672700
C1101	C110	0.545000	0.400400	0.730200
H1511	H151	0.494500	0.386700	0.748000
C1111	C111	0.645000	0.403000	0.748900
H1521	H152	0.667300	0.392400	0.781400
C1121	C112	0.715000	0.419400	0.725200
H1531	H153	0.787600	0.421300	0.740500
C1131	C113	0.684400	0.435200	0.674800
H1541	H154	0.734300	0.445900	0.655900
C1141	C114	0.718200	0.457500	0.398700
H1551	H155	0.686200	0.417500	0.395100
C1151	C115	0.655300	0.470900	0.349900
H1561	H156	0.678900	0.510300	0.352300
H1571	H157	0.666600	0.451300	0.318300
H1581	H158	0.579500	0.459900	0.347600
C1161	C116	0.832400	0.464800	0.407700
H1591	H159	0.870100	0.503900	0.416800
H1601	H160	0.858600	0.448100	0.436900
H1611	H161	0.844900	0.447200	0.375400
C1171	C117	0.884000	0.623300	0.422500
H1621	H162	0.927000	0.599300	0.411800
C1181	C118	0.828000	0.641000	0.386000
H1631	H163	0.838700	0.626700	0.351500
H1641	H164	0.753200	0.627500	0.383800
H1651	H165	0.850800	0.680700	0.393900
C1191	C119	0.940000	0.675000	0.455000
C1201	C120	0.706800	0.676400	0.531500
H1661	H166	0.679000	0.686100	0.562200
C1211	C121	0.642900	0.692700	0.491400
H1671	H167	0.634300	0.669300	0.457100
H1681	H168	0.573200	0.689300	0.497400
H1691	H169	0.676300	0.730800	0.491600
C1221	C122	0.823500	0.704200	0.554300
H1701	H170	0.839600	0.740900	0.547100
H1711	H171	0.844000	0.707100	0.592700
H1721	H172	0.863300	0.682900	0.538000
C1231	C123	0.735000	0.637900	0.684400
H1731	H173	0.667000	0.629300	0.693900
C1241	C124	0.800000	0.617800	0.716400
C1251	C125	0.776000	0.699200	0.696900
C1261	C126	0.776300	0.367200	0.510700
H1741	H174	0.840500	0.399700	0.523500
C1271	C127	0.765000	0.349700	0.557300
H1751	H175	0.813600	0.328000	0.567100
H1761	H176	0.780800	0.381600	0.586200
H1771	H177	0.691400	0.327300	0.550800
C1281	C128	0.800100	0.331500	0.472900
H1781	H178	0.734000	0.303400	0.452300
H1791	H179	0.829200	0.352100	0.449200
C1291	C129	0.398000	0.713400	0.895600
H1801	H180	0.340700	0.682100	0.876400
C1301	C130	0.464800	0.711200	0.943100
C1311	C131	0.553800	0.797700	0.952100
H1811	H181	0.609200	0.829600	0.972000
C1321	C132	0.491100	0.800600	0.905000
H1821	H182	0.504700	0.833500	0.892800
C1331	C133	0.443300	0.658900	0.963400
C1341	C134	0.833400	0.632200	0.035000
C1351	C135	0.911600	0.645600	0.083300
H1831	H183	0.901800	0.625900	0.109900
C1361	C136	0.004000	0.687700	0.092800
H1841	H184	0.057400	0.696800	0.125800
C1371	C137	0.018400	0.716500	0.053900
H1851	H185	0.081600	0.745300	0.060300
C1381	C138	0.940300	0.703100	0.005500
H1861	H186	0.950100	0.722800	0.979000
C1391	C139	0.847800	0.661000	0.996100
H1871	H187	0.794400	0.651900	0.963000
C1401	C140	0.608000	0.583100	0.841800
H1881	H188	0.554800	0.572500	0.806100
C1411	C141	0.612000	0.633700	0.847000
H1891	H189	0.599000	0.642700	0.812000
H1901	H190	0.557400	0.640800	0.863300
H1911	H191	0.682200	0.656300	0.869600
C1421	C142	0.668000	0.557600	0.825000
H1921	H192	0.736600	0.566900	0.852900
H1931	H193	0.634400	0.518200	0.817700
H1941	H194	0.680400	0.568200	0.793200
C1431	C143	0.287000	0.489000	0.833200
H1951	H195	0.214400	0.478500	0.838100
C1441	C144	0.298000	0.437700	0.813100
H1961	H196	0.306000	0.436300	0.777400
H1971	H197	0.360800	0.432100	0.836300
H1981	H198	0.234600	0.408900	0.811600
C1451	C145	0.277100	0.529300	0.799900
H1991	H199	0.218300	0.512300	0.767500
H2001	H200	0.263300	0.560700	0.819600
H2011	H201	0.343400	0.541400	0.790600
C1461	C146	0.088000	0.557500	0.894800
C1471	C147	0.094000	0.606700	0.889000
H2021	H202	0.093600	0.629300	0.921900
H2031	H203	0.160400	0.621800	0.880600
H2041	H204	0.033500	0.606400	0.860000
C1481	C148	0.003000	0.519000	0.872000
H2051	H205	0.969800	0.506600	0.898200
H2061	H206	0.954500	0.531900	0.846700
H2071	H207	0.021000	0.488500	0.852500
C1491	C149	0.262000	0.589500	0.048700
C1501	C150	0.237000	0.558600	0.079400
H2081	H208	0.175900	0.527300	0.059100
H2091	H209	0.297100	0.545500	0.094800
H2101	H210	0.217800	0.579300	0.107900
C1511	C151	0.256000	0.645000	0.052400
H2111	H211	0.230800	0.655900	0.082700
H2121	H212	0.327100	0.669600	0.057200
H2131	H213	0.207200	0.647300	0.019700
C1521	C152	0.164900	0.902700	0.721100
H2141	H214	0.203600	0.893900	0.697300
C1531	C153	0.081700	0.881200	0.782500
H2151	H215	0.058400	0.856700	0.803300
C1541	C154	0.060600	0.931700	0.787200
C1551	C155	0.005500	0.947200	0.827500
C1561	C156	0.184500	0.864100	0.001300
C1571	C157	0.244200	0.860600	0.048300
H2161	H216	0.247200	0.884600	0.079700
C1581	C158	0.302500	0.822000	0.051900
H2171	H217	0.345100	0.820200	0.085100
C1591	C159	0.296300	0.788100	0.006900
H2181	H218	0.335600	0.762100	0.008400
C1601	C160	0.236000	0.790400	0.960900
H2191	H219	0.232500	0.766000	0.929500
C1611	C161	0.178600	0.828300	0.958200
H2201	H220	0.134000	0.828700	0.924800
C1621	C162	0.790400	0.805300	0.840500
H2211	H221	0.815700	0.815900	0.810300
C1631	C163	0.678400	0.780500	0.819600
H2221	H222	0.640800	0.807500	0.827100
H2231	H223	0.660300	0.766900	0.781200
H2241	H224	0.657200	0.750000	0.836200
C1641	C164	0.851200	0.771700	0.861000
H2251	H225	0.833200	0.737400	0.834700
H2261	H226	0.927000	0.790600	0.868900
H2271	H227	0.835700	0.763800	0.893500
C1651	C165	0.717300	0.954900	0.848200
H2281	H228	0.696900	0.917800	0.855900
C1661	C166	0.699800	0.936100	0.791600
H2291	H229	0.708700	0.967600	0.775100
H2301	H230	0.751300	0.916500	0.786000
H2311	H231	0.627600	0.911600	0.775700
C1671	C167	0.657200	0.976000	0.872800
H2321	H232	0.582600	0.954700	0.856800
H2331	H233	0.678900	0.975000	0.910400
H2341	H234	0.665600	0.013900	0.869500
C1681	C168	0.849000	0.088700	0.797100
H2351	H235	0.777000	0.061200	0.782700
C1691	C169	0.902000	0.075000	0.758500
H2361	H236	0.974400	0.099700	0.769200
H2371	H237	0.905000	0.037300	0.756100
H2381	H238	0.863100	0.078900	0.723800
C1701	C170	0.825000	0.134800	0.811200
H2391	H239	0.811900	0.151800	0.780700
H2401	H240	0.760600	0.126700	0.823000
H2411	H241	0.883900	0.159800	0.840100
C1711	C171	0.151500	0.134600	0.921500
H2421	H242	0.084000	0.139000	0.899600
C1721	C172	0.193000	0.132900	0.876600
H2431	H243	0.260500	0.161500	0.885700
H2441	H244	0.204400	0.097100	0.866900
H2451	H245	0.142000	0.138800	0.846600
C1731	C173	0.156000	0.174600	0.960100
H2461	H246	0.154900	0.207000	0.945400
H2471	H247	0.093000	0.163800	0.972500
C1741	C174	0.357200	0.024800	0.944000
H2481	H248	0.371500	0.002400	0.970900
C1751	C175	0.451000	0.060000	0.948500
H2491	H249	0.439200	0.086600	0.926800
H2501	H250	0.484400	0.079200	0.985700
H2511	H251	0.496800	0.040100	0.936300
C1761	C176	0.323000	0.988000	0.893000
H2521	H252	0.384800	0.980100	0.884000
H2531	H253	0.273400	0.954000	0.893900
H2541	H254	0.287500	0.004900	0.866300
C1771	C177	0.458000	0.722700	0.639100
H2551	H255	0.464700	0.697000	0.660700
C1781	C178	0.497100	0.719900	0.596200
H2561	H256	0.529800	0.692100	0.588700
C1791	C179	0.442300	0.793400	0.576700
C1801	C180	0.402200	0.795800	0.618800
H2571	H257	0.367500	0.823100	0.625300
C1811	C181	0.430900	0.832400	0.540600
C1821	C182	0.457000	0.988500	0.703600
H2581	H258	0.443200	0.951500	0.686000
C1831	C183	0.450300	0.000200	0.753800
H2591	H259	0.432100	0.971000	0.770700
C1841	C184	0.467900	0.050300	0.779900
H2601	H260	0.457400	0.056600	0.814000
C1851	C185	0.501000	0.092500	0.758600
H2611	H261	0.522500	0.129000	0.779100
C1861	C186	0.502200	0.082000	0.705300
H2621	H262	0.516300	0.111300	0.688100
C1871	C187	0.770000	0.941700	0.647700
C1881	C188	0.724600	0.897600	0.473300
H2631	H263	0.690000	0.880600	0.434800
C1891	C189	0.747200	0.849800	0.491600
H2641	H264	0.771600	0.858300	0.530400
H2651	H265	0.682600	0.818900	0.479000
H2661	H266	0.802800	0.840200	0.477500
C1901	C190	0.798700	0.943500	0.469200
H2671	H267	0.852000	0.931900	0.454600
H2681	H268	0.762400	0.963100	0.445600
H2691	H269	0.833800	0.967700	0.504300
C1911	C191	0.487000	0.770000	0.377400
H2701	H270	0.564300	0.773600	0.390600
C1921	C192	0.446000	0.727800	0.393800
H2711	H271	0.479800	0.699300	0.386100
H2721	H272	0.456800	0.738100	0.432100
H2731	H273	0.369300	0.714000	0.375600
C1931	C193	0.473000	0.769300	0.321000
H2741	H274	0.414900	0.784300	0.307500
H2751	H275	0.539200	0.791500	0.316700
H2761	H276	0.457500	0.731600	0.301200
C1941	C194	0.237700	0.840100	0.401300
H2771	H277	0.185300	0.857200	0.412600
C1951	C195	0.196400	0.785000	0.407900
H2781	H278	0.250000	0.765400	0.407800
H2791	H279	0.179200	0.786900	0.441700
H2801	H280	0.132000	0.765700	0.378800
C1961	C196	0.232000	0.855200	0.353300
H2811	H281	0.301400	0.861400	0.346800
H2821	H282	0.179300	0.826000	0.324800
H2831	H283	0.210100	0.888900	0.354400
C1971	C197	0.142900	0.871600	0.543500
H2841	H284	0.184900	0.851700	0.565400
C1981	C198	0.046500	0.831200	0.506800
H2851	H285	0.014400	0.847800	0.478800
H2861	H286	0.065400	0.799500	0.490900
H2871	H287	0.995500	0.819500	0.526400
C1991	C199	0.121000	0.910600	0.577500
H2881	H288	0.044900	0.900400	0.574100
H2891	H289	0.161200	0.912900	0.614100
H2901	H290	0.142000	0.946200	0.568400
C2001	C200	0.483400	0.029100	0.678200
N91	N9	0.412000	0.758200	0.876200
N101	N10	0.409200	0.761800	0.651600
N111	N11	0.057000	0.618800	0.686700
N121	N12	0.134700	0.867000	0.748700
N131	N13	0.491000	0.754900	0.564800
N141	N14	0.543000	0.753200	0.972700
N151	N15	0.091600	0.967800	0.760900
N161	N16	0.933000	0.510000	0.648100
O491	O49	0.634900	0.908800	0.487600
O501	O50	0.627100	0.520700	0.515500
O511	O51	0.691500	0.025300	0.531600
O521	O52	0.475300	0.829000	0.504800
O531	O53	0.010100	0.991000	0.936900
O541	O54	0.487900	0.936300	0.509900
O551	O55	0.331200	0.870800	0.442600
O561	O56	0.164500	0.071000	0.031400
O571	O57	0.585500	0.994900	0.609200
O581	O58	0.095900	0.079800	0.923000
O591	O59	0.841100	0.564200	0.537300
O601	O60	0.007700	0.889500	0.955400
O611	O61	0.206300	0.897200	0.512800
O621	O62	0.829600	0.968900	0.876900
O631	O63	0.972700	0.911500	0.850500
O641	O64	0.373500	0.862300	0.548700
O651	O65	0.387600	0.975900	0.577400
O661	O66	0.585400	0.517100	0.609200
O671	O67	0.687600	0.618500	0.525100
O681	O68	0.811300	0.854300	0.877900
O691	O69	0.996000	0.995200	0.833000
O701	O70	0.699700	0.484700	0.446800
O711	O71	0.179800	0.965400	0.988900
O721	O72	0.481500	0.821400	0.404200
O731	O73	0.461200	0.550200	0.977000
O741	O74	0.418000	0.439400	0.580300
O751	O75	0.508700	0.413700	0.445200
O761	O76	0.896000	0.071300	0.843900
O771	O77	0.508700	0.073000	0.597100
O781	O78	0.580100	0.427800	0.554400
O791	O79	0.647600	0.602700	0.055300
O801	O80	0.503600	0.660100	0.007300
O811	O81	0.095500	0.926000	0.053600
O821	O82	0.786600	0.482000	0.554700
O831	O83	0.740800	0.531000	0.042000
O841	O84	0.514900	0.459200	0.913500
O851	O85	0.277600	0.046900	0.953900
O861	O86	0.654800	0.565300	0.963900
O871	O87	0.730100	0.943900	0.594600
O881	O88	0.350900	0.514300	0.885900
O891	O89	0.691600	0.388100	0.488100
O901	O90	0.707700	0.620700	0.629100
O911	O91	0.795900	0.598900	0.444900
O921	O92	0.364200	0.620600	0.934100
O931	O93	0.539200	0.553600	0.864100
O941	O94	0.336700	0.578900	0.022000
O951	O95	0.523500	0.650800	0.105500
O961	O96	0.179900	0.545400	0.917700
C2011	C201	0.696000	0.880100	0.645000
C2021	C202	0.847000	0.923000	0.658000
