data_HAVVUX_freeONLY_PM
_symmetry_space_group_name_H-M	'P1'
_cell_length_a	14.849000
_cell_length_b	14.849000
_cell_length_c	21.806000
_cell_angle_alpha	90.000000
_cell_angle_beta	90.000000
_cell_angle_gamma	120.000000
_symmetry_Int_Tables_number 1

loop_
_symmetry_equiv_pos_as_xyz
'x,y,z'

loop_
_atom_site_label
_atom_site_type_symbol
_atom_site_fract_x
_atom_site_fract_y
_atom_site_fract_z
I11	I1	0.711290	0.185180	0.240930
Cu11	Cu1	0.863430	0.378980	0.251620
Cu21	Cu2	0.760360	0.234650	0.118060
N11	N1	0.950600	0.390300	0.175800
N21	N2	0.052500	0.456900	0.171200
N31	N3	0.082400	0.460600	0.112300
N41	N4	0.912400	0.348200	0.120700
N51	N5	0.090700	0.405600	0.921700
C11	C1	0.085100	0.424300	0.981600
H11	H1	0.145600	0.472400	0.001600
C21	C2	0.994500	0.393700	0.082400
C31	C3	0.991300	0.374000	0.015500
C41	C4	0.001300	0.341500	0.891400
H21	H2	0.004600	0.326600	0.850400
C51	C5	0.903700	0.297000	0.920500
H31	H3	0.843000	0.258300	0.898000
C61	C6	0.899000	0.311400	0.983200
H41	H4	0.835300	0.279900	0.003400
I21	I2	0.814820	0.526110	0.240930
Cu31	Cu3	0.621020	0.484450	0.251620
Cu41	Cu4	0.765350	0.525710	0.118060
N61	N6	0.609700	0.560300	0.175800
N71	N7	0.543100	0.595600	0.171200
N81	N8	0.539400	0.621800	0.112300
N91	N9	0.651800	0.564200	0.120700
N101	N10	0.594400	0.685100	0.921700
C71	C7	0.575700	0.660800	0.981600
H51	H5	0.527600	0.673200	0.001600
C81	C8	0.606300	0.600800	0.082400
C91	C9	0.626000	0.617300	0.015500
C101	C10	0.658500	0.659800	0.891400
H61	H6	0.673400	0.678000	0.850400
C111	C11	0.703000	0.606700	0.920500
H71	H7	0.741700	0.584700	0.898000
C121	C12	0.688600	0.587600	0.983200
H81	H8	0.720100	0.555400	0.003400
I31	I3	0.473890	0.288710	0.240930
Cu51	Cu5	0.515550	0.136570	0.251620
Cu61	Cu6	0.474290	0.239640	0.118060
N111	N11	0.439700	0.049400	0.175800
N121	N12	0.404400	0.947500	0.171200
N131	N13	0.378200	0.917600	0.112300
N141	N14	0.435800	0.087600	0.120700
N151	N15	0.314900	0.909300	0.921700
C131	C13	0.339200	0.914900	0.981600
H91	H9	0.326800	0.854400	0.001600
C141	C14	0.399200	0.005500	0.082400
C151	C15	0.382700	0.008700	0.015500
C161	C16	0.340200	0.998700	0.891400
H101	H10	0.322000	0.995400	0.850400
C171	C17	0.393300	0.096300	0.920500
H111	H11	0.415300	0.157000	0.898000
C181	C18	0.412400	0.101000	0.983200
H121	H12	0.444600	0.164700	0.003400
I41	I4	0.185180	0.711290	0.259070
Cu71	Cu7	0.378980	0.863430	0.248380
Cu81	Cu8	0.234650	0.760360	0.381940
N161	N16	0.390300	0.950600	0.324200
N171	N17	0.456900	0.052500	0.328800
N181	N18	0.460600	0.082400	0.387700
N191	N19	0.348200	0.912400	0.379300
N201	N20	0.405600	0.090700	0.578300
C191	C19	0.424300	0.085100	0.518400
H131	H13	0.472400	0.145600	0.498400
C201	C20	0.393700	0.994500	0.417600
C211	C21	0.374000	0.991300	0.484500
C221	C22	0.341500	0.001300	0.608600
H141	H14	0.326600	0.004600	0.649600
C231	C23	0.297000	0.903700	0.579500
H151	H15	0.258300	0.843000	0.602000
C241	C24	0.311400	0.899000	0.516800
H161	H16	0.279900	0.835300	0.496600
I51	I5	0.526110	0.814820	0.259070
Cu91	Cu9	0.484450	0.621020	0.248380
Cu101	Cu10	0.525710	0.765350	0.381940
N211	N21	0.560300	0.609700	0.324200
N221	N22	0.595600	0.543100	0.328800
N231	N23	0.621800	0.539400	0.387700
N241	N24	0.564200	0.651800	0.379300
N251	N25	0.685100	0.594400	0.578300
C251	C25	0.660800	0.575700	0.518400
H171	H17	0.673200	0.527600	0.498400
C261	C26	0.600800	0.606300	0.417600
C271	C27	0.617300	0.626000	0.484500
C281	C28	0.659800	0.658500	0.608600
H181	H18	0.678000	0.673400	0.649600
C291	C29	0.606700	0.703000	0.579500
H191	H19	0.584700	0.741700	0.602000
C301	C30	0.587600	0.688600	0.516800
H201	H20	0.555400	0.720100	0.496600
I61	I6	0.288710	0.473890	0.259070
Cu111	Cu11	0.136570	0.515550	0.248380
Cu121	Cu12	0.239640	0.474290	0.381940
N261	N26	0.049400	0.439700	0.324200
N271	N27	0.947500	0.404400	0.328800
N281	N28	0.917600	0.378200	0.387700
N291	N29	0.087600	0.435800	0.379300
N301	N30	0.909300	0.314900	0.578300
C311	C31	0.914900	0.339200	0.518400
H211	H21	0.854400	0.326800	0.498400
C321	C32	0.005500	0.399200	0.417600
C331	C33	0.008700	0.382700	0.484500
C341	C34	0.998700	0.340200	0.608600
H221	H22	0.995400	0.322000	0.649600
C351	C35	0.096300	0.393300	0.579500
H231	H23	0.157000	0.415300	0.602000
C361	C36	0.101000	0.412400	0.516800
H241	H24	0.164700	0.444600	0.496600
I71	I7	0.288710	0.814820	0.759070
Cu131	Cu13	0.136570	0.621020	0.748380
Cu141	Cu14	0.239640	0.765350	0.881940
N311	N31	0.049400	0.609700	0.824200
N321	N32	0.947500	0.543100	0.828800
N331	N33	0.917600	0.539400	0.887700
N341	N34	0.087600	0.651800	0.879300
N351	N35	0.909300	0.594400	0.078300
C371	C37	0.914900	0.575700	0.018400
H251	H25	0.854400	0.527600	0.998400
C381	C38	0.005500	0.606300	0.917600
C391	C39	0.008700	0.626000	0.984500
C401	C40	0.998700	0.658500	0.108600
H261	H26	0.995400	0.673400	0.149600
C411	C41	0.096300	0.703000	0.079500
H271	H27	0.157000	0.741700	0.102000
C421	C42	0.101000	0.688600	0.016800
H281	H28	0.164700	0.720100	0.996600
I81	I8	0.185180	0.473890	0.759070
Cu151	Cu15	0.378980	0.515550	0.748380
Cu161	Cu16	0.234650	0.474290	0.881940
N361	N36	0.390300	0.439700	0.824200
N371	N37	0.456900	0.404400	0.828800
N381	N38	0.460600	0.378200	0.887700
N391	N39	0.348200	0.435800	0.879300
N401	N40	0.405600	0.314900	0.078300
C431	C43	0.424300	0.339200	0.018400
H291	H29	0.472400	0.326800	0.998400
C441	C44	0.393700	0.399200	0.917600
C451	C45	0.374000	0.382700	0.984500
C461	C46	0.341500	0.340200	0.108600
H301	H30	0.326600	0.322000	0.149600
C471	C47	0.297000	0.393300	0.079500
H311	H31	0.258300	0.415300	0.102000
C481	C48	0.311400	0.412400	0.016800
H321	H32	0.279900	0.444600	0.996600
I91	I9	0.526110	0.711290	0.759070
Cu171	Cu17	0.484450	0.863430	0.748380
Cu181	Cu18	0.525710	0.760360	0.881940
N411	N41	0.560300	0.950600	0.824200
N421	N42	0.595600	0.052500	0.828800
N431	N43	0.621800	0.082400	0.887700
N441	N44	0.564200	0.912400	0.879300
N451	N45	0.685100	0.090700	0.078300
C491	C49	0.660800	0.085100	0.018400
H331	H33	0.673200	0.145600	0.998400
C501	C50	0.600800	0.994500	0.917600
C511	C51	0.617300	0.991300	0.984500
C521	C52	0.659800	0.001300	0.108600
H341	H34	0.678000	0.004600	0.149600
C531	C53	0.606700	0.903700	0.079500
H351	H35	0.584700	0.843000	0.102000
C541	C54	0.587600	0.899000	0.016800
H361	H36	0.555400	0.835300	0.996600
I101	I10	0.814820	0.288710	0.740930
Cu191	Cu19	0.621020	0.136570	0.751620
Cu201	Cu20	0.765350	0.239640	0.618060
N461	N46	0.609700	0.049400	0.675800
N471	N47	0.543100	0.947500	0.671200
N481	N48	0.539400	0.917600	0.612300
N491	N49	0.651800	0.087600	0.620700
N501	N50	0.594400	0.909300	0.421700
C551	C55	0.575700	0.914900	0.481600
H371	H37	0.527600	0.854400	0.501600
C561	C56	0.606300	0.005500	0.582400
C571	C57	0.626000	0.008700	0.515500
C581	C58	0.658500	0.998700	0.391400
H381	H38	0.673400	0.995400	0.350400
C591	C59	0.703000	0.096300	0.420500
H391	H39	0.741700	0.157000	0.398000
C601	C60	0.688600	0.101000	0.483200
H401	H40	0.720100	0.164700	0.503400
I111	I11	0.473890	0.185180	0.740930
Cu211	Cu21	0.515550	0.378980	0.751620
Cu221	Cu22	0.474290	0.234650	0.618060
N511	N51	0.439700	0.390300	0.675800
N521	N52	0.404400	0.456900	0.671200
N531	N53	0.378200	0.460600	0.612300
N541	N54	0.435800	0.348200	0.620700
N551	N55	0.314900	0.405600	0.421700
C611	C61	0.339200	0.424300	0.481600
H411	H41	0.326800	0.472400	0.501600
C621	C62	0.399200	0.393700	0.582400
C631	C63	0.382700	0.374000	0.515500
C641	C64	0.340200	0.341500	0.391400
H421	H42	0.322000	0.326600	0.350400
C651	C65	0.393300	0.297000	0.420500
H431	H43	0.415300	0.258300	0.398000
C661	C66	0.412400	0.311400	0.483200
H441	H44	0.444600	0.279900	0.503400
I121	I12	0.711290	0.526110	0.740930
Cu231	Cu23	0.863430	0.484450	0.751620
Cu241	Cu24	0.760360	0.525710	0.618060
N561	N56	0.950600	0.560300	0.675800
N571	N57	0.052500	0.595600	0.671200
N581	N58	0.082400	0.621800	0.612300
N591	N59	0.912400	0.564200	0.620700
N601	N60	0.090700	0.685100	0.421700
C671	C67	0.085100	0.660800	0.481600
H451	H45	0.145600	0.673200	0.501600
C681	C68	0.994500	0.600800	0.582400
C691	C69	0.991300	0.617300	0.515500
C701	C70	0.001300	0.659800	0.391400
H461	H46	0.004600	0.678000	0.350400
C711	C71	0.903700	0.606700	0.420500
H471	H47	0.843000	0.584700	0.398000
C721	C72	0.899000	0.587600	0.483200
H481	H48	0.835300	0.555400	0.503400
I131	I13	0.666670	0.333330	0.069880
Cu251	Cu25	0.666670	0.333330	0.283410
O11	O1	0.666670	0.333330	0.378500
I141	I14	0.333330	0.666670	0.430120
Cu261	Cu26	0.333330	0.666670	0.216590
O21	O2	0.333330	0.666670	0.121500
I151	I15	0.333330	0.666670	0.930120
Cu271	Cu27	0.333330	0.666670	0.716590
O31	O3	0.333330	0.666670	0.621500
I161	I16	0.666670	0.333330	0.569880
Cu281	Cu28	0.666670	0.333330	0.783410
O41	O4	0.666670	0.333330	0.878500
