data_HAWVEI_freeONLY_PM
_symmetry_space_group_name_H-M	'P1'
_cell_length_a	11.600500
_cell_length_b	16.448800
_cell_length_c	12.082800
_cell_angle_alpha	90.000000
_cell_angle_beta	112.295000
_cell_angle_gamma	90.000000
_symmetry_Int_Tables_number 1

loop_
_symmetry_equiv_pos_as_xyz
'x,y,z'

loop_
_atom_site_label
_atom_site_type_symbol
_atom_site_fract_x
_atom_site_fract_y
_atom_site_fract_z
Nd11	Nd1	0.193760	0.026400	0.576940
S11	S1	0.054500	0.217590	0.210100
S21	S2	0.489900	0.281460	0.753600
O11	O1	0.137300	0.079400	0.374100
O21	O2	0.950200	0.031900	0.349900
O31	O3	0.054800	0.361200	0.068000
O41	O4	0.855100	0.397500	0.024300
O51	O5	0.275200	0.104200	0.781300
O61	O6	0.345800	0.138400	0.641500
O71	O7	0.644600	0.432000	0.790800
O81	O8	0.619600	0.473300	0.956000
C11	C1	0.961300	0.152400	0.249600
C21	C2	0.840400	0.176100	0.204600
H11	H1	0.777300	0.148600	0.218700
C31	C3	0.820700	0.246500	0.134700
H21	H2	0.743000	0.270500	0.096200
C41	C4	0.928900	0.276000	0.129400
C51	C5	0.020900	0.083300	0.329700
C61	C6	0.948100	0.350900	0.070000
C71	C7	0.395200	0.225700	0.805200
C81	C8	0.383700	0.263100	0.903200
H31	H3	0.335100	0.242800	0.942900
C91	C9	0.453900	0.335500	0.936200
H41	H4	0.457700	0.367600	0.001000
C101	C10	0.515700	0.353500	0.863000
C111	C11	0.335000	0.151000	0.739600
C121	C12	0.598900	0.423900	0.869900
Nd21	Nd2	0.806240	0.526400	0.923060
S31	S3	0.945500	0.717590	0.289900
S41	S4	0.510100	0.781460	0.746400
O91	O9	0.862700	0.579400	0.125900
O101	O10	0.049800	0.531900	0.150100
O111	O11	0.945200	0.861200	0.432000
O121	O12	0.144900	0.897500	0.475700
O131	O13	0.724800	0.604200	0.718700
O141	O14	0.654200	0.638400	0.858500
O151	O15	0.355400	0.932000	0.709200
O161	O16	0.380400	0.973300	0.544000
C131	C13	0.038700	0.652400	0.250400
C141	C14	0.159600	0.676100	0.295400
H51	H5	0.222700	0.648600	0.281300
C151	C15	0.179300	0.746500	0.365300
H61	H6	0.257000	0.770500	0.403800
C161	C16	0.071100	0.776000	0.370600
C171	C17	0.979100	0.583300	0.170300
C181	C18	0.051900	0.850900	0.430000
C191	C19	0.604800	0.725700	0.694800
C201	C20	0.616300	0.763100	0.596800
H71	H7	0.664900	0.742800	0.557100
C211	C21	0.546100	0.835500	0.563800
H81	H8	0.542300	0.867600	0.499000
C221	C22	0.484300	0.853500	0.637000
C231	C23	0.665000	0.651000	0.760400
C241	C24	0.401100	0.923900	0.630100
Nd31	Nd3	0.806240	0.973600	0.423060
S51	S5	0.945500	0.782410	0.789900
S61	S6	0.510100	0.718540	0.246400
O171	O17	0.862700	0.920600	0.625900
O181	O18	0.049800	0.968100	0.650100
O191	O19	0.945200	0.638800	0.932000
O201	O20	0.144900	0.602500	0.975700
O211	O21	0.724800	0.895800	0.218700
O221	O22	0.654200	0.861600	0.358500
O231	O23	0.355400	0.568000	0.209200
O241	O24	0.380400	0.526700	0.044000
C251	C25	0.038700	0.847600	0.750400
C261	C26	0.159600	0.823900	0.795400
H91	H9	0.222700	0.851400	0.781300
C271	C27	0.179300	0.753500	0.865300
H101	H10	0.257000	0.729500	0.903800
C281	C28	0.071100	0.724000	0.870600
C291	C29	0.979100	0.916700	0.670300
C301	C30	0.051900	0.649100	0.930000
C311	C31	0.604800	0.774300	0.194800
C321	C32	0.616300	0.736900	0.096800
H111	H11	0.664900	0.757200	0.057100
C331	C33	0.546100	0.664500	0.063800
H121	H12	0.542300	0.632400	0.999000
C341	C34	0.484300	0.646500	0.137000
C351	C35	0.665000	0.849000	0.260400
C361	C36	0.401100	0.576100	0.130100
Nd41	Nd4	0.193760	0.473600	0.076940
S71	S7	0.054500	0.282410	0.710100
S81	S8	0.489900	0.218540	0.253600
O251	O25	0.137300	0.420600	0.874100
O261	O26	0.950200	0.468100	0.849900
O271	O27	0.054800	0.138800	0.568000
O281	O28	0.855100	0.102500	0.524300
O291	O29	0.275200	0.395800	0.281300
O301	O30	0.345800	0.361600	0.141500
O311	O31	0.644600	0.068000	0.290800
O321	O32	0.619600	0.026700	0.456000
C371	C37	0.961300	0.347600	0.749600
C381	C38	0.840400	0.323900	0.704600
H131	H13	0.777300	0.351400	0.718700
C391	C39	0.820700	0.253500	0.634700
H141	H14	0.743000	0.229500	0.596200
C401	C40	0.928900	0.224000	0.629400
C411	C41	0.020900	0.416700	0.829700
C421	C42	0.948100	0.149100	0.570000
C431	C43	0.395200	0.274300	0.305200
C441	C44	0.383700	0.236900	0.403200
H151	H15	0.335100	0.257200	0.442900
C451	C45	0.453900	0.164500	0.436200
H161	H16	0.457700	0.132400	0.501000
C461	C46	0.515700	0.146500	0.363000
C471	C47	0.335000	0.349000	0.239600
C481	C48	0.598900	0.076100	0.369900
