data_HAWVAE_freeONLY_PM
_symmetry_space_group_name_H-M	'P1'
_cell_length_a	11.605400
_cell_length_b	16.266200
_cell_length_c	12.047900
_cell_angle_alpha	90.000000
_cell_angle_beta	112.497000
_cell_angle_gamma	90.000000
_symmetry_Int_Tables_number 1

loop_
_symmetry_equiv_pos_as_xyz
'x,y,z'

loop_
_atom_site_label
_atom_site_type_symbol
_atom_site_fract_x
_atom_site_fract_y
_atom_site_fract_z
Gd11	Gd1	0.194170	0.027350	0.078250
S11	S1	0.053290	0.218580	0.711960
S21	S2	0.489920	0.283050	0.251640
O11	O1	0.131700	0.077900	0.878800
O21	O2	0.941100	0.030460	0.846000
O31	O3	0.056200	0.363200	0.568400
O41	O4	0.857600	0.400460	0.524200
O51	O5	0.275000	0.104400	0.279300
O61	O6	0.339300	0.140000	0.136500
O71	O7	0.647300	0.433500	0.292300
O81	O8	0.623100	0.475710	0.457500
C11	C1	0.958800	0.152600	0.749200
C21	C2	0.837200	0.176600	0.702000
H11	H1	0.772900	0.148500	0.713700
C31	C3	0.820300	0.249000	0.633200
H21	H2	0.743300	0.274000	0.594300
C41	C4	0.928500	0.278300	0.629700
C51	C5	0.014800	0.082100	0.829900
C61	C6	0.949400	0.353300	0.569600
C71	C7	0.394100	0.228000	0.303100
C81	C8	0.383900	0.264500	0.400800
H31	H3	0.336400	0.243200	0.441200
C91	C9	0.452700	0.337400	0.433900
H41	H4	0.454500	0.370300	0.497600
C101	C10	0.516800	0.354900	0.362400
C111	C11	0.333200	0.152500	0.237300
C121	C12	0.600100	0.425700	0.370900
Gd21	Gd2	0.805830	0.527350	0.421750
S31	S3	0.946710	0.718580	0.788040
S41	S4	0.510080	0.783050	0.248360
O91	O9	0.868300	0.577900	0.621200
O101	O10	0.058900	0.530460	0.654000
O111	O11	0.943800	0.863200	0.931600
O121	O12	0.142400	0.900460	0.975800
O131	O13	0.725000	0.604400	0.220700
O141	O14	0.660700	0.640000	0.363500
O151	O15	0.352700	0.933500	0.207700
O161	O16	0.376900	0.975710	0.042500
C131	C13	0.041200	0.652600	0.750800
C141	C14	0.162800	0.676600	0.798000
H51	H5	0.227100	0.648500	0.786300
C151	C15	0.179700	0.749000	0.866800
H61	H6	0.256700	0.774000	0.905700
C161	C16	0.071500	0.778300	0.870300
C171	C17	0.985200	0.582100	0.670100
C181	C18	0.050600	0.853300	0.930400
C191	C19	0.605900	0.728000	0.196900
C201	C20	0.616100	0.764500	0.099200
H71	H7	0.663600	0.743200	0.058800
C211	C21	0.547300	0.837400	0.066100
H81	H8	0.545500	0.870300	0.002400
C221	C22	0.483200	0.854900	0.137600
C231	C23	0.666800	0.652500	0.262700
C241	C24	0.399900	0.925700	0.129100
Gd31	Gd3	0.805830	0.972650	0.921750
S51	S5	0.946710	0.781420	0.288040
S61	S6	0.510080	0.716950	0.748360
O171	O17	0.868300	0.922100	0.121200
O181	O18	0.058900	0.969540	0.154000
O191	O19	0.943800	0.636800	0.431600
O201	O20	0.142400	0.599540	0.475800
O211	O21	0.725000	0.895600	0.720700
O221	O22	0.660700	0.860000	0.863500
O231	O23	0.352700	0.566500	0.707700
O241	O24	0.376900	0.524290	0.542500
C251	C25	0.041200	0.847400	0.250800
C261	C26	0.162800	0.823400	0.298000
H91	H9	0.227100	0.851500	0.286300
C271	C27	0.179700	0.751000	0.366800
H101	H10	0.256700	0.726000	0.405700
C281	C28	0.071500	0.721700	0.370300
C291	C29	0.985200	0.917900	0.170100
C301	C30	0.050600	0.646700	0.430400
C311	C31	0.605900	0.772000	0.696900
C321	C32	0.616100	0.735500	0.599200
H111	H11	0.663600	0.756800	0.558800
C331	C33	0.547300	0.662600	0.566100
H121	H12	0.545500	0.629700	0.502400
C341	C34	0.483200	0.645100	0.637600
C351	C35	0.666800	0.847500	0.762700
C361	C36	0.399900	0.574300	0.629100
Gd41	Gd4	0.194170	0.472650	0.578250
S71	S7	0.053290	0.281420	0.211960
S81	S8	0.489920	0.216950	0.751640
O251	O25	0.131700	0.422100	0.378800
O261	O26	0.941100	0.469540	0.346000
O271	O27	0.056200	0.136800	0.068400
O281	O28	0.857600	0.099540	0.024200
O291	O29	0.275000	0.395600	0.779300
O301	O30	0.339300	0.360000	0.636500
O311	O31	0.647300	0.066500	0.792300
O321	O32	0.623100	0.024290	0.957500
C371	C37	0.958800	0.347400	0.249200
C381	C38	0.837200	0.323400	0.202000
H131	H13	0.772900	0.351500	0.213700
C391	C39	0.820300	0.251000	0.133200
H141	H14	0.743300	0.226000	0.094300
C401	C40	0.928500	0.221700	0.129700
C411	C41	0.014800	0.417900	0.329900
C421	C42	0.949400	0.146700	0.069600
C431	C43	0.394100	0.272000	0.803100
C441	C44	0.383900	0.235500	0.900800
H151	H15	0.336400	0.256800	0.941200
C451	C45	0.452700	0.162600	0.933900
H161	H16	0.454500	0.129700	0.997600
C461	C46	0.516800	0.145100	0.862400
C471	C47	0.333200	0.347500	0.737300
C481	C48	0.600100	0.074300	0.870900
