data_HAWWUZ_freeONLY_PM
_symmetry_space_group_name_H-M	'P1'
_cell_length_a	12.145500
_cell_length_b	17.007200
_cell_length_c	25.593700
_cell_angle_alpha	102.385000
_cell_angle_beta	90.000000
_cell_angle_gamma	90.000000
_symmetry_Int_Tables_number 1

loop_
_symmetry_equiv_pos_as_xyz
'x,y,z'

loop_
_atom_site_label
_atom_site_type_symbol
_atom_site_fract_x
_atom_site_fract_y
_atom_site_fract_z
Nd11	Nd1	0.027400	0.985370	0.418990
Nd21	Nd2	0.500920	0.460750	0.417180
Nd31	Nd3	0.027400	0.514630	0.081010
Nd41	Nd4	0.500920	0.039250	0.082820
Nd51	Nd5	0.972600	0.014630	0.581010
Nd61	Nd6	0.499080	0.539250	0.582820
Nd71	Nd7	0.972600	0.485370	0.918990
Nd81	Nd8	0.499080	0.960750	0.917180
H11	H1	0.918500	0.790500	0.355800
H21	H2	0.196100	0.733900	0.323500
H31	H3	0.324600	0.016500	0.489900
H41	H4	0.349700	0.095200	0.364500
H51	H5	0.711800	0.313200	0.345300
H61	H6	0.453500	0.193700	0.304200
H71	H7	0.370600	0.627200	0.352200
H81	H8	0.284600	0.434600	0.253400
H91	H9	0.016100	0.075400	0.235700
H101	H10	0.900300	0.083500	0.159000
H111	H11	0.231900	0.248000	0.603900
H121	H12	0.329500	0.366200	0.589400
H131	H13	0.633000	0.267500	0.591500
H141	H14	0.745000	0.146600	0.574700
H151	H15	0.089400	0.615500	0.314100
H161	H16	0.080400	0.645700	0.259800
H171	H17	0.919500	0.680800	0.277700
H181	H18	0.927600	0.648900	0.331200
H191	H19	0.411300	0.150500	0.510700
H201	H20	0.500200	0.081700	0.493400
H211	H21	0.522400	0.115700	0.413300
H221	H22	0.443700	0.190300	0.433200
H231	H23	0.595200	0.098800	0.306200
H241	H24	0.606900	0.129300	0.252300
H251	H25	0.764700	0.190500	0.283900
H261	H26	0.745100	0.168700	0.340200
H271	H27	0.377100	0.661900	0.267200
H281	H28	0.468400	0.593700	0.259000
H291	H29	0.336100	0.524200	0.198800
H301	H30	0.236700	0.569400	0.232600
H311	H31	0.918500	0.709500	0.144200
H321	H32	0.196100	0.766100	0.176500
H331	H33	0.324600	0.483500	0.010100
H341	H34	0.349700	0.404800	0.135500
H351	H35	0.711800	0.186800	0.154700
H361	H36	0.453500	0.306300	0.195800
H371	H37	0.370600	0.872800	0.147800
H381	H38	0.284600	0.065400	0.246600
H391	H39	0.016100	0.424600	0.264300
H401	H40	0.900300	0.416500	0.341000
H411	H41	0.231900	0.252000	0.896100
H421	H42	0.329500	0.133800	0.910600
H431	H43	0.633000	0.232500	0.908500
H441	H44	0.745000	0.353400	0.925300
H451	H45	0.089400	0.884500	0.185900
H461	H46	0.080400	0.854300	0.240200
H471	H47	0.919500	0.819200	0.222300
H481	H48	0.927600	0.851100	0.168800
H491	H49	0.411300	0.349500	0.989300
H501	H50	0.500200	0.418300	0.006600
H511	H51	0.522400	0.384300	0.086700
H521	H52	0.443700	0.309700	0.066800
H531	H53	0.595200	0.401200	0.193800
H541	H54	0.606900	0.370700	0.247700
H551	H55	0.764700	0.309500	0.216100
H561	H56	0.745100	0.331300	0.159800
H571	H57	0.377100	0.838100	0.232800
H581	H58	0.468400	0.906300	0.241000
H591	H59	0.336100	0.975800	0.301200
H601	H60	0.236700	0.930600	0.267400
H611	H61	0.081500	0.209500	0.644200
H621	H62	0.803900	0.266100	0.676500
H631	H63	0.675400	0.983500	0.510100
H641	H64	0.650300	0.904800	0.635500
H651	H65	0.288200	0.686800	0.654700
H661	H66	0.546500	0.806300	0.695800
H671	H67	0.629400	0.372800	0.647800
H681	H68	0.715400	0.565400	0.746600
H691	H69	0.983900	0.924600	0.764300
H701	H70	0.099700	0.916500	0.841000
H711	H71	0.768100	0.752000	0.396100
H721	H72	0.670500	0.633800	0.410600
H731	H73	0.367000	0.732500	0.408500
H741	H74	0.255000	0.853400	0.425300
H751	H75	0.910600	0.384500	0.685900
H761	H76	0.919600	0.354300	0.740200
H771	H77	0.080500	0.319200	0.722300
H781	H78	0.072400	0.351100	0.668800
H791	H79	0.588700	0.849500	0.489300
H801	H80	0.499800	0.918300	0.506600
H811	H81	0.477600	0.884300	0.586700
H821	H82	0.556300	0.809700	0.566800
H831	H83	0.404800	0.901200	0.693800
H841	H84	0.393100	0.870700	0.747700
H851	H85	0.235300	0.809500	0.716100
H861	H86	0.254900	0.831300	0.659800
H871	H87	0.622900	0.338100	0.732800
H881	H88	0.531600	0.406300	0.741000
H891	H89	0.663900	0.475800	0.801200
H901	H90	0.763300	0.430600	0.767400
H911	H91	0.081500	0.290500	0.855800
H921	H92	0.803900	0.233900	0.823500
H931	H93	0.675400	0.516500	0.989900
H941	H94	0.650300	0.595200	0.864500
H951	H95	0.288200	0.813200	0.845300
H961	H96	0.546500	0.693700	0.804200
H971	H97	0.629400	0.127200	0.852200
H981	H98	0.715400	0.934600	0.753400
H991	H99	0.983900	0.575400	0.735700
H1001	H100	0.099700	0.583500	0.659000
H1011	H101	0.768100	0.748000	0.103900
H1021	H102	0.670500	0.866200	0.089400
H1031	H103	0.367000	0.767500	0.091500
H1041	H104	0.255000	0.646600	0.074700
H1051	H105	0.910600	0.115500	0.814100
H1061	H106	0.919600	0.145700	0.759800
H1071	H107	0.080500	0.180800	0.777700
H1081	H108	0.072400	0.148900	0.831200
H1091	H109	0.588700	0.650500	0.010700
H1101	H110	0.499800	0.581700	0.993400
H1111	H111	0.477600	0.615700	0.913300
H1121	H112	0.556300	0.690300	0.933200
H1131	H113	0.404800	0.598800	0.806200
H1141	H114	0.393100	0.629300	0.752300
H1151	H115	0.235300	0.690500	0.783900
H1161	H116	0.254900	0.668700	0.840200
H1171	H117	0.622900	0.161900	0.767200
H1181	H118	0.531600	0.093700	0.759000
H1191	H119	0.663900	0.024200	0.698800
H1201	H120	0.763300	0.069400	0.732600
C11	C1	0.897200	0.012100	0.263300
C21	C2	0.946100	0.052900	0.230100
C31	C3	0.879100	0.057700	0.186000
C41	C4	0.781200	0.021000	0.187000
C51	C5	0.943100	0.996600	0.314300
C61	C6	0.689700	0.020200	0.149100
C71	C7	0.183500	0.220800	0.526400
C81	C8	0.234700	0.262800	0.571000
C91	C9	0.292100	0.330500	0.562600
C101	C10	0.286800	0.338000	0.511100
C111	C11	0.115900	0.145000	0.518900
C121	C12	0.339100	0.397200	0.485000
C131	C13	0.658800	0.280600	0.515600
C141	C14	0.666800	0.246600	0.558900
C151	C15	0.731000	0.177100	0.549300
C161	C16	0.770900	0.158500	0.498200
C171	C17	0.600900	0.356700	0.511400
C181	C18	0.846700	0.092200	0.473600
C191	C19	0.068000	0.660200	0.298200
C201	C20	0.962300	0.682900	0.310000
C211	C21	0.070400	0.793800	0.341400
C221	C22	0.433900	0.105700	0.482500
C231	C23	0.451000	0.132400	0.428700
C241	C24	0.303900	0.044000	0.420800
C251	C25	0.605600	0.145800	0.291000
C261	C26	0.711600	0.191300	0.312300
C271	C27	0.561900	0.275800	0.331700
C281	C28	0.393000	0.606300	0.269300
C291	C29	0.308000	0.545100	0.234600
C301	C30	0.338000	0.513200	0.318500
C311	C31	0.897200	0.487900	0.236700
C321	C32	0.946100	0.447100	0.269900
C331	C33	0.879100	0.442300	0.314000
C341	C34	0.781200	0.479000	0.313000
C351	C35	0.943100	0.503400	0.185700
C361	C36	0.689700	0.479800	0.350900
C371	C37	0.183500	0.279200	0.973600
C381	C38	0.234700	0.237200	0.929000
C391	C39	0.292100	0.169500	0.937400
C401	C40	0.286800	0.162000	0.988900
C411	C41	0.115900	0.355000	0.981100
C421	C42	0.339100	0.102800	0.015000
C431	C43	0.658800	0.219400	0.984400
C441	C44	0.666800	0.253400	0.941100
C451	C45	0.731000	0.322900	0.950700
C461	C46	0.770900	0.341500	0.001800
C471	C47	0.600900	0.143300	0.988600
C481	C48	0.846700	0.407800	0.026400
C491	C49	0.068000	0.839800	0.201800
C501	C50	0.962300	0.817100	0.190000
C511	C51	0.070400	0.706200	0.158600
C521	C52	0.433900	0.394300	0.017500
C531	C53	0.451000	0.367600	0.071300
C541	C54	0.303900	0.456000	0.079200
C551	C55	0.605600	0.354200	0.209000
C561	C56	0.711600	0.308700	0.187700
C571	C57	0.561900	0.224200	0.168300
C581	C58	0.393000	0.893700	0.230700
C591	C59	0.308000	0.954900	0.265400
C601	C60	0.338000	0.986800	0.181500
C611	C61	0.102800	0.987900	0.736700
C621	C62	0.053900	0.947100	0.769900
C631	C63	0.120900	0.942300	0.814000
C641	C64	0.218800	0.979000	0.813000
C651	C65	0.056900	0.003400	0.685700
C661	C66	0.310300	0.979800	0.850900
C671	C67	0.816500	0.779200	0.473600
C681	C68	0.765300	0.737200	0.429000
C691	C69	0.707900	0.669500	0.437400
C701	C70	0.713200	0.662000	0.488900
C711	C71	0.884100	0.855000	0.481100
C721	C72	0.660900	0.602800	0.515000
C731	C73	0.341200	0.719400	0.484400
C741	C74	0.333200	0.753400	0.441100
C751	C75	0.269000	0.822900	0.450700
C761	C76	0.229100	0.841500	0.501800
C771	C77	0.399100	0.643300	0.488600
C781	C78	0.153300	0.907800	0.526400
C791	C79	0.932000	0.339800	0.701800
C801	C80	0.037700	0.317100	0.690000
C811	C81	0.929600	0.206200	0.658600
C821	C82	0.566100	0.894300	0.517500
C831	C83	0.549000	0.867600	0.571300
C841	C84	0.696100	0.956000	0.579200
C851	C85	0.394400	0.854200	0.709000
C861	C86	0.288400	0.808700	0.687700
C871	C87	0.438100	0.724200	0.668300
C881	C88	0.607000	0.393700	0.730700
C891	C89	0.692000	0.454900	0.765400
C901	C90	0.662000	0.486800	0.681500
C911	C91	0.102800	0.512100	0.763300
C921	C92	0.053900	0.552900	0.730100
C931	C93	0.120900	0.557700	0.686000
C941	C94	0.218800	0.521000	0.687000
C951	C95	0.056900	0.496600	0.814300
C961	C96	0.310300	0.520200	0.649100
C971	C97	0.816500	0.720800	0.026400
C981	C98	0.765300	0.762800	0.071000
C991	C99	0.707900	0.830500	0.062600
C1001	C100	0.713200	0.838000	0.011100
C1011	C101	0.884100	0.645000	0.018900
C1021	C102	0.660900	0.897200	0.985000
C1031	C103	0.341200	0.780600	0.015600
C1041	C104	0.333200	0.746600	0.058900
C1051	C105	0.269000	0.677100	0.049300
C1061	C106	0.229100	0.658500	0.998200
C1071	C107	0.399100	0.856700	0.011400
C1081	C108	0.153300	0.592200	0.973600
C1091	C109	0.932000	0.160200	0.798200
C1101	C110	0.037700	0.182900	0.810000
C1111	C111	0.929600	0.293800	0.841400
C1121	C112	0.566100	0.605700	0.982500
C1131	C113	0.549000	0.632400	0.928700
C1141	C114	0.696100	0.544000	0.920800
C1151	C115	0.394400	0.645800	0.791000
C1161	C116	0.288400	0.691300	0.812300
C1171	C117	0.438100	0.775800	0.831700
C1181	C118	0.607000	0.106300	0.769300
C1191	C119	0.692000	0.045100	0.734600
C1201	C120	0.662000	0.013200	0.818500
S11	S1	0.769830	0.977870	0.241480
S21	S2	0.209910	0.261590	0.472430
S31	S3	0.724730	0.224980	0.461740
S41	S4	0.769830	0.522130	0.258520
S51	S5	0.209910	0.238410	0.027570
S61	S6	0.724730	0.275020	0.038260
S71	S7	0.230170	0.022130	0.758520
S81	S8	0.790090	0.738410	0.527570
S91	S9	0.275270	0.775020	0.538260
S101	S10	0.230170	0.477870	0.741480
S111	S11	0.790090	0.761590	0.972430
S121	S12	0.275270	0.724980	0.961740
N11	N1	0.973000	0.763800	0.339900
N21	N2	0.125300	0.732300	0.322300
N31	N3	0.346500	0.046600	0.468900
N41	N4	0.362700	0.090300	0.396700
N51	N5	0.670300	0.272400	0.333300
N61	N6	0.522700	0.203900	0.308300
N71	N7	0.367000	0.591700	0.322700
N81	N8	0.305000	0.483500	0.265800
N91	N9	0.973000	0.736200	0.160100
N101	N10	0.125300	0.767700	0.177700
N111	N11	0.346500	0.453400	0.031100
N121	N12	0.362700	0.409700	0.103300
N131	N13	0.670300	0.227600	0.166700
N141	N14	0.522700	0.296100	0.191700
N151	N15	0.367000	0.908300	0.177300
N161	N16	0.305000	0.016500	0.234200
N171	N17	0.027000	0.236200	0.660100
N181	N18	0.874700	0.267700	0.677700
N191	N19	0.653500	0.953400	0.531100
N201	N20	0.637300	0.909700	0.603300
N211	N21	0.329700	0.727600	0.666700
N221	N22	0.477300	0.796100	0.691700
N231	N23	0.633000	0.408300	0.677300
N241	N24	0.695000	0.516500	0.734200
N251	N25	0.027000	0.263800	0.839900
N261	N26	0.874700	0.232300	0.822300
N271	N27	0.653500	0.546600	0.968900
N281	N28	0.637300	0.590300	0.896700
N291	N29	0.329700	0.772400	0.833300
N301	N30	0.477300	0.703900	0.808300
N311	N31	0.633000	0.091700	0.822700
N321	N32	0.695000	0.983500	0.765800
O11	O1	0.895200	0.948100	0.337200
O21	O2	0.028400	0.033900	0.333500
O31	O3	0.700500	0.059200	0.112700
O41	O4	0.601100	0.982600	0.154300
O51	O5	0.088800	0.113980	0.472080
O61	O6	0.093000	0.119200	0.560100
O71	O7	0.388900	0.457600	0.512000
O81	O8	0.334900	0.385600	0.434700
O91	O9	0.579700	0.365100	0.465100
O101	O10	0.579900	0.405800	0.554500
O111	O11	0.869600	0.083300	0.425200
O121	O12	0.887800	0.048550	0.502450
O131	O13	0.097600	0.860400	0.362300
O141	O14	0.223600	0.002100	0.401200
O151	O15	0.503000	0.336600	0.348100
O161	O16	0.357600	0.471800	0.350300
O171	O17	0.895200	0.551900	0.162800
O181	O18	0.028400	0.466100	0.166500
O191	O19	0.700500	0.440800	0.387300
O201	O20	0.601100	0.517400	0.345700
O211	O21	0.088800	0.386020	0.027920
O221	O22	0.093000	0.380800	0.939900
O231	O23	0.388900	0.042400	0.988000
O241	O24	0.334900	0.114400	0.065300
O251	O25	0.579700	0.134900	0.034900
O261	O26	0.579900	0.094200	0.945500
O271	O27	0.869600	0.416700	0.074800
O281	O28	0.887800	0.451450	0.997550
O291	O29	0.097600	0.639600	0.137700
O301	O30	0.223600	0.497900	0.098800
O311	O31	0.503000	0.163400	0.151900
O321	O32	0.357600	0.028200	0.149700
O331	O33	0.104800	0.051900	0.662800
O341	O34	0.971600	0.966100	0.666500
O351	O35	0.299500	0.940800	0.887300
O361	O36	0.398900	0.017400	0.845700
O371	O37	0.911200	0.886020	0.527920
O381	O38	0.907000	0.880800	0.439900
O391	O39	0.611100	0.542400	0.488000
O401	O40	0.665100	0.614400	0.565300
O411	O41	0.420300	0.634900	0.534900
O421	O42	0.420100	0.594200	0.445500
O431	O43	0.130400	0.916700	0.574800
O441	O44	0.112200	0.951450	0.497550
O451	O45	0.902400	0.139600	0.637700
O461	O46	0.776400	0.997900	0.598800
O471	O47	0.497000	0.663400	0.651900
O481	O48	0.642400	0.528200	0.649700
O491	O49	0.104800	0.448100	0.837200
O501	O50	0.971600	0.533900	0.833500
O511	O51	0.299500	0.559200	0.612700
O521	O52	0.398900	0.482600	0.654300
O531	O53	0.911200	0.613980	0.972080
O541	O54	0.907000	0.619200	0.060100
O551	O55	0.611100	0.957600	0.012000
O561	O56	0.665100	0.885600	0.934700
O571	O57	0.420300	0.865100	0.965100
O581	O58	0.420100	0.905800	0.054500
O591	O59	0.130400	0.583300	0.925200
O601	O60	0.112200	0.548550	0.002450
O611	O61	0.902400	0.360400	0.862300
O621	O62	0.776400	0.502100	0.901200
O631	O63	0.497000	0.836600	0.848100
O641	O64	0.642400	0.971800	0.850300
