data_HAWWEK_freeONLY_PM
_symmetry_space_group_name_H-M	'P1'
_cell_length_a	18.901100
_cell_length_b	14.848800
_cell_length_c	12.930200
_cell_angle_alpha	90.000000
_cell_angle_beta	90.000000
_cell_angle_gamma	90.000000
_symmetry_Int_Tables_number 1

loop_
_symmetry_equiv_pos_as_xyz
'x,y,z'

loop_
_atom_site_label
_atom_site_type_symbol
_atom_site_fract_x
_atom_site_fract_y
_atom_site_fract_z
N11	N1	0.571100	0.424000	0.646100
N21	N2	0.680700	0.328100	0.553100
C11	C1	0.599900	0.449100	0.555000
H11	H1	0.582900	0.500300	0.521800
C21	C2	0.653000	0.401600	0.511100
H21	H2	0.671000	0.421500	0.448100
C31	C3	0.651400	0.302500	0.644000
H31	H3	0.668100	0.251000	0.676900
C41	C4	0.597900	0.350300	0.688300
H41	H4	0.579400	0.330300	0.750900
N31	N3	0.571100	0.924000	0.146100
N41	N4	0.680700	0.828100	0.053100
C51	C5	0.599900	0.949100	0.055000
H51	H5	0.582900	0.000300	0.021800
C61	C6	0.653000	0.901600	0.011100
H61	H6	0.671000	0.921500	0.948100
C71	C7	0.651400	0.802500	0.144000
H71	H7	0.668100	0.751000	0.176900
C81	C8	0.597900	0.850300	0.188300
H81	H8	0.579400	0.830300	0.250900
N51	N5	0.071100	0.424000	0.146100
N61	N6	0.180700	0.328100	0.053100
C91	C9	0.099900	0.449100	0.055000
H91	H9	0.082900	0.500300	0.021800
C101	C10	0.153000	0.401600	0.011100
H101	H10	0.171000	0.421500	0.948100
C111	C11	0.151400	0.302500	0.144000
H111	H11	0.168100	0.251000	0.176900
C121	C12	0.097900	0.350300	0.188300
H121	H12	0.079400	0.330300	0.250900
N71	N7	0.071100	0.924000	0.646100
N81	N8	0.180700	0.828100	0.553100
C131	C13	0.099900	0.949100	0.555000
H131	H13	0.082900	0.000300	0.521800
C141	C14	0.153000	0.901600	0.511100
H141	H14	0.171000	0.921500	0.448100
C151	C15	0.151400	0.802500	0.644000
H151	H15	0.168100	0.751000	0.676900
C161	C16	0.097900	0.850300	0.688300
H161	H16	0.079400	0.830300	0.750900
N91	N9	0.428900	0.576000	0.646100
N101	N10	0.319300	0.671900	0.553100
C171	C17	0.400100	0.550900	0.555000
H171	H17	0.417100	0.499700	0.521800
C181	C18	0.347000	0.598400	0.511100
H181	H18	0.329000	0.578500	0.448100
C191	C19	0.348600	0.697500	0.644000
H191	H19	0.331900	0.749000	0.676900
C201	C20	0.402100	0.649700	0.688300
H201	H20	0.420600	0.669700	0.750900
N111	N11	0.428900	0.076000	0.146100
N121	N12	0.319300	0.171900	0.053100
C211	C21	0.400100	0.050900	0.055000
H211	H21	0.417100	0.999700	0.021800
C221	C22	0.347000	0.098400	0.011100
H221	H22	0.329000	0.078500	0.948100
C231	C23	0.348600	0.197500	0.144000
H231	H23	0.331900	0.249000	0.176900
C241	C24	0.402100	0.149700	0.188300
H241	H24	0.420600	0.169700	0.250900
N131	N13	0.928900	0.576000	0.146100
N141	N14	0.819300	0.671900	0.053100
C251	C25	0.900100	0.550900	0.055000
H251	H25	0.917100	0.499700	0.021800
C261	C26	0.847000	0.598400	0.011100
H261	H26	0.829000	0.578500	0.948100
C271	C27	0.848600	0.697500	0.144000
H271	H27	0.831900	0.749000	0.176900
C281	C28	0.902100	0.649700	0.188300
H281	H28	0.920600	0.669700	0.250900
N151	N15	0.928900	0.076000	0.646100
N161	N16	0.819300	0.171900	0.553100
C291	C29	0.900100	0.050900	0.555000
H291	H29	0.917100	0.999700	0.521800
C301	C30	0.847000	0.098400	0.511100
H301	H30	0.829000	0.078500	0.448100
C311	C31	0.848600	0.197500	0.644000
H311	H31	0.831900	0.249000	0.676900
C321	C32	0.902100	0.149700	0.688300
H321	H32	0.920600	0.169700	0.750900
N171	N17	0.821100	0.826000	0.896100
N181	N18	0.930700	0.921900	0.803100
C331	C33	0.849900	0.800900	0.805000
H331	H33	0.832900	0.749700	0.771800
C341	C34	0.903000	0.848400	0.761100
H341	H34	0.921000	0.828500	0.698100
C351	C35	0.901400	0.947500	0.894000
H351	H35	0.918100	0.999000	0.926900
C361	C36	0.847900	0.899700	0.938300
H361	H36	0.829400	0.919700	0.000900
N191	N19	0.821100	0.326000	0.396100
N201	N20	0.930700	0.421900	0.303100
C371	C37	0.849900	0.300900	0.305000
H371	H37	0.832900	0.249700	0.271800
C381	C38	0.903000	0.348400	0.261100
H381	H38	0.921000	0.328500	0.198100
C391	C39	0.901400	0.447500	0.394000
H391	H39	0.918100	0.499000	0.426900
C401	C40	0.847900	0.399700	0.438300
H401	H40	0.829400	0.419700	0.500900
N211	N21	0.321100	0.826000	0.396100
N221	N22	0.430700	0.921900	0.303100
C411	C41	0.349900	0.800900	0.305000
H411	H41	0.332900	0.749700	0.271800
C421	C42	0.403000	0.848400	0.261100
H421	H42	0.421000	0.828500	0.198100
C431	C43	0.401400	0.947500	0.394000
H431	H43	0.418100	0.999000	0.426900
C441	C44	0.347900	0.899700	0.438300
H441	H44	0.329400	0.919700	0.500900
N231	N23	0.321100	0.326000	0.896100
N241	N24	0.430700	0.421900	0.803100
C451	C45	0.349900	0.300900	0.805000
H451	H45	0.332900	0.249700	0.771800
C461	C46	0.403000	0.348400	0.761100
H461	H46	0.421000	0.328500	0.698100
C471	C47	0.401400	0.447500	0.894000
H471	H47	0.418100	0.499000	0.926900
C481	C48	0.347900	0.399700	0.938300
H481	H48	0.329400	0.419700	0.000900
N251	N25	0.678900	0.674000	0.896100
N261	N26	0.569300	0.578100	0.803100
C491	C49	0.650100	0.699100	0.805000
H491	H49	0.667100	0.750300	0.771800
C501	C50	0.597000	0.651600	0.761100
H501	H50	0.579000	0.671500	0.698100
C511	C51	0.598600	0.552500	0.894000
H511	H51	0.581900	0.501000	0.926900
C521	C52	0.652100	0.600300	0.938300
H521	H52	0.670600	0.580300	0.000900
N271	N27	0.678900	0.174000	0.396100
N281	N28	0.569300	0.078100	0.303100
C531	C53	0.650100	0.199100	0.305000
H531	H53	0.667100	0.250300	0.271800
C541	C54	0.597000	0.151600	0.261100
H541	H54	0.579000	0.171500	0.198100
C551	C55	0.598600	0.052500	0.394000
H551	H55	0.581900	0.001000	0.426900
C561	C56	0.652100	0.100300	0.438300
H561	H56	0.670600	0.080300	0.500900
N291	N29	0.178900	0.674000	0.396100
N301	N30	0.069300	0.578100	0.303100
C571	C57	0.150100	0.699100	0.305000
H571	H57	0.167100	0.750300	0.271800
C581	C58	0.097000	0.651600	0.261100
H581	H58	0.079000	0.671500	0.198100
C591	C59	0.098600	0.552500	0.394000
H591	H59	0.081900	0.501000	0.426900
C601	C60	0.152100	0.600300	0.438300
H601	H60	0.170600	0.580300	0.500900
N311	N31	0.178900	0.174000	0.896100
N321	N32	0.069300	0.078100	0.803100
C611	C61	0.150100	0.199100	0.805000
H611	H61	0.167100	0.250300	0.771800
C621	C62	0.097000	0.151600	0.761100
H621	H62	0.079000	0.171500	0.698100
C631	C63	0.098600	0.052500	0.894000
H631	H63	0.081900	0.001000	0.926900
C641	C64	0.152100	0.100300	0.938300
H641	H64	0.170600	0.080300	0.000900
Cu11	Cu1	0.500000	0.500000	0.724000
Cu21	Cu2	0.500000	0.000000	0.224000
Cu31	Cu3	0.000000	0.500000	0.224000
Cu41	Cu4	0.000000	0.000000	0.724000
Cu51	Cu5	0.750000	0.750000	0.974000
Cu61	Cu6	0.750000	0.250000	0.474000
Cu71	Cu7	0.250000	0.750000	0.474000
Cu81	Cu8	0.250000	0.250000	0.974000
