data_HAXMUP_freeONLY_PM
_symmetry_space_group_name_H-M	'P1'
_cell_length_a	10.063100
_cell_length_b	14.516600
_cell_length_c	14.516600
_cell_angle_alpha	65.171100
_cell_angle_beta	76.639900
_cell_angle_gamma	103.360000
_symmetry_Int_Tables_number 1

loop_
_symmetry_equiv_pos_as_xyz
'x,y,z'

loop_
_atom_site_label
_atom_site_type_symbol
_atom_site_fract_x
_atom_site_fract_y
_atom_site_fract_z
Cu11	Cu1	0.382550	0.887600	0.549350
Cu21	Cu2	0.931900	0.549350	0.563050
Cu31	Cu3	0.494950	0.563050	0.887600
Cu41	Cu4	0.617450	0.112400	0.450650
Cu51	Cu5	0.068100	0.450650	0.436950
Cu61	Cu6	0.505050	0.436950	0.112400
H11	H1	0.473800	0.725000	0.691700
H21	H2	0.031500	0.658400	0.932000
H31	H3	0.105600	0.778900	0.748300
H41	H4	0.090400	0.534600	0.075500
H51	H5	0.244400	0.513000	0.047300
H61	H6	0.627000	0.019400	0.291000
H71	H7	0.451800	0.961400	0.313700
H81	H8	0.532800	0.091400	0.257700
H91	H9	0.165500	0.691700	0.583300
H101	H10	0.963500	0.932000	0.409600
H111	H11	0.853900	0.748300	0.472800
H121	H12	0.165900	0.075500	0.389900
H131	H13	0.291700	0.047300	0.439700
H141	H14	0.918000	0.291000	0.689600
H151	H15	0.765500	0.313700	0.724900
H161	H16	0.790500	0.257700	0.650900
H171	H17	0.748800	0.583300	0.725000
H181	H18	0.373100	0.409600	0.658400
H191	H19	0.326700	0.472800	0.778900
H201	H20	0.555800	0.389900	0.534600
H211	H21	0.731400	0.439700	0.513000
H221	H22	0.607600	0.689600	0.019400
H231	H23	0.490400	0.724900	0.961400
H241	H24	0.441400	0.650900	0.091400
H251	H25	0.526200	0.275000	0.308300
H261	H26	0.968500	0.341600	0.068000
H271	H27	0.894400	0.221100	0.251700
H281	H28	0.909600	0.465400	0.924500
H291	H29	0.755600	0.487000	0.952700
H301	H30	0.373000	0.980600	0.709000
H311	H31	0.548200	0.038600	0.686300
H321	H32	0.467200	0.908600	0.742300
H331	H33	0.834500	0.308300	0.416700
H341	H34	0.036500	0.068000	0.590400
H351	H35	0.146100	0.251700	0.527200
H361	H36	0.834100	0.924500	0.610100
H371	H37	0.708300	0.952700	0.560300
H381	H38	0.082000	0.709000	0.310400
H391	H39	0.234500	0.686300	0.275100
H401	H40	0.209500	0.742300	0.349100
H411	H41	0.251200	0.416700	0.275000
H421	H42	0.626900	0.590400	0.341600
H431	H43	0.673300	0.527200	0.221100
H441	H44	0.444200	0.610100	0.465400
H451	H45	0.268600	0.560300	0.487000
H461	H46	0.392400	0.310400	0.980600
H471	H47	0.509600	0.275100	0.038600
H481	H48	0.558600	0.349100	0.908600
C11	C1	0.123000	0.671700	0.882000
C21	C2	0.381900	0.710700	0.741900
C31	C3	0.167000	0.742100	0.774200
C41	C4	0.216800	0.617900	0.920000
C51	C5	0.522600	0.024000	0.310900
C61	C6	0.005000	0.882000	0.446300
C71	C7	0.123800	0.741900	0.547400
C81	C8	0.941200	0.774200	0.483700
C91	C9	0.136800	0.920000	0.462100
C101	C10	0.833500	0.310900	0.665100
C111	C11	0.451300	0.446300	0.671700
C121	C12	0.671200	0.547400	0.710700
C131	C13	0.424900	0.483700	0.742100
C141	C14	0.598900	0.462100	0.617900
C151	C15	0.498600	0.665100	0.024000
C161	C16	0.877000	0.328300	0.118000
C171	C17	0.618100	0.289300	0.258100
C181	C18	0.833000	0.257900	0.225800
C191	C19	0.783200	0.382100	0.080000
C201	C20	0.477400	0.976000	0.689100
C211	C21	0.995000	0.118000	0.553700
C221	C22	0.876200	0.258100	0.452600
C231	C23	0.058800	0.225800	0.516300
C241	C24	0.863200	0.080000	0.537900
C251	C25	0.166500	0.689100	0.334900
C261	C26	0.548700	0.553700	0.328300
C271	C27	0.328800	0.452600	0.289300
C281	C28	0.575100	0.516300	0.257900
C291	C29	0.401100	0.537900	0.382100
C301	C30	0.501400	0.334900	0.976000
N11	N1	0.299700	0.763900	0.700600
N21	N2	0.348300	0.638900	0.845900
N31	N3	0.180800	0.548800	0.023700
N41	N4	0.000300	0.700600	0.535500
N51	N5	0.194200	0.845900	0.515200
N61	N6	0.204500	0.023700	0.427500
N71	N7	0.535800	0.535500	0.763900
N81	N8	0.709400	0.515200	0.638900
N91	N9	0.632000	0.427500	0.548800
N101	N10	0.700300	0.236100	0.299400
N111	N11	0.651700	0.361100	0.154100
N121	N12	0.819200	0.451200	0.976300
N131	N13	0.999700	0.299400	0.464500
N141	N14	0.805800	0.154100	0.484800
N151	N15	0.795500	0.976300	0.572500
N161	N16	0.464200	0.464500	0.236100
N171	N17	0.290600	0.484800	0.361100
N181	N18	0.368000	0.572500	0.451200
O11	O1	0.487600	0.021700	0.413000
O21	O2	0.900600	0.413000	0.565300
O31	O3	0.465900	0.565300	0.021700
O41	O4	0.512400	0.978300	0.587000
O51	O5	0.099400	0.587000	0.434700
O61	O6	0.534100	0.434700	0.978300
