data_HEBTEP_freeONLY_PM
_symmetry_space_group_name_H-M	'P1'
_cell_length_a	7.336000
_cell_length_b	11.316000
_cell_length_c	17.653000
_cell_angle_alpha	90.000000
_cell_angle_beta	90.594000
_cell_angle_gamma	90.000000
_symmetry_Int_Tables_number 1

loop_
_symmetry_equiv_pos_as_xyz
'x,y,z'

loop_
_atom_site_label
_atom_site_type_symbol
_atom_site_fract_x
_atom_site_fract_y
_atom_site_fract_z
Zn11	Zn1	0.500000	0.500000	0.000000
Zn21	Zn2	0.500000	0.000000	0.500000
Zn31	Zn3	0.000000	0.500000	0.000000
Zn41	Zn4	0.000000	0.000000	0.500000
H11	H1	0.518000	0.312000	0.793800
H21	H2	0.503000	0.203000	0.677700
H31	H3	0.962000	0.510300	0.808900
H41	H4	0.712000	0.525000	0.731800
H51	H5	0.684000	0.410800	0.619500
H61	H6	0.928000	0.298000	0.582000
H71	H7	0.482000	0.812000	0.706200
H81	H8	0.497000	0.703000	0.822300
H91	H9	0.038000	0.010300	0.691100
H101	H10	0.288000	0.025000	0.768200
H111	H11	0.316000	0.910800	0.880500
H121	H12	0.072000	0.798000	0.918000
H131	H13	0.482000	0.688000	0.206200
H141	H14	0.497000	0.797000	0.322300
H151	H15	0.038000	0.489700	0.191100
H161	H16	0.288000	0.475000	0.268200
H171	H17	0.316000	0.589200	0.380500
H181	H18	0.072000	0.702000	0.418000
H191	H19	0.518000	0.188000	0.293800
H201	H20	0.503000	0.297000	0.177700
H211	H21	0.962000	0.989700	0.308900
H221	H22	0.712000	0.975000	0.231800
H231	H23	0.684000	0.089200	0.119500
H241	H24	0.928000	0.202000	0.082000
C11	C1	0.263500	0.377490	0.789460
C21	C2	0.092200	0.325610	0.673410
C31	C3	0.101800	0.388510	0.743240
C41	C4	0.400500	0.253590	0.693940
C51	C5	0.233600	0.170640	0.584480
C61	C6	0.273700	0.425250	0.869280
C71	C7	0.243900	0.254330	0.651130
C81	C8	0.932800	0.339500	0.627390
C91	C9	0.409700	0.315540	0.762970
C101	C10	0.954700	0.463800	0.763260
C111	C11	0.794300	0.410900	0.649310
C121	C12	0.805000	0.474300	0.717390
C131	C13	0.736500	0.877490	0.710540
C141	C14	0.907800	0.825610	0.826590
C151	C15	0.898200	0.888510	0.756760
C161	C16	0.599500	0.753590	0.806060
C171	C17	0.766400	0.670640	0.915520
C181	C18	0.726300	0.925250	0.630720
C191	C19	0.756100	0.754330	0.848870
C201	C20	0.067200	0.839500	0.872610
C211	C21	0.590300	0.815540	0.737030
C221	C22	0.045300	0.963800	0.736740
C231	C23	0.205700	0.910900	0.850690
C241	C24	0.195000	0.974300	0.782610
C251	C25	0.736500	0.622510	0.210540
C261	C26	0.907800	0.674390	0.326590
C271	C27	0.898200	0.611490	0.256760
C281	C28	0.599500	0.746410	0.306060
C291	C29	0.766400	0.829360	0.415520
C301	C30	0.726300	0.574750	0.130720
C311	C31	0.756100	0.745670	0.348870
C321	C32	0.067200	0.660500	0.372610
C331	C33	0.590300	0.684460	0.237030
C341	C34	0.045300	0.536200	0.236740
C351	C35	0.205700	0.589100	0.350690
C361	C36	0.195000	0.525700	0.282610
C371	C37	0.263500	0.122510	0.289460
C381	C38	0.092200	0.174390	0.173410
C391	C39	0.101800	0.111490	0.243240
C401	C40	0.400500	0.246410	0.193940
C411	C41	0.233600	0.329360	0.084480
C421	C42	0.273700	0.074750	0.369280
C431	C43	0.243900	0.245670	0.151130
C441	C44	0.932800	0.160500	0.127390
C451	C45	0.409700	0.184460	0.262970
C461	C46	0.954700	0.036200	0.263260
C471	C47	0.794300	0.089100	0.149310
C481	C48	0.805000	0.025700	0.217390
O11	O1	0.131950	0.417780	0.908460
O21	O2	0.425960	0.463430	0.891980
O31	O3	0.375680	0.153890	0.547030
O41	O4	0.082890	0.120680	0.574350
O51	O5	0.868050	0.917780	0.591540
O61	O6	0.574040	0.963430	0.608020
O71	O7	0.624320	0.653890	0.952970
O81	O8	0.917110	0.620680	0.925650
O91	O9	0.868050	0.582220	0.091540
O101	O10	0.574040	0.536570	0.108020
O111	O11	0.624320	0.846110	0.452970
O121	O12	0.917110	0.879320	0.425650
O131	O13	0.131950	0.082220	0.408460
O141	O14	0.425960	0.036570	0.391980
O151	O15	0.375680	0.346110	0.047030
O161	O16	0.082890	0.379320	0.074350
