data_HEDBEZ_freeONLY_PM
_symmetry_space_group_name_H-M	'P1'
_cell_length_a	10.922900
_cell_length_b	11.537100
_cell_length_c	13.451600
_cell_angle_alpha	69.502000
_cell_angle_beta	80.049000
_cell_angle_gamma	62.253000
_symmetry_Int_Tables_number 1

loop_
_symmetry_equiv_pos_as_xyz
'x,y,z'

loop_
_atom_site_label
_atom_site_type_symbol
_atom_site_fract_x
_atom_site_fract_y
_atom_site_fract_z
Ce11	Ce1	0.622090	0.214770	0.775330
Ce21	Ce2	0.377910	0.785230	0.224670
U11	U1	0.632020	0.701900	0.833250
U21	U2	0.367980	0.298100	0.166750
U31	U3	0.000000	0.500000	0.500000
H11	H1	0.186690	0.097360	0.730390
H21	H2	0.293010	0.000750	0.580450
H31	H3	0.099380	0.362680	0.951930
H41	H4	0.813310	0.902640	0.269610
H51	H5	0.706990	0.999250	0.419550
H61	H6	0.900620	0.637320	0.048070
C11	C1	0.419400	0.027600	0.809500
C21	C2	0.920900	0.276600	0.716800
C31	C3	0.035000	0.257400	0.779500
C41	C4	0.278100	0.134300	0.828400
C51	C5	0.009900	0.337300	0.845100
C61	C6	0.251400	0.213800	0.895800
C71	C7	0.169500	0.154600	0.773400
C81	C8	0.744400	0.745500	0.504000
C91	C9	0.474800	0.746400	0.614900
C101	C10	0.873600	0.455000	0.849500
C111	C11	0.356900	0.198100	0.962400
C121	C12	0.378600	0.000200	0.547800
C131	C13	0.615500	0.875400	0.503400
C141	C14	0.492500	0.874400	0.553700
C151	C15	0.118200	0.311100	0.904000
C161	C16	0.580600	0.972400	0.190500
C171	C17	0.079100	0.723400	0.283200
C181	C18	0.965000	0.742600	0.220500
C191	C19	0.721900	0.865700	0.171600
C201	C20	0.990100	0.662700	0.154900
C211	C21	0.748600	0.786200	0.104200
C221	C22	0.830500	0.845400	0.226600
C231	C23	0.255600	0.254500	0.496000
C241	C24	0.525200	0.253600	0.385100
C251	C25	0.126400	0.545000	0.150500
C261	C26	0.643100	0.801900	0.037600
C271	C27	0.621400	0.999800	0.452200
C281	C28	0.384500	0.124600	0.496600
C291	C29	0.507500	0.125600	0.446300
C301	C30	0.881800	0.688900	0.096000
O11	O1	0.900500	0.356700	0.622600
O21	O2	0.506500	0.692100	0.713300
O31	O3	0.310400	0.216700	0.053700
O41	O4	0.428000	0.908800	0.827100
O51	O5	0.774000	0.482700	0.795800
O61	O6	0.549700	0.618100	0.938900
O71	O7	0.060200	0.502300	0.612500
O81	O8	0.714600	0.783700	0.729500
O91	O9	0.738900	0.631700	0.531400
O101	O10	0.857100	0.206200	0.760100
O111	O11	0.857000	0.750400	0.477600
O121	O12	0.516700	0.060000	0.774000
O131	O13	0.858300	0.528100	0.905500
O141	O14	0.627000	0.412800	0.618000
O151	O15	0.799600	0.969200	0.836900
O161	O16	0.497400	0.435400	0.827700
O171	O17	0.389500	0.361300	0.677200
O181	O18	0.713400	0.172200	0.959500
O191	O19	0.423800	0.703200	0.570000
O201	O20	0.476200	0.172800	0.932700
O211	O21	0.712000	0.134100	0.615200
O221	O22	0.099500	0.643300	0.377400
O231	O23	0.493500	0.307900	0.286700
O241	O24	0.689600	0.783300	0.946300
O251	O25	0.572000	0.091200	0.172900
O261	O26	0.226000	0.517300	0.204200
O271	O27	0.450300	0.381900	0.061100
O281	O28	0.939800	0.497700	0.387500
O291	O29	0.285400	0.216300	0.270500
O301	O30	0.261100	0.368300	0.468600
O311	O31	0.142900	0.793800	0.239900
O321	O32	0.143000	0.249600	0.522400
O331	O33	0.483300	0.940000	0.226000
O341	O34	0.141700	0.471900	0.094500
O351	O35	0.373000	0.587200	0.382000
O361	O36	0.200400	0.030800	0.163100
O371	O37	0.502600	0.564600	0.172300
O381	O38	0.610500	0.638700	0.322800
O391	O39	0.286600	0.827800	0.040500
O401	O40	0.576200	0.296800	0.430000
O411	O41	0.523800	0.827200	0.067300
O421	O42	0.288000	0.865900	0.384800
