data_HEDBID_freeONLY_PM
_symmetry_space_group_name_H-M	'P1'
_cell_length_a	10.898100
_cell_length_b	11.545200
_cell_length_c	13.408600
_cell_angle_alpha	69.399000
_cell_angle_beta	79.959000
_cell_angle_gamma	62.242000
_symmetry_Int_Tables_number 1

loop_
_symmetry_equiv_pos_as_xyz
'x,y,z'

loop_
_atom_site_label
_atom_site_type_symbol
_atom_site_fract_x
_atom_site_fract_y
_atom_site_fract_z
Nd11	Nd1	0.620320	0.216320	0.775910
Nd21	Nd2	0.379680	0.783680	0.224090
U11	U1	0.369230	0.295990	0.167490
U21	U2	0.630770	0.704010	0.832510
U31	U3	0.000000	0.500000	0.500000
H11	H1	0.184410	0.096190	0.732610
H21	H2	0.707230	0.998980	0.416870
H31	H3	0.096650	0.363470	0.953350
H41	H4	0.815590	0.903810	0.267390
H51	H5	0.292770	0.001020	0.583130
H61	H6	0.903350	0.636530	0.046650
C11	C1	0.419100	0.029000	0.810400
C21	C2	0.919300	0.277400	0.717000
C31	C3	0.033200	0.258000	0.780700
C41	C4	0.278000	0.135700	0.829000
C51	C5	0.008500	0.337800	0.845900
C61	C6	0.250100	0.215600	0.896100
C71	C7	0.167700	0.154600	0.774600
C81	C8	0.257500	0.255600	0.496700
C91	C9	0.525500	0.252600	0.385900
C101	C10	0.873200	0.457000	0.847900
C111	C11	0.354900	0.200800	0.963300
C121	C12	0.621900	0.999500	0.450900
C131	C13	0.384600	0.124600	0.497600
C141	C14	0.508800	0.124400	0.447300
C151	C15	0.116000	0.312300	0.904900
C161	C16	0.580900	0.971000	0.189600
C171	C17	0.080700	0.722600	0.283000
C181	C18	0.966800	0.742000	0.219300
C191	C19	0.722000	0.864300	0.171000
C201	C20	0.991500	0.662200	0.154100
C211	C21	0.749900	0.784400	0.103900
C221	C22	0.832300	0.845400	0.225400
C231	C23	0.742500	0.744400	0.503300
C241	C24	0.474500	0.747400	0.614100
C251	C25	0.126800	0.543000	0.152100
C261	C26	0.645100	0.799200	0.036700
C271	C27	0.378100	0.000500	0.549100
C281	C28	0.615400	0.875400	0.502400
C291	C29	0.491200	0.875600	0.552700
C301	C30	0.884000	0.687700	0.095100
O11	O1	0.900500	0.356800	0.622500
O21	O2	0.494700	0.307000	0.287500
O31	O3	0.310700	0.215000	0.054500
O41	O4	0.427200	0.909800	0.827700
O51	O5	0.773800	0.486400	0.793700
O61	O6	0.451000	0.379100	0.061900
O71	O7	0.059200	0.502800	0.612100
O81	O8	0.285500	0.214100	0.272600
O91	O9	0.265000	0.367800	0.470300
O101	O10	0.853700	0.208500	0.761200
O111	O11	0.143500	0.250300	0.524800
O121	O12	0.517000	0.059800	0.778700
O131	O13	0.856600	0.530400	0.904000
O141	O14	0.474800	0.179100	0.931800
O151	O15	0.625000	0.412100	0.619400
O161	O16	0.706900	0.137200	0.617900
O171	O17	0.795300	0.973500	0.837100
O181	O18	0.498000	0.434300	0.826300
O191	O19	0.391200	0.357000	0.677900
O201	O20	0.714400	0.172500	0.955600
O211	O21	0.577000	0.297200	0.429600
O221	O22	0.099500	0.643200	0.377500
O231	O23	0.505300	0.693000	0.712500
O241	O24	0.689300	0.785000	0.945500
O251	O25	0.572800	0.090200	0.172300
O261	O26	0.226200	0.513600	0.206300
O271	O27	0.549000	0.620900	0.938100
O281	O28	0.940800	0.497200	0.387900
O291	O29	0.714500	0.785900	0.727400
O301	O30	0.735000	0.632200	0.529700
O311	O31	0.146300	0.791500	0.238800
O321	O32	0.856500	0.749700	0.475200
O331	O33	0.483000	0.940200	0.221300
O341	O34	0.143400	0.469600	0.096000
O351	O35	0.525200	0.820900	0.068200
O361	O36	0.375000	0.587900	0.380600
O371	O37	0.293100	0.862800	0.382100
O381	O38	0.204700	0.026500	0.162900
O391	O39	0.502000	0.565700	0.173700
O401	O40	0.608800	0.643000	0.322100
O411	O41	0.285600	0.827500	0.044400
O421	O42	0.423000	0.702800	0.570400
