data_HEFDIH_freeONLY_PM
_symmetry_space_group_name_H-M	'P1'
_cell_length_a	12.763000
_cell_length_b	17.707500
_cell_length_c	17.707500
_cell_angle_alpha	65.580400
_cell_angle_beta	76.098400
_cell_angle_gamma	103.902000
_symmetry_Int_Tables_number 1

loop_
_symmetry_equiv_pos_as_xyz
'x,y,z'

loop_
_atom_site_label
_atom_site_type_symbol
_atom_site_fract_x
_atom_site_fract_y
_atom_site_fract_z
Mn11	Mn1	0.864270	0.300590	0.168790
Mn21	Mn2	0.538700	0.751490	0.829130
Mn31	Mn3	0.033060	0.168790	0.530620
Mn41	Mn4	0.367830	0.829130	0.419380
Mn51	Mn5	0.563680	0.530620	0.300590
Mn61	Mn6	0.787210	0.419380	0.751490
Mo11	Mo1	0.718200	0.533190	0.995430
Mo21	Mo2	0.713630	0.995430	0.471380
Mo31	Mo3	0.185010	0.471380	0.533190
H11	H1	0.536400	0.143600	0.238000
H21	H2	0.606700	0.241600	0.155700
H31	H3	0.528700	0.246800	0.288400
H41	H4	0.598400	0.191700	0.332300
H51	H5	0.734800	0.299800	0.343500
H61	H6	0.661700	0.360000	0.321500
H71	H7	0.753400	0.821900	0.884300
H81	H8	0.813700	0.925900	0.816100
H91	H9	0.055400	0.534400	0.916900
H101	H10	0.270400	0.528300	0.080300
H111	H11	0.820500	0.747600	0.682200
H121	H12	0.740700	0.798200	0.649700
H131	H13	0.824400	0.480900	0.204800
H141	H14	0.860000	0.444600	0.288200
H151	H15	0.379300	0.463100	0.023200
H161	H16	0.029200	0.582600	0.150500
H171	H17	0.157100	0.587300	0.115900
H181	H18	0.081700	0.535200	0.219500
H191	H19	0.650100	0.656200	0.676000
H201	H20	0.665300	0.611400	0.768000
H211	H21	0.811500	0.899300	0.697400
H221	H22	0.881900	0.850300	0.747700
H231	H23	0.849200	0.096000	0.167900
H241	H24	0.888900	0.144600	0.062600
H251	H25	0.284100	0.332200	0.026100
H261	H26	0.053600	0.126600	0.093500
H271	H27	0.172700	0.190000	0.082200
H281	H28	0.137100	0.210300	0.999300
H291	H29	0.090500	0.648100	0.950500
H301	H30	0.412700	0.524700	0.738600
H311	H31	0.366800	0.463800	0.843300
H321	H32	0.501100	0.505100	0.784700
H331	H33	0.624600	0.925100	0.914000
H341	H34	0.580300	0.820000	0.966400
H351	H35	0.208600	0.505400	0.852200
H361	H36	0.222600	0.797800	0.004800
H371	H37	0.140800	0.755700	0.967200
H381	H38	0.235000	0.853900	0.905500
H391	H39	0.754900	0.213100	0.068400
H401	H40	0.686300	0.109100	0.134200
H411	H41	0.415200	0.852100	0.980200
H421	H42	0.463300	0.919900	0.876100
H431	H43	0.774400	0.238000	0.618400
H441	H44	0.762400	0.155700	0.602700
H451	H45	0.817100	0.288400	0.464800
H461	H46	0.930700	0.332300	0.476000
H471	H47	0.078300	0.343500	0.356700
H481	H48	0.983200	0.321500	0.318500
H491	H49	0.637700	0.884300	0.293800
H501	H50	0.629800	0.816100	0.258000
H511	H51	0.972300	0.916900	0.548700
H521	H52	0.350700	0.080300	0.391400
H531	H53	0.502700	0.682200	0.570200
H541	H54	0.390400	0.649700	0.552100
H551	H55	0.029200	0.204800	0.314300
H561	H56	0.148200	0.288200	0.267200
H571	H57	0.402500	0.023200	0.513700
H581	H58	0.179700	0.150500	0.266900
H591	H59	0.273000	0.115900	0.296800
H601	H60	0.301200	0.219500	0.245300
H611	H61	0.326100	0.676000	0.667800
H621	H62	0.433300	0.768000	0.620600
H631	H63	0.508900	0.697400	0.403300
H641	H64	0.629600	0.747700	0.402000
H651	H65	0.017100	0.167900	0.736100
H661	H66	0.951500	0.062600	0.792800
H671	H67	0.310200	0.026100	0.641700
H681	H68	0.147100	0.093500	0.779900
H691	H69	0.254900	0.082200	0.727800
H701	H70	0.136400	0.999300	0.790400
H711	H71	0.041000	0.950500	0.401400
H721	H72	0.151300	0.738600	0.736700
H731	H73	0.210100	0.843300	0.692900
H741	H74	0.285800	0.784700	0.710200
H751	H75	0.538600	0.914000	0.160900
H761	H76	0.546700	0.966400	0.213600
H771	H77	0.060800	0.852200	0.642400
H781	H78	0.227400	0.004800	0.197400
H791	H79	0.108000	0.967200	0.277100
H801	H80	0.140500	0.905500	0.240600
H811	H81	0.823300	0.068400	0.718500
H821	H82	0.820500	0.134200	0.756700
H831	H83	0.395400	0.980200	0.167700
H841	H84	0.339400	0.876100	0.204000
H851	H85	0.392800	0.618400	0.143600
H861	H86	0.365100	0.602700	0.241600
H871	H87	0.281900	0.464800	0.246800
H881	H88	0.406700	0.476000	0.191700
H891	H89	0.435000	0.356700	0.299800
H901	H90	0.301700	0.318500	0.360000
H911	H91	0.931500	0.293800	0.821900
H921	H92	0.887800	0.258000	0.925900
H931	H93	0.521000	0.548700	0.534400
H941	H94	0.742100	0.391400	0.528300
H951	H95	0.072900	0.570200	0.747600
H961	H96	0.942500	0.552100	0.798200
H971	H97	0.343500	0.314300	0.480900
H981	H98	0.415400	0.267200	0.444600
H991	H99	0.916200	0.513700	0.463100
H1001	H100	0.446600	0.266900	0.582600
H1011	H101	0.569800	0.296800	0.587300
H1021	H102	0.546500	0.245300	0.535200
H1031	H103	0.993900	0.667800	0.656200
H1041	H104	0.053900	0.620600	0.611400
H1051	H105	0.912200	0.403300	0.899300
H1061	H106	0.031600	0.402000	0.850300
H1071	H107	0.753200	0.736100	0.096000
H1081	H108	0.744300	0.792800	0.144600
H1091	H109	0.951900	0.641700	0.332200
H1101	H110	0.927000	0.779900	0.126600
H1111	H111	0.982700	0.727800	0.190000
H1121	H112	0.926800	0.790400	0.210300
H1131	H113	0.442400	0.401400	0.648100
H1141	H114	0.888000	0.736700	0.524700
H1151	H115	0.903000	0.692900	0.463800
H1161	H116	0.996000	0.710200	0.505100
H1171	H117	0.699500	0.160900	0.925100
H1181	H118	0.760300	0.213600	0.820000
H1191	H119	0.703200	0.642400	0.505400
H1201	H120	0.424800	0.197400	0.797800
H1211	H121	0.385100	0.277100	0.755700
H1221	H122	0.381100	0.240600	0.853900
H1231	H123	0.541800	0.718500	0.213100
H1241	H124	0.577200	0.756700	0.109100
H1251	H125	0.563100	0.167700	0.852100
H1261	H126	0.543400	0.204000	0.919900
C11	C1	0.605200	0.198000	0.212000
C21	C2	0.334400	0.604400	0.845900
C31	C3	0.599500	0.235000	0.276000
C41	C4	0.049500	0.243500	0.084100
C51	C5	0.034500	0.466700	0.157900
C61	C6	0.813900	0.449400	0.023600
C71	C7	0.122500	0.324800	0.081100
C81	C8	0.605300	0.605600	0.972500
C91	C9	0.726300	0.347200	0.295200
C101	C10	0.660200	0.504800	0.130000
C111	C11	0.851200	0.636300	0.867900
C121	C12	0.759700	0.869300	0.828200
C131	C13	0.305100	0.759300	0.922500
C141	C14	0.131600	0.568800	0.904200
C151	C15	0.233600	0.475700	0.081100
C161	C16	0.743900	0.750000	0.700500
C171	C17	0.267000	0.686100	0.904200
C181	C18	0.836900	0.430400	0.245800
C191	C19	0.298100	0.437200	0.046800
C201	C20	0.079700	0.550400	0.161200
C211	C21	0.649900	0.661100	0.728600
C221	C22	0.804900	0.851700	0.753600
C231	C23	0.860000	0.150100	0.115200
C241	C24	0.241700	0.359900	0.047800
C251	C25	0.108500	0.187700	0.062800
C261	C26	0.152000	0.636100	0.924100
C271	C27	0.429700	0.515300	0.791000
C281	C28	0.442600	0.595500	0.801000
C291	C29	0.837800	0.625200	0.014300
C301	C30	0.584100	0.871100	0.914300
C311	C31	0.113200	0.435300	0.116600
C321	C32	0.563700	0.410700	0.071000
C331	C33	0.222300	0.551800	0.865300
C341	C34	0.218100	0.794900	0.952700
C351	C35	0.745400	0.162500	0.123700
C361	C36	0.461700	0.864300	0.921300
C371	C37	0.701300	0.485200	0.902800
C381	C38	0.817200	0.212000	0.590000
C391	C39	0.180300	0.845900	0.549700
C401	C40	0.875500	0.276000	0.489000
C411	C41	0.133600	0.084100	0.672400
C421	C42	0.192400	0.157900	0.375400
C431	C43	0.837500	0.023600	0.527000
C441	C44	0.203600	0.081100	0.594100
C451	C45	0.577800	0.972500	0.421900
C461	C46	0.021500	0.295200	0.357600
C471	C47	0.790200	0.130000	0.365200
C481	C48	0.719100	0.867900	0.495800
C491	C49	0.587900	0.828200	0.302500
C501	C50	0.227600	0.922500	0.318200
C511	C51	0.035800	0.904200	0.527000
C521	C52	0.314700	0.081100	0.443200
C531	C53	0.444400	0.700500	0.549500
C541	C54	0.171200	0.904200	0.409700
C551	C55	0.082700	0.245800	0.323800
C561	C56	0.344900	0.046800	0.516000
C571	C57	0.240900	0.161200	0.288400
C581	C58	0.378500	0.728600	0.610300
C591	C59	0.558500	0.753600	0.394700
C601	C60	0.975200	0.115200	0.734700
C611	C61	0.289500	0.047800	0.592300
C621	C62	0.171300	0.062800	0.749500
C631	C63	0.076100	0.924100	0.439800
C641	C64	0.220700	0.791000	0.693700
C651	C65	0.243600	0.801000	0.603500
C661	C66	0.852100	0.014300	0.360500
C671	C67	0.498400	0.914300	0.214600
C681	C68	0.229800	0.116600	0.448100
C691	C69	0.634700	0.071000	0.518300
C701	C70	0.087600	0.865300	0.582900
C711	C71	0.170800	0.952700	0.252400
C721	C72	0.869100	0.123700	0.713800
C731	C73	0.383000	0.921300	0.214400
C741	C74	0.604100	0.902800	0.612000
C751	C75	0.407200	0.590000	0.198000
C761	C76	0.730000	0.549700	0.604400
C771	C77	0.364500	0.489000	0.235000
C781	C78	0.806000	0.672400	0.243500
C791	C79	0.567800	0.375400	0.466700
C801	C80	0.364500	0.527000	0.449400
C811	C81	0.797700	0.594100	0.324800
C821	C82	0.999700	0.421900	0.605600
C831	C83	0.379100	0.357600	0.347200
C841	C84	0.155400	0.365200	0.504800
C851	C85	0.214900	0.495800	0.636300
C861	C86	0.890400	0.302500	0.869300
C871	C87	0.545800	0.318200	0.759300
C881	C88	0.562800	0.527000	0.568800
C891	C89	0.757900	0.443200	0.475700
C901	C90	0.993900	0.549500	0.750000
C911	C91	0.580900	0.409700	0.686100
C921	C92	0.406500	0.323800	0.430400
C931	C93	0.860900	0.516000	0.437200
C941	C94	0.529300	0.288400	0.550400
C951	C95	0.988800	0.610300	0.661100
C961	C96	0.953200	0.394700	0.851700
C971	C97	0.709900	0.734700	0.150100
C981	C98	0.881800	0.592300	0.359900
C991	C99	0.920800	0.749500	0.187700
C1001	C100	0.515900	0.439800	0.636100
C1011	C101	0.914400	0.693700	0.515300
C1021	C102	0.847100	0.603500	0.595500
C1031	C103	0.212600	0.360500	0.625200
C1041	C104	0.713000	0.214600	0.871100
C1051	C105	0.677900	0.448100	0.435300
C1061	C106	0.153000	0.518300	0.410700
C1071	C107	0.670500	0.582900	0.551800
C1081	C108	0.423200	0.252400	0.794900
C1091	C109	0.582900	0.713800	0.162500
C1101	C110	0.597400	0.214400	0.864300
C1111	C111	0.216100	0.612000	0.485200
N11	N1	0.708900	0.178300	0.196500
N21	N2	0.354100	0.668600	0.865100
N31	N3	0.926200	0.413000	0.197200
N41	N4	0.922600	0.694700	0.801200
N51	N5	0.061800	0.362300	0.114700
N61	N6	0.857300	0.399100	0.043200
N71	N7	0.941900	0.227700	0.107000
N81	N8	0.547700	0.647400	0.958200
N91	N9	0.535600	0.658000	0.775600
N101	N10	0.701300	0.317400	0.234500
N111	N11	0.648000	0.873400	0.835000
N121	N12	0.726400	0.767100	0.772800
N131	N13	0.482800	0.345600	0.112100
N141	N14	0.413700	0.791200	0.907000
N151	N15	0.901700	0.671900	0.026200
N161	N16	0.632100	0.491700	0.201200
N171	N17	0.700300	0.453700	0.857200
N181	N18	0.905400	0.196500	0.625200
N191	N19	0.219200	0.865100	0.466300
N201	N20	0.123400	0.197200	0.389800
N211	N21	0.723800	0.801200	0.504100
N221	N22	0.176500	0.114700	0.523000
N231	N23	0.900500	0.043200	0.557700
N241	N24	0.048900	0.107000	0.665300
N251	N25	0.505900	0.958200	0.394400
N261	N26	0.311200	0.775600	0.566400
N271	N27	0.935800	0.234500	0.448100
N281	N28	0.483000	0.835000	0.291600
N291	N29	0.499200	0.772800	0.460100
N301	N30	0.594900	0.112100	0.542300
N311	N31	0.320700	0.907000	0.301800
N321	N32	0.927900	0.026200	0.301900
N331	N33	0.833300	0.201200	0.307100
N341	N34	0.557500	0.857200	0.689100
N351	N35	0.530600	0.625200	0.178300
N361	N36	0.685500	0.466300	0.668600
N371	N37	0.513200	0.389800	0.413000
N381	N38	0.227900	0.504100	0.694700
N391	N39	0.699500	0.523000	0.362300
N401	N40	0.458200	0.557700	0.399100
N411	N41	0.714200	0.665300	0.227700
N421	N42	0.900300	0.394400	0.647400
N431	N43	0.877600	0.566400	0.658000
N441	N44	0.383900	0.448100	0.317400
N451	N45	0.774600	0.291600	0.873400
N461	N46	0.959300	0.460100	0.767100
N471	N47	0.137200	0.542300	0.345600
N481	N48	0.622500	0.301800	0.791200
N491	N49	0.229800	0.301900	0.671900
N501	N50	0.140400	0.307100	0.491700
N511	N51	0.246600	0.689100	0.453700
