data_HEFVAR_freeONLY_PM
_symmetry_space_group_name_H-M	'P1'
_cell_length_a	15.653000
_cell_length_b	16.079100
_cell_length_c	16.079100
_cell_angle_alpha	112.323000
_cell_angle_beta	90.811800
_cell_angle_gamma	90.811800
_symmetry_Int_Tables_number 1

loop_
_symmetry_equiv_pos_as_xyz
'x,y,z'

loop_
_atom_site_label
_atom_site_type_symbol
_atom_site_fract_x
_atom_site_fract_y
_atom_site_fract_z
Cu11	Cu1	0.065380	0.204900	0.717960
Cu21	Cu2	0.431360	0.812540	0.340940
Cu31	Cu3	0.434620	0.282040	0.795100
Cu41	Cu4	0.068640	0.659060	0.187460
Cu51	Cu5	0.934620	0.795100	0.282040
Cu61	Cu6	0.568640	0.187460	0.659060
Cu71	Cu7	0.565380	0.717960	0.204900
Cu81	Cu8	0.931360	0.340940	0.812540
Cu91	Cu9	0.250000	0.771310	0.228690
Cu101	Cu10	0.750000	0.228690	0.771310
H11	H1	0.158600	0.156000	0.092200
H21	H2	0.104200	0.157500	0.957100
H31	H3	0.056300	0.421500	0.085500
H41	H4	0.121700	0.416900	0.214900
H51	H5	0.773600	0.896900	0.710700
H61	H6	0.857200	0.019300	0.716500
H71	H7	0.064400	0.890200	0.757800
H81	H8	0.975800	0.771800	0.750800
H91	H9	0.778400	0.409300	0.459500
H101	H10	0.850700	0.413000	0.588400
H111	H11	0.887500	0.144100	0.464100
H121	H12	0.808300	0.147600	0.340000
H131	H13	0.331600	0.540700	0.718300
H141	H14	0.262900	0.418100	0.732900
H151	H15	0.036400	0.536800	0.730200
H161	H16	0.111200	0.653600	0.711400
H171	H17	0.037700	0.079000	0.529000
H181	H18	0.106000	0.963900	0.419300
H191	H19	0.324100	0.037700	0.568100
H201	H20	0.249600	0.150900	0.676500
H211	H21	0.341400	0.907800	0.844000
H221	H22	0.395800	0.042900	0.842500
H231	H23	0.443700	0.914500	0.578500
H241	H24	0.378300	0.785100	0.583100
H251	H25	0.726400	0.289300	0.103100
H261	H26	0.642800	0.283500	0.980700
H271	H27	0.435600	0.242200	0.109800
H281	H28	0.524200	0.249200	0.228200
H291	H29	0.721600	0.540500	0.590700
H301	H30	0.649300	0.411600	0.587000
H311	H31	0.612500	0.535900	0.855900
H321	H32	0.691700	0.660000	0.852400
H331	H33	0.168400	0.281700	0.459300
H341	H34	0.237100	0.267100	0.581900
H351	H35	0.463600	0.269800	0.463200
H361	H36	0.388800	0.288600	0.346400
H371	H37	0.462300	0.471000	0.921000
H381	H38	0.394000	0.580700	0.036100
H391	H39	0.175900	0.431900	0.962300
H401	H40	0.250400	0.323500	0.849100
H411	H41	0.841400	0.844000	0.907800
H421	H42	0.895800	0.842500	0.042900
H431	H43	0.943700	0.578500	0.914500
H441	H44	0.878300	0.583100	0.785100
H451	H45	0.226400	0.103100	0.289300
H461	H46	0.142800	0.980700	0.283500
H471	H47	0.935600	0.109800	0.242200
H481	H48	0.024200	0.228200	0.249200
H491	H49	0.221600	0.590700	0.540500
H501	H50	0.149300	0.587000	0.411600
H511	H51	0.112500	0.855900	0.535900
H521	H52	0.191700	0.852400	0.660000
H531	H53	0.668400	0.459300	0.281700
H541	H54	0.737100	0.581900	0.267100
H551	H55	0.963600	0.463200	0.269800
H561	H56	0.888800	0.346400	0.288600
H571	H57	0.962300	0.921000	0.471000
H581	H58	0.894000	0.036100	0.580700
H591	H59	0.675900	0.962300	0.431900
H601	H60	0.750400	0.849100	0.323500
H611	H61	0.658600	0.092200	0.156000
H621	H62	0.604200	0.957100	0.157500
H631	H63	0.556300	0.085500	0.421500
H641	H64	0.621700	0.214900	0.416900
H651	H65	0.273600	0.710700	0.896900
H661	H66	0.357200	0.716500	0.019300
H671	H67	0.564400	0.757800	0.890200
H681	H68	0.475800	0.750800	0.771800
H691	H69	0.278400	0.459500	0.409300
H701	H70	0.350700	0.588400	0.413000
H711	H71	0.387500	0.464100	0.144100
H721	H72	0.308300	0.340000	0.147600
H731	H73	0.831600	0.718300	0.540700
H741	H74	0.762900	0.732900	0.418100
H751	H75	0.536400	0.730200	0.536800
H761	H76	0.611200	0.711400	0.653600
H771	H77	0.537700	0.529000	0.079000
H781	H78	0.606000	0.419300	0.963900
H791	H79	0.824100	0.568100	0.037700
H801	H80	0.749600	0.676500	0.150900
Rh11	Rh1	0.209340	0.284490	0.277350
Rh21	Rh2	0.290660	0.722650	0.715510
Rh31	Rh3	0.790660	0.715510	0.722650
Rh41	Rh4	0.709340	0.277350	0.284490
C11	C1	0.140400	0.211200	0.090000
C21	C2	0.106900	0.211300	0.009300
C31	C3	0.077500	0.291200	0.006400
C41	C4	0.080000	0.367200	0.084600
C51	C5	0.117400	0.363500	0.162100
C61	C6	0.045100	0.294000	0.920200
C71	C7	0.833700	0.895700	0.719500
C81	C8	0.882900	0.968800	0.722800
C91	C9	0.971000	0.967100	0.735300
C101	C10	0.004800	0.892400	0.747000
C111	C11	0.951800	0.822200	0.743000
C121	C12	0.031200	0.042300	0.735300
C131	C13	0.799000	0.354700	0.461700
C141	C14	0.841900	0.357500	0.538700
C151	C15	0.872100	0.277300	0.542100
C161	C16	0.863200	0.198500	0.465900
C171	C17	0.817200	0.201600	0.391400
C181	C18	0.911900	0.278100	0.628300
C191	C19	0.271100	0.540100	0.721500
C201	C20	0.230500	0.466500	0.730100
C211	C21	0.143100	0.464400	0.734600
C221	C22	0.097100	0.536300	0.727900
C231	C23	0.142100	0.606000	0.718000
C241	C24	0.093600	0.391000	0.750600
C251	C25	0.096500	0.070000	0.537600
C261	C26	0.136900	0.001400	0.471800
C271	C27	0.221200	0.987300	0.482100
C281	C28	0.264900	0.044700	0.559500
C291	C29	0.219800	0.112400	0.623800
C301	C30	0.268500	0.910400	0.413400
C311	C31	0.359600	0.910000	0.788800
C321	C32	0.393100	0.990700	0.788700
C331	C33	0.422500	0.993600	0.708800
C341	C34	0.420000	0.915400	0.632800
C351	C35	0.382600	0.837900	0.636500
C361	C36	0.454900	0.079800	0.706000
C371	C37	0.666300	0.280500	0.104300
C381	C38	0.617100	0.277200	0.031200
C391	C39	0.529000	0.264700	0.032900
C401	C40	0.495200	0.253000	0.107600
C411	C41	0.548200	0.257000	0.177800
C421	C42	0.468800	0.264700	0.957700
C431	C43	0.701000	0.538300	0.645300
C441	C44	0.658100	0.461300	0.642500
C451	C45	0.627900	0.457900	0.722700
C461	C46	0.636800	0.534100	0.801500
C471	C47	0.682800	0.608600	0.798400
C481	C48	0.588100	0.371700	0.721900
C491	C49	0.228900	0.278500	0.459900
C501	C50	0.269500	0.269900	0.533500
C511	C51	0.356900	0.265400	0.535600
C521	C52	0.402900	0.272100	0.463700
C531	C53	0.357900	0.282000	0.394000
C541	C54	0.406400	0.249400	0.609000
C551	C55	0.403500	0.462400	0.930000
C561	C56	0.363100	0.528200	0.998600
C571	C57	0.278800	0.517900	0.012700
C581	C58	0.235100	0.440500	0.955300
C591	C59	0.280200	0.376200	0.887600
C601	C60	0.231500	0.586600	0.089600
C611	C61	0.859600	0.788800	0.910000
C621	C62	0.893100	0.788700	0.990700
C631	C63	0.922500	0.708800	0.993600
C641	C64	0.920000	0.632800	0.915400
C651	C65	0.882600	0.636500	0.837900
C661	C66	0.954900	0.706000	0.079800
C671	C67	0.166300	0.104300	0.280500
C681	C68	0.117100	0.031200	0.277200
C691	C69	0.029000	0.032900	0.264700
C701	C70	0.995200	0.107600	0.253000
C711	C71	0.048200	0.177800	0.257000
C721	C72	0.968800	0.957700	0.264700
C731	C73	0.201000	0.645300	0.538300
C741	C74	0.158100	0.642500	0.461300
C751	C75	0.127900	0.722700	0.457900
C761	C76	0.136800	0.801500	0.534100
C771	C77	0.182800	0.798400	0.608600
C781	C78	0.088100	0.721900	0.371700
C791	C79	0.728900	0.459900	0.278500
C801	C80	0.769500	0.533500	0.269900
C811	C81	0.856900	0.535600	0.265400
C821	C82	0.902900	0.463700	0.272100
C831	C83	0.857900	0.394000	0.282000
C841	C84	0.906400	0.609000	0.249400
C851	C85	0.903500	0.930000	0.462400
C861	C86	0.863100	0.998600	0.528200
C871	C87	0.778800	0.012700	0.517900
C881	C88	0.735100	0.955300	0.440500
C891	C89	0.780200	0.887600	0.376200
C901	C90	0.731500	0.089600	0.586600
C911	C91	0.640400	0.090000	0.211200
C921	C92	0.606900	0.009300	0.211300
C931	C93	0.577500	0.006400	0.291200
C941	C94	0.580000	0.084600	0.367200
C951	C95	0.617400	0.162100	0.363500
C961	C96	0.545100	0.920200	0.294000
C971	C97	0.333700	0.719500	0.895700
C981	C98	0.382900	0.722800	0.968800
C991	C99	0.471000	0.735300	0.967100
C1001	C100	0.504800	0.747000	0.892400
C1011	C101	0.451800	0.743000	0.822200
C1021	C102	0.531200	0.735300	0.042300
C1031	C103	0.299000	0.461700	0.354700
C1041	C104	0.341900	0.538700	0.357500
C1051	C105	0.372100	0.542100	0.277300
C1061	C106	0.363200	0.465900	0.198500
C1071	C107	0.317200	0.391400	0.201600
C1081	C108	0.411900	0.628300	0.278100
C1091	C109	0.771100	0.721500	0.540100
C1101	C110	0.730500	0.730100	0.466500
C1111	C111	0.643100	0.734600	0.464400
C1121	C112	0.597100	0.727900	0.536300
C1131	C113	0.642100	0.718000	0.606000
C1141	C114	0.593600	0.750600	0.391000
C1151	C115	0.596500	0.537600	0.070000
C1161	C116	0.636900	0.471800	0.001400
C1171	C117	0.721200	0.482100	0.987300
C1181	C118	0.764900	0.559500	0.044700
C1191	C119	0.719800	0.623800	0.112400
C1201	C120	0.768500	0.413400	0.910400
N11	N1	0.147900	0.285800	0.164600
N21	N2	0.867100	0.822400	0.728400
N31	N3	0.785400	0.278800	0.390600
N41	N4	0.228700	0.609900	0.717500
N51	N5	0.137400	0.126000	0.615200
N61	N6	0.352100	0.835400	0.714200
N71	N7	0.632900	0.271600	0.177600
N81	N8	0.714600	0.609400	0.721200
N91	N9	0.271300	0.282500	0.390100
N101	N10	0.362600	0.384800	0.874000
N111	N11	0.852100	0.714200	0.835400
N121	N12	0.132900	0.177600	0.271600
N131	N13	0.214600	0.721200	0.609400
N141	N14	0.771300	0.390100	0.282500
N151	N15	0.862600	0.874000	0.384800
N161	N16	0.647900	0.164600	0.285800
N171	N17	0.367100	0.728400	0.822400
N181	N18	0.285400	0.390600	0.278800
N191	N19	0.728700	0.717500	0.609900
N201	N20	0.637400	0.615200	0.126000
Cl11	Cl1	0.308790	0.185070	0.188930
Cl21	Cl2	0.110590	0.385110	0.368330
Cl31	Cl3	0.191210	0.811070	0.814930
Cl41	Cl4	0.389410	0.631670	0.614890
Cl51	Cl5	0.691210	0.814930	0.811070
Cl61	Cl6	0.889410	0.614890	0.631670
Cl71	Cl7	0.808790	0.188930	0.185070
Cl81	Cl8	0.610590	0.368330	0.385110
O11	O1	0.986300	0.348100	0.924700
O21	O2	0.079800	0.242100	0.849700
O31	O3	0.995400	0.103000	0.714200
O41	O4	0.106900	0.037700	0.750500
O51	O5	0.882800	0.336100	0.698700
O61	O6	0.968600	0.221700	0.623500
O71	O7	0.125200	0.313800	0.720200
O81	O8	0.026200	0.414300	0.793100
O91	O9	0.340200	0.891400	0.435200
O101	O10	0.226800	0.872700	0.339500
O111	O11	0.366200	0.805700	0.232100
O121	O12	0.513700	0.075300	0.651900
O131	O13	0.420200	0.150300	0.757900
O141	O14	0.504600	0.285800	0.897000
O151	O15	0.393100	0.249500	0.962300
O161	O16	0.617200	0.301300	0.663900
O171	O17	0.531400	0.376500	0.778300
O181	O18	0.374800	0.279800	0.686200
O191	O19	0.473800	0.206900	0.585700
O201	O20	0.159800	0.564800	0.108600
O211	O21	0.273200	0.660500	0.127300
O221	O22	0.133800	0.767900	0.194300
O231	O23	0.013700	0.651900	0.075300
O241	O24	0.920200	0.757900	0.150300
O251	O25	0.004600	0.897000	0.285800
O261	O26	0.893100	0.962300	0.249500
O271	O27	0.117200	0.663900	0.301300
O281	O28	0.031400	0.778300	0.376500
O291	O29	0.874800	0.686200	0.279800
O301	O30	0.973800	0.585700	0.206900
O311	O31	0.659800	0.108600	0.564800
O321	O32	0.773200	0.127300	0.660500
O331	O33	0.633800	0.194300	0.767900
O341	O34	0.486300	0.924700	0.348100
O351	O35	0.579800	0.849700	0.242100
O361	O36	0.495400	0.714200	0.103000
O371	O37	0.606900	0.750500	0.037700
O381	O38	0.382800	0.698700	0.336100
O391	O39	0.468600	0.623500	0.221700
O401	O40	0.625200	0.720200	0.313800
O411	O41	0.526200	0.793100	0.414300
O421	O42	0.840200	0.435200	0.891400
O431	O43	0.726800	0.339500	0.872700
O441	O44	0.866200	0.232100	0.805700
