data_HEGJUZ_freeONLY_PM
_symmetry_space_group_name_H-M	'P1'
_cell_length_a	14.608000
_cell_length_b	18.041000
_cell_length_c	24.803000
_cell_angle_alpha	90.000000
_cell_angle_beta	90.005000
_cell_angle_gamma	90.000000
_symmetry_Int_Tables_number 1

loop_
_symmetry_equiv_pos_as_xyz
'x,y,z'

loop_
_atom_site_label
_atom_site_type_symbol
_atom_site_fract_x
_atom_site_fract_y
_atom_site_fract_z
Zn11	Zn1	0.539670	0.064590	0.850540
Zn21	Zn2	0.506210	0.256340	0.849070
Zn31	Zn3	0.468570	0.449920	0.850110
Zn41	Zn4	0.039670	0.435410	0.350540
Zn51	Zn5	0.006210	0.243660	0.349070
Zn61	Zn6	0.968570	0.050080	0.350110
H11	H1	0.486000	0.943300	0.924900
H21	H2	0.467200	0.815400	0.926900
H31	H3	0.556000	0.810500	0.771100
H41	H4	0.571800	0.937000	0.774500
H51	H5	0.523900	0.571300	0.923900
H61	H6	0.544300	0.698400	0.925400
H71	H7	0.447300	0.706400	0.772400
H81	H8	0.429000	0.578600	0.775100
H91	H9	0.832800	0.093700	0.818600
H101	H10	0.982900	0.138500	0.814600
H111	H11	0.900200	0.331900	0.882400
H121	H12	0.750100	0.287000	0.886300
H131	H13	0.019300	0.379100	0.848100
H141	H14	0.167300	0.424700	0.845100
H151	H15	0.265600	0.216600	0.832500
H161	H16	0.117600	0.169400	0.839800
H171	H17	0.375000	0.026400	0.987700
H181	H18	0.286000	0.026300	0.065500
H191	H19	0.261600	0.250400	0.056300
H201	H20	0.346000	0.249300	0.975800
H211	H21	0.156600	0.035800	0.110000
H221	H22	0.078400	0.030200	0.192000
H231	H23	0.180800	0.230500	0.232500
H241	H24	0.252400	0.239200	0.148900
H251	H25	0.335800	0.044400	0.729800
H261	H26	0.240500	0.044800	0.655000
H271	H27	0.346000	0.241900	0.608900
H281	H28	0.437800	0.244400	0.686200
H291	H29	0.223100	0.026500	0.569400
H301	H30	0.131200	0.020300	0.492900
H311	H31	0.121900	0.244000	0.486400
H321	H32	0.216600	0.250800	0.561600
H331	H33	0.986000	0.556700	0.424900
H341	H34	0.967200	0.684600	0.426900
H351	H35	0.056000	0.689500	0.271100
H361	H36	0.071800	0.563000	0.274500
H371	H37	0.023900	0.928700	0.423900
H381	H38	0.044300	0.801600	0.425400
H391	H39	0.947300	0.793600	0.272400
H401	H40	0.929000	0.921400	0.275100
H411	H41	0.332800	0.406300	0.318600
H421	H42	0.482900	0.361500	0.314600
H431	H43	0.400200	0.168100	0.382400
H441	H44	0.250100	0.213000	0.386300
H451	H45	0.519300	0.120900	0.348100
H461	H46	0.667300	0.075300	0.345100
H471	H47	0.765600	0.283400	0.332500
H481	H48	0.617600	0.330600	0.339800
H491	H49	0.875000	0.473600	0.487700
H501	H50	0.786000	0.473700	0.565500
H511	H51	0.761600	0.249600	0.556300
H521	H52	0.846000	0.250700	0.475800
H531	H53	0.656600	0.464200	0.610000
H541	H54	0.578400	0.469800	0.692000
H551	H55	0.680800	0.269500	0.732500
H561	H56	0.752400	0.260800	0.648900
H571	H57	0.835800	0.455600	0.229800
H581	H58	0.740500	0.455200	0.155000
H591	H59	0.846000	0.258100	0.108900
H601	H60	0.937800	0.255600	0.186200
H611	H61	0.723100	0.473500	0.069400
H621	H62	0.631200	0.479700	0.992900
H631	H63	0.621900	0.256000	0.986400
H641	H64	0.716600	0.249200	0.061600
C11	C1	0.500800	0.915300	0.893680
C21	C2	0.488700	0.839200	0.895120
C31	C3	0.508900	0.798110	0.848990
C41	C4	0.541200	0.836600	0.803220
C51	C5	0.550900	0.911600	0.805700
C61	C6	0.508300	0.599300	0.892750
C71	C7	0.520400	0.675000	0.894050
C81	C8	0.497300	0.716710	0.849100
C91	C9	0.463200	0.679600	0.804040
C101	C10	0.452900	0.603300	0.805860
C111	C11	0.681300	0.157400	0.856530
C121	C12	0.777000	0.186100	0.852530
C131	C13	0.846300	0.142200	0.831310
C141	C14	0.935800	0.169200	0.828660
C151	C15	0.956900	0.240780	0.846480
C161	C16	0.886800	0.283800	0.868870
C171	C17	0.797300	0.256900	0.871500
C181	C18	0.052600	0.269400	0.842850
C191	C19	0.069300	0.345600	0.845300
C201	C20	0.157200	0.372700	0.843710
C211	C21	0.231200	0.325000	0.840140
C221	C22	0.215400	0.249600	0.836850
C231	C23	0.127200	0.221500	0.839840
C241	C24	0.327400	0.353600	0.838780
C251	C25	0.425900	0.137300	0.924540
C261	C26	0.368400	0.138400	0.974500
C271	C27	0.351100	0.071600	0.001360
C281	C28	0.299100	0.071800	0.047840
C291	C29	0.265400	0.138400	0.069370
C301	C30	0.283800	0.204800	0.042230
C311	C31	0.334700	0.204300	0.994500
C321	C32	0.213900	0.137000	0.121280
C331	C33	0.161100	0.075900	0.134690
C341	C34	0.114700	0.072300	0.183540
C351	C35	0.121700	0.130300	0.219590
C361	C36	0.174700	0.191400	0.207100
C371	C37	0.218700	0.195900	0.157890
C381	C38	0.076300	0.124300	0.273680
C391	C39	0.457000	0.141800	0.764540
C401	C40	0.397600	0.143400	0.715740
C411	C41	0.337900	0.085000	0.705430
C421	C42	0.281800	0.084700	0.660630
C431	C43	0.285800	0.142700	0.623680
C441	C44	0.343800	0.201800	0.633640
C451	C45	0.399200	0.203100	0.679510
C461	C46	0.228100	0.139400	0.574100
C471	C47	0.202600	0.070900	0.552720
C481	C48	0.147400	0.067300	0.507260
C491	C49	0.115800	0.130500	0.482780
C501	C50	0.142400	0.199800	0.503350
C511	C51	0.198300	0.203700	0.548230
C521	C52	0.053100	0.127100	0.435390
C531	C53	0.000800	0.584700	0.393680
C541	C54	0.988700	0.660800	0.395120
C551	C55	0.008900	0.701890	0.348990
C561	C56	0.041200	0.663400	0.303220
C571	C57	0.050900	0.588400	0.305700
C581	C58	0.008300	0.900700	0.392750
C591	C59	0.020400	0.825000	0.394050
C601	C60	0.997300	0.783290	0.349100
C611	C61	0.963200	0.820400	0.304040
C621	C62	0.952900	0.896700	0.305860
C631	C63	0.181300	0.342600	0.356530
C641	C64	0.277000	0.313900	0.352530
C651	C65	0.346300	0.357800	0.331310
C661	C66	0.435800	0.330800	0.328660
C671	C67	0.456900	0.259220	0.346480
C681	C68	0.386800	0.216200	0.368870
C691	C69	0.297300	0.243100	0.371500
C701	C70	0.552600	0.230600	0.342850
C711	C71	0.569300	0.154400	0.345300
C721	C72	0.657200	0.127300	0.343710
C731	C73	0.731200	0.175000	0.340140
C741	C74	0.715400	0.250400	0.336850
C751	C75	0.627200	0.278500	0.339840
C761	C76	0.827400	0.146400	0.338780
C771	C77	0.925900	0.362700	0.424540
C781	C78	0.868400	0.361600	0.474500
C791	C79	0.851100	0.428400	0.501360
C801	C80	0.799100	0.428200	0.547840
C811	C81	0.765400	0.361600	0.569370
C821	C82	0.783800	0.295200	0.542230
C831	C83	0.834700	0.295700	0.494500
C841	C84	0.713900	0.363000	0.621280
C851	C85	0.661100	0.424100	0.634690
C861	C86	0.614700	0.427700	0.683540
C871	C87	0.621700	0.369700	0.719590
C881	C88	0.674700	0.308600	0.707100
C891	C89	0.718700	0.304100	0.657890
C901	C90	0.576300	0.375700	0.773680
C911	C91	0.957000	0.358200	0.264540
C921	C92	0.897600	0.356600	0.215740
C931	C93	0.837900	0.415000	0.205430
C941	C94	0.781800	0.415300	0.160630
C951	C95	0.785800	0.357300	0.123680
C961	C96	0.843800	0.298200	0.133640
C971	C97	0.899200	0.296900	0.179510
C981	C98	0.728100	0.360600	0.074100
C991	C99	0.702600	0.429100	0.052720
C1001	C100	0.647400	0.432700	0.007260
C1011	C101	0.615800	0.369500	0.982780
C1021	C102	0.642400	0.300200	0.003350
C1031	C103	0.698300	0.296300	0.048230
C1041	C104	0.553100	0.372900	0.935390
N11	N1	0.532300	0.951340	0.850270
N21	N2	0.475300	0.563030	0.849280
N31	N3	0.032300	0.548660	0.350270
N41	N4	0.975300	0.936970	0.349280
O11	O1	0.667710	0.091230	0.841220
O21	O2	0.620570	0.197750	0.876750
O31	O3	0.340440	0.420970	0.853070
O41	O4	0.389740	0.312510	0.821620
O51	O5	0.478800	0.081580	0.918950
O61	O6	0.416350	0.188410	0.890630
O71	O7	0.025100	0.068130	0.280620
O81	O8	0.093520	0.171620	0.309430
O91	O9	0.461700	0.080470	0.788390
O101	O10	0.501430	0.198940	0.776770
O111	O11	0.044700	0.063940	0.413550
O121	O12	0.012600	0.184380	0.420670
O131	O13	0.167710	0.408770	0.341220
O141	O14	0.120570	0.302250	0.376750
O151	O15	0.840440	0.079030	0.353070
O161	O16	0.889740	0.187490	0.321620
O171	O17	0.978800	0.418420	0.418950
O181	O18	0.916350	0.311590	0.390630
O191	O19	0.525100	0.431870	0.780620
O201	O20	0.593520	0.328380	0.809430
O211	O21	0.961700	0.419530	0.288390
O221	O22	0.001430	0.301060	0.276770
O231	O23	0.544700	0.436060	0.913550
O241	O24	0.512600	0.315620	0.920670
Zn71	Zn7	0.960330	0.564590	0.649460
Zn81	Zn8	0.993790	0.756340	0.650930
Zn91	Zn9	0.031430	0.949920	0.649890
Zn101	Zn10	0.460330	0.935410	0.149460
Zn111	Zn11	0.493790	0.743660	0.150930
Zn121	Zn12	0.531430	0.550080	0.149890
H651	H65	0.014000	0.443300	0.575100
H661	H66	0.032800	0.315400	0.573100
H671	H67	0.944000	0.310500	0.728900
H681	H68	0.928200	0.437000	0.725500
H691	H69	0.976100	0.071300	0.576100
H701	H70	0.955700	0.198400	0.574600
H711	H71	0.052700	0.206400	0.727600
H721	H72	0.071000	0.078600	0.724900
H731	H73	0.667200	0.593700	0.681400
H741	H74	0.517100	0.638500	0.685400
H751	H75	0.599800	0.831900	0.617600
H761	H76	0.749900	0.787000	0.613700
H771	H77	0.480700	0.879100	0.651900
H781	H78	0.332700	0.924700	0.654900
H791	H79	0.234400	0.716600	0.667500
H801	H80	0.382400	0.669400	0.660200
H811	H81	0.125000	0.526400	0.512300
H821	H82	0.214000	0.526300	0.434500
H831	H83	0.238400	0.750400	0.443700
H841	H84	0.154000	0.749300	0.524200
H851	H85	0.343400	0.535800	0.390000
H861	H86	0.421600	0.530200	0.308000
H871	H87	0.319200	0.730500	0.267500
H881	H88	0.247600	0.739200	0.351100
H891	H89	0.164200	0.544400	0.770200
H901	H90	0.259500	0.544800	0.845000
H911	H91	0.154000	0.741900	0.891100
H921	H92	0.062200	0.744400	0.813800
H931	H93	0.276900	0.526500	0.930600
H941	H94	0.368800	0.520300	0.007100
H951	H95	0.378100	0.744000	0.013600
H961	H96	0.283400	0.750800	0.938400
H971	H97	0.514000	0.056700	0.075100
H981	H98	0.532800	0.184600	0.073100
H991	H99	0.444000	0.189500	0.228900
H1001	H100	0.428200	0.063000	0.225500
H1011	H101	0.476100	0.428700	0.076100
H1021	H102	0.455700	0.301600	0.074600
H1031	H103	0.552700	0.293600	0.227600
H1041	H104	0.571000	0.421400	0.224900
H1051	H105	0.167200	0.906300	0.181400
H1061	H106	0.017100	0.861500	0.185400
H1071	H107	0.099800	0.668100	0.117600
H1081	H108	0.249900	0.713000	0.113700
H1091	H109	0.980700	0.620900	0.151900
H1101	H110	0.832700	0.575300	0.154900
H1111	H111	0.734400	0.783400	0.167500
H1121	H112	0.882400	0.830600	0.160200
H1131	H113	0.625000	0.973600	0.012300
H1141	H114	0.714000	0.973700	0.934500
H1151	H115	0.738400	0.749600	0.943700
H1161	H116	0.654000	0.750700	0.024200
H1171	H117	0.843400	0.964200	0.890000
H1181	H118	0.921600	0.969800	0.808000
H1191	H119	0.819200	0.769500	0.767500
H1201	H120	0.747600	0.760800	0.851100
H1211	H121	0.664200	0.955600	0.270200
H1221	H122	0.759500	0.955200	0.345000
H1231	H123	0.654000	0.758100	0.391100
H1241	H124	0.562200	0.755600	0.313800
H1251	H125	0.776900	0.973500	0.430600
H1261	H126	0.868800	0.979700	0.507100
H1271	H127	0.878100	0.756000	0.513600
H1281	H128	0.783400	0.749200	0.438400
C1051	C105	0.999200	0.415300	0.606320
C1061	C106	0.011300	0.339200	0.604880
C1071	C107	0.991100	0.298110	0.651010
C1081	C108	0.958800	0.336600	0.696780
C1091	C109	0.949100	0.411600	0.694300
C1101	C110	0.991700	0.099300	0.607250
C1111	C111	0.979600	0.175000	0.605950
C1121	C112	0.002700	0.216710	0.650900
C1131	C113	0.036800	0.179600	0.695960
C1141	C114	0.047100	0.103300	0.694140
C1151	C115	0.818700	0.657400	0.643470
C1161	C116	0.723000	0.686100	0.647470
C1171	C117	0.653700	0.642200	0.668690
C1181	C118	0.564200	0.669200	0.671340
C1191	C119	0.543100	0.740780	0.653520
C1201	C120	0.613200	0.783800	0.631130
C1211	C121	0.702700	0.756900	0.628500
C1221	C122	0.447400	0.769400	0.657150
C1231	C123	0.430700	0.845600	0.654700
C1241	C124	0.342800	0.872700	0.656290
C1251	C125	0.268800	0.825000	0.659860
C1261	C126	0.284600	0.749600	0.663150
C1271	C127	0.372800	0.721500	0.660160
C1281	C128	0.172600	0.853600	0.661220
C1291	C129	0.074100	0.637300	0.575460
C1301	C130	0.131600	0.638400	0.525500
C1311	C131	0.148900	0.571600	0.498640
C1321	C132	0.200900	0.571800	0.452160
C1331	C133	0.234600	0.638400	0.430630
C1341	C134	0.216200	0.704800	0.457770
C1351	C135	0.165300	0.704300	0.505500
C1361	C136	0.286100	0.637000	0.378720
C1371	C137	0.338900	0.575900	0.365310
C1381	C138	0.385300	0.572300	0.316460
C1391	C139	0.378300	0.630300	0.280410
C1401	C140	0.325300	0.691400	0.292900
C1411	C141	0.281300	0.695900	0.342110
C1421	C142	0.423700	0.624300	0.226320
C1431	C143	0.043000	0.641800	0.735460
C1441	C144	0.102400	0.643400	0.784260
C1451	C145	0.162100	0.585000	0.794570
C1461	C146	0.218200	0.584700	0.839370
C1471	C147	0.214200	0.642700	0.876320
C1481	C148	0.156200	0.701800	0.866360
C1491	C149	0.100800	0.703100	0.820490
C1501	C150	0.271900	0.639400	0.925900
C1511	C151	0.297400	0.570900	0.947280
C1521	C152	0.352600	0.567300	0.992740
C1531	C153	0.384200	0.630500	0.017220
C1541	C154	0.357600	0.699800	0.996650
C1551	C155	0.301700	0.703700	0.951770
C1561	C156	0.446900	0.627100	0.064610
C1571	C157	0.499200	0.084700	0.106320
C1581	C158	0.511300	0.160800	0.104880
C1591	C159	0.491100	0.201890	0.151010
C1601	C160	0.458800	0.163400	0.196780
C1611	C161	0.449100	0.088400	0.194300
C1621	C162	0.491700	0.400700	0.107250
C1631	C163	0.479600	0.325000	0.105950
C1641	C164	0.502700	0.283290	0.150900
C1651	C165	0.536800	0.320400	0.195960
C1661	C166	0.547100	0.396700	0.194140
C1671	C167	0.318700	0.842600	0.143470
C1681	C168	0.223000	0.813900	0.147470
C1691	C169	0.153700	0.857800	0.168690
C1701	C170	0.064200	0.830800	0.171340
C1711	C171	0.043100	0.759220	0.153520
C1721	C172	0.113200	0.716200	0.131130
C1731	C173	0.202700	0.743100	0.128500
C1741	C174	0.947400	0.730600	0.157150
C1751	C175	0.930700	0.654400	0.154700
C1761	C176	0.842800	0.627300	0.156290
C1771	C177	0.768800	0.675000	0.159860
C1781	C178	0.784600	0.750400	0.163150
C1791	C179	0.872800	0.778500	0.160160
C1801	C180	0.672600	0.646400	0.161220
C1811	C181	0.574100	0.862700	0.075460
C1821	C182	0.631600	0.861600	0.025500
C1831	C183	0.648900	0.928400	0.998640
C1841	C184	0.700900	0.928200	0.952160
C1851	C185	0.734600	0.861600	0.930630
C1861	C186	0.716200	0.795200	0.957770
C1871	C187	0.665300	0.795700	0.005500
C1881	C188	0.786100	0.863000	0.878720
C1891	C189	0.838900	0.924100	0.865310
C1901	C190	0.885300	0.927700	0.816460
C1911	C191	0.878300	0.869700	0.780410
C1921	C192	0.825300	0.808600	0.792900
C1931	C193	0.781300	0.804100	0.842110
C1941	C194	0.923700	0.875700	0.726320
C1951	C195	0.543000	0.858200	0.235460
C1961	C196	0.602400	0.856600	0.284260
C1971	C197	0.662100	0.915000	0.294570
C1981	C198	0.718200	0.915300	0.339370
C1991	C199	0.714200	0.857300	0.376320
C2001	C200	0.656200	0.798200	0.366360
C2011	C201	0.600800	0.796900	0.320490
C2021	C202	0.771900	0.860600	0.425900
C2031	C203	0.797400	0.929100	0.447280
C2041	C204	0.852600	0.932700	0.492740
C2051	C205	0.884200	0.869500	0.517220
C2061	C206	0.857600	0.800200	0.496650
C2071	C207	0.801700	0.796300	0.451770
C2081	C208	0.946900	0.872900	0.564610
N51	N5	0.967700	0.451340	0.649730
N61	N6	0.024700	0.063030	0.650720
N71	N7	0.467700	0.048660	0.149730
N81	N8	0.524700	0.436970	0.150720
O251	O25	0.832290	0.591230	0.658780
O261	O26	0.879430	0.697750	0.623250
O271	O27	0.159560	0.920970	0.646930
O281	O28	0.110260	0.812510	0.678380
O291	O29	0.021200	0.581580	0.581050
O301	O30	0.083650	0.688410	0.609370
O311	O31	0.474900	0.568130	0.219380
O321	O32	0.406480	0.671620	0.190570
O331	O33	0.038300	0.580470	0.711610
O341	O34	0.998570	0.698940	0.723230
O351	O35	0.455300	0.563940	0.086450
O361	O36	0.487400	0.684380	0.079330
O371	O37	0.332290	0.908770	0.158780
O381	O38	0.379430	0.802250	0.123250
O391	O39	0.659560	0.579030	0.146930
O401	O40	0.610260	0.687490	0.178380
O411	O41	0.521200	0.918420	0.081050
O421	O42	0.583650	0.811590	0.109370
O431	O43	0.974900	0.931870	0.719380
O441	O44	0.906480	0.828380	0.690570
O451	O45	0.538300	0.919530	0.211610
O461	O46	0.498570	0.801060	0.223230
O471	O47	0.955300	0.936060	0.586450
O481	O48	0.987400	0.815620	0.579330
