data_HEGNIR_freeONLY_PM
_symmetry_space_group_name_H-M	'P1'
_cell_length_a	23.663500
_cell_length_b	23.663500
_cell_length_c	13.568600
_cell_angle_alpha	90.000000
_cell_angle_beta	90.000000
_cell_angle_gamma	120.000000
_symmetry_Int_Tables_number 1

loop_
_symmetry_equiv_pos_as_xyz
'x,y,z'

loop_
_atom_site_label
_atom_site_type_symbol
_atom_site_fract_x
_atom_site_fract_y
_atom_site_fract_z
Mn11	Mn1	0.361850	0.093330	0.118250
Ga11	Ga1	0.349910	0.243800	0.918020
P11	P1	0.420290	0.237860	0.122030
P21	P2	0.327030	0.986170	0.274840
O11	O1	0.369980	0.212150	0.038600
O21	O2	0.424390	0.177500	0.157600
O31	O3	0.392110	0.260010	0.208000
O41	O4	0.485700	0.291700	0.092900
O51	O5	0.376530	0.044360	0.212200
O61	O6	0.364730	0.955050	0.321800
O71	O7	0.271100	0.936410	0.214100
O81	O8	0.300900	0.009660	0.359300
N11	N1	0.444700	0.278500	0.869800
N21	N2	0.333400	0.157700	0.852700
N31	N3	0.251400	0.188400	0.944100
C11	C1	0.449000	0.222400	0.828300
C21	C2	0.386200	0.175700	0.779300
C31	C3	0.266500	0.123800	0.818100
C41	C4	0.225100	0.120900	0.905200
H11	H1	0.450200	0.304300	0.821700
H21	H2	0.478900	0.304700	0.922800
H31	H3	0.335300	0.131200	0.907600
H41	H4	0.239900	0.182700	0.010700
H51	H5	0.217900	0.200400	0.914400
H61	H6	0.463100	0.201500	0.884900
H71	H7	0.480500	0.238900	0.765200
H81	H8	0.388900	0.137400	0.752400
H91	H9	0.376700	0.200200	0.726600
H101	H10	0.254700	0.146400	0.759100
H111	H11	0.249100	0.079000	0.800800
H121	H12	0.181900	0.110100	0.879000
H131	H13	0.223700	0.090200	0.964700
Ga21	Ga2	0.304820	0.240000	0.215080
Mn21	Mn2	0.028520	0.426660	0.451580
Ga31	Ga3	0.016580	0.577130	0.251350
P31	P3	0.086960	0.571190	0.455360
P41	P4	0.993700	0.319500	0.608170
O91	O9	0.036650	0.545480	0.371930
O101	O10	0.091060	0.510830	0.490930
O111	O11	0.058780	0.593340	0.541330
O121	O12	0.152370	0.625030	0.426230
O131	O13	0.043200	0.377690	0.545530
O141	O14	0.031400	0.288380	0.655130
O151	O15	0.937770	0.269740	0.547430
O161	O16	0.967570	0.342990	0.692630
N41	N4	0.111370	0.611830	0.203130
N51	N5	0.000070	0.491030	0.186030
N61	N6	0.918070	0.521730	0.277430
C51	C5	0.115670	0.555730	0.161630
C61	C6	0.052870	0.509030	0.112630
C71	C7	0.933170	0.457130	0.151430
C81	C8	0.891770	0.454230	0.238530
H141	H14	0.116870	0.637630	0.155030
H151	H15	0.145570	0.638030	0.256130
H161	H16	0.001970	0.464530	0.240930
H171	H17	0.906570	0.516030	0.344030
H181	H18	0.884570	0.533730	0.247730
H191	H19	0.129770	0.534830	0.218230
H201	H20	0.147170	0.572230	0.098530
H211	H21	0.055570	0.470730	0.085730
H221	H22	0.043370	0.533530	0.059930
H231	H23	0.921370	0.479730	0.092430
H241	H24	0.915770	0.412330	0.134130
H251	H25	0.848570	0.443430	0.212330
H261	H26	0.890370	0.423530	0.298030
Ga41	Ga4	0.971480	0.573340	0.548420
Mn31	Mn3	0.695180	0.760000	0.784920
Ga51	Ga5	0.683240	0.910470	0.584690
P51	P5	0.753620	0.904530	0.788700
P61	P6	0.660360	0.652840	0.941510
O171	O17	0.703310	0.878820	0.705270
O181	O18	0.757720	0.844170	0.824270
O191	O19	0.725440	0.926680	0.874670
O201	O20	0.819030	0.958370	0.759570
O211	O21	0.709860	0.711030	0.878870
O221	O22	0.698060	0.621720	0.988470
O231	O23	0.604430	0.603080	0.880770
O241	O24	0.634230	0.676330	0.025970
N71	N7	0.778030	0.945170	0.536470
N81	N8	0.666730	0.824370	0.519370
N91	N9	0.584730	0.855070	0.610770
C91	C9	0.782330	0.889070	0.494970
C101	C10	0.719530	0.842370	0.445970
C111	C11	0.599830	0.790470	0.484770
C121	C12	0.558430	0.787570	0.571870
H271	H27	0.783530	0.970970	0.488370
H281	H28	0.812230	0.971370	0.589470
H291	H29	0.668630	0.797870	0.574270
H301	H30	0.573230	0.849370	0.677370
H311	H31	0.551230	0.867070	0.581070
H321	H32	0.796430	0.868170	0.551570
H331	H33	0.813830	0.905570	0.431870
H341	H34	0.722230	0.804070	0.419070
H351	H35	0.710030	0.866870	0.393270
H361	H36	0.588030	0.813070	0.425770
H371	H37	0.582430	0.745670	0.467470
H381	H38	0.515230	0.776770	0.545670
H391	H39	0.557030	0.756870	0.631370
Ga61	Ga6	0.638150	0.906670	0.881750
Mn41	Mn4	0.906670	0.268520	0.118250
Ga71	Ga7	0.756200	0.106110	0.918020
P71	P7	0.762140	0.182430	0.122030
P81	P8	0.013830	0.340860	0.274840
O251	O25	0.787850	0.157830	0.038600
O261	O26	0.822500	0.246890	0.157600
O271	O27	0.739990	0.132100	0.208000
O281	O28	0.708300	0.194000	0.092900
O291	O29	0.955640	0.332170	0.212200
O301	O30	0.044950	0.409680	0.321800
O311	O31	0.063590	0.334690	0.214100
O321	O32	0.990340	0.291240	0.359300
N101	N10	0.721500	0.166200	0.869800
N111	N11	0.842300	0.175700	0.852700
N121	N12	0.811600	0.063000	0.944100
C131	C13	0.777600	0.226600	0.828300
C141	C14	0.824300	0.210500	0.779300
C151	C15	0.876200	0.142700	0.818100
C161	C16	0.879100	0.104200	0.905200
H401	H40	0.695700	0.145900	0.821700
H411	H41	0.695300	0.174200	0.922800
H421	H42	0.868800	0.204100	0.907600
H431	H43	0.817300	0.057200	0.010700
H441	H44	0.799600	0.017500	0.914400
H451	H45	0.798500	0.261600	0.884900
H461	H46	0.761100	0.241600	0.765200
H471	H47	0.862600	0.251500	0.752400
H481	H48	0.799800	0.176500	0.726600
H491	H49	0.853600	0.108300	0.759100
H501	H50	0.921000	0.170100	0.800800
H511	H51	0.889900	0.071800	0.879000
H521	H52	0.909800	0.133500	0.964700
Ga81	Ga8	0.760000	0.064810	0.215080
Mn51	Mn5	0.573340	0.601850	0.451580
Ga91	Ga9	0.422870	0.439440	0.251350
P91	P9	0.428810	0.515760	0.455360
P101	P10	0.680500	0.674190	0.608170
O331	O33	0.454520	0.491160	0.371930
O341	O34	0.489170	0.580220	0.490930
O351	O35	0.406660	0.465430	0.541330
O361	O36	0.374970	0.527330	0.426230
O371	O37	0.622310	0.665500	0.545530
O381	O38	0.711620	0.743010	0.655130
O391	O39	0.730260	0.668020	0.547430
O401	O40	0.657010	0.624570	0.692630
N131	N13	0.388170	0.499530	0.203130
N141	N14	0.508970	0.509030	0.186030
N151	N15	0.478270	0.396330	0.277430
C171	C17	0.444270	0.559930	0.161630
C181	C18	0.490970	0.543830	0.112630
C191	C19	0.542870	0.476030	0.151430
C201	C20	0.545770	0.437530	0.238530
H531	H53	0.362370	0.479230	0.155030
H541	H54	0.361970	0.507530	0.256130
H551	H55	0.535470	0.537430	0.240930
H561	H56	0.483970	0.390530	0.344030
H571	H57	0.466270	0.350830	0.247730
H581	H58	0.465170	0.594930	0.218230
H591	H59	0.427770	0.574930	0.098530
H601	H60	0.529270	0.584830	0.085730
H611	H61	0.466470	0.509830	0.059930
H621	H62	0.520270	0.441630	0.092430
H631	H63	0.587670	0.503430	0.134130
H641	H64	0.556570	0.405130	0.212330
H651	H65	0.576470	0.466830	0.298030
Ga101	Ga10	0.426660	0.398150	0.548420
Mn61	Mn6	0.240000	0.935190	0.784920
Ga111	Ga11	0.089530	0.772780	0.584690
P111	P11	0.095470	0.849100	0.788700
P121	P12	0.347160	0.007530	0.941510
O411	O41	0.121180	0.824500	0.705270
O421	O42	0.155830	0.913560	0.824270
O431	O43	0.073320	0.798770	0.874670
O441	O44	0.041630	0.860670	0.759570
O451	O45	0.288970	0.998840	0.878870
O461	O46	0.378280	0.076350	0.988470
O471	O47	0.396920	0.001360	0.880770
O481	O48	0.323670	0.957910	0.025970
N161	N16	0.054830	0.832870	0.536470
N171	N17	0.175630	0.842370	0.519370
N181	N18	0.144930	0.729670	0.610770
C211	C21	0.110930	0.893270	0.494970
C221	C22	0.157630	0.877170	0.445970
C231	C23	0.209530	0.809370	0.484770
C241	C24	0.212430	0.770870	0.571870
H661	H66	0.029030	0.812570	0.488370
H671	H67	0.028630	0.840870	0.589470
H681	H68	0.202130	0.870770	0.574270
H691	H69	0.150630	0.723870	0.677370
H701	H70	0.132930	0.684170	0.581070
H711	H71	0.131830	0.928270	0.551570
H721	H72	0.094430	0.908270	0.431870
H731	H73	0.195930	0.918170	0.419070
H741	H74	0.133130	0.843170	0.393270
H751	H75	0.186930	0.774970	0.425770
H761	H76	0.254330	0.836770	0.467470
H771	H77	0.223230	0.738470	0.545670
H781	H78	0.243130	0.800170	0.631370
Ga121	Ga12	0.093330	0.731480	0.881750
Mn71	Mn7	0.731480	0.638150	0.118250
Ga131	Ga13	0.893890	0.650090	0.918020
P131	P13	0.817570	0.579710	0.122030
P141	P14	0.659140	0.672970	0.274840
O491	O49	0.842170	0.630020	0.038600
O501	O50	0.753110	0.575610	0.157600
O511	O51	0.867900	0.607890	0.208000
O521	O52	0.806000	0.514300	0.092900
O531	O53	0.667830	0.623470	0.212200
O541	O54	0.590320	0.635270	0.321800
O551	O55	0.665310	0.728900	0.214100
O561	O56	0.708760	0.699100	0.359300
N191	N19	0.833800	0.555300	0.869800
N201	N20	0.824300	0.666600	0.852700
N211	N21	0.937000	0.748600	0.944100
C251	C25	0.773400	0.551000	0.828300
C261	C26	0.789500	0.613800	0.779300
C271	C27	0.857300	0.733500	0.818100
C281	C28	0.895800	0.774900	0.905200
H791	H79	0.854100	0.549800	0.821700
H801	H80	0.825800	0.521100	0.922800
H811	H81	0.795900	0.664700	0.907600
H821	H82	0.942800	0.760100	0.010700
H831	H83	0.982500	0.782100	0.914400
H841	H84	0.738400	0.536900	0.884900
H851	H85	0.758400	0.519500	0.765200
H861	H86	0.748500	0.611100	0.752400
H871	H87	0.823500	0.623300	0.726600
H881	H88	0.891700	0.745300	0.759100
H891	H89	0.829900	0.750900	0.800800
H901	H90	0.928200	0.818100	0.879000
H911	H91	0.866500	0.776300	0.964700
Ga141	Ga14	0.935190	0.695180	0.215080
Mn81	Mn8	0.398150	0.971480	0.451580
Ga151	Ga15	0.560560	0.983420	0.251350
P151	P15	0.484240	0.913040	0.455360
P161	P16	0.325810	0.006300	0.608170
O571	O57	0.508840	0.963350	0.371930
O581	O58	0.419780	0.908940	0.490930
O591	O59	0.534570	0.941220	0.541330
O601	O60	0.472670	0.847630	0.426230
O611	O61	0.334500	0.956800	0.545530
O621	O62	0.256990	0.968600	0.655130
O631	O63	0.331980	0.062230	0.547430
O641	O64	0.375430	0.032430	0.692630
N221	N22	0.500470	0.888630	0.203130
N231	N23	0.490970	0.999930	0.186030
N241	N24	0.603670	0.081930	0.277430
C291	C29	0.440070	0.884330	0.161630
C301	C30	0.456170	0.947130	0.112630
C311	C31	0.523970	0.066830	0.151430
C321	C32	0.562470	0.108230	0.238530
H921	H92	0.520770	0.883130	0.155030
H931	H93	0.492470	0.854430	0.256130
H941	H94	0.462570	0.998030	0.240930
H951	H95	0.609470	0.093430	0.344030
H961	H96	0.649170	0.115430	0.247730
H971	H97	0.405070	0.870230	0.218230
H981	H98	0.425070	0.852830	0.098530
H991	H99	0.415170	0.944430	0.085730
H1001	H100	0.490170	0.956630	0.059930
H1011	H101	0.558370	0.078630	0.092430
H1021	H102	0.496570	0.084230	0.134130
H1031	H103	0.594870	0.151430	0.212330
H1041	H104	0.533170	0.109630	0.298030
Ga161	Ga16	0.601850	0.028520	0.548420
Mn91	Mn9	0.064810	0.304820	0.784920
Ga171	Ga17	0.227220	0.316760	0.584690
P171	P17	0.150900	0.246380	0.788700
P181	P18	0.992470	0.339640	0.941510
O651	O65	0.175500	0.296690	0.705270
O661	O66	0.086440	0.242280	0.824270
O671	O67	0.201230	0.274560	0.874670
O681	O68	0.139330	0.180970	0.759570
O691	O69	0.001160	0.290140	0.878870
O701	O70	0.923650	0.301940	0.988470
O711	O71	0.998640	0.395570	0.880770
O721	O72	0.042090	0.365770	0.025970
N251	N25	0.167130	0.221970	0.536470
N261	N26	0.157630	0.333270	0.519370
N271	N27	0.270330	0.415270	0.610770
C331	C33	0.106730	0.217670	0.494970
C341	C34	0.122830	0.280470	0.445970
C351	C35	0.190630	0.400170	0.484770
C361	C36	0.229130	0.441570	0.571870
H1051	H105	0.187430	0.216470	0.488370
H1061	H106	0.159130	0.187770	0.589470
H1071	H107	0.129230	0.331370	0.574270
H1081	H108	0.276130	0.426770	0.677370
H1091	H109	0.315830	0.448770	0.581070
H1101	H110	0.071730	0.203570	0.551570
H1111	H111	0.091730	0.186170	0.431870
H1121	H112	0.081830	0.277770	0.419070
H1131	H113	0.156830	0.289970	0.393270
H1141	H114	0.225030	0.411970	0.425770
H1151	H115	0.163230	0.417570	0.467470
H1161	H116	0.261530	0.484770	0.545670
H1171	H117	0.199830	0.442970	0.631370
Ga181	Ga18	0.268520	0.361850	0.881750
Ga191	Ga19	0.650090	0.756200	0.081980
P191	P19	0.579710	0.762140	0.877970
P201	P20	0.672970	0.013830	0.725160
O731	O73	0.630020	0.787850	0.961400
O741	O74	0.575610	0.822500	0.842400
O751	O75	0.607890	0.739990	0.792000
O761	O76	0.514300	0.708300	0.907100
O771	O77	0.623470	0.955640	0.787800
O781	O78	0.635270	0.044950	0.678200
O791	O79	0.728900	0.063590	0.785900
O801	O80	0.699100	0.990340	0.640700
N281	N28	0.555300	0.721500	0.130200
N291	N29	0.666600	0.842300	0.147300
N301	N30	0.748600	0.811600	0.055900
C371	C37	0.551000	0.777600	0.171700
C381	C38	0.613800	0.824300	0.220700
C391	C39	0.733500	0.876200	0.181900
C401	C40	0.774900	0.879100	0.094800
H1181	H118	0.549800	0.695700	0.178300
H1191	H119	0.521100	0.695300	0.077200
H1201	H120	0.664700	0.868800	0.092400
H1211	H121	0.760100	0.817300	0.989300
H1221	H122	0.782100	0.799600	0.085600
H1231	H123	0.536900	0.798500	0.115100
H1241	H124	0.519500	0.761100	0.234800
H1251	H125	0.611100	0.862600	0.247600
H1261	H126	0.623300	0.799800	0.273400
H1271	H127	0.745300	0.853600	0.240900
H1281	H128	0.750900	0.921000	0.199200
H1291	H129	0.818100	0.889900	0.121000
H1301	H130	0.776300	0.909800	0.035300
Ga201	Ga20	0.316760	0.089530	0.415310
P211	P21	0.246380	0.095470	0.211300
P221	P22	0.339640	0.347160	0.058490
O811	O81	0.296690	0.121180	0.294730
O821	O82	0.242280	0.155830	0.175730
O831	O83	0.274560	0.073320	0.125330
O841	O84	0.180970	0.041630	0.240430
O851	O85	0.290140	0.288970	0.121130
O861	O86	0.301940	0.378280	0.011530
O871	O87	0.395570	0.396920	0.119230
O881	O88	0.365770	0.323670	0.974030
N311	N31	0.221970	0.054830	0.463530
N321	N32	0.333270	0.175630	0.480630
N331	N33	0.415270	0.144930	0.389230
C411	C41	0.217670	0.110930	0.505030
C421	C42	0.280470	0.157630	0.554030
C431	C43	0.400170	0.209530	0.515230
C441	C44	0.441570	0.212430	0.428130
H1311	H131	0.216470	0.029030	0.511630
H1321	H132	0.187770	0.028630	0.410530
H1331	H133	0.331370	0.202130	0.425730
H1341	H134	0.426770	0.150630	0.322630
H1351	H135	0.448770	0.132930	0.418930
H1361	H136	0.203570	0.131830	0.448430
H1371	H137	0.186170	0.094430	0.568130
H1381	H138	0.277770	0.195930	0.580930
H1391	H139	0.289970	0.133130	0.606730
H1401	H140	0.411970	0.186930	0.574230
H1411	H141	0.417570	0.254330	0.532530
H1421	H142	0.484770	0.223230	0.454330
H1431	H143	0.442970	0.243130	0.368630
Ga211	Ga21	0.983420	0.422870	0.748650
P231	P23	0.913040	0.428810	0.544640
P241	P24	0.006300	0.680500	0.391830
O891	O89	0.963350	0.454520	0.628070
O901	O90	0.908940	0.489170	0.509070
O911	O91	0.941220	0.406660	0.458670
O921	O92	0.847630	0.374970	0.573770
O931	O93	0.956800	0.622310	0.454470
O941	O94	0.968600	0.711620	0.344870
O951	O95	0.062230	0.730260	0.452570
O961	O96	0.032430	0.657010	0.307370
N341	N34	0.888630	0.388170	0.796870
N351	N35	0.999930	0.508970	0.813970
N361	N36	0.081930	0.478270	0.722570
C451	C45	0.884330	0.444270	0.838370
C461	C46	0.947130	0.490970	0.887370
C471	C47	0.066830	0.542870	0.848570
C481	C48	0.108230	0.545770	0.761470
H1441	H144	0.883130	0.362370	0.844970
H1451	H145	0.854430	0.361970	0.743870
H1461	H146	0.998030	0.535470	0.759070
H1471	H147	0.093430	0.483970	0.655970
H1481	H148	0.115430	0.466270	0.752270
H1491	H149	0.870230	0.465170	0.781770
H1501	H150	0.852830	0.427770	0.901470
H1511	H151	0.944430	0.529270	0.914270
H1521	H152	0.956630	0.466470	0.940070
H1531	H153	0.078630	0.520270	0.907570
H1541	H154	0.084230	0.587670	0.865870
H1551	H155	0.151430	0.556570	0.787670
H1561	H156	0.109630	0.576470	0.701970
Ga221	Ga22	0.243800	0.893890	0.081980
P251	P25	0.237860	0.817570	0.877970
P261	P26	0.986170	0.659140	0.725160
O971	O97	0.212150	0.842170	0.961400
O981	O98	0.177500	0.753110	0.842400
O991	O99	0.260010	0.867900	0.792000
O1001	O100	0.291700	0.806000	0.907100
O1011	O101	0.044360	0.667830	0.787800
O1021	O102	0.955050	0.590320	0.678200
O1031	O103	0.936410	0.665310	0.785900
O1041	O104	0.009660	0.708760	0.640700
N371	N37	0.278500	0.833800	0.130200
N381	N38	0.157700	0.824300	0.147300
N391	N39	0.188400	0.937000	0.055900
C491	C49	0.222400	0.773400	0.171700
C501	C50	0.175700	0.789500	0.220700
C511	C51	0.123800	0.857300	0.181900
C521	C52	0.120900	0.895800	0.094800
H1571	H157	0.304300	0.854100	0.178300
H1581	H158	0.304700	0.825800	0.077200
H1591	H159	0.131200	0.795900	0.092400
H1601	H160	0.182700	0.942800	0.989300
H1611	H161	0.200400	0.982500	0.085600
H1621	H162	0.201500	0.738400	0.115100
H1631	H163	0.238900	0.758400	0.234800
H1641	H164	0.137400	0.748500	0.247600
H1651	H165	0.200200	0.823500	0.273400
H1661	H166	0.146400	0.891700	0.240900
H1671	H167	0.079000	0.829900	0.199200
H1681	H168	0.110100	0.928200	0.121000
H1691	H169	0.090200	0.866500	0.035300
Ga231	Ga23	0.910470	0.227220	0.415310
P271	P27	0.904530	0.150900	0.211300
P281	P28	0.652840	0.992470	0.058490
O1051	O105	0.878820	0.175500	0.294730
O1061	O106	0.844170	0.086440	0.175730
O1071	O107	0.926680	0.201230	0.125330
O1081	O108	0.958370	0.139330	0.240430
O1091	O109	0.711030	0.001160	0.121130
O1101	O110	0.621720	0.923650	0.011530
O1111	O111	0.603080	0.998640	0.119230
O1121	O112	0.676330	0.042090	0.974030
N401	N40	0.945170	0.167130	0.463530
N411	N41	0.824370	0.157630	0.480630
N421	N42	0.855070	0.270330	0.389230
C531	C53	0.889070	0.106730	0.505030
C541	C54	0.842370	0.122830	0.554030
C551	C55	0.790470	0.190630	0.515230
C561	C56	0.787570	0.229130	0.428130
H1701	H170	0.970970	0.187430	0.511630
H1711	H171	0.971370	0.159130	0.410530
H1721	H172	0.797870	0.129230	0.425730
H1731	H173	0.849370	0.276130	0.322630
H1741	H174	0.867070	0.315830	0.418930
H1751	H175	0.868170	0.071730	0.448430
H1761	H176	0.905570	0.091730	0.568130
H1771	H177	0.804070	0.081830	0.580930
H1781	H178	0.866870	0.156830	0.606730
H1791	H179	0.813070	0.225030	0.574230
H1801	H180	0.745670	0.163230	0.532530
H1811	H181	0.776770	0.261530	0.454330
H1821	H182	0.756870	0.199830	0.368630
Ga241	Ga24	0.577130	0.560560	0.748650
P291	P29	0.571190	0.484240	0.544640
P301	P30	0.319500	0.325810	0.391830
O1131	O113	0.545480	0.508840	0.628070
O1141	O114	0.510830	0.419780	0.509070
O1151	O115	0.593340	0.534570	0.458670
O1161	O116	0.625030	0.472670	0.573770
O1171	O117	0.377690	0.334500	0.454470
O1181	O118	0.288380	0.256990	0.344870
O1191	O119	0.269740	0.331980	0.452570
O1201	O120	0.342990	0.375430	0.307370
N431	N43	0.611830	0.500470	0.796870
N441	N44	0.491030	0.490970	0.813970
N451	N45	0.521730	0.603670	0.722570
C571	C57	0.555730	0.440070	0.838370
C581	C58	0.509030	0.456170	0.887370
C591	C59	0.457130	0.523970	0.848570
C601	C60	0.454230	0.562470	0.761470
H1831	H183	0.637630	0.520770	0.844970
H1841	H184	0.638030	0.492470	0.743870
H1851	H185	0.464530	0.462570	0.759070
H1861	H186	0.516030	0.609470	0.655970
H1871	H187	0.533730	0.649170	0.752270
H1881	H188	0.534830	0.405070	0.781770
H1891	H189	0.572230	0.425070	0.901470
H1901	H190	0.470730	0.415170	0.914270
H1911	H191	0.533530	0.490170	0.940070
H1921	H192	0.479730	0.558370	0.907570
H1931	H193	0.412330	0.496570	0.865870
H1941	H194	0.443430	0.594870	0.787670
H1951	H195	0.423530	0.533170	0.701970
Ga251	Ga25	0.106110	0.349910	0.081980
P311	P31	0.182430	0.420290	0.877970
P321	P32	0.340860	0.327030	0.725160
O1211	O121	0.157830	0.369980	0.961400
O1221	O122	0.246890	0.424390	0.842400
O1231	O123	0.132100	0.392110	0.792000
O1241	O124	0.194000	0.485700	0.907100
O1251	O125	0.332170	0.376530	0.787800
O1261	O126	0.409680	0.364730	0.678200
O1271	O127	0.334690	0.271100	0.785900
O1281	O128	0.291240	0.300900	0.640700
N461	N46	0.166200	0.444700	0.130200
N471	N47	0.175700	0.333400	0.147300
N481	N48	0.063000	0.251400	0.055900
C611	C61	0.226600	0.449000	0.171700
C621	C62	0.210500	0.386200	0.220700
C631	C63	0.142700	0.266500	0.181900
C641	C64	0.104200	0.225100	0.094800
H1961	H196	0.145900	0.450200	0.178300
H1971	H197	0.174200	0.478900	0.077200
H1981	H198	0.204100	0.335300	0.092400
H1991	H199	0.057200	0.239900	0.989300
H2001	H200	0.017500	0.217900	0.085600
H2011	H201	0.261600	0.463100	0.115100
H2021	H202	0.241600	0.480500	0.234800
H2031	H203	0.251500	0.388900	0.247600
H2041	H204	0.176500	0.376700	0.273400
H2051	H205	0.108300	0.254700	0.240900
H2061	H206	0.170100	0.249100	0.199200
H2071	H207	0.071800	0.181900	0.121000
H2081	H208	0.133500	0.223700	0.035300
Ga261	Ga26	0.772780	0.683240	0.415310
P331	P33	0.849100	0.753620	0.211300
P341	P34	0.007530	0.660360	0.058490
O1291	O129	0.824500	0.703310	0.294730
O1301	O130	0.913560	0.757720	0.175730
O1311	O131	0.798770	0.725440	0.125330
O1321	O132	0.860670	0.819030	0.240430
O1331	O133	0.998840	0.709860	0.121130
O1341	O134	0.076350	0.698060	0.011530
O1351	O135	0.001360	0.604430	0.119230
O1361	O136	0.957910	0.634230	0.974030
N491	N49	0.832870	0.778030	0.463530
N501	N50	0.842370	0.666730	0.480630
N511	N51	0.729670	0.584730	0.389230
C651	C65	0.893270	0.782330	0.505030
C661	C66	0.877170	0.719530	0.554030
C671	C67	0.809370	0.599830	0.515230
C681	C68	0.770870	0.558430	0.428130
H2091	H209	0.812570	0.783530	0.511630
H2101	H210	0.840870	0.812230	0.410530
H2111	H211	0.870770	0.668630	0.425730
H2121	H212	0.723870	0.573230	0.322630
H2131	H213	0.684170	0.551230	0.418930
H2141	H214	0.928270	0.796430	0.448430
H2151	H215	0.908270	0.813830	0.568130
H2161	H216	0.918170	0.722230	0.580930
H2171	H217	0.843170	0.710030	0.606730
H2181	H218	0.774970	0.588030	0.574230
H2191	H219	0.836770	0.582430	0.532530
H2201	H220	0.738470	0.515230	0.454330
H2211	H221	0.800170	0.557030	0.368630
Ga271	Ga27	0.439440	0.016580	0.748650
P351	P35	0.515760	0.086960	0.544640
P361	P36	0.674190	0.993700	0.391830
O1371	O137	0.491160	0.036650	0.628070
O1381	O138	0.580220	0.091060	0.509070
O1391	O139	0.465430	0.058780	0.458670
O1401	O140	0.527330	0.152370	0.573770
O1411	O141	0.665500	0.043200	0.454470
O1421	O142	0.743010	0.031400	0.344870
O1431	O143	0.668020	0.937770	0.452570
O1441	O144	0.624570	0.967570	0.307370
N521	N52	0.499530	0.111370	0.796870
N531	N53	0.509030	0.000070	0.813970
N541	N54	0.396330	0.918070	0.722570
C691	C69	0.559930	0.115670	0.838370
C701	C70	0.543830	0.052870	0.887370
C711	C71	0.476030	0.933170	0.848570
C721	C72	0.437530	0.891770	0.761470
H2221	H222	0.479230	0.116870	0.844970
H2231	H223	0.507530	0.145570	0.743870
H2241	H224	0.537430	0.001970	0.759070
H2251	H225	0.390530	0.906570	0.655970
H2261	H226	0.350830	0.884570	0.752270
H2271	H227	0.594930	0.129770	0.781770
H2281	H228	0.574930	0.147170	0.901470
H2291	H229	0.584830	0.055570	0.914270
H2301	H230	0.509830	0.043370	0.940070
H2311	H231	0.441630	0.921370	0.907570
H2321	H232	0.503430	0.915770	0.865870
H2331	H233	0.405130	0.848570	0.787670
H2341	H234	0.466830	0.890370	0.701970
