data_HENYUV_freeONLY_PM
_symmetry_space_group_name_H-M	'P1'
_cell_length_a	7.024900
_cell_length_b	7.024900
_cell_length_c	19.936000
_cell_angle_alpha	90.000000
_cell_angle_beta	90.000000
_cell_angle_gamma	90.000000
_symmetry_Int_Tables_number 1

loop_
_symmetry_equiv_pos_as_xyz
'x,y,z'

loop_
_atom_site_label
_atom_site_type_symbol
_atom_site_fract_x
_atom_site_fract_y
_atom_site_fract_z
Zn11	Zn1	0.000000	0.000000	0.724030
Zn21	Zn2	0.500000	0.500000	0.224030
Zn31	Zn3	0.500000	0.500000	0.775970
Zn41	Zn4	0.000000	0.000000	0.275970
H11	H1	0.833000	0.233500	0.949300
H21	H2	0.167000	0.766500	0.949300
H31	H3	0.266500	0.333000	0.449300
H41	H4	0.733500	0.667000	0.449300
H51	H5	0.667000	0.733500	0.550700
H61	H6	0.333000	0.266500	0.550700
H71	H7	0.233500	0.833000	0.050700
H81	H8	0.766500	0.167000	0.050700
C11	C1	0.898700	0.137800	0.926900
C21	C2	0.897800	0.129500	0.857400
C31	C3	0.781000	0.255300	0.811900
C41	C4	0.101300	0.862200	0.926900
C51	C5	0.102200	0.870500	0.857400
C61	C6	0.219000	0.744700	0.811900
C71	C7	0.362200	0.398700	0.426900
C81	C8	0.370500	0.397800	0.357400
C91	C9	0.244700	0.281000	0.311900
C101	C10	0.637800	0.601300	0.426900
C111	C11	0.629500	0.602200	0.357400
C121	C12	0.755300	0.719000	0.311900
C131	C13	0.601300	0.637800	0.573100
C141	C14	0.602200	0.629500	0.642600
C151	C15	0.719000	0.755300	0.688100
C161	C16	0.398700	0.362200	0.573100
C171	C17	0.397800	0.370500	0.642600
C181	C18	0.281000	0.244700	0.688100
C191	C19	0.137800	0.898700	0.073100
C201	C20	0.129500	0.897800	0.142600
C211	C21	0.255300	0.781000	0.188100
C221	C22	0.862200	0.101300	0.073100
C231	C23	0.870500	0.102200	0.142600
C241	C24	0.744700	0.219000	0.188100
C251	C25	0.000000	0.000000	0.962600
C261	C26	0.500000	0.500000	0.462600
C271	C27	0.500000	0.500000	0.537400
C281	C28	0.000000	0.000000	0.037400
N11	N1	0.000000	0.000000	0.824800
N21	N2	0.500000	0.500000	0.324800
N31	N3	0.500000	0.500000	0.675200
N41	N4	0.000000	0.000000	0.175200
O11	O1	0.663900	0.365400	0.839650
O21	O2	0.805800	0.235900	0.750450
O31	O3	0.336100	0.634600	0.839650
O41	O4	0.194200	0.764100	0.750450
O51	O5	0.134600	0.163900	0.339650
O61	O6	0.264100	0.305800	0.250450
O71	O7	0.865400	0.836100	0.339650
O81	O8	0.735900	0.694200	0.250450
O91	O9	0.836100	0.865400	0.660350
O101	O10	0.694200	0.735900	0.749550
O111	O11	0.163900	0.134600	0.660350
O121	O12	0.305800	0.264100	0.749550
O131	O13	0.365400	0.663900	0.160350
O141	O14	0.235900	0.805800	0.249550
O151	O15	0.634600	0.336100	0.160350
O161	O16	0.764100	0.194200	0.249550
