data_HIBGIJ_freeONLY_PM
_symmetry_space_group_name_H-M	'P1'
_cell_length_a	10.165000
_cell_length_b	11.624000
_cell_length_c	14.738000
_cell_angle_alpha	91.402000
_cell_angle_beta	90.000000
_cell_angle_gamma	90.000000
_symmetry_Int_Tables_number 1

loop_
_symmetry_equiv_pos_as_xyz
'x,y,z'

loop_
_atom_site_label
_atom_site_type_symbol
_atom_site_fract_x
_atom_site_fract_y
_atom_site_fract_z
Mn11	Mn1	0.914510	0.743940	0.868280
Mn21	Mn2	0.099250	0.761550	0.683590
Mn31	Mn3	0.414510	0.756060	0.631720
Mn41	Mn4	0.599250	0.738450	0.816410
Mn51	Mn5	0.085490	0.256060	0.131720
Mn61	Mn6	0.900750	0.238450	0.316410
Mn71	Mn7	0.585490	0.243940	0.368280
Mn81	Mn8	0.400750	0.261550	0.183590
Mn91	Mn9	0.000000	0.000000	0.000000
Mn101	Mn10	0.500000	0.500000	0.500000
Mn111	Mn11	0.000000	0.500000	0.000000
Mn121	Mn12	0.500000	0.000000	0.500000
H11	H1	0.022400	0.023900	0.732500
H21	H2	0.617500	0.943700	0.962000
H31	H3	0.747900	0.636600	0.633500
H41	H4	0.702300	0.507700	0.994200
H51	H5	0.178500	0.519800	0.762100
H61	H6	0.160200	0.800300	0.069800
H71	H7	0.522400	0.476100	0.767500
H81	H8	0.117500	0.556300	0.538000
H91	H9	0.247900	0.863400	0.866500
H101	H10	0.202300	0.992300	0.505800
H111	H11	0.678500	0.980200	0.737900
H121	H12	0.660200	0.699700	0.430200
H131	H13	0.977600	0.976100	0.267500
H141	H14	0.382500	0.056300	0.038000
H151	H15	0.252100	0.363400	0.366500
H161	H16	0.297700	0.492300	0.005800
H171	H17	0.821500	0.480200	0.237900
H181	H18	0.839800	0.199700	0.930200
H191	H19	0.477600	0.523900	0.232500
H201	H20	0.882500	0.443700	0.462000
H211	H21	0.752100	0.136600	0.133500
H221	H22	0.797700	0.007700	0.494200
H231	H23	0.321500	0.019800	0.262100
H241	H24	0.339800	0.300300	0.569800
C11	C1	0.005600	0.983090	0.786340
C21	C2	0.707970	0.925940	0.953340
C31	C3	0.816680	0.669390	0.669280
C41	C4	0.717620	0.568080	0.953200
C51	C5	0.120140	0.546380	0.808470
C61	C6	0.105030	0.757440	0.029400
C71	C7	0.505600	0.516910	0.713660
C81	C8	0.207970	0.574060	0.546660
C91	C9	0.316680	0.830610	0.830720
C101	C10	0.217620	0.931920	0.546800
C111	C11	0.620140	0.953620	0.691530
C121	C12	0.605030	0.742560	0.470600
C131	C13	0.994400	0.016910	0.213660
C141	C14	0.292030	0.074060	0.046660
C151	C15	0.183320	0.330610	0.330720
C161	C16	0.282380	0.431920	0.046800
C171	C17	0.879860	0.453620	0.191530
C181	C18	0.894970	0.242560	0.970600
C191	C19	0.494400	0.483090	0.286340
C201	C20	0.792030	0.425940	0.453340
C211	C21	0.683320	0.169390	0.169280
C221	C22	0.782380	0.068080	0.453200
C231	C23	0.379860	0.046380	0.308470
C241	C24	0.394970	0.257440	0.529400
O11	O1	0.998230	0.873830	0.779080
O21	O2	0.736000	0.846840	0.894420
O31	O3	0.791330	0.691080	0.752640
O41	O4	0.836730	0.600530	0.942750
O51	O5	0.074440	0.647880	0.801310
O61	O6	0.028260	0.814300	0.978090
O71	O7	0.992720	0.040330	0.857310
O81	O8	0.788380	0.981270	0.999910
O91	O9	0.619920	0.608710	0.914290
O101	O10	0.095710	0.479110	0.870110
O111	O11	0.113170	0.651890	0.030670
O121	O12	0.923250	0.687180	0.630190
O131	O13	0.498230	0.626170	0.720920
O141	O14	0.236000	0.653160	0.605580
O151	O15	0.291330	0.808920	0.747360
O161	O16	0.336730	0.899470	0.557250
O171	O17	0.574440	0.852120	0.698690
O181	O18	0.528260	0.685700	0.521910
O191	O19	0.492720	0.459670	0.642690
O201	O20	0.288380	0.518730	0.500090
O211	O21	0.119920	0.891290	0.585710
O221	O22	0.595710	0.020890	0.629890
O231	O23	0.613170	0.848110	0.469330
O241	O24	0.423250	0.812820	0.869810
O251	O25	0.001770	0.126170	0.220920
O261	O26	0.264000	0.153160	0.105580
O271	O27	0.208670	0.308920	0.247360
O281	O28	0.163270	0.399470	0.057250
O291	O29	0.925560	0.352120	0.198690
O301	O30	0.971740	0.185700	0.021910
O311	O31	0.007280	0.959670	0.142690
O321	O32	0.211620	0.018730	0.000090
O331	O33	0.380080	0.391290	0.085710
O341	O34	0.904290	0.520890	0.129890
O351	O35	0.886830	0.348110	0.969330
O361	O36	0.076750	0.312820	0.369810
O371	O37	0.501770	0.373830	0.279080
O381	O38	0.764000	0.346840	0.394420
O391	O39	0.708670	0.191080	0.252640
O401	O40	0.663270	0.100530	0.442750
O411	O41	0.425560	0.147880	0.301310
O421	O42	0.471740	0.314300	0.478090
O431	O43	0.507280	0.540330	0.357310
O441	O44	0.711620	0.481270	0.499910
O451	O45	0.880080	0.108710	0.414290
O461	O46	0.404290	0.979110	0.370110
O471	O47	0.386830	0.151890	0.530670
O481	O48	0.576750	0.187180	0.130190
