data_HIBQUE_freeONLY_PM
_symmetry_space_group_name_H-M	'P1'
_cell_length_a	6.505200
_cell_length_b	17.500500
_cell_length_c	8.181100
_cell_angle_alpha	90.000000
_cell_angle_beta	107.656000
_cell_angle_gamma	90.000000
_symmetry_Int_Tables_number 1

loop_
_symmetry_equiv_pos_as_xyz
'x,y,z'

loop_
_atom_site_label
_atom_site_type_symbol
_atom_site_fract_x
_atom_site_fract_y
_atom_site_fract_z
P11	P1	0.736100	0.047400	0.757000
P21	P2	0.394000	0.091300	0.158200
P31	P3	0.070500	0.836740	0.870700
O11	O1	0.551800	0.988300	0.727300
O21	O2	0.953200	0.006600	0.832400
O31	O3	0.708100	0.112700	0.871700
O41	O4	0.729300	0.082400	0.581400
O51	O5	0.406600	0.028200	0.032200
O61	O6	0.419100	0.052600	0.333100
O71	O7	0.186800	0.136700	0.092800
O81	O8	0.577800	0.149300	0.176300
O91	O9	0.238300	0.880900	0.815100
O101	O10	0.861400	0.829700	0.722500
O111	O11	0.017200	0.880700	0.021200
O121	O12	0.161800	0.759800	0.947000
O131	O13	0.211500	0.114500	0.650900
O141	O14	0.045100	0.170200	0.401400
O151	O15	0.081800	0.975500	0.508300
O161	O16	0.926900	0.030700	0.256200
C11	C1	0.102800	0.113300	0.495200
C21	C2	0.032200	0.033400	0.412100
In11	In1	0.255630	0.002500	0.779510
In21	In2	0.880920	0.141470	0.125990
P41	P4	0.263900	0.547400	0.243000
P51	P5	0.606000	0.591300	0.841800
P61	P6	0.929500	0.336740	0.129300
O171	O17	0.448200	0.488300	0.272700
O181	O18	0.046800	0.506600	0.167600
O191	O19	0.291900	0.612700	0.128300
O201	O20	0.270700	0.582400	0.418600
O211	O21	0.593400	0.528200	0.967800
O221	O22	0.580900	0.552600	0.666900
O231	O23	0.813200	0.636700	0.907200
O241	O24	0.422200	0.649300	0.823700
O251	O25	0.761700	0.380900	0.184900
O261	O26	0.138600	0.329700	0.277500
O271	O27	0.982800	0.380700	0.978800
O281	O28	0.838200	0.259800	0.053000
O291	O29	0.788500	0.614500	0.349100
O301	O30	0.954900	0.670200	0.598600
O311	O31	0.918200	0.475500	0.491700
O321	O32	0.073100	0.530700	0.743800
C31	C3	0.897200	0.613300	0.504800
C41	C4	0.967800	0.533400	0.587900
In31	In3	0.744370	0.502500	0.220490
In41	In4	0.119080	0.641470	0.874010
