data_HICVUM_freeONLY_PM
_symmetry_space_group_name_H-M	'P1'
_cell_length_a	12.721300
_cell_length_b	12.721300
_cell_length_c	20.709000
_cell_angle_alpha	84.160000
_cell_angle_beta	84.160000
_cell_angle_gamma	70.869600
_symmetry_Int_Tables_number 1

loop_
_symmetry_equiv_pos_as_xyz
'x,y,z'

loop_
_atom_site_label
_atom_site_type_symbol
_atom_site_fract_x
_atom_site_fract_y
_atom_site_fract_z
Cd11	Cd1	0.066190	0.069010	0.179210
Cd21	Cd2	0.546200	0.546180	0.101180
Cd31	Cd3	0.930990	0.933810	0.320790
Cd41	Cd4	0.453820	0.453800	0.398820
Cd51	Cd5	0.933810	0.930990	0.820790
Cd61	Cd6	0.453800	0.453820	0.898820
Cd71	Cd7	0.069010	0.066190	0.679210
Cd81	Cd8	0.546180	0.546200	0.601180
H11	H1	0.863100	0.154900	0.103600
H21	H2	0.731800	0.447000	0.230300
H31	H3	0.887100	0.304300	0.255600
H41	H4	0.241800	0.220000	0.311000
H51	H5	0.822000	0.111800	0.911200
H61	H6	0.077500	0.054100	0.436400
H71	H7	0.258700	0.222100	0.503000
H81	H8	0.702200	0.115200	0.745600
H91	H9	0.555100	0.268100	0.770900
H101	H10	0.845100	0.136900	0.396400
H111	H11	0.553000	0.268200	0.269700
H121	H12	0.695700	0.112900	0.244400
H131	H13	0.780000	0.758200	0.189000
H141	H14	0.888200	0.178000	0.588800
H151	H15	0.945900	0.922500	0.063600
H161	H16	0.777900	0.741300	0.997000
H171	H17	0.884800	0.297800	0.754400
H181	H18	0.731900	0.444900	0.729100
H191	H19	0.136900	0.845100	0.896400
H201	H20	0.268200	0.553000	0.769700
H211	H21	0.112900	0.695700	0.744400
H221	H22	0.758200	0.780000	0.689000
H231	H23	0.178000	0.888200	0.088800
H241	H24	0.922500	0.945900	0.563600
H251	H25	0.741300	0.777900	0.497000
H261	H26	0.297800	0.884800	0.254400
H271	H27	0.444900	0.731900	0.229100
H281	H28	0.154900	0.863100	0.603600
H291	H29	0.447000	0.731800	0.730300
H301	H30	0.304300	0.887100	0.755600
H311	H31	0.220000	0.241800	0.811000
H321	H32	0.111800	0.822000	0.411200
H331	H33	0.054100	0.077500	0.936400
H341	H34	0.222100	0.258700	0.003000
H351	H35	0.115200	0.702200	0.245600
H361	H36	0.268100	0.555100	0.270900
C11	C1	0.838600	0.215400	0.129300
C21	C2	0.758700	0.388500	0.203200
C31	C3	0.851500	0.302500	0.218900
C41	C4	0.746000	0.305600	0.112600
C51	C5	0.695500	0.311700	0.052800
C61	C6	0.222600	0.198000	0.353500
C71	C7	0.110400	0.097800	0.306800
C81	C8	0.153300	0.130300	0.365300
C91	C9	0.766900	0.141300	0.881900
C101	C10	0.677100	0.232500	0.898000
C111	C11	0.667700	0.280100	0.960700
C121	C12	0.332100	0.308900	0.393700
C131	C13	0.162800	0.132800	0.480800
C141	C14	0.123500	0.098300	0.428600
C151	C15	0.232300	0.199500	0.468400
C161	C16	0.262200	0.231800	0.404900
C171	C17	0.697400	0.144200	0.785600
C181	C18	0.608700	0.236700	0.800800
C191	C19	0.128500	0.103300	0.550400
C201	C20	0.784600	0.161400	0.370700
C211	C21	0.611500	0.241300	0.296800
C221	C22	0.697500	0.148500	0.281100
C231	C23	0.694400	0.254000	0.387400
C241	C24	0.688300	0.304500	0.447200
C251	C25	0.802000	0.777400	0.146500
C261	C26	0.902200	0.889600	0.193200
C271	C27	0.869700	0.846700	0.134700
C281	C28	0.858700	0.233100	0.618100
C291	C29	0.767500	0.322900	0.602000
C301	C30	0.719900	0.332300	0.539300
C311	C31	0.691100	0.667900	0.106300
C321	C32	0.867200	0.837200	0.019200
C331	C33	0.901700	0.876500	0.071400
C341	C34	0.800500	0.767700	0.031600
C351	C35	0.768200	0.737800	0.095100
C361	C36	0.855800	0.302600	0.714400
C371	C37	0.763300	0.391300	0.699200
C381	C38	0.896700	0.871500	0.949600
C391	C39	0.161400	0.784600	0.870700
C401	C40	0.241300	0.611500	0.796800
C411	C41	0.148500	0.697500	0.781100
C421	C42	0.254000	0.694400	0.887400
C431	C43	0.304500	0.688300	0.947200
C441	C44	0.777400	0.802000	0.646500
C451	C45	0.889600	0.902200	0.693200
C461	C46	0.846700	0.869700	0.634700
C471	C47	0.233100	0.858700	0.118100
C481	C48	0.322900	0.767500	0.102000
C491	C49	0.332300	0.719900	0.039300
C501	C50	0.667900	0.691100	0.606300
C511	C51	0.837200	0.867200	0.519200
C521	C52	0.876500	0.901700	0.571400
C531	C53	0.767700	0.800500	0.531600
C541	C54	0.737800	0.768200	0.595100
C551	C55	0.302600	0.855800	0.214400
C561	C56	0.391300	0.763300	0.199200
C571	C57	0.871500	0.896700	0.449600
C581	C58	0.215400	0.838600	0.629300
C591	C59	0.388500	0.758700	0.703200
C601	C60	0.302500	0.851500	0.718900
C611	C61	0.305600	0.746000	0.612600
C621	C62	0.311700	0.695500	0.552800
C631	C63	0.198000	0.222600	0.853500
C641	C64	0.097800	0.110400	0.806800
C651	C65	0.130300	0.153300	0.865300
C661	C66	0.141300	0.766900	0.381900
C671	C67	0.232500	0.677100	0.398000
C681	C68	0.280100	0.667700	0.460700
C691	C69	0.308900	0.332100	0.893700
C701	C70	0.132800	0.162800	0.980800
C711	C71	0.098300	0.123500	0.928600
C721	C72	0.199500	0.232300	0.968400
C731	C73	0.231800	0.262200	0.904900
C741	C74	0.144200	0.697400	0.285600
C751	C75	0.236700	0.608700	0.300800
C761	C76	0.103300	0.128500	0.050400
N11	N1	0.892900	0.214100	0.181400
N21	N2	0.704700	0.392300	0.150600
N31	N3	0.606000	0.395600	0.035200
N41	N4	0.737800	0.235200	0.008300
N51	N5	0.588800	0.376600	0.974500
N61	N6	0.778100	0.094100	0.827000
N71	N7	0.597300	0.282500	0.857500
N81	N8	0.785900	0.107100	0.318600
N91	N9	0.607700	0.295300	0.349400
N101	N10	0.604400	0.394000	0.464800
N111	N11	0.764800	0.262200	0.491700
N121	N12	0.623400	0.411200	0.525500
N131	N13	0.905900	0.221900	0.673000
N141	N14	0.717500	0.402700	0.642500
N151	N15	0.107100	0.785900	0.818600
N161	N16	0.295300	0.607700	0.849400
N171	N17	0.394000	0.604400	0.964800
N181	N18	0.262200	0.764800	0.991700
N191	N19	0.411200	0.623400	0.025500
N201	N20	0.221900	0.905900	0.173000
N211	N21	0.402700	0.717500	0.142500
N221	N22	0.214100	0.892900	0.681400
N231	N23	0.392300	0.704700	0.650600
N241	N24	0.395600	0.606000	0.535200
N251	N25	0.235200	0.737800	0.508300
N261	N26	0.376600	0.588800	0.474500
N271	N27	0.094100	0.778100	0.327000
N281	N28	0.282500	0.597300	0.357500
O11	O1	0.136400	0.139400	0.252500
O21	O2	0.053300	0.035500	0.314100
O31	O3	0.062100	0.049700	0.563300
O41	O4	0.352800	0.344400	0.336600
O51	O5	0.366600	0.334200	0.442800
O61	O6	0.438500	0.465700	0.171900
O71	O7	0.170200	0.136000	0.595200
O81	O8	0.860600	0.863600	0.247500
O91	O9	0.964500	0.946700	0.185900
O101	O10	0.950300	0.937900	0.936700
O111	O11	0.655600	0.647200	0.163400
O121	O12	0.665800	0.633400	0.057200
O131	O13	0.534300	0.561500	0.328100
O141	O14	0.864000	0.829800	0.904800
O151	O15	0.863600	0.860600	0.747500
O161	O16	0.946700	0.964500	0.685900
O171	O17	0.937900	0.950300	0.436700
O181	O18	0.647200	0.655600	0.663400
O191	O19	0.633400	0.665800	0.557200
O201	O20	0.561500	0.534300	0.828100
O211	O21	0.829800	0.864000	0.404800
O221	O22	0.139400	0.136400	0.752500
O231	O23	0.035500	0.053300	0.814100
O241	O24	0.049700	0.062100	0.063300
O251	O25	0.344400	0.352800	0.836600
O261	O26	0.334200	0.366600	0.942800
O271	O27	0.465700	0.438500	0.671900
O281	O28	0.136000	0.170200	0.095200
