data_HICVOG_freeONLY_PM
_symmetry_space_group_name_H-M	'P1'
_cell_length_a	10.814000
_cell_length_b	10.814000
_cell_length_c	25.410000
_cell_angle_alpha	90.000000
_cell_angle_beta	90.000000
_cell_angle_gamma	90.000000
_symmetry_Int_Tables_number 1

loop_
_symmetry_equiv_pos_as_xyz
'x,y,z'

loop_
_atom_site_label
_atom_site_type_symbol
_atom_site_fract_x
_atom_site_fract_y
_atom_site_fract_z
Zn11	Zn1	0.456590	0.459060	0.920750
Zn21	Zn2	0.543410	0.540940	0.420750
Zn31	Zn3	0.040940	0.956590	0.170750
Zn41	Zn4	0.959060	0.043410	0.670750
Zn51	Zn5	0.043410	0.959060	0.329250
Zn61	Zn6	0.956590	0.040940	0.829250
Zn71	Zn7	0.459060	0.456590	0.079250
Zn81	Zn8	0.540940	0.543410	0.579250
H11	H1	0.332000	0.316000	0.791700
H21	H2	0.161400	0.200300	0.769700
H31	H3	0.093400	0.144700	0.918300
H41	H4	0.695800	0.736900	0.922100
H51	H5	0.668000	0.684000	0.291700
H61	H6	0.838600	0.799700	0.269700
H71	H7	0.906600	0.855300	0.418300
H81	H8	0.304200	0.263100	0.422100
H91	H9	0.184000	0.832000	0.041700
H101	H10	0.299700	0.661400	0.019700
H111	H11	0.355300	0.593400	0.168300
H121	H12	0.763100	0.195800	0.172100
H131	H13	0.816000	0.168000	0.541700
H141	H14	0.700300	0.338600	0.519700
H151	H15	0.644700	0.406600	0.668300
H161	H16	0.236900	0.804200	0.672100
H171	H17	0.168000	0.816000	0.458300
H181	H18	0.338600	0.700300	0.480300
H191	H19	0.406600	0.644700	0.331700
H201	H20	0.804200	0.236900	0.327900
H211	H21	0.832000	0.184000	0.958300
H221	H22	0.661400	0.299700	0.980300
H231	H23	0.593400	0.355300	0.831700
H241	H24	0.195800	0.763100	0.827900
H251	H25	0.316000	0.332000	0.208300
H261	H26	0.200300	0.161400	0.230300
H271	H27	0.144700	0.093400	0.081700
H281	H28	0.736900	0.695800	0.077900
H291	H29	0.684000	0.668000	0.708300
H301	H30	0.799700	0.838600	0.730300
H311	H31	0.855300	0.906600	0.581700
H321	H32	0.263100	0.304200	0.577900
H331	H33	0.944000	0.944000	0.000000
H341	H34	0.056000	0.056000	0.500000
H351	H35	0.556000	0.444000	0.250000
H361	H36	0.444000	0.556000	0.750000
C11	C1	0.282900	0.283400	0.818370
C21	C2	0.181200	0.211200	0.805010
C31	C3	0.140900	0.179400	0.891600
C41	C4	0.241600	0.253400	0.904660
C51	C5	0.271800	0.277600	0.959340
C61	C6	0.735200	0.758600	0.953310
C71	C7	0.827300	0.848000	0.952930
C81	C8	0.866400	0.907800	0.902320
C91	C9	0.717100	0.716600	0.318370
C101	C10	0.818800	0.788800	0.305010
C111	C11	0.859100	0.820600	0.391600
C121	C12	0.758400	0.746600	0.404660
C131	C13	0.728200	0.722400	0.459340
C141	C14	0.264800	0.241400	0.453310
C151	C15	0.172700	0.152000	0.452930
C161	C16	0.133600	0.092200	0.402320
C171	C17	0.216600	0.782900	0.068370
C181	C18	0.288800	0.681200	0.055010
C191	C19	0.320600	0.640900	0.141600
C201	C20	0.246600	0.741600	0.154660
C211	C21	0.222400	0.771800	0.209340
C221	C22	0.741400	0.235200	0.203310
C231	C23	0.652000	0.327300	0.202930
C241	C24	0.592200	0.366400	0.152320
C251	C25	0.783400	0.217100	0.568370
C261	C26	0.711200	0.318800	0.555010
C271	C27	0.679400	0.359100	0.641600
C281	C28	0.753400	0.258400	0.654660
C291	C29	0.777600	0.228200	0.709340
C301	C30	0.258600	0.764800	0.703310
C311	C31	0.348000	0.672700	0.702930
C321	C32	0.407800	0.633600	0.652320
C331	C33	0.217100	0.783400	0.431630
C341	C34	0.318800	0.711200	0.444990
C351	C35	0.359100	0.679400	0.358400
C361	C36	0.258400	0.753400	0.345340
C371	C37	0.228200	0.777600	0.290660
C381	C38	0.764800	0.258600	0.296690
C391	C39	0.672700	0.348000	0.297070
C401	C40	0.633600	0.407800	0.347680
C411	C41	0.782900	0.216600	0.931630
C421	C42	0.681200	0.288800	0.944990
C431	C43	0.640900	0.320600	0.858400
C441	C44	0.741600	0.246600	0.845340
C451	C45	0.771800	0.222400	0.790660
C461	C46	0.235200	0.741400	0.796690
C471	C47	0.327300	0.652000	0.797070
C481	C48	0.366400	0.592200	0.847680
C491	C49	0.283400	0.282900	0.181630
C501	C50	0.211200	0.181200	0.194990
C511	C51	0.179400	0.140900	0.108400
C521	C52	0.253400	0.241600	0.095340
C531	C53	0.277600	0.271800	0.040660
C541	C54	0.758600	0.735200	0.046690
C551	C55	0.848000	0.827300	0.047070
C561	C56	0.907800	0.866400	0.097680
C571	C57	0.716600	0.717100	0.681630
C581	C58	0.788800	0.818800	0.694990
C591	C59	0.820600	0.859100	0.608400
C601	C60	0.746600	0.758400	0.595340
C611	C61	0.722400	0.728200	0.540660
C621	C62	0.241400	0.264800	0.546690
C631	C63	0.152000	0.172700	0.547070
C641	C64	0.092200	0.133600	0.597680
C651	C65	0.603800	0.603800	0.000000
C661	C66	0.701700	0.701700	0.000000
C671	C67	0.883200	0.883200	0.000000
C681	C68	0.396200	0.396200	0.500000
C691	C69	0.298300	0.298300	0.500000
C701	C70	0.116800	0.116800	0.500000
C711	C71	0.896200	0.103800	0.250000
C721	C72	0.798300	0.201700	0.250000
C731	C73	0.616800	0.383200	0.250000
C741	C74	0.103800	0.896200	0.750000
C751	C75	0.201700	0.798300	0.750000
C761	C76	0.383200	0.616800	0.750000
N11	N1	0.111400	0.157400	0.841720
N21	N2	0.311900	0.306900	0.868210
N31	N3	0.357300	0.360400	0.973370
N41	N4	0.888600	0.842600	0.341720
N51	N5	0.688100	0.693100	0.368210
N61	N6	0.642700	0.639600	0.473370
N71	N7	0.342600	0.611400	0.091720
N81	N8	0.193100	0.811900	0.118210
N91	N9	0.139600	0.857300	0.223370
N101	N10	0.657400	0.388600	0.591720
N111	N11	0.806900	0.188100	0.618210
N121	N12	0.860400	0.142700	0.723370
N131	N13	0.388600	0.657400	0.408280
N141	N14	0.188100	0.806900	0.381790
N151	N15	0.142700	0.860400	0.276630
N161	N16	0.611400	0.342600	0.908280
N171	N17	0.811900	0.193100	0.881790
N181	N18	0.857300	0.139600	0.776630
N191	N19	0.157400	0.111400	0.158280
N201	N20	0.306900	0.311900	0.131790
N211	N21	0.360400	0.357300	0.026630
N221	N22	0.842600	0.888600	0.658280
N231	N23	0.693100	0.688100	0.631790
N241	N24	0.639600	0.642700	0.526630
N251	N25	0.219610	0.219610	0.000000
N261	N26	0.780390	0.780390	0.500000
N271	N27	0.280390	0.719610	0.250000
N281	N28	0.719610	0.280390	0.750000
O11	O1	0.537200	0.594750	0.959880
O21	O2	0.800700	0.902800	0.862210
O31	O3	0.966400	0.967000	0.902090
O41	O4	0.462800	0.405250	0.459880
O51	O5	0.199300	0.097200	0.362210
O61	O6	0.033600	0.033000	0.402090
O71	O7	0.905250	0.037200	0.209880
O81	O8	0.597200	0.300700	0.112210
O91	O9	0.533000	0.466400	0.152090
O101	O10	0.094750	0.962800	0.709880
O111	O11	0.402800	0.699300	0.612210
O121	O12	0.467000	0.533600	0.652090
O131	O13	0.962800	0.094750	0.290120
O141	O14	0.699300	0.402800	0.387790
O151	O15	0.533600	0.467000	0.347910
O161	O16	0.037200	0.905250	0.790120
O171	O17	0.300700	0.597200	0.887790
O181	O18	0.466400	0.533000	0.847910
O191	O19	0.594750	0.537200	0.040120
O201	O20	0.902800	0.800700	0.137790
O211	O21	0.967000	0.966400	0.097910
O221	O22	0.405250	0.462800	0.540120
O231	O23	0.097200	0.199300	0.637790
O241	O24	0.033000	0.033600	0.597910
