data_HICZEA_freeONLY_PM
_symmetry_space_group_name_H-M	'P1'
_cell_length_a	14.665000
_cell_length_b	16.794900
_cell_length_c	16.729200
_cell_angle_alpha	90.000000
_cell_angle_beta	90.000000
_cell_angle_gamma	90.000000
_symmetry_Int_Tables_number 1

loop_
_symmetry_equiv_pos_as_xyz
'x,y,z'

loop_
_atom_site_label
_atom_site_type_symbol
_atom_site_fract_x
_atom_site_fract_y
_atom_site_fract_z
O11	O1	0.948600	0.401600	0.022600
O21	O2	0.046000	0.354500	0.112900
O31	O3	0.229200	0.114700	0.033200
O41	O4	0.223200	0.074500	0.914300
C11	C1	0.039200	0.271200	0.761000
H11	H1	0.061200	0.235600	0.742000
H21	H2	0.067100	0.317400	0.737600
O51	O5	0.868500	0.535100	0.137900
O61	O6	0.895000	0.435600	0.221900
O71	O7	0.570100	0.721000	0.334700
O81	O8	0.645100	0.750600	0.225900
C21	C2	0.777100	0.535500	0.488000
H31	H3	0.735000	0.556200	0.510200
H41	H4	0.831300	0.558900	0.510000
C31	C3	0.010700	0.356900	0.043400
C41	C4	0.200400	0.123300	0.963400
C51	C5	0.050100	0.306400	0.980800
C61	C6	0.108500	0.242800	0.002800
H51	H5	0.123800	0.235100	0.056200
C71	C7	0.142700	0.192200	0.944500
C81	C8	0.118200	0.207100	0.864400
H61	H6	0.137100	0.171600	0.825200
C91	C9	0.066400	0.273300	0.841800
C101	C10	0.025500	0.315500	0.903200
H71	H7	0.979400	0.351500	0.890700
C111	C11	0.862500	0.503300	0.205700
C121	C12	0.633400	0.706500	0.287800
C131	C13	0.812900	0.545900	0.268600
C141	C14	0.754200	0.606700	0.249000
H81	H8	0.750000	0.623800	0.196300
C151	C15	0.701000	0.643000	0.307800
C161	C16	0.713800	0.619000	0.388800
H91	H9	0.681900	0.640600	0.425300
C171	C17	0.776300	0.562200	0.409000
C181	C18	0.822900	0.519700	0.348200
H101	H10	0.859000	0.475800	0.360400
O91	O9	0.448600	0.901600	0.022600
O101	O10	0.546000	0.854500	0.112900
O111	O11	0.729200	0.614700	0.033200
O121	O12	0.723200	0.574500	0.914300
C191	C19	0.539200	0.771200	0.761000
H111	H11	0.561200	0.735600	0.742000
H121	H12	0.567100	0.817400	0.737600
O131	O13	0.368500	0.035100	0.137900
O141	O14	0.395000	0.935600	0.221900
O151	O15	0.070100	0.221000	0.334700
O161	O16	0.145100	0.250600	0.225900
C201	C20	0.277100	0.035500	0.488000
H131	H13	0.235000	0.056200	0.510200
H141	H14	0.331300	0.058900	0.510000
C211	C21	0.510700	0.856900	0.043400
C221	C22	0.700400	0.623300	0.963400
C231	C23	0.550100	0.806400	0.980800
C241	C24	0.608500	0.742800	0.002800
H151	H15	0.623800	0.735100	0.056200
C251	C25	0.642700	0.692200	0.944500
C261	C26	0.618200	0.707100	0.864400
H161	H16	0.637100	0.671600	0.825200
C271	C27	0.566400	0.773300	0.841800
C281	C28	0.525500	0.815500	0.903200
H171	H17	0.479400	0.851500	0.890700
C291	C29	0.362500	0.003300	0.205700
C301	C30	0.133400	0.206500	0.287800
C311	C31	0.312900	0.045900	0.268600
C321	C32	0.254200	0.106700	0.249000
H181	H18	0.250000	0.123800	0.196300
C331	C33	0.201000	0.143000	0.307800
C341	C34	0.213800	0.119000	0.388800
H191	H19	0.181900	0.140600	0.425300
C351	C35	0.276300	0.062200	0.409000
C361	C36	0.322900	0.019700	0.348200
H201	H20	0.359000	0.975800	0.360400
O171	O17	0.051400	0.598400	0.522600
O181	O18	0.954000	0.645500	0.612900
O191	O19	0.770800	0.885300	0.533200
O201	O20	0.776800	0.925500	0.414300
C371	C37	0.960800	0.728800	0.261000
H211	H21	0.938800	0.764400	0.242000
H221	H22	0.932900	0.682600	0.237600
O211	O21	0.131500	0.464900	0.637900
O221	O22	0.105000	0.564400	0.721900
O231	O23	0.429900	0.279000	0.834700
O241	O24	0.354900	0.249400	0.725900
C381	C38	0.222900	0.464500	0.988000
H231	H23	0.265000	0.443800	0.010200
H241	H24	0.168700	0.441100	0.010000
C391	C39	0.989300	0.643100	0.543400
C401	C40	0.799600	0.876700	0.463400
C411	C41	0.949900	0.693600	0.480800
C421	C42	0.891500	0.757200	0.502800
H251	H25	0.876200	0.764900	0.556200
C431	C43	0.857300	0.807800	0.444500
C441	C44	0.881800	0.792900	0.364400
H261	H26	0.862900	0.828400	0.325200
C451	C45	0.933600	0.726700	0.341800
C461	C46	0.974500	0.684500	0.403200
H271	H27	0.020600	0.648500	0.390700
C471	C47	0.137500	0.496700	0.705700
C481	C48	0.366600	0.293500	0.787800
C491	C49	0.187100	0.454100	0.768600
C501	C50	0.245800	0.393300	0.749000
H281	H28	0.250000	0.376200	0.696300
C511	C51	0.299000	0.357000	0.807800
C521	C52	0.286200	0.381000	0.888800
H291	H29	0.318100	0.359400	0.925300
C531	C53	0.223700	0.437800	0.909000
C541	C54	0.177100	0.480300	0.848200
H301	H30	0.141000	0.524200	0.860400
O251	O25	0.551400	0.098400	0.522600
O261	O26	0.454000	0.145500	0.612900
O271	O27	0.270800	0.385300	0.533200
O281	O28	0.276800	0.425500	0.414300
C551	C55	0.460800	0.228800	0.261000
H311	H31	0.438800	0.264400	0.242000
H321	H32	0.432900	0.182600	0.237600
O291	O29	0.631500	0.964900	0.637900
O301	O30	0.605000	0.064400	0.721900
O311	O31	0.929900	0.779000	0.834700
O321	O32	0.854900	0.749400	0.725900
C561	C56	0.722900	0.964500	0.988000
H331	H33	0.765000	0.943800	0.010200
H341	H34	0.668700	0.941100	0.010000
C571	C57	0.489300	0.143100	0.543400
C581	C58	0.299600	0.376700	0.463400
C591	C59	0.449900	0.193600	0.480800
C601	C60	0.391500	0.257200	0.502800
H351	H35	0.376200	0.264900	0.556200
C611	C61	0.357300	0.307800	0.444500
C621	C62	0.381800	0.292900	0.364400
H361	H36	0.362900	0.328400	0.325200
C631	C63	0.433600	0.226700	0.341800
C641	C64	0.474500	0.184500	0.403200
H371	H37	0.520600	0.148500	0.390700
C651	C65	0.637500	0.996700	0.705700
C661	C66	0.866600	0.793500	0.787800
C671	C67	0.687100	0.954100	0.768600
C681	C68	0.745800	0.893300	0.749000
H381	H38	0.750000	0.876200	0.696300
C691	C69	0.799000	0.857000	0.807800
C701	C70	0.786200	0.881000	0.888800
H391	H39	0.818100	0.859400	0.925300
C711	C71	0.723700	0.937800	0.909000
C721	C72	0.677100	0.980300	0.848200
H401	H40	0.641000	0.024200	0.860400
O331	O33	0.051400	0.401600	0.477400
O341	O34	0.954000	0.354500	0.387100
O351	O35	0.770800	0.114700	0.466800
O361	O36	0.776800	0.074500	0.585700
C731	C73	0.960800	0.271200	0.739000
H411	H41	0.938800	0.235600	0.758000
H421	H42	0.932900	0.317400	0.762400
O371	O37	0.131500	0.535100	0.362100
O381	O38	0.105000	0.435600	0.278100
O391	O39	0.429900	0.721000	0.165300
O401	O40	0.354900	0.750600	0.274100
C741	C74	0.222900	0.535500	0.012000
H431	H43	0.265000	0.556200	0.989800
H441	H44	0.168700	0.558900	0.990000
C751	C75	0.989300	0.356900	0.456600
C761	C76	0.799600	0.123300	0.536600
C771	C77	0.949900	0.306400	0.519200
C781	C78	0.891500	0.242800	0.497200
H451	H45	0.876200	0.235100	0.443800
C791	C79	0.857300	0.192200	0.555500
C801	C80	0.881800	0.207100	0.635600
H461	H46	0.862900	0.171600	0.674800
C811	C81	0.933600	0.273300	0.658200
C821	C82	0.974500	0.315500	0.596800
H471	H47	0.020600	0.351500	0.609300
C831	C83	0.137500	0.503300	0.294300
C841	C84	0.366600	0.706500	0.212200
C851	C85	0.187100	0.545900	0.231400
C861	C86	0.245800	0.606700	0.251000
H481	H48	0.250000	0.623800	0.303700
C871	C87	0.299000	0.643000	0.192200
C881	C88	0.286200	0.619000	0.111200
H491	H49	0.318100	0.640600	0.074700
C891	C89	0.223700	0.562200	0.091000
C901	C90	0.177100	0.519700	0.151800
H501	H50	0.141000	0.475800	0.139600
O411	O41	0.551400	0.901600	0.477400
O421	O42	0.454000	0.854500	0.387100
O431	O43	0.270800	0.614700	0.466800
O441	O44	0.276800	0.574500	0.585700
C911	C91	0.460800	0.771200	0.739000
H511	H51	0.438800	0.735600	0.758000
H521	H52	0.432900	0.817400	0.762400
O451	O45	0.631500	0.035100	0.362100
O461	O46	0.605000	0.935600	0.278100
O471	O47	0.929900	0.221000	0.165300
O481	O48	0.854900	0.250600	0.274100
C921	C92	0.722900	0.035500	0.012000
H531	H53	0.765000	0.056200	0.989800
H541	H54	0.668700	0.058900	0.990000
C931	C93	0.489300	0.856900	0.456600
C941	C94	0.299600	0.623300	0.536600
C951	C95	0.449900	0.806400	0.519200
C961	C96	0.391500	0.742800	0.497200
H551	H55	0.376200	0.735100	0.443800
C971	C97	0.357300	0.692200	0.555500
C981	C98	0.381800	0.707100	0.635600
H561	H56	0.362900	0.671600	0.674800
C991	C99	0.433600	0.773300	0.658200
C1001	C100	0.474500	0.815500	0.596800
H571	H57	0.520600	0.851500	0.609300
C1011	C101	0.637500	0.003300	0.294300
C1021	C102	0.866600	0.206500	0.212200
C1031	C103	0.687100	0.045900	0.231400
C1041	C104	0.745800	0.106700	0.251000
H581	H58	0.750000	0.123800	0.303700
C1051	C105	0.799000	0.143000	0.192200
C1061	C106	0.786200	0.119000	0.111200
H591	H59	0.818100	0.140600	0.074700
C1071	C107	0.723700	0.062200	0.091000
C1081	C108	0.677100	0.019700	0.151800
H601	H60	0.641000	0.975800	0.139600
O491	O49	0.948600	0.598400	0.977400
O501	O50	0.046000	0.645500	0.887100
O511	O51	0.229200	0.885300	0.966800
O521	O52	0.223200	0.925500	0.085700
C1091	C109	0.039200	0.728800	0.239000
H611	H61	0.061200	0.764400	0.258000
H621	H62	0.067100	0.682600	0.262400
O531	O53	0.868500	0.464900	0.862100
O541	O54	0.895000	0.564400	0.778100
O551	O55	0.570100	0.279000	0.665300
O561	O56	0.645100	0.249400	0.774100
C1101	C110	0.777100	0.464500	0.512000
H631	H63	0.735000	0.443800	0.489800
H641	H64	0.831300	0.441100	0.490000
C1111	C111	0.010700	0.643100	0.956600
C1121	C112	0.200400	0.876700	0.036600
C1131	C113	0.050100	0.693600	0.019200
C1141	C114	0.108500	0.757200	0.997200
H651	H65	0.123800	0.764900	0.943800
C1151	C115	0.142700	0.807800	0.055500
C1161	C116	0.118200	0.792900	0.135600
H661	H66	0.137100	0.828400	0.174800
C1171	C117	0.066400	0.726700	0.158200
C1181	C118	0.025500	0.684500	0.096800
H671	H67	0.979400	0.648500	0.109300
C1191	C119	0.862500	0.496700	0.794300
C1201	C120	0.633400	0.293500	0.712200
C1211	C121	0.812900	0.454100	0.731400
C1221	C122	0.754200	0.393300	0.751000
H681	H68	0.750000	0.376200	0.803700
C1231	C123	0.701000	0.357000	0.692200
C1241	C124	0.713800	0.381000	0.611200
H691	H69	0.681900	0.359400	0.574700
C1251	C125	0.776300	0.437800	0.591000
C1261	C126	0.822900	0.480300	0.651800
H701	H70	0.859000	0.524200	0.639600
O571	O57	0.448600	0.098400	0.977400
O581	O58	0.546000	0.145500	0.887100
O591	O59	0.729200	0.385300	0.966800
O601	O60	0.723200	0.425500	0.085700
C1271	C127	0.539200	0.228800	0.239000
H711	H71	0.561200	0.264400	0.258000
H721	H72	0.567100	0.182600	0.262400
O611	O61	0.368500	0.964900	0.862100
O621	O62	0.395000	0.064400	0.778100
O631	O63	0.070100	0.779000	0.665300
O641	O64	0.145100	0.749400	0.774100
C1281	C128	0.277100	0.964500	0.512000
H731	H73	0.235000	0.943800	0.489800
H741	H74	0.331300	0.941100	0.490000
C1291	C129	0.510700	0.143100	0.956600
C1301	C130	0.700400	0.376700	0.036600
C1311	C131	0.550100	0.193600	0.019200
C1321	C132	0.608500	0.257200	0.997200
H751	H75	0.623800	0.264900	0.943800
C1331	C133	0.642700	0.307800	0.055500
C1341	C134	0.618200	0.292900	0.135600
H761	H76	0.637100	0.328400	0.174800
C1351	C135	0.566400	0.226700	0.158200
C1361	C136	0.525500	0.184500	0.096800
H771	H77	0.479400	0.148500	0.109300
C1371	C137	0.362500	0.996700	0.794300
C1381	C138	0.133400	0.793500	0.712200
C1391	C139	0.312900	0.954100	0.731400
C1401	C140	0.254200	0.893300	0.751000
H781	H78	0.250000	0.876200	0.803700
C1411	C141	0.201000	0.857000	0.692200
C1421	C142	0.213800	0.881000	0.611200
H791	H79	0.181900	0.859400	0.574700
C1431	C143	0.276300	0.937800	0.591000
C1441	C144	0.322900	0.980300	0.651800
H801	H80	0.359000	0.024200	0.639600
Pr11	Pr1	0.000000	0.331630	0.250000
Pr21	Pr2	0.500000	0.831630	0.250000
Pr31	Pr3	0.000000	0.668370	0.750000
Pr41	Pr4	0.500000	0.168370	0.750000
Pr51	Pr5	0.837650	0.500000	0.000000
Pr61	Pr6	0.337650	0.000000	0.000000
Pr71	Pr7	0.162350	0.500000	0.500000
Pr81	Pr8	0.662350	0.000000	0.500000
