data_HIFGEK_freeONLY_PM
_symmetry_space_group_name_H-M	'P1'
_cell_length_a	30.404000
_cell_length_b	19.657000
_cell_length_c	19.683000
_cell_angle_alpha	90.000000
_cell_angle_beta	127.630000
_cell_angle_gamma	90.000000
_symmetry_Int_Tables_number 1

loop_
_symmetry_equiv_pos_as_xyz
'x,y,z'

loop_
_atom_site_label
_atom_site_type_symbol
_atom_site_fract_x
_atom_site_fract_y
_atom_site_fract_z
W11	W1	0.234580	0.444840	0.211490
S11	S1	0.170660	0.483300	0.224860
S21	S2	0.312840	0.474940	0.338550
S31	S3	0.231240	0.327160	0.219650
Cu11	Cu1	0.180390	0.373900	0.253430
Cu21	Cu2	0.296260	0.368410	0.349550
Cu31	Cu3	0.094710	0.253770	0.370220
B11	B1	0.225400	0.508300	0.042500
H11	H1	0.224000	0.529000	0.995000
N11	N1	0.168300	0.436700	0.067700
N21	N2	0.170400	0.474500	0.010700
N31	N3	0.236800	0.552500	0.173800
N41	N4	0.238500	0.565000	0.105200
N51	N5	0.285500	0.426100	0.164200
N61	N6	0.272900	0.456300	0.090400
N71	N7	0.066200	0.335400	0.408300
C11	C1	0.116300	0.405900	0.016600
C21	C2	0.087900	0.426100	0.932500
H21	H2	0.051700	0.413700	0.885700
C31	C3	0.124300	0.468900	0.931300
C41	C4	0.094900	0.359800	0.051200
H31	H3	0.116600	0.318200	0.072200
H41	H4	0.056300	0.349000	0.006000
H51	H5	0.098100	0.382400	0.097900
C51	C5	0.113900	0.505400	0.856100
H61	H6	0.114600	0.554100	0.864700
H71	H7	0.077800	0.492400	0.804400
H81	H8	0.142500	0.493400	0.850500
C61	C6	0.246400	0.613100	0.211100
C71	C7	0.252900	0.660900	0.170000
H91	H9	0.258700	0.707400	0.183700
C81	C8	0.249700	0.631300	0.106000
C91	C9	0.242300	0.626800	0.285200
H101	H10	0.204800	0.617700	0.265200
H111	H11	0.251600	0.674000	0.303100
H121	H12	0.268000	0.597300	0.333400
C101	C10	0.255000	0.662700	0.042000
H131	H13	0.276400	0.632900	0.033000
H141	H14	0.273700	0.706300	0.063400
H151	H15	0.218300	0.669400	0.988100
C111	C11	0.331700	0.386400	0.195000
C121	C12	0.347300	0.394500	0.141100
H161	H16	0.378000	0.374500	0.148100
C131	C13	0.308800	0.437200	0.076600
C141	C14	0.362400	0.346100	0.275500
H171	H17	0.374400	0.375800	0.323300
H181	H18	0.394600	0.325200	0.284800
H191	H19	0.338400	0.310900	0.270900
C151	C15	0.307400	0.464500	0.004900
H201	H20	0.273900	0.449200	0.950700
H211	H21	0.339600	0.448400	0.010500
H221	H22	0.307900	0.513900	0.006900
C161	C16	0.014000	0.360900	0.357800
H231	H23	0.989100	0.344700	0.301300
C171	C17	0.995700	0.410500	0.386700
H241	H24	0.959200	0.427200	0.350500
C181	C18	0.034200	0.434900	0.472700
C191	C19	0.085300	0.406500	0.521800
H251	H25	0.110500	0.420100	0.579400
C201	C20	0.101900	0.358100	0.490400
H261	H26	0.138200	0.340700	0.526400
C211	C21	0.021400	0.484000	0.517900
H271	H27	0.048300	0.490000	0.577300
N81	N8	0.129900	0.298300	0.324300
C221	C22	0.146900	0.326300	0.293700
N91	N9	0.359500	0.293800	0.518600
C231	C23	0.336200	0.321800	0.454500
N101	N10	0.023100	0.213000	0.278500
C241	C24	0.976900	0.213000	0.221500
W21	W2	0.734580	0.944840	0.211490
S41	S4	0.670660	0.983300	0.224860
S51	S5	0.812840	0.974940	0.338550
S61	S6	0.731240	0.827160	0.219650
Cu41	Cu4	0.680390	0.873900	0.253430
Cu51	Cu5	0.796260	0.868410	0.349550
Cu61	Cu6	0.594710	0.753770	0.370220
B21	B2	0.725400	0.008300	0.042500
H281	H28	0.724000	0.029000	0.995000
N111	N11	0.668300	0.936700	0.067700
N121	N12	0.670400	0.974500	0.010700
N131	N13	0.736800	0.052500	0.173800
N141	N14	0.738500	0.065000	0.105200
N151	N15	0.785500	0.926100	0.164200
N161	N16	0.772900	0.956300	0.090400
N171	N17	0.566200	0.835400	0.408300
C251	C25	0.616300	0.905900	0.016600
C261	C26	0.587900	0.926100	0.932500
H291	H29	0.551700	0.913700	0.885700
C271	C27	0.624300	0.968900	0.931300
C281	C28	0.594900	0.859800	0.051200
H301	H30	0.616600	0.818200	0.072200
H311	H31	0.556300	0.849000	0.006000
H321	H32	0.598100	0.882400	0.097900
C291	C29	0.613900	0.005400	0.856100
H331	H33	0.614600	0.054100	0.864700
H341	H34	0.577800	0.992400	0.804400
H351	H35	0.642500	0.993400	0.850500
C301	C30	0.746400	0.113100	0.211100
C311	C31	0.752900	0.160900	0.170000
H361	H36	0.758700	0.207400	0.183700
C321	C32	0.749700	0.131300	0.106000
C331	C33	0.742300	0.126800	0.285200
H371	H37	0.704800	0.117700	0.265200
H381	H38	0.751600	0.174000	0.303100
H391	H39	0.768000	0.097300	0.333400
C341	C34	0.755000	0.162700	0.042000
H401	H40	0.776400	0.132900	0.033000
H411	H41	0.773700	0.206300	0.063400
H421	H42	0.718300	0.169400	0.988100
C351	C35	0.831700	0.886400	0.195000
C361	C36	0.847300	0.894500	0.141100
H431	H43	0.878000	0.874500	0.148100
C371	C37	0.808800	0.937200	0.076600
C381	C38	0.862400	0.846100	0.275500
H441	H44	0.874400	0.875800	0.323300
H451	H45	0.894600	0.825200	0.284800
H461	H46	0.838400	0.810900	0.270900
C391	C39	0.807400	0.964500	0.004900
H471	H47	0.773900	0.949200	0.950700
H481	H48	0.839600	0.948400	0.010500
H491	H49	0.807900	0.013900	0.006900
C401	C40	0.514000	0.860900	0.357800
H501	H50	0.489100	0.844700	0.301300
C411	C41	0.495700	0.910500	0.386700
H511	H51	0.459200	0.927200	0.350500
C421	C42	0.534200	0.934900	0.472700
C431	C43	0.585300	0.906500	0.521800
H521	H52	0.610500	0.920100	0.579400
C441	C44	0.601900	0.858100	0.490400
H531	H53	0.638200	0.840700	0.526400
C451	C45	0.521400	0.984000	0.517900
H541	H54	0.548300	0.990000	0.577300
N181	N18	0.629900	0.798300	0.324300
C461	C46	0.646900	0.826300	0.293700
N191	N19	0.859500	0.793800	0.518600
C471	C47	0.836200	0.821800	0.454500
N201	N20	0.523100	0.713000	0.278500
C481	C48	0.476900	0.713000	0.221500
W31	W3	0.765420	0.444840	0.288510
S71	S7	0.829340	0.483300	0.275140
S81	S8	0.687160	0.474940	0.161450
S91	S9	0.768760	0.327160	0.280350
Cu71	Cu7	0.819610	0.373900	0.246570
Cu81	Cu8	0.703740	0.368410	0.150450
Cu91	Cu9	0.905290	0.253770	0.129780
B31	B3	0.774600	0.508300	0.457500
H551	H55	0.776000	0.529000	0.505000
N211	N21	0.831700	0.436700	0.432300
N221	N22	0.829600	0.474500	0.489300
N231	N23	0.763200	0.552500	0.326200
N241	N24	0.761500	0.565000	0.394800
N251	N25	0.714500	0.426100	0.335800
N261	N26	0.727100	0.456300	0.409600
N271	N27	0.933800	0.335400	0.091700
C491	C49	0.883700	0.405900	0.483400
C501	C50	0.912100	0.426100	0.567500
H561	H56	0.948300	0.413700	0.614300
C511	C51	0.875700	0.468900	0.568700
C521	C52	0.905100	0.359800	0.448800
H571	H57	0.883400	0.318200	0.427800
H581	H58	0.943700	0.349000	0.494000
H591	H59	0.901900	0.382400	0.402100
C531	C53	0.886100	0.505400	0.643900
H601	H60	0.885400	0.554100	0.635300
H611	H61	0.922200	0.492400	0.695600
H621	H62	0.857500	0.493400	0.649500
C541	C54	0.753600	0.613100	0.288900
C551	C55	0.747100	0.660900	0.330000
H631	H63	0.741300	0.707400	0.316300
C561	C56	0.750300	0.631300	0.394000
C571	C57	0.757700	0.626800	0.214800
H641	H64	0.795200	0.617700	0.234800
H651	H65	0.748400	0.674000	0.196900
H661	H66	0.732000	0.597300	0.166600
C581	C58	0.745000	0.662700	0.458000
H671	H67	0.723600	0.632900	0.467000
H681	H68	0.726300	0.706300	0.436600
H691	H69	0.781700	0.669400	0.511900
C591	C59	0.668300	0.386400	0.305000
C601	C60	0.652700	0.394500	0.358900
H701	H70	0.622000	0.374500	0.351900
C611	C61	0.691200	0.437200	0.423400
C621	C62	0.637600	0.346100	0.224500
H711	H71	0.625600	0.375800	0.176700
H721	H72	0.605400	0.325200	0.215200
H731	H73	0.661600	0.310900	0.229100
C631	C63	0.692600	0.464500	0.495100
H741	H74	0.726100	0.449200	0.549300
H751	H75	0.660400	0.448400	0.489500
H761	H76	0.692100	0.513900	0.493100
C641	C64	0.986000	0.360900	0.142200
H771	H77	0.010900	0.344700	0.198700
C651	C65	0.004300	0.410500	0.113300
H781	H78	0.040800	0.427200	0.149500
C661	C66	0.965800	0.434900	0.027300
C671	C67	0.914700	0.406500	0.978200
H791	H79	0.889500	0.420100	0.920600
C681	C68	0.898100	0.358100	0.009600
H801	H80	0.861800	0.340700	0.973600
C691	C69	0.978600	0.484000	0.982100
H811	H81	0.951700	0.490000	0.922700
N281	N28	0.870100	0.298300	0.175700
C701	C70	0.853100	0.326300	0.206300
N291	N29	0.640500	0.293800	0.981400
C711	C71	0.663800	0.321800	0.045500
W41	W4	0.265420	0.944840	0.288510
S101	S10	0.329340	0.983300	0.275140
S111	S11	0.187160	0.974940	0.161450
S121	S12	0.268760	0.827160	0.280350
Cu101	Cu10	0.319610	0.873900	0.246570
Cu111	Cu11	0.203740	0.868410	0.150450
Cu121	Cu12	0.405290	0.753770	0.129780
B41	B4	0.274600	0.008300	0.457500
H821	H82	0.276000	0.029000	0.505000
N301	N30	0.331700	0.936700	0.432300
N311	N31	0.329600	0.974500	0.489300
N321	N32	0.263200	0.052500	0.326200
N331	N33	0.261500	0.065000	0.394800
N341	N34	0.214500	0.926100	0.335800
N351	N35	0.227100	0.956300	0.409600
N361	N36	0.433800	0.835400	0.091700
C721	C72	0.383700	0.905900	0.483400
C731	C73	0.412100	0.926100	0.567500
H831	H83	0.448300	0.913700	0.614300
C741	C74	0.375700	0.968900	0.568700
C751	C75	0.405100	0.859800	0.448800
H841	H84	0.383400	0.818200	0.427800
H851	H85	0.443700	0.849000	0.494000
H861	H86	0.401900	0.882400	0.402100
C761	C76	0.386100	0.005400	0.643900
H871	H87	0.385400	0.054100	0.635300
H881	H88	0.422200	0.992400	0.695600
H891	H89	0.357500	0.993400	0.649500
C771	C77	0.253600	0.113100	0.288900
C781	C78	0.247100	0.160900	0.330000
H901	H90	0.241300	0.207400	0.316300
C791	C79	0.250300	0.131300	0.394000
C801	C80	0.257700	0.126800	0.214800
H911	H91	0.295200	0.117700	0.234800
H921	H92	0.248400	0.174000	0.196900
H931	H93	0.232000	0.097300	0.166600
C811	C81	0.245000	0.162700	0.458000
H941	H94	0.223600	0.132900	0.467000
H951	H95	0.226300	0.206300	0.436600
H961	H96	0.281700	0.169400	0.511900
C821	C82	0.168300	0.886400	0.305000
C831	C83	0.152700	0.894500	0.358900
H971	H97	0.122000	0.874500	0.351900
C841	C84	0.191200	0.937200	0.423400
C851	C85	0.137600	0.846100	0.224500
H981	H98	0.125600	0.875800	0.176700
H991	H99	0.105400	0.825200	0.215200
H1001	H100	0.161600	0.810900	0.229100
C861	C86	0.192600	0.964500	0.495100
H1011	H101	0.226100	0.949200	0.549300
H1021	H102	0.160400	0.948400	0.489500
H1031	H103	0.192100	0.013900	0.493100
C871	C87	0.486000	0.860900	0.142200
H1041	H104	0.510900	0.844700	0.198700
C881	C88	0.504300	0.910500	0.113300
H1051	H105	0.540800	0.927200	0.149500
C891	C89	0.465800	0.934900	0.027300
C901	C90	0.414700	0.906500	0.978200
H1061	H106	0.389500	0.920100	0.920600
C911	C91	0.398100	0.858100	0.009600
H1071	H107	0.361800	0.840700	0.973600
C921	C92	0.478600	0.984000	0.982100
H1081	H108	0.451700	0.990000	0.922700
N371	N37	0.370100	0.798300	0.175700
C931	C93	0.353100	0.826300	0.206300
N381	N38	0.140500	0.793800	0.981400
C941	C94	0.163800	0.821800	0.045500
W51	W5	0.765420	0.555160	0.788510
S131	S13	0.829340	0.516700	0.775140
S141	S14	0.687160	0.525060	0.661450
S151	S15	0.768760	0.672840	0.780350
Cu131	Cu13	0.819610	0.626100	0.746570
Cu141	Cu14	0.703740	0.631590	0.650450
Cu151	Cu15	0.905290	0.746230	0.629780
B51	B5	0.774600	0.491700	0.957500
H1091	H109	0.776000	0.471000	0.005000
N391	N39	0.831700	0.563300	0.932300
N401	N40	0.829600	0.525500	0.989300
N411	N41	0.763200	0.447500	0.826200
N421	N42	0.761500	0.435000	0.894800
N431	N43	0.714500	0.573900	0.835800
N441	N44	0.727100	0.543700	0.909600
N451	N45	0.933800	0.664600	0.591700
C951	C95	0.883700	0.594100	0.983400
C961	C96	0.912100	0.573900	0.067500
H1101	H110	0.948300	0.586300	0.114300
C971	C97	0.875700	0.531100	0.068700
C981	C98	0.905100	0.640200	0.948800
H1111	H111	0.883400	0.681800	0.927800
H1121	H112	0.943700	0.651000	0.994000
H1131	H113	0.901900	0.617600	0.902100
C991	C99	0.886100	0.494600	0.143900
H1141	H114	0.885400	0.445900	0.135300
H1151	H115	0.922200	0.507600	0.195600
H1161	H116	0.857500	0.506600	0.149500
C1001	C100	0.753600	0.386900	0.788900
C1011	C101	0.747100	0.339100	0.830000
H1171	H117	0.741300	0.292600	0.816300
C1021	C102	0.750300	0.368700	0.894000
C1031	C103	0.757700	0.373200	0.714800
H1181	H118	0.795200	0.382300	0.734800
H1191	H119	0.748400	0.326000	0.696900
H1201	H120	0.732000	0.402700	0.666600
C1041	C104	0.745000	0.337300	0.958000
H1211	H121	0.723600	0.367100	0.967000
H1221	H122	0.726300	0.293700	0.936600
H1231	H123	0.781700	0.330600	0.011900
C1051	C105	0.668300	0.613600	0.805000
C1061	C106	0.652700	0.605500	0.858900
H1241	H124	0.622000	0.625500	0.851900
C1071	C107	0.691200	0.562800	0.923400
C1081	C108	0.637600	0.653900	0.724500
H1251	H125	0.625600	0.624200	0.676700
H1261	H126	0.605400	0.674800	0.715200
H1271	H127	0.661600	0.689100	0.729100
C1091	C109	0.692600	0.535500	0.995100
H1281	H128	0.726100	0.550800	0.049300
H1291	H129	0.660400	0.551600	0.989500
H1301	H130	0.692100	0.486100	0.993100
C1101	C110	0.986000	0.639100	0.642200
H1311	H131	0.010900	0.655300	0.698700
C1111	C111	0.004300	0.589500	0.613300
H1321	H132	0.040800	0.572800	0.649500
C1121	C112	0.965800	0.565100	0.527300
C1131	C113	0.914700	0.593500	0.478200
H1331	H133	0.889500	0.579900	0.420600
C1141	C114	0.898100	0.641900	0.509600
H1341	H134	0.861800	0.659300	0.473600
C1151	C115	0.978600	0.516000	0.482100
H1351	H135	0.951700	0.510000	0.422700
N461	N46	0.870100	0.701700	0.675700
C1161	C116	0.853100	0.673700	0.706300
N471	N47	0.640500	0.706200	0.481400
C1171	C117	0.663800	0.678200	0.545500
N481	N48	0.976900	0.787000	0.721500
C1181	C118	0.023100	0.787000	0.778500
W61	W6	0.265420	0.055160	0.788510
S161	S16	0.329340	0.016700	0.775140
S171	S17	0.187160	0.025060	0.661450
S181	S18	0.268760	0.172840	0.780350
Cu161	Cu16	0.319610	0.126100	0.746570
Cu171	Cu17	0.203740	0.131590	0.650450
Cu181	Cu18	0.405290	0.246230	0.629780
B61	B6	0.274600	0.991700	0.957500
H1361	H136	0.276000	0.971000	0.005000
N491	N49	0.331700	0.063300	0.932300
N501	N50	0.329600	0.025500	0.989300
N511	N51	0.263200	0.947500	0.826200
N521	N52	0.261500	0.935000	0.894800
N531	N53	0.214500	0.073900	0.835800
N541	N54	0.227100	0.043700	0.909600
N551	N55	0.433800	0.164600	0.591700
C1191	C119	0.383700	0.094100	0.983400
C1201	C120	0.412100	0.073900	0.067500
H1371	H137	0.448300	0.086300	0.114300
C1211	C121	0.375700	0.031100	0.068700
C1221	C122	0.405100	0.140200	0.948800
H1381	H138	0.383400	0.181800	0.927800
H1391	H139	0.443700	0.151000	0.994000
H1401	H140	0.401900	0.117600	0.902100
C1231	C123	0.386100	0.994600	0.143900
H1411	H141	0.385400	0.945900	0.135300
H1421	H142	0.422200	0.007600	0.195600
H1431	H143	0.357500	0.006600	0.149500
C1241	C124	0.253600	0.886900	0.788900
C1251	C125	0.247100	0.839100	0.830000
H1441	H144	0.241300	0.792600	0.816300
C1261	C126	0.250300	0.868700	0.894000
C1271	C127	0.257700	0.873200	0.714800
H1451	H145	0.295200	0.882300	0.734800
H1461	H146	0.248400	0.826000	0.696900
H1471	H147	0.232000	0.902700	0.666600
C1281	C128	0.245000	0.837300	0.958000
H1481	H148	0.223600	0.867100	0.967000
H1491	H149	0.226300	0.793700	0.936600
H1501	H150	0.281700	0.830600	0.011900
C1291	C129	0.168300	0.113600	0.805000
C1301	C130	0.152700	0.105500	0.858900
H1511	H151	0.122000	0.125500	0.851900
C1311	C131	0.191200	0.062800	0.923400
C1321	C132	0.137600	0.153900	0.724500
H1521	H152	0.125600	0.124200	0.676700
H1531	H153	0.105400	0.174800	0.715200
H1541	H154	0.161600	0.189100	0.729100
C1331	C133	0.192600	0.035500	0.995100
H1551	H155	0.226100	0.050800	0.049300
H1561	H156	0.160400	0.051600	0.989500
H1571	H157	0.192100	0.986100	0.993100
C1341	C134	0.486000	0.139100	0.642200
H1581	H158	0.510900	0.155300	0.698700
C1351	C135	0.504300	0.089500	0.613300
H1591	H159	0.540800	0.072800	0.649500
C1361	C136	0.465800	0.065100	0.527300
C1371	C137	0.414700	0.093500	0.478200
H1601	H160	0.389500	0.079900	0.420600
C1381	C138	0.398100	0.141900	0.509600
H1611	H161	0.361800	0.159300	0.473600
C1391	C139	0.478600	0.016000	0.482100
H1621	H162	0.451700	0.010000	0.422700
N561	N56	0.370100	0.201700	0.675700
C1401	C140	0.353100	0.173700	0.706300
N571	N57	0.140500	0.206200	0.481400
C1411	C141	0.163800	0.178200	0.545500
N581	N58	0.476900	0.287000	0.721500
C1421	C142	0.523100	0.287000	0.778500
W71	W7	0.234580	0.555160	0.711490
S191	S19	0.170660	0.516700	0.724860
S201	S20	0.312840	0.525060	0.838550
S211	S21	0.231240	0.672840	0.719650
Cu191	Cu19	0.180390	0.626100	0.753430
Cu201	Cu20	0.296260	0.631590	0.849550
Cu211	Cu21	0.094710	0.746230	0.870220
B71	B7	0.225400	0.491700	0.542500
H1631	H163	0.224000	0.471000	0.495000
N591	N59	0.168300	0.563300	0.567700
N601	N60	0.170400	0.525500	0.510700
N611	N61	0.236800	0.447500	0.673800
N621	N62	0.238500	0.435000	0.605200
N631	N63	0.285500	0.573900	0.664200
N641	N64	0.272900	0.543700	0.590400
N651	N65	0.066200	0.664600	0.908300
C1431	C143	0.116300	0.594100	0.516600
C1441	C144	0.087900	0.573900	0.432500
H1641	H164	0.051700	0.586300	0.385700
C1451	C145	0.124300	0.531100	0.431300
C1461	C146	0.094900	0.640200	0.551200
H1651	H165	0.116600	0.681800	0.572200
H1661	H166	0.056300	0.651000	0.506000
H1671	H167	0.098100	0.617600	0.597900
C1471	C147	0.113900	0.494600	0.356100
H1681	H168	0.114600	0.445900	0.364700
H1691	H169	0.077800	0.507600	0.304400
H1701	H170	0.142500	0.506600	0.350500
C1481	C148	0.246400	0.386900	0.711100
C1491	C149	0.252900	0.339100	0.670000
H1711	H171	0.258700	0.292600	0.683700
C1501	C150	0.249700	0.368700	0.606000
C1511	C151	0.242300	0.373200	0.785200
H1721	H172	0.204800	0.382300	0.765200
H1731	H173	0.251600	0.326000	0.803100
H1741	H174	0.268000	0.402700	0.833400
C1521	C152	0.255000	0.337300	0.542000
H1751	H175	0.276400	0.367100	0.533000
H1761	H176	0.273700	0.293700	0.563400
H1771	H177	0.218300	0.330600	0.488100
C1531	C153	0.331700	0.613600	0.695000
C1541	C154	0.347300	0.605500	0.641100
H1781	H178	0.378000	0.625500	0.648100
C1551	C155	0.308800	0.562800	0.576600
C1561	C156	0.362400	0.653900	0.775500
H1791	H179	0.374400	0.624200	0.823300
H1801	H180	0.394600	0.674800	0.784800
H1811	H181	0.338400	0.689100	0.770900
C1571	C157	0.307400	0.535500	0.504900
H1821	H182	0.273900	0.550800	0.450700
H1831	H183	0.339600	0.551600	0.510500
H1841	H184	0.307900	0.486100	0.506900
C1581	C158	0.014000	0.639100	0.857800
H1851	H185	0.989100	0.655300	0.801300
C1591	C159	0.995700	0.589500	0.886700
H1861	H186	0.959200	0.572800	0.850500
C1601	C160	0.034200	0.565100	0.972700
C1611	C161	0.085300	0.593500	0.021800
H1871	H187	0.110500	0.579900	0.079400
C1621	C162	0.101900	0.641900	0.990400
H1881	H188	0.138200	0.659300	0.026400
C1631	C163	0.021400	0.516000	0.017900
H1891	H189	0.048300	0.510000	0.077300
N661	N66	0.129900	0.701700	0.824300
C1641	C164	0.146900	0.673700	0.793700
N671	N67	0.359500	0.706200	0.018600
C1651	C165	0.336200	0.678200	0.954500
W81	W8	0.734580	0.055160	0.711490
S221	S22	0.670660	0.016700	0.724860
S231	S23	0.812840	0.025060	0.838550
S241	S24	0.731240	0.172840	0.719650
Cu221	Cu22	0.680390	0.126100	0.753430
Cu231	Cu23	0.796260	0.131590	0.849550
Cu241	Cu24	0.594710	0.246230	0.870220
B81	B8	0.725400	0.991700	0.542500
H1901	H190	0.724000	0.971000	0.495000
N681	N68	0.668300	0.063300	0.567700
N691	N69	0.670400	0.025500	0.510700
N701	N70	0.736800	0.947500	0.673800
N711	N71	0.738500	0.935000	0.605200
N721	N72	0.785500	0.073900	0.664200
N731	N73	0.772900	0.043700	0.590400
N741	N74	0.566200	0.164600	0.908300
C1661	C166	0.616300	0.094100	0.516600
C1671	C167	0.587900	0.073900	0.432500
H1911	H191	0.551700	0.086300	0.385700
C1681	C168	0.624300	0.031100	0.431300
C1691	C169	0.594900	0.140200	0.551200
H1921	H192	0.616600	0.181800	0.572200
H1931	H193	0.556300	0.151000	0.506000
H1941	H194	0.598100	0.117600	0.597900
C1701	C170	0.613900	0.994600	0.356100
H1951	H195	0.614600	0.945900	0.364700
H1961	H196	0.577800	0.007600	0.304400
H1971	H197	0.642500	0.006600	0.350500
C1711	C171	0.746400	0.886900	0.711100
C1721	C172	0.752900	0.839100	0.670000
H1981	H198	0.758700	0.792600	0.683700
C1731	C173	0.749700	0.868700	0.606000
C1741	C174	0.742300	0.873200	0.785200
H1991	H199	0.704800	0.882300	0.765200
H2001	H200	0.751600	0.826000	0.803100
H2011	H201	0.768000	0.902700	0.833400
C1751	C175	0.755000	0.837300	0.542000
H2021	H202	0.776400	0.867100	0.533000
H2031	H203	0.773700	0.793700	0.563400
H2041	H204	0.718300	0.830600	0.488100
C1761	C176	0.831700	0.113600	0.695000
C1771	C177	0.847300	0.105500	0.641100
H2051	H205	0.878000	0.125500	0.648100
C1781	C178	0.808800	0.062800	0.576600
C1791	C179	0.862400	0.153900	0.775500
H2061	H206	0.874400	0.124200	0.823300
H2071	H207	0.894600	0.174800	0.784800
H2081	H208	0.838400	0.189100	0.770900
C1801	C180	0.807400	0.035500	0.504900
H2091	H209	0.773900	0.050800	0.450700
H2101	H210	0.839600	0.051600	0.510500
H2111	H211	0.807900	0.986100	0.506900
C1811	C181	0.514000	0.139100	0.857800
H2121	H212	0.489100	0.155300	0.801300
C1821	C182	0.495700	0.089500	0.886700
H2131	H213	0.459200	0.072800	0.850500
C1831	C183	0.534200	0.065100	0.972700
C1841	C184	0.585300	0.093500	0.021800
H2141	H214	0.610500	0.079900	0.079400
C1851	C185	0.601900	0.141900	0.990400
H2151	H215	0.638200	0.159300	0.026400
C1861	C186	0.521400	0.016000	0.017900
H2161	H216	0.548300	0.010000	0.077300
N751	N75	0.629900	0.201700	0.824300
C1871	C187	0.646900	0.173700	0.793700
N761	N76	0.859500	0.206200	0.018600
C1881	C188	0.836200	0.178200	0.954500
