data_HIFTUM_freeONLY_PM
_symmetry_space_group_name_H-M	'P1'
_cell_length_a	13.998500
_cell_length_b	13.998500
_cell_length_c	16.688000
_cell_angle_alpha	80.951500
_cell_angle_beta	80.951500
_cell_angle_gamma	61.634800
_symmetry_Int_Tables_number 1

loop_
_symmetry_equiv_pos_as_xyz
'x,y,z'

loop_
_atom_site_label
_atom_site_type_symbol
_atom_site_fract_x
_atom_site_fract_y
_atom_site_fract_z
Fe11	Fe1	0.839110	0.780310	0.418400
Fe21	Fe2	0.219690	0.160890	0.081600
Fe31	Fe3	0.160890	0.219690	0.581600
Fe41	Fe4	0.780310	0.839110	0.918400
Ni11	Ni1	0.953660	0.591220	0.693430
Ni21	Ni2	0.408780	0.046340	0.806570
Ni31	Ni3	0.046340	0.408780	0.306570
Ni41	Ni4	0.591220	0.953660	0.193430
Ni51	Ni5	0.107090	0.892910	0.250000
Ni61	Ni6	0.892910	0.107090	0.750000
H11	H1	0.135200	0.591000	0.652400
H21	H2	0.077500	0.668100	0.714700
H31	H3	0.217700	0.447500	0.739500
H41	H4	0.217200	0.541200	0.780600
H51	H5	0.094500	0.545100	0.864600
H61	H6	0.199100	0.431300	0.862600
H71	H7	0.053000	0.410800	0.898000
H81	H8	0.110800	0.360800	0.814700
H91	H9	0.935400	0.544000	0.839200
H101	H10	0.883800	0.448800	0.883300
H111	H11	0.941000	0.372400	0.813200
H121	H12	0.748100	0.533300	0.835000
H131	H13	0.788900	0.417500	0.807500
H141	H14	0.774400	0.477000	0.677300
H151	H15	0.679700	0.580300	0.717800
H161	H16	0.757300	0.669300	0.677000
H171	H17	0.816100	0.590100	0.617600
H181	H18	0.164800	0.869200	0.389500
H191	H19	0.222700	0.920900	0.334900
H201	H20	0.093200	0.994200	0.445400
H211	H21	0.141600	0.055000	0.378200
H221	H22	0.001500	0.161300	0.371800
H231	H23	0.953500	0.088300	0.423900
H241	H24	0.922900	0.179900	0.283600
H251	H25	0.865100	0.118100	0.339700
H261	H26	0.409000	0.864800	0.847600
H271	H27	0.331900	0.922500	0.785300
H281	H28	0.552500	0.782300	0.760500
H291	H29	0.458800	0.782800	0.719400
H301	H30	0.454900	0.905500	0.635400
H311	H31	0.568700	0.800900	0.637400
H321	H32	0.589200	0.947000	0.602000
H331	H33	0.639200	0.889200	0.685300
H341	H34	0.456000	0.064600	0.660800
H351	H35	0.551200	0.116200	0.616700
H361	H36	0.627600	0.059000	0.686800
H371	H37	0.466700	0.251900	0.665000
H381	H38	0.582500	0.211100	0.692500
H391	H39	0.523000	0.225600	0.822700
H401	H40	0.419700	0.320300	0.782200
H411	H41	0.330700	0.242700	0.823000
H421	H42	0.409900	0.183900	0.882400
H431	H43	0.130800	0.835200	0.110500
H441	H44	0.079100	0.777300	0.165100
H451	H45	0.005800	0.906800	0.054600
H461	H46	0.945000	0.858400	0.121800
H471	H47	0.838700	0.998500	0.128200
H481	H48	0.911700	0.046500	0.076100
H491	H49	0.820100	0.077100	0.216400
H501	H50	0.881900	0.134900	0.160300
H511	H51	0.864800	0.409000	0.347600
H521	H52	0.922500	0.331900	0.285300
H531	H53	0.782300	0.552500	0.260500
H541	H54	0.782800	0.458800	0.219400
H551	H55	0.905500	0.454900	0.135400
H561	H56	0.800900	0.568700	0.137400
H571	H57	0.947000	0.589200	0.102000
H581	H58	0.889200	0.639200	0.185300
H591	H59	0.064600	0.456000	0.160800
H601	H60	0.116200	0.551200	0.116700
H611	H61	0.059000	0.627600	0.186800
H621	H62	0.251900	0.466700	0.165000
H631	H63	0.211100	0.582500	0.192500
H641	H64	0.225600	0.523000	0.322700
H651	H65	0.320300	0.419700	0.282200
H661	H66	0.242700	0.330700	0.323000
H671	H67	0.183900	0.409900	0.382400
H681	H68	0.835200	0.130800	0.610500
H691	H69	0.777300	0.079100	0.665100
H701	H70	0.906800	0.005800	0.554600
H711	H71	0.858400	0.945000	0.621800
H721	H72	0.998500	0.838700	0.628200
H731	H73	0.046500	0.911700	0.576100
H741	H74	0.077100	0.820100	0.716400
H751	H75	0.134900	0.881900	0.660300
H761	H76	0.591000	0.135200	0.152400
H771	H77	0.668100	0.077500	0.214700
H781	H78	0.447500	0.217700	0.239500
H791	H79	0.541200	0.217200	0.280600
H801	H80	0.545100	0.094500	0.364600
H811	H81	0.431300	0.199100	0.362600
H821	H82	0.410800	0.053000	0.398000
H831	H83	0.360800	0.110800	0.314700
H841	H84	0.544000	0.935400	0.339200
H851	H85	0.448800	0.883800	0.383300
H861	H86	0.372400	0.941000	0.313200
H871	H87	0.533300	0.748100	0.335000
H881	H88	0.417500	0.788900	0.307500
H891	H89	0.477000	0.774400	0.177300
H901	H90	0.580300	0.679700	0.217800
H911	H91	0.669300	0.757300	0.177000
H921	H92	0.590100	0.816100	0.117600
H931	H93	0.869200	0.164800	0.889500
H941	H94	0.920900	0.222700	0.834900
H951	H95	0.994200	0.093200	0.945400
H961	H96	0.055000	0.141600	0.878200
H971	H97	0.161300	0.001500	0.871800
H981	H98	0.088300	0.953500	0.923900
H991	H99	0.179900	0.922900	0.783600
H1001	H100	0.118100	0.865100	0.839700
C11	C1	0.901800	0.728000	0.521800
C21	C2	0.960300	0.801300	0.364700
C31	C3	0.914800	0.632600	0.387500
C41	C4	0.766400	0.931000	0.444800
C51	C5	0.715900	0.755100	0.465000
C61	C6	0.771600	0.831600	0.317600
C71	C7	0.170000	0.513000	0.767500
C81	C8	0.135100	0.481300	0.833500
C91	C9	0.068800	0.429400	0.840100
C101	C10	0.898600	0.449200	0.823900
C111	C11	0.800400	0.482400	0.796800
C121	C12	0.758900	0.534700	0.711200
C131	C13	0.096600	0.017200	0.386900
C141	C14	0.998500	0.092300	0.373600
C151	C15	0.935900	0.108700	0.312200
C161	C16	0.272000	0.098200	0.978200
C171	C17	0.198700	0.039700	0.135300
C181	C18	0.367400	0.085200	0.112500
C191	C19	0.069000	0.233600	0.055200
C201	C20	0.244900	0.284100	0.035000
C211	C21	0.168400	0.228400	0.182400
C221	C22	0.487000	0.830000	0.732500
C231	C23	0.518700	0.864900	0.666500
C241	C24	0.570600	0.931200	0.659900
C251	C25	0.550800	0.101400	0.676100
C261	C26	0.517600	0.199600	0.703200
C271	C27	0.465300	0.241100	0.788800
C281	C28	0.982800	0.903400	0.113100
C291	C29	0.907700	0.001500	0.126400
C301	C30	0.891300	0.064100	0.187800
C311	C31	0.098200	0.272000	0.478200
C321	C32	0.039700	0.198700	0.635300
C331	C33	0.085200	0.367400	0.612500
C341	C34	0.233600	0.069000	0.555200
C351	C35	0.284100	0.244900	0.535000
C361	C36	0.228400	0.168400	0.682400
C371	C37	0.830000	0.487000	0.232500
C381	C38	0.864900	0.518700	0.166500
C391	C39	0.931200	0.570600	0.159900
C401	C40	0.101400	0.550800	0.176100
C411	C41	0.199600	0.517600	0.203200
C421	C42	0.241100	0.465300	0.288800
C431	C43	0.903400	0.982800	0.613100
C441	C44	0.001500	0.907700	0.626400
C451	C45	0.064100	0.891300	0.687800
C461	C46	0.728000	0.901800	0.021800
C471	C47	0.801300	0.960300	0.864700
C481	C48	0.632600	0.914800	0.887500
C491	C49	0.931000	0.766400	0.944800
C501	C50	0.755100	0.715900	0.965000
C511	C51	0.831600	0.771600	0.817600
C521	C52	0.513000	0.170000	0.267500
C531	C53	0.481300	0.135100	0.333500
C541	C54	0.429400	0.068800	0.340100
C551	C55	0.449200	0.898600	0.323900
C561	C56	0.482400	0.800400	0.296800
C571	C57	0.534700	0.758900	0.211200
C581	C58	0.017200	0.096600	0.886900
C591	C59	0.092300	0.998500	0.873600
C601	C60	0.108700	0.935900	0.812200
N11	N1	0.936200	0.691000	0.583300
N21	N2	0.028100	0.818500	0.328000
N31	N3	0.960700	0.547500	0.366800
N41	N4	0.725100	0.020500	0.456900
N51	N5	0.648100	0.733100	0.490300
N61	N6	0.725900	0.866300	0.260300
N71	N7	0.095800	0.600200	0.702000
N81	N8	0.968000	0.489600	0.804600
N91	N9	0.808400	0.599000	0.671400
N101	N10	0.155500	0.925300	0.350400
N111	N11	0.309000	0.063800	0.916700
N121	N12	0.181500	0.971900	0.172000
N131	N13	0.452500	0.039300	0.133200
N141	N14	0.979500	0.274900	0.043100
N151	N15	0.266900	0.351900	0.009700
N161	N16	0.133700	0.274100	0.239700
N171	N17	0.399800	0.904200	0.798000
N181	N18	0.510400	0.032000	0.695400
N191	N19	0.401000	0.191600	0.828600
N201	N20	0.074700	0.844500	0.149600
N211	N21	0.063800	0.309000	0.416700
N221	N22	0.971900	0.181500	0.672000
N231	N23	0.039300	0.452500	0.633200
N241	N24	0.274900	0.979500	0.543100
N251	N25	0.351900	0.266900	0.509700
N261	N26	0.274100	0.133700	0.739700
N271	N27	0.904200	0.399800	0.298000
N281	N28	0.032000	0.510400	0.195400
N291	N29	0.191600	0.401000	0.328600
N301	N30	0.844500	0.074700	0.649600
N311	N31	0.691000	0.936200	0.083300
N321	N32	0.818500	0.028100	0.828000
N331	N33	0.547500	0.960700	0.866800
N341	N34	0.020500	0.725100	0.956900
N351	N35	0.733100	0.648100	0.990300
N361	N36	0.866300	0.725900	0.760300
N371	N37	0.600200	0.095800	0.202000
N381	N38	0.489600	0.968000	0.304600
N391	N39	0.599000	0.808400	0.171400
N401	N40	0.925300	0.155500	0.850400
N411	N41	0.960000	0.040000	0.250000
N421	N42	0.040000	0.960000	0.750000
O11	O1	0.254600	0.745400	0.250000
O21	O2	0.745400	0.254600	0.750000
