data_HIFZAY_charged_PM
_symmetry_space_group_name_H-M	'P1'
_cell_length_a	12.086100
_cell_length_b	14.655500
_cell_length_c	21.567300
_cell_angle_alpha	90.000000
_cell_angle_beta	104.025000
_cell_angle_gamma	90.000000
_symmetry_Int_Tables_number 1

loop_
_symmetry_equiv_pos_as_xyz
'x,y,z'

loop_
_atom_site_label
_atom_site_type_symbol
_atom_site_fract_x
_atom_site_fract_y
_atom_site_fract_z
Cu11	Cu1	0.725270	0.741240	0.504770
Cu21	Cu2	0.274730	0.741240	0.995230
Cu31	Cu3	0.274730	0.258760	0.495230
Cu41	Cu4	0.725270	0.258760	0.004770
Cu51	Cu5	0.000000	0.000000	0.500000
Cu61	Cu6	0.000000	0.000000	0.000000
H11	H1	0.144300	0.110000	0.613700
H21	H2	0.143300	0.131600	0.720500
H31	H3	0.862000	0.978400	0.686700
H41	H4	0.735400	0.012200	0.467100
H51	H5	0.667400	0.279900	0.440700
H61	H6	0.862000	0.300600	0.452300
H71	H7	0.523400	0.237000	0.491500
H81	H8	0.545800	0.000900	0.401000
H91	H9	0.351900	0.981100	0.394900
H101	H10	0.598800	0.619700	0.407500
H111	H11	0.506000	0.616200	0.300800
H121	H12	0.567700	0.882600	0.296800
H131	H13	0.697100	0.706400	0.641100
H141	H14	0.812500	0.699800	0.744700
H151	H15	0.074900	0.754100	0.667800
H161	H16	0.861000	0.566400	0.536000
H171	H17	0.072200	0.554300	0.419500
H181	H18	0.987400	0.687100	0.373100
H191	H19	0.855700	0.110000	0.886300
H201	H20	0.856700	0.131600	0.779500
H211	H21	0.138000	0.978400	0.813300
H221	H22	0.264600	0.012200	0.032900
H231	H23	0.332600	0.279900	0.059300
H241	H24	0.138000	0.300600	0.047700
H251	H25	0.476600	0.237000	0.008500
H261	H26	0.454200	0.000900	0.099000
H271	H27	0.648100	0.981100	0.105100
H281	H28	0.401200	0.619700	0.092500
H291	H29	0.494000	0.616200	0.199200
H301	H30	0.432300	0.882600	0.203200
H311	H31	0.302900	0.706400	0.858900
H321	H32	0.187500	0.699800	0.755300
H331	H33	0.925100	0.754100	0.832200
H341	H34	0.139000	0.566400	0.964000
H351	H35	0.927800	0.554300	0.080500
H361	H36	0.012600	0.687100	0.126900
H371	H37	0.855700	0.890000	0.386300
H381	H38	0.856700	0.868400	0.279500
H391	H39	0.138000	0.021600	0.313300
H401	H40	0.264600	0.987800	0.532900
H411	H41	0.332600	0.720100	0.559300
H421	H42	0.138000	0.699400	0.547700
H431	H43	0.476600	0.763000	0.508500
H441	H44	0.454200	0.999100	0.599000
H451	H45	0.648100	0.018900	0.605100
H461	H46	0.401200	0.380300	0.592500
H471	H47	0.494000	0.383800	0.699200
H481	H48	0.432300	0.117400	0.703200
H491	H49	0.302900	0.293600	0.358900
H501	H50	0.187500	0.300200	0.255300
H511	H51	0.925100	0.245900	0.332200
H521	H52	0.139000	0.433600	0.464000
H531	H53	0.927800	0.445700	0.580500
H541	H54	0.012600	0.312900	0.626900
H551	H55	0.144300	0.890000	0.113700
H561	H56	0.143300	0.868400	0.220500
H571	H57	0.862000	0.021600	0.186700
H581	H58	0.735400	0.987800	0.967100
H591	H59	0.667400	0.720100	0.940700
H601	H60	0.862000	0.699400	0.952300
H611	H61	0.523400	0.763000	0.991500
H621	H62	0.545800	0.999100	0.901000
H631	H63	0.351900	0.018900	0.894900
H641	H64	0.598800	0.380300	0.907500
H651	H65	0.506000	0.383800	0.800800
H661	H66	0.567700	0.117400	0.796800
H671	H67	0.697100	0.293600	0.141100
H681	H68	0.812500	0.300200	0.244700
H691	H69	0.074900	0.245900	0.167800
H701	H70	0.861000	0.433600	0.036000
H711	H71	0.072200	0.445700	0.919500
H721	H72	0.987400	0.312900	0.873100
C11	C1	0.086800	0.082500	0.629800
C21	C2	0.086700	0.096000	0.693700
C31	C3	0.002100	0.056000	0.716200
C41	C4	0.922000	0.005300	0.672500
C51	C5	0.759700	0.072900	0.465300
C61	C6	0.678600	0.142700	0.453200
C71	C7	0.717700	0.230000	0.448800
C81	C8	0.834600	0.241600	0.456900
C91	C9	0.489500	0.183800	0.471100
C101	C10	0.556800	0.122300	0.447000
C111	C11	0.504800	0.044900	0.418000
C121	C12	0.388500	0.033900	0.414600
C131	C13	0.591800	0.674000	0.383800
C141	C14	0.536800	0.671200	0.320000
C151	C15	0.527800	0.750300	0.284700
C161	C16	0.572800	0.826900	0.318900
C171	C17	0.776100	0.715000	0.647600
C181	C18	0.844200	0.711500	0.709800
C191	C19	0.959700	0.725900	0.718200
C201	C20	0.996800	0.742700	0.663200
C211	C21	0.889000	0.590100	0.502300
C221	C22	0.976800	0.542500	0.484000
C231	C23	0.013200	0.581400	0.434600
C241	C24	0.961700	0.661300	0.407000
C251	C25	0.913200	0.082500	0.870200
C261	C26	0.913300	0.096000	0.806300
C271	C27	0.997900	0.056000	0.783800
C281	C28	0.078000	0.005300	0.827500
C291	C29	0.240300	0.072900	0.034700
C301	C30	0.321400	0.142700	0.046800
C311	C31	0.282300	0.230000	0.051200
C321	C32	0.165400	0.241600	0.043100
C331	C33	0.510500	0.183800	0.028900
C341	C34	0.443200	0.122300	0.053000
C351	C35	0.495200	0.044900	0.082000
C361	C36	0.611500	0.033900	0.085400
C371	C37	0.408200	0.674000	0.116200
C381	C38	0.463200	0.671200	0.180000
C391	C39	0.472200	0.750300	0.215300
C401	C40	0.427200	0.826900	0.181100
C411	C41	0.223900	0.715000	0.852400
C421	C42	0.155800	0.711500	0.790200
C431	C43	0.040300	0.725900	0.781800
C441	C44	0.003200	0.742700	0.836800
C451	C45	0.111000	0.590100	0.997700
C461	C46	0.023200	0.542500	0.016000
C471	C47	0.986800	0.581400	0.065400
C481	C48	0.038300	0.661300	0.093000
C491	C49	0.913200	0.917500	0.370200
C501	C50	0.913300	0.904000	0.306300
C511	C51	0.997900	0.944000	0.283800
C521	C52	0.078000	0.994700	0.327500
C531	C53	0.240300	0.927100	0.534700
C541	C54	0.321400	0.857300	0.546800
C551	C55	0.282300	0.770000	0.551200
C561	C56	0.165400	0.758400	0.543100
C571	C57	0.510500	0.816200	0.528900
C581	C58	0.443200	0.877700	0.553000
C591	C59	0.495200	0.955100	0.582000
C601	C60	0.611500	0.966100	0.585400
C611	C61	0.408200	0.326000	0.616200
C621	C62	0.463200	0.328800	0.680000
C631	C63	0.472200	0.249700	0.715300
C641	C64	0.427200	0.173100	0.681100
C651	C65	0.223900	0.285000	0.352400
C661	C66	0.155800	0.288500	0.290200
C671	C67	0.040300	0.274100	0.281800
C681	C68	0.003200	0.257300	0.336800
C691	C69	0.111000	0.409900	0.497700
C701	C70	0.023200	0.457500	0.516000
C711	C71	0.986800	0.418600	0.565400
C721	C72	0.038300	0.338700	0.593000
C731	C73	0.086800	0.917500	0.129800
C741	C74	0.086700	0.904000	0.193700
C751	C75	0.002100	0.944000	0.216200
C761	C76	0.922000	0.994700	0.172500
C771	C77	0.759700	0.927100	0.965300
C781	C78	0.678600	0.857300	0.953200
C791	C79	0.717700	0.770000	0.948800
C801	C80	0.834600	0.758400	0.956900
C811	C81	0.489500	0.816200	0.971100
C821	C82	0.556800	0.877700	0.947000
C831	C83	0.504800	0.955100	0.918000
C841	C84	0.388500	0.966100	0.914600
C851	C85	0.591800	0.326000	0.883800
C861	C86	0.536800	0.328800	0.820000
C871	C87	0.527800	0.249700	0.784700
C881	C88	0.572800	0.173100	0.818900
C891	C89	0.776100	0.285000	0.147600
C901	C90	0.844200	0.288500	0.209800
C911	C91	0.959700	0.274100	0.218200
C921	C92	0.996800	0.257300	0.163200
C931	C93	0.889000	0.409900	0.002300
C941	C94	0.976800	0.457500	0.984000
C951	C95	0.013200	0.418600	0.934600
C961	C96	0.961700	0.338700	0.907000
N11	N1	0.009100	0.032600	0.591150
N21	N2	0.925400	0.992900	0.612800
N31	N3	0.870100	0.090200	0.474400
N41	N4	0.908700	0.174600	0.470500
N51	N5	0.378900	0.169600	0.466020
N61	N6	0.327400	0.094000	0.437740
N71	N7	0.634200	0.748300	0.412600
N81	N8	0.623200	0.827000	0.381500
N91	N9	0.818100	0.729700	0.597620
N101	N10	0.929800	0.743700	0.604670
N111	N11	0.843900	0.665900	0.475020
N121	N12	0.878400	0.703000	0.426000
N131	N13	0.990900	0.032600	0.908850
N141	N14	0.074600	0.992900	0.887200
N151	N15	0.129900	0.090200	0.025600
N161	N16	0.091300	0.174600	0.029500
N171	N17	0.621100	0.169600	0.033980
N181	N18	0.672600	0.094000	0.062260
N191	N19	0.365800	0.748300	0.087400
N201	N20	0.376800	0.827000	0.118500
N211	N21	0.181900	0.729700	0.902380
N221	N22	0.070200	0.743700	0.895330
N231	N23	0.156100	0.665900	0.024980
N241	N24	0.121600	0.703000	0.074000
N251	N25	0.990900	0.967400	0.408850
N261	N26	0.074600	0.007100	0.387200
N271	N27	0.129900	0.909800	0.525600
N281	N28	0.091300	0.825400	0.529500
N291	N29	0.621100	0.830400	0.533980
N301	N30	0.672600	0.906000	0.562260
N311	N31	0.365800	0.251700	0.587400
N321	N32	0.376800	0.173000	0.618500
N331	N33	0.181900	0.270300	0.402380
N341	N34	0.070200	0.256300	0.395330
N351	N35	0.156100	0.334100	0.524980
N361	N36	0.121600	0.297000	0.574000
N371	N37	0.009100	0.967400	0.091150
N381	N38	0.925400	0.007100	0.112800
N391	N39	0.870100	0.909800	0.974400
N401	N40	0.908700	0.825400	0.970500
N411	N41	0.378900	0.830400	0.966020
N421	N42	0.327400	0.906000	0.937740
N431	N43	0.634200	0.251700	0.912600
N441	N44	0.623200	0.173000	0.881500
N451	N45	0.818100	0.270300	0.097620
N461	N46	0.929800	0.256300	0.104670
N471	N47	0.843900	0.334100	0.975020
N481	N48	0.878400	0.297000	0.926000
B11	B1	0.763100	0.439600	0.355200
F11	F1	0.738600	0.448500	0.414700
F21	F2	0.706100	0.367900	0.322500
F31	F3	0.877300	0.421300	0.365000
F41	F4	0.737200	0.520300	0.324100
B21	B2	0.703500	0.089800	0.278200
F51	F5	0.814900	0.107400	0.300700
F61	F6	0.667300	0.035900	0.319600
F71	F7	0.644800	0.165700	0.267900
F81	F8	0.690100	0.038900	0.228300
B31	B3	0.740400	0.230700	0.631400
F91	F9	0.821100	0.188500	0.608700
F101	F10	0.757500	0.240800	0.691000
F111	F11	0.646600	0.186500	0.605100
F121	F12	0.708700	0.304900	0.595400
B41	B4	0.236900	0.439600	0.144800
F131	F13	0.261400	0.448500	0.085300
F141	F14	0.293900	0.367900	0.177500
F151	F15	0.122700	0.421300	0.135000
F161	F16	0.262800	0.520300	0.175900
B51	B5	0.296500	0.089800	0.221800
F171	F17	0.185100	0.107400	0.199300
F181	F18	0.332700	0.035900	0.180400
F191	F19	0.355200	0.165700	0.232100
F201	F20	0.309900	0.038900	0.271700
B61	B6	0.259600	0.230700	0.868600
F211	F21	0.178900	0.188500	0.891300
F221	F22	0.242500	0.240800	0.809000
F231	F23	0.353400	0.186500	0.894900
F241	F24	0.291300	0.304900	0.904600
B71	B7	0.236900	0.560400	0.644800
F251	F25	0.261400	0.551500	0.585300
F261	F26	0.293900	0.632100	0.677500
F271	F27	0.122700	0.578700	0.635000
F281	F28	0.262800	0.479700	0.675900
B81	B8	0.296500	0.910200	0.721800
F291	F29	0.185100	0.892600	0.699300
F301	F30	0.332700	0.964100	0.680400
F311	F31	0.355200	0.834300	0.732100
F321	F32	0.309900	0.961100	0.771700
B91	B9	0.259600	0.769300	0.368600
F331	F33	0.178900	0.811500	0.391300
F341	F34	0.242500	0.759200	0.309000
F351	F35	0.353400	0.813500	0.394900
F361	F36	0.291300	0.695100	0.404600
B101	B10	0.763100	0.560400	0.855200
F371	F37	0.738600	0.551500	0.914700
F381	F38	0.706100	0.632100	0.822500
F391	F39	0.877300	0.578700	0.865000
F401	F40	0.737200	0.479700	0.824100
B111	B11	0.703500	0.910200	0.778200
F411	F41	0.814900	0.892600	0.800700
F421	F42	0.667300	0.964100	0.819600
F431	F43	0.644800	0.834300	0.767900
F441	F44	0.690100	0.961100	0.728300
B121	B12	0.740400	0.769300	0.131400
F451	F45	0.821100	0.811500	0.108700
F461	F46	0.757500	0.759200	0.191000
F471	F47	0.646600	0.813500	0.105100
F481	F48	0.708700	0.695100	0.095400
