data_HIJMEU_freeONLY_PM
_symmetry_space_group_name_H-M	'P1'
_cell_length_a	17.247000
_cell_length_b	17.247000
_cell_length_c	10.831700
_cell_angle_alpha	90.000000
_cell_angle_beta	90.000000
_cell_angle_gamma	90.000000
_symmetry_Int_Tables_number 1

loop_
_symmetry_equiv_pos_as_xyz
'x,y,z'

loop_
_atom_site_label
_atom_site_type_symbol
_atom_site_fract_x
_atom_site_fract_y
_atom_site_fract_z
Mo11	Mo1	0.808360	0.411750	0.058600
P11	P1	0.634100	0.335500	0.053500
O11	O1	0.703100	0.369500	0.978400
O21	O2	0.658300	0.259600	0.115900
O31	O3	0.566100	0.326000	0.966100
O41	O4	0.608200	0.396500	0.150200
O51	O5	0.750400	0.464600	0.169700
O61	O6	0.897400	0.457500	0.085200
O71	O7	0.820900	0.324600	0.140500
Mo21	Mo2	0.308360	0.911750	0.558600
P21	P2	0.134100	0.835500	0.553500
O81	O8	0.203100	0.869500	0.478400
O91	O9	0.158300	0.759600	0.615900
O101	O10	0.066100	0.826000	0.466100
O111	O11	0.108200	0.896500	0.650200
O121	O12	0.250400	0.964600	0.669700
O131	O13	0.397400	0.957500	0.585200
O141	O14	0.320900	0.824600	0.640500
Mo31	Mo3	0.691640	0.588250	0.558600
P31	P3	0.865900	0.664500	0.553500
O151	O15	0.796900	0.630500	0.478400
O161	O16	0.841700	0.740400	0.615900
O171	O17	0.933900	0.674000	0.466100
O181	O18	0.891800	0.603500	0.650200
O191	O19	0.749600	0.535400	0.669700
O201	O20	0.602600	0.542500	0.585200
O211	O21	0.679100	0.675400	0.640500
Mo41	Mo4	0.191640	0.088250	0.058600
P41	P4	0.365900	0.164500	0.053500
O221	O22	0.296900	0.130500	0.978400
O231	O23	0.341700	0.240400	0.115900
O241	O24	0.433900	0.174000	0.966100
O251	O25	0.391800	0.103500	0.150200
O261	O26	0.249600	0.035400	0.169700
O271	O27	0.102600	0.042500	0.085200
O281	O28	0.179100	0.175400	0.140500
Mo51	Mo5	0.338250	0.058360	0.308600
P51	P5	0.414500	0.884100	0.303500
O291	O29	0.380500	0.953100	0.228400
O301	O30	0.490400	0.908300	0.365900
O311	O31	0.424000	0.816100	0.216100
O321	O32	0.353500	0.858200	0.400200
O331	O33	0.285400	0.000400	0.419700
O341	O34	0.292500	0.147400	0.335200
O351	O35	0.425400	0.070900	0.390500
Mo61	Mo6	0.838250	0.558360	0.808600
P61	P6	0.914500	0.384100	0.803500
O361	O36	0.880500	0.453100	0.728400
O371	O37	0.990400	0.408300	0.865900
O381	O38	0.924000	0.316100	0.716100
O391	O39	0.853500	0.358200	0.900200
O401	O40	0.785400	0.500400	0.919700
O411	O41	0.792500	0.647400	0.835200
O421	O42	0.925400	0.570900	0.890500
Mo71	Mo7	0.161750	0.941640	0.808600
P71	P7	0.085500	0.115900	0.803500
O431	O43	0.119500	0.046900	0.728400
O441	O44	0.009600	0.091700	0.865900
O451	O45	0.076000	0.183900	0.716100
O461	O46	0.146500	0.141800	0.900200
O471	O47	0.214600	0.999600	0.919700
O481	O48	0.207500	0.852600	0.835200
O491	O49	0.074600	0.929100	0.890500
Mo81	Mo8	0.661750	0.441640	0.308600
P81	P8	0.585500	0.615900	0.303500
O501	O50	0.619500	0.546900	0.228400
O511	O51	0.509600	0.591700	0.365900
O521	O52	0.576000	0.683900	0.216100
O531	O53	0.646500	0.641800	0.400200
O541	O54	0.714600	0.499600	0.419700
O551	O55	0.707500	0.352600	0.335200
O561	O56	0.574600	0.429100	0.390500
Mo91	Mo9	0.191640	0.588250	0.941400
P91	P9	0.365900	0.664500	0.946500
O571	O57	0.296900	0.630500	0.021600
O581	O58	0.341700	0.740400	0.884100
O591	O59	0.433900	0.674000	0.033900
O601	O60	0.391800	0.603500	0.849800
O611	O61	0.249600	0.535400	0.830300
O621	O62	0.102600	0.542500	0.914800
O631	O63	0.179100	0.675400	0.859500
Mo101	Mo10	0.691640	0.088250	0.441400
P101	P10	0.865900	0.164500	0.446500
O641	O64	0.796900	0.130500	0.521600
O651	O65	0.841700	0.240400	0.384100
O661	O66	0.933900	0.174000	0.533900
O671	O67	0.891800	0.103500	0.349800
O681	O68	0.749600	0.035400	0.330300
O691	O69	0.602600	0.042500	0.414800
O701	O70	0.679100	0.175400	0.359500
Mo111	Mo11	0.308360	0.411750	0.441400
P111	P11	0.134100	0.335500	0.446500
O711	O71	0.203100	0.369500	0.521600
O721	O72	0.158300	0.259600	0.384100
O731	O73	0.066100	0.326000	0.533900
O741	O74	0.108200	0.396500	0.349800
O751	O75	0.250400	0.464600	0.330300
O761	O76	0.397400	0.457500	0.414800
O771	O77	0.320900	0.324600	0.359500
Mo121	Mo12	0.808360	0.911750	0.941400
P121	P12	0.634100	0.835500	0.946500
O781	O78	0.703100	0.869500	0.021600
O791	O79	0.658300	0.759600	0.884100
O801	O80	0.566100	0.826000	0.033900
O811	O81	0.608200	0.896500	0.849800
O821	O82	0.750400	0.964600	0.830300
O831	O83	0.897400	0.957500	0.914800
O841	O84	0.820900	0.824600	0.859500
Mo131	Mo13	0.661750	0.941640	0.691400
P131	P13	0.585500	0.115900	0.696500
O851	O85	0.619500	0.046900	0.771600
O861	O86	0.509600	0.091700	0.634100
O871	O87	0.576000	0.183900	0.783900
O881	O88	0.646500	0.141800	0.599800
O891	O89	0.714600	0.999600	0.580300
O901	O90	0.707500	0.852600	0.664800
O911	O91	0.574600	0.929100	0.609500
Mo141	Mo14	0.161750	0.441640	0.191400
P141	P14	0.085500	0.615900	0.196500
O921	O92	0.119500	0.546900	0.271600
O931	O93	0.009600	0.591700	0.134100
O941	O94	0.076000	0.683900	0.283900
O951	O95	0.146500	0.641800	0.099800
O961	O96	0.214600	0.499600	0.080300
O971	O97	0.207500	0.352600	0.164800
O981	O98	0.074600	0.429100	0.109500
Mo151	Mo15	0.838250	0.058360	0.191400
P151	P15	0.914500	0.884100	0.196500
O991	O99	0.880500	0.953100	0.271600
O1001	O100	0.990400	0.908300	0.134100
O1011	O101	0.924000	0.816100	0.283900
O1021	O102	0.853500	0.858200	0.099800
O1031	O103	0.785400	0.000400	0.080300
O1041	O104	0.792500	0.147400	0.164800
O1051	O105	0.925400	0.070900	0.109500
Mo161	Mo16	0.338250	0.558360	0.691400
P161	P16	0.414500	0.384100	0.696500
O1061	O106	0.380500	0.453100	0.771600
O1071	O107	0.490400	0.408300	0.634100
O1081	O108	0.424000	0.316100	0.783900
O1091	O109	0.353500	0.358200	0.599800
O1101	O110	0.285400	0.500400	0.580300
O1111	O111	0.292500	0.647400	0.664800
O1121	O112	0.425400	0.570900	0.609500
Mn11	Mn1	0.500000	0.250000	0.875000
Mn21	Mn2	0.000000	0.750000	0.375000
Mn31	Mn3	0.500000	0.750000	0.125000
Mn41	Mn4	0.000000	0.250000	0.625000
Mn51	Mn5	0.750000	0.250000	0.250000
Mn61	Mn6	0.750000	0.750000	0.750000
Mn71	Mn7	0.500000	0.000000	0.500000
Mn81	Mn8	0.000000	0.500000	0.000000
Mn91	Mn9	0.000000	0.000000	0.000000
Mn101	Mn10	0.500000	0.500000	0.500000
Mn111	Mn11	0.250000	0.750000	0.750000
Mn121	Mn12	0.250000	0.250000	0.250000
