data_HIQNUS_freeONLY_PM
_symmetry_space_group_name_H-M	'P1'
_cell_length_a	16.317000
_cell_length_b	13.020000
_cell_length_c	13.591000
_cell_angle_alpha	90.000000
_cell_angle_beta	100.303000
_cell_angle_gamma	90.000000
_symmetry_Int_Tables_number 1

loop_
_symmetry_equiv_pos_as_xyz
'x,y,z'

loop_
_atom_site_label
_atom_site_type_symbol
_atom_site_fract_x
_atom_site_fract_y
_atom_site_fract_z
O11	O1	0.055360	0.242800	0.666600
O21	O2	0.139600	0.201300	0.808900
O31	O3	0.368600	0.956400	0.813400
O41	O4	0.415030	0.925700	0.670300
N11	N1	0.212800	0.094100	0.400700
H11	H1	0.232000	0.043800	0.370500
C11	C1	0.119400	0.196700	0.715500
C21	C2	0.172800	0.136700	0.658900
C31	C3	0.164500	0.144300	0.553900
H21	H2	0.122600	0.185000	0.518200
C41	C4	0.218500	0.091300	0.503500
C51	C5	0.282400	0.031600	0.558500
H31	H3	0.319500	0.997100	0.525500
C61	C6	0.290800	0.023600	0.663000
C71	C7	0.236500	0.075600	0.711800
H41	H4	0.242100	0.070000	0.781000
C81	C8	0.363100	0.963600	0.721200
C91	C9	0.175600	0.182000	0.343100
H51	H5	0.205700	0.193600	0.288600
H61	H6	0.183800	0.242100	0.385900
C101	C10	0.083000	0.173600	0.299100
C111	C11	0.042100	0.082500	0.273900
H71	H7	0.070000	0.020500	0.288400
C121	C12	0.041000	0.263500	0.274100
H81	H8	0.068200	0.325800	0.289800
O51	O5	0.555360	0.742800	0.666600
O61	O6	0.639600	0.701300	0.808900
O71	O7	0.868600	0.456400	0.813400
O81	O8	0.915030	0.425700	0.670300
N21	N2	0.712800	0.594100	0.400700
H91	H9	0.732000	0.543800	0.370500
C131	C13	0.619400	0.696700	0.715500
C141	C14	0.672800	0.636700	0.658900
C151	C15	0.664500	0.644300	0.553900
H101	H10	0.622600	0.685000	0.518200
C161	C16	0.718500	0.591300	0.503500
C171	C17	0.782400	0.531600	0.558500
H111	H11	0.819500	0.497100	0.525500
C181	C18	0.790800	0.523600	0.663000
C191	C19	0.736500	0.575600	0.711800
H121	H12	0.742100	0.570000	0.781000
C201	C20	0.863100	0.463600	0.721200
C211	C21	0.675600	0.682000	0.343100
H131	H13	0.705700	0.693600	0.288600
H141	H14	0.683800	0.742100	0.385900
C221	C22	0.583000	0.673600	0.299100
C231	C23	0.542100	0.582500	0.273900
H151	H15	0.570000	0.520500	0.288400
C241	C24	0.541000	0.763500	0.274100
H161	H16	0.568200	0.825800	0.289800
O91	O9	0.944640	0.242800	0.833400
O101	O10	0.860400	0.201300	0.691100
O111	O11	0.631400	0.956400	0.686600
O121	O12	0.584970	0.925700	0.829700
N31	N3	0.787200	0.094100	0.099300
H171	H17	0.768000	0.043800	0.129500
C251	C25	0.880600	0.196700	0.784500
C261	C26	0.827200	0.136700	0.841100
C271	C27	0.835500	0.144300	0.946100
H181	H18	0.877400	0.185000	0.981800
C281	C28	0.781500	0.091300	0.996500
C291	C29	0.717600	0.031600	0.941500
H191	H19	0.680500	0.997100	0.974500
C301	C30	0.709200	0.023600	0.837000
C311	C31	0.763500	0.075600	0.788200
H201	H20	0.757900	0.070000	0.719000
C321	C32	0.636900	0.963600	0.778800
C331	C33	0.824400	0.182000	0.156900
H211	H21	0.794300	0.193600	0.211400
H221	H22	0.816200	0.242100	0.114100
C341	C34	0.917000	0.173600	0.200900
C351	C35	0.957900	0.082500	0.226100
H231	H23	0.930000	0.020500	0.211600
C361	C36	0.959000	0.263500	0.225900
H241	H24	0.931800	0.325800	0.210200
O131	O13	0.444640	0.742800	0.833400
O141	O14	0.360400	0.701300	0.691100
O151	O15	0.131400	0.456400	0.686600
O161	O16	0.084970	0.425700	0.829700
N41	N4	0.287200	0.594100	0.099300
H251	H25	0.268000	0.543800	0.129500
C371	C37	0.380600	0.696700	0.784500
C381	C38	0.327200	0.636700	0.841100
C391	C39	0.335500	0.644300	0.946100
H261	H26	0.377400	0.685000	0.981800
C401	C40	0.281500	0.591300	0.996500
C411	C41	0.217600	0.531600	0.941500
H271	H27	0.180500	0.497100	0.974500
C421	C42	0.209200	0.523600	0.837000
C431	C43	0.263500	0.575600	0.788200
H281	H28	0.257900	0.570000	0.719000
C441	C44	0.136900	0.463600	0.778800
C451	C45	0.324400	0.682000	0.156900
H291	H29	0.294300	0.693600	0.211400
H301	H30	0.316200	0.742100	0.114100
C461	C46	0.417000	0.673600	0.200900
C471	C47	0.457900	0.582500	0.226100
H311	H31	0.430000	0.520500	0.211600
C481	C48	0.459000	0.763500	0.225900
H321	H32	0.431800	0.825800	0.210200
Zn11	Zn1	0.000000	0.336650	0.750000
Zn21	Zn2	0.500000	0.836650	0.750000
O171	O17	0.944640	0.757200	0.333400
O181	O18	0.860400	0.798700	0.191100
O191	O19	0.631400	0.043600	0.186600
O201	O20	0.584970	0.074300	0.329700
N51	N5	0.787200	0.905900	0.599300
H331	H33	0.768000	0.956200	0.629500
C491	C49	0.880600	0.803300	0.284500
C501	C50	0.827200	0.863300	0.341100
C511	C51	0.835500	0.855700	0.446100
H341	H34	0.877400	0.815000	0.481800
C521	C52	0.781500	0.908700	0.496500
C531	C53	0.717600	0.968400	0.441500
H351	H35	0.680500	0.002900	0.474500
C541	C54	0.709200	0.976400	0.337000
C551	C55	0.763500	0.924400	0.288200
H361	H36	0.757900	0.930000	0.219000
C561	C56	0.636900	0.036400	0.278800
C571	C57	0.824400	0.818000	0.656900
H371	H37	0.794300	0.806400	0.711400
H381	H38	0.816200	0.757900	0.614100
C581	C58	0.917000	0.826400	0.700900
C591	C59	0.957900	0.917500	0.726100
H391	H39	0.930000	0.979500	0.711600
C601	C60	0.959000	0.736500	0.725900
H401	H40	0.931800	0.674200	0.710200
O211	O21	0.444640	0.257200	0.333400
O221	O22	0.360400	0.298700	0.191100
O231	O23	0.131400	0.543600	0.186600
O241	O24	0.084970	0.574300	0.329700
N61	N6	0.287200	0.405900	0.599300
H411	H41	0.268000	0.456200	0.629500
C611	C61	0.380600	0.303300	0.284500
C621	C62	0.327200	0.363300	0.341100
C631	C63	0.335500	0.355700	0.446100
H421	H42	0.377400	0.315000	0.481800
C641	C64	0.281500	0.408700	0.496500
C651	C65	0.217600	0.468400	0.441500
H431	H43	0.180500	0.502900	0.474500
C661	C66	0.209200	0.476400	0.337000
C671	C67	0.263500	0.424400	0.288200
H441	H44	0.257900	0.430000	0.219000
C681	C68	0.136900	0.536400	0.278800
C691	C69	0.324400	0.318000	0.656900
H451	H45	0.294300	0.306400	0.711400
H461	H46	0.316200	0.257900	0.614100
C701	C70	0.417000	0.326400	0.700900
C711	C71	0.457900	0.417500	0.726100
H471	H47	0.430000	0.479500	0.711600
C721	C72	0.459000	0.236500	0.725900
H481	H48	0.431800	0.174200	0.710200
O251	O25	0.055360	0.757200	0.166600
O261	O26	0.139600	0.798700	0.308900
O271	O27	0.368600	0.043600	0.313400
O281	O28	0.415030	0.074300	0.170300
N71	N7	0.212800	0.905900	0.900700
H491	H49	0.232000	0.956200	0.870500
C731	C73	0.119400	0.803300	0.215500
C741	C74	0.172800	0.863300	0.158900
C751	C75	0.164500	0.855700	0.053900
H501	H50	0.122600	0.815000	0.018200
C761	C76	0.218500	0.908700	0.003500
C771	C77	0.282400	0.968400	0.058500
H511	H51	0.319500	0.002900	0.025500
C781	C78	0.290800	0.976400	0.163000
C791	C79	0.236500	0.924400	0.211800
H521	H52	0.242100	0.930000	0.281000
C801	C80	0.363100	0.036400	0.221200
C811	C81	0.175600	0.818000	0.843100
H531	H53	0.205700	0.806400	0.788600
H541	H54	0.183800	0.757900	0.885900
C821	C82	0.083000	0.826400	0.799100
C831	C83	0.042100	0.917500	0.773900
H551	H55	0.070000	0.979500	0.788400
C841	C84	0.041000	0.736500	0.774100
H561	H56	0.068200	0.674200	0.789800
O291	O29	0.555360	0.257200	0.166600
O301	O30	0.639600	0.298700	0.308900
O311	O31	0.868600	0.543600	0.313400
O321	O32	0.915030	0.574300	0.170300
N81	N8	0.712800	0.405900	0.900700
H571	H57	0.732000	0.456200	0.870500
C851	C85	0.619400	0.303300	0.215500
C861	C86	0.672800	0.363300	0.158900
C871	C87	0.664500	0.355700	0.053900
H581	H58	0.622600	0.315000	0.018200
C881	C88	0.718500	0.408700	0.003500
C891	C89	0.782400	0.468400	0.058500
H591	H59	0.819500	0.502900	0.025500
C901	C90	0.790800	0.476400	0.163000
C911	C91	0.736500	0.424400	0.211800
H601	H60	0.742100	0.430000	0.281000
C921	C92	0.863100	0.536400	0.221200
C931	C93	0.675600	0.318000	0.843100
H611	H61	0.705700	0.306400	0.788600
H621	H62	0.683800	0.257900	0.885900
C941	C94	0.583000	0.326400	0.799100
C951	C95	0.542100	0.417500	0.773900
H631	H63	0.570000	0.479500	0.788400
C961	C96	0.541000	0.236500	0.774100
H641	H64	0.568200	0.174200	0.789800
Zn31	Zn3	0.000000	0.663350	0.250000
Zn41	Zn4	0.500000	0.163350	0.250000
