data_HIVQAG_freeONLY_PM
_symmetry_space_group_name_H-M	'P1'
_cell_length_a	9.916500
_cell_length_b	10.969300
_cell_length_c	13.052800
_cell_angle_alpha	90.000000
_cell_angle_beta	90.000000
_cell_angle_gamma	101.633000
_symmetry_Int_Tables_number 1

loop_
_symmetry_equiv_pos_as_xyz
'x,y,z'

loop_
_atom_site_label
_atom_site_type_symbol
_atom_site_fract_x
_atom_site_fract_y
_atom_site_fract_z
Mn11	Mn1	0.373570	0.751780	0.887560
Mn21	Mn2	0.875540	0.746820	0.888470
Mn31	Mn3	0.626430	0.248220	0.387560
Mn41	Mn4	0.124460	0.253180	0.388470
H11	H1	0.592500	0.646400	0.186900
H21	H2	0.392200	0.481300	0.821900
H31	H3	0.102900	0.513200	0.617200
H41	H4	0.299100	0.375300	0.204600
H51	H5	0.048600	0.861000	0.082500
H61	H6	0.623600	0.254600	0.631100
H71	H7	0.086500	0.637200	0.754700
H81	H8	0.957600	0.008900	0.720300
H91	H9	0.677500	0.855300	0.591100
H101	H10	0.659500	0.979400	0.452500
H111	H11	0.042400	0.991100	0.220300
H121	H12	0.617700	0.131900	0.773000
H131	H13	0.376400	0.745400	0.131100
H141	H14	0.607800	0.518700	0.321900
H151	H15	0.340500	0.020600	0.952500
H161	H16	0.913500	0.362800	0.254700
H171	H17	0.389400	0.638400	0.501600
H181	H18	0.610600	0.361600	0.001600
H191	H19	0.407500	0.353600	0.686900
H201	H20	0.322500	0.144700	0.091100
H211	H21	0.951400	0.139000	0.582500
H221	H22	0.897100	0.486800	0.117200
H231	H23	0.700400	0.499600	0.565400
H241	H24	0.700900	0.624700	0.704600
H251	H25	0.384700	0.760400	0.642400
H261	H26	0.299600	0.500400	0.065400
H271	H27	0.667400	0.868400	0.017500
H281	H28	0.346900	0.004000	0.655100
H291	H29	0.332600	0.131600	0.517500
H301	H30	0.653100	0.996000	0.155100
H311	H31	0.382300	0.868100	0.273000
H321	H32	0.615300	0.239600	0.142400
C11	C1	0.991800	0.392900	0.216000
C21	C2	0.608200	0.395800	0.066700
C31	C3	0.630900	0.099800	0.708700
C41	C4	0.391800	0.604200	0.566700
C51	C5	0.031600	0.110000	0.595600
C61	C6	0.780400	0.524800	0.603400
C71	C7	0.663400	0.935700	0.600800
C81	C8	0.964600	0.967000	0.179600
C91	C9	0.901500	0.486800	0.576400
C101	C10	0.369100	0.828000	0.122500
C111	C11	0.098500	0.513200	0.076400
C121	C12	0.345000	0.988000	0.017900
C131	C13	0.600800	0.519000	0.077000
C141	C14	0.158300	0.902800	0.789800
C151	C15	0.218100	0.400300	0.186700
C161	C16	0.655000	0.012000	0.517900
C171	C17	0.735200	0.970500	0.141300
C181	C18	0.401200	0.435900	0.675500
C191	C19	0.018800	0.532900	0.634300
C201	C20	0.630900	0.172000	0.622500
C211	C21	0.219600	0.475200	0.103400
C221	C22	0.981200	0.467100	0.134300
C231	C23	0.598800	0.564100	0.175500
C241	C24	0.369100	0.900200	0.208700
C251	C25	0.035400	0.033000	0.679600
C261	C26	0.655900	0.898500	0.790900
C271	C27	0.399200	0.481000	0.577000
C281	C28	0.612200	0.323100	0.151300
C291	C29	0.590300	0.599100	0.985700
C301	C30	0.781900	0.599700	0.686700
C311	C31	0.008200	0.607100	0.716000
C321	C32	0.393700	0.513600	0.755900
C331	C33	0.968400	0.890000	0.095600
C341	C34	0.254800	0.105800	0.557800
C351	C35	0.387800	0.676900	0.651300
C361	C36	0.650400	0.981000	0.699100
C371	C37	0.091200	0.596200	0.985900
C381	C38	0.349600	0.019000	0.199100
C391	C39	0.153900	0.992600	0.702400
C401	C40	0.908800	0.403800	0.485900
C411	C41	0.264800	0.029500	0.641300
C421	C42	0.745200	0.894200	0.057800
C431	C43	0.336600	0.064300	0.100800
C441	C44	0.344100	0.101500	0.290900
C451	C45	0.841700	0.097200	0.289800
C461	C46	0.606300	0.486400	0.255900
C471	C47	0.846100	0.007400	0.202400
C481	C48	0.409700	0.400900	0.485700
N11	N1	0.388400	0.632500	0.745000
N21	N2	0.140100	0.144100	0.532300
N31	N3	0.611600	0.367500	0.245000
N41	N4	0.859900	0.855900	0.032300
N51	N5	0.108600	0.361800	0.242700
N61	N6	0.359300	0.869800	0.026700
N71	N7	0.891400	0.638200	0.742700
N81	N8	0.640700	0.130200	0.526700
O11	O1	0.238000	0.144800	0.294900
O21	O2	0.983000	0.633100	0.973900
O31	O3	0.441900	0.114800	0.350100
O41	O4	0.732400	0.138500	0.293300
O51	O5	0.805800	0.380600	0.427800
O61	O6	0.059500	0.881600	0.847800
O71	O7	0.514000	0.354100	0.480600
O81	O8	0.314800	0.386600	0.421100
O91	O9	0.558100	0.885200	0.850100
O101	O10	0.940500	0.118400	0.347800
O111	O11	0.267600	0.861500	0.793300
O121	O12	0.486000	0.645900	0.980600
O131	O13	0.194200	0.619400	0.927800
O141	O14	0.762000	0.855200	0.794900
O151	O15	0.685200	0.613400	0.921100
O161	O16	0.017000	0.366900	0.473900
