data_HIXDOH01_manual_PM
_symmetry_space_group_name_H-M	'P1'
_cell_length_a	9.745000
_cell_length_b	9.745000
_cell_length_c	10.774200
_cell_angle_alpha	63.112500
_cell_angle_beta	63.112500
_cell_angle_gamma	89.999900
_symmetry_Int_Tables_number 1

loop_
_symmetry_equiv_pos_as_xyz
'x,y,z'

loop_
_atom_site_label
_atom_site_type_symbol
_atom_site_fract_x
_atom_site_fract_y
_atom_site_fract_z
Cu11	Cu1	0.750000	0.750000	0.500000
Cu21	Cu2	0.250000	0.250000	0.500000
W11	W1	0.000000	0.000000	0.000000
W21	W2	0.500000	0.500000	0.000000
C11	C1	0.854900	0.915300	0.628000
C21	C2	0.517100	0.456700	0.628000
C31	C3	0.915300	0.517100	0.628000
C41	C4	0.456700	0.854900	0.628000
C51	C5	0.982900	0.584700	0.372000
C61	C6	0.645100	0.043300	0.372000
C71	C7	0.043300	0.982900	0.372000
C81	C8	0.584700	0.645100	0.372000
C91	C9	0.145100	0.084700	0.372000
C101	C10	0.482900	0.543300	0.372000
C111	C11	0.084700	0.482900	0.372000
C121	C12	0.543300	0.145100	0.372000
C131	C13	0.017100	0.415300	0.628000
C141	C14	0.354900	0.956700	0.628000
C151	C15	0.956700	0.017100	0.628000
C161	C16	0.415300	0.354900	0.628000
N11	N1	0.899600	0.899600	0.500000
N21	N2	0.600400	0.600400	0.500000
N31	N3	0.899600	0.600400	0.500000
N41	N4	0.600400	0.899600	0.500000
N51	N5	0.100400	0.100400	0.500000
N61	N6	0.399600	0.399600	0.500000
N71	N7	0.100400	0.399600	0.500000
N81	N8	0.399600	0.100400	0.500000
O11	O1	0.885700	0.885700	0.228600
O21	O2	0.614300	0.614300	0.771400
O31	O3	0.114300	0.114300	0.771400
O41	O4	0.385700	0.385700	0.228600
H11	H1	0.529160	0.416400	0.738950
H21	H2	0.844640	0.529160	0.738950
H31	H3	0.416400	0.731880	0.738950
H41	H4	0.970840	0.655360	0.261050
H51	H5	0.768120	0.083600	0.261050
H61	H6	0.083600	0.970840	0.261050
H71	H7	0.655360	0.768120	0.261050
H81	H8	0.268120	0.155360	0.261050
H91	H9	0.470840	0.583600	0.261050
H101	H10	0.155360	0.470840	0.261050
H111	H11	0.583600	0.268120	0.261050
H121	H12	0.029160	0.344640	0.738950
H131	H13	0.231880	0.916400	0.738950
H141	H14	0.344640	0.231880	0.738950
