data_HIYYEU_freeONLY_PM
_symmetry_space_group_name_H-M	'P1'
_cell_length_a	14.717300
_cell_length_b	14.717300
_cell_length_c	16.656300
_cell_angle_alpha	79.310900
_cell_angle_beta	73.130900
_cell_angle_gamma	117.495000
_symmetry_Int_Tables_number 1

loop_
_symmetry_equiv_pos_as_xyz
'x,y,z'

loop_
_atom_site_label
_atom_site_type_symbol
_atom_site_fract_x
_atom_site_fract_y
_atom_site_fract_z
Ni11	Ni1	0.500000	0.000000	0.500000
Ni21	Ni2	0.000000	0.000000	0.000000
Ni31	Ni3	0.500000	0.000000	0.000000
Ni41	Ni4	0.500000	0.500000	0.500000
Mo11	Mo1	0.594760	0.844760	0.250000
Mo21	Mo2	0.405240	0.155240	0.750000
H11	H1	0.337800	0.888000	0.653800
H21	H2	0.580400	0.891900	0.514100
H31	H3	0.381000	0.876400	0.938400
H41	H4	0.376000	0.879900	0.154700
H51	H5	0.384100	0.748600	0.588900
H61	H6	0.319200	0.726000	0.693400
H71	H7	0.484100	0.878000	0.684500
H81	H8	0.513600	0.793700	0.654700
H91	H9	0.686300	0.041900	0.566400
H101	H10	0.762700	0.042800	0.394300
H111	H11	0.847200	0.111200	0.433000
H121	H12	0.683300	0.887700	0.634400
H131	H13	0.804900	0.001200	0.578100
H141	H14	0.765200	0.908200	0.536000
H151	H15	0.230400	0.691400	0.559400
H161	H16	0.160900	0.735000	0.526300
H171	H17	0.296400	0.804800	0.474400
H181	H18	0.139400	0.785900	0.729900
H191	H19	0.067200	0.714400	0.684000
H201	H20	0.144400	0.683000	0.717000
H211	H21	0.361000	0.745300	0.092300
H221	H22	0.272500	0.709300	0.048200
H231	H23	0.233100	0.842900	0.076400
H241	H24	0.210300	0.763100	0.170000
H251	H25	0.302700	0.002600	0.135500
H261	H26	0.462500	0.034100	0.201600
H271	H27	0.385600	0.082500	0.224700
H281	H28	0.159700	0.834800	0.254500
H291	H29	0.192700	0.944200	0.276300
H301	H30	0.235400	0.868300	0.309100
H311	H31	0.374200	0.770900	0.852100
H321	H32	0.463400	0.735100	0.829700
H331	H33	0.360800	0.675700	0.928700
H341	H34	0.486100	0.718900	0.003000
H351	H35	0.593200	0.774700	0.907300
H361	H36	0.591700	0.842300	0.972000
H371	H37	0.041800	0.991600	0.846200
H381	H38	0.906000	0.094500	0.985900
H391	H39	0.314800	0.319400	0.561600
H401	H40	0.534600	0.530700	0.345300
H411	H41	0.837500	0.973000	0.911100
H421	H42	0.919400	0.012600	0.806600
H431	H43	0.062500	0.168600	0.815500
H441	H44	0.948400	0.168300	0.845300
H451	H45	0.108300	0.252700	0.933600
H461	H46	0.937100	0.157000	0.105700
H471	H47	0.044200	0.280200	0.067000
H481	H48	0.022100	0.317700	0.865600
H491	H49	0.079300	0.383000	0.921900
H501	H50	0.944200	0.301200	0.964000
H511	H51	0.750800	0.789800	0.940600
H521	H52	0.761300	0.687200	0.973700
H531	H53	0.779200	0.770800	0.025600
H541	H54	0.015800	0.869300	0.770100
H551	H55	0.898400	0.751200	0.816000
H561	H56	0.900000	0.861400	0.783000
H571	H57	0.337600	0.453300	0.407700
H581	H58	0.257500	0.320700	0.451800
H591	H59	0.419300	0.309500	0.423600
H601	H60	0.433100	0.380300	0.330000
H611	H61	0.638100	0.438200	0.364500
H621	H62	0.735700	0.664100	0.298400
H631	H63	0.807200	0.610300	0.275300
H641	H64	0.589300	0.414200	0.245500
H651	H65	0.720500	0.469000	0.223700
H661	H66	0.677400	0.544500	0.190900
H671	H67	0.123000	0.226300	0.647900
H681	H68	0.064800	0.293100	0.670300
H691	H69	0.104400	0.289500	0.571300
H701	H70	0.221900	0.489100	0.497000
H711	H71	0.182000	0.500500	0.592700
H721	H72	0.314300	0.563700	0.528000
H731	H73	0.662200	0.112000	0.346200
H741	H74	0.419600	0.108100	0.485900
H751	H75	0.619000	0.123600	0.061600
H761	H76	0.624000	0.120100	0.845300
H771	H77	0.615900	0.251400	0.411100
H781	H78	0.680800	0.274000	0.306600
H791	H79	0.515900	0.122000	0.315500
H801	H80	0.486400	0.206300	0.345300
H811	H81	0.313700	0.958100	0.433600
H821	H82	0.237300	0.957200	0.605700
H831	H83	0.152800	0.888800	0.567000
H841	H84	0.316700	0.112300	0.365600
H851	H85	0.195100	0.998800	0.421900
H861	H86	0.234800	0.091800	0.464000
H871	H87	0.769600	0.308600	0.440600
H881	H88	0.839100	0.265000	0.473700
H891	H89	0.703600	0.195200	0.525600
H901	H90	0.860600	0.214100	0.270100
H911	H91	0.932800	0.285600	0.316000
H921	H92	0.855600	0.317000	0.283000
H931	H93	0.639000	0.254700	0.907700
H941	H94	0.727500	0.290700	0.951800
H951	H95	0.766900	0.157100	0.923600
H961	H96	0.789700	0.236900	0.830000
H971	H97	0.697300	0.997400	0.864500
H981	H98	0.537500	0.965900	0.798400
H991	H99	0.614400	0.917500	0.775300
H1001	H100	0.840300	0.165200	0.745500
H1011	H101	0.807300	0.055800	0.723700
H1021	H102	0.764600	0.131700	0.690900
H1031	H103	0.625800	0.229100	0.147900
H1041	H104	0.536600	0.264900	0.170300
H1051	H105	0.639200	0.324300	0.071300
H1061	H106	0.513900	0.281100	0.997000
H1071	H107	0.406800	0.225300	0.092700
H1081	H108	0.408300	0.157700	0.028000
H1091	H109	0.958200	0.008400	0.153800
H1101	H110	0.094000	0.905500	0.014100
H1111	H111	0.685200	0.680600	0.438400
H1121	H112	0.465400	0.469300	0.654700
H1131	H113	0.162500	0.027000	0.088900
H1141	H114	0.080600	0.987400	0.193400
H1151	H115	0.937500	0.831400	0.184500
H1161	H116	0.051600	0.831700	0.154700
H1171	H117	0.891700	0.747300	0.066400
H1181	H118	0.062900	0.843000	0.894300
H1191	H119	0.955800	0.719800	0.933000
H1201	H120	0.977900	0.682300	0.134400
H1211	H121	0.920700	0.617000	0.078100
H1221	H122	0.055800	0.698800	0.036000
H1231	H123	0.249200	0.210200	0.059400
H1241	H124	0.238700	0.312800	0.026300
H1251	H125	0.220800	0.229200	0.974400
H1261	H126	0.984200	0.130700	0.229900
H1271	H127	0.101600	0.248800	0.184000
H1281	H128	0.100000	0.138600	0.217000
H1291	H129	0.662400	0.546700	0.592300
H1301	H130	0.742500	0.679300	0.548200
H1311	H131	0.580700	0.690500	0.576400
H1321	H132	0.566900	0.619700	0.670000
H1331	H133	0.361900	0.561800	0.635500
H1341	H134	0.264300	0.335900	0.701600
H1351	H135	0.192800	0.389700	0.724700
H1361	H136	0.410700	0.585800	0.754500
H1371	H137	0.279500	0.531000	0.776300
H1381	H138	0.322600	0.455500	0.809100
H1391	H139	0.877000	0.773700	0.352100
H1401	H140	0.935200	0.706900	0.329700
H1411	H141	0.895600	0.710500	0.428700
H1421	H142	0.778100	0.510900	0.503000
H1431	H143	0.818000	0.499500	0.407300
H1441	H144	0.685700	0.436300	0.472000
C11	C1	0.575370	0.900340	0.131950
C21	C2	0.378490	0.784280	0.633430
C31	C3	0.491100	0.845650	0.637790
C41	C4	0.687670	0.993430	0.531700
C51	C5	0.769560	0.080860	0.437360
C61	C6	0.239140	0.820770	0.596730
C71	C7	0.739830	0.943240	0.573730
C81	C8	0.230970	0.757310	0.533600
C91	C9	0.138400	0.744050	0.690410
C101	C10	0.328210	0.772280	0.057550
C111	C11	0.269800	0.820010	0.109550
C121	C12	0.325700	0.963400	0.172500
C131	C13	0.421180	0.061000	0.178280
C141	C14	0.489840	0.833140	0.906580
C151	C15	0.218940	0.896790	0.260930
C161	C16	0.415300	0.745830	0.876550
C171	C17	0.545140	0.788260	0.951200
C181	C18	0.530720	0.892110	0.355070
C191	C19	0.413690	0.763780	0.291490
C201	C20	0.722490	0.884000	0.301170
C211	C21	0.532290	0.707320	0.368050
C221	C22	0.917710	0.011920	0.866570
C231	C23	0.983440	0.128890	0.862210
C241	C24	0.025130	0.219370	0.968300
C251	C25	0.018220	0.206920	0.062640
C261	C26	0.917500	0.835870	0.903270
C271	C27	0.016970	0.313560	0.926270
C281	C28	0.790910	0.764570	0.966400
C291	C29	0.934460	0.828810	0.809590
C301	C30	0.329830	0.385760	0.442450
C311	C31	0.429560	0.379350	0.390450
C321	C32	0.635900	0.498200	0.327500
C331	C33	0.739280	0.599460	0.321720
C341	C34	0.239720	0.396420	0.593420
C351	C35	0.657720	0.479870	0.239070
C361	C36	0.122380	0.291850	0.623450
C371	C37	0.239460	0.496340	0.548800
C381	C38	0.747180	0.885790	0.144930
C391	C39	0.555270	0.705180	0.208510
C401	C40	0.685170	0.023660	0.198830
C411	C41	0.424630	0.099660	0.868050
C421	C42	0.621510	0.215720	0.366570
C431	C43	0.508900	0.154350	0.362210
C441	C44	0.312330	0.006570	0.468300
C451	C45	0.230440	0.919140	0.562640
C461	C46	0.760860	0.179230	0.403270
C471	C47	0.260170	0.056760	0.426270
C481	C48	0.769030	0.242690	0.466400
C491	C49	0.861600	0.255950	0.309590
C501	C50	0.671790	0.227720	0.942450
C511	C51	0.730200	0.179990	0.890450
C521	C52	0.674300	0.036600	0.827500
C531	C53	0.578820	0.939000	0.821720
C541	C54	0.510160	0.166860	0.093420
C551	C55	0.781060	0.103210	0.739070
C561	C56	0.584700	0.254170	0.123450
C571	C57	0.454860	0.211740	0.048800
C581	C58	0.469280	0.107890	0.644930
C591	C59	0.586310	0.236220	0.708510
C601	C60	0.277510	0.116000	0.698830
C611	C61	0.467710	0.292680	0.631950
C621	C62	0.082290	0.988080	0.133430
C631	C63	0.016560	0.871110	0.137790
C641	C64	0.974870	0.780630	0.031700
C651	C65	0.981780	0.793080	0.937360
C661	C66	0.082500	0.164130	0.096730
C671	C67	0.983030	0.686440	0.073730
C681	C68	0.209090	0.235430	0.033600
C691	C69	0.065540	0.171190	0.190410
C701	C70	0.670170	0.614240	0.557550
C711	C71	0.570440	0.620650	0.609550
C721	C72	0.364100	0.501800	0.672500
C731	C73	0.260720	0.400540	0.678280
C741	C74	0.760280	0.603580	0.406580
C751	C75	0.342280	0.520130	0.760930
C761	C76	0.877620	0.708150	0.376550
C771	C77	0.760540	0.503660	0.451200
C781	C78	0.252820	0.114210	0.855070
C791	C79	0.444730	0.294820	0.791490
C801	C80	0.314830	0.976340	0.801170
N11	N1	0.348270	0.863830	0.606180
N21	N2	0.578550	0.934300	0.548830
N31	N3	0.419260	0.861020	0.968860
N41	N4	0.354610	0.915670	0.119480
N51	N5	0.499450	0.919560	0.411030
N61	N6	0.316940	0.718310	0.313210
N71	N7	0.791560	0.901910	0.327490
N81	N8	0.565920	0.934000	0.068960
N91	N9	0.970010	0.954450	0.893820
N101	N10	0.983130	0.127380	0.951170
N111	N11	0.329880	0.388120	0.531140
N121	N12	0.535150	0.474090	0.380520
N131	N13	0.830590	0.910480	0.088970
N141	N14	0.531520	0.630150	0.186790
N151	N15	0.729400	0.119050	0.172510
N161	N16	0.502960	0.634880	0.431040
N171	N17	0.651730	0.136170	0.393820
N181	N18	0.421450	0.065700	0.451170
N191	N19	0.580740	0.138980	0.031140
N201	N20	0.645390	0.084330	0.880520
N211	N21	0.500550	0.080440	0.588970
N221	N22	0.683060	0.281690	0.686790
N231	N23	0.208440	0.098090	0.672510
N241	N24	0.434080	0.066000	0.931040
N251	N25	0.029990	0.045550	0.106180
N261	N26	0.016870	0.872620	0.048830
N271	N27	0.670120	0.611880	0.468860
N281	N28	0.464850	0.525910	0.619480
N291	N29	0.169410	0.089520	0.911030
N301	N30	0.468480	0.369850	0.813210
N311	N31	0.270600	0.880950	0.827490
N321	N32	0.497040	0.365120	0.568960
