data_HOCDOU_freeONLY_PM
_symmetry_space_group_name_H-M	'P1'
_cell_length_a	9.720500
_cell_length_b	9.746800
_cell_length_c	10.892600
_cell_angle_alpha	83.989000
_cell_angle_beta	75.467000
_cell_angle_gamma	78.545000
_symmetry_Int_Tables_number 1

loop_
_symmetry_equiv_pos_as_xyz
'x,y,z'

loop_
_atom_site_label
_atom_site_type_symbol
_atom_site_fract_x
_atom_site_fract_y
_atom_site_fract_z
Mn11	Mn1	0.364650	0.255340	0.523070
Mn21	Mn2	0.240860	0.550130	0.281650
P11	P1	0.475560	0.977490	0.696890
H11	H1	0.593000	0.042100	0.668600
O11	O1	0.417400	0.976300	0.839800
O21	O2	0.367900	0.060800	0.625400
O31	O3	0.527600	0.828300	0.653900
O41	O4	0.702100	0.046100	0.878200
O51	O5	0.800400	0.222100	0.769700
O61	O6	0.457100	0.232300	0.967900
O71	O7	0.565400	0.403900	0.858000
O81	O8	0.029900	0.554000	0.241700
O91	O9	0.795400	0.638600	0.311100
O101	O10	0.080200	0.625900	0.455300
O111	O11	0.845500	0.708900	0.524700
O121	O12	0.375500	0.472400	0.418600
O131	O13	0.464300	0.665100	0.423700
O141	O14	0.305600	0.344800	0.202900
H21	H2	0.352300	0.280900	0.243600
H31	H3	0.340400	0.328800	0.125300
C11	C1	0.699800	0.173100	0.843200
C21	C2	0.560800	0.279200	0.893700
C31	C3	0.923500	0.610700	0.321900
C41	C4	0.952800	0.651100	0.445200
C51	C5	0.453600	0.541100	0.454700
Mn31	Mn3	0.635350	0.744660	0.476930
Mn41	Mn4	0.759140	0.449870	0.718350
P21	P2	0.524440	0.022510	0.303110
H41	H4	0.407000	0.957900	0.331400
O151	O15	0.582600	0.023700	0.160200
O161	O16	0.632100	0.939200	0.374600
O171	O17	0.472400	0.171700	0.346100
O181	O18	0.297900	0.953900	0.121800
O191	O19	0.199600	0.777900	0.230300
O201	O20	0.542900	0.767700	0.032100
O211	O21	0.434600	0.596100	0.142000
O221	O22	0.970100	0.446000	0.758300
O231	O23	0.204600	0.361400	0.688900
O241	O24	0.919800	0.374100	0.544700
O251	O25	0.154500	0.291100	0.475300
O261	O26	0.624500	0.527600	0.581400
O271	O27	0.535700	0.334900	0.576300
O281	O28	0.694400	0.655200	0.797100
H51	H5	0.647700	0.719100	0.756400
H61	H6	0.659600	0.671200	0.874700
C61	C6	0.300200	0.826900	0.156800
C71	C7	0.439200	0.720800	0.106300
C81	C8	0.076500	0.389300	0.678100
C91	C9	0.047200	0.348900	0.554800
C101	C10	0.546400	0.458900	0.545300
Mn51	Mn5	0.500000	0.000000	0.000000
