data_HODWUS_freeONLY_PM
_symmetry_space_group_name_H-M	'P1'
_cell_length_a	9.049400
_cell_length_b	17.475000
_cell_length_c	10.535700
_cell_angle_alpha	90.000000
_cell_angle_beta	106.359000
_cell_angle_gamma	90.000000
_symmetry_Int_Tables_number 1

loop_
_symmetry_equiv_pos_as_xyz
'x,y,z'

loop_
_atom_site_label
_atom_site_type_symbol
_atom_site_fract_x
_atom_site_fract_y
_atom_site_fract_z
C11	C1	0.120400	0.144600	0.231200
N11	N1	0.088600	0.092900	0.164300
C21	C2	0.820400	0.146200	0.790500
N21	N2	0.855900	0.095100	0.856800
N31	N3	0.218000	0.030400	0.934300
H11	H1	0.222600	0.081800	0.932500
H21	H2	0.299600	0.014900	0.000100
C31	C3	0.244100	0.004100	0.814100
H31	H3	0.185400	0.956200	0.801800
C41	C4	0.157600	0.045700	0.697000
H41	H4	0.188700	0.099000	0.706100
H51	H5	0.048900	0.043500	0.691700
C51	C5	0.181000	0.014200	0.567600
H61	H6	0.130600	0.964800	0.547800
H71	H7	0.134500	0.048700	0.495200
C61	C6	0.350000	0.006000	0.581700
H81	H8	0.403400	0.053600	0.611800
H91	H9	0.366800	0.991800	0.498000
C71	C7	0.404000	0.943100	0.683900
H101	H10	0.508900	0.928300	0.688400
H111	H11	0.338600	0.898400	0.660000
C81	C8	0.396800	0.974400	0.816900
H121	H12	0.424500	0.934000	0.882500
H131	H13	0.472000	0.015000	0.844000
C91	C9	0.879600	0.644600	0.768800
N41	N4	0.911400	0.592900	0.835700
C101	C10	0.179600	0.646200	0.209500
N51	N5	0.144100	0.595100	0.143200
N61	N6	0.782000	0.530400	0.065700
H141	H14	0.777400	0.581800	0.067500
H151	H15	0.700400	0.514900	0.999900
C111	C11	0.755900	0.504100	0.185900
H161	H16	0.814600	0.456200	0.198200
C121	C12	0.842400	0.545700	0.303000
H171	H17	0.811300	0.599000	0.293900
H181	H18	0.951100	0.543500	0.308300
C131	C13	0.819000	0.514200	0.432400
H191	H19	0.869400	0.464800	0.452200
H201	H20	0.865500	0.548700	0.504800
C141	C14	0.650000	0.506000	0.418300
H211	H21	0.596600	0.553600	0.388200
H221	H22	0.633200	0.491800	0.502000
C151	C15	0.596000	0.443100	0.316100
H231	H23	0.491100	0.428300	0.311600
H241	H24	0.661400	0.398400	0.340000
C161	C16	0.603200	0.474400	0.183100
H251	H25	0.575500	0.434000	0.117500
H261	H26	0.528000	0.515000	0.156000
C171	C17	0.879600	0.855400	0.768800
N71	N7	0.911400	0.907100	0.835700
C181	C18	0.179600	0.853800	0.209500
N81	N8	0.144100	0.904900	0.143200
N91	N9	0.782000	0.969600	0.065700
H271	H27	0.777400	0.918200	0.067500
H281	H28	0.700400	0.985100	0.999900
C191	C19	0.755900	0.995900	0.185900
H291	H29	0.814600	0.043800	0.198200
C201	C20	0.842400	0.954300	0.303000
H301	H30	0.811300	0.901000	0.293900
H311	H31	0.951100	0.956500	0.308300
C211	C21	0.819000	0.985800	0.432400
H321	H32	0.869400	0.035200	0.452200
H331	H33	0.865500	0.951300	0.504800
C221	C22	0.650000	0.994000	0.418300
H341	H34	0.596600	0.946400	0.388200
H351	H35	0.633200	0.008200	0.502000
C231	C23	0.596000	0.056900	0.316100
H361	H36	0.491100	0.071700	0.311600
H371	H37	0.661400	0.101600	0.340000
C241	C24	0.603200	0.025600	0.183100
H381	H38	0.575500	0.066000	0.117500
H391	H39	0.528000	0.985000	0.156000
C251	C25	0.120400	0.355400	0.231200
N101	N10	0.088600	0.407100	0.164300
C261	C26	0.820400	0.353800	0.790500
N111	N11	0.855900	0.404900	0.856800
N121	N12	0.218000	0.469600	0.934300
H401	H40	0.222600	0.418200	0.932500
H411	H41	0.299600	0.485100	0.000100
C271	C27	0.244100	0.495900	0.814100
H421	H42	0.185400	0.543800	0.801800
C281	C28	0.157600	0.454300	0.697000
H431	H43	0.188700	0.401000	0.706100
H441	H44	0.048900	0.456500	0.691700
C291	C29	0.181000	0.485800	0.567600
H451	H45	0.130600	0.535200	0.547800
H461	H46	0.134500	0.451300	0.495200
C301	C30	0.350000	0.494000	0.581700
H471	H47	0.403400	0.446400	0.611800
H481	H48	0.366800	0.508200	0.498000
C311	C31	0.404000	0.556900	0.683900
H491	H49	0.508900	0.571700	0.688400
H501	H50	0.338600	0.601600	0.660000
C321	C32	0.396800	0.525600	0.816900
H511	H51	0.424500	0.566000	0.882500
H521	H52	0.472000	0.485000	0.844000
Cd11	Cd1	0.000000	0.000000	0.000000
Cd21	Cd2	0.000000	0.500000	0.000000
Cd31	Cd3	0.167940	0.250000	0.348980
Cd41	Cd4	0.772300	0.250000	0.668310
C331	C33	0.408900	0.250000	0.468900
N131	N13	0.533100	0.250000	0.532000
C341	C34	0.021200	0.250000	0.482900
N141	N14	0.937200	0.250000	0.541600
Cd51	Cd5	0.832060	0.750000	0.651020
Cd61	Cd6	0.227700	0.750000	0.331690
C351	C35	0.591100	0.750000	0.531100
N151	N15	0.466900	0.750000	0.468000
C361	C36	0.978800	0.750000	0.517100
N161	N16	0.062800	0.750000	0.458400
