data_HOFJIX_freeONLY_PM
_symmetry_space_group_name_H-M	'P1'
_cell_length_a	11.761000
_cell_length_b	27.130000
_cell_length_c	34.667000
_cell_angle_alpha	89.941400
_cell_angle_beta	90.000000
_cell_angle_gamma	90.000000
_symmetry_Int_Tables_number 1

loop_
_symmetry_equiv_pos_as_xyz
'x,y,z'

loop_
_atom_site_label
_atom_site_type_symbol
_atom_site_fract_x
_atom_site_fract_y
_atom_site_fract_z
La11	La1	0.558940	0.249580	0.699490
La21	La2	0.089250	0.748110	0.699460
La31	La3	0.058940	0.250420	0.800510
La41	La4	0.441060	0.750420	0.300510
La51	La5	0.941060	0.749580	0.199490
La61	La6	0.410750	0.248110	0.199460
La71	La7	0.589250	0.751890	0.800540
La81	La8	0.910750	0.251890	0.300540
Cu11	Cu1	0.102410	0.750910	0.813130
Cu21	Cu2	0.397590	0.250910	0.313130
Cu31	Cu3	0.078920	0.247550	0.686490
Cu41	Cu4	0.578920	0.252450	0.813510
Cu51	Cu5	0.897590	0.249090	0.186870
Cu61	Cu6	0.421080	0.747550	0.186490
Cu71	Cu7	0.602410	0.749090	0.686870
Cu81	Cu8	0.921080	0.752450	0.313510
H11	H1	0.708400	0.735600	0.550100
H21	H2	0.239000	0.164400	0.312800
H31	H3	0.567300	0.924200	0.342100
H41	H4	0.382600	0.304000	0.572600
H51	H5	0.243400	0.082100	0.309900
H61	H6	0.952200	0.487700	0.723000
H71	H7	0.256600	0.582100	0.809900
H81	H8	0.415700	0.335400	0.809100
H91	H9	0.123100	0.758900	0.365800
H101	H10	0.434500	0.513000	0.720300
H111	H11	0.426100	0.585400	0.690600
H121	H12	0.738200	0.577400	0.779400
H131	H13	0.764300	0.578300	0.694100
H141	H14	0.239500	0.914400	0.180400
H151	H15	0.643200	0.210500	0.558000
H161	H16	0.876500	0.753300	0.934800
H171	H17	0.623100	0.741100	0.134200
H181	H18	0.229400	0.336900	0.308600
H191	H19	0.422600	0.085400	0.812900
H201	H20	0.073700	0.927800	0.226400
H211	H21	0.926300	0.072200	0.773600
H221	H22	0.934500	0.987000	0.779700
H231	H23	0.238600	0.998500	0.829300
H241	H24	0.935900	0.003900	0.663300
H251	H25	0.672800	0.253900	0.951100
H261	H26	0.251800	0.329400	0.679400
H271	H27	0.077900	0.413000	0.175700
H281	H28	0.760500	0.085600	0.819600
H291	H29	0.105800	0.289200	0.494700
H301	H30	0.756600	0.917900	0.690100
H311	H31	0.941100	0.829800	0.815500
H321	H32	0.573700	0.572200	0.273600
H331	H33	0.193900	0.794300	0.559100
H341	H34	0.717200	0.991700	0.722400
H351	H35	0.853900	0.195500	0.993400
H361	H36	0.327200	0.746100	0.048900
H371	H37	0.452200	0.012300	0.777000
H381	H38	0.753100	0.834000	0.317000
H391	H39	0.914600	0.080000	0.691500
H401	H40	0.353900	0.304500	0.506600
H411	H41	0.841800	0.235900	0.567600
H421	H42	0.751000	0.418400	0.815200
H431	H43	0.356800	0.789500	0.442000
H441	H44	0.791600	0.235600	0.050100
H451	H45	0.827200	0.753900	0.451100
H461	H46	0.064100	0.996100	0.336700
H471	H47	0.763400	0.235200	0.116300
H481	H48	0.415800	0.787900	0.930100
H491	H49	0.926100	0.914600	0.809400
H501	H50	0.749000	0.918400	0.315200
H511	H51	0.584200	0.212100	0.069900
H521	H52	0.856800	0.710500	0.058000
H531	H53	0.735700	0.078300	0.194100
H541	H54	0.617900	0.213200	0.491500
H551	H55	0.268000	0.991500	0.157700
H561	H56	0.266800	0.076600	0.162000
H571	H57	0.054800	0.491400	0.151200
H581	H58	0.235700	0.421700	0.305900
H591	H59	0.738600	0.501500	0.670700
H601	H60	0.836400	0.202400	0.507400
H611	H61	0.939600	0.918400	0.667900
H621	H62	0.584300	0.664600	0.190900
H631	H63	0.876900	0.241100	0.634200
H641	H64	0.231600	0.082200	0.823900
H651	H65	0.306100	0.294300	0.059100
H661	H66	0.922100	0.587000	0.824300
H671	H67	0.617400	0.696000	0.427400
H681	H68	0.761000	0.835600	0.687200
H691	H69	0.382100	0.786800	0.508500
H701	H70	0.743400	0.417900	0.190100
H711	H71	0.882100	0.713200	0.991500
H721	H72	0.429800	0.829000	0.681000
H731	H73	0.067300	0.575800	0.157900
H741	H74	0.146100	0.804500	0.006600
H751	H75	0.117400	0.804000	0.072600
H761	H76	0.663600	0.702400	0.007400
H771	H77	0.565500	0.487000	0.279700
H781	H78	0.422700	0.168900	0.811500
H791	H79	0.163600	0.797600	0.492600
H801	H80	0.739500	0.585600	0.319600
H811	H81	0.733200	0.923400	0.838000
H821	H82	0.260500	0.414400	0.680400
H831	H83	0.376500	0.746700	0.565200
H841	H84	0.748200	0.670600	0.320600
H851	H85	0.746900	0.334000	0.817000
H861	H86	0.238200	0.922600	0.720600
H871	H87	0.291600	0.264400	0.449900
H881	H88	0.729400	0.163100	0.191400
H891	H89	0.261400	0.498500	0.329300
H901	H90	0.441100	0.670200	0.684500
H911	H91	0.341800	0.264100	0.932400
H921	H92	0.761400	0.001500	0.170700
H931	H93	0.432700	0.075800	0.657900
H941	H94	0.731600	0.417800	0.676100
H951	H95	0.047300	0.427700	0.273000
H961	H96	0.238400	0.007600	0.716400
H971	H97	0.143200	0.289500	0.942000
H981	H98	0.558900	0.329800	0.315500
H991	H99	0.249000	0.581600	0.184800
H1001	H100	0.761600	0.992400	0.283600
H1011	H101	0.248200	0.829400	0.179400
H1021	H102	0.084300	0.835400	0.309100
H1031	H103	0.693900	0.705700	0.940900
H1041	H104	0.806100	0.205700	0.440900
H1051	H105	0.158200	0.764100	0.432400
H1061	H106	0.560400	0.418400	0.167900
H1071	H107	0.251000	0.081600	0.684800
H1081	H108	0.766800	0.423400	0.338000
H1091	H109	0.336400	0.297600	0.992600
H1101	H110	0.445200	0.991400	0.651200
H1111	H111	0.736600	0.735200	0.616300
H1121	H112	0.060400	0.081600	0.332100
H1131	H113	0.732000	0.008500	0.842300
H1141	H114	0.208400	0.764400	0.949900
H1151	H115	0.577400	0.914600	0.187100
H1161	H116	0.770600	0.663100	0.691400
H1171	H117	0.077400	0.585400	0.312900
H1181	H118	0.623500	0.253300	0.434800
H1191	H119	0.796200	0.577100	0.226800
H1201	H120	0.797000	0.753200	0.386200
H1211	H121	0.945200	0.508600	0.848800
H1221	H122	0.394200	0.789200	0.994700
H1231	H123	0.233200	0.576600	0.662000
H1241	H124	0.658200	0.735900	0.067600
H1251	H125	0.751800	0.170600	0.820600
H1261	H126	0.203000	0.246800	0.613800
H1271	H127	0.084200	0.287900	0.430100
H1281	H128	0.703000	0.253200	0.886200
H1291	H129	0.761800	0.077400	0.279400
H1301	H130	0.422100	0.913000	0.675700
H1311	H131	0.264300	0.921700	0.805900
H1321	H132	0.739000	0.335600	0.187200
H1331	H133	0.915800	0.712100	0.569900
H1341	H134	0.236600	0.764800	0.883700
H1351	H135	0.564100	0.503900	0.163300
H1361	H136	0.414600	0.420000	0.808500
H1371	H137	0.894200	0.710800	0.505300
H1381	H138	0.922700	0.331100	0.688500
H1391	H139	0.768400	0.917800	0.176100
H1401	H140	0.270600	0.836900	0.808600
H1411	H141	0.217200	0.508300	0.777600
H1421	H142	0.952700	0.572300	0.727000
H1431	H143	0.882600	0.196000	0.927400
H1441	H144	0.065500	0.013000	0.220300
H1451	H145	0.261600	0.507600	0.216400
H1461	H146	0.554800	0.008600	0.348800
H1471	H147	0.077300	0.668900	0.311500
H1481	H148	0.070200	0.329000	0.181000
H1491	H149	0.376900	0.258900	0.865800
H1501	H150	0.232000	0.491500	0.657700
H1511	H151	0.403900	0.750300	0.631800
H1521	H152	0.261000	0.664400	0.812800
H1531	H153	0.570200	0.171000	0.319000
H1541	H154	0.646100	0.695500	0.493400
H1551	H155	0.577300	0.831100	0.188500
H1561	H156	0.117900	0.286800	0.008500
H1571	H157	0.573900	0.414600	0.309400
H1581	H158	0.203800	0.422900	0.773200
H1591	H159	0.297000	0.746800	0.113800
H1601	H160	0.296200	0.922900	0.273200
H1611	H161	0.282800	0.008300	0.277600
H1621	H162	0.903900	0.749700	0.868200
H1631	H163	0.585400	0.580000	0.191500
H1641	H164	0.073900	0.085400	0.190600
H1651	H165	0.261800	0.422600	0.220600
H1661	H166	0.426300	0.427800	0.726400
H1671	H167	0.268400	0.582200	0.323900
H1681	H168	0.263400	0.264800	0.383700
H1691	H169	0.605800	0.210800	0.005300
H1701	H170	0.085400	0.920000	0.308500
H1711	H171	0.596100	0.249700	0.368200
H1721	H172	0.435900	0.496100	0.836700
H1731	H173	0.915700	0.164600	0.690900
H1741	H174	0.246900	0.166000	0.683000
H1751	H175	0.922600	0.414600	0.687100
H1761	H176	0.047800	0.512300	0.277000
H1771	H177	0.439600	0.581600	0.832100
H1781	H178	0.096100	0.250300	0.131800
H1791	H179	0.577900	0.087000	0.324300
H1801	H180	0.058900	0.170200	0.184500
H1811	H181	0.547300	0.072300	0.227000
H1821	H182	0.452700	0.927700	0.773000
H1831	H183	0.782800	0.491700	0.222400
H1841	H184	0.768000	0.508500	0.342300
H1851	H185	0.738400	0.492400	0.783600
H1861	H186	0.932700	0.424200	0.842100
H1871	H187	0.253100	0.666000	0.183000
H1881	H188	0.547800	0.987700	0.223000
H1891	H189	0.172800	0.246100	0.548900
H1901	H190	0.929800	0.671000	0.819000
H1911	H191	0.123500	0.246700	0.065200
H1921	H192	0.703800	0.077100	0.726800
C11	C1	0.515600	0.647700	0.189600
C21	C2	0.889000	0.755600	0.434400
C31	C3	0.670800	0.436700	0.684700
C41	C4	0.809100	0.601800	0.317500
C51	C5	0.094000	0.928100	0.808500
C61	C6	0.085500	0.270000	0.952200
C71	C7	0.089800	0.983200	0.805900
C81	C8	0.413400	0.980000	0.188700
C91	C9	0.990500	0.443800	0.286700
C101	C10	0.994200	0.006200	0.788800
C111	C11	0.722300	0.753170	0.267230
C121	C12	0.411200	0.924800	0.186400
C131	C13	0.818700	0.902200	0.314000
C141	C14	0.983600	0.096700	0.690200
C151	C15	0.008400	0.652300	0.313300
C161	C16	0.966000	0.752600	0.884700
C171	C17	0.517000	0.740100	0.508200
C181	C18	0.676800	0.941400	0.825500
C191	C19	0.047700	0.270300	0.484200
C201	C20	0.423100	0.018500	0.312900
C211	C21	0.371200	0.745500	0.104600
C221	C22	0.492800	0.348400	0.313000
C231	C23	0.589800	0.516800	0.694100
C241	C24	0.806200	0.750000	0.731800
C251	C25	0.112800	0.780500	0.508100
C261	C26	0.676800	0.510100	0.793200
C271	C27	0.659400	0.008400	0.709600
C281	C28	0.008200	0.601900	0.313200
C291	C29	0.387200	0.280500	0.008100
C301	C30	0.501000	0.436600	0.178300
C311	C31	0.197000	0.903800	0.807700
C321	C32	0.018700	0.757400	0.491500
C331	C33	0.562800	0.741500	0.116900
C341	C34	0.914500	0.730000	0.047800
C351	C35	0.444400	0.859800	0.303500
C361	C36	0.868300	0.221900	0.451500
C371	C37	0.370100	0.749500	0.729600
C381	C38	0.128800	0.245500	0.604600
C391	C39	0.005800	0.993800	0.211200
C401	C40	0.001000	0.063400	0.321700
C411	C41	0.075600	0.750100	0.614600
C421	C42	0.518400	0.256500	0.572500
C431	C43	0.586300	0.642700	0.801600
C441	C44	0.963100	0.240400	0.051100
C451	C45	0.094900	0.582700	0.696100
C461	C46	0.612800	0.719500	0.991900
C471	C47	0.944400	0.640200	0.196500
C481	C48	0.803000	0.096200	0.192300
C491	C49	0.496800	0.512000	0.824900
C501	C50	0.693800	0.250000	0.231800
C511	C51	0.594900	0.917300	0.803900
C521	C52	0.131700	0.778100	0.548500
C531	C53	0.628800	0.254500	0.895400
C541	C54	0.870100	0.750500	0.770400
C551	C55	0.179200	0.148500	0.685100
C561	C56	0.688700	0.900600	0.687700
C571	C57	0.823200	0.010100	0.293200
C581	C58	0.588800	0.075200	0.813600
C591	C59	0.570400	0.714500	0.443400
C601	C60	0.353700	0.262100	0.433400
C611	C61	0.584000	0.739000	0.076500
C621	C62	0.483600	0.403300	0.809800
C631	C63	0.911200	0.575200	0.313600
C641	C64	0.509500	0.943800	0.786700
C651	C65	0.929600	0.214500	0.943400
C661	C66	0.990200	0.441200	0.829300
C671	C67	0.429600	0.285500	0.556600
C681	C68	0.570300	0.231200	0.507600
C691	C69	0.007200	0.848400	0.813000
C701	C70	0.502500	0.399900	0.310100
C711	C71	0.586300	0.587300	0.803800
C721	C72	0.414500	0.770000	0.452200
C731	C73	0.656400	0.750310	0.228090
C741	C74	0.159400	0.491600	0.790400
C751	C75	0.491600	0.152300	0.813300
C761	C76	0.075500	0.086300	0.799300
C771	C77	0.151500	0.440300	0.788000
C781	C78	0.184400	0.347100	0.681700
C791	C79	0.518700	0.742600	0.008500
C801	C80	0.913700	0.142700	0.301600
C811	C81	0.086600	0.786000	0.016800
C821	C82	0.508300	0.102300	0.319700
C831	C83	0.674600	0.487000	0.681800
C841	C84	0.825400	0.987000	0.181800
C851	C85	0.809200	0.351400	0.186400
C861	C86	0.840600	0.508400	0.209600
C871	C87	0.566800	0.084800	0.692600
C881	C88	0.416000	0.570200	0.188900
C891	C89	0.050100	0.245000	0.075100
C901	C90	0.996900	0.653000	0.818300
C911	C91	0.497500	0.600100	0.689900
C921	C92	0.411600	0.515100	0.190100
C931	C93	0.848500	0.559700	0.212000
C941	C94	0.836000	0.238800	0.106100
C951	C95	0.496200	0.007700	0.667200
C961	C96	0.999000	0.936600	0.678300
C971	C97	0.505800	0.506200	0.288800
C981	C98	0.323400	0.438900	0.209600
C991	C99	0.311300	0.099400	0.312300
C1001	C100	0.309200	0.148600	0.313600
C1011	C101	0.996500	0.759200	0.449200
C1021	C102	0.996800	0.988000	0.675100
C1031	C103	0.490200	0.058800	0.670700
C1041	C104	0.516400	0.596700	0.190200
C1051	C105	0.981300	0.242600	0.508500
C1061	C106	0.174900	0.507700	0.671300
C1071	C107	0.494200	0.493800	0.711200
C1081	C108	0.584000	0.429800	0.811100
C1091	C109	0.086300	0.912700	0.696200
C1101	C110	0.368300	0.278100	0.048500
C1111	C111	0.325100	0.007700	0.171300
C1121	C112	0.481600	0.743500	0.427500
C1131	C113	0.507200	0.651600	0.687000
C1141	C114	0.084000	0.070200	0.688900
C1151	C115	0.676600	0.561100	0.790400
C1161	C116	0.336000	0.261200	0.393900
C1171	C117	0.156400	0.749690	0.271910
C1181	C118	0.903400	0.360700	0.299600
C1191	C119	0.076900	0.518500	0.812900
C1201	C120	0.596600	0.860700	0.799600
C1211	C121	0.306200	0.750000	0.768200
C1221	C122	0.823400	0.061100	0.290400
C1231	C123	0.003500	0.240800	0.550800
C1241	C124	0.697000	0.596200	0.692300
C1251	C125	0.084000	0.761000	0.423500
C1261	C126	0.072200	0.141500	0.797600
C1271	C127	0.088800	0.424800	0.686400
C1281	C128	0.424400	0.250100	0.114600
C1291	C129	0.887200	0.219500	0.491900
C1301	C130	0.496500	0.740800	0.050800
C1311	C131	0.437200	0.258500	0.883100
C1321	C132	0.016400	0.903300	0.309800
C1331	C133	0.488800	0.442500	0.714600
C1341	C134	0.929700	0.731200	0.007600
C1351	C135	0.299600	0.352600	0.309400
C1361	C136	0.011200	0.942500	0.214600
C1371	C137	0.509800	0.941200	0.329300
C1381	C138	0.575500	0.413700	0.700700
C1391	C139	0.811300	0.400600	0.187700
C1401	C140	0.594000	0.571900	0.691500
C1411	C141	0.429700	0.768800	0.492400
C1421	C142	0.449900	0.745000	0.575100
C1431	C143	0.200400	0.852600	0.809400
C1441	C144	0.853700	0.237900	0.066600
C1451	C145	0.983000	0.240100	0.008200
C1461	C146	0.008400	0.505300	0.710100
C1471	C147	0.461200	0.741300	0.384600
C1481	C148	0.829200	0.936700	0.184700
C1491	C149	0.825100	0.492300	0.328700
C1501	C150	0.003100	0.347000	0.181700
C1511	C151	0.413400	0.286000	0.516800
C1521	C152	0.031900	0.271100	0.445300
C1531	C153	0.427800	0.641500	0.297600
C1541	C154	0.679200	0.351500	0.814900
C1551	C155	0.991600	0.494700	0.289900
C1561	C156	0.531900	0.228900	0.054700
C1571	C157	0.681300	0.402200	0.814000
C1581	C158	0.468100	0.771100	0.945300
C1591	C159	0.646300	0.737900	0.566600
C1601	C160	0.508200	0.898100	0.186800
C1611	C161	0.176800	0.558600	0.674500
C1621	C162	0.924400	0.249900	0.385400
C1631	C163	0.913400	0.214000	0.983200
C1641	C164	0.181300	0.097800	0.686000
C1651	C165	0.318700	0.597800	0.186000
C1661	C166	0.575600	0.749900	0.885400
C1671	C167	0.490500	0.056200	0.213300
C1681	C168	0.927800	0.858500	0.202400
C1691	C169	0.815600	0.652900	0.318300
C1701	C170	0.690900	0.101800	0.817500
C1711	C171	0.111000	0.244400	0.565600
C1721	C172	0.674900	0.992300	0.828700
C1731	C173	0.916000	0.929800	0.311100
C1741	C174	0.491600	0.005300	0.210100
C1751	C175	0.176800	0.989900	0.706800
C1761	C176	0.511200	0.557500	0.285400
C1771	C177	0.992800	0.151600	0.187000
C1781	C178	0.413700	0.412700	0.196200
C1791	C179	0.174600	0.013000	0.818200
C1801	C180	0.910200	0.016800	0.194100
C1811	C181	0.690800	0.851400	0.686400
C1821	C182	0.503100	0.153000	0.318300
C1831	C183	0.555600	0.140200	0.696500
C1841	C184	0.799600	0.147400	0.190600
C1851	C185	0.508400	0.994700	0.789900
C1861	C186	0.466000	0.747400	0.615300
C1871	C187	0.968100	0.728900	0.554700
C1881	C188	0.452300	0.770300	0.984200
C1891	C189	0.055600	0.359800	0.803500
C1901	C190	0.911600	0.984900	0.309900
C1911	C191	0.651500	0.059700	0.712000
C1921	C192	0.906000	0.071900	0.191500
C1931	C193	0.017000	0.759900	0.991800
C1941	C194	0.036900	0.759600	0.948900
C1951	C195	0.277700	0.246830	0.732770
C1961	C196	0.997500	0.899900	0.810100
C1971	C197	0.916000	0.239000	0.576500
C1981	C198	0.942000	0.248200	0.427600
C1991	C199	0.631700	0.721900	0.951500
C2001	C200	0.576900	0.981500	0.687100
C2011	C201	0.664000	0.738800	0.606100
C2021	C202	0.499000	0.563400	0.821700
C2031	C203	0.913700	0.087300	0.303800
C2041	C204	0.088400	0.015100	0.690100
C2051	C205	0.003800	0.507700	0.167200
C2061	C206	0.913100	0.426400	0.185500
C2071	C207	0.629900	0.250500	0.270400
C2081	C208	0.015600	0.852300	0.310400
C2091	C209	0.170800	0.063300	0.815300
C2101	C210	0.961200	0.758700	0.115400
C2111	C211	0.413700	0.357300	0.198400
C2121	C212	0.190800	0.648600	0.813600
C2131	C213	0.586900	0.926400	0.685500
C2141	C214	0.585500	0.230000	0.547800
C2151	C215	0.405100	0.082700	0.196100
C2161	C216	0.871200	0.754500	0.395400
C2171	C217	0.086600	0.480000	0.688700
C2181	C218	0.410200	0.483200	0.305900
C2191	C219	0.343600	0.249690	0.771910
C2201	C220	0.340600	0.991600	0.290400
C2211	C221	0.406000	0.428100	0.308500
C2221	C222	0.823200	0.441400	0.325500
C2231	C223	0.066800	0.415200	0.807400
C2241	C224	0.086300	0.857300	0.698400
C2251	C225	0.933200	0.584800	0.192600
C2261	C226	0.991800	0.398100	0.686800
C2271	C227	0.320800	0.648500	0.185100
C2281	C228	0.038800	0.241300	0.884600
C2291	C229	0.547700	0.229700	0.015800
C2301	C230	0.433200	0.915200	0.307400
C2311	C231	0.550100	0.255000	0.424900
C2321	C232	0.442000	0.251800	0.072400
C2331	C233	0.070300	0.268800	0.992400
C2341	C234	0.558000	0.748200	0.927600
C2351	C235	0.329200	0.563300	0.315300
C2361	C236	0.503200	0.488000	0.175100
C2371	C237	0.009500	0.556200	0.713300
C2381	C238	0.586600	0.714000	0.483200
C2391	C239	0.996200	0.492300	0.832800
C2401	C240	0.483000	0.259900	0.491800
C2411	C241	0.991700	0.602300	0.819700
C2421	C242	0.777700	0.253170	0.767230
C2431	C243	0.096600	0.639300	0.700400
C2441	C244	0.496900	0.847000	0.681700
C2451	C245	0.222300	0.746830	0.232770
C2461	C246	0.323200	0.058600	0.174500
C2471	C247	0.586600	0.020000	0.811300
C2481	C248	0.538800	0.258700	0.615400
C2491	C249	0.164000	0.761200	0.893900
C2501	C250	0.988800	0.057500	0.785400
C2511	C251	0.389000	0.744400	0.065600
C2521	C252	0.070400	0.785500	0.056600
C2531	C253	0.315600	0.847100	0.181700
C2541	C254	0.188700	0.599400	0.812300
C2551	C255	0.463100	0.259600	0.448900
C2561	C256	0.503500	0.259200	0.949200
C2571	C257	0.981600	0.756500	0.072500
C2581	C258	0.508400	0.847700	0.186700
C2591	C259	0.588400	0.484900	0.809900
C2601	C260	0.484400	0.352300	0.810400
C2611	C261	0.913400	0.520000	0.311300
C2621	C262	0.481300	0.257400	0.991500
C2631	C263	0.008300	0.397700	0.180300
C2641	C264	0.003200	0.012000	0.324900
C2651	C265	0.905100	0.417300	0.303900
C2661	C266	0.952300	0.729700	0.515800
C2671	C267	0.611000	0.255600	0.934400
C2681	C268	0.303000	0.403800	0.307700
C2691	C269	0.684400	0.152900	0.818300
C2701	C270	0.062800	0.758500	0.383100
C2711	C271	0.503800	0.992300	0.332800
C2721	C272	0.193800	0.250000	0.268200
C2731	C273	0.534000	0.252600	0.384700
C2741	C274	0.323200	0.489900	0.206800
C2751	C275	0.009800	0.558800	0.170700
C2761	C276	0.018400	0.243500	0.927500
C2771	C277	0.176600	0.938900	0.709600
C2781	C278	0.923100	0.481500	0.187100
C2791	C279	0.034000	0.247400	0.115300
C2801	C280	0.129900	0.249500	0.229600
C2811	C281	0.984400	0.147700	0.689600
C2821	C282	0.843600	0.250310	0.728090
C2831	C283	0.491700	0.897700	0.680300
C2841	C284	0.058000	0.751800	0.572400
C2851	C285	0.190900	0.398200	0.682500
C2861	C286	0.937200	0.241500	0.616900
C2871	C287	0.309100	0.898200	0.182500
C2881	C288	0.700400	0.647400	0.690600
C2891	C289	0.572200	0.358500	0.702400
C2901	C290	0.416000	0.261000	0.923500
C2911	C291	0.820800	0.851500	0.314900
C2921	C292	0.924500	0.913700	0.200700
C2931	C293	0.491800	0.101900	0.813200
C2941	C294	0.348500	0.940300	0.288000
C2951	C295	0.403400	0.139300	0.200400
C2961	C296	0.991600	0.347700	0.686700
C2971	C297	0.002500	0.100100	0.189900
C2981	C298	0.536900	0.740400	0.551100
C2991	C299	0.325400	0.513000	0.318200
C3001	C300	0.424500	0.586300	0.299300
C3011	C301	0.146300	0.762100	0.933400
C3021	C302	0.413100	0.073600	0.314500
C3031	C303	0.949900	0.755000	0.924900
C3041	C304	0.086900	0.573600	0.814500
N11	N1	0.456200	0.744740	0.129660
N21	N2	0.587700	0.178000	0.816000
N31	N3	0.920100	0.826800	0.312900
N41	N4	0.596100	0.823400	0.683900
N51	N5	0.606400	0.675000	0.687800
N61	N6	0.420100	0.673200	0.187100
N71	N7	0.079900	0.173200	0.687100
N81	N8	0.412300	0.822000	0.184000
N91	N9	0.096100	0.676600	0.816100
N101	N10	0.087700	0.322000	0.684000
N111	N11	0.928300	0.245200	0.129700
N121	N12	0.912300	0.678000	0.316000
N131	N13	0.403900	0.176600	0.316100
N141	N14	0.043800	0.244740	0.629660
N151	N15	0.579900	0.326800	0.812900
N161	N16	0.106400	0.825000	0.812200
N171	N17	0.893600	0.175000	0.187800
N181	N18	0.393600	0.325000	0.312200
N191	N19	0.071700	0.754800	0.870300
N201	N20	0.428300	0.254800	0.370300
N211	N21	0.903900	0.323400	0.183900
N221	N22	0.543800	0.255260	0.870340
N231	N23	0.571700	0.745200	0.629700
N241	N24	0.956200	0.755260	0.370340
O11	O1	0.292700	0.255430	0.801370
O21	O2	0.123200	0.338100	0.782400
O31	O3	0.015000	0.837800	0.217600
O41	O4	0.017300	0.659800	0.717400
O51	O5	0.498700	0.334200	0.186100
O61	O6	0.878600	0.747270	0.700130
O71	O7	0.515000	0.662200	0.282400
O81	O8	0.166900	0.834900	0.714000
O91	O9	0.502100	0.773600	0.865600
O101	O10	0.485000	0.337800	0.717600
O111	O11	0.018500	0.662100	0.178100
O121	O12	0.832500	0.253150	0.798450
O131	O13	0.341600	0.269800	0.129700
O141	O14	0.207300	0.755430	0.301370
O151	O15	0.623200	0.161900	0.717600
O161	O16	0.497900	0.226400	0.134400
O171	O17	0.018700	0.246200	0.234000
O181	O18	0.002100	0.726400	0.634400
O191	O19	0.332500	0.246850	0.701550
O201	O20	0.951400	0.252250	0.732450
O211	O21	0.125100	0.263400	0.871500
O221	O22	0.517300	0.840200	0.782600
O231	O23	0.374900	0.763400	0.371500
O241	O24	0.172600	0.247400	0.735100
O251	O25	0.672600	0.252600	0.764900
O261	O26	0.327400	0.747400	0.235100
O271	O27	0.548600	0.752250	0.232450
O281	O28	0.621400	0.247270	0.200130
O291	O29	0.121400	0.252730	0.299870
O301	O30	0.482700	0.159800	0.217400
O311	O31	0.966900	0.221400	0.864000
O321	O32	0.301000	0.245150	0.265850
O331	O33	0.048600	0.747750	0.267550
O341	O34	0.982700	0.340200	0.282600
O351	O35	0.333100	0.334900	0.214000
O361	O36	0.827400	0.752600	0.264900
O371	O37	0.876800	0.661900	0.217600
O381	O38	0.001300	0.834200	0.686100
O391	O39	0.181400	0.248690	0.199410
O401	O40	0.998700	0.165800	0.313900
O411	O41	0.841600	0.230200	0.370300
O421	O42	0.154600	0.166300	0.808500
O431	O43	0.981500	0.337900	0.821900
O441	O44	0.997900	0.273600	0.365600
O451	O45	0.451400	0.247750	0.767550
O461	O46	0.681400	0.251310	0.300590
O471	O47	0.481300	0.746200	0.734000
O481	O48	0.699000	0.754850	0.734150
O491	O49	0.667500	0.753150	0.298450
O501	O50	0.654600	0.333700	0.691500
O511	O51	0.625100	0.236600	0.628500
O521	O52	0.501300	0.665800	0.813900
O531	O53	0.833100	0.165100	0.286000
O541	O54	0.466900	0.278600	0.636000
O551	O55	0.199000	0.745150	0.765850
O561	O56	0.481500	0.162100	0.678100
O571	O57	0.677500	0.838200	0.815500
O581	O58	0.845400	0.833700	0.191500
O591	O59	0.518700	0.253800	0.266000
O601	O60	0.658400	0.730200	0.870300
O611	O61	0.345400	0.666300	0.308500
O621	O62	0.981300	0.753800	0.766000
O631	O63	0.707300	0.744570	0.198630
O641	O64	0.818600	0.751310	0.800590
O651	O65	0.533100	0.721400	0.364000
O661	O66	0.378600	0.752730	0.799870
O671	O67	0.318600	0.748690	0.699410
O681	O68	0.985000	0.162200	0.782400
O691	O69	0.666900	0.665100	0.786000
O701	O70	0.167500	0.746850	0.201550
O711	O71	0.322500	0.161800	0.184500
O721	O72	0.874900	0.736600	0.128500
O731	O73	0.801000	0.254850	0.234150
O741	O74	0.792700	0.244570	0.698630
O751	O75	0.033100	0.778600	0.136000
O761	O76	0.177500	0.661800	0.684500
O771	O77	0.158400	0.769800	0.629700
O781	O78	0.822500	0.338200	0.315500
O791	O79	0.376800	0.838100	0.282400
O801	O80	0.518500	0.837900	0.321900
