data_HOGJIX_freeONLY_PM
_symmetry_space_group_name_H-M	'P1'
_cell_length_a	19.425300
_cell_length_b	19.425300
_cell_length_c	21.705000
_cell_angle_alpha	64.178900
_cell_angle_beta	64.178900
_cell_angle_gamma	60.619900
_symmetry_Int_Tables_number 1

loop_
_symmetry_equiv_pos_as_xyz
'x,y,z'

loop_
_atom_site_label
_atom_site_type_symbol
_atom_site_fract_x
_atom_site_fract_y
_atom_site_fract_z
Zn11	Zn1	0.302040	0.188010	0.312600
Zn21	Zn2	0.260910	0.275320	0.173110
Zn31	Zn3	0.820410	0.269860	0.180760
Zn41	Zn4	0.811990	0.697960	0.187400
Zn51	Zn5	0.724680	0.739090	0.326890
Zn61	Zn6	0.730140	0.179590	0.319240
Zn71	Zn7	0.697960	0.811990	0.687400
Zn81	Zn8	0.739090	0.724680	0.826890
Zn91	Zn9	0.179590	0.730140	0.819240
Zn101	Zn10	0.188010	0.302040	0.812600
Zn111	Zn11	0.275320	0.260910	0.673110
Zn121	Zn12	0.269860	0.820410	0.680760
H11	H1	0.132900	0.378300	0.408500
H21	H2	0.039700	0.485700	0.240100
H31	H3	0.186400	0.137600	0.442800
H41	H4	0.872800	0.245800	0.041300
H51	H5	0.109700	0.112100	0.604900
H61	H6	0.159400	0.016800	0.608100
H71	H7	0.115000	0.078800	0.546700
H81	H8	0.263700	0.047300	0.612700
H91	H9	0.286800	0.123200	0.551600
H101	H10	0.333200	0.033600	0.539600
H111	H11	0.950000	0.422600	0.887100
H121	H12	0.969300	0.393700	0.961000
H131	H13	0.877200	0.448800	0.955000
H141	H14	0.951400	0.334600	0.855800
H151	H15	0.879800	0.298800	0.903800
H161	H16	0.972000	0.243400	0.909100
H171	H17	0.270900	0.418300	0.050000
H181	H18	0.296500	0.488900	0.863600
H191	H19	0.339600	0.485600	0.913600
H201	H20	0.241900	0.531100	0.927200
H211	H21	0.288600	0.384800	0.878400
H221	H22	0.228800	0.349400	0.951300
H231	H23	0.326600	0.304800	0.937400
H241	H24	0.920200	0.579000	0.409900
H251	H25	0.414100	0.414300	0.085500
H261	H26	0.625700	0.406100	0.089100
H271	H27	0.515200	0.251400	0.248700
H281	H28	0.136200	0.072000	0.401400
H291	H29	0.924700	0.074100	0.406700
H301	H30	0.046600	0.206000	0.230300
H311	H31	0.621700	0.867100	0.091500
H321	H32	0.514300	0.960300	0.259900
H331	H33	0.862400	0.813600	0.057200
H341	H34	0.754200	0.127200	0.458700
H351	H35	0.887900	0.890300	0.895100
H361	H36	0.983200	0.840600	0.891900
H371	H37	0.921200	0.885000	0.953300
H381	H38	0.952700	0.736300	0.887300
H391	H39	0.876800	0.713200	0.948400
H401	H40	0.966400	0.666800	0.960400
H411	H41	0.577400	0.050000	0.612900
H421	H42	0.606300	0.030700	0.539000
H431	H43	0.551200	0.122800	0.545000
H441	H44	0.665400	0.048600	0.644200
H451	H45	0.701200	0.120200	0.596200
H461	H46	0.756600	0.028000	0.590900
H471	H47	0.581700	0.729100	0.450000
H481	H48	0.511100	0.703500	0.636400
H491	H49	0.514400	0.660400	0.586400
H501	H50	0.468900	0.758100	0.572800
H511	H51	0.615200	0.711400	0.621600
H521	H52	0.650600	0.771200	0.548700
H531	H53	0.695200	0.673400	0.562600
H541	H54	0.421000	0.079800	0.090100
H551	H55	0.585700	0.585900	0.414500
H561	H56	0.593900	0.374300	0.410900
H571	H57	0.748600	0.484800	0.251300
H581	H58	0.928000	0.863800	0.098600
H591	H59	0.925900	0.075300	0.093300
H601	H60	0.794000	0.953400	0.269700
H611	H61	0.867100	0.621700	0.591500
H621	H62	0.960300	0.514300	0.759900
H631	H63	0.813600	0.862400	0.557200
H641	H64	0.127200	0.754200	0.958700
H651	H65	0.890300	0.887900	0.395100
H661	H66	0.840600	0.983200	0.391900
H671	H67	0.885000	0.921200	0.453300
H681	H68	0.736300	0.952700	0.387300
H691	H69	0.713200	0.876800	0.448400
H701	H70	0.666800	0.966400	0.460400
H711	H71	0.050000	0.577400	0.112900
H721	H72	0.030700	0.606300	0.039000
H731	H73	0.122800	0.551200	0.045000
H741	H74	0.048600	0.665400	0.144200
H751	H75	0.120200	0.701200	0.096200
H761	H76	0.028000	0.756600	0.090900
H771	H77	0.729100	0.581700	0.950000
H781	H78	0.703500	0.511100	0.136400
H791	H79	0.660400	0.514400	0.086400
H801	H80	0.758100	0.468900	0.072800
H811	H81	0.711400	0.615200	0.121600
H821	H82	0.771200	0.650600	0.048700
H831	H83	0.673400	0.695200	0.062600
H841	H84	0.079800	0.421000	0.590100
H851	H85	0.585900	0.585700	0.914500
H861	H86	0.374300	0.593900	0.910900
H871	H87	0.484800	0.748600	0.751300
H881	H88	0.863800	0.928000	0.598600
H891	H89	0.075300	0.925900	0.593300
H901	H90	0.953400	0.794000	0.769700
H911	H91	0.378300	0.132900	0.908500
H921	H92	0.485700	0.039700	0.740100
H931	H93	0.137600	0.186400	0.942800
H941	H94	0.245800	0.872800	0.541300
H951	H95	0.112100	0.109700	0.104900
H961	H96	0.016800	0.159400	0.108100
H971	H97	0.078800	0.115000	0.046700
H981	H98	0.047300	0.263700	0.112700
H991	H99	0.123200	0.286800	0.051600
H1001	H100	0.033600	0.333200	0.039600
H1011	H101	0.422600	0.950000	0.387100
H1021	H102	0.393700	0.969300	0.461000
H1031	H103	0.448800	0.877200	0.455000
H1041	H104	0.334600	0.951400	0.355800
H1051	H105	0.298800	0.879800	0.403800
H1061	H106	0.243400	0.972000	0.409100
H1071	H107	0.418300	0.270900	0.550000
H1081	H108	0.488900	0.296500	0.363600
H1091	H109	0.485600	0.339600	0.413600
H1101	H110	0.531100	0.241900	0.427200
H1111	H111	0.384800	0.288600	0.378400
H1121	H112	0.349400	0.228800	0.451300
H1131	H113	0.304800	0.326600	0.437400
H1141	H114	0.579000	0.920200	0.909900
H1151	H115	0.414300	0.414100	0.585500
H1161	H116	0.406100	0.625700	0.589100
H1171	H117	0.251400	0.515200	0.748700
H1181	H118	0.072000	0.136200	0.901400
H1191	H119	0.074100	0.924700	0.906700
H1201	H120	0.206000	0.046600	0.730300
C11	C1	0.165800	0.356580	0.285660
C21	C2	0.095610	0.422490	0.319580
C31	C3	0.091440	0.420020	0.385800
C41	C4	0.035620	0.483160	0.286190
C51	C5	0.229500	0.123900	0.460900
C61	C6	0.883300	0.293500	0.030100
C71	C7	0.144800	0.073000	0.576300
C81	C8	0.280500	0.072100	0.561000
C91	C9	0.928600	0.405000	0.939200
C101	C10	0.026080	0.479120	0.419100
C111	C11	0.930600	0.299400	0.902200
C121	C12	0.270000	0.382800	0.031200
C131	C13	0.290300	0.484700	0.912300
C141	C14	0.281000	0.358000	0.929700
C151	C15	0.964720	0.539160	0.386800
C161	C16	0.968270	0.541230	0.321130
C171	C17	0.900770	0.605370	0.288050
C181	C18	0.390310	0.291490	0.201240
C191	C19	0.456430	0.325870	0.170490
C201	C20	0.456510	0.390710	0.107700
C211	C21	0.519950	0.420150	0.078500
C221	C22	0.582400	0.385800	0.110200
C231	C23	0.581760	0.321880	0.172510
C241	C24	0.517510	0.292990	0.204360
C251	C25	0.650680	0.283000	0.205630
C261	C26	0.169220	0.177400	0.276220
C271	C27	0.100810	0.146790	0.310510
C281	C28	0.094880	0.091280	0.379200
C291	C29	0.029850	0.064250	0.415000
C301	C30	0.969930	0.091730	0.382010
C311	C31	0.975790	0.144110	0.313870
C321	C32	0.041890	0.170890	0.277810
C331	C33	0.908180	0.175560	0.281200
C341	C34	0.643420	0.834200	0.214340
C351	C35	0.577510	0.904390	0.180420
C361	C36	0.579980	0.908560	0.114200
C371	C37	0.516840	0.964380	0.213810
C381	C38	0.876100	0.770500	0.039100
C391	C39	0.706500	0.116700	0.469900
C401	C40	0.927000	0.855200	0.923700
C411	C41	0.927900	0.719500	0.939000
C421	C42	0.595000	0.071400	0.560800
C431	C43	0.520880	0.973920	0.080900
C441	C44	0.700600	0.069400	0.597800
C451	C45	0.617200	0.730000	0.468800
C461	C46	0.515300	0.709700	0.587700
C471	C47	0.642000	0.719000	0.570300
C481	C48	0.460840	0.035280	0.113200
C491	C49	0.458770	0.031730	0.178870
C501	C50	0.394630	0.099230	0.211950
C511	C51	0.708510	0.609690	0.298760
C521	C52	0.674130	0.543570	0.329510
C531	C53	0.609290	0.543490	0.392300
C541	C54	0.579850	0.480050	0.421500
C551	C55	0.614200	0.417600	0.389800
C561	C56	0.678120	0.418240	0.327490
C571	C57	0.707010	0.482490	0.295640
C581	C58	0.717000	0.349320	0.294370
C591	C59	0.822600	0.830780	0.223780
C601	C60	0.853210	0.899190	0.189490
C611	C61	0.908720	0.905120	0.120800
C621	C62	0.935750	0.970150	0.085000
C631	C63	0.908270	0.030070	0.117990
C641	C64	0.855890	0.024210	0.186130
C651	C65	0.829110	0.958110	0.222190
C661	C66	0.824440	0.091820	0.218800
C671	C67	0.834200	0.643420	0.714340
C681	C68	0.904390	0.577510	0.680420
C691	C69	0.908560	0.579980	0.614200
C701	C70	0.964380	0.516840	0.713810
C711	C71	0.770500	0.876100	0.539100
C721	C72	0.116700	0.706500	0.969900
C731	C73	0.855200	0.927000	0.423700
C741	C74	0.719500	0.927900	0.439000
C751	C75	0.071400	0.595000	0.060800
C761	C76	0.973920	0.520880	0.580900
C771	C77	0.069400	0.700600	0.097800
C781	C78	0.730000	0.617200	0.968800
C791	C79	0.709700	0.515300	0.087700
C801	C80	0.719000	0.642000	0.070300
C811	C81	0.035280	0.460840	0.613200
C821	C82	0.031730	0.458770	0.678870
C831	C83	0.099230	0.394630	0.711950
C841	C84	0.609690	0.708510	0.798760
C851	C85	0.543570	0.674130	0.829510
C861	C86	0.543490	0.609290	0.892300
C871	C87	0.480050	0.579850	0.921500
C881	C88	0.417600	0.614200	0.889800
C891	C89	0.418240	0.678120	0.827490
C901	C90	0.482490	0.707010	0.795640
C911	C91	0.349320	0.717000	0.794370
C921	C92	0.830780	0.822600	0.723780
C931	C93	0.899190	0.853210	0.689490
C941	C94	0.905120	0.908720	0.620800
C951	C95	0.970150	0.935750	0.585000
C961	C96	0.030070	0.908270	0.617990
C971	C97	0.024210	0.855890	0.686130
C981	C98	0.958110	0.829110	0.722190
C991	C99	0.091820	0.824440	0.718800
C1001	C100	0.356580	0.165800	0.785660
C1011	C101	0.422490	0.095610	0.819580
C1021	C102	0.420020	0.091440	0.885800
C1031	C103	0.483160	0.035620	0.786190
C1041	C104	0.123900	0.229500	0.960900
C1051	C105	0.293500	0.883300	0.530100
C1061	C106	0.073000	0.144800	0.076300
C1071	C107	0.072100	0.280500	0.061000
C1081	C108	0.405000	0.928600	0.439200
C1091	C109	0.479120	0.026080	0.919100
C1101	C110	0.299400	0.930600	0.402200
C1111	C111	0.382800	0.270000	0.531200
C1121	C112	0.484700	0.290300	0.412300
C1131	C113	0.358000	0.281000	0.429700
C1141	C114	0.539160	0.964720	0.886800
C1151	C115	0.541230	0.968270	0.821130
C1161	C116	0.605370	0.900770	0.788050
C1171	C117	0.291490	0.390310	0.701240
C1181	C118	0.325870	0.456430	0.670490
C1191	C119	0.390710	0.456510	0.607700
C1201	C120	0.420150	0.519950	0.578500
C1211	C121	0.385800	0.582400	0.610200
C1221	C122	0.321880	0.581760	0.672510
C1231	C123	0.292990	0.517510	0.704360
C1241	C124	0.283000	0.650680	0.705630
C1251	C125	0.177400	0.169220	0.776220
C1261	C126	0.146790	0.100810	0.810510
C1271	C127	0.091280	0.094880	0.879200
C1281	C128	0.064250	0.029850	0.915000
C1291	C129	0.091730	0.969930	0.882010
C1301	C130	0.144110	0.975790	0.813870
C1311	C131	0.170890	0.041890	0.777810
C1321	C132	0.175560	0.908180	0.781200
N11	N1	0.219420	0.089820	0.530800
N21	N2	0.913220	0.332620	0.960000
N31	N3	0.028410	0.473210	0.486300
N41	N4	0.279600	0.407400	0.960600
N51	N5	0.525970	0.486970	0.014400
N61	N6	0.029910	0.009510	0.484790
N71	N7	0.910180	0.780580	0.969200
N81	N8	0.667380	0.086780	0.540000
N91	N9	0.526790	0.971590	0.013700
N101	N10	0.592600	0.720400	0.539400
N111	N11	0.513030	0.474030	0.485600
N121	N12	0.990490	0.970090	0.015210
N131	N13	0.780580	0.910180	0.469200
N141	N14	0.086780	0.667380	0.040000
N151	N15	0.971590	0.526790	0.513700
N161	N16	0.720400	0.592600	0.039400
N171	N17	0.474030	0.513030	0.985600
N181	N18	0.970090	0.990490	0.515210
N191	N19	0.089820	0.219420	0.030800
N201	N20	0.332620	0.913220	0.460000
N211	N21	0.473210	0.028410	0.986300
N221	N22	0.407400	0.279600	0.460600
N231	N23	0.486970	0.525970	0.514400
N241	N24	0.009510	0.029910	0.984790
O11	O1	0.213840	0.300380	0.322250
O21	O2	0.170080	0.361420	0.224610
O31	O3	0.910830	0.612670	0.224420
O41	O4	0.837510	0.645770	0.327790
O51	O5	0.387690	0.238790	0.262370
O61	O6	0.343750	0.317010	0.163590
O71	O7	0.210940	0.160900	0.315100
O81	O8	0.177860	0.221200	0.211480
O91	O9	0.260190	0.320250	0.072870
O101	O10	0.294150	0.139630	0.416080
O111	O11	0.708290	0.309470	0.170700
O121	O12	0.646360	0.227260	0.264080
O131	O13	0.919750	0.216690	0.216210
O141	O14	0.844670	0.159430	0.321340
O151	O15	0.869510	0.319230	0.079100
O161	O16	0.699620	0.786160	0.177750
O171	O17	0.638580	0.829920	0.275390
O181	O18	0.387330	0.089170	0.275580
O191	O19	0.354230	0.162490	0.172210
O201	O20	0.761210	0.612310	0.237630
O211	O21	0.682990	0.656250	0.336410
O221	O22	0.839100	0.789060	0.184900
O231	O23	0.778800	0.822140	0.288520
O241	O24	0.679750	0.739810	0.427130
O251	O25	0.860370	0.705850	0.083920
O261	O26	0.690530	0.291710	0.329300
O271	O27	0.772740	0.353640	0.235920
O281	O28	0.783310	0.080250	0.283790
O291	O29	0.840570	0.155330	0.178660
O301	O30	0.680770	0.130490	0.420900
O311	O31	0.786160	0.699620	0.677750
O321	O32	0.829920	0.638580	0.775390
O331	O33	0.089170	0.387330	0.775580
O341	O34	0.162490	0.354230	0.672210
O351	O35	0.612310	0.761210	0.737630
O361	O36	0.656250	0.682990	0.836410
O371	O37	0.789060	0.839100	0.684900
O381	O38	0.822140	0.778800	0.788520
O391	O39	0.739810	0.679750	0.927130
O401	O40	0.705850	0.860370	0.583920
O411	O41	0.291710	0.690530	0.829300
O421	O42	0.353640	0.772740	0.735920
O431	O43	0.080250	0.783310	0.783790
O441	O44	0.155330	0.840570	0.678660
O451	O45	0.130490	0.680770	0.920900
O461	O46	0.300380	0.213840	0.822250
O471	O47	0.361420	0.170080	0.724610
O481	O48	0.612670	0.910830	0.724420
O491	O49	0.645770	0.837510	0.827790
O501	O50	0.238790	0.387690	0.762370
O511	O51	0.317010	0.343750	0.663590
O521	O52	0.160900	0.210940	0.815100
O531	O53	0.221200	0.177860	0.711480
O541	O54	0.320250	0.260190	0.572870
O551	O55	0.139630	0.294150	0.916080
O561	O56	0.309470	0.708290	0.670700
O571	O57	0.227260	0.646360	0.764080
O581	O58	0.216690	0.919750	0.716210
O591	O59	0.159430	0.844670	0.821340
O601	O60	0.319230	0.869510	0.579100
