data_HOJLUP_freeONLY_PM
_symmetry_space_group_name_H-M	'P1'
_cell_length_a	21.336000
_cell_length_b	23.766000
_cell_length_c	15.808000
_cell_angle_alpha	90.000000
_cell_angle_beta	101.568000
_cell_angle_gamma	90.000000
_symmetry_Int_Tables_number 1

loop_
_symmetry_equiv_pos_as_xyz
'x,y,z'

loop_
_atom_site_label
_atom_site_type_symbol
_atom_site_fract_x
_atom_site_fract_y
_atom_site_fract_z
Zn11	Zn1	0.950060	0.989670	0.265800
Zn21	Zn2	0.029130	0.009730	0.131470
O11	O1	0.008500	0.039900	0.347400
O21	O2	0.063500	0.054700	0.242800
O31	O3	0.408800	0.441300	0.704100
O41	O4	0.463900	0.427200	0.596900
O51	O5	0.007200	0.922600	0.292500
O61	O6	0.066000	0.936000	0.192000
O71	O7	0.415400	0.550000	0.648300
O81	O8	0.469900	0.537300	0.542300
N11	N1	0.229300	0.210600	0.526500
N21	N2	0.267400	0.229400	0.502400
N31	N3	0.207000	0.724700	0.399000
N41	N4	0.264400	0.718700	0.366200
C11	C1	0.052000	0.060300	0.317800
C21	C2	0.095000	0.102900	0.376700
C31	C3	0.092400	0.109600	0.463300
H11	H1	0.062400	0.088800	0.487500
C41	C4	0.133800	0.147000	0.514400
H21	H2	0.132000	0.151600	0.573500
C51	C5	0.177700	0.177500	0.478900
C61	C6	0.180300	0.170700	0.392300
H31	H3	0.210300	0.191600	0.368100
C71	C7	0.138900	0.133400	0.341200
H41	H4	0.140700	0.128800	0.282100
C81	C8	0.305300	0.272300	0.544100
C91	C9	0.284800	0.311300	0.598200
H51	H5	0.244300	0.306900	0.613600
C101	C10	0.323600	0.356700	0.629900
H61	H6	0.309600	0.383300	0.666900
C111	C11	0.382900	0.363100	0.607400
C121	C12	0.403400	0.324100	0.553200
H71	H7	0.443900	0.328500	0.537800
C131	C13	0.364600	0.278800	0.521600
H81	H8	0.378600	0.252100	0.484500
C141	C14	0.420600	0.413100	0.646200
C151	C15	0.050000	0.912200	0.261400
C161	C16	0.093500	0.861100	0.284700
C171	C17	0.075800	0.826600	0.347000
H91	H9	0.037400	0.833900	0.366800
C181	C18	0.114400	0.781500	0.380400
H101	H10	0.102300	0.757900	0.422900
C191	C19	0.170600	0.770800	0.351400
C201	C20	0.188200	0.805200	0.289100
H111	H11	0.226600	0.797900	0.269300
C211	C21	0.149700	0.850400	0.255700
H121	H12	0.161800	0.874000	0.213200
C221	C22	0.293300	0.673000	0.424900
C231	C23	0.287400	0.659500	0.508500
H131	H13	0.254700	0.676500	0.532800
C241	C24	0.329300	0.621300	0.556700
H141	H14	0.325200	0.612100	0.613800
C251	C25	0.377100	0.596400	0.521200
C261	C26	0.383000	0.609800	0.437600
H151	H15	0.415600	0.592900	0.413300
C271	C27	0.341100	0.648100	0.389400
H161	H16	0.345100	0.657300	0.332300
C281	C28	0.425000	0.560400	0.573700
N51	N5	0.872400	0.969800	0.317400
C291	C29	0.815500	0.968300	0.256700
H171	H17	0.816000	0.972500	0.197100
C301	C30	0.757700	0.960800	0.283200
H181	H18	0.718800	0.959800	0.241700
C311	C31	0.757000	0.954700	0.370400
C321	C32	0.813900	0.956200	0.431200
H191	H19	0.813400	0.952000	0.490800
C331	C33	0.871700	0.963700	0.404600
H201	H20	0.910600	0.964600	0.446200
C341	C34	0.691000	0.955400	0.395600
C351	C35	0.655100	0.906200	0.387000
C361	C36	0.593400	0.906600	0.403100
H211	H21	0.568800	0.873000	0.397300
C371	C37	0.567600	0.956200	0.427800
C381	C38	0.603600	0.005400	0.436000
H221	H22	0.585900	0.039400	0.453300
C391	C39	0.665200	0.005000	0.420300
C401	C40	0.683900	0.851600	0.365000
H231	H23	0.652500	0.821300	0.363500
H241	H24	0.721900	0.843200	0.409700
H251	H25	0.696100	0.854900	0.309000
C411	C41	0.696900	0.061700	0.420000
H261	H26	0.669100	0.090800	0.436300
H271	H27	0.704200	0.069600	0.361700
H281	H28	0.737900	0.061500	0.461000
N61	N6	0.491000	0.957900	0.453000
H291	H29	0.470800	0.988300	0.464800
C421	C42	0.470800	0.910700	0.452800
H301	H30	0.496200	0.887800	0.499800
H311	H31	0.470400	0.891900	0.396700
C431	C43	0.403400	0.920900	0.467200
C441	C44	0.373900	0.973100	0.451300
H321	H32	0.395300	0.003000	0.429200
C451	C45	0.313000	0.981400	0.467900
C461	C46	0.281600	0.937600	0.500400
C471	C47	0.311200	0.885500	0.516300
C481	C48	0.372000	0.877100	0.499700
H331	H33	0.392200	0.841500	0.510500
C491	C49	0.276000	0.034300	0.436000
H341	H34	0.304600	0.060200	0.412700
H351	H35	0.261200	0.052400	0.483400
H361	H36	0.239800	0.024600	0.389900
C501	C50	0.277900	0.840500	0.554000
H371	H37	0.235800	0.854000	0.560500
H381	H38	0.303200	0.830000	0.610500
H391	H39	0.272700	0.807700	0.515700
C511	C51	0.221400	0.951600	0.529400
C521	C52	0.163200	0.946900	0.471700
H401	H40	0.162100	0.935200	0.414000
C531	C53	0.106600	0.959600	0.498500
H411	H41	0.066800	0.956400	0.459100
N71	N7	0.108200	0.976800	0.582900
C541	C54	0.166500	0.981400	0.640600
H421	H42	0.167600	0.993200	0.698300
C551	C55	0.223100	0.968800	0.613800
H431	H43	0.262800	0.972000	0.653200
Zn31	Zn3	0.450060	0.489670	0.265800
Zn41	Zn4	0.529130	0.509730	0.131470
O91	O9	0.508500	0.539900	0.347400
O101	O10	0.563500	0.554700	0.242800
O111	O11	0.908800	0.941300	0.704100
O121	O12	0.963900	0.927200	0.596900
O131	O13	0.507200	0.422600	0.292500
O141	O14	0.566000	0.436000	0.192000
O151	O15	0.915400	0.050000	0.648300
O161	O16	0.969900	0.037300	0.542300
N81	N8	0.729300	0.710600	0.526500
N91	N9	0.767400	0.729400	0.502400
N101	N10	0.707000	0.224700	0.399000
N111	N11	0.764400	0.218700	0.366200
C561	C56	0.552000	0.560300	0.317800
C571	C57	0.595000	0.602900	0.376700
C581	C58	0.592400	0.609600	0.463300
H441	H44	0.562400	0.588800	0.487500
C591	C59	0.633800	0.647000	0.514400
H451	H45	0.632000	0.651600	0.573500
C601	C60	0.677700	0.677500	0.478900
C611	C61	0.680300	0.670700	0.392300
H461	H46	0.710300	0.691600	0.368100
C621	C62	0.638900	0.633400	0.341200
H471	H47	0.640700	0.628800	0.282100
C631	C63	0.805300	0.772300	0.544100
C641	C64	0.784800	0.811300	0.598200
H481	H48	0.744300	0.806900	0.613600
C651	C65	0.823600	0.856700	0.629900
H491	H49	0.809600	0.883300	0.666900
C661	C66	0.882900	0.863100	0.607400
C671	C67	0.903400	0.824100	0.553200
H501	H50	0.943900	0.828500	0.537800
C681	C68	0.864600	0.778800	0.521600
H511	H51	0.878600	0.752100	0.484500
C691	C69	0.920600	0.913100	0.646200
C701	C70	0.550000	0.412200	0.261400
C711	C71	0.593500	0.361100	0.284700
C721	C72	0.575800	0.326600	0.347000
H521	H52	0.537400	0.333900	0.366800
C731	C73	0.614400	0.281500	0.380400
H531	H53	0.602300	0.257900	0.422900
C741	C74	0.670600	0.270800	0.351400
C751	C75	0.688200	0.305200	0.289100
H541	H54	0.726600	0.297900	0.269300
C761	C76	0.649700	0.350400	0.255700
H551	H55	0.661800	0.374000	0.213200
C771	C77	0.793300	0.173000	0.424900
C781	C78	0.787400	0.159500	0.508500
H561	H56	0.754700	0.176500	0.532800
C791	C79	0.829300	0.121300	0.556700
H571	H57	0.825200	0.112100	0.613800
C801	C80	0.877100	0.096400	0.521200
C811	C81	0.883000	0.109800	0.437600
H581	H58	0.915600	0.092900	0.413300
C821	C82	0.841100	0.148100	0.389400
H591	H59	0.845100	0.157300	0.332300
C831	C83	0.925000	0.060400	0.573700
N121	N12	0.372400	0.469800	0.317400
C841	C84	0.315500	0.468300	0.256700
H601	H60	0.316000	0.472500	0.197100
C851	C85	0.257700	0.460800	0.283200
H611	H61	0.218800	0.459800	0.241700
C861	C86	0.257000	0.454700	0.370400
C871	C87	0.313900	0.456200	0.431200
H621	H62	0.313400	0.452000	0.490800
C881	C88	0.371700	0.463700	0.404600
H631	H63	0.410600	0.464600	0.446200
C891	C89	0.191000	0.455400	0.395600
C901	C90	0.155100	0.406200	0.387000
C911	C91	0.093400	0.406600	0.403100
H641	H64	0.068800	0.373000	0.397300
C921	C92	0.067600	0.456200	0.427800
C931	C93	0.103600	0.505400	0.436000
H651	H65	0.085900	0.539400	0.453300
C941	C94	0.165200	0.505000	0.420300
C951	C95	0.183900	0.351600	0.365000
H661	H66	0.152500	0.321300	0.363500
H671	H67	0.221900	0.343200	0.409700
H681	H68	0.196100	0.354900	0.309000
C961	C96	0.196900	0.561700	0.420000
H691	H69	0.169100	0.590800	0.436300
H701	H70	0.204200	0.569600	0.361700
H711	H71	0.237900	0.561500	0.461000
N131	N13	0.991000	0.457900	0.453000
H721	H72	0.970800	0.488300	0.464800
C971	C97	0.970800	0.410700	0.452800
H731	H73	0.996200	0.387800	0.499800
H741	H74	0.970400	0.391900	0.396700
C981	C98	0.903400	0.420900	0.467200
C991	C99	0.873900	0.473100	0.451300
H751	H75	0.895300	0.503000	0.429200
C1001	C100	0.813000	0.481400	0.467900
C1011	C101	0.781600	0.437600	0.500400
C1021	C102	0.811200	0.385500	0.516300
C1031	C103	0.872000	0.377100	0.499700
H761	H76	0.892200	0.341500	0.510500
C1041	C104	0.776000	0.534300	0.436000
H771	H77	0.804600	0.560200	0.412700
H781	H78	0.761200	0.552400	0.483400
H791	H79	0.739800	0.524600	0.389900
C1051	C105	0.777900	0.340500	0.554000
H801	H80	0.735800	0.354000	0.560500
H811	H81	0.803200	0.330000	0.610500
H821	H82	0.772700	0.307700	0.515700
C1061	C106	0.721400	0.451600	0.529400
C1071	C107	0.663200	0.446900	0.471700
H831	H83	0.662100	0.435200	0.414000
C1081	C108	0.606600	0.459600	0.498500
H841	H84	0.566800	0.456400	0.459100
N141	N14	0.608200	0.476800	0.582900
C1091	C109	0.666500	0.481400	0.640600
H851	H85	0.667600	0.493200	0.698300
C1101	C110	0.723100	0.468800	0.613800
H861	H86	0.762800	0.472000	0.653200
Zn51	Zn5	0.950060	0.010330	0.765800
Zn61	Zn6	0.029130	0.990270	0.631470
O171	O17	0.008500	0.960100	0.847400
O181	O18	0.063500	0.945300	0.742800
O191	O19	0.408800	0.558700	0.204100
O201	O20	0.463900	0.572800	0.096900
O211	O21	0.007200	0.077400	0.792500
O221	O22	0.066000	0.064000	0.692000
O231	O23	0.415400	0.450000	0.148300
O241	O24	0.469900	0.462700	0.042300
N151	N15	0.229300	0.789400	0.026500
N161	N16	0.267400	0.770600	0.002400
N171	N17	0.207000	0.275300	0.899000
N181	N18	0.264400	0.281300	0.866200
C1111	C111	0.052000	0.939700	0.817800
C1121	C112	0.095000	0.897100	0.876700
C1131	C113	0.092400	0.890400	0.963300
H871	H87	0.062400	0.911200	0.987500
C1141	C114	0.133800	0.853000	0.014400
H881	H88	0.132000	0.848400	0.073500
C1151	C115	0.177700	0.822500	0.978900
C1161	C116	0.180300	0.829300	0.892300
H891	H89	0.210300	0.808400	0.868100
C1171	C117	0.138900	0.866600	0.841200
H901	H90	0.140700	0.871200	0.782100
C1181	C118	0.305300	0.727700	0.044100
C1191	C119	0.284800	0.688700	0.098200
H911	H91	0.244300	0.693100	0.113600
C1201	C120	0.323600	0.643300	0.129900
H921	H92	0.309600	0.616700	0.166900
C1211	C121	0.382900	0.636900	0.107400
C1221	C122	0.403400	0.675900	0.053200
H931	H93	0.443900	0.671500	0.037800
C1231	C123	0.364600	0.721200	0.021600
H941	H94	0.378600	0.747900	0.984500
C1241	C124	0.420600	0.586900	0.146200
C1251	C125	0.050000	0.087800	0.761400
C1261	C126	0.093500	0.138900	0.784700
C1271	C127	0.075800	0.173400	0.847000
H951	H95	0.037400	0.166100	0.866800
C1281	C128	0.114400	0.218500	0.880400
H961	H96	0.102300	0.242100	0.922900
C1291	C129	0.170600	0.229200	0.851400
C1301	C130	0.188200	0.194800	0.789100
H971	H97	0.226600	0.202100	0.769300
C1311	C131	0.149700	0.149600	0.755700
H981	H98	0.161800	0.126000	0.713200
C1321	C132	0.293300	0.327000	0.924900
C1331	C133	0.287400	0.340500	0.008500
H991	H99	0.254700	0.323500	0.032800
C1341	C134	0.329300	0.378700	0.056700
H1001	H100	0.325200	0.387900	0.113800
C1351	C135	0.377100	0.403600	0.021200
C1361	C136	0.383000	0.390200	0.937600
H1011	H101	0.415600	0.407100	0.913300
C1371	C137	0.341100	0.351900	0.889400
H1021	H102	0.345100	0.342700	0.832300
C1381	C138	0.425000	0.439600	0.073700
N191	N19	0.872400	0.030200	0.817400
C1391	C139	0.815500	0.031700	0.756700
H1031	H103	0.816000	0.027500	0.697100
C1401	C140	0.757700	0.039200	0.783200
H1041	H104	0.718800	0.040200	0.741700
C1411	C141	0.757000	0.045300	0.870400
C1421	C142	0.813900	0.043800	0.931200
H1051	H105	0.813400	0.048000	0.990800
C1431	C143	0.871700	0.036300	0.904600
H1061	H106	0.910600	0.035400	0.946200
C1441	C144	0.691000	0.044600	0.895600
C1451	C145	0.655100	0.093800	0.887000
C1461	C146	0.593400	0.093400	0.903100
H1071	H107	0.568800	0.127000	0.897300
C1471	C147	0.567600	0.043800	0.927800
C1481	C148	0.603600	0.994600	0.936000
H1081	H108	0.585900	0.960600	0.953300
C1491	C149	0.665200	0.995000	0.920300
C1501	C150	0.683900	0.148400	0.865000
H1091	H109	0.652500	0.178700	0.863500
H1101	H110	0.721900	0.156800	0.909700
H1111	H111	0.696100	0.145100	0.809000
C1511	C151	0.696900	0.938300	0.920000
H1121	H112	0.669100	0.909200	0.936300
H1131	H113	0.704200	0.930400	0.861700
H1141	H114	0.737900	0.938500	0.961000
N201	N20	0.491000	0.042100	0.953000
H1151	H115	0.470800	0.011700	0.964800
C1521	C152	0.470800	0.089300	0.952800
H1161	H116	0.496200	0.112200	0.999800
H1171	H117	0.470400	0.108100	0.896700
C1531	C153	0.403400	0.079100	0.967200
C1541	C154	0.373900	0.026900	0.951300
H1181	H118	0.395300	0.997000	0.929200
C1551	C155	0.313000	0.018600	0.967900
C1561	C156	0.281600	0.062400	0.000400
C1571	C157	0.311200	0.114500	0.016300
C1581	C158	0.372000	0.122900	0.999700
H1191	H119	0.392200	0.158500	0.010500
C1591	C159	0.276000	0.965700	0.936000
H1201	H120	0.304600	0.939800	0.912700
H1211	H121	0.261200	0.947600	0.983400
H1221	H122	0.239800	0.975400	0.889900
C1601	C160	0.277900	0.159500	0.054000
H1231	H123	0.235800	0.146000	0.060500
H1241	H124	0.303200	0.170000	0.110500
H1251	H125	0.272700	0.192300	0.015700
C1611	C161	0.221400	0.048400	0.029400
C1621	C162	0.163200	0.053100	0.971700
H1261	H126	0.162100	0.064800	0.914000
C1631	C163	0.106600	0.040400	0.998500
H1271	H127	0.066800	0.043600	0.959100
N211	N21	0.108200	0.023200	0.082900
C1641	C164	0.166500	0.018600	0.140600
H1281	H128	0.167600	0.006800	0.198300
C1651	C165	0.223100	0.031200	0.113800
H1291	H129	0.262800	0.028000	0.153200
Zn71	Zn7	0.450060	0.510330	0.765800
Zn81	Zn8	0.529130	0.490270	0.631470
O251	O25	0.508500	0.460100	0.847400
O261	O26	0.563500	0.445300	0.742800
O271	O27	0.908800	0.058700	0.204100
O281	O28	0.963900	0.072800	0.096900
O291	O29	0.507200	0.577400	0.792500
O301	O30	0.566000	0.564000	0.692000
O311	O31	0.915400	0.950000	0.148300
O321	O32	0.969900	0.962700	0.042300
N221	N22	0.729300	0.289400	0.026500
N231	N23	0.767400	0.270600	0.002400
N241	N24	0.707000	0.775300	0.899000
N251	N25	0.764400	0.781300	0.866200
C1661	C166	0.552000	0.439700	0.817800
C1671	C167	0.595000	0.397100	0.876700
C1681	C168	0.592400	0.390400	0.963300
H1301	H130	0.562400	0.411200	0.987500
C1691	C169	0.633800	0.353000	0.014400
H1311	H131	0.632000	0.348400	0.073500
C1701	C170	0.677700	0.322500	0.978900
C1711	C171	0.680300	0.329300	0.892300
H1321	H132	0.710300	0.308400	0.868100
C1721	C172	0.638900	0.366600	0.841200
H1331	H133	0.640700	0.371200	0.782100
C1731	C173	0.805300	0.227700	0.044100
C1741	C174	0.784800	0.188700	0.098200
H1341	H134	0.744300	0.193100	0.113600
C1751	C175	0.823600	0.143300	0.129900
H1351	H135	0.809600	0.116700	0.166900
C1761	C176	0.882900	0.136900	0.107400
C1771	C177	0.903400	0.175900	0.053200
H1361	H136	0.943900	0.171500	0.037800
C1781	C178	0.864600	0.221200	0.021600
H1371	H137	0.878600	0.247900	0.984500
C1791	C179	0.920600	0.086900	0.146200
C1801	C180	0.550000	0.587800	0.761400
C1811	C181	0.593500	0.638900	0.784700
C1821	C182	0.575800	0.673400	0.847000
H1381	H138	0.537400	0.666100	0.866800
C1831	C183	0.614400	0.718500	0.880400
H1391	H139	0.602300	0.742100	0.922900
C1841	C184	0.670600	0.729200	0.851400
C1851	C185	0.688200	0.694800	0.789100
H1401	H140	0.726600	0.702100	0.769300
C1861	C186	0.649700	0.649600	0.755700
H1411	H141	0.661800	0.626000	0.713200
C1871	C187	0.793300	0.827000	0.924900
C1881	C188	0.787400	0.840500	0.008500
H1421	H142	0.754700	0.823500	0.032800
C1891	C189	0.829300	0.878700	0.056700
H1431	H143	0.825200	0.887900	0.113800
C1901	C190	0.877100	0.903600	0.021200
C1911	C191	0.883000	0.890200	0.937600
H1441	H144	0.915600	0.907100	0.913300
C1921	C192	0.841100	0.851900	0.889400
H1451	H145	0.845100	0.842700	0.832300
C1931	C193	0.925000	0.939600	0.073700
N261	N26	0.372400	0.530200	0.817400
C1941	C194	0.315500	0.531700	0.756700
H1461	H146	0.316000	0.527500	0.697100
C1951	C195	0.257700	0.539200	0.783200
H1471	H147	0.218800	0.540200	0.741700
C1961	C196	0.257000	0.545300	0.870400
C1971	C197	0.313900	0.543800	0.931200
H1481	H148	0.313400	0.548000	0.990800
C1981	C198	0.371700	0.536300	0.904600
H1491	H149	0.410600	0.535400	0.946200
C1991	C199	0.191000	0.544600	0.895600
C2001	C200	0.155100	0.593800	0.887000
C2011	C201	0.093400	0.593400	0.903100
H1501	H150	0.068800	0.627000	0.897300
C2021	C202	0.067600	0.543800	0.927800
C2031	C203	0.103600	0.494600	0.936000
H1511	H151	0.085900	0.460600	0.953300
C2041	C204	0.165200	0.495000	0.920300
C2051	C205	0.183900	0.648400	0.865000
H1521	H152	0.152500	0.678700	0.863500
H1531	H153	0.221900	0.656800	0.909700
H1541	H154	0.196100	0.645100	0.809000
C2061	C206	0.196900	0.438300	0.920000
H1551	H155	0.169100	0.409200	0.936300
H1561	H156	0.204200	0.430400	0.861700
H1571	H157	0.237900	0.438500	0.961000
N271	N27	0.991000	0.542100	0.953000
H1581	H158	0.970800	0.511700	0.964800
C2071	C207	0.970800	0.589300	0.952800
H1591	H159	0.996200	0.612200	0.999800
H1601	H160	0.970400	0.608100	0.896700
C2081	C208	0.903400	0.579100	0.967200
C2091	C209	0.873900	0.526900	0.951300
H1611	H161	0.895300	0.497000	0.929200
C2101	C210	0.813000	0.518600	0.967900
C2111	C211	0.781600	0.562400	0.000400
C2121	C212	0.811200	0.614500	0.016300
C2131	C213	0.872000	0.622900	0.999700
H1621	H162	0.892200	0.658500	0.010500
C2141	C214	0.776000	0.465700	0.936000
H1631	H163	0.804600	0.439800	0.912700
H1641	H164	0.761200	0.447600	0.983400
H1651	H165	0.739800	0.475400	0.889900
C2151	C215	0.777900	0.659500	0.054000
H1661	H166	0.735800	0.646000	0.060500
H1671	H167	0.803200	0.670000	0.110500
H1681	H168	0.772700	0.692300	0.015700
C2161	C216	0.721400	0.548400	0.029400
C2171	C217	0.663200	0.553100	0.971700
H1691	H169	0.662100	0.564800	0.914000
C2181	C218	0.606600	0.540400	0.998500
H1701	H170	0.566800	0.543600	0.959100
N281	N28	0.608200	0.523200	0.082900
C2191	C219	0.666500	0.518600	0.140600
H1711	H171	0.667600	0.506800	0.198300
C2201	C220	0.723100	0.531200	0.113800
H1721	H172	0.762800	0.528000	0.153200
