data_HOJLID_freeONLY_PM
_symmetry_space_group_name_H-M	'P1'
_cell_length_a	15.182000
_cell_length_b	15.182000
_cell_length_c	48.420000
_cell_angle_alpha	94.333100
_cell_angle_beta	94.333100
_cell_angle_gamma	98.253000
_symmetry_Int_Tables_number 1

loop_
_symmetry_equiv_pos_as_xyz
'x,y,z'

loop_
_atom_site_label
_atom_site_type_symbol
_atom_site_fract_x
_atom_site_fract_y
_atom_site_fract_z
Zn11	Zn1	0.625050	0.854090	0.383090
Zn21	Zn2	0.751840	0.719340	0.823230
Zn31	Zn3	0.768390	0.735170	0.883790
Zn41	Zn4	0.608030	0.837510	0.322670
H11	H1	0.828800	0.720000	0.228300
H21	H2	0.732300	0.613100	0.666700
H31	H3	0.713700	0.978700	0.432600
H41	H4	0.575600	0.675600	0.731100
H51	H5	0.845600	0.807200	0.778100
H61	H6	0.617800	0.820600	0.998600
H71	H7	0.550900	0.755500	0.476300
H81	H8	0.583100	0.718900	0.134400
H91	H9	0.817100	0.646500	0.069400
H101	H10	0.167300	0.834100	0.310200
H111	H11	0.738300	0.172100	0.893300
H121	H12	0.696300	0.611900	0.696200
H131	H13	0.736600	0.271400	0.811700
H141	H14	0.722500	0.984700	0.480800
H151	H15	0.623900	0.948300	0.665400
H161	H16	0.630900	0.580500	0.669600
H171	H17	0.483100	0.699500	0.894300
H181	H18	0.028600	0.695400	0.812500
H191	H19	0.799700	0.313500	0.894200
H201	H20	0.772900	0.804900	0.562800
H211	H21	0.547100	0.979500	0.498900
H221	H22	0.717200	0.814600	0.105300
H231	H23	0.603600	0.394000	0.310800
H241	H24	0.194500	0.869300	0.393600
H251	H25	0.552600	0.809200	0.607700
H261	H26	0.491200	0.719800	0.193100
H271	H27	0.640300	0.767500	0.606500
H281	H28	0.681000	0.624000	0.973500
H291	H29	0.609300	0.648300	0.776900
H301	H30	0.702100	0.891100	0.995900
H311	H31	0.854900	0.852300	0.982300
H321	H32	0.841300	0.724100	0.160900
H331	H33	0.480400	0.751000	0.163100
H341	H34	0.855900	0.567300	0.027000
H351	H35	0.655000	0.924400	0.609700
H361	H36	0.639500	0.699500	0.633500
H371	H37	0.345300	0.858700	0.393400
H381	H38	0.759500	0.755700	0.494300
H391	H39	0.686200	0.912800	0.227700
H401	H40	0.549900	0.917100	0.568000
H411	H41	0.726300	0.421900	0.809800
H421	H42	0.642400	0.903800	0.020500
H431	H43	0.823700	0.700300	0.120000
H441	H44	0.656700	0.942500	0.273500
H451	H45	0.785000	0.572200	0.002200
H461	H46	0.590200	0.679400	0.280100
H471	H47	0.895100	0.756900	0.207200
H481	H48	0.634400	0.420200	0.394300
H491	H49	0.597800	0.913600	0.728300
H501	H50	0.811800	0.834400	0.732300
H511	H51	0.827000	0.769800	0.521000
H521	H52	0.684500	0.619900	0.925600
H531	H53	0.625200	0.137800	0.393500
H541	H54	0.472600	0.955000	0.518900
H551	H55	0.734700	0.638100	0.107600
H561	H56	0.858400	0.848200	0.934500
H571	H57	0.542100	0.749500	0.428100
H581	H58	0.517500	0.820700	0.188300
H591	H59	0.555000	0.028000	0.528900
H601	H60	0.700000	0.949800	0.728900
H611	H61	0.318800	0.743000	0.813100
H621	H62	0.627000	0.117000	0.310300
H631	H63	0.062000	0.866400	0.396000
H641	H64	0.318200	0.823400	0.309900
H651	H65	0.628700	0.572100	0.394100
H661	H66	0.687400	0.858000	0.063200
H671	H67	0.331000	0.704000	0.894300
H681	H68	0.630800	0.988600	0.709300
H691	H69	0.738600	0.019600	0.894400
H701	H70	0.471000	0.738400	0.813100
H711	H71	0.885100	0.859900	0.313200
H721	H72	0.180600	0.690600	0.812800
H731	H73	0.880200	0.628800	0.003300
H741	H74	0.843800	0.822200	0.224100
H751	H75	0.621200	0.290000	0.393200
H761	H76	0.805700	0.004500	0.815700
H771	H77	0.209900	0.755300	0.895300
H781	H78	0.037600	0.858600	0.312600
H791	H79	0.789500	0.463900	0.892300
H801	H80	0.623100	0.269100	0.310000
H811	H81	0.057700	0.760100	0.895100
H821	H82	0.805400	0.156800	0.814500
H831	H83	0.823300	0.846700	0.501300
H841	H84	0.619700	0.649700	0.234300
H851	H85	0.909500	0.867900	0.396600
H861	H86	0.597900	0.545900	0.310500
C11	C1	0.359100	0.710900	0.878050
C21	C2	0.625900	0.151700	0.326940
C31	C3	0.822880	0.803280	0.942280
C41	C4	0.690300	0.757700	0.727190
C51	C5	0.011900	0.860500	0.329400
C61	C6	0.627200	0.708400	0.242130
C71	C7	0.751000	0.753200	0.071020
C81	C8	0.643100	0.741100	0.648830
C91	C9	0.535500	0.972500	0.517800
C101	C10	0.840000	0.763200	0.215000
C111	C11	0.800400	0.681800	0.030080
C121	C12	0.676500	0.755500	0.197620
C131	C13	0.623400	0.242800	0.326750
C141	C14	0.609400	0.726200	0.269580
C151	C15	0.589600	0.720600	0.854400
C161	C16	0.741060	0.400140	0.826680
C171	C17	0.783900	0.858100	0.357130
C181	C18	0.751900	0.138500	0.877710
C191	C19	0.792200	0.038000	0.831220
C201	C20	0.666000	0.860800	0.008700
C211	C21	0.771820	0.179580	0.853790
C221	C22	0.715400	0.718400	0.143140
C231	C23	0.649200	0.869800	0.512880
C241	C24	0.765100	0.742500	0.013980
C251	C25	0.609000	0.675400	0.352840
C261	C26	0.592400	0.896200	0.557400
C271	C27	0.578200	0.796600	0.438660
C281	C28	0.637600	0.870800	0.483300
C291	C29	0.628400	0.726200	0.148850
C301	C30	0.718680	0.666480	0.936970
C311	C31	0.628400	0.828000	0.645090
C321	C32	0.783100	0.729300	0.164670
C331	C33	0.173500	0.743300	0.878720
C341	C34	0.759600	0.697000	0.116290
C351	C35	0.655900	0.778300	0.226440
C361	C36	0.653900	0.865900	0.694510
C371	C37	0.492110	0.718490	0.853700
C381	C38	0.785020	0.335180	0.877280
C391	C39	0.445100	0.838900	0.351530
C401	C40	0.516300	0.760500	0.180550
C411	C41	0.028040	0.728160	0.853790
C421	C42	0.605300	0.520700	0.327330
C431	C43	0.772260	0.996940	0.855150
C441	C44	0.612800	0.574000	0.352270
C451	C45	0.716540	0.668940	0.965660
C461	C46	0.351800	0.734200	0.829350
C471	C47	0.450200	0.708200	0.878050
C481	C48	0.616400	0.820600	0.612900
C491	C49	0.747200	0.310000	0.827850
C501	C50	0.756890	0.457770	0.850820
C511	C51	0.770700	0.899900	0.856280
C521	C52	0.793400	0.687200	0.058600
C531	C53	0.791410	0.780810	0.768720
C541	C54	0.752000	0.047200	0.878400
C551	C55	0.026500	0.865100	0.379360
C561	C56	0.662600	0.860200	0.570100
C571	C57	0.627100	0.445500	0.377520
C581	C58	0.203000	0.839000	0.326850
C591	C59	0.293400	0.832600	0.326710
C601	C60	0.792000	0.129400	0.830540
C611	C61	0.629700	0.701900	0.740550
C621	C62	0.633700	0.890300	0.667930
C631	C63	0.082400	0.746200	0.878590
C641	C64	0.621800	0.294600	0.351570
C651	C65	0.686400	0.937600	0.470220
C661	C66	0.833400	0.605600	0.014200
C671	C67	0.667000	0.866000	0.238200
C681	C68	0.763600	0.747800	0.191910
C691	C69	0.663200	0.716800	0.675410
C701	C70	0.219300	0.860100	0.376850
C711	C71	0.682500	0.621900	0.677100
C721	C72	0.649850	0.685650	0.768000
C731	C73	0.715700	0.813900	0.054920
C741	C74	0.165900	0.852700	0.351920
C751	C75	0.210330	0.722470	0.854070
C761	C76	0.778860	0.425280	0.876120
C771	C77	0.767600	0.738600	0.982660
C781	C78	0.771300	0.797100	0.741270
C791	C79	0.882200	0.864000	0.354920
C801	C80	0.788500	0.798300	0.509000
C811	C81	0.064900	0.862300	0.354200
C821	C82	0.622300	0.255300	0.376580
C831	C83	0.583500	0.800300	0.467510
C841	C84	0.751200	0.560400	0.850960
C851	C85	0.585700	0.900900	0.528800
C861	C86	0.442900	0.731500	0.829350
C871	C87	0.624800	0.164200	0.376770
C881	C88	0.722700	0.808500	0.026400
C891	C89	0.309850	0.723950	0.853700
C901	C90	0.920600	0.861200	0.329750
C911	C91	0.629600	0.016400	0.352610
C921	C92	0.619600	0.392000	0.352570
C931	C93	0.649300	0.883900	0.265650
C941	C94	0.608700	0.429700	0.327480
C951	C95	0.608900	0.744700	0.176080
C961	C96	0.346800	0.840000	0.351650
C971	C97	0.930400	0.731800	0.851880
C981	C98	0.626500	0.112300	0.351950
C991	C99	0.309700	0.853700	0.376720
C1001	C100	0.644800	0.935800	0.717300
C1011	C101	0.156000	0.704600	0.829270
C1021	C102	0.681100	0.933900	0.441360
C1031	C103	0.935200	0.866000	0.379720
C1041	C104	0.719400	0.833800	0.525600
C1051	C105	0.769130	0.277470	0.853150
C1061	C106	0.668500	0.779100	0.698250
C1071	C107	0.726000	0.829000	0.554200
C1081	C108	0.064900	0.707300	0.829130
C1091	C109	0.623700	0.536300	0.377370
C1101	C110	0.820740	0.805740	0.970970
N11	N1	0.620500	0.813900	0.281340
N21	N2	0.627100	0.863500	0.425580
N31	N3	0.771830	0.733670	0.925270
N41	N4	0.737200	0.767800	0.098760
N51	N5	0.642900	0.871500	0.601400
N61	N6	0.730760	0.725040	0.782090
O11	O1	0.734300	0.586900	0.827710
O21	O2	0.777100	0.853300	0.833720
O31	O3	0.609200	0.968600	0.329320
O41	O4	0.764000	0.600400	0.874000
O51	O5	0.599400	0.706400	0.329010
O61	O6	0.740900	0.852100	0.334090
O71	O7	0.757700	0.861900	0.379240
O81	O8	0.624940	0.721460	0.831270
O91	O9	0.608200	0.720200	0.375980
O101	O10	0.475600	0.827000	0.327120
O111	O11	0.632000	0.717400	0.877700
O121	O12	0.636200	0.982400	0.374070
O131	O13	0.885300	0.721300	0.829980
O141	O14	0.899400	0.749400	0.876910
O151	O15	0.764200	0.864000	0.878760
O161	O16	0.492000	0.845600	0.373710
Zn51	Zn5	0.264830	0.231610	0.116210
Zn61	Zn6	0.162490	0.391970	0.677330
Zn71	Zn7	0.145910	0.374950	0.616910
Zn81	Zn8	0.280660	0.248160	0.176770
H871	H87	0.230200	0.173000	0.479000
H881	H88	0.165600	0.188200	0.267700
H891	H89	0.140100	0.114900	0.686800
H901	H90	0.371200	0.119800	0.996700
H911	H91	0.239900	0.942300	0.104900
H921	H92	0.353500	0.182900	0.930600
H931	H93	0.300500	0.516900	0.105700
H941	H94	0.020500	0.452900	0.501100
H951	H95	0.275900	0.158700	0.839100
H961	H96	0.185400	0.282800	0.894700
H971	H97	0.096200	0.357600	0.979500
H981	H98	0.710000	0.378800	0.606800
H991	H99	0.176600	0.681800	0.690100
H1001	H100	0.280200	0.508800	0.806900
H1011	H101	0.011400	0.369200	0.290700
H1021	H102	0.050200	0.300000	0.271100
H1031	H103	0.427800	0.215000	0.997800
H1041	H104	0.361900	0.265300	0.892400
H1051	H105	0.249000	0.519600	0.836900
H1061	H106	0.250500	0.457900	0.571900
H1071	H107	0.165900	0.832700	0.689800
H1081	H108	0.190800	0.447400	0.392300
H1091	H109	0.324400	0.424400	0.268900
H1101	H110	0.257000	0.681200	0.186900
H1111	H111	0.350300	0.380300	0.765700
H1121	H112	0.320600	0.409800	0.719900
H1131	H113	0.728600	0.263400	0.188300
H1141	H114	0.386900	0.267700	0.333300
H1151	H115	0.082900	0.450100	0.432000
H1161	H116	0.686500	0.200300	0.105800
H1171	H117	0.427900	0.371300	0.605900
H1181	H118	0.730900	0.376900	0.690000
H1191	H119	0.141400	0.962400	0.687400
H1201	H120	0.147700	0.145100	0.017700
H1211	H121	0.280000	0.171200	0.771700
H1221	H122	0.087200	0.313800	0.772300
H1231	H123	0.883000	0.373000	0.689700
H1241	H124	0.980400	0.261400	0.105600
H1251	H125	0.843200	0.194600	0.185500
H1261	H126	0.108900	0.297900	0.004100
H1271	H127	0.536100	0.210500	0.107700
H1281	H128	0.179400	0.382200	0.001400
H1291	H129	0.827900	0.261700	0.106700
H1301	H130	0.419500	0.369100	0.330400
H1311	H131	0.232500	0.359700	0.393500
H1321	H132	0.015300	0.277500	0.519200
H1331	H133	0.380100	0.315500	0.074400
H1341	H134	0.281100	0.416900	0.865600
H1351	H135	0.376000	0.319000	0.026500
H1361	H136	0.195100	0.227100	0.437200
H1371	H137	0.130700	0.805500	0.606400
H1381	H138	0.862200	0.374800	0.606500
H1391	H139	0.972000	0.445000	0.471100
H1401	H140	0.141300	0.654700	0.606600
H1411	H141	0.244300	0.240500	0.505700
H1421	H142	0.086400	0.402200	0.271700
H1431	H143	0.192800	0.154400	0.221900
H1441	H144	0.300500	0.360500	0.366500
H1451	H145	0.133600	0.938000	0.604000
H1461	H146	0.179300	0.482500	0.811700
H1471	H147	0.351700	0.390700	0.223100
H1481	H148	0.057500	0.343300	0.726500
H1491	H149	0.261600	0.529000	0.186900
H1501	H150	0.244500	0.449100	0.523700
H1511	H151	0.142000	0.312600	0.936800
H1521	H152	0.299700	0.176300	0.880000
H1531	H153	0.579800	0.365600	0.605700
H1541	H154	0.244700	0.790100	0.104700
H1551	H155	0.454100	0.402100	0.689500
H1561	H156	0.045000	0.527400	0.481100
H1571	H157	0.388100	0.303700	0.303800
H1581	H158	0.177800	0.156200	0.775900
H1591	H159	0.075600	0.345000	0.390300
H1601	H160	0.243100	0.104900	0.792800
H1611	H161	0.051700	0.376100	0.334600
H1621	H162	0.296000	0.669000	0.105700
H1631	H163	0.995500	0.194300	0.184300
H1641	H164	0.606000	0.396400	0.689200
H1651	H165	0.153300	0.176700	0.498700
H1661	H166	0.578100	0.273700	0.190200
H1671	H167	0.309400	0.819400	0.187200
H1681	H168	0.132100	0.090500	0.603400
H1691	H169	0.432700	0.144100	0.973000
H1701	H170	0.304600	0.971400	0.187500
H1711	H171	0.021300	0.286300	0.567400
H1721	H172	0.151800	0.141600	0.065500
C1111	C111	0.599860	0.258940	0.173320
C1121	C112	0.757200	0.376600	0.673250
C1131	C113	0.244500	0.323500	0.802380
C1141	C114	0.134100	0.346100	0.305490
C1151	C115	0.542230	0.243110	0.149180
C1161	C116	0.136000	0.117800	0.645080
C1171	C117	0.283200	0.336800	0.324590
C1181	C118	0.116100	0.350700	0.734350
C1191	C119	0.160000	0.653200	0.648350
C1201	C120	0.705400	0.378200	0.648430
C1211	C121	0.324600	0.391000	0.647160
C1221	C122	0.690000	0.252800	0.172150
C1231	C123	0.664820	0.214980	0.122720
C1241	C124	0.221700	0.344100	0.773560
C1251	C125	0.146300	0.690300	0.623280
C1261	C126	0.103800	0.407600	0.442600
C1271	C127	0.027500	0.464500	0.482200
C1281	C128	0.139500	0.988100	0.670600
C1291	C129	0.273800	0.390600	0.730420
C1301	C130	0.870600	0.208000	0.169460
C1311	C131	0.199700	0.416500	0.532490
C1321	C132	0.479300	0.394700	0.672670
C1331	C133	0.333520	0.281320	0.063030
C1341	C134	0.161100	0.554900	0.648470
C1351	C135	0.962000	0.207800	0.168780
C1361	C136	0.167400	0.706600	0.673290
C1371	C137	0.064200	0.355200	0.282700
C1381	C138	0.186100	0.284300	0.945080
C1391	C139	0.141900	0.216100	0.642870
C1401	C140	0.139200	0.334000	0.991300
C1411	C141	0.554500	0.372900	0.622480
C1421	C142	0.100100	0.229300	0.143720
C1431	C143	0.820420	0.228180	0.146210
C1441	C144	0.835800	0.375200	0.623230
C1451	C145	0.134000	0.064800	0.620280
C1461	C146	0.312800	0.206600	0.941400
C1471	C147	0.109700	0.366300	0.332070
C1481	C148	0.273800	0.371600	0.851150
C1491	C149	0.003060	0.227740	0.144850
C1501	C150	0.303000	0.240400	0.883710
C1511	C151	0.139900	0.780700	0.623150
C1521	C152	0.281510	0.507890	0.146300
C1531	C153	0.137700	0.935100	0.645800
C1541	C154	0.246800	0.249000	0.928980
C1551	C155	0.179400	0.383600	0.387100
C1561	C156	0.202900	0.228700	0.258730
C1571	C157	0.291600	0.372800	0.757870
C1581	C158	0.201700	0.211500	0.491000
C1591	C159	0.983600	0.370400	0.647390
C1601	C160	0.279400	0.410400	0.145600
C1611	C161	0.236800	0.160000	0.785000
C1621	C162	0.394400	0.166600	0.985800
C1631	C163	0.255300	0.391100	0.823920
C1641	C164	0.161000	0.797000	0.673150
C1651	C165	0.318200	0.199600	0.969920
C1661	C166	0.171000	0.274000	0.445800
C1671	C167	0.196720	0.177120	0.057720
C1681	C168	0.426000	0.387200	0.647730
C1691	C169	0.062400	0.313600	0.529780
C1701	C170	0.270700	0.216900	0.835330
C1711	C171	0.220900	0.331500	0.301750
C1721	C172	0.292700	0.935100	0.170870
C1731	C173	0.277530	0.789670	0.145930
C1741	C174	0.219190	0.208590	0.231280
C1751	C175	0.291800	0.549800	0.121950
C1761	C176	0.261400	0.232400	0.017340
C1771	C177	0.134900	0.973500	0.620640
C1781	C178	0.130200	0.350800	0.487120
C1791	C179	0.139800	0.337400	0.429900
C1801	C180	0.242300	0.309700	0.272810
C1811	C181	0.134000	0.333000	0.761800
C1821	C182	0.574720	0.221140	0.123880
C1831	C183	0.952800	0.248000	0.121600
C1841	C184	0.191500	0.277300	0.973600
C1851	C185	0.861500	0.248100	0.122290
C1861	C186	0.129200	0.362400	0.516700
C1871	C187	0.239500	0.483700	0.819450
C1881	C188	0.295400	0.844000	0.170730
C1891	C189	0.099100	0.414300	0.471200
C1901	C190	0.378100	0.317500	0.322900
C1911	C191	0.203400	0.421800	0.561340
C1921	C192	0.147300	0.834100	0.648080
C1931	C193	0.887700	0.373500	0.648050
C1941	C194	0.463700	0.376300	0.622630
C1951	C195	0.252200	0.236400	0.808090
C1961	C196	0.314350	0.350150	0.232000
C1971	C197	0.281600	0.284600	0.856860
C1981	C198	0.253800	0.917600	0.121410
C1991	C199	0.265800	0.648200	0.170650
C2001	C200	0.172000	0.371600	0.354910
C2011	C201	0.331060	0.283460	0.034340
C2021	C202	0.271840	0.971960	0.146210
C2031	C203	0.439600	0.248800	0.149040
C2041	C204	0.268200	0.069600	0.148120
C2051	C205	0.138800	0.079400	0.670250
C2061	C206	0.608000	0.380400	0.647430
C2071	C207	0.258900	0.356900	0.351170
C2081	C208	0.722530	0.230870	0.146850
C2091	C209	0.289100	0.640900	0.121950
C2101	C210	0.256700	0.826500	0.121280
C2111	C211	0.298100	0.370300	0.259450
C2121	C212	0.166200	0.280600	0.474400
C2131	C213	0.268500	0.557100	0.170650
C2141	C214	0.194260	0.179260	0.029030
C2151	C215	0.257500	0.234900	0.986020
C2161	C216	0.570300	0.391300	0.672520
C2171	C217	0.276050	0.690150	0.146300
C2181	C218	0.848300	0.374100	0.673060
C2191	C219	0.066100	0.318900	0.558640
C2201	C220	0.744700	0.377700	0.623420
N71	N7	0.186100	0.379500	0.718660
N81	N8	0.266330	0.228170	0.074730
N91	N9	0.128500	0.357100	0.398600
N101	N10	0.232200	0.262800	0.901240
N111	N11	0.136500	0.372900	0.574420
N121	N12	0.274960	0.269240	0.217910
O171	O17	0.017600	0.363800	0.625930
O181	O18	0.250600	0.100600	0.123090
O191	O19	0.282600	0.368000	0.122300
O201	O20	0.146700	0.222900	0.166280
O211	O21	0.136000	0.235800	0.121240
O221	O22	0.278700	0.114700	0.170020
O231	O23	0.031400	0.390800	0.670680
O241	O24	0.293600	0.400600	0.670990
O251	O25	0.147900	0.259100	0.665910
O261	O26	0.399600	0.236000	0.126000
O271	O27	0.173000	0.524400	0.672880
O281	O28	0.154400	0.508000	0.626290
O291	O29	0.279800	0.391800	0.624020
O301	O30	0.138100	0.242300	0.620760
O311	O31	0.278540	0.375060	0.168730
O321	O32	0.413100	0.265700	0.172290
