data_HOJNUR01_freeONLY_PM
_symmetry_space_group_name_H-M	'P1'
_cell_length_a	8.768200
_cell_length_b	20.469400
_cell_length_c	33.851000
_cell_angle_alpha	90.000000
_cell_angle_beta	90.000000
_cell_angle_gamma	90.000000
_symmetry_Int_Tables_number 1

loop_
_symmetry_equiv_pos_as_xyz
'x,y,z'

loop_
_atom_site_label
_atom_site_type_symbol
_atom_site_fract_x
_atom_site_fract_y
_atom_site_fract_z
O11	O1	0.245600	0.331700	0.679000
C11	C1	0.106300	0.319700	0.681700
O21	O2	0.009400	0.336900	0.657000
C21	C2	0.051400	0.284600	0.717600
C31	C3	0.152000	0.264900	0.746200
C41	C4	0.101400	0.228800	0.778100
O31	O3	0.247300	0.456900	0.633400
C51	C5	0.259700	0.591500	0.624700
H11	H1	0.255700	0.275700	0.743600
H21	H2	0.172500	0.214400	0.797000
H31	H3	0.352600	0.568700	0.626000
O41	O4	0.245600	0.831700	0.179000
C61	C6	0.106300	0.819700	0.181700
O51	O5	0.009400	0.836900	0.157000
C71	C7	0.051400	0.784600	0.217600
C81	C8	0.152000	0.764900	0.246200
C91	C9	0.101400	0.728800	0.278100
O61	O6	0.247300	0.956900	0.133400
C101	C10	0.259700	0.091500	0.124700
H41	H4	0.255700	0.775700	0.243600
H51	H5	0.172500	0.714400	0.297000
H61	H6	0.352600	0.068700	0.126000
O71	O7	0.745600	0.331700	0.179000
C111	C11	0.606300	0.319700	0.181700
O81	O8	0.509400	0.336900	0.157000
C121	C12	0.551400	0.284600	0.217600
C131	C13	0.652000	0.264900	0.246200
C141	C14	0.601400	0.228800	0.278100
O91	O9	0.747300	0.456900	0.133400
C151	C15	0.759700	0.591500	0.124700
H71	H7	0.755700	0.275700	0.243600
H81	H8	0.672500	0.214400	0.297000
H91	H9	0.852600	0.568700	0.126000
O101	O10	0.745600	0.831700	0.679000
C161	C16	0.606300	0.819700	0.681700
O111	O11	0.509400	0.836900	0.657000
C171	C17	0.551400	0.784600	0.717600
C181	C18	0.652000	0.764900	0.746200
C191	C19	0.601400	0.728800	0.778100
O121	O12	0.747300	0.956900	0.633400
C201	C20	0.759700	0.091500	0.624700
H101	H10	0.755700	0.775700	0.743600
H111	H11	0.672500	0.714400	0.797000
H121	H12	0.852600	0.068700	0.626000
O131	O13	0.504400	0.418300	0.679000
C211	C21	0.643700	0.430300	0.681700
O141	O14	0.740600	0.413100	0.657000
C221	C22	0.698600	0.465400	0.717600
C231	C23	0.598000	0.485100	0.746200
C241	C24	0.648600	0.521200	0.778100
O151	O15	0.502700	0.293100	0.633400
C251	C25	0.490300	0.158500	0.624700
H131	H13	0.494300	0.474300	0.743600
H141	H14	0.577500	0.535600	0.797000
H151	H15	0.397400	0.181300	0.626000
O161	O16	0.504400	0.918300	0.179000
C261	C26	0.643700	0.930300	0.181700
O171	O17	0.740600	0.913100	0.157000
C271	C27	0.698600	0.965400	0.217600
C281	C28	0.598000	0.985100	0.246200
C291	C29	0.648600	0.021200	0.278100
O181	O18	0.502700	0.793100	0.133400
C301	C30	0.490300	0.658500	0.124700
H161	H16	0.494300	0.974300	0.243600
H171	H17	0.577500	0.035600	0.297000
H181	H18	0.397400	0.681300	0.126000
O191	O19	0.004400	0.418300	0.179000
C311	C31	0.143700	0.430300	0.181700
O201	O20	0.240600	0.413100	0.157000
C321	C32	0.198600	0.465400	0.217600
C331	C33	0.098000	0.485100	0.246200
C341	C34	0.148600	0.521200	0.278100
O211	O21	0.002700	0.293100	0.133400
C351	C35	0.990300	0.158500	0.124700
H191	H19	0.994300	0.474300	0.243600
H201	H20	0.077500	0.535600	0.297000
H211	H21	0.897400	0.181300	0.126000
O221	O22	0.004400	0.918300	0.679000
C361	C36	0.143700	0.930300	0.681700
O231	O23	0.240600	0.913100	0.657000
C371	C37	0.198600	0.965400	0.717600
C381	C38	0.098000	0.985100	0.746200
C391	C39	0.148600	0.021200	0.778100
O241	O24	0.002700	0.793100	0.633400
C401	C40	0.990300	0.658500	0.624700
H221	H22	0.994300	0.974300	0.743600
H231	H23	0.077500	0.035600	0.797000
H241	H24	0.897400	0.681300	0.626000
O251	O25	0.504400	0.331700	0.071000
C411	C41	0.643700	0.319700	0.068300
O261	O26	0.740600	0.336900	0.093000
C421	C42	0.698600	0.284600	0.032400
C431	C43	0.598000	0.264900	0.003800
C441	C44	0.648600	0.228800	0.971900
O271	O27	0.502700	0.456900	0.116600
C451	C45	0.490300	0.591500	0.125300
H251	H25	0.494300	0.275700	0.006400
H261	H26	0.577500	0.214400	0.953000
H271	H27	0.397400	0.568700	0.124000
O281	O28	0.504400	0.831700	0.571000
C461	C46	0.643700	0.819700	0.568300
O291	O29	0.740600	0.836900	0.593000
C471	C47	0.698600	0.784600	0.532400
C481	C48	0.598000	0.764900	0.503800
C491	C49	0.648600	0.728800	0.471900
O301	O30	0.502700	0.956900	0.616600
C501	C50	0.490300	0.091500	0.625300
H281	H28	0.494300	0.775700	0.506400
H291	H29	0.577500	0.714400	0.453000
H301	H30	0.397400	0.068700	0.624000
O311	O31	0.004400	0.331700	0.571000
C511	C51	0.143700	0.319700	0.568300
O321	O32	0.240600	0.336900	0.593000
C521	C52	0.198600	0.284600	0.532400
C531	C53	0.098000	0.264900	0.503800
C541	C54	0.148600	0.228800	0.471900
O331	O33	0.002700	0.456900	0.616600
C551	C55	0.990300	0.591500	0.625300
H311	H31	0.994300	0.275700	0.506400
H321	H32	0.077500	0.214400	0.453000
H331	H33	0.897400	0.568700	0.624000
O341	O34	0.004400	0.831700	0.071000
C561	C56	0.143700	0.819700	0.068300
O351	O35	0.240600	0.836900	0.093000
C571	C57	0.198600	0.784600	0.032400
C581	C58	0.098000	0.764900	0.003800
C591	C59	0.148600	0.728800	0.971900
O361	O36	0.002700	0.956900	0.116600
C601	C60	0.990300	0.091500	0.125300
H341	H34	0.994300	0.775700	0.006400
H351	H35	0.077500	0.714400	0.953000
H361	H36	0.897400	0.068700	0.124000
O371	O37	0.245600	0.418300	0.071000
C611	C61	0.106300	0.430300	0.068300
O381	O38	0.009400	0.413100	0.093000
C621	C62	0.051400	0.465400	0.032400
C631	C63	0.152000	0.485100	0.003800
C641	C64	0.101400	0.521200	0.971900
O391	O39	0.247300	0.293100	0.116600
C651	C65	0.259700	0.158500	0.125300
H371	H37	0.255700	0.474300	0.006400
H381	H38	0.172500	0.535600	0.953000
H391	H39	0.352600	0.181300	0.124000
O401	O40	0.245600	0.918300	0.571000
C661	C66	0.106300	0.930300	0.568300
O411	O41	0.009400	0.913100	0.593000
C671	C67	0.051400	0.965400	0.532400
C681	C68	0.152000	0.985100	0.503800
C691	C69	0.101400	0.021200	0.471900
O421	O42	0.247300	0.793100	0.616600
C701	C70	0.259700	0.658500	0.625300
H401	H40	0.255700	0.974300	0.506400
H411	H41	0.172500	0.035600	0.453000
H421	H42	0.352600	0.681300	0.624000
O431	O43	0.745600	0.418300	0.571000
C711	C71	0.606300	0.430300	0.568300
O441	O44	0.509400	0.413100	0.593000
C721	C72	0.551400	0.465400	0.532400
C731	C73	0.652000	0.485100	0.503800
C741	C74	0.601400	0.521200	0.471900
O451	O45	0.747300	0.293100	0.616600
C751	C75	0.759700	0.158500	0.625300
H431	H43	0.755700	0.474300	0.506400
H441	H44	0.672500	0.535600	0.453000
H451	H45	0.852600	0.181300	0.624000
O461	O46	0.745600	0.918300	0.071000
C761	C76	0.606300	0.930300	0.068300
O471	O47	0.509400	0.913100	0.093000
C771	C77	0.551400	0.965400	0.032400
C781	C78	0.652000	0.985100	0.003800
C791	C79	0.601400	0.021200	0.971900
O481	O48	0.747300	0.793100	0.116600
C801	C80	0.759700	0.658500	0.125300
H461	H46	0.755700	0.974300	0.006400
H471	H47	0.672500	0.035600	0.953000
H481	H48	0.852600	0.681300	0.124000
O491	O49	0.754400	0.668300	0.321000
C811	C81	0.893700	0.680300	0.318300
O501	O50	0.990600	0.663100	0.343000
C821	C82	0.948600	0.715400	0.282400
C831	C83	0.848000	0.735100	0.253800
C841	C84	0.898600	0.771200	0.221900
O511	O51	0.752700	0.543100	0.366600
C851	C85	0.740300	0.408500	0.375300
H491	H49	0.744300	0.724300	0.256400
H501	H50	0.827500	0.785600	0.203000
H511	H51	0.647400	0.431300	0.374000
O521	O52	0.754400	0.168300	0.821000
C861	C86	0.893700	0.180300	0.818300
O531	O53	0.990600	0.163100	0.843000
C871	C87	0.948600	0.215400	0.782400
C881	C88	0.848000	0.235100	0.753800
C891	C89	0.898600	0.271200	0.721900
O541	O54	0.752700	0.043100	0.866600
C901	C90	0.740300	0.908500	0.875300
H521	H52	0.744300	0.224300	0.756400
H531	H53	0.827500	0.285600	0.703000
H541	H54	0.647400	0.931300	0.874000
O551	O55	0.254400	0.668300	0.821000
C911	C91	0.393700	0.680300	0.818300
O561	O56	0.490600	0.663100	0.843000
C921	C92	0.448600	0.715400	0.782400
C931	C93	0.348000	0.735100	0.753800
C941	C94	0.398600	0.771200	0.721900
O571	O57	0.252700	0.543100	0.866600
C951	C95	0.240300	0.408500	0.875300
H551	H55	0.244300	0.724300	0.756400
H561	H56	0.327500	0.785600	0.703000
H571	H57	0.147400	0.431300	0.874000
O581	O58	0.254400	0.168300	0.321000
C961	C96	0.393700	0.180300	0.318300
O591	O59	0.490600	0.163100	0.343000
C971	C97	0.448600	0.215400	0.282400
C981	C98	0.348000	0.235100	0.253800
C991	C99	0.398600	0.271200	0.221900
O601	O60	0.252700	0.043100	0.366600
C1001	C100	0.240300	0.908500	0.375300
H581	H58	0.244300	0.224300	0.256400
H591	H59	0.327500	0.285600	0.203000
H601	H60	0.147400	0.931300	0.374000
O611	O61	0.495600	0.581700	0.321000
C1011	C101	0.356300	0.569700	0.318300
O621	O62	0.259400	0.586900	0.343000
C1021	C102	0.301400	0.534600	0.282400
C1031	C103	0.402000	0.514900	0.253800
C1041	C104	0.351400	0.478800	0.221900
O631	O63	0.497300	0.706900	0.366600
C1051	C105	0.509700	0.841500	0.375300
H611	H61	0.505700	0.525700	0.256400
H621	H62	0.422500	0.464400	0.203000
H631	H63	0.602600	0.818700	0.374000
O641	O64	0.495600	0.081700	0.821000
C1061	C106	0.356300	0.069700	0.818300
O651	O65	0.259400	0.086900	0.843000
C1071	C107	0.301400	0.034600	0.782400
C1081	C108	0.402000	0.014900	0.753800
C1091	C109	0.351400	0.978800	0.721900
O661	O66	0.497300	0.206900	0.866600
C1101	C110	0.509700	0.341500	0.875300
H641	H64	0.505700	0.025700	0.756400
H651	H65	0.422500	0.964400	0.703000
H661	H66	0.602600	0.318700	0.874000
O671	O67	0.995600	0.581700	0.821000
C1111	C111	0.856300	0.569700	0.818300
O681	O68	0.759400	0.586900	0.843000
C1121	C112	0.801400	0.534600	0.782400
C1131	C113	0.902000	0.514900	0.753800
C1141	C114	0.851400	0.478800	0.721900
O691	O69	0.997300	0.706900	0.866600
C1151	C115	0.009700	0.841500	0.875300
H671	H67	0.005700	0.525700	0.756400
H681	H68	0.922500	0.464400	0.703000
H691	H69	0.102600	0.818700	0.874000
O701	O70	0.995600	0.081700	0.321000
C1161	C116	0.856300	0.069700	0.318300
O711	O71	0.759400	0.086900	0.343000
C1171	C117	0.801400	0.034600	0.282400
C1181	C118	0.902000	0.014900	0.253800
C1191	C119	0.851400	0.978800	0.221900
O721	O72	0.997300	0.206900	0.366600
C1201	C120	0.009700	0.341500	0.375300
H701	H70	0.005700	0.025700	0.256400
H711	H71	0.922500	0.964400	0.203000
H721	H72	0.102600	0.318700	0.374000
O731	O73	0.495600	0.668300	0.929000
C1211	C121	0.356300	0.680300	0.931700
O741	O74	0.259400	0.663100	0.907000
C1221	C122	0.301400	0.715400	0.967600
C1231	C123	0.402000	0.735100	0.996200
C1241	C124	0.351400	0.771200	0.028100
O751	O75	0.497300	0.543100	0.883400
C1251	C125	0.509700	0.408500	0.874700
H731	H73	0.505700	0.724300	0.993600
H741	H74	0.422500	0.785600	0.047000
H751	H75	0.602600	0.431300	0.876000
O761	O76	0.495600	0.168300	0.429000
C1261	C126	0.356300	0.180300	0.431700
O771	O77	0.259400	0.163100	0.407000
C1271	C127	0.301400	0.215400	0.467600
C1281	C128	0.402000	0.235100	0.496200
C1291	C129	0.351400	0.271200	0.528100
O781	O78	0.497300	0.043100	0.383400
C1301	C130	0.509700	0.908500	0.374700
H761	H76	0.505700	0.224300	0.493600
H771	H77	0.422500	0.285600	0.547000
H781	H78	0.602600	0.931300	0.376000
O791	O79	0.995600	0.668300	0.429000
C1311	C131	0.856300	0.680300	0.431700
O801	O80	0.759400	0.663100	0.407000
C1321	C132	0.801400	0.715400	0.467600
C1331	C133	0.902000	0.735100	0.496200
C1341	C134	0.851400	0.771200	0.528100
O811	O81	0.997300	0.543100	0.383400
C1351	C135	0.009700	0.408500	0.374700
H791	H79	0.005700	0.724300	0.493600
H801	H80	0.922500	0.785600	0.547000
H811	H81	0.102600	0.431300	0.376000
O821	O82	0.995600	0.168300	0.929000
C1361	C136	0.856300	0.180300	0.931700
O831	O83	0.759400	0.163100	0.907000
C1371	C137	0.801400	0.215400	0.967600
C1381	C138	0.902000	0.235100	0.996200
C1391	C139	0.851400	0.271200	0.028100
O841	O84	0.997300	0.043100	0.883400
C1401	C140	0.009700	0.908500	0.874700
H821	H82	0.005700	0.224300	0.993600
H831	H83	0.922500	0.285600	0.047000
H841	H84	0.102600	0.931300	0.876000
O851	O85	0.754400	0.581700	0.929000
C1411	C141	0.893700	0.569700	0.931700
O861	O86	0.990600	0.586900	0.907000
C1421	C142	0.948600	0.534600	0.967600
C1431	C143	0.848000	0.514900	0.996200
C1441	C144	0.898600	0.478800	0.028100
O871	O87	0.752700	0.706900	0.883400
C1451	C145	0.740300	0.841500	0.874700
H851	H85	0.744300	0.525700	0.993600
H861	H86	0.827500	0.464400	0.047000
H871	H87	0.647400	0.818700	0.876000
O881	O88	0.754400	0.081700	0.429000
C1461	C146	0.893700	0.069700	0.431700
O891	O89	0.990600	0.086900	0.407000
C1471	C147	0.948600	0.034600	0.467600
C1481	C148	0.848000	0.014900	0.496200
C1491	C149	0.898600	0.978800	0.528100
O901	O90	0.752700	0.206900	0.383400
C1501	C150	0.740300	0.341500	0.374700
H881	H88	0.744300	0.025700	0.493600
H891	H89	0.827500	0.964400	0.547000
H901	H90	0.647400	0.318700	0.376000
O911	O91	0.254400	0.581700	0.429000
C1511	C151	0.393700	0.569700	0.431700
O921	O92	0.490600	0.586900	0.407000
C1521	C152	0.448600	0.534600	0.467600
C1531	C153	0.348000	0.514900	0.496200
C1541	C154	0.398600	0.478800	0.528100
O931	O93	0.252700	0.706900	0.383400
C1551	C155	0.240300	0.841500	0.374700
H911	H91	0.244300	0.525700	0.493600
H921	H92	0.327500	0.464400	0.547000
H931	H93	0.147400	0.818700	0.376000
O941	O94	0.254400	0.081700	0.929000
C1561	C156	0.393700	0.069700	0.931700
O951	O95	0.490600	0.086900	0.907000
C1571	C157	0.448600	0.034600	0.967600
C1581	C158	0.348000	0.014900	0.996200
C1591	C159	0.398600	0.978800	0.028100
O961	O96	0.252700	0.206900	0.883400
C1601	C160	0.240300	0.341500	0.874700
H941	H94	0.244300	0.025700	0.993600
H951	H95	0.327500	0.964400	0.047000
H961	H96	0.147400	0.318700	0.876000
Sc11	Sc1	0.375000	0.375000	0.634950
Sc21	Sc2	0.375000	0.875000	0.134950
Sc31	Sc3	0.875000	0.375000	0.134950
Sc41	Sc4	0.875000	0.875000	0.634950
Sc51	Sc5	0.375000	0.375000	0.115050
Sc61	Sc6	0.375000	0.875000	0.615050
Sc71	Sc7	0.875000	0.375000	0.615050
Sc81	Sc8	0.875000	0.875000	0.115050
Sc91	Sc9	0.625000	0.625000	0.365050
Sc101	Sc10	0.625000	0.125000	0.865050
Sc111	Sc11	0.125000	0.625000	0.865050
Sc121	Sc12	0.125000	0.125000	0.365050
Sc131	Sc13	0.625000	0.625000	0.884950
Sc141	Sc14	0.625000	0.125000	0.384950
Sc151	Sc15	0.125000	0.625000	0.384950
Sc161	Sc16	0.125000	0.125000	0.884950
C1611	C161	0.125000	0.485500	0.625000
C1621	C162	0.125000	0.558200	0.625000
C1631	C163	0.125000	0.985500	0.125000
C1641	C164	0.125000	0.058200	0.125000
C1651	C165	0.625000	0.985500	0.625000
C1661	C166	0.625000	0.058200	0.625000
C1671	C167	0.625000	0.264500	0.625000
C1681	C168	0.625000	0.191800	0.625000
C1691	C169	0.625000	0.764500	0.125000
C1701	C170	0.625000	0.691800	0.125000
C1711	C171	0.625000	0.485500	0.125000
C1721	C172	0.625000	0.558200	0.125000
C1731	C173	0.125000	0.264500	0.125000
C1741	C174	0.125000	0.191800	0.125000
C1751	C175	0.125000	0.764500	0.625000
C1761	C176	0.125000	0.691800	0.625000
C1771	C177	0.875000	0.514500	0.375000
C1781	C178	0.875000	0.441800	0.375000
C1791	C179	0.875000	0.014500	0.875000
C1801	C180	0.875000	0.941800	0.875000
C1811	C181	0.375000	0.735500	0.375000
C1821	C182	0.375000	0.808200	0.375000
C1831	C183	0.375000	0.235500	0.875000
C1841	C184	0.375000	0.308200	0.875000
C1851	C185	0.375000	0.514500	0.875000
C1861	C186	0.375000	0.441800	0.875000
C1871	C187	0.375000	0.014500	0.375000
C1881	C188	0.375000	0.941800	0.375000
C1891	C189	0.875000	0.735500	0.875000
C1901	C190	0.875000	0.808200	0.875000
C1911	C191	0.875000	0.235500	0.375000
C1921	C192	0.875000	0.308200	0.375000
