data_HOJPIH_freeONLY_PM
_symmetry_space_group_name_H-M	'P1'
_cell_length_a	8.804100
_cell_length_b	20.625000
_cell_length_c	34.062000
_cell_angle_alpha	90.000000
_cell_angle_beta	90.000000
_cell_angle_gamma	90.000000
_symmetry_Int_Tables_number 1

loop_
_symmetry_equiv_pos_as_xyz
'x,y,z'

loop_
_atom_site_label
_atom_site_type_symbol
_atom_site_fract_x
_atom_site_fract_y
_atom_site_fract_z
O11	O1	0.244500	0.331900	0.678800
C11	C1	0.104600	0.319900	0.681900
O21	O2	0.007700	0.336400	0.657100
C21	C2	0.050200	0.283900	0.717600
C31	C3	0.150400	0.266100	0.746200
C41	C4	0.101600	0.229700	0.777800
O31	O3	0.245500	0.458100	0.634500
C51	C5	0.259800	0.591600	0.624400
H11	H1	0.254100	0.276900	0.743600
H21	H2	0.172700	0.215300	0.796700
H31	H3	0.352700	0.568800	0.625700
O41	O4	0.244500	0.831900	0.178800
C61	C6	0.104600	0.819900	0.181900
O51	O5	0.007700	0.836400	0.157100
C71	C7	0.050200	0.783900	0.217600
C81	C8	0.150400	0.766100	0.246200
C91	C9	0.101600	0.729700	0.277800
O61	O6	0.245500	0.958100	0.134500
C101	C10	0.259800	0.091600	0.124400
H41	H4	0.254100	0.776900	0.243600
H51	H5	0.172700	0.715300	0.296700
H61	H6	0.352700	0.068800	0.125700
O71	O7	0.744500	0.331900	0.178800
C111	C11	0.604600	0.319900	0.181900
O81	O8	0.507700	0.336400	0.157100
C121	C12	0.550200	0.283900	0.217600
C131	C13	0.650400	0.266100	0.246200
C141	C14	0.601600	0.229700	0.277800
O91	O9	0.745500	0.458100	0.134500
C151	C15	0.759800	0.591600	0.124400
H71	H7	0.754100	0.276900	0.243600
H81	H8	0.672700	0.215300	0.296700
H91	H9	0.852700	0.568800	0.125700
O101	O10	0.744500	0.831900	0.678800
C161	C16	0.604600	0.819900	0.681900
O111	O11	0.507700	0.836400	0.657100
C171	C17	0.550200	0.783900	0.717600
C181	C18	0.650400	0.766100	0.746200
C191	C19	0.601600	0.729700	0.777800
O121	O12	0.745500	0.958100	0.634500
C201	C20	0.759800	0.091600	0.624400
H101	H10	0.754100	0.776900	0.743600
H111	H11	0.672700	0.715300	0.796700
H121	H12	0.852700	0.068800	0.625700
O131	O13	0.505500	0.418100	0.678800
C211	C21	0.645400	0.430100	0.681900
O141	O14	0.742300	0.413600	0.657100
C221	C22	0.699800	0.466100	0.717600
C231	C23	0.599600	0.483900	0.746200
C241	C24	0.648400	0.520300	0.777800
O151	O15	0.504500	0.291900	0.634500
C251	C25	0.490200	0.158400	0.624400
H131	H13	0.495900	0.473100	0.743600
H141	H14	0.577300	0.534700	0.796700
H151	H15	0.397300	0.181200	0.625700
O161	O16	0.505500	0.918100	0.178800
C261	C26	0.645400	0.930100	0.181900
O171	O17	0.742300	0.913600	0.157100
C271	C27	0.699800	0.966100	0.217600
C281	C28	0.599600	0.983900	0.246200
C291	C29	0.648400	0.020300	0.277800
O181	O18	0.504500	0.791900	0.134500
C301	C30	0.490200	0.658400	0.124400
H161	H16	0.495900	0.973100	0.243600
H171	H17	0.577300	0.034700	0.296700
H181	H18	0.397300	0.681200	0.125700
O191	O19	0.005500	0.418100	0.178800
C311	C31	0.145400	0.430100	0.181900
O201	O20	0.242300	0.413600	0.157100
C321	C32	0.199800	0.466100	0.217600
C331	C33	0.099600	0.483900	0.246200
C341	C34	0.148400	0.520300	0.277800
O211	O21	0.004500	0.291900	0.134500
C351	C35	0.990200	0.158400	0.124400
H191	H19	0.995900	0.473100	0.243600
H201	H20	0.077300	0.534700	0.296700
H211	H21	0.897300	0.181200	0.125700
O221	O22	0.005500	0.918100	0.678800
C361	C36	0.145400	0.930100	0.681900
O231	O23	0.242300	0.913600	0.657100
C371	C37	0.199800	0.966100	0.717600
C381	C38	0.099600	0.983900	0.746200
C391	C39	0.148400	0.020300	0.777800
O241	O24	0.004500	0.791900	0.634500
C401	C40	0.990200	0.658400	0.624400
H221	H22	0.995900	0.973100	0.743600
H231	H23	0.077300	0.034700	0.796700
H241	H24	0.897300	0.681200	0.625700
O251	O25	0.505500	0.331900	0.071200
C411	C41	0.645400	0.319900	0.068100
O261	O26	0.742300	0.336400	0.092900
C421	C42	0.699800	0.283900	0.032400
C431	C43	0.599600	0.266100	0.003800
C441	C44	0.648400	0.229700	0.972200
O271	O27	0.504500	0.458100	0.115500
C451	C45	0.490200	0.591600	0.125600
H251	H25	0.495900	0.276900	0.006400
H261	H26	0.577300	0.215300	0.953300
H271	H27	0.397300	0.568800	0.124300
O281	O28	0.505500	0.831900	0.571200
C461	C46	0.645400	0.819900	0.568100
O291	O29	0.742300	0.836400	0.592900
C471	C47	0.699800	0.783900	0.532400
C481	C48	0.599600	0.766100	0.503800
C491	C49	0.648400	0.729700	0.472200
O301	O30	0.504500	0.958100	0.615500
C501	C50	0.490200	0.091600	0.625600
H281	H28	0.495900	0.776900	0.506400
H291	H29	0.577300	0.715300	0.453300
H301	H30	0.397300	0.068800	0.624300
O311	O31	0.005500	0.331900	0.571200
C511	C51	0.145400	0.319900	0.568100
O321	O32	0.242300	0.336400	0.592900
C521	C52	0.199800	0.283900	0.532400
C531	C53	0.099600	0.266100	0.503800
C541	C54	0.148400	0.229700	0.472200
O331	O33	0.004500	0.458100	0.615500
C551	C55	0.990200	0.591600	0.625600
H311	H31	0.995900	0.276900	0.506400
H321	H32	0.077300	0.215300	0.453300
H331	H33	0.897300	0.568800	0.624300
O341	O34	0.005500	0.831900	0.071200
C561	C56	0.145400	0.819900	0.068100
O351	O35	0.242300	0.836400	0.092900
C571	C57	0.199800	0.783900	0.032400
C581	C58	0.099600	0.766100	0.003800
C591	C59	0.148400	0.729700	0.972200
O361	O36	0.004500	0.958100	0.115500
C601	C60	0.990200	0.091600	0.125600
H341	H34	0.995900	0.776900	0.006400
H351	H35	0.077300	0.715300	0.953300
H361	H36	0.897300	0.068800	0.124300
O371	O37	0.244500	0.418100	0.071200
C611	C61	0.104600	0.430100	0.068100
O381	O38	0.007700	0.413600	0.092900
C621	C62	0.050200	0.466100	0.032400
C631	C63	0.150400	0.483900	0.003800
C641	C64	0.101600	0.520300	0.972200
O391	O39	0.245500	0.291900	0.115500
C651	C65	0.259800	0.158400	0.125600
H371	H37	0.254100	0.473100	0.006400
H381	H38	0.172700	0.534700	0.953300
H391	H39	0.352700	0.181200	0.124300
O401	O40	0.244500	0.918100	0.571200
C661	C66	0.104600	0.930100	0.568100
O411	O41	0.007700	0.913600	0.592900
C671	C67	0.050200	0.966100	0.532400
C681	C68	0.150400	0.983900	0.503800
C691	C69	0.101600	0.020300	0.472200
O421	O42	0.245500	0.791900	0.615500
C701	C70	0.259800	0.658400	0.625600
H401	H40	0.254100	0.973100	0.506400
H411	H41	0.172700	0.034700	0.453300
H421	H42	0.352700	0.681200	0.624300
O431	O43	0.744500	0.418100	0.571200
C711	C71	0.604600	0.430100	0.568100
O441	O44	0.507700	0.413600	0.592900
C721	C72	0.550200	0.466100	0.532400
C731	C73	0.650400	0.483900	0.503800
C741	C74	0.601600	0.520300	0.472200
O451	O45	0.745500	0.291900	0.615500
C751	C75	0.759800	0.158400	0.625600
H431	H43	0.754100	0.473100	0.506400
H441	H44	0.672700	0.534700	0.453300
H451	H45	0.852700	0.181200	0.624300
O461	O46	0.744500	0.918100	0.071200
C761	C76	0.604600	0.930100	0.068100
O471	O47	0.507700	0.913600	0.092900
C771	C77	0.550200	0.966100	0.032400
C781	C78	0.650400	0.983900	0.003800
C791	C79	0.601600	0.020300	0.972200
O481	O48	0.745500	0.791900	0.115500
C801	C80	0.759800	0.658400	0.125600
H461	H46	0.754100	0.973100	0.006400
H471	H47	0.672700	0.034700	0.953300
H481	H48	0.852700	0.681200	0.124300
O491	O49	0.755500	0.668100	0.321200
C811	C81	0.895400	0.680100	0.318100
O501	O50	0.992300	0.663600	0.342900
C821	C82	0.949800	0.716100	0.282400
C831	C83	0.849600	0.733900	0.253800
C841	C84	0.898400	0.770300	0.222200
O511	O51	0.754500	0.541900	0.365500
C851	C85	0.740200	0.408400	0.375600
H491	H49	0.745900	0.723100	0.256400
H501	H50	0.827300	0.784700	0.203300
H511	H51	0.647300	0.431200	0.374300
O521	O52	0.755500	0.168100	0.821200
C861	C86	0.895400	0.180100	0.818100
O531	O53	0.992300	0.163600	0.842900
C871	C87	0.949800	0.216100	0.782400
C881	C88	0.849600	0.233900	0.753800
C891	C89	0.898400	0.270300	0.722200
O541	O54	0.754500	0.041900	0.865500
C901	C90	0.740200	0.908400	0.875600
H521	H52	0.745900	0.223100	0.756400
H531	H53	0.827300	0.284700	0.703300
H541	H54	0.647300	0.931200	0.874300
O551	O55	0.255500	0.668100	0.821200
C911	C91	0.395400	0.680100	0.818100
O561	O56	0.492300	0.663600	0.842900
C921	C92	0.449800	0.716100	0.782400
C931	C93	0.349600	0.733900	0.753800
C941	C94	0.398400	0.770300	0.722200
O571	O57	0.254500	0.541900	0.865500
C951	C95	0.240200	0.408400	0.875600
H551	H55	0.245900	0.723100	0.756400
H561	H56	0.327300	0.784700	0.703300
H571	H57	0.147300	0.431200	0.874300
O581	O58	0.255500	0.168100	0.321200
C961	C96	0.395400	0.180100	0.318100
O591	O59	0.492300	0.163600	0.342900
C971	C97	0.449800	0.216100	0.282400
C981	C98	0.349600	0.233900	0.253800
C991	C99	0.398400	0.270300	0.222200
O601	O60	0.254500	0.041900	0.365500
C1001	C100	0.240200	0.908400	0.375600
H581	H58	0.245900	0.223100	0.256400
H591	H59	0.327300	0.284700	0.203300
H601	H60	0.147300	0.931200	0.374300
O611	O61	0.494500	0.581900	0.321200
C1011	C101	0.354600	0.569900	0.318100
O621	O62	0.257700	0.586400	0.342900
C1021	C102	0.300200	0.533900	0.282400
C1031	C103	0.400400	0.516100	0.253800
C1041	C104	0.351600	0.479700	0.222200
O631	O63	0.495500	0.708100	0.365500
C1051	C105	0.509800	0.841600	0.375600
H611	H61	0.504100	0.526900	0.256400
H621	H62	0.422700	0.465300	0.203300
H631	H63	0.602700	0.818800	0.374300
O641	O64	0.494500	0.081900	0.821200
C1061	C106	0.354600	0.069900	0.818100
O651	O65	0.257700	0.086400	0.842900
C1071	C107	0.300200	0.033900	0.782400
C1081	C108	0.400400	0.016100	0.753800
C1091	C109	0.351600	0.979700	0.722200
O661	O66	0.495500	0.208100	0.865500
C1101	C110	0.509800	0.341600	0.875600
H641	H64	0.504100	0.026900	0.756400
H651	H65	0.422700	0.965300	0.703300
H661	H66	0.602700	0.318800	0.874300
O671	O67	0.994500	0.581900	0.821200
C1111	C111	0.854600	0.569900	0.818100
O681	O68	0.757700	0.586400	0.842900
C1121	C112	0.800200	0.533900	0.782400
C1131	C113	0.900400	0.516100	0.753800
C1141	C114	0.851600	0.479700	0.722200
O691	O69	0.995500	0.708100	0.865500
C1151	C115	0.009800	0.841600	0.875600
H671	H67	0.004100	0.526900	0.756400
H681	H68	0.922700	0.465300	0.703300
H691	H69	0.102700	0.818800	0.874300
O701	O70	0.994500	0.081900	0.321200
C1161	C116	0.854600	0.069900	0.318100
O711	O71	0.757700	0.086400	0.342900
C1171	C117	0.800200	0.033900	0.282400
C1181	C118	0.900400	0.016100	0.253800
C1191	C119	0.851600	0.979700	0.222200
O721	O72	0.995500	0.208100	0.365500
C1201	C120	0.009800	0.341600	0.375600
H701	H70	0.004100	0.026900	0.256400
H711	H71	0.922700	0.965300	0.203300
H721	H72	0.102700	0.318800	0.374300
O731	O73	0.494500	0.668100	0.928800
C1211	C121	0.354600	0.680100	0.931900
O741	O74	0.257700	0.663600	0.907100
C1221	C122	0.300200	0.716100	0.967600
C1231	C123	0.400400	0.733900	0.996200
C1241	C124	0.351600	0.770300	0.027800
O751	O75	0.495500	0.541900	0.884500
C1251	C125	0.509800	0.408400	0.874400
H731	H73	0.504100	0.723100	0.993600
H741	H74	0.422700	0.784700	0.046700
H751	H75	0.602700	0.431200	0.875700
O761	O76	0.494500	0.168100	0.428800
C1261	C126	0.354600	0.180100	0.431900
O771	O77	0.257700	0.163600	0.407100
C1271	C127	0.300200	0.216100	0.467600
C1281	C128	0.400400	0.233900	0.496200
C1291	C129	0.351600	0.270300	0.527800
O781	O78	0.495500	0.041900	0.384500
C1301	C130	0.509800	0.908400	0.374400
H761	H76	0.504100	0.223100	0.493600
H771	H77	0.422700	0.284700	0.546700
H781	H78	0.602700	0.931200	0.375700
O791	O79	0.994500	0.668100	0.428800
C1311	C131	0.854600	0.680100	0.431900
O801	O80	0.757700	0.663600	0.407100
C1321	C132	0.800200	0.716100	0.467600
C1331	C133	0.900400	0.733900	0.496200
C1341	C134	0.851600	0.770300	0.527800
O811	O81	0.995500	0.541900	0.384500
C1351	C135	0.009800	0.408400	0.374400
H791	H79	0.004100	0.723100	0.493600
H801	H80	0.922700	0.784700	0.546700
H811	H81	0.102700	0.431200	0.375700
O821	O82	0.994500	0.168100	0.928800
C1361	C136	0.854600	0.180100	0.931900
O831	O83	0.757700	0.163600	0.907100
C1371	C137	0.800200	0.216100	0.967600
C1381	C138	0.900400	0.233900	0.996200
C1391	C139	0.851600	0.270300	0.027800
O841	O84	0.995500	0.041900	0.884500
C1401	C140	0.009800	0.908400	0.874400
H821	H82	0.004100	0.223100	0.993600
H831	H83	0.922700	0.284700	0.046700
H841	H84	0.102700	0.931200	0.875700
O851	O85	0.755500	0.581900	0.928800
C1411	C141	0.895400	0.569900	0.931900
O861	O86	0.992300	0.586400	0.907100
C1421	C142	0.949800	0.533900	0.967600
C1431	C143	0.849600	0.516100	0.996200
C1441	C144	0.898400	0.479700	0.027800
O871	O87	0.754500	0.708100	0.884500
C1451	C145	0.740200	0.841600	0.874400
H851	H85	0.745900	0.526900	0.993600
H861	H86	0.827300	0.465300	0.046700
H871	H87	0.647300	0.818800	0.875700
O881	O88	0.755500	0.081900	0.428800
C1461	C146	0.895400	0.069900	0.431900
O891	O89	0.992300	0.086400	0.407100
C1471	C147	0.949800	0.033900	0.467600
C1481	C148	0.849600	0.016100	0.496200
C1491	C149	0.898400	0.979700	0.527800
O901	O90	0.754500	0.208100	0.384500
C1501	C150	0.740200	0.341600	0.374400
H881	H88	0.745900	0.026900	0.493600
H891	H89	0.827300	0.965300	0.546700
H901	H90	0.647300	0.318800	0.375700
O911	O91	0.255500	0.581900	0.428800
C1511	C151	0.395400	0.569900	0.431900
O921	O92	0.492300	0.586400	0.407100
C1521	C152	0.449800	0.533900	0.467600
C1531	C153	0.349600	0.516100	0.496200
C1541	C154	0.398400	0.479700	0.527800
O931	O93	0.254500	0.708100	0.384500
C1551	C155	0.240200	0.841600	0.374400
H911	H91	0.245900	0.526900	0.493600
H921	H92	0.327300	0.465300	0.546700
H931	H93	0.147300	0.818800	0.375700
O941	O94	0.255500	0.081900	0.928800
C1561	C156	0.395400	0.069900	0.931900
O951	O95	0.492300	0.086400	0.907100
C1571	C157	0.449800	0.033900	0.967600
C1581	C158	0.349600	0.016100	0.996200
C1591	C159	0.398400	0.979700	0.027800
O961	O96	0.254500	0.208100	0.884500
C1601	C160	0.240200	0.341600	0.874400
H941	H94	0.245900	0.026900	0.993600
H951	H95	0.327300	0.965300	0.046700
H961	H96	0.147300	0.318800	0.875700
Sc11	Sc1	0.375000	0.375000	0.635090
Sc21	Sc2	0.375000	0.875000	0.135090
Sc31	Sc3	0.875000	0.375000	0.135090
Sc41	Sc4	0.875000	0.875000	0.635090
Sc51	Sc5	0.375000	0.375000	0.114910
Sc61	Sc6	0.375000	0.875000	0.614910
Sc71	Sc7	0.875000	0.375000	0.614910
Sc81	Sc8	0.875000	0.875000	0.114910
Sc91	Sc9	0.625000	0.625000	0.364910
Sc101	Sc10	0.625000	0.125000	0.864910
Sc111	Sc11	0.125000	0.625000	0.864910
Sc121	Sc12	0.125000	0.125000	0.364910
Sc131	Sc13	0.625000	0.625000	0.885090
Sc141	Sc14	0.625000	0.125000	0.385090
Sc151	Sc15	0.125000	0.625000	0.385090
Sc161	Sc16	0.125000	0.125000	0.885090
C1611	C161	0.125000	0.486400	0.625000
C1621	C162	0.125000	0.558300	0.625000
C1631	C163	0.125000	0.986400	0.125000
C1641	C164	0.125000	0.058300	0.125000
C1651	C165	0.625000	0.986400	0.625000
C1661	C166	0.625000	0.058300	0.625000
C1671	C167	0.625000	0.263600	0.625000
C1681	C168	0.625000	0.191700	0.625000
C1691	C169	0.625000	0.763600	0.125000
C1701	C170	0.625000	0.691700	0.125000
C1711	C171	0.625000	0.486400	0.125000
C1721	C172	0.625000	0.558300	0.125000
C1731	C173	0.125000	0.263600	0.125000
C1741	C174	0.125000	0.191700	0.125000
C1751	C175	0.125000	0.763600	0.625000
C1761	C176	0.125000	0.691700	0.625000
C1771	C177	0.875000	0.513600	0.375000
C1781	C178	0.875000	0.441700	0.375000
C1791	C179	0.875000	0.013600	0.875000
C1801	C180	0.875000	0.941700	0.875000
C1811	C181	0.375000	0.736400	0.375000
C1821	C182	0.375000	0.808300	0.375000
C1831	C183	0.375000	0.236400	0.875000
C1841	C184	0.375000	0.308300	0.875000
C1851	C185	0.375000	0.513600	0.875000
C1861	C186	0.375000	0.441700	0.875000
C1871	C187	0.375000	0.013600	0.375000
C1881	C188	0.375000	0.941700	0.375000
C1891	C189	0.875000	0.736400	0.875000
C1901	C190	0.875000	0.808300	0.875000
C1911	C191	0.875000	0.236400	0.375000
C1921	C192	0.875000	0.308300	0.375000
