data_HOQMIL_freeONLY_PM
_symmetry_space_group_name_H-M	'P1'
_cell_length_a	18.510000
_cell_length_b	16.894000
_cell_length_c	13.924000
_cell_angle_alpha	90.000000
_cell_angle_beta	130.542000
_cell_angle_gamma	90.000000
_symmetry_Int_Tables_number 1

loop_
_symmetry_equiv_pos_as_xyz
'x,y,z'

loop_
_atom_site_label
_atom_site_type_symbol
_atom_site_fract_x
_atom_site_fract_y
_atom_site_fract_z
O11	O1	0.588400	0.391310	0.380600
O21	O2	0.730610	0.353180	0.558480
O31	O3	0.576000	0.697970	0.692390
O41	O4	0.730300	0.685900	0.857970
O51	O5	0.400790	0.219900	0.112330
N11	N1	0.426690	0.159490	0.079100
C11	C1	0.664940	0.473050	0.558600
C21	C2	0.588300	0.523710	0.494500
H11	H1	0.537000	0.514900	0.409400
C31	C3	0.586700	0.587510	0.555300
H21	H2	0.534000	0.620700	0.510900
C41	C4	0.662450	0.602620	0.680900
C51	C5	0.739800	0.553300	0.743600
H31	H3	0.792300	0.563500	0.827700
C61	C6	0.741000	0.488420	0.683700
H41	H4	0.793600	0.455100	0.728300
C71	C7	0.661100	0.400000	0.493800
C81	C8	0.656450	0.667750	0.749300
C91	C9	0.463000	0.173480	0.023200
H51	H5	0.468400	0.225200	0.005600
C101	C10	0.492200	0.111440	0.991900
H61	H6	0.517400	0.121700	0.953300
C111	C11	0.484610	0.033850	0.017000
C121	C12	0.444000	0.022440	0.071700
H71	H7	0.436400	0.971300	0.088600
C131	C13	0.414900	0.085660	0.101200
H81	H8	0.386900	0.077100	0.136600
O61	O6	0.088400	0.891310	0.380600
O71	O7	0.230610	0.853180	0.558480
O81	O8	0.076000	0.197970	0.692390
O91	O9	0.230300	0.185900	0.857970
O101	O10	0.900790	0.719900	0.112330
N21	N2	0.926690	0.659490	0.079100
C141	C14	0.164940	0.973050	0.558600
C151	C15	0.088300	0.023710	0.494500
H91	H9	0.037000	0.014900	0.409400
C161	C16	0.086700	0.087510	0.555300
H101	H10	0.034000	0.120700	0.510900
C171	C17	0.162450	0.102620	0.680900
C181	C18	0.239800	0.053300	0.743600
H111	H11	0.292300	0.063500	0.827700
C191	C19	0.241000	0.988420	0.683700
H121	H12	0.293600	0.955100	0.728300
C201	C20	0.161100	0.900000	0.493800
C211	C21	0.156450	0.167750	0.749300
C221	C22	0.963000	0.673480	0.023200
H131	H13	0.968400	0.725200	0.005600
C231	C23	0.992200	0.611440	0.991900
H141	H14	0.017400	0.621700	0.953300
C241	C24	0.984610	0.533850	0.017000
C251	C25	0.944000	0.522440	0.071700
H151	H15	0.936400	0.471300	0.088600
C261	C26	0.914900	0.585660	0.101200
H161	H16	0.886900	0.577100	0.136600
O111	O11	0.411600	0.391310	0.119400
O121	O12	0.269390	0.353180	0.941520
O131	O13	0.424000	0.697970	0.807610
O141	O14	0.269700	0.685900	0.642030
O151	O15	0.599210	0.219900	0.387670
N31	N3	0.573310	0.159490	0.420900
C271	C27	0.335060	0.473050	0.941400
C281	C28	0.411700	0.523710	0.005500
H171	H17	0.463000	0.514900	0.090600
C291	C29	0.413300	0.587510	0.944700
H181	H18	0.466000	0.620700	0.989100
C301	C30	0.337550	0.602620	0.819100
C311	C31	0.260200	0.553300	0.756400
H191	H19	0.207700	0.563500	0.672300
C321	C32	0.259000	0.488420	0.816300
H201	H20	0.206400	0.455100	0.771700
C331	C33	0.338900	0.400000	0.006200
C341	C34	0.343550	0.667750	0.750700
C351	C35	0.537000	0.173480	0.476800
H211	H21	0.531600	0.225200	0.494400
C361	C36	0.507800	0.111440	0.508100
H221	H22	0.482600	0.121700	0.546700
C371	C37	0.515390	0.033850	0.483000
C381	C38	0.556000	0.022440	0.428300
H231	H23	0.563600	0.971300	0.411400
C391	C39	0.585100	0.085660	0.398800
H241	H24	0.613100	0.077100	0.363400
O161	O16	0.911600	0.891310	0.119400
O171	O17	0.769390	0.853180	0.941520
O181	O18	0.924000	0.197970	0.807610
O191	O19	0.769700	0.185900	0.642030
O201	O20	0.099210	0.719900	0.387670
N41	N4	0.073310	0.659490	0.420900
C401	C40	0.835060	0.973050	0.941400
C411	C41	0.911700	0.023710	0.005500
H251	H25	0.963000	0.014900	0.090600
C421	C42	0.913300	0.087510	0.944700
H261	H26	0.966000	0.120700	0.989100
C431	C43	0.837550	0.102620	0.819100
C441	C44	0.760200	0.053300	0.756400
H271	H27	0.707700	0.063500	0.672300
C451	C45	0.759000	0.988420	0.816300
H281	H28	0.706400	0.955100	0.771700
C461	C46	0.838900	0.900000	0.006200
C471	C47	0.843550	0.167750	0.750700
C481	C48	0.037000	0.673480	0.476800
H291	H29	0.031600	0.725200	0.494400
C491	C49	0.007800	0.611440	0.508100
H301	H30	0.982600	0.621700	0.546700
C501	C50	0.015390	0.533850	0.483000
C511	C51	0.056000	0.522440	0.428300
H311	H31	0.063600	0.471300	0.411400
C521	C52	0.085100	0.585660	0.398800
H321	H32	0.113100	0.577100	0.363400
O211	O21	0.411600	0.608690	0.619400
O221	O22	0.269390	0.646820	0.441520
O231	O23	0.424000	0.302030	0.307610
O241	O24	0.269700	0.314100	0.142030
O251	O25	0.599210	0.780100	0.887670
N51	N5	0.573310	0.840510	0.920900
C531	C53	0.335060	0.526950	0.441400
C541	C54	0.411700	0.476290	0.505500
H331	H33	0.463000	0.485100	0.590600
C551	C55	0.413300	0.412490	0.444700
H341	H34	0.466000	0.379300	0.489100
C561	C56	0.337550	0.397380	0.319100
C571	C57	0.260200	0.446700	0.256400
H351	H35	0.207700	0.436500	0.172300
C581	C58	0.259000	0.511580	0.316300
H361	H36	0.206400	0.544900	0.271700
C591	C59	0.338900	0.600000	0.506200
C601	C60	0.343550	0.332250	0.250700
C611	C61	0.537000	0.826520	0.976800
H371	H37	0.531600	0.774800	0.994400
C621	C62	0.507800	0.888560	0.008100
H381	H38	0.482600	0.878300	0.046700
C631	C63	0.515390	0.966150	0.983000
C641	C64	0.556000	0.977560	0.928300
H391	H39	0.563600	0.028700	0.911400
C651	C65	0.585100	0.914340	0.898800
H401	H40	0.613100	0.922900	0.863400
O261	O26	0.911600	0.108690	0.619400
O271	O27	0.769390	0.146820	0.441520
O281	O28	0.924000	0.802030	0.307610
O291	O29	0.769700	0.814100	0.142030
O301	O30	0.099210	0.280100	0.887670
N61	N6	0.073310	0.340510	0.920900
C661	C66	0.835060	0.026950	0.441400
C671	C67	0.911700	0.976290	0.505500
H411	H41	0.963000	0.985100	0.590600
C681	C68	0.913300	0.912490	0.444700
H421	H42	0.966000	0.879300	0.489100
C691	C69	0.837550	0.897380	0.319100
C701	C70	0.760200	0.946700	0.256400
H431	H43	0.707700	0.936500	0.172300
C711	C71	0.759000	0.011580	0.316300
H441	H44	0.706400	0.044900	0.271700
C721	C72	0.838900	0.100000	0.506200
C731	C73	0.843550	0.832250	0.250700
C741	C74	0.037000	0.326520	0.976800
H451	H45	0.031600	0.274800	0.994400
C751	C75	0.007800	0.388560	0.008100
H461	H46	0.982600	0.378300	0.046700
C761	C76	0.015390	0.466150	0.983000
C771	C77	0.056000	0.477560	0.928300
H471	H47	0.063600	0.528700	0.911400
C781	C78	0.085100	0.414340	0.898800
H481	H48	0.113100	0.422900	0.863400
O311	O31	0.588400	0.608690	0.880600
O321	O32	0.730610	0.646820	0.058480
O331	O33	0.576000	0.302030	0.192390
O341	O34	0.730300	0.314100	0.357970
O351	O35	0.400790	0.780100	0.612330
N71	N7	0.426690	0.840510	0.579100
C791	C79	0.664940	0.526950	0.058600
C801	C80	0.588300	0.476290	0.994500
H491	H49	0.537000	0.485100	0.909400
C811	C81	0.586700	0.412490	0.055300
H501	H50	0.534000	0.379300	0.010900
C821	C82	0.662450	0.397380	0.180900
C831	C83	0.739800	0.446700	0.243600
H511	H51	0.792300	0.436500	0.327700
C841	C84	0.741000	0.511580	0.183700
H521	H52	0.793600	0.544900	0.228300
C851	C85	0.661100	0.600000	0.993800
C861	C86	0.656450	0.332250	0.249300
C871	C87	0.463000	0.826520	0.523200
H531	H53	0.468400	0.774800	0.505600
C881	C88	0.492200	0.888560	0.491900
H541	H54	0.517400	0.878300	0.453300
C891	C89	0.484610	0.966150	0.517000
C901	C90	0.444000	0.977560	0.571700
H551	H55	0.436400	0.028700	0.588600
C911	C91	0.414900	0.914340	0.601200
H561	H56	0.386900	0.922900	0.636600
O361	O36	0.088400	0.108690	0.880600
O371	O37	0.230610	0.146820	0.058480
O381	O38	0.076000	0.802030	0.192390
O391	O39	0.230300	0.814100	0.357970
O401	O40	0.900790	0.280100	0.612330
N81	N8	0.926690	0.340510	0.579100
C921	C92	0.164940	0.026950	0.058600
C931	C93	0.088300	0.976290	0.994500
H571	H57	0.037000	0.985100	0.909400
C941	C94	0.086700	0.912490	0.055300
H581	H58	0.034000	0.879300	0.010900
C951	C95	0.162450	0.897380	0.180900
C961	C96	0.239800	0.946700	0.243600
H591	H59	0.292300	0.936500	0.327700
C971	C97	0.241000	0.011580	0.183700
H601	H60	0.293600	0.044900	0.228300
C981	C98	0.161100	0.100000	0.993800
C991	C99	0.156450	0.832250	0.249300
C1001	C100	0.963000	0.326520	0.523200
H611	H61	0.968400	0.274800	0.505600
C1011	C101	0.992200	0.388560	0.491900
H621	H62	0.017400	0.378300	0.453300
C1021	C102	0.984610	0.466150	0.517000
C1031	C103	0.944000	0.477560	0.571700
H631	H63	0.936400	0.528700	0.588600
C1041	C104	0.914900	0.414340	0.601200
H641	H64	0.886900	0.422900	0.636600
Mg11	Mg1	0.500000	0.307900	0.250000
Mg21	Mg2	0.000000	0.807900	0.250000
Mg31	Mg3	0.500000	0.692100	0.750000
Mg41	Mg4	0.000000	0.192100	0.750000
Mg51	Mg5	0.750000	0.250000	0.500000
Mg61	Mg6	0.250000	0.250000	0.000000
Mg71	Mg7	0.250000	0.750000	0.500000
Mg81	Mg8	0.750000	0.750000	0.000000
