data_HOQMIL02_freeONLY_PM
_symmetry_space_group_name_H-M	'P1'
_cell_length_a	18.187600
_cell_length_b	17.244100
_cell_length_c	13.531300
_cell_angle_alpha	90.000000
_cell_angle_beta	129.505000
_cell_angle_gamma	90.000000
_symmetry_Int_Tables_number 1

loop_
_symmetry_equiv_pos_as_xyz
'x,y,z'

loop_
_atom_site_label
_atom_site_type_symbol
_atom_site_fract_x
_atom_site_fract_y
_atom_site_fract_z
O11	O1	0.075360	0.199990	0.686400
O21	O2	0.230310	0.186610	0.855100
O31	O3	0.088530	0.888150	0.379900
O41	O4	0.230450	0.851130	0.561400
O51	O5	0.099750	0.279070	0.889300
N11	N1	0.074070	0.339900	0.922800
C11	C1	0.161900	0.102290	0.677500
C21	C2	0.239900	0.053200	0.743700
H11	H1	0.295000	0.071000	0.841000
C31	C3	0.240500	0.987200	0.684400
H21	H2	0.290000	0.953000	0.725000
C41	C4	0.164700	0.970930	0.558600
C51	C5	0.087500	0.021500	0.491300
H31	H3	0.035000	0.009000	0.407000
C61	C6	0.086400	0.086000	0.550800
H41	H4	0.040000	0.120000	0.513000
C71	C7	0.156300	0.168310	0.745100
C81	C8	0.160900	0.897430	0.494400
C91	C9	0.086200	0.411800	0.897600
H51	H5	0.111000	0.416000	0.863000
C101	C10	0.056700	0.475100	0.925600
H61	H6	0.072000	0.519000	0.912000
C111	C11	0.015300	0.466100	0.983000
C121	C12	0.006800	0.390700	0.011100
H71	H7	0.977000	0.378000	0.047000
C131	C13	0.036400	0.328300	0.980300
H81	H8	0.030000	0.277000	0.991000
O61	O6	0.575360	0.699990	0.686400
O71	O7	0.730310	0.686610	0.855100
O81	O8	0.588530	0.388150	0.379900
O91	O9	0.730450	0.351130	0.561400
O101	O10	0.599750	0.779070	0.889300
N21	N2	0.574070	0.839900	0.922800
C141	C14	0.661900	0.602290	0.677500
C151	C15	0.739900	0.553200	0.743700
H91	H9	0.795000	0.571000	0.841000
C161	C16	0.740500	0.487200	0.684400
H101	H10	0.790000	0.453000	0.725000
C171	C17	0.664700	0.470930	0.558600
C181	C18	0.587500	0.521500	0.491300
H111	H11	0.535000	0.509000	0.407000
C191	C19	0.586400	0.586000	0.550800
H121	H12	0.540000	0.620000	0.513000
C201	C20	0.656300	0.668310	0.745100
C211	C21	0.660900	0.397430	0.494400
C221	C22	0.586200	0.911800	0.897600
H131	H13	0.611000	0.916000	0.863000
C231	C23	0.556700	0.975100	0.925600
H141	H14	0.572000	0.019000	0.912000
C241	C24	0.515300	0.966100	0.983000
C251	C25	0.506800	0.890700	0.011100
H151	H15	0.477000	0.878000	0.047000
C261	C26	0.536400	0.828300	0.980300
H161	H16	0.530000	0.777000	0.991000
O111	O11	0.924640	0.199990	0.813600
O121	O12	0.769690	0.186610	0.644900
O131	O13	0.911470	0.888150	0.120100
O141	O14	0.769550	0.851130	0.938600
O151	O15	0.900250	0.279070	0.610700
N31	N3	0.925930	0.339900	0.577200
C271	C27	0.838100	0.102290	0.822500
C281	C28	0.760100	0.053200	0.756300
H171	H17	0.705000	0.071000	0.659000
C291	C29	0.759500	0.987200	0.815600
H181	H18	0.710000	0.953000	0.775000
C301	C30	0.835300	0.970930	0.941400
C311	C31	0.912500	0.021500	0.008700
H191	H19	0.965000	0.009000	0.093000
C321	C32	0.913600	0.086000	0.949200
H201	H20	0.960000	0.120000	0.987000
C331	C33	0.843700	0.168310	0.754900
C341	C34	0.839100	0.897430	0.005600
C351	C35	0.913800	0.411800	0.602400
H211	H21	0.889000	0.416000	0.637000
C361	C36	0.943300	0.475100	0.574400
H221	H22	0.928000	0.519000	0.588000
C371	C37	0.984700	0.466100	0.517000
C381	C38	0.993200	0.390700	0.488900
H231	H23	0.023000	0.378000	0.453000
C391	C39	0.963600	0.328300	0.519700
H241	H24	0.970000	0.277000	0.509000
O161	O16	0.424640	0.699990	0.813600
O171	O17	0.269690	0.686610	0.644900
O181	O18	0.411470	0.388150	0.120100
O191	O19	0.269550	0.351130	0.938600
O201	O20	0.400250	0.779070	0.610700
N41	N4	0.425930	0.839900	0.577200
C401	C40	0.338100	0.602290	0.822500
C411	C41	0.260100	0.553200	0.756300
H251	H25	0.205000	0.571000	0.659000
C421	C42	0.259500	0.487200	0.815600
H261	H26	0.210000	0.453000	0.775000
C431	C43	0.335300	0.470930	0.941400
C441	C44	0.412500	0.521500	0.008700
H271	H27	0.465000	0.509000	0.093000
C451	C45	0.413600	0.586000	0.949200
H281	H28	0.460000	0.620000	0.987000
C461	C46	0.343700	0.668310	0.754900
C471	C47	0.339100	0.397430	0.005600
C481	C48	0.413800	0.911800	0.602400
H291	H29	0.389000	0.916000	0.637000
C491	C49	0.443300	0.975100	0.574400
H301	H30	0.428000	0.019000	0.588000
C501	C50	0.484700	0.966100	0.517000
C511	C51	0.493200	0.890700	0.488900
H311	H31	0.523000	0.878000	0.453000
C521	C52	0.463600	0.828300	0.519700
H321	H32	0.470000	0.777000	0.509000
O211	O21	0.924640	0.800010	0.313600
O221	O22	0.769690	0.813390	0.144900
O231	O23	0.911470	0.111850	0.620100
O241	O24	0.769550	0.148870	0.438600
O251	O25	0.900250	0.720930	0.110700
N51	N5	0.925930	0.660100	0.077200
C531	C53	0.838100	0.897710	0.322500
C541	C54	0.760100	0.946800	0.256300
H331	H33	0.705000	0.929000	0.159000
C551	C55	0.759500	0.012800	0.315600
H341	H34	0.710000	0.047000	0.275000
C561	C56	0.835300	0.029070	0.441400
C571	C57	0.912500	0.978500	0.508700
H351	H35	0.965000	0.991000	0.593000
C581	C58	0.913600	0.914000	0.449200
H361	H36	0.960000	0.880000	0.487000
C591	C59	0.843700	0.831690	0.254900
C601	C60	0.839100	0.102570	0.505600
C611	C61	0.913800	0.588200	0.102400
H371	H37	0.889000	0.584000	0.137000
C621	C62	0.943300	0.524900	0.074400
H381	H38	0.928000	0.481000	0.088000
C631	C63	0.984700	0.533900	0.017000
C641	C64	0.993200	0.609300	0.988900
H391	H39	0.023000	0.622000	0.953000
C651	C65	0.963600	0.671700	0.019700
H401	H40	0.970000	0.723000	0.009000
O261	O26	0.424640	0.300010	0.313600
O271	O27	0.269690	0.313390	0.144900
O281	O28	0.411470	0.611850	0.620100
O291	O29	0.269550	0.648870	0.438600
O301	O30	0.400250	0.220930	0.110700
N61	N6	0.425930	0.160100	0.077200
C661	C66	0.338100	0.397710	0.322500
C671	C67	0.260100	0.446800	0.256300
H411	H41	0.205000	0.429000	0.159000
C681	C68	0.259500	0.512800	0.315600
H421	H42	0.210000	0.547000	0.275000
C691	C69	0.335300	0.529070	0.441400
C701	C70	0.412500	0.478500	0.508700
H431	H43	0.465000	0.491000	0.593000
C711	C71	0.413600	0.414000	0.449200
H441	H44	0.460000	0.380000	0.487000
C721	C72	0.343700	0.331690	0.254900
C731	C73	0.339100	0.602570	0.505600
C741	C74	0.413800	0.088200	0.102400
H451	H45	0.389000	0.084000	0.137000
C751	C75	0.443300	0.024900	0.074400
H461	H46	0.428000	0.981000	0.088000
C761	C76	0.484700	0.033900	0.017000
C771	C77	0.493200	0.109300	0.988900
H471	H47	0.523000	0.122000	0.953000
C781	C78	0.463600	0.171700	0.019700
H481	H48	0.470000	0.223000	0.009000
O311	O31	0.075360	0.800010	0.186400
O321	O32	0.230310	0.813390	0.355100
O331	O33	0.088530	0.111850	0.879900
O341	O34	0.230450	0.148870	0.061400
O351	O35	0.099750	0.720930	0.389300
N71	N7	0.074070	0.660100	0.422800
C791	C79	0.161900	0.897710	0.177500
C801	C80	0.239900	0.946800	0.243700
H491	H49	0.295000	0.929000	0.341000
C811	C81	0.240500	0.012800	0.184400
H501	H50	0.290000	0.047000	0.225000
C821	C82	0.164700	0.029070	0.058600
C831	C83	0.087500	0.978500	0.991300
H511	H51	0.035000	0.991000	0.907000
C841	C84	0.086400	0.914000	0.050800
H521	H52	0.040000	0.880000	0.013000
C851	C85	0.156300	0.831690	0.245100
C861	C86	0.160900	0.102570	0.994400
C871	C87	0.086200	0.588200	0.397600
H531	H53	0.111000	0.584000	0.363000
C881	C88	0.056700	0.524900	0.425600
H541	H54	0.072000	0.481000	0.412000
C891	C89	0.015300	0.533900	0.483000
C901	C90	0.006800	0.609300	0.511100
H551	H55	0.977000	0.622000	0.547000
C911	C91	0.036400	0.671700	0.480300
H561	H56	0.030000	0.723000	0.491000
O361	O36	0.575360	0.300010	0.186400
O371	O37	0.730310	0.313390	0.355100
O381	O38	0.588530	0.611850	0.879900
O391	O39	0.730450	0.648870	0.061400
O401	O40	0.599750	0.220930	0.389300
N81	N8	0.574070	0.160100	0.422800
C921	C92	0.661900	0.397710	0.177500
C931	C93	0.739900	0.446800	0.243700
H571	H57	0.795000	0.429000	0.341000
C941	C94	0.740500	0.512800	0.184400
H581	H58	0.790000	0.547000	0.225000
C951	C95	0.664700	0.529070	0.058600
C961	C96	0.587500	0.478500	0.991300
H591	H59	0.535000	0.491000	0.907000
C971	C97	0.586400	0.414000	0.050800
H601	H60	0.540000	0.380000	0.013000
C981	C98	0.656300	0.331690	0.245100
C991	C99	0.660900	0.602570	0.994400
C1001	C100	0.586200	0.088200	0.397600
H611	H61	0.611000	0.084000	0.363000
C1011	C101	0.556700	0.024900	0.425600
H621	H62	0.572000	0.981000	0.412000
C1021	C102	0.515300	0.033900	0.483000
C1031	C103	0.506800	0.109300	0.511100
H631	H63	0.477000	0.122000	0.547000
C1041	C104	0.536400	0.171700	0.480300
H641	H64	0.530000	0.223000	0.491000
Mg11	Mg1	0.000000	0.194460	0.750000
Mg21	Mg2	0.500000	0.694460	0.750000
Mg31	Mg3	0.000000	0.805540	0.250000
Mg41	Mg4	0.500000	0.305540	0.250000
Mg51	Mg5	0.250000	0.250000	0.000000
Mg61	Mg6	0.750000	0.250000	0.500000
Mg71	Mg7	0.750000	0.750000	0.000000
Mg81	Mg8	0.250000	0.750000	0.500000
