data_HOQMIL01_freeONLY_PM
_symmetry_space_group_name_H-M	'P1'
_cell_length_a	18.054100
_cell_length_b	17.252700
_cell_length_c	13.412800
_cell_angle_alpha	90.000000
_cell_angle_beta	129.274000
_cell_angle_gamma	90.000000
_symmetry_Int_Tables_number 1

loop_
_symmetry_equiv_pos_as_xyz
'x,y,z'

loop_
_atom_site_label
_atom_site_type_symbol
_atom_site_fract_x
_atom_site_fract_y
_atom_site_fract_z
O11	O1	0.075490	0.299570	0.185330
O21	O2	0.229920	0.313510	0.354590
O31	O3	0.088410	0.612570	0.879900
O41	O4	0.230290	0.649390	0.062270
O51	O5	0.099950	0.220880	0.389670
N11	N1	0.074110	0.160200	0.422800
C11	C1	0.161500	0.398270	0.177200
C21	C2	0.086200	0.414300	0.049700
H11	H1	0.037000	0.382000	0.010000
C31	C3	0.087500	0.479200	0.990500
H21	H2	0.037000	0.493000	0.903000
C41	C4	0.164300	0.529760	0.058400
C51	C5	0.240100	0.513600	0.185700
H31	H3	0.291000	0.552000	0.230000
C61	C6	0.239000	0.447900	0.243900
H41	H4	0.286000	0.443000	0.333000
C71	C7	0.156000	0.331470	0.244800
C81	C8	0.160700	0.603420	0.994800
C91	C9	0.036700	0.171400	0.481500
H51	H5	0.035000	0.224000	0.496000
C101	C10	0.007100	0.108800	0.512100
H61	H6	0.979000	0.120000	0.553000
C111	C11	0.015500	0.033990	0.483500
C121	C12	0.057200	0.025050	0.425300
H71	H7	0.069000	0.978000	0.404000
C131	C13	0.086700	0.088610	0.397100
H81	H8	0.119000	0.086000	0.364000
O61	O6	0.575490	0.799570	0.185330
O71	O7	0.729920	0.813510	0.354590
O81	O8	0.588410	0.112570	0.879900
O91	O9	0.730290	0.149390	0.062270
O101	O10	0.599950	0.720880	0.389670
N21	N2	0.574110	0.660200	0.422800
C141	C14	0.661500	0.898270	0.177200
C151	C15	0.586200	0.914300	0.049700
H91	H9	0.537000	0.882000	0.010000
C161	C16	0.587500	0.979200	0.990500
H101	H10	0.537000	0.993000	0.903000
C171	C17	0.664300	0.029760	0.058400
C181	C18	0.740100	0.013600	0.185700
H111	H11	0.791000	0.052000	0.230000
C191	C19	0.739000	0.947900	0.243900
H121	H12	0.786000	0.943000	0.333000
C201	C20	0.656000	0.831470	0.244800
C211	C21	0.660700	0.103420	0.994800
C221	C22	0.536700	0.671400	0.481500
H131	H13	0.535000	0.724000	0.496000
C231	C23	0.507100	0.608800	0.512100
H141	H14	0.479000	0.620000	0.553000
C241	C24	0.515500	0.533990	0.483500
C251	C25	0.557200	0.525050	0.425300
H151	H15	0.569000	0.478000	0.404000
C261	C26	0.586700	0.588610	0.397100
H161	H16	0.619000	0.586000	0.364000
O111	O11	0.924510	0.299570	0.314670
O121	O12	0.770080	0.313510	0.145410
O131	O13	0.911590	0.612570	0.620100
O141	O14	0.769710	0.649390	0.437730
O151	O15	0.900050	0.220880	0.110330
N31	N3	0.925890	0.160200	0.077200
C271	C27	0.838500	0.398270	0.322800
C281	C28	0.913800	0.414300	0.450300
H171	H17	0.963000	0.382000	0.490000
C291	C29	0.912500	0.479200	0.509500
H181	H18	0.963000	0.493000	0.597000
C301	C30	0.835700	0.529760	0.441600
C311	C31	0.759900	0.513600	0.314300
H191	H19	0.709000	0.552000	0.270000
C321	C32	0.761000	0.447900	0.256100
H201	H20	0.714000	0.443000	0.167000
C331	C33	0.844000	0.331470	0.255200
C341	C34	0.839300	0.603420	0.505200
C351	C35	0.963300	0.171400	0.018500
H211	H21	0.965000	0.224000	0.004000
C361	C36	0.992900	0.108800	0.987900
H221	H22	0.021000	0.120000	0.947000
C371	C37	0.984500	0.033990	0.016500
C381	C38	0.942800	0.025050	0.074700
H231	H23	0.931000	0.978000	0.096000
C391	C39	0.913300	0.088610	0.102900
H241	H24	0.881000	0.086000	0.136000
O161	O16	0.424510	0.799570	0.314670
O171	O17	0.270080	0.813510	0.145410
O181	O18	0.411590	0.112570	0.620100
O191	O19	0.269710	0.149390	0.437730
O201	O20	0.400050	0.720880	0.110330
N41	N4	0.425890	0.660200	0.077200
C401	C40	0.338500	0.898270	0.322800
C411	C41	0.413800	0.914300	0.450300
H251	H25	0.463000	0.882000	0.490000
C421	C42	0.412500	0.979200	0.509500
H261	H26	0.463000	0.993000	0.597000
C431	C43	0.335700	0.029760	0.441600
C441	C44	0.259900	0.013600	0.314300
H271	H27	0.209000	0.052000	0.270000
C451	C45	0.261000	0.947900	0.256100
H281	H28	0.214000	0.943000	0.167000
C461	C46	0.344000	0.831470	0.255200
C471	C47	0.339300	0.103420	0.505200
C481	C48	0.463300	0.671400	0.018500
H291	H29	0.465000	0.724000	0.004000
C491	C49	0.492900	0.608800	0.987900
H301	H30	0.521000	0.620000	0.947000
C501	C50	0.484500	0.533990	0.016500
C511	C51	0.442800	0.525050	0.074700
H311	H31	0.431000	0.478000	0.096000
C521	C52	0.413300	0.588610	0.102900
H321	H32	0.381000	0.586000	0.136000
O211	O21	0.924510	0.700430	0.814670
O221	O22	0.770080	0.686490	0.645410
O231	O23	0.911590	0.387430	0.120100
O241	O24	0.769710	0.350610	0.937730
O251	O25	0.900050	0.779120	0.610330
N51	N5	0.925890	0.839800	0.577200
C531	C53	0.838500	0.601730	0.822800
C541	C54	0.913800	0.585700	0.950300
H331	H33	0.963000	0.618000	0.990000
C551	C55	0.912500	0.520800	0.009500
H341	H34	0.963000	0.507000	0.097000
C561	C56	0.835700	0.470240	0.941600
C571	C57	0.759900	0.486400	0.814300
H351	H35	0.709000	0.448000	0.770000
C581	C58	0.761000	0.552100	0.756100
H361	H36	0.714000	0.557000	0.667000
C591	C59	0.844000	0.668530	0.755200
C601	C60	0.839300	0.396580	0.005200
C611	C61	0.963300	0.828600	0.518500
H371	H37	0.965000	0.776000	0.504000
C621	C62	0.992900	0.891200	0.487900
H381	H38	0.021000	0.880000	0.447000
C631	C63	0.984500	0.966010	0.516500
C641	C64	0.942800	0.974950	0.574700
H391	H39	0.931000	0.022000	0.596000
C651	C65	0.913300	0.911390	0.602900
H401	H40	0.881000	0.914000	0.636000
O261	O26	0.424510	0.200430	0.814670
O271	O27	0.270080	0.186490	0.645410
O281	O28	0.411590	0.887430	0.120100
O291	O29	0.269710	0.850610	0.937730
O301	O30	0.400050	0.279120	0.610330
N61	N6	0.425890	0.339800	0.577200
C661	C66	0.338500	0.101730	0.822800
C671	C67	0.413800	0.085700	0.950300
H411	H41	0.463000	0.118000	0.990000
C681	C68	0.412500	0.020800	0.009500
H421	H42	0.463000	0.007000	0.097000
C691	C69	0.335700	0.970240	0.941600
C701	C70	0.259900	0.986400	0.814300
H431	H43	0.209000	0.948000	0.770000
C711	C71	0.261000	0.052100	0.756100
H441	H44	0.214000	0.057000	0.667000
C721	C72	0.344000	0.168530	0.755200
C731	C73	0.339300	0.896580	0.005200
C741	C74	0.463300	0.328600	0.518500
H451	H45	0.465000	0.276000	0.504000
C751	C75	0.492900	0.391200	0.487900
H461	H46	0.521000	0.380000	0.447000
C761	C76	0.484500	0.466010	0.516500
C771	C77	0.442800	0.474950	0.574700
H471	H47	0.431000	0.522000	0.596000
C781	C78	0.413300	0.411390	0.602900
H481	H48	0.381000	0.414000	0.636000
O311	O31	0.075490	0.700430	0.685330
O321	O32	0.229920	0.686490	0.854590
O331	O33	0.088410	0.387430	0.379900
O341	O34	0.230290	0.350610	0.562270
O351	O35	0.099950	0.779120	0.889670
N71	N7	0.074110	0.839800	0.922800
C791	C79	0.161500	0.601730	0.677200
C801	C80	0.086200	0.585700	0.549700
H491	H49	0.037000	0.618000	0.510000
C811	C81	0.087500	0.520800	0.490500
H501	H50	0.037000	0.507000	0.403000
C821	C82	0.164300	0.470240	0.558400
C831	C83	0.240100	0.486400	0.685700
H511	H51	0.291000	0.448000	0.730000
C841	C84	0.239000	0.552100	0.743900
H521	H52	0.286000	0.557000	0.833000
C851	C85	0.156000	0.668530	0.744800
C861	C86	0.160700	0.396580	0.494800
C871	C87	0.036700	0.828600	0.981500
H531	H53	0.035000	0.776000	0.996000
C881	C88	0.007100	0.891200	0.012100
H541	H54	0.979000	0.880000	0.053000
C891	C89	0.015500	0.966010	0.983500
C901	C90	0.057200	0.974950	0.925300
H551	H55	0.069000	0.022000	0.904000
C911	C91	0.086700	0.911390	0.897100
H561	H56	0.119000	0.914000	0.864000
O361	O36	0.575490	0.200430	0.685330
O371	O37	0.729920	0.186490	0.854590
O381	O38	0.588410	0.887430	0.379900
O391	O39	0.730290	0.850610	0.562270
O401	O40	0.599950	0.279120	0.889670
N81	N8	0.574110	0.339800	0.922800
C921	C92	0.661500	0.101730	0.677200
C931	C93	0.586200	0.085700	0.549700
H571	H57	0.537000	0.118000	0.510000
C941	C94	0.587500	0.020800	0.490500
H581	H58	0.537000	0.007000	0.403000
C951	C95	0.664300	0.970240	0.558400
C961	C96	0.740100	0.986400	0.685700
H591	H59	0.791000	0.948000	0.730000
C971	C97	0.739000	0.052100	0.743900
H601	H60	0.786000	0.057000	0.833000
C981	C98	0.656000	0.168530	0.744800
C991	C99	0.660700	0.896580	0.494800
C1001	C100	0.536700	0.328600	0.981500
H611	H61	0.535000	0.276000	0.996000
C1011	C101	0.507100	0.391200	0.012100
H621	H62	0.479000	0.380000	0.053000
C1021	C102	0.515500	0.466010	0.983500
C1031	C103	0.557200	0.474950	0.925300
H631	H63	0.569000	0.522000	0.904000
C1041	C104	0.586700	0.411390	0.897100
H641	H64	0.619000	0.414000	0.864000
Mg11	Mg1	0.000000	0.304990	0.250000
Mg21	Mg2	0.500000	0.804990	0.250000
Mg31	Mg3	0.000000	0.695010	0.750000
Mg41	Mg4	0.500000	0.195010	0.750000
Mg51	Mg5	0.250000	0.250000	0.500000
Mg61	Mg6	0.750000	0.250000	0.000000
Mg71	Mg7	0.750000	0.750000	0.500000
Mg81	Mg8	0.250000	0.750000	0.000000
