data_HORHEC_freeONLY_PM
_symmetry_space_group_name_H-M	'P1'
_cell_length_a	21.297000
_cell_length_b	21.297000
_cell_length_c	15.380000
_cell_angle_alpha	90.000000
_cell_angle_beta	90.000000
_cell_angle_gamma	120.000000
_symmetry_Int_Tables_number 1

loop_
_symmetry_equiv_pos_as_xyz
'x,y,z'

loop_
_atom_site_label
_atom_site_type_symbol
_atom_site_fract_x
_atom_site_fract_y
_atom_site_fract_z
N11	N1	0.162920	0.986950	0.171300
N21	N2	0.071170	0.968420	0.087500
N31	N3	0.209340	0.134120	0.356800
N41	N4	0.098890	0.079100	0.411800
C11	C1	0.280330	0.098500	0.199100
C21	C2	0.309020	0.159400	0.253000
C31	C3	0.305600	0.107100	0.114000
H11	H1	0.286500	0.065700	0.077300
C41	C4	0.225700	0.023000	0.230300
H21	H2	0.249600	0.993400	0.234500
H31	H3	0.208600	0.026200	0.289100
C51	C5	0.122900	0.014600	0.138800
H41	H4	0.131200	0.061800	0.151600
C61	C6	0.077800	0.907400	0.087500
H51	H5	0.047600	0.864300	0.056000
C71	C7	0.133800	0.918000	0.139300
H61	H6	0.149700	0.884400	0.150900
C81	C8	0.286700	0.156700	0.347100
H71	H7	0.296700	0.122300	0.379300
H81	H8	0.316400	0.205200	0.373500
C91	C9	0.164100	0.087200	0.417500
H91	H9	0.177800	0.063200	0.458900
C101	C10	0.102500	0.123400	0.343800
H101	H10	0.063300	0.129200	0.324000
C111	C11	0.170100	0.157400	0.309800
H111	H11	0.187100	0.190700	0.262600
N51	N5	0.829590	0.320280	0.504630
N61	N6	0.737840	0.301750	0.420830
N71	N7	0.876010	0.467450	0.690130
N81	N8	0.765560	0.412430	0.745130
C121	C12	0.947000	0.431830	0.532430
C131	C13	0.975690	0.492730	0.586330
C141	C14	0.972270	0.440430	0.447330
H121	H12	0.953170	0.399030	0.410630
C151	C15	0.892370	0.356330	0.563630
H131	H13	0.916270	0.326730	0.567830
H141	H14	0.875270	0.359530	0.622430
C161	C16	0.789570	0.347930	0.472130
H151	H15	0.797870	0.395130	0.484930
C171	C17	0.744470	0.240730	0.420830
H161	H16	0.714270	0.197630	0.389330
C181	C18	0.800470	0.251330	0.472630
H171	H17	0.816370	0.217730	0.484230
C191	C19	0.953370	0.490030	0.680430
H181	H18	0.963370	0.455630	0.712630
H191	H19	0.983070	0.538530	0.706830
C201	C20	0.830770	0.420530	0.750830
H201	H20	0.844470	0.396530	0.792230
C211	C21	0.769170	0.456730	0.677130
H211	H21	0.729970	0.462530	0.657330
C221	C22	0.836770	0.490730	0.643130
H221	H22	0.853770	0.524030	0.595930
N91	N9	0.496250	0.653620	0.837970
N101	N10	0.404500	0.635090	0.754170
N111	N11	0.542670	0.800790	0.023470
N121	N12	0.432220	0.745770	0.078470
C231	C23	0.613660	0.765170	0.865770
C241	C24	0.642350	0.826070	0.919670
C251	C25	0.638930	0.773770	0.780670
H231	H23	0.619830	0.732370	0.743970
C261	C26	0.559030	0.689670	0.896970
H241	H24	0.582930	0.660070	0.901170
H251	H25	0.541930	0.692870	0.955770
C271	C27	0.456230	0.681270	0.805470
H261	H26	0.464530	0.728470	0.818270
C281	C28	0.411130	0.574070	0.754170
H271	H27	0.380930	0.530970	0.722670
C291	C29	0.467130	0.584670	0.805970
H281	H28	0.483030	0.551070	0.817570
C301	C30	0.620030	0.823370	0.013770
H291	H29	0.630030	0.788970	0.045970
H301	H30	0.649730	0.871870	0.040170
C311	C31	0.497430	0.753870	0.084170
H311	H31	0.511130	0.729870	0.125570
C321	C32	0.435830	0.790070	0.010470
H321	H32	0.396630	0.795870	0.990670
C331	C33	0.503430	0.824070	0.976470
H331	H33	0.520430	0.857370	0.929270
N131	N13	0.013050	0.175970	0.171300
N141	N14	0.031580	0.102750	0.087500
N151	N15	0.865880	0.075220	0.356800
N161	N16	0.920900	0.019790	0.411800
C341	C34	0.901500	0.181830	0.199100
C351	C35	0.840600	0.149620	0.253000
C361	C36	0.892900	0.198500	0.114000
H341	H34	0.934300	0.220800	0.077300
C371	C37	0.977000	0.202700	0.230300
H351	H35	0.006600	0.256200	0.234500
H361	H36	0.973800	0.182400	0.289100
C381	C38	0.985400	0.108300	0.138800
H371	H37	0.938200	0.069400	0.151600
C391	C39	0.092600	0.170400	0.087500
H381	H38	0.135700	0.183300	0.056000
C401	C40	0.082000	0.215800	0.139300
H391	H39	0.115600	0.265300	0.150900
C411	C41	0.843300	0.130000	0.347100
H401	H40	0.877700	0.174400	0.379300
H411	H41	0.794800	0.111200	0.373500
C421	C42	0.912800	0.076900	0.417500
H421	H42	0.936800	0.114600	0.458900
C431	C43	0.876600	0.979100	0.343800
H431	H43	0.870800	0.934100	0.324000
C441	C44	0.842600	0.012700	0.309800
H441	H44	0.809300	0.996400	0.262600
N171	N17	0.679720	0.509300	0.504630
N181	N18	0.698250	0.436080	0.420830
N191	N19	0.532550	0.408550	0.690130
N201	N20	0.587570	0.353120	0.745130
C451	C45	0.568170	0.515160	0.532430
C461	C46	0.507270	0.482950	0.586330
C471	C47	0.559570	0.531830	0.447330
H451	H45	0.600970	0.554130	0.410630
C481	C48	0.643670	0.536030	0.563630
H461	H46	0.673270	0.589530	0.567830
H471	H47	0.640470	0.515730	0.622430
C491	C49	0.652070	0.441630	0.472130
H481	H48	0.604870	0.402730	0.484930
C501	C50	0.759270	0.503730	0.420830
H491	H49	0.802370	0.516630	0.389330
C511	C51	0.748670	0.549130	0.472630
H501	H50	0.782270	0.598630	0.484230
C521	C52	0.509970	0.463330	0.680430
H511	H51	0.544370	0.507730	0.712630
H521	H52	0.461470	0.444530	0.706830
C531	C53	0.579470	0.410230	0.750830
H531	H53	0.603470	0.447930	0.792230
C541	C54	0.543270	0.312430	0.677130
H541	H54	0.537470	0.267430	0.657330
C551	C55	0.509270	0.346030	0.643130
H551	H55	0.475970	0.329730	0.595930
N211	N21	0.346380	0.842640	0.837970
N221	N22	0.364910	0.769420	0.754170
N231	N23	0.199210	0.741890	0.023470
N241	N24	0.254230	0.686460	0.078470
C561	C56	0.234830	0.848500	0.865770
C571	C57	0.173930	0.816290	0.919670
C581	C58	0.226230	0.865170	0.780670
H561	H56	0.267630	0.887470	0.743970
C591	C59	0.310330	0.869370	0.896970
H571	H57	0.339930	0.922870	0.901170
H581	H58	0.307130	0.849070	0.955770
C601	C60	0.318730	0.774970	0.805470
H591	H59	0.271530	0.736070	0.818270
C611	C61	0.425930	0.837070	0.754170
H601	H60	0.469030	0.849970	0.722670
C621	C62	0.415330	0.882470	0.805970
H611	H61	0.448930	0.931970	0.817570
C631	C63	0.176630	0.796670	0.013770
H621	H62	0.211030	0.841070	0.045970
H631	H63	0.128130	0.777870	0.040170
C641	C64	0.246130	0.743570	0.084170
H641	H64	0.270130	0.781270	0.125570
C651	C65	0.209930	0.645770	0.010470
H651	H65	0.204130	0.600770	0.990670
C661	C66	0.175930	0.679370	0.976470
H661	H66	0.142630	0.663070	0.929270
N251	N25	0.824030	0.837080	0.171300
N261	N26	0.897250	0.928830	0.087500
N271	N27	0.924780	0.790660	0.356800
N281	N28	0.980210	0.901110	0.411800
C671	C67	0.818170	0.719670	0.199100
C681	C68	0.850380	0.690980	0.253000
C691	C69	0.801500	0.694400	0.114000
H671	H67	0.779200	0.713500	0.077300
C701	C70	0.797300	0.774300	0.230300
H681	H68	0.743800	0.750400	0.234500
H691	H69	0.817600	0.791400	0.289100
C711	C71	0.891700	0.877100	0.138800
H701	H70	0.930600	0.868800	0.151600
C721	C72	0.829600	0.922200	0.087500
H711	H71	0.816700	0.952400	0.056000
C731	C73	0.784200	0.866200	0.139300
H721	H72	0.734700	0.850300	0.150900
C741	C74	0.870000	0.713300	0.347100
H731	H73	0.825600	0.703300	0.379300
H741	H74	0.888800	0.683600	0.373500
C751	C75	0.923100	0.835900	0.417500
H751	H75	0.885400	0.822200	0.458900
C761	C76	0.020900	0.897500	0.343800
H761	H76	0.065900	0.936700	0.324000
C771	C77	0.987300	0.829900	0.309800
H771	H77	0.003600	0.812900	0.262600
N291	N29	0.490700	0.170410	0.504630
N301	N30	0.563920	0.262160	0.420830
N311	N31	0.591450	0.123990	0.690130
N321	N32	0.646880	0.234440	0.745130
C781	C78	0.484840	0.053000	0.532430
C791	C79	0.517050	0.024310	0.586330
C801	C80	0.468170	0.027730	0.447330
H781	H78	0.445870	0.046830	0.410630
C811	C81	0.463970	0.107630	0.563630
H791	H79	0.410470	0.083730	0.567830
H801	H80	0.484270	0.124730	0.622430
C821	C82	0.558370	0.210430	0.472130
H811	H81	0.597270	0.202130	0.484930
C831	C83	0.496270	0.255530	0.420830
H821	H82	0.483370	0.285730	0.389330
C841	C84	0.450870	0.199530	0.472630
H831	H83	0.401370	0.183630	0.484230
C851	C85	0.536670	0.046630	0.680430
H841	H84	0.492270	0.036630	0.712630
H851	H85	0.555470	0.016930	0.706830
C861	C86	0.589770	0.169230	0.750830
H861	H86	0.552070	0.155530	0.792230
C871	C87	0.687570	0.230830	0.677130
H871	H87	0.732570	0.270030	0.657330
C881	C88	0.653970	0.163230	0.643130
H881	H88	0.670270	0.146230	0.595930
N331	N33	0.157360	0.503750	0.837970
N341	N34	0.230580	0.595500	0.754170
N351	N35	0.258110	0.457330	0.023470
N361	N36	0.313540	0.567780	0.078470
C891	C89	0.151500	0.386340	0.865770
C901	C90	0.183710	0.357650	0.919670
C911	C91	0.134830	0.361070	0.780670
H891	H89	0.112530	0.380170	0.743970
C921	C92	0.130630	0.440970	0.896970
H901	H90	0.077130	0.417070	0.901170
H911	H91	0.150930	0.458070	0.955770
C931	C93	0.225030	0.543770	0.805470
H921	H92	0.263930	0.535470	0.818270
C941	C94	0.162930	0.588870	0.754170
H931	H93	0.150030	0.619070	0.722670
C951	C95	0.117530	0.532870	0.805970
H941	H94	0.068030	0.516970	0.817570
C961	C96	0.203330	0.379970	0.013770
H951	H95	0.158930	0.369970	0.045970
H961	H96	0.222130	0.350270	0.040170
C971	C97	0.256430	0.502570	0.084170
H971	H97	0.218730	0.488870	0.125570
C981	C98	0.354230	0.564170	0.010470
H981	H98	0.399230	0.603370	0.990670
C991	C99	0.320630	0.496570	0.976470
H991	H99	0.336930	0.479570	0.929270
N371	N37	0.837080	0.013050	0.828700
N381	N38	0.928830	0.031580	0.912500
N391	N39	0.790660	0.865880	0.643200
N401	N40	0.901110	0.920900	0.588200
C1001	C100	0.719670	0.901500	0.800900
C1011	C101	0.690980	0.840600	0.747000
C1021	C102	0.694400	0.892900	0.886000
H1001	H100	0.713500	0.934300	0.922700
C1031	C103	0.774300	0.977000	0.769700
H1011	H101	0.750400	0.006600	0.765500
H1021	H102	0.791400	0.973800	0.710900
C1041	C104	0.877100	0.985400	0.861200
H1031	H103	0.868800	0.938200	0.848400
C1051	C105	0.922200	0.092600	0.912500
H1041	H104	0.952400	0.135700	0.944000
C1061	C106	0.866200	0.082000	0.860700
H1051	H105	0.850300	0.115600	0.849100
C1071	C107	0.713300	0.843300	0.652900
H1061	H106	0.703300	0.877700	0.620700
H1071	H107	0.683600	0.794800	0.626500
C1081	C108	0.835900	0.912800	0.582500
H1081	H108	0.822200	0.936800	0.541100
C1091	C109	0.897500	0.876600	0.656200
H1091	H109	0.936700	0.870800	0.676000
C1101	C110	0.829900	0.842600	0.690200
H1101	H110	0.812900	0.809300	0.737400
N411	N41	0.503750	0.346380	0.162030
N421	N42	0.595500	0.364910	0.245830
N431	N43	0.457330	0.199210	0.976530
N441	N44	0.567780	0.254230	0.921530
C1111	C111	0.386340	0.234830	0.134230
C1121	C112	0.357650	0.173930	0.080330
C1131	C113	0.361070	0.226230	0.219330
H1111	H111	0.380170	0.267630	0.256030
C1141	C114	0.440970	0.310330	0.103030
H1121	H112	0.417070	0.339930	0.098830
H1131	H113	0.458070	0.307130	0.044230
C1151	C115	0.543770	0.318730	0.194530
H1141	H114	0.535470	0.271530	0.181730
C1161	C116	0.588870	0.425930	0.245830
H1151	H115	0.619070	0.469030	0.277330
C1171	C117	0.532870	0.415330	0.194030
H1161	H116	0.516970	0.448930	0.182430
C1181	C118	0.379970	0.176630	0.986230
H1171	H117	0.369970	0.211030	0.954030
H1181	H118	0.350270	0.128130	0.959830
C1191	C119	0.502570	0.246130	0.915830
H1191	H119	0.488870	0.270130	0.874430
C1201	C120	0.564170	0.209930	0.989530
H1201	H120	0.603370	0.204130	0.009330
C1211	C121	0.496570	0.175930	0.023530
H1211	H121	0.479570	0.142630	0.070730
N451	N45	0.170410	0.679720	0.495370
N461	N46	0.262160	0.698250	0.579170
N471	N47	0.123990	0.532550	0.309870
N481	N48	0.234440	0.587570	0.254870
C1221	C122	0.053000	0.568170	0.467570
C1231	C123	0.024310	0.507270	0.413670
C1241	C124	0.027730	0.559570	0.552670
H1221	H122	0.046830	0.600970	0.589370
C1251	C125	0.107630	0.643670	0.436370
H1231	H123	0.083730	0.673270	0.432170
H1241	H124	0.124730	0.640470	0.377570
C1261	C126	0.210430	0.652070	0.527870
H1251	H125	0.202130	0.604870	0.515070
C1271	C127	0.255530	0.759270	0.579170
H1261	H126	0.285730	0.802370	0.610670
C1281	C128	0.199530	0.748670	0.527370
H1271	H127	0.183630	0.782270	0.515770
C1291	C129	0.046630	0.509970	0.319570
H1281	H128	0.036630	0.544370	0.287370
H1291	H129	0.016930	0.461470	0.293170
C1301	C130	0.169230	0.579470	0.249170
H1301	H130	0.155530	0.603470	0.207770
C1311	C131	0.230830	0.543270	0.322870
H1311	H131	0.270030	0.537470	0.342670
C1321	C132	0.163230	0.509270	0.356870
H1321	H132	0.146230	0.475970	0.404070
N491	N49	0.986950	0.824030	0.828700
N501	N50	0.968420	0.897250	0.912500
N511	N51	0.134120	0.924780	0.643200
N521	N52	0.079100	0.980210	0.588200
C1331	C133	0.098500	0.818170	0.800900
C1341	C134	0.159400	0.850380	0.747000
C1351	C135	0.107100	0.801500	0.886000
H1331	H133	0.065700	0.779200	0.922700
C1361	C136	0.023000	0.797300	0.769700
H1341	H134	0.993400	0.743800	0.765500
H1351	H135	0.026200	0.817600	0.710900
C1371	C137	0.014600	0.891700	0.861200
H1361	H136	0.061800	0.930600	0.848400
C1381	C138	0.907400	0.829600	0.912500
H1371	H137	0.864300	0.816700	0.944000
C1391	C139	0.918000	0.784200	0.860700
H1381	H138	0.884400	0.734700	0.849100
C1401	C140	0.156700	0.870000	0.652900
H1391	H139	0.122300	0.825600	0.620700
H1401	H140	0.205200	0.888800	0.626500
C1411	C141	0.087200	0.923100	0.582500
H1411	H141	0.063200	0.885400	0.541100
C1421	C142	0.123400	0.020900	0.656200
H1421	H142	0.129200	0.065900	0.676000
C1431	C143	0.157400	0.987300	0.690200
H1431	H143	0.190700	0.003600	0.737400
N531	N53	0.653620	0.157360	0.162030
N541	N54	0.635090	0.230580	0.245830
N551	N55	0.800790	0.258110	0.976530
N561	N56	0.745770	0.313540	0.921530
C1441	C144	0.765170	0.151500	0.134230
C1451	C145	0.826070	0.183710	0.080330
C1461	C146	0.773770	0.134830	0.219330
H1441	H144	0.732370	0.112530	0.256030
C1471	C147	0.689670	0.130630	0.103030
H1451	H145	0.660070	0.077130	0.098830
H1461	H146	0.692870	0.150930	0.044230
C1481	C148	0.681270	0.225030	0.194530
H1471	H147	0.728470	0.263930	0.181730
C1491	C149	0.574070	0.162930	0.245830
H1481	H148	0.530970	0.150030	0.277330
C1501	C150	0.584670	0.117530	0.194030
H1491	H149	0.551070	0.068030	0.182430
C1511	C151	0.823370	0.203330	0.986230
H1501	H150	0.788970	0.158930	0.954030
H1511	H151	0.871870	0.222130	0.959830
C1521	C152	0.753870	0.256430	0.915830
H1521	H152	0.729870	0.218730	0.874430
C1531	C153	0.790070	0.354230	0.989530
H1531	H153	0.795870	0.399230	0.009330
C1541	C154	0.824070	0.320630	0.023530
H1541	H154	0.857370	0.336930	0.070730
N571	N57	0.320280	0.490700	0.495370
N581	N58	0.301750	0.563920	0.579170
N591	N59	0.467450	0.591450	0.309870
N601	N60	0.412430	0.646880	0.254870
C1551	C155	0.431830	0.484840	0.467570
C1561	C156	0.492730	0.517050	0.413670
C1571	C157	0.440430	0.468170	0.552670
H1551	H155	0.399030	0.445870	0.589370
C1581	C158	0.356330	0.463970	0.436370
H1561	H156	0.326730	0.410470	0.432170
H1571	H157	0.359530	0.484270	0.377570
C1591	C159	0.347930	0.558370	0.527870
H1581	H158	0.395130	0.597270	0.515070
C1601	C160	0.240730	0.496270	0.579170
H1591	H159	0.197630	0.483370	0.610670
C1611	C161	0.251330	0.450870	0.527370
H1601	H160	0.217730	0.401370	0.515770
C1621	C162	0.490030	0.536670	0.319570
H1611	H161	0.455630	0.492270	0.287370
H1621	H162	0.538530	0.555470	0.293170
C1631	C163	0.420530	0.589770	0.249170
H1631	H163	0.396530	0.552070	0.207770
C1641	C164	0.456730	0.687570	0.322870
H1641	H164	0.462530	0.732570	0.342670
C1651	C165	0.490730	0.653970	0.356870
H1651	H165	0.524030	0.670270	0.404070
N611	N61	0.175970	0.162920	0.828700
N621	N62	0.102750	0.071170	0.912500
N631	N63	0.075220	0.209340	0.643200
N641	N64	0.019790	0.098890	0.588200
C1661	C166	0.181830	0.280330	0.800900
C1671	C167	0.149620	0.309020	0.747000
C1681	C168	0.198500	0.305600	0.886000
H1661	H166	0.220800	0.286500	0.922700
C1691	C169	0.202700	0.225700	0.769700
H1671	H167	0.256200	0.249600	0.765500
H1681	H168	0.182400	0.208600	0.710900
C1701	C170	0.108300	0.122900	0.861200
H1691	H169	0.069400	0.131200	0.848400
C1711	C171	0.170400	0.077800	0.912500
H1701	H170	0.183300	0.047600	0.944000
C1721	C172	0.215800	0.133800	0.860700
H1711	H171	0.265300	0.149700	0.849100
C1731	C173	0.130000	0.286700	0.652900
H1721	H172	0.174400	0.296700	0.620700
H1731	H173	0.111200	0.316400	0.626500
C1741	C174	0.076900	0.164100	0.582500
H1741	H174	0.114600	0.177800	0.541100
C1751	C175	0.979100	0.102500	0.656200
H1751	H175	0.934100	0.063300	0.676000
C1761	C176	0.012700	0.170100	0.690200
H1761	H176	0.996400	0.187100	0.737400
N651	N65	0.842640	0.496250	0.162030
N661	N66	0.769420	0.404500	0.245830
N671	N67	0.741890	0.542670	0.976530
N681	N68	0.686460	0.432220	0.921530
C1771	C177	0.848500	0.613660	0.134230
C1781	C178	0.816290	0.642350	0.080330
C1791	C179	0.865170	0.638930	0.219330
H1771	H177	0.887470	0.619830	0.256030
C1801	C180	0.869370	0.559030	0.103030
H1781	H178	0.922870	0.582930	0.098830
H1791	H179	0.849070	0.541930	0.044230
C1811	C181	0.774970	0.456230	0.194530
H1801	H180	0.736070	0.464530	0.181730
C1821	C182	0.837070	0.411130	0.245830
H1811	H181	0.849970	0.380930	0.277330
C1831	C183	0.882470	0.467130	0.194030
H1821	H182	0.931970	0.483030	0.182430
C1841	C184	0.796670	0.620030	0.986230
H1831	H183	0.841070	0.630030	0.954030
H1841	H184	0.777870	0.649730	0.959830
C1851	C185	0.743570	0.497430	0.915830
H1851	H185	0.781270	0.511130	0.874430
C1861	C186	0.645770	0.435830	0.989530
H1861	H186	0.600770	0.396630	0.009330
C1871	C187	0.679370	0.503430	0.023530
H1871	H187	0.663070	0.520430	0.070730
N691	N69	0.509300	0.829590	0.495370
N701	N70	0.436080	0.737840	0.579170
N711	N71	0.408550	0.876010	0.309870
N721	N72	0.353120	0.765560	0.254870
C1881	C188	0.515160	0.947000	0.467570
C1891	C189	0.482950	0.975690	0.413670
C1901	C190	0.531830	0.972270	0.552670
H1881	H188	0.554130	0.953170	0.589370
C1911	C191	0.536030	0.892370	0.436370
H1891	H189	0.589530	0.916270	0.432170
H1901	H190	0.515730	0.875270	0.377570
C1921	C192	0.441630	0.789570	0.527870
H1911	H191	0.402730	0.797870	0.515070
C1931	C193	0.503730	0.744470	0.579170
H1921	H192	0.516630	0.714270	0.610670
C1941	C194	0.549130	0.800470	0.527370
H1931	H193	0.598630	0.816370	0.515770
C1951	C195	0.463330	0.953370	0.319570
H1941	H194	0.507730	0.963370	0.287370
H1951	H195	0.444530	0.983070	0.293170
C1961	C196	0.410230	0.830770	0.249170
H1961	H196	0.447930	0.844470	0.207770
C1971	C197	0.312430	0.769170	0.322870
H1971	H197	0.267430	0.729970	0.342670
C1981	C198	0.346030	0.836770	0.356870
H1981	H198	0.329730	0.853770	0.404070
Cd11	Cd1	0.000000	0.000000	0.000000
Cd21	Cd2	0.666670	0.333330	0.333330
Cd31	Cd3	0.333330	0.666670	0.666670
Cd41	Cd4	0.000000	0.000000	0.500000
Cd51	Cd5	0.666670	0.333330	0.833330
Cd61	Cd6	0.333330	0.666670	0.166670
