data_HORHIG_freeONLY_PM
_symmetry_space_group_name_H-M	'P1'
_cell_length_a	21.218000
_cell_length_b	21.218000
_cell_length_c	15.259000
_cell_angle_alpha	90.000000
_cell_angle_beta	90.000000
_cell_angle_gamma	120.000000
_symmetry_Int_Tables_number 1

loop_
_symmetry_equiv_pos_as_xyz
'x,y,z'

loop_
_atom_site_label
_atom_site_type_symbol
_atom_site_fract_x
_atom_site_fract_y
_atom_site_fract_z
N11	N1	0.075820	0.209830	0.141980
N21	N2	0.020330	0.098910	0.088440
N31	N3	0.176810	0.163470	0.327310
N41	N4	0.102970	0.071790	0.411540
C11	C1	0.149910	0.309200	0.246030
C21	C2	0.182820	0.281300	0.299850
C31	C3	0.133910	0.360650	0.279970
H11	H1	0.111100	0.379500	0.243300
C41	C4	0.130880	0.287420	0.151330
H21	H2	0.112100	0.317400	0.124700
H31	H3	0.175400	0.297300	0.119200
C51	C5	0.077490	0.164100	0.082340
H41	H4	0.115500	0.177400	0.040800
C61	C6	0.979760	0.103290	0.155800
H51	H5	0.934800	0.064100	0.175900
C71	C7	0.013080	0.171510	0.189400
H61	H6	0.996400	0.189100	0.236100
C81	C8	0.204450	0.227100	0.268730
H71	H7	0.185100	0.210600	0.208900
H81	H8	0.258200	0.251300	0.265800
C91	C9	0.108960	0.124150	0.360000
H91	H9	0.070300	0.133100	0.347300
C101	C10	0.169800	0.077240	0.410600
H101	H10	0.182200	0.046200	0.441800
C111	C11	0.215810	0.133260	0.359100
H111	H11	0.265400	0.148500	0.347300
N51	N5	0.742490	0.543160	0.475310
N61	N6	0.687000	0.432240	0.421770
N71	N7	0.843480	0.496800	0.660640
N81	N8	0.769640	0.405120	0.744870
C121	C12	0.816580	0.642530	0.579360
C131	C13	0.849490	0.614630	0.633180
C141	C14	0.800580	0.693980	0.613300
H121	H12	0.777770	0.712830	0.576630
C151	C15	0.797550	0.620750	0.484660
H131	H13	0.778770	0.650730	0.458030
H141	H14	0.842070	0.630630	0.452530
C161	C16	0.744160	0.497430	0.415670
H151	H15	0.782170	0.510730	0.374130
C171	C17	0.646430	0.436620	0.489130
H161	H16	0.601470	0.397430	0.509230
C181	C18	0.679750	0.504840	0.522730
H171	H17	0.663070	0.522430	0.569430
C191	C19	0.871120	0.560430	0.602060
H181	H18	0.851770	0.543930	0.542230
H191	H19	0.924870	0.584630	0.599130
C201	C20	0.775630	0.457480	0.693330
H201	H20	0.736970	0.466430	0.680630
C211	C21	0.836470	0.410570	0.743930
H211	H21	0.848870	0.379530	0.775130
C221	C22	0.882480	0.466590	0.692430
H221	H22	0.932070	0.481830	0.680630
N91	N9	0.409150	0.876500	0.808650
N101	N10	0.353660	0.765580	0.755110
N111	N11	0.510140	0.830140	0.993980
N121	N12	0.436300	0.738460	0.078210
C231	C23	0.483240	0.975870	0.912700
C241	C24	0.516150	0.947970	0.966520
C251	C25	0.467240	0.027320	0.946640
H231	H23	0.444430	0.046170	0.909970
C261	C26	0.464210	0.954090	0.818000
H241	H24	0.445430	0.984070	0.791370
H251	H25	0.508730	0.963970	0.785870
C271	C27	0.410820	0.830770	0.749010
H261	H26	0.448830	0.844070	0.707470
C281	C28	0.313090	0.769960	0.822470
H271	H27	0.268130	0.730770	0.842570
C291	C29	0.346410	0.838180	0.856070
H281	H28	0.329730	0.855770	0.902770
C301	C30	0.537780	0.893770	0.935400
H291	H29	0.518430	0.877270	0.875570
H301	H30	0.591530	0.917970	0.932470
C311	C31	0.442290	0.790820	0.026670
H311	H31	0.403630	0.799770	0.013970
C321	C32	0.503130	0.743910	0.077270
H321	H32	0.515530	0.712870	0.108470
C331	C33	0.549140	0.799930	0.025770
H331	H33	0.598730	0.815170	0.013970
N131	N13	0.790170	0.865990	0.141980
N141	N14	0.901090	0.921420	0.088440
N151	N15	0.836530	0.013340	0.327310
N161	N16	0.928210	0.031180	0.411540
C341	C34	0.690800	0.840710	0.246030
C351	C35	0.718700	0.901520	0.299850
C361	C36	0.639350	0.773260	0.279970
H341	H34	0.620500	0.731600	0.243300
C371	C37	0.712580	0.843460	0.151330
H351	H35	0.682600	0.794700	0.124700
H361	H36	0.702700	0.878100	0.119200
C381	C38	0.835900	0.913390	0.082340
H371	H37	0.822600	0.938100	0.040800
C391	C39	0.896710	0.876470	0.155800
H381	H38	0.935900	0.870700	0.175900
C401	C40	0.828490	0.841570	0.189400
H391	H39	0.810900	0.807300	0.236100
C411	C41	0.772900	0.977350	0.268730
H401	H40	0.789400	0.974500	0.208900
H411	H41	0.748700	0.006900	0.265800
C421	C42	0.875850	0.984810	0.360000
H421	H42	0.866900	0.937200	0.347300
C431	C43	0.922760	0.092560	0.410600
H431	H43	0.953800	0.136000	0.441800
C441	C44	0.866740	0.082550	0.359100
H441	H44	0.851500	0.116900	0.347300
N171	N17	0.456840	0.199320	0.475310
N181	N18	0.567760	0.254750	0.421770
N191	N19	0.503200	0.346670	0.660640
N201	N20	0.594880	0.364510	0.744870
C451	C45	0.357470	0.174040	0.579360
C461	C46	0.385370	0.234850	0.633180
C471	C47	0.306020	0.106590	0.613300
H451	H45	0.287170	0.064930	0.576630
C481	C48	0.379250	0.176790	0.484660
H461	H46	0.349270	0.128030	0.458030
H471	H47	0.369370	0.211430	0.452530
C491	C49	0.502570	0.246720	0.415670
H481	H48	0.489270	0.271430	0.374130
C501	C50	0.563380	0.209800	0.489130
H491	H49	0.602570	0.204030	0.509230
C511	C51	0.495160	0.174900	0.522730
H501	H50	0.477570	0.140630	0.569430
C521	C52	0.439570	0.310680	0.602060
H511	H51	0.456070	0.307830	0.542230
H521	H52	0.415370	0.340230	0.599130
C531	C53	0.542520	0.318140	0.693330
H531	H53	0.533570	0.270530	0.680630
C541	C54	0.589430	0.425890	0.743930
H541	H54	0.620470	0.469330	0.775130
C551	C55	0.533410	0.415880	0.692430
H551	H55	0.518170	0.450230	0.680630
N211	N21	0.123500	0.532660	0.808650
N221	N22	0.234420	0.588090	0.755110
N231	N23	0.169860	0.680010	0.993980
N241	N24	0.261540	0.697850	0.078210
C561	C56	0.024130	0.507380	0.912700
C571	C57	0.052030	0.568190	0.966520
C581	C58	0.972680	0.439930	0.946640
H561	H56	0.953830	0.398270	0.909970
C591	C59	0.045910	0.510130	0.818000
H571	H57	0.015930	0.461370	0.791370
H581	H58	0.036030	0.544770	0.785870
C601	C60	0.169230	0.580060	0.749010
H591	H59	0.155930	0.604770	0.707470
C611	C61	0.230040	0.543140	0.822470
H601	H60	0.269230	0.537370	0.842570
C621	C62	0.161820	0.508240	0.856070
H611	H61	0.144230	0.473970	0.902770
C631	C63	0.106230	0.644020	0.935400
H621	H62	0.122730	0.641170	0.875570
H631	H63	0.082030	0.673570	0.932470
C641	C64	0.209180	0.651480	0.026670
H641	H64	0.200230	0.603870	0.013970
C651	C65	0.256090	0.759230	0.077270
H651	H65	0.287130	0.802670	0.108470
C661	C66	0.200070	0.749220	0.025770
H661	H66	0.184830	0.783570	0.013970
N251	N25	0.134010	0.924180	0.141980
N261	N26	0.078580	0.979670	0.088440
N271	N27	0.986660	0.823190	0.327310
N281	N28	0.968820	0.897030	0.411540
C671	C67	0.159290	0.850090	0.246030
C681	C68	0.098480	0.817180	0.299850
C691	C69	0.226740	0.866090	0.279970
H671	H67	0.268400	0.888900	0.243300
C701	C70	0.156540	0.869120	0.151330
H681	H68	0.205300	0.887900	0.124700
H691	H69	0.121900	0.824600	0.119200
C711	C71	0.086610	0.922510	0.082340
H701	H70	0.061900	0.884500	0.040800
C721	C72	0.123530	0.020240	0.155800
H711	H71	0.129300	0.065200	0.175900
C731	C73	0.158430	0.986920	0.189400
H721	H72	0.192700	0.003600	0.236100
C741	C74	0.022650	0.795550	0.268730
H731	H73	0.025500	0.814900	0.208900
H741	H74	0.993100	0.741800	0.265800
C751	C75	0.015190	0.891040	0.360000
H751	H75	0.062800	0.929700	0.347300
C761	C76	0.907440	0.830200	0.410600
H761	H76	0.864000	0.817800	0.441800
C771	C77	0.917450	0.784190	0.359100
H771	H77	0.883100	0.734600	0.347300
N291	N29	0.800680	0.257510	0.475310
N301	N30	0.745250	0.313000	0.421770
N311	N31	0.653330	0.156520	0.660640
N321	N32	0.635490	0.230360	0.744870
C781	C78	0.825960	0.183420	0.579360
C791	C79	0.765150	0.150510	0.633180
C801	C80	0.893410	0.199420	0.613300
H781	H78	0.935070	0.222230	0.576630
C811	C81	0.823210	0.202450	0.484660
H791	H79	0.871970	0.221230	0.458030
H801	H80	0.788570	0.157930	0.452530
C821	C82	0.753280	0.255840	0.415670
H811	H81	0.728570	0.217830	0.374130
C831	C83	0.790200	0.353570	0.489130
H821	H82	0.795970	0.398530	0.509230
C841	C84	0.825100	0.320250	0.522730
H831	H83	0.859370	0.336930	0.569430
C851	C85	0.689320	0.128880	0.602060
H841	H84	0.692170	0.148230	0.542230
H851	H85	0.659770	0.075130	0.599130
C861	C86	0.681860	0.224370	0.693330
H861	H86	0.729470	0.263030	0.680630
C871	C87	0.574110	0.163530	0.743930
H871	H87	0.530670	0.151130	0.775130
C881	C88	0.584120	0.117520	0.692430
H881	H88	0.549770	0.067930	0.680630
N331	N33	0.467340	0.590850	0.808650
N341	N34	0.411910	0.646340	0.755110
N351	N35	0.319990	0.489860	0.993980
N361	N36	0.302150	0.563700	0.078210
C891	C89	0.492620	0.516760	0.912700
C901	C90	0.431810	0.483850	0.966520
C911	C91	0.560070	0.532760	0.946640
H891	H89	0.601730	0.555570	0.909970
C921	C92	0.489870	0.535790	0.818000
H901	H90	0.538630	0.554570	0.791370
H911	H91	0.455230	0.491270	0.785870
C931	C93	0.419940	0.589180	0.749010
H921	H92	0.395230	0.551170	0.707470
C941	C94	0.456860	0.686910	0.822470
H931	H93	0.462630	0.731870	0.842570
C951	C95	0.491760	0.653590	0.856070
H941	H94	0.526030	0.670270	0.902770
C961	C96	0.355980	0.462220	0.935400
H951	H95	0.358830	0.481570	0.875570
H961	H96	0.326430	0.408470	0.932470
C971	C97	0.348520	0.557710	0.026670
H971	H97	0.396130	0.596370	0.013970
C981	C98	0.240770	0.496870	0.077270
H981	H98	0.197330	0.484470	0.108470
C991	C99	0.250780	0.450860	0.025770
H991	H99	0.216430	0.401270	0.013970
N371	N37	0.924180	0.790170	0.858020
N381	N38	0.979670	0.901090	0.911560
N391	N39	0.823190	0.836530	0.672690
N401	N40	0.897030	0.928210	0.588460
C1001	C100	0.850090	0.690800	0.753970
C1011	C101	0.817180	0.718700	0.700150
C1021	C102	0.866090	0.639350	0.720030
H1001	H100	0.888900	0.620500	0.756700
C1031	C103	0.869120	0.712580	0.848670
H1011	H101	0.887900	0.682600	0.875300
H1021	H102	0.824600	0.702700	0.880800
C1041	C104	0.922510	0.835900	0.917660
H1031	H103	0.884500	0.822600	0.959200
C1051	C105	0.020240	0.896710	0.844200
H1041	H104	0.065200	0.935900	0.824100
C1061	C106	0.986920	0.828490	0.810600
H1051	H105	0.003600	0.810900	0.763900
C1071	C107	0.795550	0.772900	0.731270
H1061	H106	0.814900	0.789400	0.791100
H1071	H107	0.741800	0.748700	0.734200
C1081	C108	0.891040	0.875850	0.640000
H1081	H108	0.929700	0.866900	0.652700
C1091	C109	0.830200	0.922760	0.589400
H1091	H109	0.817800	0.953800	0.558200
C1101	C110	0.784190	0.866740	0.640900
H1101	H110	0.734600	0.851500	0.652700
N411	N41	0.590850	0.123500	0.191350
N421	N42	0.646340	0.234420	0.244890
N431	N43	0.489860	0.169860	0.006020
N441	N44	0.563700	0.261540	0.921790
C1111	C111	0.516760	0.024130	0.087300
C1121	C112	0.483850	0.052030	0.033480
C1131	C113	0.532760	0.972680	0.053360
H1111	H111	0.555570	0.953830	0.090030
C1141	C114	0.535790	0.045910	0.182000
H1121	H112	0.554570	0.015930	0.208630
H1131	H113	0.491270	0.036030	0.214130
C1151	C115	0.589180	0.169230	0.250990
H1141	H114	0.551170	0.155930	0.292530
C1161	C116	0.686910	0.230040	0.177530
H1151	H115	0.731870	0.269230	0.157430
C1171	C117	0.653590	0.161820	0.143930
H1161	H116	0.670270	0.144230	0.097230
C1181	C118	0.462220	0.106230	0.064600
H1171	H117	0.481570	0.122730	0.124430
H1181	H118	0.408470	0.082030	0.067530
C1191	C119	0.557710	0.209180	0.973330
H1191	H119	0.596370	0.200230	0.986030
C1201	C120	0.496870	0.256090	0.922730
H1201	H120	0.484470	0.287130	0.891530
C1211	C121	0.450860	0.200070	0.974230
H1211	H121	0.401270	0.184830	0.986030
N451	N45	0.257510	0.456840	0.524690
N461	N46	0.313000	0.567760	0.578230
N471	N47	0.156520	0.503200	0.339360
N481	N48	0.230360	0.594880	0.255130
C1221	C122	0.183420	0.357470	0.420640
C1231	C123	0.150510	0.385370	0.366820
C1241	C124	0.199420	0.306020	0.386700
H1221	H122	0.222230	0.287170	0.423370
C1251	C125	0.202450	0.379250	0.515340
H1231	H123	0.221230	0.349270	0.541970
H1241	H124	0.157930	0.369370	0.547470
C1261	C126	0.255840	0.502570	0.584330
H1251	H125	0.217830	0.489270	0.625870
C1271	C127	0.353570	0.563380	0.510870
H1261	H126	0.398530	0.602570	0.490770
C1281	C128	0.320250	0.495160	0.477270
H1271	H127	0.336930	0.477570	0.430570
C1291	C129	0.128880	0.439570	0.397940
H1281	H128	0.148230	0.456070	0.457770
H1291	H129	0.075130	0.415370	0.400870
C1301	C130	0.224370	0.542520	0.306670
H1301	H130	0.263030	0.533570	0.319370
C1311	C131	0.163530	0.589430	0.256070
H1311	H131	0.151130	0.620470	0.224870
C1321	C132	0.117520	0.533410	0.307570
H1321	H132	0.067930	0.518170	0.319370
N491	N49	0.209830	0.134010	0.858020
N501	N50	0.098910	0.078580	0.911560
N511	N51	0.163470	0.986660	0.672690
N521	N52	0.071790	0.968820	0.588460
C1331	C133	0.309200	0.159290	0.753970
C1341	C134	0.281300	0.098480	0.700150
C1351	C135	0.360650	0.226740	0.720030
H1331	H133	0.379500	0.268400	0.756700
C1361	C136	0.287420	0.156540	0.848670
H1341	H134	0.317400	0.205300	0.875300
H1351	H135	0.297300	0.121900	0.880800
C1371	C137	0.164100	0.086610	0.917660
H1361	H136	0.177400	0.061900	0.959200
C1381	C138	0.103290	0.123530	0.844200
H1371	H137	0.064100	0.129300	0.824100
C1391	C139	0.171510	0.158430	0.810600
H1381	H138	0.189100	0.192700	0.763900
C1401	C140	0.227100	0.022650	0.731270
H1391	H139	0.210600	0.025500	0.791100
H1401	H140	0.251300	0.993100	0.734200
C1411	C141	0.124150	0.015190	0.640000
H1411	H141	0.133100	0.062800	0.652700
C1421	C142	0.077240	0.907440	0.589400
H1421	H142	0.046200	0.864000	0.558200
C1431	C143	0.133260	0.917450	0.640900
H1431	H143	0.148500	0.883100	0.652700
N531	N53	0.876500	0.467340	0.191350
N541	N54	0.765580	0.411910	0.244890
N551	N55	0.830140	0.319990	0.006020
N561	N56	0.738460	0.302150	0.921790
C1441	C144	0.975870	0.492620	0.087300
C1451	C145	0.947970	0.431810	0.033480
C1461	C146	0.027320	0.560070	0.053360
H1441	H144	0.046170	0.601730	0.090030
C1471	C147	0.954090	0.489870	0.182000
H1451	H145	0.984070	0.538630	0.208630
H1461	H146	0.963970	0.455230	0.214130
C1481	C148	0.830770	0.419940	0.250990
H1471	H147	0.844070	0.395230	0.292530
C1491	C149	0.769960	0.456860	0.177530
H1481	H148	0.730770	0.462630	0.157430
C1501	C150	0.838180	0.491760	0.143930
H1491	H149	0.855770	0.526030	0.097230
C1511	C151	0.893770	0.355980	0.064600
H1501	H150	0.877270	0.358830	0.124430
H1511	H151	0.917970	0.326430	0.067530
C1521	C152	0.790820	0.348520	0.973330
H1521	H152	0.799770	0.396130	0.986030
C1531	C153	0.743910	0.240770	0.922730
H1531	H153	0.712870	0.197330	0.891530
C1541	C154	0.799930	0.250780	0.974230
H1541	H154	0.815170	0.216430	0.986030
N571	N57	0.543160	0.800680	0.524690
N581	N58	0.432240	0.745250	0.578230
N591	N59	0.496800	0.653330	0.339360
N601	N60	0.405120	0.635490	0.255130
C1551	C155	0.642530	0.825960	0.420640
C1561	C156	0.614630	0.765150	0.366820
C1571	C157	0.693980	0.893410	0.386700
H1551	H155	0.712830	0.935070	0.423370
C1581	C158	0.620750	0.823210	0.515340
H1561	H156	0.650730	0.871970	0.541970
H1571	H157	0.630630	0.788570	0.547470
C1591	C159	0.497430	0.753280	0.584330
H1581	H158	0.510730	0.728570	0.625870
C1601	C160	0.436620	0.790200	0.510870
H1591	H159	0.397430	0.795970	0.490770
C1611	C161	0.504840	0.825100	0.477270
H1601	H160	0.522430	0.859370	0.430570
C1621	C162	0.560430	0.689320	0.397940
H1611	H161	0.543930	0.692170	0.457770
H1621	H162	0.584630	0.659770	0.400870
C1631	C163	0.457480	0.681860	0.306670
H1631	H163	0.466430	0.729470	0.319370
C1641	C164	0.410570	0.574110	0.256070
H1641	H164	0.379530	0.530670	0.224870
C1651	C165	0.466590	0.584120	0.307570
H1651	H165	0.481830	0.549770	0.319370
N611	N61	0.865990	0.075820	0.858020
N621	N62	0.921420	0.020330	0.911560
N631	N63	0.013340	0.176810	0.672690
N641	N64	0.031180	0.102970	0.588460
C1661	C166	0.840710	0.149910	0.753970
C1671	C167	0.901520	0.182820	0.700150
C1681	C168	0.773260	0.133910	0.720030
H1661	H166	0.731600	0.111100	0.756700
C1691	C169	0.843460	0.130880	0.848670
H1671	H167	0.794700	0.112100	0.875300
H1681	H168	0.878100	0.175400	0.880800
C1701	C170	0.913390	0.077490	0.917660
H1691	H169	0.938100	0.115500	0.959200
C1711	C171	0.876470	0.979760	0.844200
H1701	H170	0.870700	0.934800	0.824100
C1721	C172	0.841570	0.013080	0.810600
H1711	H171	0.807300	0.996400	0.763900
C1731	C173	0.977350	0.204450	0.731270
H1721	H172	0.974500	0.185100	0.791100
H1731	H173	0.006900	0.258200	0.734200
C1741	C174	0.984810	0.108960	0.640000
H1741	H174	0.937200	0.070300	0.652700
C1751	C175	0.092560	0.169800	0.589400
H1751	H175	0.136000	0.182200	0.558200
C1761	C176	0.082550	0.215810	0.640900
H1761	H176	0.116900	0.265400	0.652700
N651	N65	0.532660	0.409150	0.191350
N661	N66	0.588090	0.353660	0.244890
N671	N67	0.680010	0.510140	0.006020
N681	N68	0.697850	0.436300	0.921790
C1771	C177	0.507380	0.483240	0.087300
C1781	C178	0.568190	0.516150	0.033480
C1791	C179	0.439930	0.467240	0.053360
H1771	H177	0.398270	0.444430	0.090030
C1801	C180	0.510130	0.464210	0.182000
H1781	H178	0.461370	0.445430	0.208630
H1791	H179	0.544770	0.508730	0.214130
C1811	C181	0.580060	0.410820	0.250990
H1801	H180	0.604770	0.448830	0.292530
C1821	C182	0.543140	0.313090	0.177530
H1811	H181	0.537370	0.268130	0.157430
C1831	C183	0.508240	0.346410	0.143930
H1821	H182	0.473970	0.329730	0.097230
C1841	C184	0.644020	0.537780	0.064600
H1831	H183	0.641170	0.518430	0.124430
H1841	H184	0.673570	0.591530	0.067530
C1851	C185	0.651480	0.442290	0.973330
H1851	H185	0.603870	0.403630	0.986030
C1861	C186	0.759230	0.503130	0.922730
H1861	H186	0.802670	0.515530	0.891530
C1871	C187	0.749220	0.549140	0.974230
H1871	H187	0.783570	0.598730	0.986030
N691	N69	0.199320	0.742490	0.524690
N701	N70	0.254750	0.687000	0.578230
N711	N71	0.346670	0.843480	0.339360
N721	N72	0.364510	0.769640	0.255130
C1881	C188	0.174040	0.816580	0.420640
C1891	C189	0.234850	0.849490	0.366820
C1901	C190	0.106590	0.800580	0.386700
H1881	H188	0.064930	0.777770	0.423370
C1911	C191	0.176790	0.797550	0.515340
H1891	H189	0.128030	0.778770	0.541970
H1901	H190	0.211430	0.842070	0.547470
C1921	C192	0.246720	0.744160	0.584330
H1911	H191	0.271430	0.782170	0.625870
C1931	C193	0.209800	0.646430	0.510870
H1921	H192	0.204030	0.601470	0.490770
C1941	C194	0.174900	0.679750	0.477270
H1931	H193	0.140630	0.663070	0.430570
C1951	C195	0.310680	0.871120	0.397940
H1941	H194	0.307830	0.851770	0.457770
H1951	H195	0.340230	0.924870	0.400870
C1961	C196	0.318140	0.775630	0.306670
H1961	H196	0.270530	0.736970	0.319370
C1971	C197	0.425890	0.836470	0.256070
H1971	H197	0.469330	0.848870	0.224870
C1981	C198	0.415880	0.882480	0.307570
H1981	H198	0.450230	0.932070	0.319370
Cd11	Cd1	0.000000	0.000000	0.000000
Cd21	Cd2	0.666670	0.333330	0.333330
Cd31	Cd3	0.333330	0.666670	0.666670
Cd41	Cd4	0.000000	0.000000	0.500000
Cd51	Cd5	0.666670	0.333330	0.833330
Cd61	Cd6	0.333330	0.666670	0.166670
