data_HOVQAM_freeONLY_PM
_symmetry_space_group_name_H-M	'P1'
_cell_length_a	19.318400
_cell_length_b	19.318400
_cell_length_c	19.318400
_cell_angle_alpha	90.000000
_cell_angle_beta	90.000000
_cell_angle_gamma	90.000000
_symmetry_Int_Tables_number 1

loop_
_symmetry_equiv_pos_as_xyz
'x,y,z'

loop_
_atom_site_label
_atom_site_type_symbol
_atom_site_fract_x
_atom_site_fract_y
_atom_site_fract_z
N11	N1	0.456360	0.532800	0.096500
C11	C1	0.312400	0.558600	0.214900
C21	C2	0.252000	0.560400	0.179900
H11	H1	0.252700	0.562300	0.130800
C31	C3	0.186900	0.559700	0.215400
H21	H2	0.144500	0.559900	0.190500
C41	C4	0.388400	0.527500	0.113400
H31	H3	0.353600	0.507300	0.085100
C51	C5	0.485800	0.562500	0.149300
H41	H4	0.533900	0.572200	0.152400
C61	C6	0.438500	0.578200	0.199800
H51	H5	0.447500	0.600700	0.242600
C71	C7	0.377800	0.555700	0.177000
N21	N2	0.043640	0.967200	0.096500
C81	C8	0.187600	0.941400	0.214900
C91	C9	0.248000	0.939600	0.179900
H61	H6	0.247300	0.937700	0.130800
C101	C10	0.313100	0.940300	0.215400
H71	H7	0.355500	0.940100	0.190500
C111	C11	0.111600	0.972500	0.113400
H81	H8	0.146400	0.992700	0.085100
C121	C12	0.014200	0.937500	0.149300
H91	H9	0.966100	0.927800	0.152400
C131	C13	0.061500	0.921800	0.199800
H101	H10	0.052500	0.899300	0.242600
C141	C14	0.122200	0.944300	0.177000
N31	N3	0.043640	0.532800	0.403500
C151	C15	0.187600	0.558600	0.285100
C161	C16	0.248000	0.560400	0.320100
H111	H11	0.247300	0.562300	0.369200
C171	C17	0.313100	0.559700	0.284600
H121	H12	0.355500	0.559900	0.309500
C181	C18	0.111600	0.527500	0.386600
H131	H13	0.146400	0.507300	0.414900
C191	C19	0.014200	0.562500	0.350700
H141	H14	0.966100	0.572200	0.347600
C201	C20	0.061500	0.578200	0.300200
H151	H15	0.052500	0.600700	0.257400
C211	C21	0.122200	0.555700	0.323000
N41	N4	0.456360	0.967200	0.403500
C221	C22	0.312400	0.941400	0.285100
C231	C23	0.252000	0.939600	0.320100
H161	H16	0.252700	0.937700	0.369200
C241	C24	0.186900	0.940300	0.284600
H171	H17	0.144500	0.940100	0.309500
C251	C25	0.388400	0.972500	0.386600
H181	H18	0.353600	0.992700	0.414900
C261	C26	0.485800	0.937500	0.350700
H191	H19	0.533900	0.927800	0.347600
C271	C27	0.438500	0.921800	0.300200
H201	H20	0.447500	0.899300	0.257400
C281	C28	0.377800	0.944300	0.323000
N51	N5	0.096500	0.456360	0.532800
C291	C29	0.214900	0.312400	0.558600
C301	C30	0.179900	0.252000	0.560400
H211	H21	0.130800	0.252700	0.562300
C311	C31	0.215400	0.186900	0.559700
H221	H22	0.190500	0.144500	0.559900
C321	C32	0.113400	0.388400	0.527500
H231	H23	0.085100	0.353600	0.507300
C331	C33	0.149300	0.485800	0.562500
H241	H24	0.152400	0.533900	0.572200
C341	C34	0.199800	0.438500	0.578200
H251	H25	0.242600	0.447500	0.600700
C351	C35	0.177000	0.377800	0.555700
N61	N6	0.096500	0.043640	0.967200
C361	C36	0.214900	0.187600	0.941400
C371	C37	0.179900	0.248000	0.939600
H261	H26	0.130800	0.247300	0.937700
C381	C38	0.215400	0.313100	0.940300
H271	H27	0.190500	0.355500	0.940100
C391	C39	0.113400	0.111600	0.972500
H281	H28	0.085100	0.146400	0.992700
C401	C40	0.149300	0.014200	0.937500
H291	H29	0.152400	0.966100	0.927800
C411	C41	0.199800	0.061500	0.921800
H301	H30	0.242600	0.052500	0.899300
C421	C42	0.177000	0.122200	0.944300
N71	N7	0.403500	0.043640	0.532800
C431	C43	0.285100	0.187600	0.558600
C441	C44	0.320100	0.248000	0.560400
H311	H31	0.369200	0.247300	0.562300
C451	C45	0.284600	0.313100	0.559700
H321	H32	0.309500	0.355500	0.559900
C461	C46	0.386600	0.111600	0.527500
H331	H33	0.414900	0.146400	0.507300
C471	C47	0.350700	0.014200	0.562500
H341	H34	0.347600	0.966100	0.572200
C481	C48	0.300200	0.061500	0.578200
H351	H35	0.257400	0.052500	0.600700
C491	C49	0.323000	0.122200	0.555700
N81	N8	0.403500	0.456360	0.967200
C501	C50	0.285100	0.312400	0.941400
C511	C51	0.320100	0.252000	0.939600
H361	H36	0.369200	0.252700	0.937700
C521	C52	0.284600	0.186900	0.940300
H371	H37	0.309500	0.144500	0.940100
C531	C53	0.386600	0.388400	0.972500
H381	H38	0.414900	0.353600	0.992700
C541	C54	0.350700	0.485800	0.937500
H391	H39	0.347600	0.533900	0.927800
C551	C55	0.300200	0.438500	0.921800
H401	H40	0.257400	0.447500	0.899300
C561	C56	0.323000	0.377800	0.944300
N91	N9	0.532800	0.096500	0.456360
C571	C57	0.558600	0.214900	0.312400
C581	C58	0.560400	0.179900	0.252000
H411	H41	0.562300	0.130800	0.252700
C591	C59	0.559700	0.215400	0.186900
H421	H42	0.559900	0.190500	0.144500
C601	C60	0.527500	0.113400	0.388400
H431	H43	0.507300	0.085100	0.353600
C611	C61	0.562500	0.149300	0.485800
H441	H44	0.572200	0.152400	0.533900
C621	C62	0.578200	0.199800	0.438500
H451	H45	0.600700	0.242600	0.447500
C631	C63	0.555700	0.177000	0.377800
N101	N10	0.967200	0.096500	0.043640
C641	C64	0.941400	0.214900	0.187600
C651	C65	0.939600	0.179900	0.248000
H461	H46	0.937700	0.130800	0.247300
C661	C66	0.940300	0.215400	0.313100
H471	H47	0.940100	0.190500	0.355500
C671	C67	0.972500	0.113400	0.111600
H481	H48	0.992700	0.085100	0.146400
C681	C68	0.937500	0.149300	0.014200
H491	H49	0.927800	0.152400	0.966100
C691	C69	0.921800	0.199800	0.061500
H501	H50	0.899300	0.242600	0.052500
C701	C70	0.944300	0.177000	0.122200
N111	N11	0.532800	0.403500	0.043640
C711	C71	0.558600	0.285100	0.187600
C721	C72	0.560400	0.320100	0.248000
H511	H51	0.562300	0.369200	0.247300
C731	C73	0.559700	0.284600	0.313100
H521	H52	0.559900	0.309500	0.355500
C741	C74	0.527500	0.386600	0.111600
H531	H53	0.507300	0.414900	0.146400
C751	C75	0.562500	0.350700	0.014200
H541	H54	0.572200	0.347600	0.966100
C761	C76	0.578200	0.300200	0.061500
H551	H55	0.600700	0.257400	0.052500
C771	C77	0.555700	0.323000	0.122200
N121	N12	0.967200	0.403500	0.456360
C781	C78	0.941400	0.285100	0.312400
C791	C79	0.939600	0.320100	0.252000
H561	H56	0.937700	0.369200	0.252700
C801	C80	0.940300	0.284600	0.186900
H571	H57	0.940100	0.309500	0.144500
C811	C81	0.972500	0.386600	0.388400
H581	H58	0.992700	0.414900	0.353600
C821	C82	0.937500	0.350700	0.485800
H591	H59	0.927800	0.347600	0.533900
C831	C83	0.921800	0.300200	0.438500
H601	H60	0.899300	0.257400	0.447500
C841	C84	0.944300	0.323000	0.377800
N131	N13	0.543640	0.467200	0.903500
C851	C85	0.687600	0.441400	0.785100
C861	C86	0.748000	0.439600	0.820100
H611	H61	0.747300	0.437700	0.869200
C871	C87	0.813100	0.440300	0.784600
H621	H62	0.855500	0.440100	0.809500
C881	C88	0.611600	0.472500	0.886600
H631	H63	0.646400	0.492700	0.914900
C891	C89	0.514200	0.437500	0.850700
H641	H64	0.466100	0.427800	0.847600
C901	C90	0.561500	0.421800	0.800200
H651	H65	0.552500	0.399300	0.757400
C911	C91	0.622200	0.444300	0.823000
N141	N14	0.956360	0.032800	0.903500
C921	C92	0.812400	0.058600	0.785100
C931	C93	0.752000	0.060400	0.820100
H661	H66	0.752700	0.062300	0.869200
C941	C94	0.686900	0.059700	0.784600
H671	H67	0.644500	0.059900	0.809500
C951	C95	0.888400	0.027500	0.886600
H681	H68	0.853600	0.007300	0.914900
C961	C96	0.985800	0.062500	0.850700
H691	H69	0.033900	0.072200	0.847600
C971	C97	0.938500	0.078200	0.800200
H701	H70	0.947500	0.100700	0.757400
C981	C98	0.877800	0.055700	0.823000
N151	N15	0.956360	0.467200	0.596500
C991	C99	0.812400	0.441400	0.714900
C1001	C100	0.752000	0.439600	0.679900
H711	H71	0.752700	0.437700	0.630800
C1011	C101	0.686900	0.440300	0.715400
H721	H72	0.644500	0.440100	0.690500
C1021	C102	0.888400	0.472500	0.613400
H731	H73	0.853600	0.492700	0.585100
C1031	C103	0.985800	0.437500	0.649300
H741	H74	0.033900	0.427800	0.652400
C1041	C104	0.938500	0.421800	0.699800
H751	H75	0.947500	0.399300	0.742600
C1051	C105	0.877800	0.444300	0.677000
N161	N16	0.543640	0.032800	0.596500
C1061	C106	0.687600	0.058600	0.714900
C1071	C107	0.748000	0.060400	0.679900
H761	H76	0.747300	0.062300	0.630800
C1081	C108	0.813100	0.059700	0.715400
H771	H77	0.855500	0.059900	0.690500
C1091	C109	0.611600	0.027500	0.613400
H781	H78	0.646400	0.007300	0.585100
C1101	C110	0.514200	0.062500	0.649300
H791	H79	0.466100	0.072200	0.652400
C1111	C111	0.561500	0.078200	0.699800
H801	H80	0.552500	0.100700	0.742600
C1121	C112	0.622200	0.055700	0.677000
N171	N17	0.903500	0.543640	0.467200
C1131	C113	0.785100	0.687600	0.441400
C1141	C114	0.820100	0.748000	0.439600
H811	H81	0.869200	0.747300	0.437700
C1151	C115	0.784600	0.813100	0.440300
H821	H82	0.809500	0.855500	0.440100
C1161	C116	0.886600	0.611600	0.472500
H831	H83	0.914900	0.646400	0.492700
C1171	C117	0.850700	0.514200	0.437500
H841	H84	0.847600	0.466100	0.427800
C1181	C118	0.800200	0.561500	0.421800
H851	H85	0.757400	0.552500	0.399300
C1191	C119	0.823000	0.622200	0.444300
N181	N18	0.903500	0.956360	0.032800
C1201	C120	0.785100	0.812400	0.058600
C1211	C121	0.820100	0.752000	0.060400
H861	H86	0.869200	0.752700	0.062300
C1221	C122	0.784600	0.686900	0.059700
H871	H87	0.809500	0.644500	0.059900
C1231	C123	0.886600	0.888400	0.027500
H881	H88	0.914900	0.853600	0.007300
C1241	C124	0.850700	0.985800	0.062500
H891	H89	0.847600	0.033900	0.072200
C1251	C125	0.800200	0.938500	0.078200
H901	H90	0.757400	0.947500	0.100700
C1261	C126	0.823000	0.877800	0.055700
N191	N19	0.596500	0.956360	0.467200
C1271	C127	0.714900	0.812400	0.441400
C1281	C128	0.679900	0.752000	0.439600
H911	H91	0.630800	0.752700	0.437700
C1291	C129	0.715400	0.686900	0.440300
H921	H92	0.690500	0.644500	0.440100
C1301	C130	0.613400	0.888400	0.472500
H931	H93	0.585100	0.853600	0.492700
C1311	C131	0.649300	0.985800	0.437500
H941	H94	0.652400	0.033900	0.427800
C1321	C132	0.699800	0.938500	0.421800
H951	H95	0.742600	0.947500	0.399300
C1331	C133	0.677000	0.877800	0.444300
N201	N20	0.596500	0.543640	0.032800
C1341	C134	0.714900	0.687600	0.058600
C1351	C135	0.679900	0.748000	0.060400
H961	H96	0.630800	0.747300	0.062300
C1361	C136	0.715400	0.813100	0.059700
H971	H97	0.690500	0.855500	0.059900
C1371	C137	0.613400	0.611600	0.027500
H981	H98	0.585100	0.646400	0.007300
C1381	C138	0.649300	0.514200	0.062500
H991	H99	0.652400	0.466100	0.072200
C1391	C139	0.699800	0.561500	0.078200
H1001	H100	0.742600	0.552500	0.100700
C1401	C140	0.677000	0.622200	0.055700
N211	N21	0.467200	0.903500	0.543640
C1411	C141	0.441400	0.785100	0.687600
C1421	C142	0.439600	0.820100	0.748000
H1011	H101	0.437700	0.869200	0.747300
C1431	C143	0.440300	0.784600	0.813100
H1021	H102	0.440100	0.809500	0.855500
C1441	C144	0.472500	0.886600	0.611600
H1031	H103	0.492700	0.914900	0.646400
C1451	C145	0.437500	0.850700	0.514200
H1041	H104	0.427800	0.847600	0.466100
C1461	C146	0.421800	0.800200	0.561500
H1051	H105	0.399300	0.757400	0.552500
C1471	C147	0.444300	0.823000	0.622200
N221	N22	0.032800	0.903500	0.956360
C1481	C148	0.058600	0.785100	0.812400
C1491	C149	0.060400	0.820100	0.752000
H1061	H106	0.062300	0.869200	0.752700
C1501	C150	0.059700	0.784600	0.686900
H1071	H107	0.059900	0.809500	0.644500
C1511	C151	0.027500	0.886600	0.888400
H1081	H108	0.007300	0.914900	0.853600
C1521	C152	0.062500	0.850700	0.985800
H1091	H109	0.072200	0.847600	0.033900
C1531	C153	0.078200	0.800200	0.938500
H1101	H110	0.100700	0.757400	0.947500
C1541	C154	0.055700	0.823000	0.877800
N231	N23	0.467200	0.596500	0.956360
C1551	C155	0.441400	0.714900	0.812400
C1561	C156	0.439600	0.679900	0.752000
H1111	H111	0.437700	0.630800	0.752700
C1571	C157	0.440300	0.715400	0.686900
H1121	H112	0.440100	0.690500	0.644500
C1581	C158	0.472500	0.613400	0.888400
H1131	H113	0.492700	0.585100	0.853600
C1591	C159	0.437500	0.649300	0.985800
H1141	H114	0.427800	0.652400	0.033900
C1601	C160	0.421800	0.699800	0.938500
H1151	H115	0.399300	0.742600	0.947500
C1611	C161	0.444300	0.677000	0.877800
N241	N24	0.032800	0.596500	0.543640
C1621	C162	0.058600	0.714900	0.687600
C1631	C163	0.060400	0.679900	0.748000
H1161	H116	0.062300	0.630800	0.747300
C1641	C164	0.059700	0.715400	0.813100
H1171	H117	0.059900	0.690500	0.855500
C1651	C165	0.027500	0.613400	0.611600
H1181	H118	0.007300	0.585100	0.646400
C1661	C166	0.062500	0.649300	0.514200
H1191	H119	0.072200	0.652400	0.466100
C1671	C167	0.078200	0.699800	0.561500
H1201	H120	0.100700	0.742600	0.552500
C1681	C168	0.055700	0.677000	0.622200
Co11	Co1	0.500000	0.500000	0.000000
Co21	Co2	0.000000	0.000000	0.000000
Co31	Co3	0.000000	0.500000	0.500000
Co41	Co4	0.500000	0.000000	0.500000
