data_HOWJEK_freeONLY_PM
_symmetry_space_group_name_H-M	'P1'
_cell_length_a	14.958000
_cell_length_b	14.958000
_cell_length_c	9.050000
_cell_angle_alpha	90.000000
_cell_angle_beta	90.000000
_cell_angle_gamma	90.000000
_symmetry_Int_Tables_number 1

loop_
_symmetry_equiv_pos_as_xyz
'x,y,z'

loop_
_atom_site_label
_atom_site_type_symbol
_atom_site_fract_x
_atom_site_fract_y
_atom_site_fract_z
Mn11	Mn1	0.505890	0.368230	0.573690
Mn21	Mn2	0.628360	0.006180	0.377620
Mn31	Mn3	0.985460	0.123890	0.555070
Mn41	Mn4	0.127510	0.513700	0.381960
P11	P1	0.346180	0.485750	0.436520
P21	P2	0.495040	0.150230	0.518180
P31	P3	0.847890	0.997930	0.419570
P41	P4	0.655140	0.011710	0.011610
O11	O1	0.380500	0.414100	0.544800
O21	O2	0.400700	0.570600	0.451200
O31	O3	0.352600	0.447100	0.282100
O41	O4	0.249400	0.506200	0.477500
O51	O5	0.509600	0.246900	0.466700
O61	O6	0.585800	0.103700	0.518800
O71	O7	0.451000	0.147400	0.669800
O81	O8	0.433800	0.110600	0.400700
O91	O9	0.750700	0.990400	0.471400
O101	O10	0.874400	0.096800	0.419100
O111	O11	0.858800	0.952700	0.270000
O121	O12	0.904300	0.951700	0.537400
O131	O13	0.642400	0.048000	0.167300
O141	O14	0.605800	0.069800	0.901600
O151	O15	0.753700	0.018800	0.964400
O161	O16	0.624600	0.914800	0.997400
Mn51	Mn5	0.494110	0.631770	0.573690
Mn61	Mn6	0.371640	0.993820	0.377620
Mn71	Mn7	0.014540	0.876110	0.555070
Mn81	Mn8	0.872490	0.486300	0.381960
P51	P5	0.653820	0.514250	0.436520
P61	P6	0.504960	0.849770	0.518180
P71	P7	0.152110	0.002070	0.419570
P81	P8	0.344860	0.988290	0.011610
O171	O17	0.619500	0.585900	0.544800
O181	O18	0.599300	0.429400	0.451200
O191	O19	0.647400	0.552900	0.282100
O201	O20	0.750600	0.493800	0.477500
O211	O21	0.490400	0.753100	0.466700
O221	O22	0.414200	0.896300	0.518800
O231	O23	0.549000	0.852600	0.669800
O241	O24	0.566200	0.889400	0.400700
O251	O25	0.249300	0.009600	0.471400
O261	O26	0.125600	0.903200	0.419100
O271	O27	0.141200	0.047300	0.270000
O281	O28	0.095700	0.048300	0.537400
O291	O29	0.357600	0.952000	0.167300
O301	O30	0.394200	0.930200	0.901600
O311	O31	0.246300	0.981200	0.964400
O321	O32	0.375400	0.085200	0.997400
Mn91	Mn9	0.631770	0.505890	0.073690
Mn101	Mn10	0.993820	0.628360	0.877620
Mn111	Mn11	0.876110	0.985460	0.055070
Mn121	Mn12	0.486300	0.127510	0.881960
P91	P9	0.514250	0.346180	0.936520
P101	P10	0.849770	0.495040	0.018180
P111	P11	0.002070	0.847890	0.919570
P121	P12	0.988290	0.655140	0.511610
O331	O33	0.585900	0.380500	0.044800
O341	O34	0.429400	0.400700	0.951200
O351	O35	0.552900	0.352600	0.782100
O361	O36	0.493800	0.249400	0.977500
O371	O37	0.753100	0.509600	0.966700
O381	O38	0.896300	0.585800	0.018800
O391	O39	0.852600	0.451000	0.169800
O401	O40	0.889400	0.433800	0.900700
O411	O41	0.009600	0.750700	0.971400
O421	O42	0.903200	0.874400	0.919100
O431	O43	0.047300	0.858800	0.770000
O441	O44	0.048300	0.904300	0.037400
O451	O45	0.952000	0.642400	0.667300
O461	O46	0.930200	0.605800	0.401600
O471	O47	0.981200	0.753700	0.464400
O481	O48	0.085200	0.624600	0.497400
Mn131	Mn13	0.368230	0.494110	0.073690
Mn141	Mn14	0.006180	0.371640	0.877620
Mn151	Mn15	0.123890	0.014540	0.055070
Mn161	Mn16	0.513700	0.872490	0.881960
P131	P13	0.485750	0.653820	0.936520
P141	P14	0.150230	0.504960	0.018180
P151	P15	0.997930	0.152110	0.919570
P161	P16	0.011710	0.344860	0.511610
O491	O49	0.414100	0.619500	0.044800
O501	O50	0.570600	0.599300	0.951200
O511	O51	0.447100	0.647400	0.782100
O521	O52	0.506200	0.750600	0.977500
O531	O53	0.246900	0.490400	0.966700
O541	O54	0.103700	0.414200	0.018800
O551	O55	0.147400	0.549000	0.169800
O561	O56	0.110600	0.566200	0.900700
O571	O57	0.990400	0.249300	0.971400
O581	O58	0.096800	0.125600	0.919100
O591	O59	0.952700	0.141200	0.770000
O601	O60	0.951700	0.095700	0.037400
O611	O61	0.048000	0.357600	0.667300
O621	O62	0.069800	0.394200	0.401600
O631	O63	0.018800	0.246300	0.464400
O641	O64	0.914800	0.375400	0.497400
