data_HOWSAP_freeONLY_PM
_symmetry_space_group_name_H-M	'P1'
_cell_length_a	21.780000
_cell_length_b	10.855100
_cell_length_c	19.440500
_cell_angle_alpha	90.000000
_cell_angle_beta	92.088000
_cell_angle_gamma	90.000000
_symmetry_Int_Tables_number 1

loop_
_symmetry_equiv_pos_as_xyz
'x,y,z'

loop_
_atom_site_label
_atom_site_type_symbol
_atom_site_fract_x
_atom_site_fract_y
_atom_site_fract_z
Cu11	Cu1	0.301760	0.145240	0.196030
Cu21	Cu2	0.019410	0.008570	0.437720
Cu31	Cu3	0.377520	0.975400	0.150220
O11	O1	0.736500	0.534200	0.159410
O21	O2	0.460770	0.641300	0.418480
O31	O3	0.379940	0.221300	0.227990
O41	O4	0.048390	0.892300	0.580080
O51	O5	0.616190	0.080400	0.931020
O61	O6	0.444120	0.072000	0.192310
O71	O7	0.419080	0.623500	0.522520
O81	O8	0.072770	0.873700	0.468630
O91	O9	0.298450	0.056600	0.283600
C11	C1	0.327070	0.955700	0.288200
O101	O10	0.689100	0.212200	0.896340
O111	O11	0.358980	0.907200	0.242810
O121	O12	0.801520	0.404500	0.108900
C21	C2	0.641140	0.367100	0.130190
H11	H1	0.638500	0.410100	0.171400
C31	C3	0.650950	0.172700	0.939000
C41	C4	0.695090	0.371900	0.093140
C51	C5	0.533900	0.292700	0.145200
C61	C6	0.419650	0.663100	0.461620
O131	O13	0.056150	0.013600	0.334300
N11	N1	0.539660	0.248900	0.209660
C71	C7	0.078980	0.848500	0.531540
O141	O14	0.426140	0.815600	0.121140
C81	C8	0.591190	0.297300	0.104870
C91	C9	0.748800	0.441900	0.122670
C101	C10	0.370770	0.807100	0.375250
H21	H2	0.404400	0.796700	0.347700
C111	C11	0.322940	0.885800	0.354510
O151	O15	0.237400	0.292200	0.218550
O161	O16	0.484000	0.329500	0.120330
C121	C12	0.272640	0.901100	0.396220
H31	H3	0.241900	0.957100	0.383700
C131	C13	0.268270	0.832400	0.456710
N21	N2	0.177740	0.747700	0.507730
C141	C14	0.647510	0.241000	0.005600
C151	C15	0.432710	0.173200	0.220350
C161	C16	0.486740	0.243800	0.253770
H41	H4	0.474100	0.327000	0.266800
C171	C17	0.213830	0.845800	0.501840
O171	O17	0.203990	0.942900	0.532530
C181	C18	0.698690	0.307500	0.031300
H51	H5	0.734800	0.308700	0.007200
C191	C19	0.594380	0.236500	0.042820
H61	H6	0.560600	0.192100	0.025800
C201	C20	0.126070	0.750900	0.553680
H71	H7	0.140600	0.764600	0.601400
C211	C21	0.315360	0.753700	0.477090
H81	H8	0.312300	0.707100	0.516900
C221	C22	0.511780	0.172200	0.317120
H91	H9	0.527300	0.228200	0.352600
H101	H10	0.480000	0.121000	0.336000
C231	C23	0.593210	0.179900	0.238820
H111	H11	0.622500	0.234600	0.262000
H121	H12	0.613800	0.134500	0.203400
C241	C24	0.367870	0.744300	0.437490
C251	C25	0.177750	0.636400	0.463600
H131	H13	0.209600	0.579000	0.478800
H141	H14	0.183700	0.657800	0.415800
C261	C26	0.038800	0.207000	0.274200
H151	H15	0.016500	0.245100	0.235700
H161	H16	0.027500	0.248000	0.316200
C271	C27	0.113730	0.582300	0.473000
H171	H17	0.084400	0.615500	0.439200
H181	H18	0.114300	0.493300	0.468900
C281	C28	0.097710	0.621200	0.545300
H191	H19	0.115300	0.564800	0.579300
H201	H20	0.053500	0.623900	0.549900
C291	C29	0.563760	0.093100	0.289630
H211	H21	0.592800	0.069200	0.326300
H221	H22	0.547800	0.019700	0.266800
C301	C30	0.023500	0.072400	0.277700
H231	H23	0.979600	0.062800	0.283100
H241	H24	0.034000	0.032800	0.235000
C311	C31	0.120540	0.031800	0.329200
H251	H25	0.134700	0.987400	0.289400
H261	H26	0.141600	0.998100	0.369800
O181	O18	0.104700	0.217700	0.265400
C321	C32	0.136600	0.163700	0.322600
H271	H27	0.126300	0.206900	0.364300
H281	H28	0.180500	0.171700	0.317000
Cu41	Cu4	0.801760	0.645240	0.196030
Cu51	Cu5	0.519410	0.508570	0.437720
Cu61	Cu6	0.877520	0.475400	0.150220
O191	O19	0.236500	0.034200	0.159410
O201	O20	0.960770	0.141300	0.418480
O211	O21	0.879940	0.721300	0.227990
O221	O22	0.548390	0.392300	0.580080
O231	O23	0.116190	0.580400	0.931020
O241	O24	0.944120	0.572000	0.192310
O251	O25	0.919080	0.123500	0.522520
O261	O26	0.572770	0.373700	0.468630
O271	O27	0.798450	0.556600	0.283600
C331	C33	0.827070	0.455700	0.288200
O281	O28	0.189100	0.712200	0.896340
O291	O29	0.858980	0.407200	0.242810
O301	O30	0.301520	0.904500	0.108900
C341	C34	0.141140	0.867100	0.130190
H291	H29	0.138500	0.910100	0.171400
C351	C35	0.150950	0.672700	0.939000
C361	C36	0.195090	0.871900	0.093140
C371	C37	0.033900	0.792700	0.145200
C381	C38	0.919650	0.163100	0.461620
O311	O31	0.556150	0.513600	0.334300
N31	N3	0.039660	0.748900	0.209660
C391	C39	0.578980	0.348500	0.531540
O321	O32	0.926140	0.315600	0.121140
C401	C40	0.091190	0.797300	0.104870
C411	C41	0.248800	0.941900	0.122670
C421	C42	0.870770	0.307100	0.375250
H301	H30	0.904400	0.296700	0.347700
C431	C43	0.822940	0.385800	0.354510
O331	O33	0.737400	0.792200	0.218550
O341	O34	0.984000	0.829500	0.120330
C441	C44	0.772640	0.401100	0.396220
H311	H31	0.741900	0.457100	0.383700
C451	C45	0.768270	0.332400	0.456710
N41	N4	0.677740	0.247700	0.507730
C461	C46	0.147510	0.741000	0.005600
C471	C47	0.932710	0.673200	0.220350
C481	C48	0.986740	0.743800	0.253770
H321	H32	0.974100	0.827000	0.266800
C491	C49	0.713830	0.345800	0.501840
O351	O35	0.703990	0.442900	0.532530
C501	C50	0.198690	0.807500	0.031300
H331	H33	0.234800	0.808700	0.007200
C511	C51	0.094380	0.736500	0.042820
H341	H34	0.060600	0.692100	0.025800
C521	C52	0.626070	0.250900	0.553680
H351	H35	0.640600	0.264600	0.601400
C531	C53	0.815360	0.253700	0.477090
H361	H36	0.812300	0.207100	0.516900
C541	C54	0.011780	0.672200	0.317120
H371	H37	0.027300	0.728200	0.352600
H381	H38	0.980000	0.621000	0.336000
C551	C55	0.093210	0.679900	0.238820
H391	H39	0.122500	0.734600	0.262000
H401	H40	0.113800	0.634500	0.203400
C561	C56	0.867870	0.244300	0.437490
C571	C57	0.677750	0.136400	0.463600
H411	H41	0.709600	0.079000	0.478800
H421	H42	0.683700	0.157800	0.415800
C581	C58	0.538800	0.707000	0.274200
H431	H43	0.516500	0.745100	0.235700
H441	H44	0.527500	0.748000	0.316200
C591	C59	0.613730	0.082300	0.473000
H451	H45	0.584400	0.115500	0.439200
H461	H46	0.614300	0.993300	0.468900
C601	C60	0.597710	0.121200	0.545300
H471	H47	0.615300	0.064800	0.579300
H481	H48	0.553500	0.123900	0.549900
C611	C61	0.063760	0.593100	0.289630
H491	H49	0.092800	0.569200	0.326300
H501	H50	0.047800	0.519700	0.266800
C621	C62	0.523500	0.572400	0.277700
H511	H51	0.479600	0.562800	0.283100
H521	H52	0.534000	0.532800	0.235000
C631	C63	0.620540	0.531800	0.329200
H531	H53	0.634700	0.487400	0.289400
H541	H54	0.641600	0.498100	0.369800
O361	O36	0.604700	0.717700	0.265400
C641	C64	0.636600	0.663700	0.322600
H551	H55	0.626300	0.706900	0.364300
H561	H56	0.680500	0.671700	0.317000
Cu71	Cu7	0.698240	0.145240	0.803970
Cu81	Cu8	0.980590	0.008570	0.562280
Cu91	Cu9	0.622480	0.975400	0.849780
O371	O37	0.263500	0.534200	0.840590
O381	O38	0.539230	0.641300	0.581520
O391	O39	0.620060	0.221300	0.772010
O401	O40	0.951610	0.892300	0.419920
O411	O41	0.383810	0.080400	0.068980
O421	O42	0.555880	0.072000	0.807690
O431	O43	0.580920	0.623500	0.477480
O441	O44	0.927230	0.873700	0.531370
O451	O45	0.701550	0.056600	0.716400
C651	C65	0.672930	0.955700	0.711800
O461	O46	0.310900	0.212200	0.103660
O471	O47	0.641020	0.907200	0.757190
O481	O48	0.198480	0.404500	0.891100
C661	C66	0.358860	0.367100	0.869810
H571	H57	0.361500	0.410100	0.828600
C671	C67	0.349050	0.172700	0.061000
C681	C68	0.304910	0.371900	0.906860
C691	C69	0.466100	0.292700	0.854800
C701	C70	0.580350	0.663100	0.538380
O491	O49	0.943850	0.013600	0.665700
N51	N5	0.460340	0.248900	0.790340
C711	C71	0.921020	0.848500	0.468460
O501	O50	0.573860	0.815600	0.878860
C721	C72	0.408810	0.297300	0.895130
C731	C73	0.251200	0.441900	0.877330
C741	C74	0.629230	0.807100	0.624750
H581	H58	0.595600	0.796700	0.652300
C751	C75	0.677060	0.885800	0.645490
O511	O51	0.762600	0.292200	0.781450
O521	O52	0.516000	0.329500	0.879670
C761	C76	0.727360	0.901100	0.603780
H591	H59	0.758100	0.957100	0.616300
C771	C77	0.731730	0.832400	0.543290
N61	N6	0.822260	0.747700	0.492270
C781	C78	0.352490	0.241000	0.994400
C791	C79	0.567290	0.173200	0.779650
C801	C80	0.513260	0.243800	0.746230
H601	H60	0.525900	0.327000	0.733200
C811	C81	0.786170	0.845800	0.498160
O531	O53	0.796010	0.942900	0.467470
C821	C82	0.301310	0.307500	0.968700
H611	H61	0.265200	0.308700	0.992800
C831	C83	0.405620	0.236500	0.957180
H621	H62	0.439400	0.192100	0.974200
C841	C84	0.873930	0.750900	0.446320
H631	H63	0.859400	0.764600	0.398600
C851	C85	0.684640	0.753700	0.522910
H641	H64	0.687700	0.707100	0.483100
C861	C86	0.488220	0.172200	0.682880
H651	H65	0.472700	0.228200	0.647400
H661	H66	0.520000	0.121000	0.664000
C871	C87	0.406790	0.179900	0.761180
H671	H67	0.377500	0.234600	0.738000
H681	H68	0.386200	0.134500	0.796600
C881	C88	0.632130	0.744300	0.562510
C891	C89	0.822250	0.636400	0.536400
H691	H69	0.790400	0.579000	0.521200
H701	H70	0.816300	0.657800	0.584200
C901	C90	0.961200	0.207000	0.725800
H711	H71	0.983500	0.245100	0.764300
H721	H72	0.972500	0.248000	0.683800
C911	C91	0.886270	0.582300	0.527000
H731	H73	0.915600	0.615500	0.560800
H741	H74	0.885700	0.493300	0.531100
C921	C92	0.902290	0.621200	0.454700
H751	H75	0.884700	0.564800	0.420700
H761	H76	0.946500	0.623900	0.450100
C931	C93	0.436240	0.093100	0.710370
H771	H77	0.407200	0.069200	0.673700
H781	H78	0.452200	0.019700	0.733200
C941	C94	0.976500	0.072400	0.722300
H791	H79	0.020400	0.062800	0.716900
H801	H80	0.966000	0.032800	0.765000
C951	C95	0.879460	0.031800	0.670800
H811	H81	0.865300	0.987400	0.710600
H821	H82	0.858400	0.998100	0.630200
O541	O54	0.895300	0.217700	0.734600
C961	C96	0.863400	0.163700	0.677400
H831	H83	0.873700	0.206900	0.635700
H841	H84	0.819500	0.171700	0.683000
Cu101	Cu10	0.198240	0.645240	0.803970
Cu111	Cu11	0.480590	0.508570	0.562280
Cu121	Cu12	0.122480	0.475400	0.849780
O551	O55	0.763500	0.034200	0.840590
O561	O56	0.039230	0.141300	0.581520
O571	O57	0.120060	0.721300	0.772010
O581	O58	0.451610	0.392300	0.419920
O591	O59	0.883810	0.580400	0.068980
O601	O60	0.055880	0.572000	0.807690
O611	O61	0.080920	0.123500	0.477480
O621	O62	0.427230	0.373700	0.531370
O631	O63	0.201550	0.556600	0.716400
C971	C97	0.172930	0.455700	0.711800
O641	O64	0.810900	0.712200	0.103660
O651	O65	0.141020	0.407200	0.757190
O661	O66	0.698480	0.904500	0.891100
C981	C98	0.858860	0.867100	0.869810
H851	H85	0.861500	0.910100	0.828600
C991	C99	0.849050	0.672700	0.061000
C1001	C100	0.804910	0.871900	0.906860
C1011	C101	0.966100	0.792700	0.854800
C1021	C102	0.080350	0.163100	0.538380
O671	O67	0.443850	0.513600	0.665700
N71	N7	0.960340	0.748900	0.790340
C1031	C103	0.421020	0.348500	0.468460
O681	O68	0.073860	0.315600	0.878860
C1041	C104	0.908810	0.797300	0.895130
C1051	C105	0.751200	0.941900	0.877330
C1061	C106	0.129230	0.307100	0.624750
H861	H86	0.095600	0.296700	0.652300
C1071	C107	0.177060	0.385800	0.645490
O691	O69	0.262600	0.792200	0.781450
O701	O70	0.016000	0.829500	0.879670
C1081	C108	0.227360	0.401100	0.603780
H871	H87	0.258100	0.457100	0.616300
C1091	C109	0.231730	0.332400	0.543290
N81	N8	0.322260	0.247700	0.492270
C1101	C110	0.852490	0.741000	0.994400
C1111	C111	0.067290	0.673200	0.779650
C1121	C112	0.013260	0.743800	0.746230
H881	H88	0.025900	0.827000	0.733200
C1131	C113	0.286170	0.345800	0.498160
O711	O71	0.296010	0.442900	0.467470
C1141	C114	0.801310	0.807500	0.968700
H891	H89	0.765200	0.808700	0.992800
C1151	C115	0.905620	0.736500	0.957180
H901	H90	0.939400	0.692100	0.974200
C1161	C116	0.373930	0.250900	0.446320
H911	H91	0.359400	0.264600	0.398600
C1171	C117	0.184640	0.253700	0.522910
H921	H92	0.187700	0.207100	0.483100
C1181	C118	0.988220	0.672200	0.682880
H931	H93	0.972700	0.728200	0.647400
H941	H94	0.020000	0.621000	0.664000
C1191	C119	0.906790	0.679900	0.761180
H951	H95	0.877500	0.734600	0.738000
H961	H96	0.886200	0.634500	0.796600
C1201	C120	0.132130	0.244300	0.562510
C1211	C121	0.322250	0.136400	0.536400
H971	H97	0.290400	0.079000	0.521200
H981	H98	0.316300	0.157800	0.584200
C1221	C122	0.461200	0.707000	0.725800
H991	H99	0.483500	0.745100	0.764300
H1001	H100	0.472500	0.748000	0.683800
C1231	C123	0.386270	0.082300	0.527000
H1011	H101	0.415600	0.115500	0.560800
H1021	H102	0.385700	0.993300	0.531100
C1241	C124	0.402290	0.121200	0.454700
H1031	H103	0.384700	0.064800	0.420700
H1041	H104	0.446500	0.123900	0.450100
C1251	C125	0.936240	0.593100	0.710370
H1051	H105	0.907200	0.569200	0.673700
H1061	H106	0.952200	0.519700	0.733200
C1261	C126	0.476500	0.572400	0.722300
H1071	H107	0.520400	0.562800	0.716900
H1081	H108	0.466000	0.532800	0.765000
C1271	C127	0.379460	0.531800	0.670800
H1091	H109	0.365300	0.487400	0.710600
H1101	H110	0.358400	0.498100	0.630200
O721	O72	0.395300	0.717700	0.734600
C1281	C128	0.363400	0.663700	0.677400
H1111	H111	0.373700	0.706900	0.635700
H1121	H112	0.319500	0.671700	0.683000
