data_HOWSIX_freeONLY_PM
_symmetry_space_group_name_H-M	'P1'
_cell_length_a	12.508500
_cell_length_b	12.508500
_cell_length_c	70.228400
_cell_angle_alpha	90.000000
_cell_angle_beta	90.000000
_cell_angle_gamma	90.000000
_symmetry_Int_Tables_number 1

loop_
_symmetry_equiv_pos_as_xyz
'x,y,z'

loop_
_atom_site_label
_atom_site_type_symbol
_atom_site_fract_x
_atom_site_fract_y
_atom_site_fract_z
Cu11	Cu1	0.618010	0.379770	0.833130
Cu21	Cu2	0.686900	0.440810	0.867290
Cu31	Cu3	0.603600	0.776760	0.745470
Cu41	Cu4	0.654810	0.974780	0.750290
O11	O1	0.543300	0.478600	0.874450
O21	O2	0.693800	0.579700	0.853100
O31	O3	0.654200	0.291000	0.873560
O41	O4	0.828700	0.401500	0.857980
O51	O5	0.742800	0.010200	0.857760
O61	O6	0.600600	0.241300	0.844300
O71	O7	0.769800	0.353600	0.829050
C11	C1	0.041600	0.389300	0.847370
H11	H1	0.027200	0.395200	0.860300
O81	O8	0.023200	0.344700	0.777090
C21	C2	0.081300	0.373300	0.808410
C31	C3	0.637600	0.918800	0.817670
H21	H2	0.633200	0.988900	0.813300
C41	C4	0.656300	0.708700	0.829850
C51	C5	0.658300	0.791300	0.842780
H31	H3	0.669500	0.776600	0.855600
N11	N1	0.286700	0.509500	0.852930
C61	C6	0.845300	0.376100	0.841270
C71	C7	0.655800	0.985800	0.851050
C81	C8	0.472400	0.475000	0.861690
C91	C9	0.613700	0.226300	0.861370
C101	C10	0.108500	0.366400	0.787970
C111	C11	0.643500	0.898900	0.836790
O91	O9	0.601400	0.779900	0.773030
C121	C12	0.643400	0.728200	0.810530
H41	H4	0.638400	0.672400	0.801800
C131	C13	0.638300	0.834500	0.804660
C141	C14	0.662400	0.596600	0.836370
C151	C15	0.959400	0.371500	0.834610
C161	C16	0.233700	0.420100	0.854710
O101	O10	0.645600	0.944200	0.777830
C171	C17	0.166700	0.389100	0.821240
H51	H5	0.236600	0.393500	0.816800
C181	C18	0.145000	0.398200	0.840790
C191	C19	0.627700	0.857600	0.783430
O111	O11	0.197400	0.382600	0.781920
C201	C20	0.568500	0.122600	0.870190
H61	H6	0.609200	0.101700	0.881500
C211	C21	0.372600	0.538400	0.865540
H71	H7	0.349900	0.525000	0.878700
C221	C22	0.979900	0.362300	0.814850
H81	H8	0.924300	0.348900	0.806400
O121	O12	0.250000	0.359500	0.868380
C231	C23	0.393700	0.110400	0.856840
H91	H9	0.321000	0.088600	0.859700
H101	H10	0.391700	0.169400	0.847900
C241	C24	0.453500	0.141600	0.874960
H111	H11	0.431400	0.097500	0.885600
H121	H12	0.441100	0.216000	0.878100
C251	C25	0.272600	0.594300	0.838580
H131	H13	0.202800	0.627700	0.839600
H141	H14	0.282300	0.567200	0.825800
O131	O13	0.671000	0.141700	0.751700
O141	O14	0.636800	0.526000	0.824230
O151	O15	0.482900	0.429200	0.845670
N21	N2	0.565600	0.035200	0.856120
O161	O16	0.025600	0.508600	0.750580
O171	O17	0.804100	0.949400	0.750860
O181	O18	0.561500	0.334400	0.805370
C261	C26	0.812500	0.855800	0.747430
O191	O19	0.770800	0.775500	0.745960
O201	O20	0.206000	0.543300	0.754700
O211	O21	0.586000	0.609500	0.743900
C271	C27	0.106100	0.556800	0.753730
C281	C28	0.457000	0.019000	0.849040
H151	H15	0.428400	0.951400	0.853500
H161	H16	0.455800	0.019500	0.835200
C291	C29	0.945900	0.841000	0.750900
C301	C30	0.393700	0.651300	0.863300
H171	H17	0.351600	0.693300	0.872200
H181	H18	0.468900	0.667100	0.865300
C311	C31	0.362700	0.672000	0.844200
H191	H19	0.423400	0.662500	0.835800
H201	H20	0.337900	0.745200	0.843000
C321	C32	0.982600	0.722300	0.753200
C331	C33	0.015000	0.913000	0.753200
C341	C34	0.080800	0.681700	0.751600
C351	C35	0.145000	0.758000	0.754100
Cu51	Cu5	0.381990	0.620230	0.333130
Cu61	Cu6	0.313100	0.559190	0.367290
Cu71	Cu7	0.396400	0.223240	0.245470
Cu81	Cu8	0.345190	0.025220	0.250290
O221	O22	0.456700	0.521400	0.374450
O231	O23	0.306200	0.420300	0.353100
O241	O24	0.345800	0.709000	0.373560
O251	O25	0.171300	0.598500	0.357980
O261	O26	0.257200	0.989800	0.357760
O271	O27	0.399400	0.758700	0.344300
O281	O28	0.230200	0.646400	0.329050
C361	C36	0.958400	0.610700	0.347370
H211	H21	0.972800	0.604800	0.360300
O291	O29	0.976800	0.655300	0.277090
C371	C37	0.918700	0.626700	0.308410
C381	C38	0.362400	0.081200	0.317670
H221	H22	0.366800	0.011100	0.313300
C391	C39	0.343700	0.291300	0.329850
C401	C40	0.341700	0.208700	0.342780
H231	H23	0.330500	0.223400	0.355600
N31	N3	0.713300	0.490500	0.352930
C411	C41	0.154700	0.623900	0.341270
C421	C42	0.344200	0.014200	0.351050
C431	C43	0.527600	0.525000	0.361690
C441	C44	0.386300	0.773700	0.361370
C451	C45	0.891500	0.633600	0.287970
C461	C46	0.356500	0.101100	0.336790
O301	O30	0.398600	0.220100	0.273030
C471	C47	0.356600	0.271800	0.310530
H241	H24	0.361600	0.327600	0.301800
C481	C48	0.361700	0.165500	0.304660
C491	C49	0.337600	0.403400	0.336370
C501	C50	0.040600	0.628500	0.334610
C511	C51	0.766300	0.579900	0.354710
O311	O31	0.354400	0.055800	0.277830
C521	C52	0.833300	0.610900	0.321240
H251	H25	0.763400	0.606500	0.316800
C531	C53	0.855000	0.601800	0.340790
C541	C54	0.372300	0.142400	0.283430
O321	O32	0.802600	0.617400	0.281920
C551	C55	0.431500	0.877400	0.370190
H261	H26	0.390800	0.898300	0.381500
C561	C56	0.627400	0.461600	0.365540
H271	H27	0.650100	0.475000	0.378700
C571	C57	0.020100	0.637700	0.314850
H281	H28	0.075700	0.651100	0.306400
O331	O33	0.750000	0.640500	0.368380
C581	C58	0.606300	0.889600	0.356840
H291	H29	0.679000	0.911400	0.359700
H301	H30	0.608300	0.830600	0.347900
C591	C59	0.546500	0.858400	0.374960
H311	H31	0.568600	0.902500	0.385600
H321	H32	0.558900	0.784000	0.378100
C601	C60	0.727400	0.405700	0.338580
H331	H33	0.797200	0.372300	0.339600
H341	H34	0.717700	0.432800	0.325800
O341	O34	0.329000	0.858300	0.251700
O351	O35	0.363200	0.474000	0.324230
O361	O36	0.517100	0.570800	0.345670
N41	N4	0.434400	0.964800	0.356120
O371	O37	0.974400	0.491400	0.250580
O381	O38	0.195900	0.050600	0.250860
O391	O39	0.438500	0.665600	0.305370
C611	C61	0.187500	0.144200	0.247430
O401	O40	0.229200	0.224500	0.245960
O411	O41	0.794000	0.456700	0.254700
O421	O42	0.414000	0.390500	0.243900
C621	C62	0.893900	0.443200	0.253730
C631	C63	0.543000	0.981000	0.349040
H351	H35	0.571600	0.048600	0.353500
H361	H36	0.544200	0.980500	0.335200
C641	C64	0.054100	0.159000	0.250900
C651	C65	0.606300	0.348700	0.363300
H371	H37	0.648400	0.306700	0.372200
H381	H38	0.531100	0.332900	0.365300
C661	C66	0.637300	0.328000	0.344200
H391	H39	0.576600	0.337500	0.335800
H401	H40	0.662100	0.254800	0.343000
C671	C67	0.017400	0.277700	0.253200
C681	C68	0.985000	0.087000	0.253200
C691	C69	0.919200	0.318300	0.251600
C701	C70	0.855000	0.242000	0.254100
Cu91	Cu9	0.120230	0.118010	0.583130
Cu101	Cu10	0.059190	0.186900	0.617290
Cu111	Cu11	0.723240	0.103600	0.495470
Cu121	Cu12	0.525220	0.154810	0.500290
O431	O43	0.021400	0.043300	0.624450
O441	O44	0.920300	0.193800	0.603100
O451	O45	0.209000	0.154200	0.623560
O461	O46	0.098500	0.328700	0.607980
O471	O47	0.489800	0.242800	0.607760
O481	O48	0.258700	0.100600	0.594300
O491	O49	0.146400	0.269800	0.579050
C711	C71	0.110700	0.541600	0.597370
H411	H41	0.104800	0.527200	0.610300
O501	O50	0.155300	0.523200	0.527090
C721	C72	0.126700	0.581300	0.558410
C731	C73	0.581200	0.137600	0.567670
H421	H42	0.511100	0.133200	0.563300
C741	C74	0.791300	0.156300	0.579850
C751	C75	0.708700	0.158300	0.592780
H431	H43	0.723400	0.169500	0.605600
N51	N5	0.990500	0.786700	0.602930
C761	C76	0.123900	0.345300	0.591270
C771	C77	0.514200	0.155800	0.601050
C781	C78	0.025000	0.972400	0.611690
C791	C79	0.273700	0.113700	0.611370
C801	C80	0.133600	0.608500	0.537970
C811	C81	0.601100	0.143500	0.586790
O511	O51	0.720100	0.101400	0.523030
C821	C82	0.771800	0.143400	0.560530
H441	H44	0.827600	0.138400	0.551800
C831	C83	0.665500	0.138300	0.554660
C841	C84	0.903400	0.162400	0.586370
C851	C85	0.128500	0.459400	0.584610
C861	C86	0.079900	0.733700	0.604710
O521	O52	0.555800	0.145600	0.527830
C871	C87	0.110900	0.666700	0.571240
H451	H45	0.106500	0.736600	0.566800
C881	C88	0.101800	0.645000	0.590790
C891	C89	0.642400	0.127700	0.533430
O531	O53	0.117400	0.697400	0.531920
C901	C90	0.377400	0.068500	0.620190
H461	H46	0.398300	0.109200	0.631500
C911	C91	0.961600	0.872600	0.615540
H471	H47	0.975000	0.849900	0.628700
C921	C92	0.137700	0.479900	0.564850
H481	H48	0.151100	0.424300	0.556400
O541	O54	0.140500	0.750000	0.618380
C931	C93	0.389600	0.893700	0.606840
H491	H49	0.411400	0.821000	0.609700
H501	H50	0.330600	0.891700	0.597900
C941	C94	0.358400	0.953500	0.624960
H511	H51	0.402500	0.931400	0.635600
H521	H52	0.284000	0.941100	0.628100
C951	C95	0.905700	0.772600	0.588580
H531	H53	0.872300	0.702800	0.589600
H541	H54	0.932800	0.782300	0.575800
O551	O55	0.358300	0.171000	0.501700
O561	O56	0.974000	0.136800	0.574230
O571	O57	0.070800	0.982900	0.595670
N61	N6	0.464800	0.065600	0.606120
O581	O58	0.991400	0.525600	0.500580
O591	O59	0.550600	0.304100	0.500860
O601	O60	0.165600	0.061500	0.555370
C961	C96	0.644200	0.312500	0.497430
O611	O61	0.724500	0.270800	0.495960
O621	O62	0.956700	0.706000	0.504700
O631	O63	0.890500	0.086000	0.493900
C971	C97	0.943200	0.606100	0.503730
C981	C98	0.481000	0.957000	0.599040
H551	H55	0.548600	0.928400	0.603500
H561	H56	0.480500	0.955800	0.585200
C991	C99	0.659000	0.445900	0.500900
C1001	C100	0.848700	0.893700	0.613300
H571	H57	0.806700	0.851600	0.622200
H581	H58	0.832900	0.968900	0.615300
C1011	C101	0.828000	0.862700	0.594200
H591	H59	0.837500	0.923400	0.585800
H601	H60	0.754800	0.837900	0.593000
C1021	C102	0.777700	0.482600	0.503200
C1031	C103	0.587000	0.515000	0.503200
C1041	C104	0.818300	0.580800	0.501600
C1051	C105	0.742000	0.645000	0.504100
Cu131	Cu13	0.879770	0.881990	0.083130
Cu141	Cu14	0.940810	0.813100	0.117290
Cu151	Cu15	0.276760	0.896400	0.995470
Cu161	Cu16	0.474780	0.845190	0.000290
O641	O64	0.978600	0.956700	0.124450
O651	O65	0.079700	0.806200	0.103100
O661	O66	0.791000	0.845800	0.123560
O671	O67	0.901500	0.671300	0.107980
O681	O68	0.510200	0.757200	0.107760
O691	O69	0.741300	0.899400	0.094300
O701	O70	0.853600	0.730200	0.079050
C1061	C106	0.889300	0.458400	0.097370
H611	H61	0.895200	0.472800	0.110300
O711	O71	0.844700	0.476800	0.027090
C1071	C107	0.873300	0.418700	0.058410
C1081	C108	0.418800	0.862400	0.067670
H621	H62	0.488900	0.866800	0.063300
C1091	C109	0.208700	0.843700	0.079850
C1101	C110	0.291300	0.841700	0.092780
H631	H63	0.276600	0.830500	0.105600
N71	N7	0.009500	0.213300	0.102930
C1111	C111	0.876100	0.654700	0.091270
C1121	C112	0.485800	0.844200	0.101050
C1131	C113	0.975000	0.027600	0.111690
C1141	C114	0.726300	0.886300	0.111370
C1151	C115	0.866400	0.391500	0.037970
C1161	C116	0.398900	0.856500	0.086790
O721	O72	0.279900	0.898600	0.023030
C1171	C117	0.228200	0.856600	0.060530
H641	H64	0.172400	0.861600	0.051800
C1181	C118	0.334500	0.861700	0.054660
C1191	C119	0.096600	0.837600	0.086370
C1201	C120	0.871500	0.540600	0.084610
C1211	C121	0.920100	0.266300	0.104710
O731	O73	0.444200	0.854400	0.027830
C1221	C122	0.889100	0.333300	0.071240
H651	H65	0.893500	0.263400	0.066800
C1231	C123	0.898200	0.355000	0.090790
C1241	C124	0.357600	0.872300	0.033430
O741	O74	0.882600	0.302600	0.031920
C1251	C125	0.622600	0.931500	0.120190
H661	H66	0.601700	0.890800	0.131500
C1261	C126	0.038400	0.127400	0.115540
H671	H67	0.025000	0.150100	0.128700
C1271	C127	0.862300	0.520100	0.064850
H681	H68	0.848900	0.575700	0.056400
O751	O75	0.859500	0.250000	0.118380
C1281	C128	0.610400	0.106300	0.106840
H691	H69	0.588600	0.179000	0.109700
H701	H70	0.669400	0.108300	0.097900
C1291	C129	0.641600	0.046500	0.124960
H711	H71	0.597500	0.068600	0.135600
H721	H72	0.716000	0.058900	0.128100
C1301	C130	0.094300	0.227400	0.088580
H731	H73	0.127700	0.297200	0.089600
H741	H74	0.067200	0.217700	0.075800
O761	O76	0.641700	0.829000	0.001700
O771	O77	0.026000	0.863200	0.074230
O781	O78	0.929200	0.017100	0.095670
N81	N8	0.535200	0.934400	0.106120
O791	O79	0.008600	0.474400	0.000580
O801	O80	0.449400	0.695900	0.000860
O811	O81	0.834400	0.938500	0.055370
C1311	C131	0.355800	0.687500	0.997430
O821	O82	0.275500	0.729200	0.995960
O831	O83	0.043300	0.294000	0.004700
O841	O84	0.109500	0.914000	0.993900
C1321	C132	0.056800	0.393900	0.003730
C1331	C133	0.519000	0.043000	0.099040
H751	H75	0.451400	0.071600	0.103500
H761	H76	0.519500	0.044200	0.085200
C1341	C134	0.341000	0.554100	0.000900
C1351	C135	0.151300	0.106300	0.113300
H771	H77	0.193300	0.148400	0.122200
H781	H78	0.167100	0.031100	0.115300
C1361	C136	0.172000	0.137300	0.094200
H791	H79	0.162500	0.076600	0.085800
H801	H80	0.245200	0.162100	0.093000
C1371	C137	0.222300	0.517400	0.003200
C1381	C138	0.413000	0.485000	0.003200
C1391	C139	0.181700	0.419200	0.001600
C1401	C140	0.258000	0.355000	0.004100
Cu171	Cu17	0.881990	0.879770	0.916870
Cu181	Cu18	0.813100	0.940810	0.882710
Cu191	Cu19	0.896400	0.276760	0.004530
Cu201	Cu20	0.845190	0.474780	0.999710
O851	O85	0.956700	0.978600	0.875550
O861	O86	0.806200	0.079700	0.896900
O871	O87	0.845800	0.791000	0.876440
O881	O88	0.671300	0.901500	0.892020
O891	O89	0.757200	0.510200	0.892240
O901	O90	0.899400	0.741300	0.905700
O911	O91	0.730200	0.853600	0.920950
C1411	C141	0.458400	0.889300	0.902630
H811	H81	0.472800	0.895200	0.889700
O921	O92	0.476800	0.844700	0.972910
C1421	C142	0.418700	0.873300	0.941590
C1431	C143	0.862400	0.418800	0.932330
H821	H82	0.866800	0.488900	0.936700
C1441	C144	0.843700	0.208700	0.920150
C1451	C145	0.841700	0.291300	0.907220
H831	H83	0.830500	0.276600	0.894400
N91	N9	0.213300	0.009500	0.897070
C1461	C146	0.654700	0.876100	0.908730
C1471	C147	0.844200	0.485800	0.898950
C1481	C148	0.027600	0.975000	0.888310
C1491	C149	0.886300	0.726300	0.888630
C1501	C150	0.391500	0.866400	0.962030
C1511	C151	0.856500	0.398900	0.913210
O931	O93	0.898600	0.279900	0.976970
C1521	C152	0.856600	0.228200	0.939470
H841	H84	0.861600	0.172400	0.948200
C1531	C153	0.861700	0.334500	0.945340
C1541	C154	0.837600	0.096600	0.913630
C1551	C155	0.540600	0.871500	0.915390
C1561	C156	0.266300	0.920100	0.895290
O941	O94	0.854400	0.444200	0.972170
C1571	C157	0.333300	0.889100	0.928760
H851	H85	0.263400	0.893500	0.933200
C1581	C158	0.355000	0.898200	0.909210
C1591	C159	0.872300	0.357600	0.966570
O951	O95	0.302600	0.882600	0.968080
C1601	C160	0.931500	0.622600	0.879810
H861	H86	0.890800	0.601700	0.868500
C1611	C161	0.127400	0.038400	0.884460
H871	H87	0.150100	0.025000	0.871300
C1621	C162	0.520100	0.862300	0.935150
H881	H88	0.575700	0.848900	0.943600
O961	O96	0.250000	0.859500	0.881620
C1631	C163	0.106300	0.610400	0.893160
H891	H89	0.179000	0.588600	0.890300
H901	H90	0.108300	0.669400	0.902100
C1641	C164	0.046500	0.641600	0.875040
H911	H91	0.068600	0.597500	0.864400
H921	H92	0.058900	0.716000	0.871900
C1651	C165	0.227400	0.094300	0.911420
H931	H93	0.297200	0.127700	0.910400
H941	H94	0.217700	0.067200	0.924200
O971	O97	0.829000	0.641700	0.998300
O981	O98	0.863200	0.026000	0.925770
O991	O99	0.017100	0.929200	0.904330
N101	N10	0.934400	0.535200	0.893880
O1001	O100	0.474400	0.008600	0.999420
O1011	O101	0.695900	0.449400	0.999140
O1021	O102	0.938500	0.834400	0.944630
C1661	C166	0.687500	0.355800	0.002570
O1031	O103	0.729200	0.275500	0.004040
O1041	O104	0.294000	0.043300	0.995300
O1051	O105	0.914000	0.109500	0.006100
C1671	C167	0.393900	0.056800	0.996270
C1681	C168	0.043000	0.519000	0.900960
H951	H95	0.071600	0.451400	0.896500
H961	H96	0.044200	0.519500	0.914800
C1691	C169	0.554100	0.341000	0.999100
C1701	C170	0.106300	0.151300	0.886700
H971	H97	0.148400	0.193300	0.877800
H981	H98	0.031100	0.167100	0.884700
C1711	C171	0.137300	0.172000	0.905800
H991	H99	0.076600	0.162500	0.914200
H1001	H100	0.162100	0.245200	0.907000
C1721	C172	0.517400	0.222300	0.996800
C1731	C173	0.485000	0.413000	0.996800
C1741	C174	0.419200	0.181700	0.998400
C1751	C175	0.355000	0.258000	0.995900
Cu211	Cu21	0.118010	0.120230	0.416870
Cu221	Cu22	0.186900	0.059190	0.382710
Cu231	Cu23	0.103600	0.723240	0.504530
Cu241	Cu24	0.154810	0.525220	0.499710
O1061	O106	0.043300	0.021400	0.375550
O1071	O107	0.193800	0.920300	0.396900
O1081	O108	0.154200	0.209000	0.376440
O1091	O109	0.328700	0.098500	0.392020
O1101	O110	0.242800	0.489800	0.392240
O1111	O111	0.100600	0.258700	0.405700
O1121	O112	0.269800	0.146400	0.420950
C1761	C176	0.541600	0.110700	0.402630
H1011	H101	0.527200	0.104800	0.389700
O1131	O113	0.523200	0.155300	0.472910
C1771	C177	0.581300	0.126700	0.441590
C1781	C178	0.137600	0.581200	0.432330
H1021	H102	0.133200	0.511100	0.436700
C1791	C179	0.156300	0.791300	0.420150
C1801	C180	0.158300	0.708700	0.407220
H1031	H103	0.169500	0.723400	0.394400
N111	N11	0.786700	0.990500	0.397070
C1811	C181	0.345300	0.123900	0.408730
C1821	C182	0.155800	0.514200	0.398950
C1831	C183	0.972400	0.025000	0.388310
C1841	C184	0.113700	0.273700	0.388630
C1851	C185	0.608500	0.133600	0.462030
C1861	C186	0.143500	0.601100	0.413210
O1141	O114	0.101400	0.720100	0.476970
C1871	C187	0.143400	0.771800	0.439470
H1041	H104	0.138400	0.827600	0.448200
C1881	C188	0.138300	0.665500	0.445340
C1891	C189	0.162400	0.903400	0.413630
C1901	C190	0.459400	0.128500	0.415390
C1911	C191	0.733700	0.079900	0.395290
O1151	O115	0.145600	0.555800	0.472170
C1921	C192	0.666700	0.110900	0.428760
H1051	H105	0.736600	0.106500	0.433200
C1931	C193	0.645000	0.101800	0.409210
C1941	C194	0.127700	0.642400	0.466570
O1161	O116	0.697400	0.117400	0.468080
C1951	C195	0.068500	0.377400	0.379810
H1061	H106	0.109200	0.398300	0.368500
C1961	C196	0.872600	0.961600	0.384460
H1071	H107	0.849900	0.975000	0.371300
C1971	C197	0.479900	0.137700	0.435150
H1081	H108	0.424300	0.151100	0.443600
O1171	O117	0.750000	0.140500	0.381620
C1981	C198	0.893700	0.389600	0.393160
H1091	H109	0.821000	0.411400	0.390300
H1101	H110	0.891700	0.330600	0.402100
C1991	C199	0.953500	0.358400	0.375040
H1111	H111	0.931400	0.402500	0.364400
H1121	H112	0.941100	0.284000	0.371900
C2001	C200	0.772600	0.905700	0.411420
H1131	H113	0.702800	0.872300	0.410400
H1141	H114	0.782300	0.932800	0.424200
O1181	O118	0.171000	0.358300	0.498300
O1191	O119	0.136800	0.974000	0.425770
O1201	O120	0.982900	0.070800	0.404330
N121	N12	0.065600	0.464800	0.393880
O1211	O121	0.525600	0.991400	0.499420
O1221	O122	0.304100	0.550600	0.499140
O1231	O123	0.061500	0.165600	0.444630
C2011	C201	0.312500	0.644200	0.502570
O1241	O124	0.270800	0.724500	0.504040
O1251	O125	0.706000	0.956700	0.495300
O1261	O126	0.086000	0.890500	0.506100
C2021	C202	0.606100	0.943200	0.496270
C2031	C203	0.957000	0.481000	0.400960
H1151	H115	0.928400	0.548600	0.396500
H1161	H116	0.955800	0.480500	0.414800
C2041	C204	0.445900	0.659000	0.499100
C2051	C205	0.893700	0.848700	0.386700
H1171	H117	0.851600	0.806700	0.377800
H1181	H118	0.968900	0.832900	0.384700
C2061	C206	0.862700	0.828000	0.405800
H1191	H119	0.923400	0.837500	0.414200
H1201	H120	0.837900	0.754800	0.407000
C2071	C207	0.482600	0.777700	0.496800
C2081	C208	0.515000	0.587000	0.496800
C2091	C209	0.580800	0.818300	0.498400
C2101	C210	0.645000	0.742000	0.495900
Cu251	Cu25	0.379770	0.618010	0.166870
Cu261	Cu26	0.440810	0.686900	0.132710
Cu271	Cu27	0.776760	0.603600	0.254530
Cu281	Cu28	0.974780	0.654810	0.249710
O1271	O127	0.478600	0.543300	0.125550
O1281	O128	0.579700	0.693800	0.146900
O1291	O129	0.291000	0.654200	0.126440
O1301	O130	0.401500	0.828700	0.142020
O1311	O131	0.010200	0.742800	0.142240
O1321	O132	0.241300	0.600600	0.155700
O1331	O133	0.353600	0.769800	0.170950
C2111	C211	0.389300	0.041600	0.152630
H1211	H121	0.395200	0.027200	0.139700
O1341	O134	0.344700	0.023200	0.222910
C2121	C212	0.373300	0.081300	0.191590
C2131	C213	0.918800	0.637600	0.182330
H1221	H122	0.988900	0.633200	0.186700
C2141	C214	0.708700	0.656300	0.170150
C2151	C215	0.791300	0.658300	0.157220
H1231	H123	0.776600	0.669500	0.144400
N131	N13	0.509500	0.286700	0.147070
C2161	C216	0.376100	0.845300	0.158730
C2171	C217	0.985800	0.655800	0.148950
C2181	C218	0.475000	0.472400	0.138310
C2191	C219	0.226300	0.613700	0.138630
C2201	C220	0.366400	0.108500	0.212030
C2211	C221	0.898900	0.643500	0.163210
O1351	O135	0.779900	0.601400	0.226970
C2221	C222	0.728200	0.643400	0.189470
H1241	H124	0.672400	0.638400	0.198200
C2231	C223	0.834500	0.638300	0.195340
C2241	C224	0.596600	0.662400	0.163630
C2251	C225	0.371500	0.959400	0.165390
C2261	C226	0.420100	0.233700	0.145290
O1361	O136	0.944200	0.645600	0.222170
C2271	C227	0.389100	0.166700	0.178760
H1251	H125	0.393500	0.236600	0.183200
C2281	C228	0.398200	0.145000	0.159210
C2291	C229	0.857600	0.627700	0.216570
O1371	O137	0.382600	0.197400	0.218080
C2301	C230	0.122600	0.568500	0.129810
H1261	H126	0.101700	0.609200	0.118500
C2311	C231	0.538400	0.372600	0.134460
H1271	H127	0.525000	0.349900	0.121300
C2321	C232	0.362300	0.979900	0.185150
H1281	H128	0.348900	0.924300	0.193600
O1381	O138	0.359500	0.250000	0.131620
C2331	C233	0.110400	0.393700	0.143160
H1291	H129	0.088600	0.321000	0.140300
H1301	H130	0.169400	0.391700	0.152100
C2341	C234	0.141600	0.453500	0.125040
H1311	H131	0.097500	0.431400	0.114400
H1321	H132	0.216000	0.441100	0.121900
C2351	C235	0.594300	0.272600	0.161420
H1331	H133	0.627700	0.202800	0.160400
H1341	H134	0.567200	0.282300	0.174200
O1391	O139	0.141700	0.671000	0.248300
O1401	O140	0.526000	0.636800	0.175770
O1411	O141	0.429200	0.482900	0.154330
N141	N14	0.035200	0.565600	0.143880
O1421	O142	0.508600	0.025600	0.249420
O1431	O143	0.949400	0.804100	0.249140
O1441	O144	0.334400	0.561500	0.194630
C2361	C236	0.855800	0.812500	0.252570
O1451	O145	0.775500	0.770800	0.254040
O1461	O146	0.543300	0.206000	0.245300
O1471	O147	0.609500	0.586000	0.256100
C2371	C237	0.556800	0.106100	0.246270
C2381	C238	0.019000	0.457000	0.150960
H1351	H135	0.951400	0.428400	0.146500
H1361	H136	0.019500	0.455800	0.164800
C2391	C239	0.841000	0.945900	0.249100
C2401	C240	0.651300	0.393700	0.136700
H1371	H137	0.693300	0.351600	0.127800
H1381	H138	0.667100	0.468900	0.134700
C2411	C241	0.672000	0.362700	0.155800
H1391	H139	0.662500	0.423400	0.164200
H1401	H140	0.745200	0.337900	0.157000
C2421	C242	0.722300	0.982600	0.246800
C2431	C243	0.913000	0.015000	0.246800
C2441	C244	0.681700	0.080800	0.248400
C2451	C245	0.758000	0.145000	0.245900
Cu291	Cu29	0.620230	0.381990	0.666870
Cu301	Cu30	0.559190	0.313100	0.632710
Cu311	Cu31	0.223240	0.396400	0.754530
Cu321	Cu32	0.025220	0.345190	0.749710
O1481	O148	0.521400	0.456700	0.625550
O1491	O149	0.420300	0.306200	0.646900
O1501	O150	0.709000	0.345800	0.626440
O1511	O151	0.598500	0.171300	0.642020
O1521	O152	0.989800	0.257200	0.642240
O1531	O153	0.758700	0.399400	0.655700
O1541	O154	0.646400	0.230200	0.670950
C2461	C246	0.610700	0.958400	0.652630
H1411	H141	0.604800	0.972800	0.639700
O1551	O155	0.655300	0.976800	0.722910
C2471	C247	0.626700	0.918700	0.691590
C2481	C248	0.081200	0.362400	0.682330
H1421	H142	0.011100	0.366800	0.686700
C2491	C249	0.291300	0.343700	0.670150
C2501	C250	0.208700	0.341700	0.657220
H1431	H143	0.223400	0.330500	0.644400
N151	N15	0.490500	0.713300	0.647070
C2511	C251	0.623900	0.154700	0.658730
C2521	C252	0.014200	0.344200	0.648950
C2531	C253	0.525000	0.527600	0.638310
C2541	C254	0.773700	0.386300	0.638630
C2551	C255	0.633600	0.891500	0.712030
C2561	C256	0.101100	0.356500	0.663210
O1561	O156	0.220100	0.398600	0.726970
C2571	C257	0.271800	0.356600	0.689470
H1441	H144	0.327600	0.361600	0.698200
C2581	C258	0.165500	0.361700	0.695340
C2591	C259	0.403400	0.337600	0.663630
C2601	C260	0.628500	0.040600	0.665390
C2611	C261	0.579900	0.766300	0.645290
O1571	O157	0.055800	0.354400	0.722170
C2621	C262	0.610900	0.833300	0.678760
H1451	H145	0.606500	0.763400	0.683200
C2631	C263	0.601800	0.855000	0.659210
C2641	C264	0.142400	0.372300	0.716570
O1581	O158	0.617400	0.802600	0.718080
C2651	C265	0.877400	0.431500	0.629810
H1461	H146	0.898300	0.390800	0.618500
C2661	C266	0.461600	0.627400	0.634460
H1471	H147	0.475000	0.650100	0.621300
C2671	C267	0.637700	0.020100	0.685150
H1481	H148	0.651100	0.075700	0.693600
O1591	O159	0.640500	0.750000	0.631620
C2681	C268	0.889600	0.606300	0.643160
H1491	H149	0.911400	0.679000	0.640300
H1501	H150	0.830600	0.608300	0.652100
C2691	C269	0.858400	0.546500	0.625040
H1511	H151	0.902500	0.568600	0.614400
H1521	H152	0.784000	0.558900	0.621900
C2701	C270	0.405700	0.727400	0.661420
H1531	H153	0.372300	0.797200	0.660400
H1541	H154	0.432800	0.717700	0.674200
O1601	O160	0.858300	0.329000	0.748300
O1611	O161	0.474000	0.363200	0.675770
O1621	O162	0.570800	0.517100	0.654330
N161	N16	0.964800	0.434400	0.643880
O1631	O163	0.491400	0.974400	0.749420
O1641	O164	0.050600	0.195900	0.749140
O1651	O165	0.665600	0.438500	0.694630
C2711	C271	0.144200	0.187500	0.752570
O1661	O166	0.224500	0.229200	0.754040
O1671	O167	0.456700	0.794000	0.745300
O1681	O168	0.390500	0.414000	0.756100
C2721	C272	0.443200	0.893900	0.746270
C2731	C273	0.981000	0.543000	0.650960
H1551	H155	0.048600	0.571600	0.646500
H1561	H156	0.980500	0.544200	0.664800
C2741	C274	0.159000	0.054100	0.749100
C2751	C275	0.348700	0.606300	0.636700
H1571	H157	0.306700	0.648400	0.627800
H1581	H158	0.332900	0.531100	0.634700
C2761	C276	0.328000	0.637300	0.655800
H1591	H159	0.337500	0.576600	0.664200
H1601	H160	0.254800	0.662100	0.657000
C2771	C277	0.277700	0.017400	0.746800
C2781	C278	0.087000	0.985000	0.746800
C2791	C279	0.318300	0.919200	0.748400
C2801	C280	0.242000	0.855000	0.745900
C2811	C281	0.128700	0.871300	0.750000
C2821	C282	0.871300	0.128700	0.250000
C2831	C283	0.628700	0.628700	0.500000
C2841	C284	0.371300	0.371300	0.000000
