data_HOXGEH_freeONLY_PM
_symmetry_space_group_name_H-M	'P1'
_cell_length_a	9.323360
_cell_length_b	18.823000
_cell_length_c	18.823000
_cell_angle_alpha	62.670300
_cell_angle_beta	80.496600
_cell_angle_gamma	99.503400
_symmetry_Int_Tables_number 1

loop_
_symmetry_equiv_pos_as_xyz
'x,y,z'

loop_
_atom_site_label
_atom_site_type_symbol
_atom_site_fract_x
_atom_site_fract_y
_atom_site_fract_z
Sn11	Sn1	0.885420	0.494370	0.443230
Sn21	Sn2	0.571140	0.002090	0.665040
Sn31	Sn3	0.328650	0.443230	0.062400
Sn41	Sn4	0.236180	0.665040	0.332870
Sn51	Sn5	0.391050	0.062400	0.494370
Sn61	Sn6	0.569050	0.332870	0.002090
Sn71	Sn7	0.114580	0.505630	0.556770
Sn81	Sn8	0.428860	0.997910	0.334960
Sn91	Sn9	0.671350	0.556770	0.937600
Sn101	Sn10	0.763820	0.334960	0.667130
Sn111	Sn11	0.608950	0.937600	0.505630
Sn121	Sn12	0.430950	0.667130	0.997910
H11	H1	0.396400	0.219200	0.693300
H21	H2	0.253100	0.146200	0.714500
H31	H3	0.119300	0.159600	0.620500
H41	H4	0.069100	0.233200	0.494000
H51	H5	0.249700	0.353200	0.385400
H61	H6	0.476500	0.399300	0.407500
H71	H7	0.861000	0.055600	0.596600
H81	H8	0.829800	0.060300	0.680200
H91	H9	0.804400	0.130900	0.597800
H101	H10	0.306500	0.949800	0.769500
H111	H11	0.412000	0.896800	0.817000
H121	H12	0.336400	0.874600	0.756700
H131	H13	0.059000	0.449200	0.358100
H141	H14	0.946500	0.366900	0.437500
H151	H15	0.888700	0.417800	0.358200
H161	H16	0.681700	0.575000	0.433200
H171	H17	0.835300	0.631700	0.428400
H181	H18	0.814000	0.627500	0.347700
H191	H19	0.089700	0.693300	0.087500
H201	H20	0.967600	0.714500	0.139300
H211	H21	0.739800	0.620500	0.219900
H221	H22	0.563100	0.494000	0.272800
H231	H23	0.635100	0.385400	0.261400
H241	H24	0.884000	0.407500	0.193200
H251	H25	0.457600	0.596600	0.347800
H261	H26	0.510000	0.680200	0.259500
H271	H27	0.402200	0.597800	0.271300
H281	H28	0.076000	0.769500	0.280700
H291	H29	0.229000	0.817000	0.286200
H301	H30	0.093100	0.756700	0.368700
H311	H31	0.417100	0.358100	0.192700
H321	H32	0.384000	0.437500	0.195600
H331	H33	0.246900	0.358200	0.224000
H341	H34	0.114900	0.433200	0.991800
H351	H35	0.263700	0.428400	0.939900
H361	H36	0.161700	0.347700	0.024800
H371	H37	0.177200	0.087500	0.219200
H381	H38	0.106900	0.139300	0.146200
H391	H39	0.959700	0.219900	0.159600
H401	H40	0.835900	0.272800	0.233200
H411	H41	0.896500	0.261400	0.353200
H421	H42	0.077200	0.193200	0.399300
H431	H43	0.805400	0.347800	0.055600
H441	H44	0.769500	0.259500	0.060300
H451	H45	0.673500	0.271300	0.130900
H461	H46	0.356700	0.280700	0.949800
H471	H47	0.515200	0.286200	0.896800
H481	H48	0.461800	0.368700	0.874600
H491	H49	0.609800	0.192700	0.449200
H501	H50	0.579600	0.195600	0.366900
H511	H51	0.470900	0.224000	0.417800
H521	H52	0.106700	0.991800	0.575000
H531	H53	0.203600	0.939900	0.631700
H541	H54	0.186500	0.024800	0.627500
H551	H55	0.603600	0.780800	0.306700
H561	H56	0.746900	0.853800	0.285500
H571	H57	0.880700	0.840400	0.379500
H581	H58	0.930900	0.766800	0.506000
H591	H59	0.750300	0.646800	0.614600
H601	H60	0.523500	0.600700	0.592500
H611	H61	0.139000	0.944400	0.403400
H621	H62	0.170200	0.939700	0.319800
H631	H63	0.195600	0.869100	0.402200
H641	H64	0.693500	0.050200	0.230500
H651	H65	0.588000	0.103200	0.183000
H661	H66	0.663600	0.125400	0.243300
H671	H67	0.941000	0.550800	0.641900
H681	H68	0.053500	0.633100	0.562500
H691	H69	0.111300	0.582200	0.641800
H701	H70	0.318300	0.425000	0.566800
H711	H71	0.164700	0.368300	0.571600
H721	H72	0.186000	0.372500	0.652300
H731	H73	0.910300	0.306700	0.912500
H741	H74	0.032400	0.285500	0.860700
H751	H75	0.260200	0.379500	0.780100
H761	H76	0.436900	0.506000	0.727200
H771	H77	0.364900	0.614600	0.738600
H781	H78	0.116000	0.592500	0.806800
H791	H79	0.542400	0.403400	0.652200
H801	H80	0.490000	0.319800	0.740500
H811	H81	0.597800	0.402200	0.728700
H821	H82	0.924000	0.230500	0.719300
H831	H83	0.771000	0.183000	0.713800
H841	H84	0.906900	0.243300	0.631300
H851	H85	0.582900	0.641900	0.807300
H861	H86	0.616000	0.562500	0.804400
H871	H87	0.753100	0.641800	0.776000
H881	H88	0.885100	0.566800	0.008200
H891	H89	0.736300	0.571600	0.060100
H901	H90	0.838300	0.652300	0.975200
H911	H91	0.822800	0.912500	0.780800
H921	H92	0.893100	0.860700	0.853800
H931	H93	0.040300	0.780100	0.840400
H941	H94	0.164100	0.727200	0.766800
H951	H95	0.103500	0.738600	0.646800
H961	H96	0.922800	0.806800	0.600700
H971	H97	0.194600	0.652200	0.944400
H981	H98	0.230500	0.740500	0.939700
H991	H99	0.326500	0.728700	0.869100
H1001	H100	0.643300	0.719300	0.050200
H1011	H101	0.484800	0.713800	0.103200
H1021	H102	0.538200	0.631300	0.125400
H1031	H103	0.390200	0.807300	0.550800
H1041	H104	0.420400	0.804400	0.633100
H1051	H105	0.529100	0.776000	0.582200
H1061	H106	0.893300	0.008200	0.425000
H1071	H107	0.796400	0.060100	0.368300
H1081	H108	0.813500	0.975200	0.372500
C11	C1	0.454540	0.125830	0.677810
C21	C2	0.353170	0.181240	0.674630
C31	C3	0.330550	0.232560	0.590410
C41	C4	0.193860	0.207970	0.576890
C51	C5	0.163280	0.251960	0.501720
C61	C6	0.269380	0.323170	0.437630
C71	C7	0.404330	0.349750	0.450860
C81	C8	0.437100	0.305870	0.525870
C91	C9	0.584820	0.341380	0.534920
C101	C10	0.796660	0.071480	0.630300
C111	C11	0.381180	0.919890	0.765450
C121	C12	0.954040	0.422490	0.392470
C131	C13	0.791630	0.595680	0.408490
C141	C14	0.132350	0.677810	0.196360
C151	C15	0.027800	0.674630	0.144130
C161	C16	0.920960	0.590410	0.177030
C171	C17	0.770750	0.576890	0.215140
C181	C18	0.665000	0.501720	0.246320
C191	C19	0.707010	0.437630	0.239200
C201	C20	0.855190	0.450860	0.199390
C211	C21	0.962970	0.525870	0.168260
C221	C22	0.119740	0.534920	0.123700
C231	C23	0.426960	0.630300	0.298220
C241	C24	0.146630	0.765450	0.314660
C251	C25	0.346510	0.392470	0.185040
C261	C26	0.200120	0.408490	0.995830
C271	C27	0.328710	0.196360	0.125830
C281	C28	0.171930	0.144130	0.181240
C291	C29	0.097990	0.177030	0.232560
C301	C30	0.985890	0.215140	0.207970
C311	C31	0.911320	0.246320	0.251960
C321	C32	0.946210	0.239200	0.323170
C331	C33	0.054580	0.199390	0.349750
C341	C34	0.131230	0.168260	0.305870
C351	C35	0.243440	0.123700	0.341380
C361	C36	0.725180	0.298220	0.071480
C371	C37	0.461290	0.314660	0.919890
C381	C38	0.531550	0.185040	0.422490
C391	C39	0.195950	0.995830	0.595680
C401	C40	0.545460	0.874170	0.322190
C411	C41	0.646830	0.818760	0.325370
C421	C42	0.669450	0.767440	0.409590
C431	C43	0.806140	0.792030	0.423110
C441	C44	0.836720	0.748040	0.498280
C451	C45	0.730620	0.676830	0.562370
C461	C46	0.595670	0.650250	0.549140
C471	C47	0.562900	0.694130	0.474130
C481	C48	0.415180	0.658620	0.465080
C491	C49	0.203340	0.928520	0.369700
C501	C50	0.618820	0.080110	0.234550
C511	C51	0.045960	0.577510	0.607530
C521	C52	0.208370	0.404320	0.591510
C531	C53	0.867650	0.322190	0.803640
C541	C54	0.972200	0.325370	0.855870
C551	C55	0.079040	0.409590	0.822970
C561	C56	0.229250	0.423110	0.784860
C571	C57	0.335000	0.498280	0.753680
C581	C58	0.292990	0.562370	0.760800
C591	C59	0.144810	0.549140	0.800610
C601	C60	0.037030	0.474130	0.831740
C611	C61	0.880260	0.465080	0.876300
C621	C62	0.573040	0.369700	0.701780
C631	C63	0.853370	0.234550	0.685340
C641	C64	0.653490	0.607530	0.814960
C651	C65	0.799880	0.591510	0.004170
C661	C66	0.671290	0.803640	0.874170
C671	C67	0.828070	0.855870	0.818760
C681	C68	0.902010	0.822970	0.767440
C691	C69	0.014110	0.784860	0.792030
C701	C70	0.088680	0.753680	0.748040
C711	C71	0.053790	0.760800	0.676830
C721	C72	0.945420	0.800610	0.650250
C731	C73	0.868770	0.831740	0.694130
C741	C74	0.756560	0.876300	0.658620
C751	C75	0.274820	0.701780	0.928520
C761	C76	0.538710	0.685340	0.080110
C771	C77	0.468450	0.814960	0.577510
C781	C78	0.804050	0.004170	0.404320
O11	O1	0.470340	0.105030	0.621310
O21	O2	0.512930	0.097740	0.735850
O31	O3	0.639690	0.295150	0.589880
O41	O4	0.645380	0.418320	0.485680
O51	O5	0.895920	0.439790	0.563130
O61	O6	0.091650	0.621310	0.273660
O71	O7	0.248780	0.735850	0.166410
O81	O8	0.229570	0.589880	0.114970
O91	O9	0.131060	0.485680	0.096000
O101	O10	0.459050	0.563130	0.997080
O111	O11	0.365310	0.273660	0.105030
O121	O12	0.415190	0.166410	0.097740
O131	O13	0.344540	0.114970	0.295150
O141	O14	0.227060	0.096000	0.418320
O151	O15	0.456130	0.997080	0.439790
O161	O16	0.529660	0.894970	0.378690
O171	O17	0.487070	0.902260	0.264150
O181	O18	0.360310	0.704850	0.410120
O191	O19	0.354620	0.581680	0.514320
O201	O20	0.104080	0.560210	0.436870
O211	O21	0.908350	0.378690	0.726340
O221	O22	0.751220	0.264150	0.833590
O231	O23	0.770430	0.410120	0.885030
O241	O24	0.868940	0.514320	0.904000
O251	O25	0.540950	0.436870	0.002920
O261	O26	0.634690	0.726340	0.894970
O271	O27	0.584810	0.833590	0.902260
O281	O28	0.655460	0.885030	0.704850
O291	O29	0.772940	0.904000	0.581680
O301	O30	0.543870	0.002920	0.560210
