data_HOXSUK_freeONLY_PM
_symmetry_space_group_name_H-M	'P1'
_cell_length_a	42.610000
_cell_length_b	6.320000
_cell_length_c	25.202000
_cell_angle_alpha	90.000000
_cell_angle_beta	126.229000
_cell_angle_gamma	90.000000
_symmetry_Int_Tables_number 1

loop_
_symmetry_equiv_pos_as_xyz
'x,y,z'

loop_
_atom_site_label
_atom_site_type_symbol
_atom_site_fract_x
_atom_site_fract_y
_atom_site_fract_z
O11	O1	0.251800	0.961480	0.624600
C11	C1	0.603050	0.145790	0.738540
H11	H1	0.593700	0.004500	0.731400
Ni11	Ni1	0.242690	0.750060	0.551940
O21	O2	0.266270	0.945330	0.520040
C21	C2	0.631170	0.551810	0.759360
H21	H2	0.640900	0.691900	0.766100
O31	O3	0.715880	0.292530	0.897970
C31	C3	0.594060	0.504160	0.703260
H31	H3	0.578600	0.612500	0.672400
O41	O4	0.215570	0.542040	0.579520
C41	C4	0.653610	0.397880	0.804740
O51	O5	0.702790	0.638170	0.877440
C51	C5	0.639420	0.193390	0.794540
H41	H4	0.654700	0.086200	0.826100
C61	C6	0.498770	0.937630	0.475410
C71	C7	0.569880	0.939650	0.540210
H51	H5	0.593100	0.899900	0.545500
O61	O6	0.312850	0.639110	0.511580
C81	C8	0.376600	0.193720	0.553520
H61	H6	0.362200	0.085600	0.556400
C91	C9	0.572550	0.052950	0.587360
H71	H7	0.597600	0.089000	0.625600
O71	O7	0.299980	0.291930	0.504310
C101	C10	0.693760	0.449230	0.865050
C111	C11	0.538590	0.122190	0.582000
C121	C12	0.412270	0.148090	0.565680
H81	H8	0.422000	0.007600	0.577100
C131	C13	0.579710	0.300840	0.692270
C141	C14	0.322120	0.447200	0.516760
C151	C15	0.532960	0.875620	0.481580
C161	C16	0.384730	0.556090	0.537100
H91	H9	0.375900	0.698500	0.529600
C171	C17	0.506990	0.307410	0.621890
H101	H10	0.508800	0.396600	0.653900
C181	C18	0.362290	0.399980	0.537120
C191	C19	0.420320	0.510300	0.547930
H111	H11	0.434800	0.620200	0.546000
C201	C20	0.434310	0.304300	0.561490
C211	C21	0.540760	0.243950	0.630290
C221	C22	0.470290	0.243560	0.567450
H121	H12	0.269210	0.892330	0.667590
H131	H13	0.267470	0.078070	0.625910
H141	H14	0.223610	0.475800	0.621340
H151	H15	0.207340	0.420870	0.549320
H161	H16	0.292920	0.937000	0.561200
O81	O8	0.751800	0.461480	0.624600
C231	C23	0.103050	0.645790	0.738540
H171	H17	0.093700	0.504500	0.731400
Ni21	Ni2	0.742690	0.250060	0.551940
O91	O9	0.766270	0.445330	0.520040
C241	C24	0.131170	0.051810	0.759360
H181	H18	0.140900	0.191900	0.766100
O101	O10	0.215880	0.792530	0.897970
C251	C25	0.094060	0.004160	0.703260
H191	H19	0.078600	0.112500	0.672400
O111	O11	0.715570	0.042040	0.579520
C261	C26	0.153610	0.897880	0.804740
O121	O12	0.202790	0.138170	0.877440
C271	C27	0.139420	0.693390	0.794540
H201	H20	0.154700	0.586200	0.826100
C281	C28	0.998770	0.437630	0.475410
C291	C29	0.069880	0.439650	0.540210
H211	H21	0.093100	0.399900	0.545500
O131	O13	0.812850	0.139110	0.511580
C301	C30	0.876600	0.693720	0.553520
H221	H22	0.862200	0.585600	0.556400
C311	C31	0.072550	0.552950	0.587360
H231	H23	0.097600	0.589000	0.625600
O141	O14	0.799980	0.791930	0.504310
C321	C32	0.193760	0.949230	0.865050
C331	C33	0.038590	0.622190	0.582000
C341	C34	0.912270	0.648090	0.565680
H241	H24	0.922000	0.507600	0.577100
C351	C35	0.079710	0.800840	0.692270
C361	C36	0.822120	0.947200	0.516760
C371	C37	0.032960	0.375620	0.481580
C381	C38	0.884730	0.056090	0.537100
H251	H25	0.875900	0.198500	0.529600
C391	C39	0.006990	0.807410	0.621890
H261	H26	0.008800	0.896600	0.653900
C401	C40	0.862290	0.899980	0.537120
C411	C41	0.920320	0.010300	0.547930
H271	H27	0.934800	0.120200	0.546000
C421	C42	0.934310	0.804300	0.561490
C431	C43	0.040760	0.743950	0.630290
C441	C44	0.970290	0.743560	0.567450
H281	H28	0.769210	0.392330	0.667590
H291	H29	0.767470	0.578070	0.625910
H301	H30	0.723610	0.975800	0.621340
H311	H31	0.707340	0.920870	0.549320
H321	H32	0.792920	0.437000	0.561200
O151	O15	0.748200	0.961480	0.875400
C451	C45	0.396950	0.145790	0.761460
H331	H33	0.406300	0.004500	0.768600
Ni31	Ni3	0.757310	0.750060	0.948060
O161	O16	0.733730	0.945330	0.979960
C461	C46	0.368830	0.551810	0.740640
H341	H34	0.359100	0.691900	0.733900
O171	O17	0.284120	0.292530	0.602030
C471	C47	0.405940	0.504160	0.796740
H351	H35	0.421400	0.612500	0.827600
O181	O18	0.784430	0.542040	0.920480
C481	C48	0.346390	0.397880	0.695260
O191	O19	0.297210	0.638170	0.622560
C491	C49	0.360580	0.193390	0.705460
H361	H36	0.345300	0.086200	0.673900
C501	C50	0.501230	0.937630	0.024590
C511	C51	0.430120	0.939650	0.959790
H371	H37	0.406900	0.899900	0.954500
O201	O20	0.687150	0.639110	0.988420
C521	C52	0.623400	0.193720	0.946480
H381	H38	0.637800	0.085600	0.943600
C531	C53	0.427450	0.052950	0.912640
H391	H39	0.402400	0.089000	0.874400
O211	O21	0.700020	0.291930	0.995690
C541	C54	0.306240	0.449230	0.634950
C551	C55	0.461410	0.122190	0.918000
C561	C56	0.587730	0.148090	0.934320
H401	H40	0.578000	0.007600	0.922900
C571	C57	0.420290	0.300840	0.807730
C581	C58	0.677880	0.447200	0.983240
C591	C59	0.467040	0.875620	0.018420
C601	C60	0.615270	0.556090	0.962900
H411	H41	0.624100	0.698500	0.970400
C611	C61	0.493010	0.307410	0.878110
H421	H42	0.491200	0.396600	0.846100
C621	C62	0.637710	0.399980	0.962880
C631	C63	0.579680	0.510300	0.952070
H431	H43	0.565200	0.620200	0.954000
C641	C64	0.565690	0.304300	0.938510
C651	C65	0.459240	0.243950	0.869710
C661	C66	0.529710	0.243560	0.932550
H441	H44	0.730790	0.892330	0.832410
H451	H45	0.732530	0.078070	0.874090
H461	H46	0.776390	0.475800	0.878660
H471	H47	0.792660	0.420870	0.950680
H481	H48	0.707080	0.937000	0.938800
O221	O22	0.248200	0.461480	0.875400
C671	C67	0.896950	0.645790	0.761460
H491	H49	0.906300	0.504500	0.768600
Ni41	Ni4	0.257310	0.250060	0.948060
O231	O23	0.233730	0.445330	0.979960
C681	C68	0.868830	0.051810	0.740640
H501	H50	0.859100	0.191900	0.733900
O241	O24	0.784120	0.792530	0.602030
C691	C69	0.905940	0.004160	0.796740
H511	H51	0.921400	0.112500	0.827600
O251	O25	0.284430	0.042040	0.920480
C701	C70	0.846390	0.897880	0.695260
O261	O26	0.797210	0.138170	0.622560
C711	C71	0.860580	0.693390	0.705460
H521	H52	0.845300	0.586200	0.673900
C721	C72	0.001230	0.437630	0.024590
C731	C73	0.930120	0.439650	0.959790
H531	H53	0.906900	0.399900	0.954500
O271	O27	0.187150	0.139110	0.988420
C741	C74	0.123400	0.693720	0.946480
H541	H54	0.137800	0.585600	0.943600
C751	C75	0.927450	0.552950	0.912640
H551	H55	0.902400	0.589000	0.874400
O281	O28	0.200020	0.791930	0.995690
C761	C76	0.806240	0.949230	0.634950
C771	C77	0.961410	0.622190	0.918000
C781	C78	0.087730	0.648090	0.934320
H561	H56	0.078000	0.507600	0.922900
C791	C79	0.920290	0.800840	0.807730
C801	C80	0.177880	0.947200	0.983240
C811	C81	0.967040	0.375620	0.018420
C821	C82	0.115270	0.056090	0.962900
H571	H57	0.124100	0.198500	0.970400
C831	C83	0.993010	0.807410	0.878110
H581	H58	0.991200	0.896600	0.846100
C841	C84	0.137710	0.899980	0.962880
C851	C85	0.079680	0.010300	0.952070
H591	H59	0.065200	0.120200	0.954000
C861	C86	0.065690	0.804300	0.938510
C871	C87	0.959240	0.743950	0.869710
C881	C88	0.029710	0.743560	0.932550
H601	H60	0.230790	0.392330	0.832410
H611	H61	0.232530	0.578070	0.874090
H621	H62	0.276390	0.975800	0.878660
H631	H63	0.292660	0.920870	0.950680
H641	H64	0.207080	0.437000	0.938800
O291	O29	0.748200	0.038520	0.375400
C891	C89	0.396950	0.854210	0.261460
H651	H65	0.406300	0.995500	0.268600
Ni51	Ni5	0.757310	0.249940	0.448060
O301	O30	0.733730	0.054670	0.479960
C901	C90	0.368830	0.448190	0.240640
H661	H66	0.359100	0.308100	0.233900
O311	O31	0.284120	0.707470	0.102030
C911	C91	0.405940	0.495840	0.296740
H671	H67	0.421400	0.387500	0.327600
O321	O32	0.784430	0.457960	0.420480
C921	C92	0.346390	0.602120	0.195260
O331	O33	0.297210	0.361830	0.122560
C931	C93	0.360580	0.806610	0.205460
H681	H68	0.345300	0.913800	0.173900
C941	C94	0.501230	0.062370	0.524590
C951	C95	0.430120	0.060350	0.459790
H691	H69	0.406900	0.100100	0.454500
O341	O34	0.687150	0.360890	0.488420
C961	C96	0.623400	0.806280	0.446480
H701	H70	0.637800	0.914400	0.443600
C971	C97	0.427450	0.947050	0.412640
H711	H71	0.402400	0.911000	0.374400
O351	O35	0.700020	0.708070	0.495690
C981	C98	0.306240	0.550770	0.134950
C991	C99	0.461410	0.877810	0.418000
C1001	C100	0.587730	0.851910	0.434320
H721	H72	0.578000	0.992400	0.422900
C1011	C101	0.420290	0.699160	0.307730
C1021	C102	0.677880	0.552800	0.483240
C1031	C103	0.467040	0.124380	0.518420
C1041	C104	0.615270	0.443910	0.462900
H731	H73	0.624100	0.301500	0.470400
C1051	C105	0.493010	0.692590	0.378110
H741	H74	0.491200	0.603400	0.346100
C1061	C106	0.637710	0.600020	0.462880
C1071	C107	0.579680	0.489700	0.452070
H751	H75	0.565200	0.379800	0.454000
C1081	C108	0.565690	0.695700	0.438510
C1091	C109	0.459240	0.756050	0.369710
C1101	C110	0.529710	0.756440	0.432550
H761	H76	0.730790	0.107670	0.332410
H771	H77	0.732530	0.921930	0.374090
H781	H78	0.776390	0.524200	0.378660
H791	H79	0.792660	0.579130	0.450680
H801	H80	0.707080	0.063000	0.438800
O361	O36	0.248200	0.538520	0.375400
C1111	C111	0.896950	0.354210	0.261460
H811	H81	0.906300	0.495500	0.268600
Ni61	Ni6	0.257310	0.749940	0.448060
O371	O37	0.233730	0.554670	0.479960
C1121	C112	0.868830	0.948190	0.240640
H821	H82	0.859100	0.808100	0.233900
O381	O38	0.784120	0.207470	0.102030
C1131	C113	0.905940	0.995840	0.296740
H831	H83	0.921400	0.887500	0.327600
O391	O39	0.284430	0.957960	0.420480
C1141	C114	0.846390	0.102120	0.195260
O401	O40	0.797210	0.861830	0.122560
C1151	C115	0.860580	0.306610	0.205460
H841	H84	0.845300	0.413800	0.173900
C1161	C116	0.001230	0.562370	0.524590
C1171	C117	0.930120	0.560350	0.459790
H851	H85	0.906900	0.600100	0.454500
O411	O41	0.187150	0.860890	0.488420
C1181	C118	0.123400	0.306280	0.446480
H861	H86	0.137800	0.414400	0.443600
C1191	C119	0.927450	0.447050	0.412640
H871	H87	0.902400	0.411000	0.374400
O421	O42	0.200020	0.208070	0.495690
C1201	C120	0.806240	0.050770	0.134950
C1211	C121	0.961410	0.377810	0.418000
C1221	C122	0.087730	0.351910	0.434320
H881	H88	0.078000	0.492400	0.422900
C1231	C123	0.920290	0.199160	0.307730
C1241	C124	0.177880	0.052800	0.483240
C1251	C125	0.967040	0.624380	0.518420
C1261	C126	0.115270	0.943910	0.462900
H891	H89	0.124100	0.801500	0.470400
C1271	C127	0.993010	0.192590	0.378110
H901	H90	0.991200	0.103400	0.346100
C1281	C128	0.137710	0.100020	0.462880
C1291	C129	0.079680	0.989700	0.452070
H911	H91	0.065200	0.879800	0.454000
C1301	C130	0.065690	0.195700	0.438510
C1311	C131	0.959240	0.256050	0.369710
C1321	C132	0.029710	0.256440	0.432550
H921	H92	0.230790	0.607670	0.332410
H931	H93	0.232530	0.421930	0.374090
H941	H94	0.276390	0.024200	0.378660
H951	H95	0.292660	0.079130	0.450680
H961	H96	0.207080	0.563000	0.438800
O431	O43	0.251800	0.038520	0.124600
C1331	C133	0.603050	0.854210	0.238540
H971	H97	0.593700	0.995500	0.231400
Ni71	Ni7	0.242690	0.249940	0.051940
O441	O44	0.266270	0.054670	0.020040
C1341	C134	0.631170	0.448190	0.259360
H981	H98	0.640900	0.308100	0.266100
O451	O45	0.715880	0.707470	0.397970
C1351	C135	0.594060	0.495840	0.203260
H991	H99	0.578600	0.387500	0.172400
O461	O46	0.215570	0.457960	0.079520
C1361	C136	0.653610	0.602120	0.304740
O471	O47	0.702790	0.361830	0.377440
C1371	C137	0.639420	0.806610	0.294540
H1001	H100	0.654700	0.913800	0.326100
C1381	C138	0.498770	0.062370	0.975410
C1391	C139	0.569880	0.060350	0.040210
H1011	H101	0.593100	0.100100	0.045500
O481	O48	0.312850	0.360890	0.011580
C1401	C140	0.376600	0.806280	0.053520
H1021	H102	0.362200	0.914400	0.056400
C1411	C141	0.572550	0.947050	0.087360
H1031	H103	0.597600	0.911000	0.125600
O491	O49	0.299980	0.708070	0.004310
C1421	C142	0.693760	0.550770	0.365050
C1431	C143	0.538590	0.877810	0.082000
C1441	C144	0.412270	0.851910	0.065680
H1041	H104	0.422000	0.992400	0.077100
C1451	C145	0.579710	0.699160	0.192270
C1461	C146	0.322120	0.552800	0.016760
C1471	C147	0.532960	0.124380	0.981580
C1481	C148	0.384730	0.443910	0.037100
H1051	H105	0.375900	0.301500	0.029600
C1491	C149	0.506990	0.692590	0.121890
H1061	H106	0.508800	0.603400	0.153900
C1501	C150	0.362290	0.600020	0.037120
C1511	C151	0.420320	0.489700	0.047930
H1071	H107	0.434800	0.379800	0.046000
C1521	C152	0.434310	0.695700	0.061490
C1531	C153	0.540760	0.756050	0.130290
C1541	C154	0.470290	0.756440	0.067450
H1081	H108	0.269210	0.107670	0.167590
H1091	H109	0.267470	0.921930	0.125910
H1101	H110	0.223610	0.524200	0.121340
H1111	H111	0.207340	0.579130	0.049320
H1121	H112	0.292920	0.063000	0.061200
O501	O50	0.751800	0.538520	0.124600
C1551	C155	0.103050	0.354210	0.238540
H1131	H113	0.093700	0.495500	0.231400
Ni81	Ni8	0.742690	0.749940	0.051940
O511	O51	0.766270	0.554670	0.020040
C1561	C156	0.131170	0.948190	0.259360
H1141	H114	0.140900	0.808100	0.266100
O521	O52	0.215880	0.207470	0.397970
C1571	C157	0.094060	0.995840	0.203260
H1151	H115	0.078600	0.887500	0.172400
O531	O53	0.715570	0.957960	0.079520
C1581	C158	0.153610	0.102120	0.304740
O541	O54	0.202790	0.861830	0.377440
C1591	C159	0.139420	0.306610	0.294540
H1161	H116	0.154700	0.413800	0.326100
C1601	C160	0.998770	0.562370	0.975410
C1611	C161	0.069880	0.560350	0.040210
H1171	H117	0.093100	0.600100	0.045500
O551	O55	0.812850	0.860890	0.011580
C1621	C162	0.876600	0.306280	0.053520
H1181	H118	0.862200	0.414400	0.056400
C1631	C163	0.072550	0.447050	0.087360
H1191	H119	0.097600	0.411000	0.125600
O561	O56	0.799980	0.208070	0.004310
C1641	C164	0.193760	0.050770	0.365050
C1651	C165	0.038590	0.377810	0.082000
C1661	C166	0.912270	0.351910	0.065680
H1201	H120	0.922000	0.492400	0.077100
C1671	C167	0.079710	0.199160	0.192270
C1681	C168	0.822120	0.052800	0.016760
C1691	C169	0.032960	0.624380	0.981580
C1701	C170	0.884730	0.943910	0.037100
H1211	H121	0.875900	0.801500	0.029600
C1711	C171	0.006990	0.192590	0.121890
H1221	H122	0.008800	0.103400	0.153900
C1721	C172	0.862290	0.100020	0.037120
C1731	C173	0.920320	0.989700	0.047930
H1231	H123	0.934800	0.879800	0.046000
C1741	C174	0.934310	0.195700	0.061490
C1751	C175	0.040760	0.256050	0.130290
C1761	C176	0.970290	0.256440	0.067450
H1241	H124	0.769210	0.607670	0.167590
H1251	H125	0.767470	0.421930	0.125910
H1261	H126	0.723610	0.024200	0.121340
H1271	H127	0.707340	0.079130	0.049320
H1281	H128	0.792920	0.563000	0.061200
Ni91	Ni9	0.250000	0.250000	0.500000
Ni101	Ni10	0.750000	0.250000	0.000000
Ni111	Ni11	0.750000	0.750000	0.500000
Ni121	Ni12	0.250000	0.750000	0.000000
