data_HOYROE_freeONLY_PM
_symmetry_space_group_name_H-M	'P1'
_cell_length_a	10.878300
_cell_length_b	28.394500
_cell_length_c	9.214100
_cell_angle_alpha	90.000000
_cell_angle_beta	90.000000
_cell_angle_gamma	90.000000
_symmetry_Int_Tables_number 1

loop_
_symmetry_equiv_pos_as_xyz
'x,y,z'

loop_
_atom_site_label
_atom_site_type_symbol
_atom_site_fract_x
_atom_site_fract_y
_atom_site_fract_z
Ba11	Ba1	0.140800	0.445190	0.027880
Li11	Li1	0.410000	0.161300	0.842500
Li21	Li2	0.418200	0.385300	0.940900
Li31	Li3	0.722300	0.439600	0.088400
O11	O1	0.074700	0.345330	0.078500
O21	O2	0.265800	0.358960	0.002500
O31	O3	0.082300	0.136930	0.043400
O41	O4	0.262600	0.126530	0.928600
O51	O5	0.421300	0.445290	0.061400
O61	O6	0.582100	0.450780	0.211600
O71	O7	0.172000	0.418550	0.726600
O81	O8	0.374800	0.420550	0.768100
O91	O9	0.726700	0.474770	0.904900
O101	O10	0.923400	0.455230	0.885300
O111	O11	0.847000	0.472750	0.192400
O121	O12	0.008800	0.434600	0.282000
O131	O13	0.416600	0.168930	0.634000
N11	N1	0.299700	0.266270	0.934800
H11	H1	0.355000	0.285500	0.898100
N21	N2	0.303500	0.219280	0.920700
N31	N3	0.268500	0.428560	0.291800
N41	N4	0.221700	0.421720	0.424200
H21	H2	0.143000	0.417200	0.441200
N51	N5	0.701000	0.466050	0.605000
N61	N6	0.730200	0.464050	0.463400
H31	H3	0.676600	0.468200	0.393000
N71	N7	0.517100	0.182970	0.422000
C11	C1	0.179300	0.332200	0.034400
C21	C2	0.201100	0.280530	0.012000
C31	C3	0.137400	0.240670	0.051600
H41	H4	0.064100	0.238900	0.107500
C41	C4	0.204200	0.203500	0.991700
C51	C5	0.180700	0.151400	0.989200
C61	C6	0.470300	0.444110	0.185500
C71	C7	0.389600	0.433800	0.311500
C81	C8	0.419000	0.430060	0.459800
H51	H5	0.498200	0.432200	0.502700
C91	C9	0.308700	0.422580	0.529700
C101	C10	0.280500	0.419520	0.686800
C111	C11	0.820800	0.462000	0.832400
C121	C12	0.808900	0.458500	0.672500
C131	C13	0.904100	0.451180	0.574900
H61	H6	0.987900	0.444900	0.596600
C141	C14	0.851500	0.454990	0.440700
C151	C15	0.906400	0.453720	0.293500
C161	C16	0.505900	0.181670	0.565500
H71	H7	0.575100	0.191800	0.620200
C171	C17	0.629300	0.198900	0.352500
H81	H8	0.689700	0.207600	0.426800
H91	H9	0.611300	0.226400	0.291700
H101	H10	0.662700	0.173600	0.291900
C181	C18	0.420500	0.167700	0.326300
H111	H11	0.354300	0.153400	0.383300
H121	H12	0.453100	0.144600	0.257500
H131	H13	0.388300	0.194900	0.272800
Ba21	Ba2	0.859200	0.554810	0.027880
Li41	Li4	0.590000	0.838700	0.842500
Li51	Li5	0.581800	0.614700	0.940900
Li61	Li6	0.277700	0.560400	0.088400
O141	O14	0.925300	0.654670	0.078500
O151	O15	0.734200	0.641040	0.002500
O161	O16	0.917700	0.863070	0.043400
O171	O17	0.737400	0.873470	0.928600
O181	O18	0.578700	0.554710	0.061400
O191	O19	0.417900	0.549220	0.211600
O201	O20	0.828000	0.581450	0.726600
O211	O21	0.625200	0.579450	0.768100
O221	O22	0.273300	0.525230	0.904900
O231	O23	0.076600	0.544770	0.885300
O241	O24	0.153000	0.527250	0.192400
O251	O25	0.991200	0.565400	0.282000
O261	O26	0.583400	0.831070	0.634000
N81	N8	0.700300	0.733730	0.934800
H141	H14	0.645000	0.714500	0.898100
N91	N9	0.696500	0.780720	0.920700
N101	N10	0.731500	0.571440	0.291800
N111	N11	0.778300	0.578280	0.424200
H151	H15	0.857000	0.582800	0.441200
N121	N12	0.299000	0.533950	0.605000
N131	N13	0.269800	0.535950	0.463400
H161	H16	0.323400	0.531800	0.393000
N141	N14	0.482900	0.817030	0.422000
C191	C19	0.820700	0.667800	0.034400
C201	C20	0.798900	0.719470	0.012000
C211	C21	0.862600	0.759330	0.051600
H171	H17	0.935900	0.761100	0.107500
C221	C22	0.795800	0.796500	0.991700
C231	C23	0.819300	0.848600	0.989200
C241	C24	0.529700	0.555890	0.185500
C251	C25	0.610400	0.566200	0.311500
C261	C26	0.581000	0.569940	0.459800
H181	H18	0.501800	0.567800	0.502700
C271	C27	0.691300	0.577420	0.529700
C281	C28	0.719500	0.580480	0.686800
C291	C29	0.179200	0.538000	0.832400
C301	C30	0.191100	0.541500	0.672500
C311	C31	0.095900	0.548820	0.574900
H191	H19	0.012100	0.555100	0.596600
C321	C32	0.148500	0.545010	0.440700
C331	C33	0.093600	0.546280	0.293500
C341	C34	0.494100	0.818330	0.565500
H201	H20	0.424900	0.808200	0.620200
C351	C35	0.370700	0.801100	0.352500
H211	H21	0.310300	0.792400	0.426800
H221	H22	0.388700	0.773600	0.291700
H231	H23	0.337300	0.826400	0.291900
C361	C36	0.579500	0.832300	0.326300
H241	H24	0.645700	0.846600	0.383300
H251	H25	0.546900	0.855400	0.257500
H261	H26	0.611700	0.805100	0.272800
Ba31	Ba3	0.359200	0.945190	0.972120
Li71	Li7	0.090000	0.661300	0.157500
Li81	Li8	0.081800	0.885300	0.059100
Li91	Li9	0.777700	0.939600	0.911600
O271	O27	0.425300	0.845330	0.921500
O281	O28	0.234200	0.858960	0.997500
O291	O29	0.417700	0.636930	0.956600
O301	O30	0.237400	0.626530	0.071400
O311	O31	0.078700	0.945290	0.938600
O321	O32	0.917900	0.950780	0.788400
O331	O33	0.328000	0.918550	0.273400
O341	O34	0.125200	0.920550	0.231900
O351	O35	0.773300	0.974770	0.095100
O361	O36	0.576600	0.955230	0.114700
O371	O37	0.653000	0.972750	0.807600
O381	O38	0.491200	0.934600	0.718000
O391	O39	0.083400	0.668930	0.366000
N151	N15	0.200300	0.766270	0.065200
H271	H27	0.145000	0.785500	0.101900
N161	N16	0.196500	0.719280	0.079300
N171	N17	0.231500	0.928560	0.708200
N181	N18	0.278300	0.921720	0.575800
H281	H28	0.357000	0.917200	0.558800
N191	N19	0.799000	0.966050	0.395000
N201	N20	0.769800	0.964050	0.536600
H291	H29	0.823400	0.968200	0.607000
N211	N21	0.982900	0.682970	0.578000
C371	C37	0.320700	0.832200	0.965600
C381	C38	0.298900	0.780530	0.988000
C391	C39	0.362600	0.740670	0.948400
H301	H30	0.435900	0.738900	0.892500
C401	C40	0.295800	0.703500	0.008300
C411	C41	0.319300	0.651400	0.010800
C421	C42	0.029700	0.944110	0.814500
C431	C43	0.110400	0.933800	0.688500
C441	C44	0.081000	0.930060	0.540200
H311	H31	0.001800	0.932200	0.497300
C451	C45	0.191300	0.922580	0.470300
C461	C46	0.219500	0.919520	0.313200
C471	C47	0.679200	0.962000	0.167600
C481	C48	0.691100	0.958500	0.327500
C491	C49	0.595900	0.951180	0.425100
H321	H32	0.512100	0.944900	0.403400
C501	C50	0.648500	0.954990	0.559300
C511	C51	0.593600	0.953720	0.706500
C521	C52	0.994100	0.681670	0.434500
H331	H33	0.924900	0.691800	0.379800
C531	C53	0.870700	0.698900	0.647500
H341	H34	0.810300	0.707600	0.573200
H351	H35	0.888700	0.726400	0.708300
H361	H36	0.837300	0.673600	0.708100
C541	C54	0.079500	0.667700	0.673700
H371	H37	0.145700	0.653400	0.616700
H381	H38	0.046900	0.644600	0.742500
H391	H39	0.111700	0.694900	0.727200
Ba41	Ba4	0.640800	0.054810	0.972120
Li101	Li10	0.910000	0.338700	0.157500
Li111	Li11	0.918200	0.114700	0.059100
Li121	Li12	0.222300	0.060400	0.911600
O401	O40	0.574700	0.154670	0.921500
O411	O41	0.765800	0.141040	0.997500
O421	O42	0.582300	0.363070	0.956600
O431	O43	0.762600	0.373470	0.071400
O441	O44	0.921300	0.054710	0.938600
O451	O45	0.082100	0.049220	0.788400
O461	O46	0.672000	0.081450	0.273400
O471	O47	0.874800	0.079450	0.231900
O481	O48	0.226700	0.025230	0.095100
O491	O49	0.423400	0.044770	0.114700
O501	O50	0.347000	0.027250	0.807600
O511	O51	0.508800	0.065400	0.718000
O521	O52	0.916600	0.331070	0.366000
N221	N22	0.799700	0.233730	0.065200
H401	H40	0.855000	0.214500	0.101900
N231	N23	0.803500	0.280720	0.079300
N241	N24	0.768500	0.071440	0.708200
N251	N25	0.721700	0.078280	0.575800
H411	H41	0.643000	0.082800	0.558800
N261	N26	0.201000	0.033950	0.395000
N271	N27	0.230200	0.035950	0.536600
H421	H42	0.176600	0.031800	0.607000
N281	N28	0.017100	0.317030	0.578000
C551	C55	0.679300	0.167800	0.965600
C561	C56	0.701100	0.219470	0.988000
C571	C57	0.637400	0.259330	0.948400
H431	H43	0.564100	0.261100	0.892500
C581	C58	0.704200	0.296500	0.008300
C591	C59	0.680700	0.348600	0.010800
C601	C60	0.970300	0.055890	0.814500
C611	C61	0.889600	0.066200	0.688500
C621	C62	0.919000	0.069940	0.540200
H441	H44	0.998200	0.067800	0.497300
C631	C63	0.808700	0.077420	0.470300
C641	C64	0.780500	0.080480	0.313200
C651	C65	0.320800	0.038000	0.167600
C661	C66	0.308900	0.041500	0.327500
C671	C67	0.404100	0.048820	0.425100
H451	H45	0.487900	0.055100	0.403400
C681	C68	0.351500	0.045010	0.559300
C691	C69	0.406400	0.046280	0.706500
C701	C70	0.005900	0.318330	0.434500
H461	H46	0.075100	0.308200	0.379800
C711	C71	0.129300	0.301100	0.647500
H471	H47	0.189700	0.292400	0.573200
H481	H48	0.111300	0.273600	0.708300
H491	H49	0.162700	0.326400	0.708100
C721	C72	0.920500	0.332300	0.673700
H501	H50	0.854300	0.346600	0.616700
H511	H51	0.953100	0.355400	0.742500
H521	H52	0.888300	0.305100	0.727200
Ba51	Ba5	0.500000	0.500000	0.823370
Ba61	Ba6	0.000000	0.000000	0.176630
