data_HUCLIB_freeONLY_PM
_symmetry_space_group_name_H-M	'P1'
_cell_length_a	9.172600
_cell_length_b	9.714500
_cell_length_c	22.344400
_cell_angle_alpha	90.000000
_cell_angle_beta	90.000000
_cell_angle_gamma	117.295000
_symmetry_Int_Tables_number 1

loop_
_symmetry_equiv_pos_as_xyz
'x,y,z'

loop_
_atom_site_label
_atom_site_type_symbol
_atom_site_fract_x
_atom_site_fract_y
_atom_site_fract_z
Sm11	Sm1	0.882330	0.142850	0.008690
Sm21	Sm2	0.617670	0.857150	0.508680
Sm31	Sm3	0.117670	0.857150	0.991310
Sm41	Sm4	0.382330	0.142850	0.491320
Ag11	Ag1	0.516910	0.179330	0.147630
Ag21	Ag2	0.983090	0.820670	0.647630
Ag31	Ag3	0.483090	0.820670	0.852370
Ag41	Ag4	0.016910	0.179330	0.352370
H11	H1	0.756000	0.469600	0.868100
H21	H2	0.316600	0.529100	0.933400
H31	H3	0.722100	0.678800	0.841000
H41	H4	0.560800	0.279500	0.927900
H51	H5	0.988300	0.139500	0.218400
H61	H6	0.100600	0.812400	0.158900
H71	H7	0.114100	0.909700	0.332200
H81	H8	0.140000	0.763500	0.257300
H91	H9	0.744000	0.530400	0.368100
H101	H10	0.183400	0.470900	0.433400
H111	H11	0.777900	0.321200	0.341000
H121	H12	0.939200	0.720500	0.427900
H131	H13	0.511700	0.860500	0.718400
H141	H14	0.399400	0.187600	0.658900
H151	H15	0.385900	0.090300	0.832200
H161	H16	0.360000	0.236500	0.757300
H171	H17	0.244000	0.530400	0.131900
H181	H18	0.683400	0.470900	0.066600
H191	H19	0.277900	0.321200	0.159000
H201	H20	0.439200	0.720500	0.072100
H211	H21	0.011700	0.860500	0.781600
H221	H22	0.899400	0.187600	0.841100
H231	H23	0.885900	0.090300	0.667800
H241	H24	0.860000	0.236500	0.742700
H251	H25	0.256000	0.469600	0.631900
H261	H26	0.816600	0.529100	0.566600
H271	H27	0.222100	0.678800	0.659000
H281	H28	0.060800	0.279500	0.572100
H291	H29	0.488300	0.139500	0.281600
H301	H30	0.600600	0.812400	0.341100
H311	H31	0.614100	0.909700	0.167800
H321	H32	0.640000	0.763500	0.242700
C11	C1	0.414700	0.383400	0.936170
C21	C2	0.664800	0.478900	0.881290
C31	C3	0.404700	0.515400	0.919510
C41	C4	0.644100	0.604200	0.865660
C51	C5	0.281100	0.258600	0.972260
C61	C6	0.549000	0.366200	0.916900
C71	C7	0.020800	0.063600	0.226180
C81	C8	0.086400	0.869100	0.189900
C91	C9	0.093100	0.927800	0.293050
C101	C10	0.040100	0.983100	0.178160
C111	C11	0.111100	0.841200	0.248300
C121	C12	0.497200	0.020700	0.033030
C131	C13	0.007800	0.022900	0.116430
C141	C14	0.008300	0.508100	0.034690
C151	C15	0.085300	0.616600	0.436170
C161	C16	0.835200	0.521100	0.381290
C171	C17	0.095300	0.484600	0.419510
C181	C18	0.855900	0.395800	0.365660
C191	C19	0.218900	0.741400	0.472260
C201	C20	0.951000	0.633800	0.416900
C211	C21	0.479200	0.936400	0.726180
C221	C22	0.413600	0.130900	0.689900
C231	C23	0.406900	0.072200	0.793050
C241	C24	0.459900	0.016900	0.678160
C251	C25	0.388900	0.158800	0.748300
C261	C26	0.002800	0.979300	0.533030
C271	C27	0.492200	0.977100	0.616430
C281	C28	0.491700	0.491900	0.534690
C291	C29	0.585300	0.616600	0.063830
C301	C30	0.335200	0.521100	0.118710
C311	C31	0.595300	0.484600	0.080490
C321	C32	0.355900	0.395800	0.134340
C331	C33	0.718900	0.741400	0.027740
C341	C34	0.451000	0.633800	0.083100
C351	C35	0.979200	0.936400	0.773820
C361	C36	0.913600	0.130900	0.810100
C371	C37	0.906900	0.072200	0.706950
C381	C38	0.959900	0.016900	0.821840
C391	C39	0.888900	0.158800	0.751700
C401	C40	0.502800	0.979300	0.966970
C411	C41	0.992200	0.977100	0.883570
C421	C42	0.991700	0.491900	0.965310
C431	C43	0.914700	0.383400	0.563830
C441	C44	0.164800	0.478900	0.618710
C451	C45	0.904700	0.515400	0.580490
C461	C46	0.144100	0.604200	0.634340
C471	C47	0.781100	0.258600	0.527740
C481	C48	0.049000	0.366200	0.583100
C491	C49	0.520800	0.063600	0.273820
C501	C50	0.586400	0.869100	0.310100
C511	C51	0.593100	0.927800	0.206950
C521	C52	0.540100	0.983100	0.321840
C531	C53	0.611100	0.841200	0.251700
C541	C54	0.997200	0.020700	0.466970
C551	C55	0.507800	0.022900	0.383570
C561	C56	0.508300	0.508100	0.465310
N11	N1	0.516300	0.625400	0.884110
N21	N2	0.046300	0.038100	0.282960
N31	N3	0.983700	0.374600	0.384110
N41	N4	0.453700	0.961900	0.782960
N51	N5	0.483700	0.374600	0.115890
N61	N6	0.953700	0.961900	0.717040
N71	N7	0.016300	0.625400	0.615890
N81	N8	0.546300	0.038100	0.217040
O11	O1	0.630500	0.116500	0.055980
O21	O2	0.176900	0.290000	0.996740
O31	O3	0.283400	0.130900	0.973830
O41	O4	0.950400	0.384400	0.063820
O51	O5	0.361400	0.958200	0.058860
O61	O6	0.078700	0.642000	0.055700
O71	O7	0.944300	0.111800	0.111570
O81	O8	0.044800	0.965000	0.072460
O91	O9	0.869500	0.883500	0.555980
O101	O10	0.323100	0.710000	0.496740
O111	O11	0.216600	0.869100	0.473830
O121	O12	0.549600	0.615600	0.563820
O131	O13	0.138600	0.041800	0.558860
O141	O14	0.421300	0.358000	0.555700
O151	O15	0.555700	0.888200	0.611570
O161	O16	0.455200	0.035000	0.572460
O171	O17	0.369500	0.883500	0.944020
O181	O18	0.823100	0.710000	0.003260
O191	O19	0.716600	0.869100	0.026170
O201	O20	0.049600	0.615600	0.936180
O211	O21	0.638600	0.041800	0.941140
O221	O22	0.921300	0.358000	0.944300
O231	O23	0.055700	0.888200	0.888430
O241	O24	0.955200	0.035000	0.927540
O251	O25	0.130500	0.116500	0.444020
O261	O26	0.676900	0.290000	0.503260
O271	O27	0.783400	0.130900	0.526170
O281	O28	0.450400	0.384400	0.436180
O291	O29	0.861400	0.958200	0.441140
O301	O30	0.578700	0.642000	0.444300
O311	O31	0.444300	0.111800	0.388430
O321	O32	0.544800	0.965000	0.427540
