data_HUDMAW_freeONLY_PM
_symmetry_space_group_name_H-M	'P1'
_cell_length_a	13.119100
_cell_length_b	13.119100
_cell_length_c	16.014000
_cell_angle_alpha	90.000000
_cell_angle_beta	90.000000
_cell_angle_gamma	120.000000
_symmetry_Int_Tables_number 1

loop_
_symmetry_equiv_pos_as_xyz
'x,y,z'

loop_
_atom_site_label
_atom_site_type_symbol
_atom_site_fract_x
_atom_site_fract_y
_atom_site_fract_z
Co11	Co1	0.473360	0.517930	0.271710
C11	C1	0.563300	0.691800	0.146000
O11	O1	0.381200	0.373900	0.375200
O21	O2	0.474900	0.640700	0.194700
C21	C2	0.551800	0.766300	0.078700
H11	H1	0.485500	0.774700	0.077700
C31	C3	0.332200	0.431700	0.392300
O31	O3	0.650100	0.681300	0.150900
O41	O4	0.341000	0.512600	0.342400
C41	C4	0.545300	0.902600	0.914400
H21	H2	0.468300	0.869700	0.933500
C51	C5	0.632300	0.818500	0.022500
H31	H3	0.699300	0.812000	0.028900
C61	C6	0.631900	0.887100	0.949300
N11	N1	0.727500	0.947400	0.903100
C71	C7	0.268600	0.408800	0.471600
H41	H4	0.265600	0.350100	0.505800
C81	C8	0.215400	0.465400	0.497800
H51	H5	0.211500	0.518800	0.461500
C91	C9	0.162100	0.449400	0.580200
N21	N2	0.183300	0.394400	0.645500
C101	C10	0.088000	0.483300	0.611200
H61	H6	0.059000	0.524200	0.581400
C111	C11	0.124000	0.398500	0.712200
H71	H7	0.126600	0.369800	0.764800
C121	C12	0.700200	0.997700	0.844000
H81	H8	0.753200	0.045700	0.803400
N31	N3	0.061300	0.448700	0.693300
N41	N4	0.590900	0.974100	0.847300
Co21	Co2	0.482070	0.955430	0.271710
C131	C13	0.308200	0.871500	0.146000
O51	O5	0.626100	0.007300	0.375200
O61	O6	0.359300	0.834200	0.194700
C141	C14	0.233700	0.785500	0.078700
H91	H9	0.225300	0.710800	0.077700
C151	C15	0.568300	0.900500	0.392300
O71	O7	0.318700	0.968800	0.150900
O81	O8	0.487400	0.828400	0.342400
C161	C16	0.097400	0.642700	0.914400
H101	H10	0.130300	0.598600	0.933500
C171	C17	0.181500	0.813800	0.022500
H111	H11	0.188000	0.887300	0.028900
C181	C18	0.112900	0.744800	0.949300
N51	N5	0.052600	0.780100	0.903100
C191	C19	0.591200	0.859800	0.471600
H121	H12	0.649900	0.915500	0.505800
C201	C20	0.534600	0.750000	0.497800
H131	H13	0.481200	0.692700	0.461500
C211	C21	0.550600	0.712700	0.580200
N61	N6	0.605600	0.788900	0.645500
C221	C22	0.516700	0.604700	0.611200
H141	H14	0.475800	0.534800	0.581400
C231	C23	0.601500	0.725500	0.712200
H151	H15	0.630200	0.756800	0.764800
C241	C24	0.002300	0.702500	0.844000
H161	H16	0.954300	0.707500	0.803400
N71	N7	0.551300	0.612600	0.693300
N81	N8	0.025900	0.616800	0.847300
Co31	Co3	0.044570	0.526640	0.271710
C251	C25	0.128500	0.436700	0.146000
O91	O9	0.992700	0.618800	0.375200
O101	O10	0.165800	0.525100	0.194700
C261	C26	0.214500	0.448200	0.078700
H171	H17	0.289200	0.514500	0.077700
C271	C27	0.099500	0.667800	0.392300
O111	O11	0.031200	0.349900	0.150900
O121	O12	0.171600	0.659000	0.342400
C281	C28	0.357300	0.454700	0.914400
H181	H18	0.401400	0.531700	0.933500
C291	C29	0.186200	0.367700	0.022500
H191	H19	0.112700	0.300700	0.028900
C301	C30	0.255200	0.368100	0.949300
N91	N9	0.219900	0.272500	0.903100
C311	C31	0.140200	0.731400	0.471600
H201	H20	0.084500	0.734400	0.505800
C321	C32	0.250000	0.784600	0.497800
H211	H21	0.307300	0.788500	0.461500
C331	C33	0.287300	0.837900	0.580200
N101	N10	0.211100	0.816700	0.645500
C341	C34	0.395300	0.912000	0.611200
H221	H22	0.465200	0.941000	0.581400
C351	C35	0.274500	0.876000	0.712200
H231	H23	0.243200	0.873400	0.764800
C361	C36	0.297500	0.299800	0.844000
H241	H24	0.292500	0.246800	0.803400
N111	N11	0.387400	0.938700	0.693300
N121	N12	0.383200	0.409100	0.847300
Co41	Co4	0.526640	0.482070	0.771710
C371	C37	0.436700	0.308200	0.646000
O131	O13	0.618800	0.626100	0.875200
O141	O14	0.525100	0.359300	0.694700
C381	C38	0.448200	0.233700	0.578700
H251	H25	0.514500	0.225300	0.577700
C391	C39	0.667800	0.568300	0.892300
O151	O15	0.349900	0.318700	0.650900
O161	O16	0.659000	0.487400	0.842400
C401	C40	0.454700	0.097400	0.414400
H261	H26	0.531700	0.130300	0.433500
C411	C41	0.367700	0.181500	0.522500
H271	H27	0.300700	0.188000	0.528900
C421	C42	0.368100	0.112900	0.449300
N131	N13	0.272500	0.052600	0.403100
C431	C43	0.731400	0.591200	0.971600
H281	H28	0.734400	0.649900	0.005800
C441	C44	0.784600	0.534600	0.997800
H291	H29	0.788500	0.481200	0.961500
C451	C45	0.837900	0.550600	0.080200
N141	N14	0.816700	0.605600	0.145500
C461	C46	0.912000	0.516700	0.111200
H301	H30	0.941000	0.475800	0.081400
C471	C47	0.876000	0.601500	0.212200
H311	H31	0.873400	0.630200	0.264800
C481	C48	0.299800	0.002300	0.344000
H321	H32	0.246800	0.954300	0.303400
N151	N15	0.938700	0.551300	0.193300
N161	N16	0.409100	0.025900	0.347300
Co51	Co5	0.517930	0.044570	0.771710
C491	C49	0.691800	0.128500	0.646000
O171	O17	0.373900	0.992700	0.875200
O181	O18	0.640700	0.165800	0.694700
C501	C50	0.766300	0.214500	0.578700
H331	H33	0.774700	0.289200	0.577700
C511	C51	0.431700	0.099500	0.892300
O191	O19	0.681300	0.031200	0.650900
O201	O20	0.512600	0.171600	0.842400
C521	C52	0.902600	0.357300	0.414400
H341	H34	0.869700	0.401400	0.433500
C531	C53	0.818500	0.186200	0.522500
H351	H35	0.812000	0.112700	0.528900
C541	C54	0.887100	0.255200	0.449300
N171	N17	0.947400	0.219900	0.403100
C551	C55	0.408800	0.140200	0.971600
H361	H36	0.350100	0.084500	0.005800
C561	C56	0.465400	0.250000	0.997800
H371	H37	0.518800	0.307300	0.961500
C571	C57	0.449400	0.287300	0.080200
N181	N18	0.394400	0.211100	0.145500
C581	C58	0.483300	0.395300	0.111200
H381	H38	0.524200	0.465200	0.081400
C591	C59	0.398500	0.274500	0.212200
H391	H39	0.369800	0.243200	0.264800
C601	C60	0.997700	0.297500	0.344000
H401	H40	0.045700	0.292500	0.303400
N191	N19	0.448700	0.387400	0.193300
N201	N20	0.974100	0.383200	0.347300
Co61	Co6	0.955430	0.473360	0.771710
C611	C61	0.871500	0.563300	0.646000
O211	O21	0.007300	0.381200	0.875200
O221	O22	0.834200	0.474900	0.694700
C621	C62	0.785500	0.551800	0.578700
H411	H41	0.710800	0.485500	0.577700
C631	C63	0.900500	0.332200	0.892300
O231	O23	0.968800	0.650100	0.650900
O241	O24	0.828400	0.341000	0.842400
C641	C64	0.642700	0.545300	0.414400
H421	H42	0.598600	0.468300	0.433500
C651	C65	0.813800	0.632300	0.522500
H431	H43	0.887300	0.699300	0.528900
C661	C66	0.744800	0.631900	0.449300
N211	N21	0.780100	0.727500	0.403100
C671	C67	0.859800	0.268600	0.971600
H441	H44	0.915500	0.265600	0.005800
C681	C68	0.750000	0.215400	0.997800
H451	H45	0.692700	0.211500	0.961500
C691	C69	0.712700	0.162100	0.080200
N221	N22	0.788900	0.183300	0.145500
C701	C70	0.604700	0.088000	0.111200
H461	H46	0.534800	0.059000	0.081400
C711	C71	0.725500	0.124000	0.212200
H471	H47	0.756800	0.126600	0.264800
C721	C72	0.702500	0.700200	0.344000
H481	H48	0.707500	0.753200	0.303400
N231	N23	0.612600	0.061300	0.193300
N241	N24	0.616800	0.590900	0.347300
Na11	Na1	0.333330	0.666670	0.270400
Na21	Na2	0.666670	0.333330	0.770400
