data_HUDMEA_freeONLY_PM
_symmetry_space_group_name_H-M	'P1'
_cell_length_a	13.117700
_cell_length_b	13.117700
_cell_length_c	16.005000
_cell_angle_alpha	90.000000
_cell_angle_beta	90.000000
_cell_angle_gamma	120.000000
_symmetry_Int_Tables_number 1

loop_
_symmetry_equiv_pos_as_xyz
'x,y,z'

loop_
_atom_site_label
_atom_site_type_symbol
_atom_site_fract_x
_atom_site_fract_y
_atom_site_fract_z
Co11	Co1	0.044300	0.525970	0.091550
O11	O1	0.165700	0.525000	0.167800
O21	O2	0.172000	0.658800	0.020200
C11	C1	0.127200	0.436200	0.216500
C21	C2	0.099400	0.667500	0.970800
O31	O3	0.031300	0.350600	0.211600
O41	O4	0.992600	0.618700	0.987200
C31	C3	0.186300	0.367800	0.340300
H11	H1	0.113100	0.300600	0.333600
C41	C4	0.250900	0.785600	0.864800
H21	H2	0.308500	0.790000	0.901000
C51	C5	0.287700	0.838600	0.781400
C61	C6	0.141000	0.732100	0.891300
H31	H3	0.085400	0.735400	0.857100
C71	C7	0.395700	0.913900	0.750400
N11	N1	0.211400	0.818000	0.717200
H41	H4	0.136000	0.775200	0.719100
N21	N2	0.386800	0.939000	0.669700
C81	C8	0.357400	0.454500	0.447100
H51	H5	0.402500	0.530800	0.426800
N31	N3	0.383000	0.408800	0.516200
C91	C9	0.296700	0.300100	0.518600
H61	H6	0.291400	0.246600	0.558900
C101	C10	0.276500	0.877400	0.649900
N41	N4	0.218500	0.272900	0.459700
H71	H7	0.155900	0.205800	0.452300
C111	C11	0.254600	0.368800	0.413600
C121	C12	0.215300	0.449100	0.283800
H81	H8	0.290100	0.515300	0.284400
H91	H9	0.486000	0.935000	0.770000
Co21	Co2	0.474030	0.518330	0.091550
O51	O5	0.475000	0.640700	0.167800
O61	O6	0.341200	0.513200	0.020200
C131	C13	0.563800	0.691000	0.216500
C141	C14	0.332500	0.431900	0.970800
O71	O7	0.649400	0.680700	0.211600
O81	O8	0.381300	0.373900	0.987200
C151	C15	0.632200	0.818500	0.340300
H101	H10	0.699400	0.812500	0.333600
C161	C16	0.214400	0.465300	0.864800
H111	H11	0.210000	0.518500	0.901000
C171	C17	0.161400	0.449100	0.781400
C181	C18	0.267900	0.408900	0.891300
H121	H12	0.264600	0.350000	0.857100
C191	C19	0.086100	0.481800	0.750400
N51	N5	0.182000	0.393400	0.717200
H131	H13	0.224800	0.360800	0.719100
N61	N6	0.061000	0.447800	0.669700
C201	C20	0.545500	0.902900	0.447100
H141	H14	0.469200	0.871700	0.426800
N71	N7	0.591200	0.974200	0.516200
C211	C21	0.699900	0.996600	0.518600
H151	H15	0.753400	0.044800	0.558900
C221	C22	0.122600	0.399100	0.649900
N81	N8	0.727100	0.945600	0.459700
H161	H16	0.794200	0.950100	0.452300
C231	C23	0.631200	0.885800	0.413600
C241	C24	0.550900	0.766200	0.283800
H171	H17	0.484700	0.774800	0.284400
H181	H18	0.065000	0.551000	0.770000
Co31	Co3	0.481670	0.955700	0.091550
O91	O9	0.359300	0.834300	0.167800
O101	O10	0.486800	0.828000	0.020200
C251	C25	0.309000	0.872800	0.216500
C261	C26	0.568100	0.900600	0.970800
O111	O11	0.319300	0.968700	0.211600
O121	O12	0.626100	0.007400	0.987200
C271	C27	0.181500	0.813700	0.340300
H191	H19	0.187500	0.886900	0.333600
C281	C28	0.534700	0.749100	0.864800
H201	H20	0.481500	0.691500	0.901000
C291	C29	0.550900	0.712300	0.781400
C301	C30	0.591100	0.859000	0.891300
H211	H21	0.650000	0.914600	0.857100
C311	C31	0.518200	0.604300	0.750400
N91	N9	0.606600	0.788600	0.717200
H221	H22	0.639200	0.864000	0.719100
N101	N10	0.552200	0.613200	0.669700
C321	C32	0.097100	0.642600	0.447100
H231	H23	0.128300	0.597500	0.426800
N111	N11	0.025800	0.617000	0.516200
C331	C33	0.003400	0.703300	0.518600
H241	H24	0.955200	0.708600	0.558900
C341	C34	0.600900	0.723500	0.649900
N121	N12	0.054400	0.781500	0.459700
H251	H25	0.049900	0.844100	0.452300
C351	C35	0.114200	0.745400	0.413600
C361	C36	0.233800	0.784700	0.283800
H261	H26	0.225200	0.709900	0.284400
H271	H27	0.449000	0.514000	0.770000
Co41	Co4	0.955700	0.474030	0.591550
O131	O13	0.834300	0.475000	0.667800
O141	O14	0.828000	0.341200	0.520200
C371	C37	0.872800	0.563800	0.716500
C381	C38	0.900600	0.332500	0.470800
O151	O15	0.968700	0.649400	0.711600
O161	O16	0.007400	0.381300	0.487200
C391	C39	0.813700	0.632200	0.840300
H281	H28	0.886900	0.699400	0.833600
C401	C40	0.749100	0.214400	0.364800
H291	H29	0.691500	0.210000	0.401000
C411	C41	0.712300	0.161400	0.281400
C421	C42	0.859000	0.267900	0.391300
H301	H30	0.914600	0.264600	0.357100
C431	C43	0.604300	0.086100	0.250400
N131	N13	0.788600	0.182000	0.217200
H311	H31	0.864000	0.224800	0.219100
N141	N14	0.613200	0.061000	0.169700
C441	C44	0.642600	0.545500	0.947100
H321	H32	0.597500	0.469200	0.926800
N151	N15	0.617000	0.591200	0.016200
C451	C45	0.703300	0.699900	0.018600
H331	H33	0.708600	0.753400	0.058900
C461	C46	0.723500	0.122600	0.149900
N161	N16	0.781500	0.727100	0.959700
H341	H34	0.844100	0.794200	0.952300
C471	C47	0.745400	0.631200	0.913600
C481	C48	0.784700	0.550900	0.783800
H351	H35	0.709900	0.484700	0.784400
H361	H36	0.514000	0.065000	0.270000
Co51	Co5	0.525970	0.481670	0.591550
O171	O17	0.525000	0.359300	0.667800
O181	O18	0.658800	0.486800	0.520200
C491	C49	0.436200	0.309000	0.716500
C501	C50	0.667500	0.568100	0.470800
O191	O19	0.350600	0.319300	0.711600
O201	O20	0.618700	0.626100	0.487200
C511	C51	0.367800	0.181500	0.840300
H371	H37	0.300600	0.187500	0.833600
C521	C52	0.785600	0.534700	0.364800
H381	H38	0.790000	0.481500	0.401000
C531	C53	0.838600	0.550900	0.281400
C541	C54	0.732100	0.591100	0.391300
H391	H39	0.735400	0.650000	0.357100
C551	C55	0.913900	0.518200	0.250400
N171	N17	0.818000	0.606600	0.217200
H401	H40	0.775200	0.639200	0.219100
N181	N18	0.939000	0.552200	0.169700
C561	C56	0.454500	0.097100	0.947100
H411	H41	0.530800	0.128300	0.926800
N191	N19	0.408800	0.025800	0.016200
C571	C57	0.300100	0.003400	0.018600
H421	H42	0.246600	0.955200	0.058900
C581	C58	0.877400	0.600900	0.149900
N201	N20	0.272900	0.054400	0.959700
H431	H43	0.205800	0.049900	0.952300
C591	C59	0.368800	0.114200	0.913600
C601	C60	0.449100	0.233800	0.783800
H441	H44	0.515300	0.225200	0.784400
H451	H45	0.935000	0.449000	0.270000
Co61	Co6	0.518330	0.044300	0.591550
O211	O21	0.640700	0.165700	0.667800
O221	O22	0.513200	0.172000	0.520200
C611	C61	0.691000	0.127200	0.716500
C621	C62	0.431900	0.099400	0.470800
O231	O23	0.680700	0.031300	0.711600
O241	O24	0.373900	0.992600	0.487200
C631	C63	0.818500	0.186300	0.840300
H461	H46	0.812500	0.113100	0.833600
C641	C64	0.465300	0.250900	0.364800
H471	H47	0.518500	0.308500	0.401000
C651	C65	0.449100	0.287700	0.281400
C661	C66	0.408900	0.141000	0.391300
H481	H48	0.350000	0.085400	0.357100
C671	C67	0.481800	0.395700	0.250400
N211	N21	0.393400	0.211400	0.217200
H491	H49	0.360800	0.136000	0.219100
N221	N22	0.447800	0.386800	0.169700
C681	C68	0.902900	0.357400	0.947100
H501	H50	0.871700	0.402500	0.926800
N231	N23	0.974200	0.383000	0.016200
C691	C69	0.996600	0.296700	0.018600
H511	H51	0.044800	0.291400	0.058900
C701	C70	0.399100	0.276500	0.149900
N241	N24	0.945600	0.218500	0.959700
H521	H52	0.950100	0.155900	0.952300
C711	C71	0.885800	0.254600	0.913600
C721	C72	0.766200	0.215300	0.783800
H531	H53	0.774800	0.290100	0.784400
H541	H54	0.551000	0.486000	0.270000
Na11	Na1	0.333330	0.666670	0.093100
Na21	Na2	0.666670	0.333330	0.593100
