data_HUFHUN_freeONLY_PM
_symmetry_space_group_name_H-M	'P1'
_cell_length_a	29.464500
_cell_length_b	29.464500
_cell_length_c	14.263200
_cell_angle_alpha	90.000000
_cell_angle_beta	90.000000
_cell_angle_gamma	120.000000
_symmetry_Int_Tables_number 1

loop_
_symmetry_equiv_pos_as_xyz
'x,y,z'

loop_
_atom_site_label
_atom_site_type_symbol
_atom_site_fract_x
_atom_site_fract_y
_atom_site_fract_z
Ag11	Ag1	0.462080	0.070370	0.748350
C11	C1	0.449100	0.164300	0.655300
H11	H1	0.483400	0.166300	0.646300
H21	H2	0.449900	0.193900	0.621000
N11	N1	0.448400	0.139500	0.816800
C21	C2	0.440900	0.169000	0.756700
C31	C3	0.426500	0.205300	0.789100
H31	H3	0.420100	0.225400	0.744500
N21	N2	0.421500	0.212300	0.880200
C41	C4	0.428600	0.181400	0.939100
H41	H4	0.424100	0.184200	0.004400
C51	C5	0.442200	0.145300	0.907800
H51	H5	0.447300	0.124200	0.952200
N31	N3	0.405800	0.069200	0.637800
C61	C6	0.406300	0.113100	0.615200
C71	C7	0.367700	0.111400	0.555300
H61	H6	0.367900	0.143000	0.541200
N41	N4	0.330900	0.067000	0.517800
C81	C8	0.330200	0.023000	0.543300
H71	H7	0.303400	0.990200	0.520400
C91	C9	0.368000	0.024900	0.602600
H81	H8	0.366900	0.993100	0.618800
Ag21	Ag2	0.128750	0.403700	0.081680
C101	C10	0.115770	0.497630	0.988630
H91	H9	0.150070	0.499630	0.979630
H101	H10	0.116570	0.527230	0.954330
N51	N5	0.115070	0.472830	0.150130
C111	C11	0.107570	0.502330	0.090030
C121	C12	0.093170	0.538630	0.122430
H111	H11	0.086770	0.558730	0.077830
N61	N6	0.088170	0.545630	0.213530
C131	C13	0.095270	0.514730	0.272430
H121	H12	0.090770	0.517530	0.337730
C141	C14	0.108870	0.478630	0.241130
H131	H13	0.113970	0.457530	0.285530
N71	N7	0.072470	0.402530	0.971130
C151	C15	0.072970	0.446430	0.948530
C161	C16	0.034370	0.444730	0.888630
H141	H14	0.034570	0.476330	0.874530
N81	N8	0.997570	0.400330	0.851130
C171	C17	0.996870	0.356330	0.876630
H151	H15	0.970070	0.323530	0.853730
C181	C18	0.034670	0.358230	0.935930
H161	H16	0.033570	0.326430	0.952130
Ag31	Ag3	0.795410	0.737040	0.415020
C191	C19	0.782430	0.830970	0.321970
H171	H17	0.816730	0.832970	0.312970
H181	H18	0.783230	0.860570	0.287670
N91	N9	0.781730	0.806170	0.483470
C201	C20	0.774230	0.835670	0.423370
C211	C21	0.759830	0.871970	0.455770
H191	H19	0.753430	0.892070	0.411170
N101	N10	0.754830	0.878970	0.546870
C221	C22	0.761930	0.848070	0.605770
H201	H20	0.757430	0.850870	0.671070
C231	C23	0.775530	0.811970	0.574470
H211	H21	0.780630	0.790870	0.618870
N111	N11	0.739130	0.735870	0.304470
C241	C24	0.739630	0.779770	0.281870
C251	C25	0.701030	0.778070	0.221970
H221	H22	0.701230	0.809670	0.207870
N121	N12	0.664230	0.733670	0.184470
C261	C26	0.663530	0.689670	0.209970
H231	H23	0.636730	0.656870	0.187070
C271	C27	0.701330	0.691570	0.269270
H241	H24	0.700230	0.659770	0.285470
Ag41	Ag4	0.929630	0.391710	0.748350
C281	C28	0.835700	0.284800	0.655300
H251	H25	0.833700	0.317100	0.646300
H261	H26	0.806100	0.256000	0.621000
N131	N13	0.860500	0.308900	0.816800
C291	C29	0.831000	0.271900	0.756700
C301	C30	0.794700	0.221200	0.789100
H271	H27	0.774600	0.194700	0.744500
N141	N14	0.787700	0.209200	0.880200
C311	C31	0.818600	0.247200	0.939100
H281	H28	0.815800	0.239900	0.004400
C321	C32	0.854700	0.296900	0.907800
H291	H29	0.875800	0.323100	0.952200
N151	N15	0.930800	0.336600	0.637800
C331	C33	0.886900	0.293200	0.615200
C341	C34	0.888600	0.256300	0.555300
H301	H30	0.857000	0.224900	0.541200
N161	N16	0.933000	0.263900	0.517800
C351	C35	0.977000	0.307200	0.543300
H311	H31	0.009800	0.313200	0.520400
C361	C36	0.975100	0.343100	0.602600
H321	H32	0.006900	0.373800	0.618800
Ag51	Ag5	0.596300	0.725040	0.081680
C371	C37	0.502370	0.618130	0.988630
H331	H33	0.500370	0.650430	0.979630
H341	H34	0.472770	0.589330	0.954330
N171	N17	0.527170	0.642230	0.150130
C381	C38	0.497670	0.605230	0.090030
C391	C39	0.461370	0.554530	0.122430
H351	H35	0.441270	0.528030	0.077830
N181	N18	0.454370	0.542530	0.213530
C401	C40	0.485270	0.580530	0.272430
H361	H36	0.482470	0.573230	0.337730
C411	C41	0.521370	0.630230	0.241130
H371	H37	0.542470	0.656430	0.285530
N191	N19	0.597470	0.669930	0.971130
C421	C42	0.553570	0.626530	0.948530
C431	C43	0.555270	0.589630	0.888630
H381	H38	0.523670	0.558230	0.874530
N201	N20	0.599670	0.597230	0.851130
C441	C44	0.643670	0.640530	0.876630
H391	H39	0.676470	0.646530	0.853730
C451	C45	0.641770	0.676430	0.935930
H401	H40	0.673570	0.707130	0.952130
Ag61	Ag6	0.262960	0.058380	0.415020
C461	C46	0.169030	0.951470	0.321970
H411	H41	0.167030	0.983770	0.312970
H421	H42	0.139430	0.922670	0.287670
N211	N21	0.193830	0.975570	0.483470
C471	C47	0.164330	0.938570	0.423370
C481	C48	0.128030	0.887870	0.455770
H431	H43	0.107930	0.861370	0.411170
N221	N22	0.121030	0.875870	0.546870
C491	C49	0.151930	0.913870	0.605770
H441	H44	0.149130	0.906570	0.671070
C501	C50	0.188030	0.963570	0.574470
H451	H45	0.209130	0.989770	0.618870
N231	N23	0.264130	0.003270	0.304470
C511	C51	0.220230	0.959870	0.281870
C521	C52	0.221930	0.922970	0.221970
H461	H46	0.190330	0.891570	0.207870
N241	N24	0.266330	0.930570	0.184470
C531	C53	0.310330	0.973870	0.209970
H471	H47	0.343130	0.979870	0.187070
C541	C54	0.308430	0.009770	0.269270
H481	H48	0.340230	0.040470	0.285470
Ag71	Ag7	0.608290	0.537920	0.748350
C551	C55	0.715200	0.550900	0.655300
H491	H49	0.682900	0.516600	0.646300
H501	H50	0.744000	0.550100	0.621000
N251	N25	0.691100	0.551600	0.816800
C561	C56	0.728100	0.559100	0.756700
C571	C57	0.778800	0.573500	0.789100
H511	H51	0.805300	0.579900	0.744500
N261	N26	0.790800	0.578500	0.880200
C581	C58	0.752800	0.571400	0.939100
H521	H52	0.760100	0.575900	0.004400
C591	C59	0.703100	0.557800	0.907800
H531	H53	0.676900	0.552700	0.952200
N271	N27	0.663400	0.594200	0.637800
C601	C60	0.706800	0.593700	0.615200
C611	C61	0.743700	0.632300	0.555300
H541	H54	0.775100	0.632100	0.541200
N281	N28	0.736100	0.669100	0.517800
C621	C62	0.692800	0.669800	0.543300
H551	H55	0.686800	0.696600	0.520400
C631	C63	0.656900	0.632000	0.602600
H561	H56	0.626200	0.633100	0.618800
Ag81	Ag8	0.274960	0.871250	0.081680
C641	C64	0.381870	0.884230	0.988630
H571	H57	0.349570	0.849930	0.979630
H581	H58	0.410670	0.883430	0.954330
N291	N29	0.357770	0.884930	0.150130
C651	C65	0.394770	0.892430	0.090030
C661	C66	0.445470	0.906830	0.122430
H591	H59	0.471970	0.913230	0.077830
N301	N30	0.457470	0.911830	0.213530
C671	C67	0.419470	0.904730	0.272430
H601	H60	0.426770	0.909230	0.337730
C681	C68	0.369770	0.891130	0.241130
H611	H61	0.343570	0.886030	0.285530
N311	N31	0.330070	0.927530	0.971130
C691	C69	0.373470	0.927030	0.948530
C701	C70	0.410370	0.965630	0.888630
H621	H62	0.441770	0.965430	0.874530
N321	N32	0.402770	0.002430	0.851130
C711	C71	0.359470	0.003130	0.876630
H631	H63	0.353470	0.029930	0.853730
C721	C72	0.323570	0.965330	0.935930
H641	H64	0.292870	0.966430	0.952130
Ag91	Ag9	0.941620	0.204590	0.415020
C731	C73	0.048530	0.217570	0.321970
H651	H65	0.016230	0.183270	0.312970
H661	H66	0.077330	0.216770	0.287670
N331	N33	0.024430	0.218270	0.483470
C741	C74	0.061430	0.225770	0.423370
C751	C75	0.112130	0.240170	0.455770
H671	H67	0.138630	0.246570	0.411170
N341	N34	0.124130	0.245170	0.546870
C761	C76	0.086130	0.238070	0.605770
H681	H68	0.093430	0.242570	0.671070
C771	C77	0.036430	0.224470	0.574470
H691	H69	0.010230	0.219370	0.618870
N351	N35	0.996730	0.260870	0.304470
C781	C78	0.040130	0.260370	0.281870
C791	C79	0.077030	0.298970	0.221970
H701	H70	0.108430	0.298770	0.207870
N361	N36	0.069430	0.335770	0.184470
C801	C80	0.026130	0.336470	0.209970
H711	H71	0.020130	0.363270	0.187070
C811	C81	0.990230	0.298670	0.269270
H721	H72	0.959530	0.299770	0.285470
Ag101	Ag10	0.537920	0.929630	0.251650
C821	C82	0.550900	0.835700	0.344700
H731	H73	0.516600	0.833700	0.353700
H741	H74	0.550100	0.806100	0.379000
N371	N37	0.551600	0.860500	0.183200
C831	C83	0.559100	0.831000	0.243300
C841	C84	0.573500	0.794700	0.210900
H751	H75	0.579900	0.774600	0.255500
N381	N38	0.578500	0.787700	0.119800
C851	C85	0.571400	0.818600	0.060900
H761	H76	0.575900	0.815800	0.995600
C861	C86	0.557800	0.854700	0.092200
H771	H77	0.552700	0.875800	0.047800
N391	N39	0.594200	0.930800	0.362200
C871	C87	0.593700	0.886900	0.384800
C881	C88	0.632300	0.888600	0.444700
H781	H78	0.632100	0.857000	0.458800
N401	N40	0.669100	0.933000	0.482200
C891	C89	0.669800	0.977000	0.456700
H791	H79	0.696600	0.009800	0.479600
C901	C90	0.632000	0.975100	0.397400
H801	H80	0.633100	0.006900	0.381200
Ag111	Ag11	0.204590	0.262960	0.584980
C911	C91	0.217570	0.169030	0.678030
H811	H81	0.183270	0.167030	0.687030
H821	H82	0.216770	0.139430	0.712330
N411	N41	0.218270	0.193830	0.516530
C921	C92	0.225770	0.164330	0.576630
C931	C93	0.240170	0.128030	0.544230
H831	H83	0.246570	0.107930	0.588830
N421	N42	0.245170	0.121030	0.453130
C941	C94	0.238070	0.151930	0.394230
H841	H84	0.242570	0.149130	0.328930
C951	C95	0.224470	0.188030	0.425530
H851	H85	0.219370	0.209130	0.381130
N431	N43	0.260870	0.264130	0.695530
C961	C96	0.260370	0.220230	0.718130
C971	C97	0.298970	0.221930	0.778030
H861	H86	0.298770	0.190330	0.792130
N441	N44	0.335770	0.266330	0.815530
C981	C98	0.336470	0.310330	0.790030
H871	H87	0.363270	0.343130	0.812930
C991	C99	0.298670	0.308430	0.730730
H881	H88	0.299770	0.340230	0.714530
Ag121	Ag12	0.871250	0.596300	0.918320
C1001	C100	0.884230	0.502370	0.011370
H891	H89	0.849930	0.500370	0.020370
H901	H90	0.883430	0.472770	0.045670
N451	N45	0.884930	0.527170	0.849870
C1011	C101	0.892430	0.497670	0.909970
C1021	C102	0.906830	0.461370	0.877570
H911	H91	0.913230	0.441270	0.922170
N461	N46	0.911830	0.454370	0.786470
C1031	C103	0.904730	0.485270	0.727570
H921	H92	0.909230	0.482470	0.662270
C1041	C104	0.891130	0.521370	0.758870
H931	H93	0.886030	0.542470	0.714470
N471	N47	0.927530	0.597470	0.028870
C1051	C105	0.927030	0.553570	0.051470
C1061	C106	0.965630	0.555270	0.111370
H941	H94	0.965430	0.523670	0.125470
N481	N48	0.002430	0.599670	0.148870
C1071	C107	0.003130	0.643670	0.123370
H951	H95	0.029930	0.676470	0.146270
C1081	C108	0.965330	0.641770	0.064070
H961	H96	0.966430	0.673570	0.047870
Ag131	Ag13	0.070370	0.608290	0.251650
C1091	C109	0.164300	0.715200	0.344700
H971	H97	0.166300	0.682900	0.353700
H981	H98	0.193900	0.744000	0.379000
N491	N49	0.139500	0.691100	0.183200
C1101	C110	0.169000	0.728100	0.243300
C1111	C111	0.205300	0.778800	0.210900
H991	H99	0.225400	0.805300	0.255500
N501	N50	0.212300	0.790800	0.119800
C1121	C112	0.181400	0.752800	0.060900
H1001	H100	0.184200	0.760100	0.995600
C1131	C113	0.145300	0.703100	0.092200
H1011	H101	0.124200	0.676900	0.047800
N511	N51	0.069200	0.663400	0.362200
C1141	C114	0.113100	0.706800	0.384800
C1151	C115	0.111400	0.743700	0.444700
H1021	H102	0.143000	0.775100	0.458800
N521	N52	0.067000	0.736100	0.482200
C1161	C116	0.023000	0.692800	0.456700
H1031	H103	0.990200	0.686800	0.479600
C1171	C117	0.024900	0.656900	0.397400
H1041	H104	0.993100	0.626200	0.381200
Ag141	Ag14	0.737040	0.941620	0.584980
C1181	C118	0.830970	0.048530	0.678030
H1051	H105	0.832970	0.016230	0.687030
H1061	H106	0.860570	0.077330	0.712330
N531	N53	0.806170	0.024430	0.516530
C1191	C119	0.835670	0.061430	0.576630
C1201	C120	0.871970	0.112130	0.544230
H1071	H107	0.892070	0.138630	0.588830
N541	N54	0.878970	0.124130	0.453130
C1211	C121	0.848070	0.086130	0.394230
H1081	H108	0.850870	0.093430	0.328930
C1221	C122	0.811970	0.036430	0.425530
H1091	H109	0.790870	0.010230	0.381130
N551	N55	0.735870	0.996730	0.695530
C1231	C123	0.779770	0.040130	0.718130
C1241	C124	0.778070	0.077030	0.778030
H1101	H110	0.809670	0.108430	0.792130
N561	N56	0.733670	0.069430	0.815530
C1251	C125	0.689670	0.026130	0.790030
H1111	H111	0.656870	0.020130	0.812930
C1261	C126	0.691570	0.990230	0.730730
H1121	H112	0.659770	0.959530	0.714530
Ag151	Ag15	0.403700	0.274960	0.918320
C1271	C127	0.497630	0.381870	0.011370
H1131	H113	0.499630	0.349570	0.020370
H1141	H114	0.527230	0.410670	0.045670
N571	N57	0.472830	0.357770	0.849870
C1281	C128	0.502330	0.394770	0.909970
C1291	C129	0.538630	0.445470	0.877570
H1151	H115	0.558730	0.471970	0.922170
N581	N58	0.545630	0.457470	0.786470
C1301	C130	0.514730	0.419470	0.727570
H1161	H116	0.517530	0.426770	0.662270
C1311	C131	0.478630	0.369770	0.758870
H1171	H117	0.457530	0.343570	0.714470
N591	N59	0.402530	0.330070	0.028870
C1321	C132	0.446430	0.373470	0.051470
C1331	C133	0.444730	0.410370	0.111370
H1181	H118	0.476330	0.441770	0.125470
N601	N60	0.400330	0.402770	0.148870
C1341	C134	0.356330	0.359470	0.123370
H1191	H119	0.323530	0.353470	0.146270
C1351	C135	0.358230	0.323570	0.064070
H1201	H120	0.326430	0.292870	0.047870
Ag161	Ag16	0.391710	0.462080	0.251650
C1361	C136	0.284800	0.449100	0.344700
H1211	H121	0.317100	0.483400	0.353700
H1221	H122	0.256000	0.449900	0.379000
N611	N61	0.308900	0.448400	0.183200
C1371	C137	0.271900	0.440900	0.243300
C1381	C138	0.221200	0.426500	0.210900
H1231	H123	0.194700	0.420100	0.255500
N621	N62	0.209200	0.421500	0.119800
C1391	C139	0.247200	0.428600	0.060900
H1241	H124	0.239900	0.424100	0.995600
C1401	C140	0.296900	0.442200	0.092200
H1251	H125	0.323100	0.447300	0.047800
N631	N63	0.336600	0.405800	0.362200
C1411	C141	0.293200	0.406300	0.384800
C1421	C142	0.256300	0.367700	0.444700
H1261	H126	0.224900	0.367900	0.458800
N641	N64	0.263900	0.330900	0.482200
C1431	C143	0.307200	0.330200	0.456700
H1271	H127	0.313200	0.303400	0.479600
C1441	C144	0.343100	0.368000	0.397400
H1281	H128	0.373800	0.366900	0.381200
Ag171	Ag17	0.058380	0.795410	0.584980
C1451	C145	0.951470	0.782430	0.678030
H1291	H129	0.983770	0.816730	0.687030
H1301	H130	0.922670	0.783230	0.712330
N651	N65	0.975570	0.781730	0.516530
C1461	C146	0.938570	0.774230	0.576630
C1471	C147	0.887870	0.759830	0.544230
H1311	H131	0.861370	0.753430	0.588830
N661	N66	0.875870	0.754830	0.453130
C1481	C148	0.913870	0.761930	0.394230
H1321	H132	0.906570	0.757430	0.328930
C1491	C149	0.963570	0.775530	0.425530
H1331	H133	0.989770	0.780630	0.381130
N671	N67	0.003270	0.739130	0.695530
C1501	C150	0.959870	0.739630	0.718130
C1511	C151	0.922970	0.701030	0.778030
H1341	H134	0.891570	0.701230	0.792130
N681	N68	0.930570	0.664230	0.815530
C1521	C152	0.973870	0.663530	0.790030
H1351	H135	0.979870	0.636730	0.812930
C1531	C153	0.009770	0.701330	0.730730
H1361	H136	0.040470	0.700230	0.714530
Ag181	Ag18	0.725040	0.128750	0.918320
C1541	C154	0.618130	0.115770	0.011370
H1371	H137	0.650430	0.150070	0.020370
H1381	H138	0.589330	0.116570	0.045670
N691	N69	0.642230	0.115070	0.849870
C1551	C155	0.605230	0.107570	0.909970
C1561	C156	0.554530	0.093170	0.877570
H1391	H139	0.528030	0.086770	0.922170
N701	N70	0.542530	0.088170	0.786470
C1571	C157	0.580530	0.095270	0.727570
H1401	H140	0.573230	0.090770	0.662270
C1581	C158	0.630230	0.108870	0.758870
H1411	H141	0.656430	0.113970	0.714470
N711	N71	0.669930	0.072470	0.028870
C1591	C159	0.626530	0.072970	0.051470
C1601	C160	0.589630	0.034370	0.111370
H1421	H142	0.558230	0.034570	0.125470
N721	N72	0.597230	0.997570	0.148870
C1611	C161	0.640530	0.996870	0.123370
H1431	H143	0.646530	0.970070	0.146270
C1621	C162	0.676430	0.034670	0.064070
H1441	H144	0.707130	0.033570	0.047870
