data_HUJVOX_freeONLY_PM
_symmetry_space_group_name_H-M	'P1'
_cell_length_a	9.032000
_cell_length_b	9.032000
_cell_length_c	31.322000
_cell_angle_alpha	90.000000
_cell_angle_beta	90.000000
_cell_angle_gamma	90.000000
_symmetry_Int_Tables_number 1

loop_
_symmetry_equiv_pos_as_xyz
'x,y,z'

loop_
_atom_site_label
_atom_site_type_symbol
_atom_site_fract_x
_atom_site_fract_y
_atom_site_fract_z
N11	N1	0.626500	0.618400	0.045150
N21	N2	0.607000	0.471000	0.044270
N31	N3	0.326500	0.640600	0.205100
N41	N4	0.314600	0.492100	0.204370
C11	C1	0.562300	0.663800	0.081290
C21	C2	0.501200	0.544200	0.103540
C31	C3	0.533200	0.423800	0.078700
C41	C4	0.394900	0.675300	0.168660
C51	C5	0.425800	0.549600	0.144640
C61	C6	0.372300	0.435400	0.169010
H11	H1	0.560000	0.778000	0.090300
H21	H2	0.634000	0.421000	0.023400
H31	H3	0.523000	0.337000	0.082900
H41	H4	0.372000	0.341000	0.163500
H51	H5	0.289000	0.448000	0.225600
H61	H6	0.407000	0.780000	0.161900
N51	N5	0.373500	0.381600	0.545150
N61	N6	0.393000	0.529000	0.544270
N71	N7	0.673500	0.359400	0.705100
N81	N8	0.685400	0.507900	0.704370
C71	C7	0.437700	0.336200	0.581290
C81	C8	0.498800	0.455800	0.603540
C91	C9	0.466800	0.576200	0.578700
C101	C10	0.605100	0.324700	0.668660
C111	C11	0.574200	0.450400	0.644640
C121	C12	0.627700	0.564600	0.669010
H71	H7	0.440000	0.222000	0.590300
H81	H8	0.366000	0.579000	0.523400
H91	H9	0.477000	0.663000	0.582900
H101	H10	0.628000	0.659000	0.663500
H111	H11	0.711000	0.552000	0.725600
H121	H12	0.593000	0.220000	0.661900
N91	N9	0.881600	0.126500	0.795150
N101	N10	0.029000	0.107000	0.794270
N111	N11	0.859400	0.826500	0.955100
N121	N12	0.007900	0.814600	0.954370
C131	C13	0.836200	0.062300	0.831290
C141	C14	0.955800	0.001200	0.853540
C151	C15	0.076200	0.033200	0.828700
C161	C16	0.824700	0.894900	0.918660
C171	C17	0.950400	0.925800	0.894640
C181	C18	0.064600	0.872300	0.919010
H131	H13	0.722000	0.060000	0.840300
H141	H14	0.079000	0.134000	0.773400
H151	H15	0.163000	0.023000	0.832900
H161	H16	0.159000	0.872000	0.913500
H171	H17	0.052000	0.789000	0.975600
H181	H18	0.720000	0.907000	0.911900
N131	N13	0.118400	0.873500	0.295150
N141	N14	0.971000	0.893000	0.294270
N151	N15	0.140600	0.173500	0.455100
N161	N16	0.992100	0.185400	0.454370
C191	C19	0.163800	0.937700	0.331290
C201	C20	0.044200	0.998800	0.353540
C211	C21	0.923800	0.966800	0.328700
C221	C22	0.175300	0.105100	0.418660
C231	C23	0.049600	0.074200	0.394640
C241	C24	0.935400	0.127700	0.419010
H191	H19	0.278000	0.940000	0.340300
H201	H20	0.921000	0.866000	0.273400
H211	H21	0.837000	0.977000	0.332900
H221	H22	0.841000	0.128000	0.413500
H231	H23	0.948000	0.211000	0.475600
H241	H24	0.280000	0.093000	0.411900
N171	N17	0.873500	0.118400	0.704850
N181	N18	0.893000	0.971000	0.705730
N191	N19	0.173500	0.140600	0.544900
N201	N20	0.185400	0.992100	0.545630
C251	C25	0.937700	0.163800	0.668710
C261	C26	0.998800	0.044200	0.646460
C271	C27	0.966800	0.923800	0.671300
C281	C28	0.105100	0.175300	0.581340
C291	C29	0.074200	0.049600	0.605360
C301	C30	0.127700	0.935400	0.580990
H251	H25	0.940000	0.278000	0.659700
H261	H26	0.866000	0.921000	0.726600
H271	H27	0.977000	0.837000	0.667100
H281	H28	0.128000	0.841000	0.586500
H291	H29	0.211000	0.948000	0.524400
H301	H30	0.093000	0.280000	0.588100
N211	N21	0.126500	0.881600	0.204850
N221	N22	0.107000	0.029000	0.205730
N231	N23	0.826500	0.859400	0.044900
N241	N24	0.814600	0.007900	0.045630
C311	C31	0.062300	0.836200	0.168710
C321	C32	0.001200	0.955800	0.146460
C331	C33	0.033200	0.076200	0.171300
C341	C34	0.894900	0.824700	0.081340
C351	C35	0.925800	0.950400	0.105360
C361	C36	0.872300	0.064600	0.080990
H311	H31	0.060000	0.722000	0.159700
H321	H32	0.134000	0.079000	0.226600
H331	H33	0.023000	0.163000	0.167100
H341	H34	0.872000	0.159000	0.086500
H351	H35	0.789000	0.052000	0.024400
H361	H36	0.907000	0.720000	0.088100
N251	N25	0.618400	0.626500	0.954850
N261	N26	0.471000	0.607000	0.955730
N271	N27	0.640600	0.326500	0.794900
N281	N28	0.492100	0.314600	0.795630
C371	C37	0.663800	0.562300	0.918710
C381	C38	0.544200	0.501200	0.896460
C391	C39	0.423800	0.533200	0.921300
C401	C40	0.675300	0.394900	0.831340
C411	C41	0.549600	0.425800	0.855360
C421	C42	0.435400	0.372300	0.830990
H371	H37	0.778000	0.560000	0.909700
H381	H38	0.421000	0.634000	0.976600
H391	H39	0.337000	0.523000	0.917100
H401	H40	0.341000	0.372000	0.836500
H411	H41	0.448000	0.289000	0.774400
H421	H42	0.780000	0.407000	0.838100
N291	N29	0.381600	0.373500	0.454850
N301	N30	0.529000	0.393000	0.455730
N311	N31	0.359400	0.673500	0.294900
N321	N32	0.507900	0.685400	0.295630
C431	C43	0.336200	0.437700	0.418710
C441	C44	0.455800	0.498800	0.396460
C451	C45	0.576200	0.466800	0.421300
C461	C46	0.324700	0.605100	0.331340
C471	C47	0.450400	0.574200	0.355360
C481	C48	0.564600	0.627700	0.330990
H431	H43	0.222000	0.440000	0.409700
H441	H44	0.579000	0.366000	0.476600
H451	H45	0.663000	0.477000	0.417100
H461	H46	0.659000	0.628000	0.336500
H471	H47	0.552000	0.711000	0.274400
H481	H48	0.220000	0.593000	0.338100
Cu11	Cu1	0.732620	0.732620	0.000000
Cu21	Cu2	0.267380	0.267380	0.500000
Cu31	Cu3	0.767380	0.232620	0.750000
Cu41	Cu4	0.232620	0.767380	0.250000
