data_HUNBIB_freeONLY_PM
_symmetry_space_group_name_H-M	'P1'
_cell_length_a	11.106600
_cell_length_b	12.984200
_cell_length_c	13.429400
_cell_angle_alpha	117.345000
_cell_angle_beta	93.688000
_cell_angle_gamma	93.879000
_symmetry_Int_Tables_number 1

loop_
_symmetry_equiv_pos_as_xyz
'x,y,z'

loop_
_atom_site_label
_atom_site_type_symbol
_atom_site_fract_x
_atom_site_fract_y
_atom_site_fract_z
As11	As1	0.991700	0.586900	0.883800
As21	As2	0.228000	0.824400	0.767200
As31	As3	0.069900	0.919500	0.105300
As41	As4	0.248900	0.333500	0.751400
As51	As5	0.552300	0.943000	0.622900
As61	As6	0.571800	0.451000	0.630700
Fe11	Fe1	0.945600	0.798000	0.822900
Fe21	Fe2	0.496600	0.205800	0.656700
Fe31	Fe3	0.974900	0.308200	0.834100
Fe41	Fe4	0.470300	0.699900	0.646500
O11	O1	0.982000	0.442200	0.806800
O21	O2	0.949800	0.627400	0.013200
O31	O3	0.907500	0.634900	0.808100
O41	O4	0.141000	0.633400	0.887700
O51	O5	0.267200	0.933200	0.895000
O61	O6	0.089000	0.751700	0.742700
O71	O7	0.325000	0.721500	0.723700
O81	O8	0.223200	0.880700	0.671800
O91	O9	0.993900	0.847200	0.979100
O101	O10	0.030300	0.052500	0.180200
O111	O11	0.053800	0.853000	0.185900
O121	O12	0.222000	0.924200	0.084400
O131	O13	0.284700	0.466000	0.856700
O141	O14	0.119100	0.262100	0.755400
O151	O15	0.353800	0.240600	0.738500
O161	O16	0.229300	0.338700	0.624300
O171	O17	0.582900	0.902900	0.491300
O181	O18	0.503400	0.073200	0.694700
O191	O19	0.453300	0.843700	0.629700
O201	O20	0.693100	0.952200	0.690600
O211	O21	0.481800	0.348100	0.637600
O221	O22	0.514100	0.577800	0.692800
O231	O23	0.604700	0.414500	0.500400
O241	O24	0.704600	0.464500	0.711600
O251	O25	0.771600	0.834400	0.867900
O261	O26	0.840800	0.725900	0.662700
O271	O27	0.604700	0.308100	0.808100
O281	O28	0.669300	0.185900	0.601700
O291	O29	0.800300	0.342300	0.881100
O301	O30	0.866100	0.227800	0.671700
O311	O31	0.578800	0.808400	0.795300
O321	O32	0.645700	0.689100	0.586700
C11	C1	0.718600	0.301300	0.801000
C21	C2	0.755300	0.232900	0.680600
C31	C3	0.691000	0.797500	0.787000
C41	C4	0.728600	0.732900	0.668300
As71	As7	0.008300	0.413100	0.116200
As81	As8	0.772000	0.175600	0.232800
As91	As9	0.930100	0.080500	0.894700
As101	As10	0.751100	0.666500	0.248600
As111	As11	0.447700	0.057000	0.377100
As121	As12	0.428200	0.549000	0.369300
Fe51	Fe5	0.054400	0.202000	0.177100
Fe61	Fe6	0.503400	0.794200	0.343300
Fe71	Fe7	0.025100	0.691800	0.165900
Fe81	Fe8	0.529700	0.300100	0.353500
O331	O33	0.018000	0.557800	0.193200
O341	O34	0.050200	0.372600	0.986800
O351	O35	0.092500	0.365100	0.191900
O361	O36	0.859000	0.366600	0.112300
O371	O37	0.732800	0.066800	0.105000
O381	O38	0.911000	0.248300	0.257300
O391	O39	0.675000	0.278500	0.276300
O401	O40	0.776800	0.119300	0.328200
O411	O41	0.006100	0.152800	0.020900
O421	O42	0.969700	0.947500	0.819800
O431	O43	0.946200	0.147000	0.814100
O441	O44	0.778000	0.075800	0.915600
O451	O45	0.715300	0.534000	0.143300
O461	O46	0.880900	0.737900	0.244600
O471	O47	0.646200	0.759400	0.261500
O481	O48	0.770700	0.661300	0.375700
O491	O49	0.417100	0.097100	0.508700
O501	O50	0.496600	0.926800	0.305300
O511	O51	0.546700	0.156300	0.370300
O521	O52	0.306900	0.047800	0.309400
O531	O53	0.518200	0.651900	0.362400
O541	O54	0.485900	0.422200	0.307200
O551	O55	0.395300	0.585500	0.499600
O561	O56	0.295400	0.535500	0.288400
O571	O57	0.228400	0.165600	0.132100
O581	O58	0.159200	0.274100	0.337300
O591	O59	0.395300	0.691900	0.191900
O601	O60	0.330700	0.814100	0.398300
O611	O61	0.199700	0.657700	0.118900
O621	O62	0.133900	0.772200	0.328300
O631	O63	0.421200	0.191600	0.204700
O641	O64	0.354300	0.310900	0.413300
C51	C5	0.281400	0.698700	0.199000
C61	C6	0.244700	0.767100	0.319400
C71	C7	0.309000	0.202500	0.213000
C81	C8	0.271400	0.267100	0.331700
