data_HUNBEX_freeONLY_PM
_symmetry_space_group_name_H-M	'P1'
_cell_length_a	7.939100
_cell_length_b	9.438200
_cell_length_c	15.481500
_cell_angle_alpha	82.233000
_cell_angle_beta	82.868000
_cell_angle_gamma	75.513000
_symmetry_Int_Tables_number 1

loop_
_symmetry_equiv_pos_as_xyz
'x,y,z'

loop_
_atom_site_label
_atom_site_type_symbol
_atom_site_fract_x
_atom_site_fract_y
_atom_site_fract_z
Zn11	Zn1	0.080600	0.253400	0.914200
Zn21	Zn2	0.412200	0.246700	0.582400
K11	K1	0.564300	0.320500	0.935000
O11	O1	0.041900	0.349000	0.787300
O21	O2	0.863900	0.397100	0.972000
O31	O3	0.797100	0.599800	0.041800
O41	O4	0.319100	0.152000	0.847900
O51	O5	0.146200	0.097900	0.023200
O61	O6	0.087900	0.888400	0.091000
O71	O7	0.293600	0.103000	0.536200
O81	O8	0.365300	0.900800	0.466900
O91	O9	0.545900	0.404700	0.602200
O101	O10	0.177500	0.350600	0.651800
O111	O11	0.620500	0.609100	0.535200
O121	O12	0.450800	0.143600	0.711900
C11	C1	0.902000	0.498200	0.003400
C21	C2	0.169800	0.306500	0.731200
C31	C3	0.067300	0.995700	0.032800
C41	C4	0.328700	0.190900	0.766200
C51	C5	0.402700	0.000200	0.501900
C61	C6	0.548400	0.504300	0.539400
O131	O13	0.477900	0.110200	0.075200
O141	O14	0.506300	0.620300	0.878100
O151	O15	0.678100	0.396200	0.763300
Zn31	Zn3	0.919400	0.746600	0.085800
Zn41	Zn4	0.587800	0.753300	0.417600
K21	K2	0.435700	0.679500	0.065000
O161	O16	0.958100	0.651000	0.212700
O171	O17	0.136100	0.602900	0.028000
O181	O18	0.202900	0.400200	0.958200
O191	O19	0.680900	0.848000	0.152100
O201	O20	0.853800	0.902100	0.976800
O211	O21	0.912100	0.111600	0.909000
O221	O22	0.706400	0.897000	0.463800
O231	O23	0.634700	0.099200	0.533100
O241	O24	0.454100	0.595300	0.397800
O251	O25	0.822500	0.649400	0.348200
O261	O26	0.379500	0.390900	0.464800
O271	O27	0.549200	0.856400	0.288100
C71	C7	0.098000	0.501800	0.996600
C81	C8	0.830200	0.693500	0.268800
C91	C9	0.932700	0.004300	0.967200
C101	C10	0.671300	0.809100	0.233800
C111	C11	0.597300	0.999800	0.498100
C121	C12	0.451600	0.495700	0.460600
O281	O28	0.522100	0.889800	0.924800
O291	O29	0.493700	0.379700	0.121900
O301	O30	0.321900	0.603800	0.236700
