data_HURGEH_freeONLY_PM
_symmetry_space_group_name_H-M	'P1'
_cell_length_a	14.278000
_cell_length_b	18.030900
_cell_length_c	20.204700
_cell_angle_alpha	91.406000
_cell_angle_beta	90.000000
_cell_angle_gamma	90.000000
_symmetry_Int_Tables_number 1

loop_
_symmetry_equiv_pos_as_xyz
'x,y,z'

loop_
_atom_site_label
_atom_site_type_symbol
_atom_site_fract_x
_atom_site_fract_y
_atom_site_fract_z
Co11	Co1	0.946730	0.753470	0.075120
Co21	Co2	0.797590	0.798500	0.942360
Co31	Co3	0.819510	0.293360	0.908110
Co41	Co4	0.446730	0.746530	0.424880
Co51	Co5	0.297590	0.701500	0.557640
Co61	Co6	0.319510	0.206640	0.591890
Co71	Co7	0.053270	0.246530	0.924880
Co81	Co8	0.202410	0.201500	0.057640
Co91	Co9	0.180490	0.706640	0.091890
Co101	Co10	0.553270	0.253470	0.575120
Co111	Co11	0.702410	0.298500	0.442360
Co121	Co12	0.680490	0.793360	0.408110
H11	H1	0.867700	0.529400	0.906900
H21	H2	0.019300	0.810700	0.929500
H31	H3	0.007300	0.025400	0.873700
H41	H4	0.180000	0.968800	0.021200
H51	H5	0.424500	0.708600	0.212800
H61	H6	0.558400	0.713100	0.037100
H71	H7	0.704700	0.741600	0.206800
H81	H8	0.133200	0.462900	0.927300
H91	H9	0.071700	0.679700	0.950800
H101	H10	0.367700	0.970600	0.593100
H111	H11	0.519300	0.689300	0.570500
H121	H12	0.507300	0.474600	0.626300
H131	H13	0.680000	0.531200	0.478800
H141	H14	0.924500	0.791400	0.287200
H151	H15	0.058400	0.786900	0.462900
H161	H16	0.204700	0.758400	0.293200
H171	H17	0.633200	0.037100	0.572700
H181	H18	0.571700	0.820300	0.549200
H191	H19	0.132300	0.470600	0.093100
H201	H20	0.980700	0.189300	0.070500
H211	H21	0.992700	0.974600	0.126300
H221	H22	0.820000	0.031200	0.978800
H231	H23	0.575500	0.291400	0.787200
H241	H24	0.441600	0.286900	0.962900
H251	H25	0.295300	0.258400	0.793200
H261	H26	0.866800	0.537100	0.072700
H271	H27	0.928300	0.320300	0.049200
H281	H28	0.632300	0.029400	0.406900
H291	H29	0.480700	0.310700	0.429500
H301	H30	0.492700	0.525400	0.373700
H311	H31	0.320000	0.468800	0.521200
H321	H32	0.075500	0.208600	0.712800
H331	H33	0.941600	0.213100	0.537100
H341	H34	0.795300	0.241600	0.706800
H351	H35	0.366800	0.962900	0.427300
H361	H36	0.428300	0.179700	0.450800
C11	C1	0.732700	0.743500	0.076900
C21	C2	0.888000	0.676800	0.933400
C31	C3	0.959100	0.615000	0.929000
C41	C4	0.930900	0.541100	0.914900
C51	C5	0.996600	0.484800	0.914400
C61	C6	0.967000	0.404500	0.908900
C71	C7	0.142600	0.823600	0.027000
C81	C8	0.107200	0.881500	0.981000
C91	C9	0.038700	0.860800	0.933700
C101	C10	0.002400	0.914200	0.893700
C111	C11	0.031000	0.988600	0.901600
C121	C12	0.096900	0.008600	0.950400
C131	C13	0.135900	0.955400	0.989200
C141	C14	0.119100	0.089500	0.963700
C151	C15	0.925400	0.891700	0.844700
C161	C16	0.564600	0.737000	0.294400
C171	C17	0.563700	0.728300	0.221500
C181	C18	0.479200	0.714200	0.188300
C191	C19	0.478300	0.709200	0.120500
C201	C20	0.560900	0.717100	0.083500
C211	C21	0.644000	0.731500	0.116000
C221	C22	0.646800	0.735200	0.185200
C231	C23	0.388700	0.691800	0.083000
C241	C24	0.090000	0.501700	0.926400
C251	C25	0.119300	0.574100	0.939000
C261	C26	0.052400	0.630600	0.941100
C271	C27	0.219100	0.589200	0.955400
C281	C28	0.232700	0.756500	0.423100
C291	C29	0.388000	0.823200	0.566600
C301	C30	0.459100	0.885000	0.571000
C311	C31	0.430900	0.958900	0.585100
C321	C32	0.496600	0.015200	0.585600
C331	C33	0.467000	0.095500	0.591100
C341	C34	0.642600	0.676400	0.473000
C351	C35	0.607200	0.618500	0.519000
C361	C36	0.538700	0.639200	0.566300
C371	C37	0.502400	0.585800	0.606300
C381	C38	0.531000	0.511400	0.598400
C391	C39	0.596900	0.491400	0.549600
C401	C40	0.635900	0.544600	0.510800
C411	C41	0.619100	0.410500	0.536300
C421	C42	0.425400	0.608300	0.655300
C431	C43	0.064600	0.763000	0.205600
C441	C44	0.063700	0.771700	0.278500
C451	C45	0.979200	0.785800	0.311700
C461	C46	0.978300	0.790800	0.379500
C471	C47	0.060900	0.782900	0.416500
C481	C48	0.144000	0.768500	0.384000
C491	C49	0.146800	0.764800	0.314800
C501	C50	0.888700	0.808200	0.417000
C511	C51	0.590000	0.998300	0.573600
C521	C52	0.619300	0.925900	0.561000
C531	C53	0.552400	0.869400	0.558900
C541	C54	0.719100	0.910800	0.544600
C551	C55	0.267300	0.256500	0.923100
C561	C56	0.112000	0.323200	0.066600
C571	C57	0.040900	0.385000	0.071000
C581	C58	0.069100	0.458900	0.085100
C591	C59	0.003400	0.515200	0.085600
C601	C60	0.033000	0.595500	0.091100
C611	C61	0.857400	0.176400	0.973000
C621	C62	0.892800	0.118500	0.019000
C631	C63	0.961300	0.139200	0.066300
C641	C64	0.997600	0.085800	0.106300
C651	C65	0.969000	0.011400	0.098400
C661	C66	0.903100	0.991400	0.049600
C671	C67	0.864100	0.044600	0.010800
C681	C68	0.880900	0.910500	0.036300
C691	C69	0.074600	0.108300	0.155300
C701	C70	0.435400	0.263000	0.705600
C711	C71	0.436300	0.271700	0.778500
C721	C72	0.520800	0.285800	0.811700
C731	C73	0.521700	0.290800	0.879500
C741	C74	0.439100	0.282900	0.916500
C751	C75	0.356000	0.268500	0.884000
C761	C76	0.353200	0.264800	0.814800
C771	C77	0.611300	0.308200	0.917000
C781	C78	0.910000	0.498300	0.073600
C791	C79	0.880700	0.425900	0.061000
C801	C80	0.947600	0.369400	0.058900
C811	C81	0.780900	0.410800	0.044600
C821	C82	0.767300	0.243500	0.576900
C831	C83	0.612000	0.176800	0.433400
C841	C84	0.540900	0.115000	0.429000
C851	C85	0.569100	0.041100	0.414900
C861	C86	0.503400	0.984800	0.414400
C871	C87	0.533000	0.904500	0.408900
C881	C88	0.357400	0.323600	0.527000
C891	C89	0.392800	0.381500	0.481000
C901	C90	0.461300	0.360800	0.433700
C911	C91	0.497600	0.414200	0.393700
C921	C92	0.469000	0.488600	0.401600
C931	C93	0.403100	0.508600	0.450400
C941	C94	0.364100	0.455400	0.489200
C951	C95	0.380900	0.589500	0.463700
C961	C96	0.574600	0.391700	0.344700
C971	C97	0.935400	0.237000	0.794400
C981	C98	0.936300	0.228300	0.721500
C991	C99	0.020800	0.214200	0.688300
C1001	C100	0.021700	0.209200	0.620500
C1011	C101	0.939100	0.217100	0.583500
C1021	C102	0.856000	0.231500	0.616000
C1031	C103	0.853200	0.235200	0.685200
C1041	C104	0.111300	0.191800	0.583000
C1051	C105	0.410000	0.001700	0.426400
C1061	C106	0.380700	0.074100	0.439000
C1071	C107	0.447600	0.130600	0.441100
C1081	C108	0.280900	0.089200	0.455400
O11	O1	0.809400	0.738400	0.106300
O21	O2	0.719000	0.756200	0.016500
O31	O3	0.909200	0.732300	0.972100
O41	O4	0.817400	0.678100	0.898000
O51	O5	0.028900	0.357900	0.912100
O61	O6	0.878900	0.392800	0.901700
O71	O7	0.089400	0.766100	0.036500
O81	O8	0.221300	0.826500	0.052500
O91	O9	0.176900	0.103400	0.008500
O101	O10	0.073300	0.136700	0.930400
O111	O11	0.876900	0.832800	0.858900
O121	O12	0.915700	0.927400	0.795200
O131	O13	0.644100	0.751200	0.319500
O141	O14	0.490400	0.728900	0.326300
O151	O15	0.314800	0.691100	0.116600
O161	O16	0.393100	0.682300	0.021300
O171	O17	0.233800	0.657600	0.979800
O181	O18	0.280500	0.544000	0.944400
O191	O19	0.309400	0.761600	0.393700
O201	O20	0.219000	0.743800	0.483500
O211	O21	0.409200	0.767700	0.527900
O221	O22	0.317400	0.821900	0.602000
O231	O23	0.528900	0.142100	0.587900
O241	O24	0.378900	0.107200	0.598300
O251	O25	0.589400	0.733900	0.463500
O261	O26	0.721300	0.673500	0.447500
O271	O27	0.676900	0.396600	0.491500
O281	O28	0.573300	0.363300	0.569600
O291	O29	0.376900	0.667200	0.641100
O301	O30	0.415700	0.572600	0.704800
O311	O31	0.144100	0.748800	0.180500
O321	O32	0.990400	0.771100	0.173700
O331	O33	0.814800	0.808900	0.383400
O341	O34	0.893100	0.817700	0.478700
O351	O35	0.733800	0.842400	0.520200
O361	O36	0.780500	0.956000	0.555600
O371	O37	0.190600	0.261600	0.893700
O381	O38	0.281000	0.243800	0.983500
O391	O39	0.090800	0.267700	0.027900
O401	O40	0.182600	0.321900	0.102000
O411	O41	0.971100	0.642100	0.087900
O421	O42	0.121100	0.607200	0.098300
O431	O43	0.910600	0.233900	0.963500
O441	O44	0.778700	0.173500	0.947500
O451	O45	0.823100	0.896600	0.991500
O461	O46	0.926700	0.863300	0.069600
O471	O47	0.123100	0.167200	0.141100
O481	O48	0.084300	0.072600	0.204800
O491	O49	0.355900	0.248800	0.680500
O501	O50	0.509600	0.271100	0.673700
O511	O51	0.685200	0.308900	0.883400
O521	O52	0.606900	0.317700	0.978700
O531	O53	0.766200	0.342400	0.020200
O541	O54	0.719500	0.456000	0.055600
O551	O55	0.690600	0.238400	0.606300
O561	O56	0.781000	0.256200	0.516500
O571	O57	0.590800	0.232300	0.472100
O581	O58	0.682600	0.178100	0.398000
O591	O59	0.471100	0.857900	0.412100
O601	O60	0.621100	0.892800	0.401700
O611	O61	0.410600	0.266100	0.536500
O621	O62	0.278700	0.326500	0.552500
O631	O63	0.323100	0.603400	0.508500
O641	O64	0.426700	0.636700	0.430400
O651	O65	0.623100	0.332800	0.358900
O661	O66	0.584300	0.427400	0.295200
O671	O67	0.855900	0.251200	0.819500
O681	O68	0.009600	0.228900	0.826300
O691	O69	0.185200	0.191100	0.616600
O701	O70	0.106900	0.182300	0.521300
O711	O71	0.266200	0.157600	0.479800
O721	O72	0.219500	0.044000	0.444400
