data_HUWDEJ_freeONLY_PM
_symmetry_space_group_name_H-M	'P1'
_cell_length_a	6.371600
_cell_length_b	13.164600
_cell_length_c	14.862200
_cell_angle_alpha	90.000000
_cell_angle_beta	90.000000
_cell_angle_gamma	90.000000
_symmetry_Int_Tables_number 1

loop_
_symmetry_equiv_pos_as_xyz
'x,y,z'

loop_
_atom_site_label
_atom_site_type_symbol
_atom_site_fract_x
_atom_site_fract_y
_atom_site_fract_z
N11	N1	0.448200	0.644700	0.658600
C11	C1	0.520300	0.553500	0.685700
H11	H1	0.473800	0.527500	0.740400
C21	C2	0.661000	0.497100	0.635400
H21	H2	0.705700	0.434200	0.656400
C31	C3	0.734300	0.533200	0.554400
C41	C4	0.654300	0.625900	0.527300
H31	H3	0.695300	0.653300	0.472300
C51	C5	0.516600	0.677600	0.579900
H41	H4	0.467500	0.739900	0.559400
C61	C6	0.891500	0.476200	0.499600
H51	H5	0.924000	0.408000	0.514000
H61	H6	0.830000	0.465000	0.446000
N21	N2	0.051800	0.855300	0.658600
C71	C7	0.979700	0.946500	0.685700
H71	H7	0.026200	0.972500	0.740400
C81	C8	0.839000	0.002900	0.635400
H81	H8	0.794300	0.065800	0.656400
C91	C9	0.765700	0.966800	0.554400
C101	C10	0.845700	0.874100	0.527300
H91	H9	0.804700	0.846700	0.472300
C111	C11	0.983400	0.822400	0.579900
H101	H10	0.032500	0.760100	0.559400
C121	C12	0.608500	0.023800	0.499600
H111	H11	0.576000	0.092000	0.514000
H121	H12	0.670000	0.035000	0.446000
N31	N3	0.051800	0.644700	0.841400
C131	C13	0.979700	0.553500	0.814300
H131	H13	0.026200	0.527500	0.759600
C141	C14	0.839000	0.497100	0.864600
H141	H14	0.794300	0.434200	0.843600
C151	C15	0.765700	0.533200	0.945600
C161	C16	0.845700	0.625900	0.972700
H151	H15	0.804700	0.653300	0.027700
C171	C17	0.983400	0.677600	0.920100
H161	H16	0.032500	0.739900	0.940600
C181	C18	0.608500	0.476200	0.000400
H171	H17	0.576000	0.408000	0.986000
H181	H18	0.670000	0.465000	0.054000
N41	N4	0.448200	0.855300	0.841400
C191	C19	0.520300	0.946500	0.814300
H191	H19	0.473800	0.972500	0.759600
C201	C20	0.661000	0.002900	0.864600
H201	H20	0.705700	0.065800	0.843600
C211	C21	0.734300	0.966800	0.945600
C221	C22	0.654300	0.874100	0.972700
H211	H21	0.695300	0.846700	0.027700
C231	C23	0.516600	0.822400	0.920100
H221	H22	0.467500	0.760100	0.940600
C241	C24	0.891500	0.023800	0.000400
H231	H23	0.924000	0.092000	0.986000
H241	H24	0.830000	0.035000	0.054000
N51	N5	0.551800	0.355300	0.341400
C251	C25	0.479700	0.446500	0.314300
H251	H25	0.526200	0.472500	0.259600
C261	C26	0.339000	0.502900	0.364600
H261	H26	0.294300	0.565800	0.343600
C271	C27	0.265700	0.466800	0.445600
C281	C28	0.345700	0.374100	0.472700
H271	H27	0.304700	0.346700	0.527700
C291	C29	0.483400	0.322400	0.420100
H281	H28	0.532500	0.260100	0.440600
C301	C30	0.108500	0.523800	0.500400
H291	H29	0.076000	0.592000	0.486000
H301	H30	0.170000	0.535000	0.554000
N61	N6	0.948200	0.144700	0.341400
C311	C31	0.020300	0.053500	0.314300
H311	H31	0.973800	0.027500	0.259600
C321	C32	0.161000	0.997100	0.364600
H321	H32	0.205700	0.934200	0.343600
C331	C33	0.234300	0.033200	0.445600
C341	C34	0.154300	0.125900	0.472700
H331	H33	0.195300	0.153300	0.527700
C351	C35	0.016600	0.177600	0.420100
H341	H34	0.967500	0.239900	0.440600
C361	C36	0.391500	0.976200	0.500400
H351	H35	0.424000	0.908000	0.486000
H361	H36	0.330000	0.965000	0.554000
N71	N7	0.948200	0.355300	0.158600
C371	C37	0.020300	0.446500	0.185700
H371	H37	0.973800	0.472500	0.240400
C381	C38	0.161000	0.502900	0.135400
H381	H38	0.205700	0.565800	0.156400
C391	C39	0.234300	0.466800	0.054400
C401	C40	0.154300	0.374100	0.027300
H391	H39	0.195300	0.346700	0.972300
C411	C41	0.016600	0.322400	0.079900
H401	H40	0.967500	0.260100	0.059400
C421	C42	0.391500	0.523800	0.999600
H411	H41	0.424000	0.592000	0.014000
H421	H42	0.330000	0.535000	0.946000
N81	N8	0.551800	0.144700	0.158600
C431	C43	0.479700	0.053500	0.185700
H431	H43	0.526200	0.027500	0.240400
C441	C44	0.339000	0.997100	0.135400
H441	H44	0.294300	0.934200	0.156400
C451	C45	0.265700	0.033200	0.054400
C461	C46	0.345700	0.125900	0.027300
H451	H45	0.304700	0.153300	0.972300
C471	C47	0.483400	0.177600	0.079900
H461	H46	0.532500	0.239900	0.059400
C481	C48	0.108500	0.976200	0.999600
H471	H47	0.076000	0.908000	0.014000
H481	H48	0.170000	0.965000	0.946000
Ag11	Ag1	0.250000	0.750000	0.750000
Ag21	Ag2	0.750000	0.250000	0.250000
