data_HUWLUI_freeONLY_PM
_symmetry_space_group_name_H-M	'P1'
_cell_length_a	11.797000
_cell_length_b	12.889000
_cell_length_c	14.037000
_cell_angle_alpha	66.065000
_cell_angle_beta	78.731000
_cell_angle_gamma	69.924000
_symmetry_Int_Tables_number 1

loop_
_symmetry_equiv_pos_as_xyz
'x,y,z'

loop_
_atom_site_label
_atom_site_type_symbol
_atom_site_fract_x
_atom_site_fract_y
_atom_site_fract_z
Th11	Th1	0.539750	0.550390	0.601130
P11	P1	0.723400	0.655700	0.721500
O11	O1	0.530800	0.390800	0.566200
O21	O2	0.665800	0.598100	0.678600
O31	O3	0.716500	0.365300	0.686100
C11	C1	0.667100	0.814100	0.664100
C21	C2	0.883000	0.610700	0.692700
C31	C3	0.546600	0.870400	0.687700
H11	H1	0.498400	0.826100	0.735800
C41	C4	0.681400	0.498300	0.914700
H21	H2	0.699200	0.445700	0.880400
C51	C5	0.689700	0.613200	0.859200
C61	C6	0.737800	0.879300	0.589700
H31	H3	0.817400	0.841600	0.573200
C71	C7	0.664200	0.692100	0.909900
H41	H4	0.671500	0.768200	0.873500
C81	C8	0.962000	0.646200	0.724900
H51	H5	0.933300	0.691800	0.766400
C91	C9	0.928000	0.537900	0.637500
H61	H6	0.876900	0.507000	0.621300
O41	O4	0.416700	0.245000	0.531700
O51	O5	0.592000	0.241800	0.442500
C101	C10	0.521700	0.187700	0.510300
C111	C11	0.500000	0.990800	0.639600
H71	H7	0.420900	0.029000	0.656900
C121	C12	0.571200	0.055800	0.565000
C131	C13	0.689500	0.000700	0.539800
H81	H8	0.736400	0.044800	0.489500
C141	C14	0.050800	0.509300	0.604900
H91	H9	0.080300	0.461200	0.565700
C151	C15	0.084000	0.613500	0.695000
H101	H10	0.137400	0.634300	0.719700
C161	C16	0.127500	0.551300	0.630100
C171	C17	0.256900	0.526900	0.588000
O61	O6	0.326300	0.556900	0.622100
O71	O7	0.282500	0.487000	0.517400
O81	O8	0.570500	0.402300	0.234200
O91	O9	0.515300	0.588800	0.218700
C181	C18	0.616000	0.542500	0.069900
C191	C19	0.566900	0.507000	0.182300
C201	C20	0.647300	0.462000	0.019600
H111	H11	0.645100	0.384300	0.056800
C211	C21	0.627200	0.656100	0.016300
H121	H12	0.610200	0.708200	0.051100
Th21	Th2	0.460250	0.449610	0.398870
P21	P2	0.276600	0.344300	0.278500
O101	O10	0.469200	0.609200	0.433800
O111	O11	0.334200	0.401900	0.321400
O121	O12	0.283500	0.634700	0.313900
C221	C22	0.332900	0.185900	0.335900
C231	C23	0.117000	0.389300	0.307300
C241	C24	0.453400	0.129600	0.312300
H131	H13	0.501600	0.173900	0.264200
C251	C25	0.318600	0.501700	0.085300
H141	H14	0.300800	0.554300	0.119600
C261	C26	0.310300	0.386800	0.140800
C271	C27	0.262200	0.120700	0.410300
H151	H15	0.182600	0.158400	0.426800
C281	C28	0.335800	0.307900	0.090100
H161	H16	0.328500	0.231800	0.126500
C291	C29	0.038000	0.353800	0.275100
H171	H17	0.066700	0.308200	0.233600
C301	C30	0.072000	0.462100	0.362500
H181	H18	0.123100	0.493000	0.378700
O131	O13	0.583300	0.755000	0.468300
O141	O14	0.408000	0.758200	0.557500
C311	C31	0.478300	0.812300	0.489700
C321	C32	0.500000	0.009200	0.360400
H191	H19	0.579100	0.971000	0.343100
C331	C33	0.428800	0.944200	0.435000
C341	C34	0.310500	0.999300	0.460200
H201	H20	0.263600	0.955200	0.510500
C351	C35	0.949200	0.490700	0.395100
H211	H21	0.919700	0.538800	0.434300
C361	C36	0.916000	0.386500	0.305000
H221	H22	0.862600	0.365700	0.280300
C371	C37	0.872500	0.448700	0.369900
C381	C38	0.743100	0.473100	0.412000
O151	O15	0.673700	0.443100	0.377900
O161	O16	0.717500	0.513000	0.482600
O171	O17	0.429500	0.597700	0.765800
O181	O18	0.484700	0.411200	0.781300
C391	C39	0.384000	0.457500	0.930100
C401	C40	0.433100	0.493000	0.817700
C411	C41	0.352700	0.538000	0.980400
H231	H23	0.354900	0.615700	0.943200
C421	C42	0.372800	0.343900	0.983700
H241	H24	0.389800	0.291800	0.948900
