data_HUXDOT_freeONLY_PM
_symmetry_space_group_name_H-M	'P1'
_cell_length_a	7.788000
_cell_length_b	14.259000
_cell_length_c	36.544000
_cell_angle_alpha	90.000000
_cell_angle_beta	90.000000
_cell_angle_gamma	90.000000
_symmetry_Int_Tables_number 1

loop_
_symmetry_equiv_pos_as_xyz
'x,y,z'

loop_
_atom_site_label
_atom_site_type_symbol
_atom_site_fract_x
_atom_site_fract_y
_atom_site_fract_z
Ag11	Ag1	0.587100	0.393920	0.558530
Ag21	Ag2	0.920160	0.115570	0.648080
Ag31	Ag3	0.878600	0.243630	0.369380
Ag41	Ag4	0.451800	0.686270	0.319060
N11	N1	0.959000	0.090700	0.805100
N21	N2	0.892000	0.165300	0.806000
N31	N3	0.775400	0.295300	0.597100
N41	N4	0.729100	0.211100	0.604800
N51	N5	0.572000	0.381800	0.407400
N61	N6	0.607000	0.341500	0.377100
N71	N7	0.099200	0.915800	0.870800
N81	N8	0.033000	0.106000	0.867700
N91	N9	0.854000	0.180800	0.703800
N101	N10	0.744000	0.271100	0.768500
N111	N11	0.074300	0.464800	0.636300
N121	N12	0.032100	0.266500	0.630300
N131	N13	0.426900	0.046500	0.566400
N141	N14	0.478100	0.247100	0.569700
N151	N15	0.668000	0.327400	0.501700
N161	N16	0.792000	0.279800	0.433000
N171	N17	0.423000	0.529100	0.320300
N181	N18	0.473000	0.341600	0.319800
C11	C1	0.004000	0.056200	0.840000
C21	C2	0.038000	0.952600	0.841500
H11	H1	0.014200	0.915200	0.821200
C31	C3	0.131000	0.971800	0.901500
H21	H2	0.175600	0.947600	0.923200
C41	C4	0.093000	0.065400	0.897200
H31	H3	0.110800	0.103800	0.917400
C51	C5	0.842000	0.193900	0.768900
C61	C6	0.900000	0.149900	0.740700
H41	H4	0.971300	0.098200	0.743800
C71	C7	0.744000	0.255200	0.703200
H51	H5	0.697400	0.274100	0.681000
C81	C8	0.699000	0.303700	0.734900
H61	H6	0.637900	0.359400	0.733000
C91	C9	0.926400	0.327500	0.616700
C101	C10	0.949400	0.424200	0.617000
H71	H7	0.875600	0.461700	0.603400
C111	C11	0.197000	0.399900	0.651300
H81	H8	0.293500	0.422200	0.663500
C121	C12	0.173000	0.309000	0.647700
H91	H9	0.256200	0.269600	0.657500
C131	C13	0.583200	0.182500	0.586700
C141	C14	0.553000	0.088600	0.584900
H101	H10	0.626800	0.050000	0.598000
C151	C15	0.321000	0.107400	0.551100
H111	H11	0.223300	0.084800	0.539400
C161	C16	0.349000	0.206200	0.551800
H121	H12	0.273100	0.244300	0.539000
C171	C17	0.665000	0.341900	0.436100
C181	C18	0.603000	0.366700	0.472500
H131	H13	0.516000	0.411100	0.475000
C191	C19	0.788000	0.272800	0.497600
H141	H14	0.835300	0.247200	0.518700
C201	C20	0.860000	0.245300	0.464200
H151	H15	0.953400	0.204500	0.463600
C211	C21	0.528000	0.392200	0.345200
C221	C22	0.506000	0.487500	0.349300
H161	H16	0.544500	0.520600	0.369700
C231	C23	0.381000	0.478600	0.291100
H171	H17	0.337600	0.508500	0.270400
C241	C24	0.402000	0.374000	0.290900
H181	H18	0.367200	0.336300	0.271500
Ag51	Ag5	0.412900	0.606080	0.058530
Ag61	Ag6	0.079840	0.884430	0.148080
Ag71	Ag7	0.121400	0.756370	0.869380
Ag81	Ag8	0.548200	0.313730	0.819060
N191	N19	0.041000	0.909300	0.305100
N201	N20	0.108000	0.834700	0.306000
N211	N21	0.224600	0.704700	0.097100
N221	N22	0.270900	0.788900	0.104800
N231	N23	0.428000	0.618200	0.907400
N241	N24	0.393000	0.658500	0.877100
N251	N25	0.900800	0.084200	0.370800
N261	N26	0.967000	0.894000	0.367700
N271	N27	0.146000	0.819200	0.203800
N281	N28	0.256000	0.728900	0.268500
N291	N29	0.925700	0.535200	0.136300
N301	N30	0.967900	0.733500	0.130300
N311	N31	0.573100	0.953500	0.066400
N321	N32	0.521900	0.752900	0.069700
N331	N33	0.332000	0.672600	0.001700
N341	N34	0.208000	0.720200	0.933000
N351	N35	0.577000	0.470900	0.820300
N361	N36	0.527000	0.658400	0.819800
C251	C25	0.996000	0.943800	0.340000
C261	C26	0.962000	0.047400	0.341500
H191	H19	0.985800	0.084800	0.321200
C271	C27	0.869000	0.028200	0.401500
H201	H20	0.824400	0.052400	0.423200
C281	C28	0.907000	0.934600	0.397200
H211	H21	0.889200	0.896200	0.417400
C291	C29	0.158000	0.806100	0.268900
C301	C30	0.100000	0.850100	0.240700
H221	H22	0.028700	0.901800	0.243800
C311	C31	0.256000	0.744800	0.203200
H231	H23	0.302600	0.725900	0.181000
C321	C32	0.301000	0.696300	0.234900
H241	H24	0.362100	0.640600	0.233000
C331	C33	0.073600	0.672500	0.116700
C341	C34	0.050600	0.575800	0.117000
H251	H25	0.124400	0.538300	0.103400
C351	C35	0.803000	0.600100	0.151300
H261	H26	0.706500	0.577800	0.163500
C361	C36	0.827000	0.691000	0.147700
H271	H27	0.743800	0.730400	0.157500
C371	C37	0.416800	0.817500	0.086700
C381	C38	0.447000	0.911400	0.084900
H281	H28	0.373200	0.950000	0.098000
C391	C39	0.679000	0.892600	0.051100
H291	H29	0.776700	0.915200	0.039400
C401	C40	0.651000	0.793800	0.051800
H301	H30	0.726900	0.755700	0.039000
C411	C41	0.335000	0.658100	0.936100
C421	C42	0.397000	0.633300	0.972500
H311	H31	0.484000	0.588900	0.975000
C431	C43	0.212000	0.727200	0.997600
H321	H32	0.164700	0.752800	0.018700
C441	C44	0.140000	0.754700	0.964200
H331	H33	0.046600	0.795500	0.963600
C451	C45	0.472000	0.607800	0.845200
C461	C46	0.494000	0.512500	0.849300
H341	H34	0.455500	0.479400	0.869700
C471	C47	0.619000	0.521400	0.791100
H351	H35	0.662400	0.491500	0.770400
C481	C48	0.598000	0.626000	0.790900
H361	H36	0.632800	0.663700	0.771500
Ag91	Ag9	0.412900	0.893920	0.558530
Ag101	Ag10	0.079840	0.615570	0.648080
Ag111	Ag11	0.121400	0.743630	0.369380
Ag121	Ag12	0.548200	0.186270	0.319060
N371	N37	0.041000	0.590700	0.805100
N381	N38	0.108000	0.665300	0.806000
N391	N39	0.224600	0.795300	0.597100
N401	N40	0.270900	0.711100	0.604800
N411	N41	0.428000	0.881800	0.407400
N421	N42	0.393000	0.841500	0.377100
N431	N43	0.900800	0.415800	0.870800
N441	N44	0.967000	0.606000	0.867700
N451	N45	0.146000	0.680800	0.703800
N461	N46	0.256000	0.771100	0.768500
N471	N47	0.925700	0.964800	0.636300
N481	N48	0.967900	0.766500	0.630300
N491	N49	0.573100	0.546500	0.566400
N501	N50	0.521900	0.747100	0.569700
N511	N51	0.332000	0.827400	0.501700
N521	N52	0.208000	0.779800	0.433000
N531	N53	0.577000	0.029100	0.320300
N541	N54	0.527000	0.841600	0.319800
C491	C49	0.996000	0.556200	0.840000
C501	C50	0.962000	0.452600	0.841500
H371	H37	0.985800	0.415200	0.821200
C511	C51	0.869000	0.471800	0.901500
H381	H38	0.824400	0.447600	0.923200
C521	C52	0.907000	0.565400	0.897200
H391	H39	0.889200	0.603800	0.917400
C531	C53	0.158000	0.693900	0.768900
C541	C54	0.100000	0.649900	0.740700
H401	H40	0.028700	0.598200	0.743800
C551	C55	0.256000	0.755200	0.703200
H411	H41	0.302600	0.774100	0.681000
C561	C56	0.301000	0.803700	0.734900
H421	H42	0.362100	0.859400	0.733000
C571	C57	0.073600	0.827500	0.616700
C581	C58	0.050600	0.924200	0.617000
H431	H43	0.124400	0.961700	0.603400
C591	C59	0.803000	0.899900	0.651300
H441	H44	0.706500	0.922200	0.663500
C601	C60	0.827000	0.809000	0.647700
H451	H45	0.743800	0.769600	0.657500
C611	C61	0.416800	0.682500	0.586700
C621	C62	0.447000	0.588600	0.584900
H461	H46	0.373200	0.550000	0.598000
C631	C63	0.679000	0.607400	0.551100
H471	H47	0.776700	0.584800	0.539400
C641	C64	0.651000	0.706200	0.551800
H481	H48	0.726900	0.744300	0.539000
C651	C65	0.335000	0.841900	0.436100
C661	C66	0.397000	0.866700	0.472500
H491	H49	0.484000	0.911100	0.475000
C671	C67	0.212000	0.772800	0.497600
H501	H50	0.164700	0.747200	0.518700
C681	C68	0.140000	0.745300	0.464200
H511	H51	0.046600	0.704500	0.463600
C691	C69	0.472000	0.892200	0.345200
C701	C70	0.494000	0.987500	0.349300
H521	H52	0.455500	0.020600	0.369700
C711	C71	0.619000	0.978600	0.291100
H531	H53	0.662400	0.008500	0.270400
C721	C72	0.598000	0.874000	0.290900
H541	H54	0.632800	0.836300	0.271500
Ag131	Ag13	0.587100	0.106080	0.058530
Ag141	Ag14	0.920160	0.384430	0.148080
Ag151	Ag15	0.878600	0.256370	0.869380
Ag161	Ag16	0.451800	0.813730	0.819060
N551	N55	0.959000	0.409300	0.305100
N561	N56	0.892000	0.334700	0.306000
N571	N57	0.775400	0.204700	0.097100
N581	N58	0.729100	0.288900	0.104800
N591	N59	0.572000	0.118200	0.907400
N601	N60	0.607000	0.158500	0.877100
N611	N61	0.099200	0.584200	0.370800
N621	N62	0.033000	0.394000	0.367700
N631	N63	0.854000	0.319200	0.203800
N641	N64	0.744000	0.228900	0.268500
N651	N65	0.074300	0.035200	0.136300
N661	N66	0.032100	0.233500	0.130300
N671	N67	0.426900	0.453500	0.066400
N681	N68	0.478100	0.252900	0.069700
N691	N69	0.668000	0.172600	0.001700
N701	N70	0.792000	0.220200	0.933000
N711	N71	0.423000	0.970900	0.820300
N721	N72	0.473000	0.158400	0.819800
C731	C73	0.004000	0.443800	0.340000
C741	C74	0.038000	0.547400	0.341500
H551	H55	0.014200	0.584800	0.321200
C751	C75	0.131000	0.528200	0.401500
H561	H56	0.175600	0.552400	0.423200
C761	C76	0.093000	0.434600	0.397200
H571	H57	0.110800	0.396200	0.417400
C771	C77	0.842000	0.306100	0.268900
C781	C78	0.900000	0.350100	0.240700
H581	H58	0.971300	0.401800	0.243800
C791	C79	0.744000	0.244800	0.203200
H591	H59	0.697400	0.225900	0.181000
C801	C80	0.699000	0.196300	0.234900
H601	H60	0.637900	0.140600	0.233000
C811	C81	0.926400	0.172500	0.116700
C821	C82	0.949400	0.075800	0.117000
H611	H61	0.875600	0.038300	0.103400
C831	C83	0.197000	0.100100	0.151300
H621	H62	0.293500	0.077800	0.163500
C841	C84	0.173000	0.191000	0.147700
H631	H63	0.256200	0.230400	0.157500
C851	C85	0.583200	0.317500	0.086700
C861	C86	0.553000	0.411400	0.084900
H641	H64	0.626800	0.450000	0.098000
C871	C87	0.321000	0.392600	0.051100
H651	H65	0.223300	0.415200	0.039400
C881	C88	0.349000	0.293800	0.051800
H661	H66	0.273100	0.255700	0.039000
C891	C89	0.665000	0.158100	0.936100
C901	C90	0.603000	0.133300	0.972500
H671	H67	0.516000	0.088900	0.975000
C911	C91	0.788000	0.227200	0.997600
H681	H68	0.835300	0.252800	0.018700
C921	C92	0.860000	0.254700	0.964200
H691	H69	0.953400	0.295500	0.963600
C931	C93	0.528000	0.107800	0.845200
C941	C94	0.506000	0.012500	0.849300
H701	H70	0.544500	0.979400	0.869700
C951	C95	0.381000	0.021400	0.791100
H711	H71	0.337600	0.991500	0.770400
C961	C96	0.402000	0.126000	0.790900
H721	H72	0.367200	0.163700	0.771500
