data_HUYKUH_freeONLY_PM
_symmetry_space_group_name_H-M	'P1'
_cell_length_a	24.770100
_cell_length_b	24.770100
_cell_length_c	24.770100
_cell_angle_alpha	109.471000
_cell_angle_beta	109.471000
_cell_angle_gamma	109.471000
_symmetry_Int_Tables_number 1

loop_
_symmetry_equiv_pos_as_xyz
'x,y,z'

loop_
_atom_site_label
_atom_site_type_symbol
_atom_site_fract_x
_atom_site_fract_y
_atom_site_fract_z
Ni11	Ni1	0.028030	0.278030	0.556060
Ni21	Ni2	0.221970	0.471970	0.943940
Ni31	Ni3	0.278030	0.221970	0.250000
Ni41	Ni4	0.471970	0.028030	0.250000
Ni51	Ni5	0.750000	0.278030	0.721970
Ni61	Ni6	0.750000	0.471970	0.528030
Ni71	Ni7	0.056060	0.028030	0.778030
Ni81	Ni8	0.443940	0.221970	0.971970
Ni91	Ni9	0.471970	0.443940	0.721970
Ni101	Ni10	0.278030	0.056060	0.528030
Ni111	Ni11	0.028030	0.750000	0.971970
Ni121	Ni12	0.221970	0.750000	0.778030
H11	H1	0.087700	0.478700	0.610400
H21	H2	0.138100	0.298800	0.678700
H31	H3	0.250400	0.376700	0.755300
H41	H4	0.309200	0.457300	0.741700
H51	H5	0.252400	0.474300	0.656900
H61	H6	0.137600	0.397700	0.584500
H71	H7	0.912100	0.237000	0.471100
H81	H8	0.368300	0.477300	0.889600
H91	H9	0.120100	0.459400	0.821300
H101	H10	0.121400	0.495100	0.744700
H111	H11	0.215600	0.567500	0.758300
H121	H12	0.317400	0.595500	0.843100
H131	H13	0.313200	0.553100	0.915500
H141	H14	0.265900	0.441000	0.028900
H151	H15	0.131700	0.021300	0.109000
H161	H16	0.379900	0.201200	0.339300
H171	H17	0.378600	0.123300	0.373700
H181	H18	0.284400	0.042700	0.351900
H191	H19	0.182600	0.025700	0.278100
H201	H20	0.186800	0.102300	0.239900
H211	H21	0.234100	0.263000	0.175100
H221	H22	0.412300	0.022700	0.391000
H231	H23	0.361900	0.040600	0.160700
H241	H24	0.249600	0.004900	0.126300
H251	H25	0.190800	0.932500	0.148100
H261	H26	0.247600	0.904500	0.221900
H271	H27	0.362400	0.946900	0.260100
H281	H28	0.587900	0.059000	0.324900
H291	H29	0.609000	0.131700	0.521300
H301	H30	0.839300	0.379900	0.701200
H311	H31	0.873700	0.378600	0.623300
H321	H32	0.851900	0.284400	0.542700
H331	H33	0.778100	0.182600	0.525700
H341	H34	0.739900	0.186800	0.602300
H351	H35	0.675100	0.234100	0.763000
H361	H36	0.891000	0.412300	0.522700
H371	H37	0.660700	0.361900	0.540600
H381	H38	0.626300	0.249600	0.504900
H391	H39	0.648100	0.190800	0.432500
H401	H40	0.721900	0.247600	0.404500
H411	H41	0.760100	0.362400	0.446900
H421	H42	0.824900	0.587900	0.559000
H431	H43	0.110400	0.087700	0.978700
H441	H44	0.178700	0.138100	0.798800
H451	H45	0.255300	0.250400	0.876700
H461	H46	0.241700	0.309200	0.957300
H471	H47	0.156900	0.252400	0.974300
H481	H48	0.084500	0.137600	0.897700
H491	H49	0.971100	0.912100	0.737000
H501	H50	0.389600	0.368300	0.977300
H511	H51	0.321300	0.120100	0.959400
H521	H52	0.244700	0.121400	0.995100
H531	H53	0.258300	0.215600	0.067500
H541	H54	0.343100	0.317400	0.095500
H551	H55	0.415500	0.313200	0.053100
H561	H56	0.528900	0.265900	0.941000
H571	H57	0.477300	0.389600	0.868300
H581	H58	0.459400	0.321300	0.620100
H591	H59	0.495100	0.244700	0.621400
H601	H60	0.567500	0.258300	0.715600
H611	H61	0.595500	0.343100	0.817400
H621	H62	0.553100	0.415500	0.813200
H631	H63	0.441000	0.528900	0.765900
H641	H64	0.478700	0.110400	0.587700
H651	H65	0.298800	0.178700	0.638100
H661	H66	0.376700	0.255300	0.750400
H671	H67	0.457300	0.241700	0.809200
H681	H68	0.474300	0.156900	0.752400
H691	H69	0.397700	0.084500	0.637600
H701	H70	0.237000	0.971100	0.412100
H711	H71	0.022700	0.891000	0.912300
H721	H72	0.040600	0.660700	0.861900
H731	H73	0.004900	0.626300	0.749600
H741	H74	0.932500	0.648100	0.690800
H751	H75	0.904500	0.721900	0.747600
H761	H76	0.946900	0.760100	0.862400
H771	H77	0.059000	0.824900	0.087900
H781	H78	0.021300	0.609000	0.631700
H791	H79	0.201200	0.839300	0.879900
H801	H80	0.123300	0.873700	0.878600
H811	H81	0.042700	0.851900	0.784400
H821	H82	0.025700	0.778100	0.682600
H831	H83	0.102300	0.739900	0.686800
H841	H84	0.263000	0.675100	0.734100
H851	H85	0.021300	0.412300	0.889600
H861	H86	0.201200	0.361900	0.821300
H871	H87	0.123300	0.249600	0.744700
H881	H88	0.042700	0.190800	0.758300
H891	H89	0.025700	0.247600	0.843100
H901	H90	0.102300	0.362400	0.915500
H911	H91	0.263000	0.587900	0.028900
H921	H92	0.022700	0.131700	0.610400
H931	H93	0.040600	0.379900	0.678700
H941	H94	0.004900	0.378600	0.755300
H951	H95	0.932500	0.284400	0.741700
H961	H96	0.904500	0.182600	0.656900
H971	H97	0.946900	0.186800	0.584500
H981	H98	0.059000	0.234100	0.471100
H991	H99	0.478700	0.368300	0.391000
H1001	H100	0.298800	0.120100	0.160700
H1011	H101	0.376700	0.121400	0.126300
H1021	H102	0.457300	0.215600	0.148100
H1031	H103	0.474300	0.317400	0.221900
H1041	H104	0.397700	0.313200	0.260100
H1051	H105	0.237000	0.265900	0.324900
H1061	H106	0.477300	0.087700	0.109000
H1071	H107	0.459400	0.138100	0.339300
H1081	H108	0.495100	0.250400	0.373700
H1091	H109	0.567500	0.309200	0.351900
H1101	H110	0.595500	0.252400	0.278100
H1111	H111	0.553100	0.137600	0.239900
H1121	H112	0.441000	0.912100	0.175100
H1131	H113	0.368300	0.891000	0.978700
H1141	H114	0.120100	0.660700	0.798800
H1151	H115	0.121400	0.626300	0.876700
H1161	H116	0.215600	0.648100	0.957300
H1171	H117	0.317400	0.721900	0.974300
H1181	H118	0.313200	0.760100	0.897700
H1191	H119	0.265900	0.824900	0.737000
H1201	H120	0.087700	0.609000	0.977300
H1211	H121	0.138100	0.839300	0.959400
H1221	H122	0.250400	0.873700	0.995100
H1231	H123	0.309200	0.851900	0.067500
H1241	H124	0.252400	0.778100	0.095500
H1251	H125	0.137600	0.739900	0.053100
H1261	H126	0.912100	0.675100	0.941000
H1271	H127	0.412300	0.389600	0.521300
H1281	H128	0.361900	0.321300	0.701200
H1291	H129	0.249600	0.244700	0.623300
H1301	H130	0.190800	0.258300	0.542700
H1311	H131	0.247600	0.343100	0.525700
H1321	H132	0.362400	0.415500	0.602300
H1331	H133	0.587900	0.528900	0.763000
H1341	H134	0.131700	0.110400	0.522700
H1351	H135	0.379900	0.178700	0.540600
H1361	H136	0.378600	0.255300	0.504900
H1371	H137	0.284400	0.241700	0.432500
H1381	H138	0.182600	0.156900	0.404500
H1391	H139	0.186800	0.084500	0.446900
H1401	H140	0.234100	0.971100	0.559000
H1411	H141	0.110400	0.022700	0.631700
H1421	H142	0.178700	0.040600	0.879900
H1431	H143	0.255300	0.004900	0.878600
H1441	H144	0.241700	0.932500	0.784400
H1451	H145	0.156900	0.904500	0.682600
H1461	H146	0.084500	0.946900	0.686800
H1471	H147	0.971100	0.059000	0.734100
H1481	H148	0.389600	0.021300	0.912300
H1491	H149	0.321300	0.201200	0.861900
H1501	H150	0.244700	0.123300	0.749600
H1511	H151	0.258300	0.042700	0.690800
H1521	H152	0.343100	0.025700	0.747600
H1531	H153	0.415500	0.102300	0.862400
H1541	H154	0.528900	0.263000	0.087900
H1551	H155	0.609000	0.477300	0.587700
H1561	H156	0.839300	0.459400	0.638100
H1571	H157	0.873700	0.495100	0.750400
H1581	H158	0.851900	0.567500	0.809200
H1591	H159	0.778100	0.595500	0.752400
H1601	H160	0.739900	0.553100	0.637600
H1611	H161	0.675100	0.441000	0.412100
H1621	H162	0.891000	0.478700	0.868300
H1631	H163	0.660700	0.298800	0.620100
H1641	H164	0.626300	0.376700	0.621400
H1651	H165	0.648100	0.457300	0.715600
H1661	H166	0.721900	0.474300	0.817400
H1671	H167	0.760100	0.397700	0.813200
H1681	H168	0.824900	0.237000	0.765900
C11	C1	0.973700	0.364780	0.535260
C21	C2	0.987470	0.435230	0.561840
C31	C3	0.052040	0.487280	0.600980
C41	C4	0.932000	0.184300	0.419900
C51	C5	0.860600	0.139200	0.363800
C61	C6	0.160100	0.334700	0.673600
C71	C7	0.228500	0.381100	0.718800
C81	C8	0.262800	0.429400	0.712400
C91	C9	0.230300	0.438800	0.662500
C101	C10	0.161100	0.392200	0.619500
C111	C11	0.329520	0.438440	0.964740
C121	C12	0.373390	0.425630	0.938160
C131	C13	0.386300	0.451060	0.899020
C141	C14	0.264400	0.512100	0.080100
C151	C15	0.275400	0.496800	0.136200
C161	C16	0.161100	0.486500	0.826400
C171	C17	0.162300	0.509700	0.781200
C181	C18	0.217000	0.550400	0.787600
C191	C19	0.276300	0.567800	0.837500
C201	C20	0.272700	0.541600	0.880500
C211	C21	0.170480	0.135220	0.108920
C221	C22	0.126610	0.064770	0.052240
C231	C23	0.113700	0.012720	0.064760
C241	C24	0.235600	0.315700	0.247700
C251	C25	0.224600	0.360800	0.221400
C261	C26	0.338900	0.165300	0.325400
C271	C27	0.337700	0.118900	0.347400
C281	C28	0.283000	0.070600	0.333400
C291	C29	0.223700	0.061200	0.291500
C301	C30	0.227300	0.107800	0.268900
C311	C31	0.526300	0.061560	0.391080
C321	C32	0.512530	0.074370	0.447760
C331	C33	0.447960	0.048940	0.435240
C341	C34	0.568000	0.987900	0.252300
C351	C35	0.639400	0.003200	0.278600
C361	C36	0.339900	0.013500	0.174600
C371	C37	0.271500	0.990300	0.152600
C381	C38	0.237200	0.949600	0.166600
C391	C39	0.269700	0.932200	0.208500
C401	C40	0.338900	0.958400	0.231100
C411	C41	0.608920	0.170480	0.635220
C421	C42	0.552240	0.126610	0.564770
C431	C43	0.564760	0.113700	0.512720
C441	C44	0.747700	0.235600	0.815700
C451	C45	0.721400	0.224600	0.860800
C461	C46	0.825400	0.338900	0.665300
C471	C47	0.847400	0.337700	0.618900
C481	C48	0.833400	0.283000	0.570600
C491	C49	0.791500	0.223700	0.561200
C501	C50	0.768900	0.227300	0.607800
C511	C51	0.891080	0.526300	0.561560
C521	C52	0.947760	0.512530	0.574370
C531	C53	0.935240	0.447960	0.548940
C541	C54	0.752300	0.568000	0.487900
C551	C55	0.778600	0.639400	0.503200
C561	C56	0.674600	0.339900	0.513500
C571	C57	0.652600	0.271500	0.490300
C581	C58	0.666600	0.237200	0.449600
C591	C59	0.708500	0.269700	0.432200
C601	C60	0.731100	0.338900	0.458400
C611	C61	0.035260	0.973700	0.864780
C621	C62	0.061840	0.987470	0.935230
C631	C63	0.100980	0.052040	0.987280
C641	C64	0.919900	0.932000	0.684300
C651	C65	0.863800	0.860600	0.639200
C661	C66	0.173600	0.160100	0.834700
C671	C67	0.218800	0.228500	0.881100
C681	C68	0.212400	0.262800	0.929400
C691	C69	0.162500	0.230300	0.938800
C701	C70	0.119500	0.161100	0.892200
C711	C71	0.464740	0.329520	0.938440
C721	C72	0.438160	0.373390	0.925630
C731	C73	0.399020	0.386300	0.951060
C741	C74	0.580100	0.264400	0.012100
C751	C75	0.636200	0.275400	0.996800
C761	C76	0.326400	0.161100	0.986500
C771	C77	0.281200	0.162300	0.009700
C781	C78	0.287600	0.217000	0.050400
C791	C79	0.337500	0.276300	0.067800
C801	C80	0.380500	0.272700	0.041600
C811	C81	0.438440	0.464740	0.829520
C821	C82	0.425630	0.438160	0.873390
C831	C83	0.451060	0.399020	0.886300
C841	C84	0.512100	0.580100	0.764400
C851	C85	0.496800	0.636200	0.775400
C861	C86	0.486500	0.326400	0.661100
C871	C87	0.509700	0.281200	0.662300
C881	C88	0.550400	0.287600	0.717000
C891	C89	0.567800	0.337500	0.776300
C901	C90	0.541600	0.380500	0.772700
C911	C91	0.364780	0.035260	0.473700
C921	C92	0.435230	0.061840	0.487470
C931	C93	0.487280	0.100980	0.552040
C941	C94	0.184300	0.919900	0.432000
C951	C95	0.139200	0.863800	0.360600
C961	C96	0.334700	0.173600	0.660100
C971	C97	0.381100	0.218800	0.728500
C981	C98	0.429400	0.212400	0.762800
C991	C99	0.438800	0.162500	0.730300
C1001	C100	0.392200	0.119500	0.661100
C1011	C101	0.061560	0.891080	0.026300
C1021	C102	0.074370	0.947760	0.012530
C1031	C103	0.048940	0.935240	0.947960
C1041	C104	0.987900	0.752300	0.068000
C1051	C105	0.003200	0.778600	0.139400
C1061	C106	0.013500	0.674600	0.839900
C1071	C107	0.990300	0.652600	0.771500
C1081	C108	0.949600	0.666600	0.737200
C1091	C109	0.932200	0.708500	0.769700
C1101	C110	0.958400	0.731100	0.838900
C1111	C111	0.135220	0.608920	0.670480
C1121	C112	0.064770	0.552240	0.626610
C1131	C113	0.012720	0.564760	0.613700
C1141	C114	0.315700	0.747700	0.735600
C1151	C115	0.360800	0.721400	0.724600
C1161	C116	0.165300	0.825400	0.838900
C1171	C117	0.118900	0.847400	0.837700
C1181	C118	0.070600	0.833400	0.783000
C1191	C119	0.061200	0.791500	0.723700
C1201	C120	0.107800	0.768900	0.727300
C1211	C121	0.135220	0.526300	0.964740
C1221	C122	0.064770	0.512530	0.938160
C1231	C123	0.012720	0.447960	0.899020
C1241	C124	0.315700	0.568000	0.080100
C1251	C125	0.360800	0.639400	0.136200
C1261	C126	0.165300	0.339900	0.826400
C1271	C127	0.118900	0.271500	0.781200
C1281	C128	0.070600	0.237200	0.787600
C1291	C129	0.061200	0.269700	0.837500
C1301	C130	0.107800	0.338900	0.880500
C1311	C131	0.061560	0.170480	0.535260
C1321	C132	0.074370	0.126610	0.561840
C1331	C133	0.048940	0.113700	0.600980
C1341	C134	0.987900	0.235600	0.419900
C1351	C135	0.003200	0.224600	0.363800
C1361	C136	0.013500	0.338900	0.673600
C1371	C137	0.990300	0.337700	0.718800
C1381	C138	0.949600	0.283000	0.712400
C1391	C139	0.932200	0.223700	0.662500
C1401	C140	0.958400	0.227300	0.619500
C1411	C141	0.364780	0.329520	0.391080
C1421	C142	0.435230	0.373390	0.447760
C1431	C143	0.487280	0.386300	0.435240
C1441	C144	0.184300	0.264400	0.252300
C1451	C145	0.139200	0.275400	0.278600
C1461	C146	0.334700	0.161100	0.174600
C1471	C147	0.381100	0.162300	0.152600
C1481	C148	0.429400	0.217000	0.166600
C1491	C149	0.438800	0.276300	0.208500
C1501	C150	0.392200	0.272700	0.231100
C1511	C151	0.438440	0.973700	0.108920
C1521	C152	0.425630	0.987470	0.052240
C1531	C153	0.451060	0.052040	0.064760
C1541	C154	0.512100	0.932000	0.247700
C1551	C155	0.496800	0.860600	0.221400
C1561	C156	0.486500	0.160100	0.325400
C1571	C157	0.509700	0.228500	0.347400
C1581	C158	0.550400	0.262800	0.333400
C1591	C159	0.567800	0.230300	0.291500
C1601	C160	0.541600	0.161100	0.268900
C1611	C161	0.329520	0.891080	0.864780
C1621	C162	0.373390	0.947760	0.935230
C1631	C163	0.386300	0.935240	0.987280
C1641	C164	0.264400	0.752300	0.684300
C1651	C165	0.275400	0.778600	0.639200
C1661	C166	0.161100	0.674600	0.834700
C1671	C167	0.162300	0.652600	0.881100
C1681	C168	0.217000	0.666600	0.929400
C1691	C169	0.276300	0.708500	0.938800
C1701	C170	0.272700	0.731100	0.892200
C1711	C171	0.973700	0.608920	0.938440
C1721	C172	0.987470	0.552240	0.925630
C1731	C173	0.052040	0.564760	0.951060
C1741	C174	0.932000	0.747700	0.012100
C1751	C175	0.860600	0.721400	0.996800
C1761	C176	0.160100	0.825400	0.986500
C1771	C177	0.228500	0.847400	0.009700
C1781	C178	0.262800	0.833400	0.050400
C1791	C179	0.230300	0.791500	0.067800
C1801	C180	0.161100	0.768900	0.041600
C1811	C181	0.526300	0.464740	0.635220
C1821	C182	0.512530	0.438160	0.564770
C1831	C183	0.447960	0.399020	0.512720
C1841	C184	0.568000	0.580100	0.815700
C1851	C185	0.639400	0.636200	0.860800
C1861	C186	0.339900	0.326400	0.665300
C1871	C187	0.271500	0.281200	0.618900
C1881	C188	0.237200	0.287600	0.570600
C1891	C189	0.269700	0.337500	0.561200
C1901	C190	0.338900	0.380500	0.607800
C1911	C191	0.170480	0.035260	0.561560
C1921	C192	0.126610	0.061840	0.574370
C1931	C193	0.113700	0.100980	0.548940
C1941	C194	0.235600	0.919900	0.487900
C1951	C195	0.224600	0.863800	0.503200
C1961	C196	0.338900	0.173600	0.513500
C1971	C197	0.337700	0.218800	0.490300
C1981	C198	0.283000	0.212400	0.449600
C1991	C199	0.223700	0.162500	0.432200
C2001	C200	0.227300	0.119500	0.458400
C2011	C201	0.035260	0.061560	0.670480
C2021	C202	0.061840	0.074370	0.626610
C2031	C203	0.100980	0.048940	0.613700
C2041	C204	0.919900	0.987900	0.735600
C2051	C205	0.863800	0.003200	0.724600
C2061	C206	0.173600	0.013500	0.838900
C2071	C207	0.218800	0.990300	0.837700
C2081	C208	0.212400	0.949600	0.783000
C2091	C209	0.162500	0.932200	0.723700
C2101	C210	0.119500	0.958400	0.727300
C2111	C211	0.464740	0.135220	0.026300
C2121	C212	0.438160	0.064770	0.012530
C2131	C213	0.399020	0.012720	0.947960
C2141	C214	0.580100	0.315700	0.068000
C2151	C215	0.636200	0.360800	0.139400
C2161	C216	0.326400	0.165300	0.839900
C2171	C217	0.281200	0.118900	0.771500
C2181	C218	0.287600	0.070600	0.737200
C2191	C219	0.337500	0.061200	0.769700
C2201	C220	0.380500	0.107800	0.838900
C2211	C221	0.608920	0.438440	0.473700
C2221	C222	0.552240	0.425630	0.487470
C2231	C223	0.564760	0.451060	0.552040
C2241	C224	0.747700	0.512100	0.432000
C2251	C225	0.721400	0.496800	0.360600
C2261	C226	0.825400	0.486500	0.660100
C2271	C227	0.847400	0.509700	0.728500
C2281	C228	0.833400	0.550400	0.762800
C2291	C229	0.791500	0.567800	0.730300
C2301	C230	0.768900	0.541600	0.661100
C2311	C231	0.891080	0.364780	0.829520
C2321	C232	0.947760	0.435230	0.873390
C2331	C233	0.935240	0.487280	0.886300
C2341	C234	0.752300	0.184300	0.764400
C2351	C235	0.778600	0.139200	0.775400
C2361	C236	0.674600	0.334700	0.661100
C2371	C237	0.652600	0.381100	0.662300
C2381	C238	0.666600	0.429400	0.717000
C2391	C239	0.708500	0.438800	0.776300
C2401	C240	0.731100	0.392200	0.772700
N11	N1	0.127440	0.341850	0.624690
N21	N2	0.217160	0.502750	0.875310
N31	N3	0.282840	0.158150	0.285590
N41	N4	0.372560	0.997250	0.214410
N51	N5	0.785590	0.282840	0.658150
N61	N6	0.714410	0.372560	0.497250
N71	N7	0.124690	0.127440	0.841850
N81	N8	0.375310	0.217160	0.002750
N91	N9	0.502750	0.375310	0.717160
N101	N10	0.341850	0.124690	0.627440
N111	N11	0.997250	0.714410	0.872560
N121	N12	0.158150	0.785590	0.782840
N131	N13	0.158150	0.372560	0.875310
N141	N14	0.997250	0.282840	0.624690
N151	N15	0.341850	0.217160	0.214410
N161	N16	0.502750	0.127440	0.285590
N171	N17	0.217160	0.714410	0.841850
N181	N18	0.127440	0.785590	0.002750
N191	N19	0.372560	0.375310	0.658150
N201	N20	0.282840	0.124690	0.497250
N211	N21	0.124690	0.997250	0.782840
N221	N22	0.375310	0.158150	0.872560
N231	N23	0.785590	0.502750	0.627440
N241	N24	0.714410	0.341850	0.717160
O11	O1	0.022620	0.358390	0.558430
O21	O2	0.916110	0.319090	0.493560
O31	O3	0.929540	0.215790	0.480430
O41	O4	0.833500	0.179400	0.355900
O51	O5	0.299960	0.464190	0.941570
O61	O6	0.325530	0.422550	0.006440
O71	O7	0.235360	0.449110	0.019570
O81	O8	0.323500	0.477600	0.144100
O91	O9	0.200040	0.141610	0.164230
O101	O10	0.174470	0.180910	0.097020
O111	O11	0.264640	0.284210	0.213750
O121	O12	0.176500	0.320600	0.154100
O131	O13	0.477380	0.035810	0.335770
O141	O14	0.583890	0.077450	0.402980
O151	O15	0.570460	0.050890	0.286250
O161	O16	0.666500	0.022400	0.345900
O171	O17	0.664230	0.200040	0.641610
O181	O18	0.597020	0.174470	0.680910
O191	O19	0.713750	0.264640	0.784210
O201	O20	0.654100	0.176500	0.820600
O211	O21	0.835770	0.477380	0.535810
O221	O22	0.902980	0.583890	0.577450
O231	O23	0.786250	0.570460	0.550890
O241	O24	0.845900	0.666500	0.522400
O251	O25	0.058430	0.022620	0.858390
O261	O26	0.993560	0.916110	0.819090
O271	O27	0.980430	0.929540	0.715790
O281	O28	0.855900	0.833500	0.679400
O291	O29	0.441570	0.299960	0.964190
O301	O30	0.506440	0.325530	0.922550
O311	O31	0.519570	0.235360	0.949110
O321	O32	0.644100	0.323500	0.977600
O331	O33	0.464190	0.441570	0.799960
O341	O34	0.422550	0.506440	0.825530
O351	O35	0.449110	0.519570	0.735360
O361	O36	0.477600	0.644100	0.823500
O371	O37	0.358390	0.058430	0.522620
O381	O38	0.319090	0.993560	0.416110
O391	O39	0.215790	0.980430	0.429540
O401	O40	0.179400	0.855900	0.333500
O411	O41	0.035810	0.835770	0.977380
O421	O42	0.077450	0.902980	0.083890
O431	O43	0.050890	0.786250	0.070460
O441	O44	0.022400	0.845900	0.166500
O451	O45	0.141610	0.664230	0.700040
O461	O46	0.180910	0.597020	0.674470
O471	O47	0.284210	0.713750	0.764640
O481	O48	0.320600	0.654100	0.676500
O491	O49	0.141610	0.477380	0.941570
O501	O50	0.180910	0.583890	0.006440
O511	O51	0.284210	0.570460	0.019570
O521	O52	0.320600	0.666500	0.144100
O531	O53	0.035810	0.200040	0.558430
O541	O54	0.077450	0.174470	0.493560
O551	O55	0.050890	0.264640	0.480430
O561	O56	0.022400	0.176500	0.355900
O571	O57	0.358390	0.299960	0.335770
O581	O58	0.319090	0.325530	0.402980
O591	O59	0.215790	0.235360	0.286250
O601	O60	0.179400	0.323500	0.345900
O611	O61	0.464190	0.022620	0.164230
O621	O62	0.422550	0.916110	0.097020
O631	O63	0.449110	0.929540	0.213750
O641	O64	0.477600	0.833500	0.154100
O651	O65	0.299960	0.835770	0.858390
O661	O66	0.325530	0.902980	0.819090
O671	O67	0.235360	0.786250	0.715790
O681	O68	0.323500	0.845900	0.679400
O691	O69	0.022620	0.664230	0.964190
O701	O70	0.916110	0.597020	0.922550
O711	O71	0.929540	0.713750	0.949110
O721	O72	0.833500	0.654100	0.977600
O731	O73	0.477380	0.441570	0.641610
O741	O74	0.583890	0.506440	0.680910
O751	O75	0.570460	0.519570	0.784210
O761	O76	0.666500	0.644100	0.820600
O771	O77	0.200040	0.058430	0.535810
O781	O78	0.174470	0.993560	0.577450
O791	O79	0.264640	0.980430	0.550890
O801	O80	0.176500	0.855900	0.522400
O811	O81	0.058430	0.035810	0.700040
O821	O82	0.993560	0.077450	0.674470
O831	O83	0.980430	0.050890	0.764640
O841	O84	0.855900	0.022400	0.676500
O851	O85	0.441570	0.141610	0.977380
O861	O86	0.506440	0.180910	0.083890
O871	O87	0.519570	0.284210	0.070460
O881	O88	0.644100	0.320600	0.166500
O891	O89	0.664230	0.464190	0.522620
O901	O90	0.597020	0.422550	0.416110
O911	O91	0.713750	0.449110	0.429540
O921	O92	0.654100	0.477600	0.333500
O931	O93	0.835770	0.358390	0.799960
O941	O94	0.902980	0.319090	0.825530
O951	O95	0.786250	0.215790	0.735360
O961	O96	0.845900	0.179400	0.823500
