data_HUZFEO_freeONLY_PM
_symmetry_space_group_name_H-M	'P1'
_cell_length_a	8.296900
_cell_length_b	21.756000
_cell_length_c	13.781000
_cell_angle_alpha	90.000000
_cell_angle_beta	103.690000
_cell_angle_gamma	90.000000
_symmetry_Int_Tables_number 1

loop_
_symmetry_equiv_pos_as_xyz
'x,y,z'

loop_
_atom_site_label
_atom_site_type_symbol
_atom_site_fract_x
_atom_site_fract_y
_atom_site_fract_z
C11	C1	0.364800	0.105100	0.137100
H11	H1	0.430400	0.134800	0.116900
C21	C2	0.242400	0.020600	0.151200
H21	H2	0.206900	0.980000	0.141800
C31	C3	0.197300	0.060100	0.214700
H31	H3	0.127000	0.052100	0.256700
C41	C4	0.266200	0.170300	0.259500
C51	C5	0.118800	0.187500	0.280100
H41	H4	0.023800	0.164200	0.255900
C61	C6	0.406100	0.205700	0.293000
H51	H5	0.506000	0.193900	0.279100
C71	C7	0.268400	0.006300	0.763500
H61	H6	0.331200	0.974700	0.745700
C81	C8	0.180700	0.075300	0.847600
H71	H7	0.170600	0.100800	0.900000
C91	C9	0.080800	0.077000	0.753900
H81	H8	0.991900	0.103400	0.730800
C101	C10	0.067500	0.015600	0.598600
C111	C11	0.982500	0.058900	0.533100
H91	H9	0.970500	0.098700	0.555200
C121	C12	0.085500	0.956800	0.566000
H101	H10	0.143100	0.927600	0.610200
C131	C13	0.118100	0.366500	0.424700
H111	H11	0.017000	0.362600	0.378400
C141	C14	0.312200	0.399500	0.542000
H121	H12	0.371600	0.423700	0.594000
C151	C15	0.372700	0.348700	0.506700
H131	H13	0.477800	0.331700	0.528700
C161	C16	0.251000	0.274500	0.370200
C171	C17	0.110800	0.239700	0.337000
H141	H14	0.011600	0.250900	0.352500
C181	C18	0.398700	0.258500	0.347200
H151	H15	0.492200	0.283100	0.368100
N11	N1	0.348500	0.048570	0.101800
N21	N2	0.276200	0.114900	0.205300
N31	N3	0.297800	0.030780	0.853300
N41	N4	0.136900	0.032170	0.700300
N51	N5	0.152200	0.410780	0.491200
N61	N6	0.245400	0.327700	0.431100
C191	C19	0.135200	0.605100	0.362900
H161	H16	0.069600	0.634800	0.383100
C201	C20	0.257600	0.520600	0.348800
H171	H17	0.293100	0.480000	0.358200
C211	C21	0.302700	0.560100	0.285300
H181	H18	0.373000	0.552100	0.243300
C221	C22	0.233800	0.670300	0.240500
C231	C23	0.381200	0.687500	0.219900
H191	H19	0.476200	0.664200	0.244100
C241	C24	0.093900	0.705700	0.207000
H201	H20	0.994000	0.693900	0.220900
C251	C25	0.231600	0.506300	0.736500
H211	H21	0.168800	0.474700	0.754300
C261	C26	0.319300	0.575300	0.652400
H221	H22	0.329400	0.600800	0.600000
C271	C27	0.419200	0.577000	0.746100
H231	H23	0.508100	0.603400	0.769200
C281	C28	0.432500	0.515600	0.901400
C291	C29	0.517500	0.558900	0.966900
H241	H24	0.529500	0.598700	0.944800
C301	C30	0.414500	0.456800	0.934000
H251	H25	0.356900	0.427600	0.889800
C311	C31	0.381900	0.866500	0.075300
H261	H26	0.483000	0.862600	0.121600
C321	C32	0.187800	0.899500	0.958000
H271	H27	0.128400	0.923700	0.906000
C331	C33	0.127300	0.848700	0.993300
H281	H28	0.022200	0.831700	0.971300
C341	C34	0.249000	0.774500	0.129800
C351	C35	0.389200	0.739700	0.163000
H291	H29	0.488400	0.750900	0.147500
C361	C36	0.101300	0.758500	0.152800
H301	H30	0.007800	0.783100	0.131900
N71	N7	0.151500	0.548570	0.398200
N81	N8	0.223800	0.614900	0.294700
N91	N9	0.202200	0.530780	0.646700
N101	N10	0.363100	0.532170	0.799700
N111	N11	0.347800	0.910780	0.008800
N121	N12	0.254600	0.827700	0.068900
C371	C37	0.635200	0.894900	0.862900
H311	H31	0.569600	0.865200	0.883100
C381	C38	0.757600	0.979400	0.848800
H321	H32	0.793100	0.020000	0.858200
C391	C39	0.802700	0.939900	0.785300
H331	H33	0.873000	0.947900	0.743300
C401	C40	0.733800	0.829700	0.740500
C411	C41	0.881200	0.812500	0.719900
H341	H34	0.976200	0.835800	0.744100
C421	C42	0.593900	0.794300	0.707000
H351	H35	0.494000	0.806100	0.720900
C431	C43	0.731600	0.993700	0.236500
H361	H36	0.668800	0.025300	0.254300
C441	C44	0.819300	0.924700	0.152400
H371	H37	0.829400	0.899200	0.100000
C451	C45	0.919200	0.923000	0.246100
H381	H38	0.008100	0.896600	0.269200
C461	C46	0.932500	0.984400	0.401400
C471	C47	0.017500	0.941100	0.466900
H391	H39	0.029500	0.901300	0.444800
C481	C48	0.914500	0.043200	0.434000
H401	H40	0.856900	0.072400	0.389800
C491	C49	0.881900	0.633500	0.575300
H411	H41	0.983000	0.637400	0.621600
C501	C50	0.687800	0.600500	0.458000
H421	H42	0.628400	0.576300	0.406000
C511	C51	0.627300	0.651300	0.493300
H431	H43	0.522200	0.668300	0.471300
C521	C52	0.749000	0.725500	0.629800
C531	C53	0.889200	0.760300	0.663000
H441	H44	0.988400	0.749100	0.647500
C541	C54	0.601300	0.741500	0.652800
H451	H45	0.507800	0.716900	0.631900
N131	N13	0.651500	0.951430	0.898200
N141	N14	0.723800	0.885100	0.794700
N151	N15	0.702200	0.969220	0.146700
N161	N16	0.863100	0.967830	0.299700
N171	N17	0.847800	0.589220	0.508800
N181	N18	0.754600	0.672300	0.568900
C551	C55	0.864800	0.394900	0.637100
H461	H46	0.930400	0.365200	0.616900
C561	C56	0.742400	0.479400	0.651200
H471	H47	0.706900	0.520000	0.641800
C571	C57	0.697300	0.439900	0.714700
H481	H48	0.627000	0.447900	0.756700
C581	C58	0.766200	0.329700	0.759500
C591	C59	0.618800	0.312500	0.780100
H491	H49	0.523800	0.335800	0.755900
C601	C60	0.906100	0.294300	0.793000
H501	H50	0.006000	0.306100	0.779100
C611	C61	0.768400	0.493700	0.263500
H511	H51	0.831200	0.525300	0.245700
C621	C62	0.680700	0.424700	0.347600
H521	H52	0.670600	0.399200	0.400000
C631	C63	0.580800	0.423000	0.253900
H531	H53	0.491900	0.396600	0.230800
C641	C64	0.567500	0.484400	0.098600
C651	C65	0.482500	0.441100	0.033100
H541	H54	0.470500	0.401300	0.055200
C661	C66	0.585500	0.543200	0.066000
H551	H55	0.643100	0.572400	0.110200
C671	C67	0.618100	0.133500	0.924700
H561	H56	0.517000	0.137400	0.878400
C681	C68	0.812200	0.100500	0.042000
H571	H57	0.871600	0.076300	0.094000
C691	C69	0.872700	0.151300	0.006700
H581	H58	0.977800	0.168300	0.028700
C701	C70	0.751000	0.225500	0.870200
C711	C71	0.610800	0.260300	0.837000
H591	H59	0.511600	0.249100	0.852500
C721	C72	0.898700	0.241500	0.847200
H601	H60	0.992200	0.216900	0.868100
N191	N19	0.848500	0.451430	0.601800
N201	N20	0.776200	0.385100	0.705300
N211	N21	0.797800	0.469220	0.353300
N221	N22	0.636900	0.467830	0.200300
N231	N23	0.652200	0.089220	0.991200
N241	N24	0.745400	0.172300	0.931100
Cd11	Cd1	0.500000	0.000000	0.000000
Cd21	Cd2	0.000000	0.500000	0.500000
