data_HUZFOY_charged_PM
_symmetry_space_group_name_H-M	'P1'
_cell_length_a	13.979300
_cell_length_b	13.979300
_cell_length_c	13.979300
_cell_angle_alpha	100.816000
_cell_angle_beta	100.816000
_cell_angle_gamma	100.816000
_symmetry_Int_Tables_number 1

loop_
_symmetry_equiv_pos_as_xyz
'x,y,z'

loop_
_atom_site_label
_atom_site_type_symbol
_atom_site_fract_x
_atom_site_fract_y
_atom_site_fract_z
Cd11	Cd1	0.000000	0.000000	0.000000
H11	H1	0.776400	0.824800	0.935300
H21	H2	0.872300	0.171600	0.096500
H31	H3	0.774200	0.242600	0.193200
H41	H4	0.633000	0.145300	0.219900
H51	H5	0.582400	0.978600	0.149500
H61	H6	0.589600	0.735500	0.868200
H71	H7	0.470600	0.596100	0.860200
H81	H8	0.490700	0.678600	0.152100
H91	H9	0.616000	0.814300	0.165600
H101	H10	0.935300	0.776400	0.824800
H111	H11	0.096500	0.872300	0.171600
H121	H12	0.193200	0.774200	0.242600
H131	H13	0.219900	0.633000	0.145300
H141	H14	0.149500	0.582400	0.978600
H151	H15	0.868200	0.589600	0.735500
H161	H16	0.860200	0.470600	0.596100
H171	H17	0.152100	0.490700	0.678600
H181	H18	0.165600	0.616000	0.814300
H191	H19	0.824800	0.935300	0.776400
H201	H20	0.171600	0.096500	0.872300
H211	H21	0.242600	0.193200	0.774200
H221	H22	0.145300	0.219900	0.633000
H231	H23	0.978600	0.149500	0.582400
H241	H24	0.735500	0.868200	0.589600
H251	H25	0.596100	0.860200	0.470600
H261	H26	0.678600	0.152100	0.490700
H271	H27	0.814300	0.165600	0.616000
H281	H28	0.175200	0.223600	0.064700
H291	H29	0.828400	0.127700	0.903500
H301	H30	0.757400	0.225800	0.806800
H311	H31	0.854700	0.367000	0.780100
H321	H32	0.021400	0.417600	0.850500
H331	H33	0.264500	0.410400	0.131800
H341	H34	0.403900	0.529400	0.139800
H351	H35	0.321400	0.509300	0.847900
H361	H36	0.185700	0.384000	0.834400
H371	H37	0.223600	0.064700	0.175200
H381	H38	0.127700	0.903500	0.828400
H391	H39	0.225800	0.806800	0.757400
H401	H40	0.367000	0.780100	0.854700
H411	H41	0.417600	0.850500	0.021400
H421	H42	0.410400	0.131800	0.264500
H431	H43	0.529400	0.139800	0.403900
H441	H44	0.509300	0.847900	0.321400
H451	H45	0.384000	0.834400	0.185700
H461	H46	0.064700	0.175200	0.223600
H471	H47	0.903500	0.828400	0.127700
H481	H48	0.806800	0.757400	0.225800
H491	H49	0.780100	0.854700	0.367000
H501	H50	0.850500	0.021400	0.417600
H511	H51	0.131800	0.264500	0.410400
H521	H52	0.139800	0.403900	0.529400
H531	H53	0.847900	0.321400	0.509300
H541	H54	0.834400	0.185700	0.384000
C11	C1	0.766800	0.880400	0.977500
C21	C2	0.783000	0.030900	0.060400
C31	C3	0.814300	0.132800	0.105400
C41	C4	0.756100	0.174500	0.163900
C51	C5	0.670000	0.115300	0.179600
C61	C6	0.639800	0.016700	0.138600
C71	C7	0.697500	0.972600	0.078500
C81	C8	0.614300	0.791700	0.018300
C91	C9	0.570000	0.724100	0.925900
C101	C10	0.497500	0.641500	0.921400
C111	C11	0.462500	0.622600	0.003200
C121	C12	0.510500	0.690200	0.094600
C131	C13	0.585200	0.772100	0.103300
C141	C14	0.977500	0.766800	0.880400
C151	C15	0.060400	0.783000	0.030900
C161	C16	0.105400	0.814300	0.132800
C171	C17	0.163900	0.756100	0.174500
C181	C18	0.179600	0.670000	0.115300
C191	C19	0.138600	0.639800	0.016700
C201	C20	0.078500	0.697500	0.972600
C211	C21	0.018300	0.614300	0.791700
C221	C22	0.925900	0.570000	0.724100
C231	C23	0.921400	0.497500	0.641500
C241	C24	0.003200	0.462500	0.622600
C251	C25	0.094600	0.510500	0.690200
C261	C26	0.103300	0.585200	0.772100
C271	C27	0.880400	0.977500	0.766800
C281	C28	0.030900	0.060400	0.783000
C291	C29	0.132800	0.105400	0.814300
C301	C30	0.174500	0.163900	0.756100
C311	C31	0.115300	0.179600	0.670000
C321	C32	0.016700	0.138600	0.639800
C331	C33	0.972600	0.078500	0.697500
C341	C34	0.791700	0.018300	0.614300
C351	C35	0.724100	0.925900	0.570000
C361	C36	0.641500	0.921400	0.497500
C371	C37	0.622600	0.003200	0.462500
C381	C38	0.690200	0.094600	0.510500
C391	C39	0.772100	0.103300	0.585200
C401	C40	0.119600	0.233200	0.022500
C411	C41	0.969100	0.217000	0.939600
C421	C42	0.867200	0.185700	0.894600
C431	C43	0.825500	0.243900	0.836100
C441	C44	0.884700	0.330000	0.820400
C451	C45	0.983300	0.360200	0.861400
C461	C46	0.027400	0.302500	0.921500
C471	C47	0.208300	0.385700	0.981700
C481	C48	0.275900	0.430000	0.074100
C491	C49	0.358500	0.502500	0.078600
C501	C50	0.377400	0.537500	0.996800
C511	C51	0.309800	0.489500	0.905400
C521	C52	0.227900	0.414800	0.896700
C531	C53	0.233200	0.022500	0.119600
C541	C54	0.217000	0.939600	0.969100
C551	C55	0.185700	0.894600	0.867200
C561	C56	0.243900	0.836100	0.825500
C571	C57	0.330000	0.820400	0.884700
C581	C58	0.360200	0.861400	0.983300
C591	C59	0.302500	0.921500	0.027400
C601	C60	0.385700	0.981700	0.208300
C611	C61	0.430000	0.074100	0.275900
C621	C62	0.502500	0.078600	0.358500
C631	C63	0.537500	0.996800	0.377400
C641	C64	0.489500	0.905400	0.309800
C651	C65	0.414800	0.896700	0.227900
C661	C66	0.022500	0.119600	0.233200
C671	C67	0.939600	0.969100	0.217000
C681	C68	0.894600	0.867200	0.185700
C691	C69	0.836100	0.825500	0.243900
C701	C70	0.820400	0.884700	0.330000
C711	C71	0.861400	0.983300	0.360200
C721	C72	0.921500	0.027400	0.302500
C731	C73	0.981700	0.208300	0.385700
C741	C74	0.074100	0.275900	0.430000
C751	C75	0.078600	0.358500	0.502500
C761	C76	0.996800	0.377400	0.537500
C771	C77	0.905400	0.309800	0.489500
C781	C78	0.896700	0.227900	0.414800
N11	N1	0.825900	0.971300	0.998500
N21	N2	0.689200	0.878200	0.025800
N31	N3	0.998500	0.825900	0.971300
N41	N4	0.025800	0.689200	0.878200
N51	N5	0.971300	0.998500	0.825900
N61	N6	0.878200	0.025800	0.689200
N71	N7	0.028700	0.174100	0.001500
N81	N8	0.121800	0.310800	0.974200
N91	N9	0.174100	0.001500	0.028700
N101	N10	0.310800	0.974200	0.121800
N111	N11	0.001500	0.028700	0.174100
N121	N12	0.974200	0.121800	0.310800
Cl11	Cl1	0.702800	0.702800	0.702800
O11	O1	0.668400	0.789100	0.742400
O21	O2	0.742400	0.668400	0.789100
O31	O3	0.789100	0.742400	0.668400
O41	O4	0.627600	0.627600	0.627600
Cl21	Cl2	0.297200	0.297200	0.297200
O51	O5	0.210900	0.331600	0.257600
O61	O6	0.331600	0.257600	0.210900
O71	O7	0.257600	0.210900	0.331600
O81	O8	0.372400	0.372400	0.372400
