data_IBABOF_freeONLY_PM
_symmetry_space_group_name_H-M	'P1'
_cell_length_a	17.969700
_cell_length_b	21.840500
_cell_length_c	12.666600
_cell_angle_alpha	90.000000
_cell_angle_beta	90.000000
_cell_angle_gamma	90.000000
_symmetry_Int_Tables_number 1

loop_
_symmetry_equiv_pos_as_xyz
'x,y,z'

loop_
_atom_site_label
_atom_site_type_symbol
_atom_site_fract_x
_atom_site_fract_y
_atom_site_fract_z
Co11	Co1	0.337300	0.729670	0.034280
Co21	Co2	0.174180	0.721650	0.026270
S11	S1	0.250650	0.605700	0.391880
S21	S2	0.207250	0.840570	0.677290
N11	N1	0.443000	0.760300	0.052600
N21	N2	0.561600	0.792000	0.041500
N31	N3	0.459800	0.799500	0.137600
N41	N4	0.513000	0.731100	0.902700
N51	N5	0.564500	0.852900	0.198000
O11	O1	0.213400	0.309100	0.500900
O21	O2	0.175000	0.140400	0.572000
O31	O3	0.344500	0.704100	0.877900
O41	O4	0.315800	0.752400	0.194700
O51	O5	0.220900	0.694800	0.892200
O61	O6	0.191600	0.749200	0.174300
O71	O7	0.335900	0.310000	0.473400
O81	O8	0.298200	0.133100	0.583000
O91	O9	0.177300	0.620200	0.355600
O101	O10	0.313300	0.624900	0.331100
O111	O11	0.131800	0.827100	0.711000
O121	O12	0.268500	0.820600	0.740600
C11	C1	0.281100	0.693100	0.840900
C21	C2	0.274400	0.673000	0.727500
C31	C3	0.205000	0.667300	0.681700
H11	H1	0.162700	0.676700	0.720800
C41	C4	0.197600	0.647900	0.579100
H21	H2	0.150800	0.643700	0.548800
C51	C5	0.260700	0.634800	0.521600
C61	C6	0.331400	0.640800	0.565600
H31	H3	0.373700	0.631600	0.526400
C71	C7	0.337300	0.660800	0.668700
H41	H4	0.384000	0.666000	0.698900
C81	C8	0.257200	0.525100	0.411500
C91	C9	0.193100	0.493600	0.437600
H51	H5	0.147600	0.513600	0.442800
C101	C10	0.198700	0.431000	0.455800
H61	H6	0.156200	0.408500	0.471800
C111	C11	0.266400	0.402100	0.450500
C121	C12	0.330700	0.435400	0.424100
H71	H7	0.376500	0.415600	0.419500
C131	C13	0.325800	0.497700	0.405000
H81	H8	0.368000	0.520400	0.388200
C141	C14	0.272500	0.335400	0.476000
C151	C15	0.250000	0.757300	0.227300
C161	C16	0.238500	0.775600	0.341500
C171	C17	0.299000	0.782800	0.406900
H91	H9	0.346900	0.776400	0.381200
C181	C18	0.288000	0.799900	0.512200
H101	H10	0.328400	0.803200	0.557800
C191	C19	0.218600	0.811500	0.547200
C201	C20	0.156800	0.803900	0.483400
H111	H11	0.109100	0.810900	0.509400
C211	C21	0.167400	0.785500	0.379800
H121	H12	0.126600	0.779800	0.335800
C221	C22	0.215100	0.920300	0.658200
C231	C23	0.283800	0.948400	0.666400
H131	H13	0.325400	0.925900	0.686200
C241	C24	0.290100	0.010500	0.645000
H141	H14	0.336300	0.029700	0.649700
C251	C25	0.227700	0.044100	0.616600
C261	C26	0.159400	0.015600	0.610700
H151	H15	0.117400	0.038300	0.592800
C271	C27	0.152500	0.953700	0.631000
H161	H16	0.106300	0.934600	0.626400
C281	C28	0.234500	0.111400	0.588900
C291	C29	0.505800	0.759200	0.997900
C301	C30	0.530600	0.816200	0.130000
H171	H17	0.562000	0.719000	0.886000
H181	H18	0.474000	0.711000	0.896000
H191	H19	0.549000	0.862000	0.265000
H201	H20	0.611600	0.857000	0.199000
Co31	Co3	0.662700	0.270330	0.534280
Co41	Co4	0.825820	0.278350	0.526270
S31	S3	0.749350	0.394300	0.891880
S41	S4	0.792750	0.159430	0.177290
N61	N6	0.557000	0.239700	0.552600
N71	N7	0.438400	0.208000	0.541500
N81	N8	0.540200	0.200500	0.637600
N91	N9	0.487000	0.268900	0.402700
N101	N10	0.435500	0.147100	0.698000
O131	O13	0.786600	0.690900	0.000900
O141	O14	0.825000	0.859600	0.072000
O151	O15	0.655500	0.295900	0.377900
O161	O16	0.684200	0.247600	0.694700
O171	O17	0.779100	0.305200	0.392200
O181	O18	0.808400	0.250800	0.674300
O191	O19	0.664100	0.690000	0.973400
O201	O20	0.701800	0.866900	0.083000
O211	O21	0.822700	0.379800	0.855600
O221	O22	0.686700	0.375100	0.831100
O231	O23	0.868200	0.172900	0.211000
O241	O24	0.731500	0.179400	0.240600
C311	C31	0.718900	0.306900	0.340900
C321	C32	0.725600	0.327000	0.227500
C331	C33	0.795000	0.332700	0.181700
H211	H21	0.837300	0.323300	0.220800
C341	C34	0.802400	0.352100	0.079100
H221	H22	0.849200	0.356300	0.048800
C351	C35	0.739300	0.365200	0.021600
C361	C36	0.668600	0.359200	0.065600
H231	H23	0.626300	0.368400	0.026400
C371	C37	0.662700	0.339200	0.168700
H241	H24	0.616000	0.334000	0.198900
C381	C38	0.742800	0.474900	0.911500
C391	C39	0.806900	0.506400	0.937600
H251	H25	0.852400	0.486400	0.942800
C401	C40	0.801300	0.569000	0.955800
H261	H26	0.843800	0.591500	0.971800
C411	C41	0.733600	0.597900	0.950500
C421	C42	0.669300	0.564600	0.924100
H271	H27	0.623500	0.584400	0.919500
C431	C43	0.674200	0.502300	0.905000
H281	H28	0.632000	0.479600	0.888200
C441	C44	0.727500	0.664600	0.976000
C451	C45	0.750000	0.242700	0.727300
C461	C46	0.761500	0.224400	0.841500
C471	C47	0.701000	0.217200	0.906900
H291	H29	0.653100	0.223600	0.881200
C481	C48	0.712000	0.200100	0.012200
H301	H30	0.671600	0.196800	0.057800
C491	C49	0.781400	0.188500	0.047200
C501	C50	0.843200	0.196100	0.983400
H311	H31	0.890900	0.189100	0.009400
C511	C51	0.832600	0.214500	0.879800
H321	H32	0.873400	0.220200	0.835800
C521	C52	0.784900	0.079700	0.158200
C531	C53	0.716200	0.051600	0.166400
H331	H33	0.674600	0.074100	0.186200
C541	C54	0.709900	0.989500	0.145000
H341	H34	0.663700	0.970300	0.149700
C551	C55	0.772300	0.955900	0.116600
C561	C56	0.840600	0.984400	0.110700
H351	H35	0.882600	0.961700	0.092800
C571	C57	0.847500	0.046300	0.131000
H361	H36	0.893700	0.065400	0.126400
C581	C58	0.765500	0.888600	0.088900
C591	C59	0.494200	0.240800	0.497900
C601	C60	0.469400	0.183800	0.630000
H371	H37	0.438000	0.281000	0.386000
H381	H38	0.526000	0.289000	0.396000
H391	H39	0.451000	0.138000	0.765000
H401	H40	0.388400	0.143000	0.699000
Co51	Co5	0.837300	0.770330	0.034280
Co61	Co6	0.674180	0.778350	0.026270
S51	S5	0.750650	0.894300	0.391880
S61	S6	0.707250	0.659430	0.677290
N111	N11	0.943000	0.739700	0.052600
N121	N12	0.061600	0.708000	0.041500
N131	N13	0.959800	0.700500	0.137600
N141	N14	0.013000	0.768900	0.902700
N151	N15	0.064500	0.647100	0.198000
O251	O25	0.713400	0.190900	0.500900
O261	O26	0.675000	0.359600	0.572000
O271	O27	0.844500	0.795900	0.877900
O281	O28	0.815800	0.747600	0.194700
O291	O29	0.720900	0.805200	0.892200
O301	O30	0.691600	0.750800	0.174300
O311	O31	0.835900	0.190000	0.473400
O321	O32	0.798200	0.366900	0.583000
O331	O33	0.677300	0.879800	0.355600
O341	O34	0.813300	0.875100	0.331100
O351	O35	0.631800	0.672900	0.711000
O361	O36	0.768500	0.679400	0.740600
C611	C61	0.781100	0.806900	0.840900
C621	C62	0.774400	0.827000	0.727500
C631	C63	0.705000	0.832700	0.681700
H411	H41	0.662700	0.823300	0.720800
C641	C64	0.697600	0.852100	0.579100
H421	H42	0.650800	0.856300	0.548800
C651	C65	0.760700	0.865200	0.521600
C661	C66	0.831400	0.859200	0.565600
H431	H43	0.873700	0.868400	0.526400
C671	C67	0.837300	0.839200	0.668700
H441	H44	0.884000	0.834000	0.698900
C681	C68	0.757200	0.974900	0.411500
C691	C69	0.693100	0.006400	0.437600
H451	H45	0.647600	0.986400	0.442800
C701	C70	0.698700	0.069000	0.455800
H461	H46	0.656200	0.091500	0.471800
C711	C71	0.766400	0.097900	0.450500
C721	C72	0.830700	0.064600	0.424100
H471	H47	0.876500	0.084400	0.419500
C731	C73	0.825800	0.002300	0.405000
H481	H48	0.868000	0.979600	0.388200
C741	C74	0.772500	0.164600	0.476000
C751	C75	0.750000	0.742700	0.227300
C761	C76	0.738500	0.724400	0.341500
C771	C77	0.799000	0.717200	0.406900
H491	H49	0.846900	0.723600	0.381200
C781	C78	0.788000	0.700100	0.512200
H501	H50	0.828400	0.696800	0.557800
C791	C79	0.718600	0.688500	0.547200
C801	C80	0.656800	0.696100	0.483400
H511	H51	0.609100	0.689100	0.509400
C811	C81	0.667400	0.714500	0.379800
H521	H52	0.626600	0.720200	0.335800
C821	C82	0.715100	0.579700	0.658200
C831	C83	0.783800	0.551600	0.666400
H531	H53	0.825400	0.574100	0.686200
C841	C84	0.790100	0.489500	0.645000
H541	H54	0.836300	0.470300	0.649700
C851	C85	0.727700	0.455900	0.616600
C861	C86	0.659400	0.484400	0.610700
H551	H55	0.617400	0.461700	0.592800
C871	C87	0.652500	0.546300	0.631000
H561	H56	0.606300	0.565400	0.626400
C881	C88	0.734500	0.388600	0.588900
C891	C89	0.005800	0.740800	0.997900
C901	C90	0.030600	0.683800	0.130000
H571	H57	0.062000	0.781000	0.886000
H581	H58	0.974000	0.789000	0.896000
H591	H59	0.049000	0.638000	0.265000
H601	H60	0.111600	0.643000	0.199000
Co71	Co7	0.162700	0.229670	0.534280
Co81	Co8	0.325820	0.221650	0.526270
S71	S7	0.249350	0.105700	0.891880
S81	S8	0.292750	0.340570	0.177290
N161	N16	0.057000	0.260300	0.552600
N171	N17	0.938400	0.292000	0.541500
N181	N18	0.040200	0.299500	0.637600
N191	N19	0.987000	0.231100	0.402700
N201	N20	0.935500	0.352900	0.698000
O371	O37	0.286600	0.809100	0.000900
O381	O38	0.325000	0.640400	0.072000
O391	O39	0.155500	0.204100	0.377900
O401	O40	0.184200	0.252400	0.694700
O411	O41	0.279100	0.194800	0.392200
O421	O42	0.308400	0.249200	0.674300
O431	O43	0.164100	0.810000	0.973400
O441	O44	0.201800	0.633100	0.083000
O451	O45	0.322700	0.120200	0.855600
O461	O46	0.186700	0.124900	0.831100
O471	O47	0.368200	0.327100	0.211000
O481	O48	0.231500	0.320600	0.240600
C911	C91	0.218900	0.193100	0.340900
C921	C92	0.225600	0.173000	0.227500
C931	C93	0.295000	0.167300	0.181700
H611	H61	0.337300	0.176700	0.220800
C941	C94	0.302400	0.147900	0.079100
H621	H62	0.349200	0.143700	0.048800
C951	C95	0.239300	0.134800	0.021600
C961	C96	0.168600	0.140800	0.065600
H631	H63	0.126300	0.131600	0.026400
C971	C97	0.162700	0.160800	0.168700
H641	H64	0.116000	0.166000	0.198900
C981	C98	0.242800	0.025100	0.911500
C991	C99	0.306900	0.993600	0.937600
H651	H65	0.352400	0.013600	0.942800
C1001	C100	0.301300	0.931000	0.955800
H661	H66	0.343800	0.908500	0.971800
C1011	C101	0.233600	0.902100	0.950500
C1021	C102	0.169300	0.935400	0.924100
H671	H67	0.123500	0.915600	0.919500
C1031	C103	0.174200	0.997700	0.905000
H681	H68	0.132000	0.020400	0.888200
C1041	C104	0.227500	0.835400	0.976000
C1051	C105	0.250000	0.257300	0.727300
C1061	C106	0.261500	0.275600	0.841500
C1071	C107	0.201000	0.282800	0.906900
H691	H69	0.153100	0.276400	0.881200
C1081	C108	0.212000	0.299900	0.012200
H701	H70	0.171600	0.303200	0.057800
C1091	C109	0.281400	0.311500	0.047200
C1101	C110	0.343200	0.303900	0.983400
H711	H71	0.390900	0.310900	0.009400
C1111	C111	0.332600	0.285500	0.879800
H721	H72	0.373400	0.279800	0.835800
C1121	C112	0.284900	0.420300	0.158200
C1131	C113	0.216200	0.448400	0.166400
H731	H73	0.174600	0.425900	0.186200
C1141	C114	0.209900	0.510500	0.145000
H741	H74	0.163700	0.529700	0.149700
C1151	C115	0.272300	0.544100	0.116600
C1161	C116	0.340600	0.515600	0.110700
H751	H75	0.382600	0.538300	0.092800
C1171	C117	0.347500	0.453700	0.131000
H761	H76	0.393700	0.434600	0.126400
C1181	C118	0.265500	0.611400	0.088900
C1191	C119	0.994200	0.259200	0.497900
C1201	C120	0.969400	0.316200	0.630000
H771	H77	0.938000	0.219000	0.386000
H781	H78	0.026000	0.211000	0.396000
H791	H79	0.951000	0.362000	0.765000
H801	H80	0.888400	0.357000	0.699000
