data_IBACAS_freeONLY_PM
_symmetry_space_group_name_H-M	'P1'
_cell_length_a	18.015600
_cell_length_b	21.759800
_cell_length_c	12.707000
_cell_angle_alpha	90.000000
_cell_angle_beta	90.000000
_cell_angle_gamma	90.000000
_symmetry_Int_Tables_number 1

loop_
_symmetry_equiv_pos_as_xyz
'x,y,z'

loop_
_atom_site_label
_atom_site_type_symbol
_atom_site_fract_x
_atom_site_fract_y
_atom_site_fract_z
Co11	Co1	0.334850	0.736290	0.038610
Co21	Co2	0.172600	0.726880	0.031510
N11	N1	0.440400	0.766500	0.052400
O11	O1	0.340300	0.709700	0.883300
O21	O2	0.314000	0.761200	0.198600
O31	O3	0.219700	0.313300	0.504600
O41	O4	0.175200	0.148300	0.581500
O51	O5	0.217200	0.700900	0.896000
O61	O6	0.190000	0.751700	0.180900
N21	N2	0.561900	0.791200	0.046400
O71	O7	0.341900	0.316500	0.479500
O81	O8	0.298700	0.137800	0.585200
N31	N3	0.458400	0.805400	0.137400
C11	C1	0.503200	0.761400	0.001700
C21	C2	0.276400	0.698800	0.844400
C31	C3	0.249700	0.763100	0.232900
C41	C4	0.531000	0.817700	0.131000
N41	N4	0.508500	0.729500	0.909900
C51	C5	0.269400	0.679500	0.730900
C61	C6	0.235500	0.782300	0.345100
N51	N5	0.566800	0.853400	0.199600
H11	H1	0.469800	0.712100	0.883800
H21	H2	0.550400	0.726800	0.878000
C71	C7	0.203200	0.663400	0.692000
C81	C8	0.330900	0.674900	0.668500
C91	C9	0.294800	0.798700	0.410200
C101	C10	0.166400	0.782400	0.386200
H31	H3	0.543000	0.869800	0.251100
H41	H4	0.613500	0.859900	0.192300
H51	H5	0.161600	0.664200	0.735200
C111	C11	0.196300	0.645800	0.589600
C121	C12	0.325800	0.656800	0.565000
H61	H6	0.377200	0.684300	0.696500
H71	H7	0.342800	0.796600	0.383700
C131	C13	0.284600	0.817400	0.510600
C141	C14	0.156200	0.801200	0.490200
H81	H8	0.126100	0.770100	0.345700
H91	H9	0.149600	0.636400	0.563100
C151	C15	0.256400	0.641600	0.525300
H101	H10	0.367800	0.654700	0.522700
H111	H11	0.324600	0.829700	0.551800
C161	C16	0.213300	0.817800	0.550400
H121	H12	0.108500	0.802200	0.518100
S11	S1	0.247600	0.612120	0.397800
S21	S2	0.199900	0.846170	0.680400
O91	O9	0.172800	0.623700	0.362400
O101	O10	0.309100	0.634300	0.336900
C171	C17	0.258100	0.531900	0.415600
O111	O11	0.124200	0.832400	0.711500
O121	O12	0.260200	0.826100	0.744900
C181	C18	0.207800	0.926400	0.662400
C191	C19	0.194100	0.498200	0.438600
C201	C20	0.326600	0.504900	0.413100
C211	C21	0.277100	0.955200	0.672600
C221	C22	0.149500	0.960600	0.635400
H131	H13	0.148000	0.517200	0.441300
C231	C23	0.201100	0.434400	0.457700
C241	C24	0.333500	0.442700	0.430400
H141	H14	0.368600	0.528600	0.399700
H151	H15	0.318600	0.932500	0.692600
C251	C25	0.283300	0.015900	0.653100
C261	C26	0.155000	0.024000	0.615000
H161	H16	0.103200	0.941800	0.629900
H171	H17	0.159600	0.410400	0.472100
C271	C27	0.271300	0.408500	0.454600
H181	H18	0.379700	0.423800	0.425800
H191	H19	0.329500	0.034300	0.660600
C281	C28	0.225300	0.051100	0.623300
H201	H20	0.113600	0.047100	0.596600
C291	C29	0.278700	0.341300	0.480200
C301	C30	0.233900	0.117900	0.596100
Co31	Co3	0.665150	0.263710	0.538610
Co41	Co4	0.827400	0.273120	0.531510
N61	N6	0.559600	0.233500	0.552400
O131	O13	0.659700	0.290300	0.383300
O141	O14	0.686000	0.238800	0.698600
O151	O15	0.780300	0.686700	0.004600
O161	O16	0.824800	0.851700	0.081500
O171	O17	0.782800	0.299100	0.396000
O181	O18	0.810000	0.248300	0.680900
N71	N7	0.438100	0.208800	0.546400
O191	O19	0.658100	0.683500	0.979500
O201	O20	0.701300	0.862200	0.085200
N81	N8	0.541600	0.194600	0.637400
C311	C31	0.496800	0.238600	0.501700
C321	C32	0.723600	0.301200	0.344400
C331	C33	0.750300	0.236900	0.732900
C341	C34	0.469000	0.182300	0.631000
N91	N9	0.491500	0.270500	0.409900
C351	C35	0.730600	0.320500	0.230900
C361	C36	0.764500	0.217700	0.845100
N101	N10	0.433200	0.146600	0.699600
H211	H21	0.530200	0.287900	0.383800
H221	H22	0.449600	0.273200	0.378000
C371	C37	0.796800	0.336600	0.192000
C381	C38	0.669100	0.325100	0.168500
C391	C39	0.705200	0.201300	0.910200
C401	C40	0.833600	0.217600	0.886200
H231	H23	0.457000	0.130200	0.751100
H241	H24	0.386500	0.140100	0.692300
H251	H25	0.838400	0.335800	0.235200
C411	C41	0.803700	0.354200	0.089600
C421	C42	0.674200	0.343200	0.065000
H261	H26	0.622800	0.315700	0.196500
H271	H27	0.657200	0.203400	0.883700
C431	C43	0.715400	0.182600	0.010600
C441	C44	0.843800	0.198800	0.990200
H281	H28	0.873900	0.229900	0.845700
H291	H29	0.850400	0.363600	0.063100
C451	C45	0.743600	0.358400	0.025300
H301	H30	0.632200	0.345300	0.022700
H311	H31	0.675400	0.170300	0.051800
C461	C46	0.786700	0.182200	0.050400
H321	H32	0.891500	0.197800	0.018100
S31	S3	0.752400	0.387880	0.897800
S41	S4	0.800100	0.153830	0.180400
O211	O21	0.827200	0.376300	0.862400
O221	O22	0.690900	0.365700	0.836900
C471	C47	0.741900	0.468100	0.915600
O231	O23	0.875800	0.167600	0.211500
O241	O24	0.739800	0.173900	0.244900
C481	C48	0.792200	0.073600	0.162400
C491	C49	0.805900	0.501800	0.938600
C501	C50	0.673400	0.495100	0.913100
C511	C51	0.722900	0.044800	0.172600
C521	C52	0.850500	0.039400	0.135400
H331	H33	0.852000	0.482800	0.941300
C531	C53	0.798900	0.565600	0.957700
C541	C54	0.666500	0.557300	0.930400
H341	H34	0.631400	0.471400	0.899700
H351	H35	0.681400	0.067500	0.192600
C551	C55	0.716700	0.984100	0.153100
C561	C56	0.845000	0.976000	0.115000
H361	H36	0.896800	0.058200	0.129900
H371	H37	0.840400	0.589600	0.972100
C571	C57	0.728700	0.591500	0.954600
H381	H38	0.620300	0.576200	0.925800
H391	H39	0.670500	0.965700	0.160600
C581	C58	0.774700	0.948900	0.123300
H401	H40	0.886400	0.952900	0.096600
C591	C59	0.721300	0.658700	0.980200
C601	C60	0.766100	0.882100	0.096100
Co51	Co5	0.834850	0.763710	0.038610
Co61	Co6	0.672600	0.773120	0.031510
N111	N11	0.940400	0.733500	0.052400
O251	O25	0.840300	0.790300	0.883300
O261	O26	0.814000	0.738800	0.198600
O271	O27	0.719700	0.186700	0.504600
O281	O28	0.675200	0.351700	0.581500
O291	O29	0.717200	0.799100	0.896000
O301	O30	0.690000	0.748300	0.180900
N121	N12	0.061900	0.708800	0.046400
O311	O31	0.841900	0.183500	0.479500
O321	O32	0.798700	0.362200	0.585200
N131	N13	0.958400	0.694600	0.137400
C611	C61	0.003200	0.738600	0.001700
C621	C62	0.776400	0.801200	0.844400
C631	C63	0.749700	0.736900	0.232900
C641	C64	0.031000	0.682300	0.131000
N141	N14	0.008500	0.770500	0.909900
C651	C65	0.769400	0.820500	0.730900
C661	C66	0.735500	0.717700	0.345100
N151	N15	0.066800	0.646600	0.199600
H411	H41	0.969800	0.787900	0.883800
H421	H42	0.050400	0.773200	0.878000
C671	C67	0.703200	0.836600	0.692000
C681	C68	0.830900	0.825100	0.668500
C691	C69	0.794800	0.701300	0.410200
C701	C70	0.666400	0.717600	0.386200
H431	H43	0.043000	0.630200	0.251100
H441	H44	0.113500	0.640100	0.192300
H451	H45	0.661600	0.835800	0.735200
C711	C71	0.696300	0.854200	0.589600
C721	C72	0.825800	0.843200	0.565000
H461	H46	0.877200	0.815700	0.696500
H471	H47	0.842800	0.703400	0.383700
C731	C73	0.784600	0.682600	0.510600
C741	C74	0.656200	0.698800	0.490200
H481	H48	0.626100	0.729900	0.345700
H491	H49	0.649600	0.863600	0.563100
C751	C75	0.756400	0.858400	0.525300
H501	H50	0.867800	0.845300	0.522700
H511	H51	0.824600	0.670300	0.551800
C761	C76	0.713300	0.682200	0.550400
H521	H52	0.608500	0.697800	0.518100
S51	S5	0.747600	0.887880	0.397800
S61	S6	0.699900	0.653830	0.680400
O331	O33	0.672800	0.876300	0.362400
O341	O34	0.809100	0.865700	0.336900
C771	C77	0.758100	0.968100	0.415600
O351	O35	0.624200	0.667600	0.711500
O361	O36	0.760200	0.673900	0.744900
C781	C78	0.707800	0.573600	0.662400
C791	C79	0.694100	0.001800	0.438600
C801	C80	0.826600	0.995100	0.413100
C811	C81	0.777100	0.544800	0.672600
C821	C82	0.649500	0.539400	0.635400
H531	H53	0.648000	0.982800	0.441300
C831	C83	0.701100	0.065600	0.457700
C841	C84	0.833500	0.057300	0.430400
H541	H54	0.868600	0.971400	0.399700
H551	H55	0.818600	0.567500	0.692600
C851	C85	0.783300	0.484100	0.653100
C861	C86	0.655000	0.476000	0.615000
H561	H56	0.603200	0.558200	0.629900
H571	H57	0.659600	0.089600	0.472100
C871	C87	0.771300	0.091500	0.454600
H581	H58	0.879700	0.076200	0.425800
H591	H59	0.829500	0.465700	0.660600
C881	C88	0.725300	0.448900	0.623300
H601	H60	0.613600	0.452900	0.596600
C891	C89	0.778700	0.158700	0.480200
C901	C90	0.733900	0.382100	0.596100
Co71	Co7	0.165150	0.236290	0.538610
Co81	Co8	0.327400	0.226880	0.531510
N161	N16	0.059600	0.266500	0.552400
O371	O37	0.159700	0.209700	0.383300
O381	O38	0.186000	0.261200	0.698600
O391	O39	0.280300	0.813300	0.004600
O401	O40	0.324800	0.648300	0.081500
O411	O41	0.282800	0.200900	0.396000
O421	O42	0.310000	0.251700	0.680900
N171	N17	0.938100	0.291200	0.546400
O431	O43	0.158100	0.816500	0.979500
O441	O44	0.201300	0.637800	0.085200
N181	N18	0.041600	0.305400	0.637400
C911	C91	0.996800	0.261400	0.501700
C921	C92	0.223600	0.198800	0.344400
C931	C93	0.250300	0.263100	0.732900
C941	C94	0.969000	0.317700	0.631000
N191	N19	0.991500	0.229500	0.409900
C951	C95	0.230600	0.179500	0.230900
C961	C96	0.264500	0.282300	0.845100
N201	N20	0.933200	0.353400	0.699600
H611	H61	0.030200	0.212100	0.383800
H621	H62	0.949600	0.226800	0.378000
C971	C97	0.296800	0.163400	0.192000
C981	C98	0.169100	0.174900	0.168500
C991	C99	0.205200	0.298700	0.910200
C1001	C100	0.333600	0.282400	0.886200
H631	H63	0.957000	0.369800	0.751100
H641	H64	0.886500	0.359900	0.692300
H651	H65	0.338400	0.164200	0.235200
C1011	C101	0.303700	0.145800	0.089600
C1021	C102	0.174200	0.156800	0.065000
H661	H66	0.122800	0.184300	0.196500
H671	H67	0.157200	0.296600	0.883700
C1031	C103	0.215400	0.317400	0.010600
C1041	C104	0.343800	0.301200	0.990200
H681	H68	0.373900	0.270100	0.845700
H691	H69	0.350400	0.136400	0.063100
C1051	C105	0.243600	0.141600	0.025300
H701	H70	0.132200	0.154700	0.022700
H711	H71	0.175400	0.329700	0.051800
C1061	C106	0.286700	0.317800	0.050400
H721	H72	0.391500	0.302200	0.018100
S71	S7	0.252400	0.112120	0.897800
S81	S8	0.300100	0.346170	0.180400
O451	O45	0.327200	0.123700	0.862400
O461	O46	0.190900	0.134300	0.836900
C1071	C107	0.241900	0.031900	0.915600
O471	O47	0.375800	0.332400	0.211500
O481	O48	0.239800	0.326100	0.244900
C1081	C108	0.292200	0.426400	0.162400
C1091	C109	0.305900	0.998200	0.938600
C1101	C110	0.173400	0.004900	0.913100
C1111	C111	0.222900	0.455200	0.172600
C1121	C112	0.350500	0.460600	0.135400
H731	H73	0.352000	0.017200	0.941300
C1131	C113	0.298900	0.934400	0.957700
C1141	C114	0.166500	0.942700	0.930400
H741	H74	0.131400	0.028600	0.899700
H751	H75	0.181400	0.432500	0.192600
C1151	C115	0.216700	0.515900	0.153100
C1161	C116	0.345000	0.524000	0.115000
H761	H76	0.396800	0.441800	0.129900
H771	H77	0.340400	0.910400	0.972100
C1171	C117	0.228700	0.908500	0.954600
H781	H78	0.120300	0.923800	0.925800
H791	H79	0.170500	0.534300	0.160600
C1181	C118	0.274700	0.551100	0.123300
H801	H80	0.386400	0.547100	0.096600
C1191	C119	0.221300	0.841300	0.980200
C1201	C120	0.266100	0.617900	0.096100
