data_IBASAH_freeONLY_PM
_symmetry_space_group_name_H-M	'P1'
_cell_length_a	13.388000
_cell_length_b	13.388000
_cell_length_c	14.306000
_cell_angle_alpha	90.000000
_cell_angle_beta	90.000000
_cell_angle_gamma	120.000000
_symmetry_Int_Tables_number 1

loop_
_symmetry_equiv_pos_as_xyz
'x,y,z'

loop_
_atom_site_label
_atom_site_type_symbol
_atom_site_fract_x
_atom_site_fract_y
_atom_site_fract_z
Ho11	Ho1	0.333330	0.666660	0.666910
Ho21	Ho2	0.666670	0.333340	0.833090
Ho31	Ho3	0.666670	0.333340	0.333090
Ho41	Ho4	0.333330	0.666660	0.166910
Cu11	Cu1	0.500000	0.000000	0.500000
Cu21	Cu2	0.500000	0.500000	0.500000
Cu31	Cu3	0.000000	0.500000	0.500000
Cu41	Cu4	0.500000	0.000000	0.000000
Cu51	Cu5	0.000000	0.500000	0.000000
Cu61	Cu6	0.500000	0.500000	0.000000
H11	H1	0.672500	0.022300	0.420500
H21	H2	0.703900	0.958900	0.552100
H31	H3	0.681000	0.861300	0.480100
H41	H4	0.539100	0.805900	0.371000
H51	H5	0.600300	0.913400	0.304900
H61	H6	0.349800	0.327500	0.420500
H71	H7	0.255000	0.296100	0.552100
H81	H8	0.180300	0.319000	0.480100
H91	H9	0.266800	0.460900	0.371000
H101	H10	0.313100	0.399700	0.304900
H111	H11	0.977700	0.650200	0.420500
H121	H12	0.041100	0.745000	0.552100
H131	H13	0.138700	0.819700	0.480100
H141	H14	0.194100	0.733200	0.371000
H151	H15	0.086600	0.686900	0.304900
H161	H16	0.650200	0.977700	0.079500
H171	H17	0.745000	0.041100	0.947900
H181	H18	0.819700	0.138700	0.019900
H191	H19	0.733200	0.194100	0.129000
H201	H20	0.686900	0.086600	0.195100
H211	H21	0.022300	0.672500	0.079500
H221	H22	0.958900	0.703900	0.947900
H231	H23	0.861300	0.681000	0.019900
H241	H24	0.805900	0.539100	0.129000
H251	H25	0.913400	0.600300	0.195100
H261	H26	0.327500	0.349800	0.079500
H271	H27	0.296100	0.255000	0.947900
H281	H28	0.319000	0.180300	0.019900
H291	H29	0.460900	0.266800	0.129000
H301	H30	0.399700	0.313100	0.195100
H311	H31	0.327500	0.977700	0.579500
H321	H32	0.296100	0.041100	0.447900
H331	H33	0.319000	0.138700	0.519900
H341	H34	0.460900	0.194100	0.629000
H351	H35	0.399700	0.086600	0.695100
H361	H36	0.650200	0.672500	0.579500
H371	H37	0.745000	0.703900	0.447900
H381	H38	0.819700	0.681000	0.519900
H391	H39	0.733200	0.539100	0.629000
H401	H40	0.686900	0.600300	0.695100
H411	H41	0.022300	0.349800	0.579500
H421	H42	0.958900	0.255000	0.447900
H431	H43	0.861300	0.180300	0.519900
H441	H44	0.805900	0.266800	0.629000
H451	H45	0.913400	0.313100	0.695100
H461	H46	0.349800	0.022300	0.920500
H471	H47	0.255000	0.958900	0.052100
H481	H48	0.180300	0.861300	0.980100
H491	H49	0.266800	0.805900	0.871000
H501	H50	0.313100	0.913400	0.804900
H511	H51	0.977700	0.327500	0.920500
H521	H52	0.041100	0.296100	0.052100
H531	H53	0.138700	0.319000	0.980100
H541	H54	0.194100	0.460900	0.871000
H551	H55	0.086600	0.399700	0.804900
H561	H56	0.672500	0.650200	0.920500
H571	H57	0.703900	0.745000	0.052100
H581	H58	0.681000	0.819700	0.980100
H591	H59	0.539100	0.733200	0.871000
H601	H60	0.600300	0.686900	0.804900
C11	C1	0.545700	0.814800	0.569600
C21	C2	0.646200	0.900600	0.511500
C31	C3	0.550900	0.882500	0.359300
C41	C4	0.437300	0.873300	0.339000
C51	C5	0.269100	0.454300	0.569600
C61	C6	0.254400	0.353800	0.511500
C71	C7	0.331600	0.449100	0.359300
C81	C8	0.436000	0.562700	0.339000
C91	C9	0.185200	0.730900	0.569600
C101	C10	0.099400	0.745600	0.511500
C111	C11	0.117500	0.668400	0.359300
C121	C12	0.126700	0.564000	0.339000
C131	C13	0.730900	0.185200	0.930400
C141	C14	0.745600	0.099400	0.988500
C151	C15	0.668400	0.117500	0.140700
C161	C16	0.564000	0.126700	0.161000
C171	C17	0.814800	0.545700	0.930400
C181	C18	0.900600	0.646200	0.988500
C191	C19	0.882500	0.550900	0.140700
C201	C20	0.873300	0.437300	0.161000
C211	C21	0.454300	0.269100	0.930400
C221	C22	0.353800	0.254400	0.988500
C231	C23	0.449100	0.331600	0.140700
C241	C24	0.562700	0.436000	0.161000
C251	C25	0.454300	0.185200	0.430400
C261	C26	0.353800	0.099400	0.488500
C271	C27	0.449100	0.117500	0.640700
C281	C28	0.562700	0.126700	0.661000
C291	C29	0.730900	0.545700	0.430400
C301	C30	0.745600	0.646200	0.488500
C311	C31	0.668400	0.550900	0.640700
C321	C32	0.564000	0.437300	0.661000
C331	C33	0.814800	0.269100	0.430400
C341	C34	0.900600	0.254400	0.488500
C351	C35	0.882500	0.331600	0.640700
C361	C36	0.873300	0.436000	0.661000
C371	C37	0.269100	0.814800	0.069600
C381	C38	0.254400	0.900600	0.011500
C391	C39	0.331600	0.882500	0.859300
C401	C40	0.436000	0.873300	0.839000
C411	C41	0.185200	0.454300	0.069600
C421	C42	0.099400	0.353800	0.011500
C431	C43	0.117500	0.449100	0.859300
C441	C44	0.126700	0.562700	0.839000
C451	C45	0.545700	0.730900	0.069600
C461	C46	0.646200	0.745600	0.011500
C471	C47	0.550900	0.668400	0.859300
C481	C48	0.437300	0.564000	0.839000
N11	N1	0.609200	0.956900	0.440800
N21	N2	0.347700	0.390800	0.440800
N31	N3	0.043100	0.652300	0.440800
N41	N4	0.652300	0.043100	0.059200
N51	N5	0.956900	0.609200	0.059200
N61	N6	0.390800	0.347700	0.059200
N71	N7	0.390800	0.043100	0.559200
N81	N8	0.652300	0.609200	0.559200
N91	N9	0.956900	0.347700	0.559200
N101	N10	0.347700	0.956900	0.940800
N111	N11	0.043100	0.390800	0.940800
N121	N12	0.609200	0.652300	0.940800
O11	O1	0.449700	0.810000	0.559000
O21	O2	0.559000	0.753000	0.627600
O31	O3	0.402100	0.926500	0.390800
O41	O4	0.379700	0.814100	0.270100
O51	O5	0.360300	0.550300	0.559000
O61	O6	0.194000	0.441000	0.627600
O71	O7	0.524400	0.597900	0.390800
O81	O8	0.434400	0.620300	0.270100
O91	O9	0.190000	0.639700	0.559000
O101	O10	0.247000	0.806000	0.627600
O111	O11	0.073500	0.475600	0.390800
O121	O12	0.185900	0.565600	0.270100
O131	O13	0.639700	0.190000	0.941000
O141	O14	0.806000	0.247000	0.872400
O151	O15	0.475600	0.073500	0.109200
O161	O16	0.565600	0.185900	0.229900
O171	O17	0.810000	0.449700	0.941000
O181	O18	0.753000	0.559000	0.872400
O191	O19	0.926500	0.402100	0.109200
O201	O20	0.814100	0.379700	0.229900
O211	O21	0.550300	0.360300	0.941000
O221	O22	0.441000	0.194000	0.872400
O231	O23	0.597900	0.524400	0.109200
O241	O24	0.620300	0.434400	0.229900
O251	O25	0.550300	0.190000	0.441000
O261	O26	0.441000	0.247000	0.372400
O271	O27	0.597900	0.073500	0.609200
O281	O28	0.620300	0.185900	0.729900
O291	O29	0.639700	0.449700	0.441000
O301	O30	0.806000	0.559000	0.372400
O311	O31	0.475600	0.402100	0.609200
O321	O32	0.565600	0.379700	0.729900
O331	O33	0.810000	0.360300	0.441000
O341	O34	0.753000	0.194000	0.372400
O351	O35	0.926500	0.524400	0.609200
O361	O36	0.814100	0.434400	0.729900
O371	O37	0.360300	0.810000	0.059000
O381	O38	0.194000	0.753000	0.127600
O391	O39	0.524400	0.926500	0.890800
O401	O40	0.434400	0.814100	0.770100
O411	O41	0.190000	0.550300	0.059000
O421	O42	0.247000	0.441000	0.127600
O431	O43	0.073500	0.597900	0.890800
O441	O44	0.185900	0.620300	0.770100
O451	O45	0.449700	0.639700	0.059000
O461	O46	0.559000	0.806000	0.127600
O471	O47	0.402100	0.475600	0.890800
O481	O48	0.379700	0.565600	0.770100
