data_IBATEM_freeONLY_PM
_symmetry_space_group_name_H-M	'P1'
_cell_length_a	13.414700
_cell_length_b	13.414700
_cell_length_c	14.462200
_cell_angle_alpha	90.000000
_cell_angle_beta	90.000000
_cell_angle_gamma	120.000000
_symmetry_Int_Tables_number 1

loop_
_symmetry_equiv_pos_as_xyz
'x,y,z'

loop_
_atom_site_label
_atom_site_type_symbol
_atom_site_fract_x
_atom_site_fract_y
_atom_site_fract_z
Gd11	Gd1	0.333330	0.666660	0.667300
Gd21	Gd2	0.666670	0.333340	0.832700
Gd31	Gd3	0.666670	0.333340	0.332700
Gd41	Gd4	0.333330	0.666660	0.167300
Cu11	Cu1	0.500000	0.000000	0.500000
Cu21	Cu2	0.500000	0.500000	0.500000
Cu31	Cu3	0.000000	0.500000	0.500000
Cu41	Cu4	0.500000	0.000000	0.000000
Cu51	Cu5	0.000000	0.500000	0.000000
Cu61	Cu6	0.500000	0.500000	0.000000
H11	H1	0.704500	0.959600	0.551000
H21	H2	0.681700	0.862300	0.479600
H31	H3	0.540000	0.807300	0.371600
H41	H4	0.601600	0.914900	0.306600
H51	H5	0.672700	0.023100	0.421200
H61	H6	0.255100	0.295500	0.551000
H71	H7	0.180600	0.318300	0.479600
H81	H8	0.267300	0.460000	0.371600
H91	H9	0.313300	0.398400	0.306600
H101	H10	0.350400	0.327300	0.421200
H111	H11	0.040400	0.744900	0.551000
H121	H12	0.137700	0.819400	0.479600
H131	H13	0.192700	0.732700	0.371600
H141	H14	0.085100	0.686700	0.306600
H151	H15	0.976900	0.649600	0.421200
H161	H16	0.744900	0.040400	0.949000
H171	H17	0.819400	0.137700	0.020400
H181	H18	0.732700	0.192700	0.128400
H191	H19	0.686700	0.085100	0.193400
H201	H20	0.649600	0.976900	0.078800
H211	H21	0.959600	0.704500	0.949000
H221	H22	0.862300	0.681700	0.020400
H231	H23	0.807300	0.540000	0.128400
H241	H24	0.914900	0.601600	0.193400
H251	H25	0.023100	0.672700	0.078800
H261	H26	0.295500	0.255100	0.949000
H271	H27	0.318300	0.180600	0.020400
H281	H28	0.460000	0.267300	0.128400
H291	H29	0.398400	0.313300	0.193400
H301	H30	0.327300	0.350400	0.078800
H311	H31	0.295500	0.040400	0.449000
H321	H32	0.318300	0.137700	0.520400
H331	H33	0.460000	0.192700	0.628400
H341	H34	0.398400	0.085100	0.693400
H351	H35	0.327300	0.976900	0.578800
H361	H36	0.744900	0.704500	0.449000
H371	H37	0.819400	0.681700	0.520400
H381	H38	0.732700	0.540000	0.628400
H391	H39	0.686700	0.601600	0.693400
H401	H40	0.649600	0.672700	0.578800
H411	H41	0.959600	0.255100	0.449000
H421	H42	0.862300	0.180600	0.520400
H431	H43	0.807300	0.267300	0.628400
H441	H44	0.914900	0.313300	0.693400
H451	H45	0.023100	0.350400	0.578800
H461	H46	0.255100	0.959600	0.051000
H471	H47	0.180600	0.862300	0.979600
H481	H48	0.267300	0.807300	0.871600
H491	H49	0.313300	0.914900	0.806600
H501	H50	0.350400	0.023100	0.921200
H511	H51	0.040400	0.295500	0.051000
H521	H52	0.137700	0.318300	0.979600
H531	H53	0.192700	0.460000	0.871600
H541	H54	0.085100	0.398400	0.806600
H551	H55	0.976900	0.327300	0.921200
H561	H56	0.704500	0.744900	0.051000
H571	H57	0.681700	0.819400	0.979600
H581	H58	0.540000	0.732700	0.871600
H591	H59	0.601600	0.686700	0.806600
H601	H60	0.672700	0.649600	0.921200
C11	C1	0.545600	0.815700	0.568000
C21	C2	0.647000	0.901500	0.510800
C31	C3	0.552000	0.883800	0.360200
C41	C4	0.437800	0.875300	0.339700
C51	C5	0.270100	0.454400	0.568000
C61	C6	0.254500	0.353000	0.510800
C71	C7	0.331800	0.448000	0.360200
C81	C8	0.437500	0.562200	0.339700
C91	C9	0.184300	0.729900	0.568000
C101	C10	0.098500	0.745500	0.510800
C111	C11	0.116200	0.668200	0.360200
C121	C12	0.124700	0.562500	0.339700
C131	C13	0.729900	0.184300	0.932000
C141	C14	0.745500	0.098500	0.989200
C151	C15	0.668200	0.116200	0.139800
C161	C16	0.562500	0.124700	0.160300
C171	C17	0.815700	0.545600	0.932000
C181	C18	0.901500	0.647000	0.989200
C191	C19	0.883800	0.552000	0.139800
C201	C20	0.875300	0.437800	0.160300
C211	C21	0.454400	0.270100	0.932000
C221	C22	0.353000	0.254500	0.989200
C231	C23	0.448000	0.331800	0.139800
C241	C24	0.562200	0.437500	0.160300
C251	C25	0.454400	0.184300	0.432000
C261	C26	0.353000	0.098500	0.489200
C271	C27	0.448000	0.116200	0.639800
C281	C28	0.562200	0.124700	0.660300
C291	C29	0.729900	0.545600	0.432000
C301	C30	0.745500	0.647000	0.489200
C311	C31	0.668200	0.552000	0.639800
C321	C32	0.562500	0.437800	0.660300
C331	C33	0.815700	0.270100	0.432000
C341	C34	0.901500	0.254500	0.489200
C351	C35	0.883800	0.331800	0.639800
C361	C36	0.875300	0.437500	0.660300
C371	C37	0.270100	0.815700	0.068000
C381	C38	0.254500	0.901500	0.010800
C391	C39	0.331800	0.883800	0.860200
C401	C40	0.437500	0.875300	0.839700
C411	C41	0.184300	0.454400	0.068000
C421	C42	0.098500	0.353000	0.010800
C431	C43	0.116200	0.448000	0.860200
C441	C44	0.124700	0.562200	0.839700
C451	C45	0.545600	0.729900	0.068000
C461	C46	0.647000	0.745500	0.010800
C471	C47	0.552000	0.668200	0.860200
C481	C48	0.437800	0.562500	0.839700
N11	N1	0.609700	0.957600	0.441100
N21	N2	0.347900	0.390300	0.441100
N31	N3	0.042400	0.652100	0.441100
N41	N4	0.652100	0.042400	0.058900
N51	N5	0.957600	0.609700	0.058900
N61	N6	0.390300	0.347900	0.058900
N71	N7	0.390300	0.042400	0.558900
N81	N8	0.652100	0.609700	0.558900
N91	N9	0.957600	0.347900	0.558900
N101	N10	0.347900	0.957600	0.941100
N111	N11	0.042400	0.390300	0.941100
N121	N12	0.609700	0.652100	0.941100
O11	O1	0.450200	0.812100	0.557400
O21	O2	0.557900	0.754000	0.626500
O31	O3	0.402400	0.926800	0.392000
O41	O4	0.381800	0.816800	0.271700
O51	O5	0.361900	0.549800	0.557400
O61	O6	0.196100	0.442100	0.626500
O71	O7	0.524400	0.597600	0.392000
O81	O8	0.435000	0.618200	0.271700
O91	O9	0.187900	0.638100	0.557400
O101	O10	0.246000	0.803900	0.626500
O111	O11	0.073200	0.475600	0.392000
O121	O12	0.183200	0.565000	0.271700
O131	O13	0.638100	0.187900	0.942600
O141	O14	0.803900	0.246000	0.873500
O151	O15	0.475600	0.073200	0.108000
O161	O16	0.565000	0.183200	0.228300
O171	O17	0.812100	0.450200	0.942600
O181	O18	0.754000	0.557900	0.873500
O191	O19	0.926800	0.402400	0.108000
O201	O20	0.816800	0.381800	0.228300
O211	O21	0.549800	0.361900	0.942600
O221	O22	0.442100	0.196100	0.873500
O231	O23	0.597600	0.524400	0.108000
O241	O24	0.618200	0.435000	0.228300
O251	O25	0.549800	0.187900	0.442600
O261	O26	0.442100	0.246000	0.373500
O271	O27	0.597600	0.073200	0.608000
O281	O28	0.618200	0.183200	0.728300
O291	O29	0.638100	0.450200	0.442600
O301	O30	0.803900	0.557900	0.373500
O311	O31	0.475600	0.402400	0.608000
O321	O32	0.565000	0.381800	0.728300
O331	O33	0.812100	0.361900	0.442600
O341	O34	0.754000	0.196100	0.373500
O351	O35	0.926800	0.524400	0.608000
O361	O36	0.816800	0.435000	0.728300
O371	O37	0.361900	0.812100	0.057400
O381	O38	0.196100	0.754000	0.126500
O391	O39	0.524400	0.926800	0.892000
O401	O40	0.435000	0.816800	0.771700
O411	O41	0.187900	0.549800	0.057400
O421	O42	0.246000	0.442100	0.126500
O431	O43	0.073200	0.597600	0.892000
O441	O44	0.183200	0.618200	0.771700
O451	O45	0.450200	0.638100	0.057400
O461	O46	0.557900	0.803900	0.126500
O471	O47	0.402400	0.475600	0.892000
O481	O48	0.381800	0.565000	0.771700
