data_IBICIH_freeONLY_PM
_symmetry_space_group_name_H-M	'P1'
_cell_length_a	10.585000
_cell_length_b	17.703000
_cell_length_c	17.703000
_cell_angle_alpha	120.000000
_cell_angle_beta	90.000000
_cell_angle_gamma	90.000000
_symmetry_Int_Tables_number 1

loop_
_symmetry_equiv_pos_as_xyz
'x,y,z'

loop_
_atom_site_label
_atom_site_type_symbol
_atom_site_fract_x
_atom_site_fract_y
_atom_site_fract_z
Zn11	Zn1	0.019460	0.540140	0.071090
Zn21	Zn2	0.352790	0.530950	0.459860
Zn31	Zn3	0.686130	0.928910	0.469050
Zn41	Zn4	0.519460	0.459860	0.928910
Zn51	Zn5	0.852790	0.469050	0.540140
Zn61	Zn6	0.186130	0.071090	0.530950
H11	H1	0.927700	0.469000	0.918700
H21	H2	0.054900	0.618200	0.954100
H31	H3	0.910800	0.616700	0.973800
H41	H4	0.775100	0.506500	0.834600
H51	H5	0.102500	0.613500	0.818200
H61	H6	0.051000	0.572500	0.677300
H71	H7	0.735700	0.466000	0.692000
H81	H8	0.129400	0.470200	0.845400
H91	H9	0.161300	0.324100	0.805200
H101	H10	0.907600	0.357000	0.782100
H111	H11	0.976400	0.267600	0.724900
H121	H12	0.019600	0.350400	0.721200
H131	H13	0.970800	0.346300	0.924000
H141	H14	0.111000	0.318900	0.926200
H151	H15	0.019300	0.254400	0.852500
H161	H16	0.261030	0.449700	0.531000
H171	H17	0.388230	0.335900	0.381800
H181	H18	0.244130	0.357100	0.383300
H191	H19	0.108430	0.328100	0.493500
H201	H20	0.435830	0.204700	0.386500
H211	H21	0.384330	0.104800	0.427500
H221	H22	0.069030	0.226000	0.534000
H231	H23	0.462730	0.375200	0.529800
H241	H24	0.494630	0.481100	0.675900
H251	H25	0.240930	0.425100	0.643000
H261	H26	0.309730	0.457300	0.732400
H271	H27	0.352930	0.370800	0.649600
H281	H28	0.304130	0.577700	0.653700
H291	H29	0.444330	0.607300	0.681100
H301	H30	0.352630	0.598100	0.745600
H311	H31	0.594370	0.081300	0.550300
H321	H32	0.721570	0.045900	0.664100
H331	H33	0.577470	0.026200	0.642900
H341	H34	0.441770	0.165400	0.671900
H351	H35	0.769170	0.181800	0.795300
H361	H36	0.717670	0.322700	0.895200
H371	H37	0.402370	0.308000	0.774000
H381	H38	0.796070	0.154600	0.624800
H391	H39	0.827970	0.194800	0.518900
H401	H40	0.574270	0.217900	0.574900
H411	H41	0.643070	0.275100	0.542700
H421	H42	0.686270	0.278800	0.629200
H431	H43	0.637470	0.076000	0.422300
H441	H44	0.777670	0.073800	0.392700
H451	H45	0.685970	0.147500	0.401900
H461	H46	0.427700	0.531000	0.081300
H471	H47	0.554900	0.381800	0.045900
H481	H48	0.410800	0.383300	0.026200
H491	H49	0.275100	0.493500	0.165400
H501	H50	0.602500	0.386500	0.181800
H511	H51	0.551000	0.427500	0.322700
H521	H52	0.235700	0.534000	0.308000
H531	H53	0.629400	0.529800	0.154600
H541	H54	0.661300	0.675900	0.194800
H551	H55	0.407600	0.643000	0.217900
H561	H56	0.476400	0.732400	0.275100
H571	H57	0.519600	0.649600	0.278800
H581	H58	0.470800	0.653700	0.076000
H591	H59	0.611000	0.681100	0.073800
H601	H60	0.519300	0.745600	0.147500
H611	H61	0.761030	0.550300	0.469000
H621	H62	0.888230	0.664100	0.618200
H631	H63	0.744130	0.642900	0.616700
H641	H64	0.608430	0.671900	0.506500
H651	H65	0.935830	0.795300	0.613500
H661	H66	0.884330	0.895200	0.572500
H671	H67	0.569030	0.774000	0.466000
H681	H68	0.962730	0.624800	0.470200
H691	H69	0.994630	0.518900	0.324100
H701	H70	0.740930	0.574900	0.357000
H711	H71	0.809730	0.542700	0.267600
H721	H72	0.852930	0.629200	0.350400
H731	H73	0.804130	0.422300	0.346300
H741	H74	0.944330	0.392700	0.318900
H751	H75	0.852630	0.401900	0.254400
H761	H76	0.094370	0.918700	0.449700
H771	H77	0.221570	0.954100	0.335900
H781	H78	0.077470	0.973800	0.357100
H791	H79	0.941770	0.834600	0.328100
H801	H80	0.269170	0.818200	0.204700
H811	H81	0.217670	0.677300	0.104800
H821	H82	0.902370	0.692000	0.226000
H831	H83	0.296070	0.845400	0.375200
H841	H84	0.327970	0.805200	0.481100
H851	H85	0.074270	0.782100	0.425100
H861	H86	0.143070	0.724900	0.457300
H871	H87	0.186270	0.721200	0.370800
H881	H88	0.137470	0.924000	0.577700
H891	H89	0.277670	0.926200	0.607300
H901	H90	0.185970	0.852500	0.598100
C11	C1	0.224800	0.468100	0.946200
C21	C2	0.978700	0.583000	0.934500
C31	C3	0.946800	0.564700	0.843900
C41	C4	0.833100	0.519800	0.803500
C51	C5	0.027400	0.583800	0.794400
C61	C6	0.995500	0.558400	0.709100
C71	C7	0.809700	0.496200	0.718000
C81	C8	0.108500	0.450100	0.886400
C91	C9	0.081300	0.352300	0.832800
C101	C10	0.987400	0.329700	0.758200
C111	C11	0.042000	0.314500	0.888900
C121	C12	0.558130	0.478100	0.531900
C131	C13	0.312030	0.351500	0.417000
C141	C14	0.280130	0.279200	0.435300
C151	C15	0.166430	0.283700	0.480200
C161	C16	0.360730	0.210600	0.416200
C171	C17	0.328830	0.150700	0.441600
C181	C18	0.143030	0.221800	0.503800
C191	C19	0.441830	0.436300	0.549900
C201	C20	0.414630	0.480500	0.647700
C211	C21	0.320730	0.428500	0.670300
C221	C22	0.375330	0.574400	0.685500
C231	C23	0.891470	0.053800	0.521900
C241	C24	0.645370	0.065500	0.648500
C251	C25	0.613470	0.156100	0.720800
C261	C26	0.499770	0.196500	0.716300
C271	C27	0.694070	0.205600	0.789400
C281	C28	0.662170	0.290900	0.849300
C291	C29	0.476370	0.282000	0.778200
C301	C30	0.775170	0.113600	0.563700
C311	C31	0.747970	0.167200	0.519500
C321	C32	0.654070	0.241800	0.571500
C331	C33	0.708670	0.111100	0.425600
C341	C34	0.724800	0.531900	0.053800
C351	C35	0.478700	0.417000	0.065500
C361	C36	0.446800	0.435300	0.156100
C371	C37	0.333100	0.480200	0.196500
C381	C38	0.527400	0.416200	0.205600
C391	C39	0.495500	0.441600	0.290900
C401	C40	0.309700	0.503800	0.282000
C411	C41	0.608500	0.549900	0.113600
C421	C42	0.581300	0.647700	0.167200
C431	C43	0.487400	0.670300	0.241800
C441	C44	0.542000	0.685500	0.111100
C451	C45	0.058130	0.521900	0.468100
C461	C46	0.812030	0.648500	0.583000
C471	C47	0.780130	0.720800	0.564700
C481	C48	0.666430	0.716300	0.519800
C491	C49	0.860730	0.789400	0.583800
C501	C50	0.828830	0.849300	0.558400
C511	C51	0.643030	0.778200	0.496200
C521	C52	0.941830	0.563700	0.450100
C531	C53	0.914630	0.519500	0.352300
C541	C54	0.820730	0.571500	0.329700
C551	C55	0.875330	0.425600	0.314500
C561	C56	0.391470	0.946200	0.478100
C571	C57	0.145370	0.934500	0.351500
C581	C58	0.113470	0.843900	0.279200
C591	C59	0.999770	0.803500	0.283700
C601	C60	0.194070	0.794400	0.210600
C611	C61	0.162170	0.709100	0.150700
C621	C62	0.976370	0.718000	0.221800
C631	C63	0.275170	0.886400	0.436300
C641	C64	0.247970	0.832800	0.480500
C651	C65	0.154070	0.758200	0.428500
C661	C66	0.208670	0.888900	0.574400
N11	N1	0.891000	0.515200	0.669700
N21	N2	0.998400	0.502600	0.939400
N31	N3	0.224330	0.154500	0.484800
N41	N4	0.331730	0.436800	0.497400
N51	N5	0.557670	0.330300	0.845500
N61	N6	0.665070	0.060600	0.563200
N71	N7	0.391000	0.484800	0.330300
N81	N8	0.498400	0.497400	0.060600
N91	N9	0.724330	0.845500	0.515200
N101	N10	0.831730	0.563200	0.502600
N111	N11	0.057670	0.669700	0.154500
N121	N12	0.165070	0.939400	0.436800
Cl11	Cl1	0.020100	0.454400	0.131160
Cl21	Cl2	0.353430	0.676760	0.545600
Cl31	Cl3	0.686770	0.868840	0.323240
Cl41	Cl4	0.520100	0.545600	0.868840
Cl51	Cl5	0.853430	0.323240	0.454400
Cl61	Cl6	0.186770	0.131160	0.676760
O11	O1	0.325300	0.433800	0.906300
O21	O2	0.213700	0.514900	0.026700
O31	O3	0.658630	0.472500	0.566200
O41	O4	0.547030	0.511800	0.485100
O51	O5	0.991970	0.093700	0.527500
O61	O6	0.880370	0.973300	0.488200
O71	O7	0.825300	0.566200	0.093700
O81	O8	0.713700	0.485100	0.973300
O91	O9	0.158630	0.527500	0.433800
O101	O10	0.047030	0.488200	0.514900
O111	O11	0.491970	0.906300	0.472500
O121	O12	0.380370	0.026700	0.511800
