data_IBICAZ_freeONLY_PM
_symmetry_space_group_name_H-M	'P1'
_cell_length_a	10.561700
_cell_length_b	17.691000
_cell_length_c	17.691000
_cell_angle_alpha	120.000000
_cell_angle_beta	90.000000
_cell_angle_gamma	90.000000
_symmetry_Int_Tables_number 1

loop_
_symmetry_equiv_pos_as_xyz
'x,y,z'

loop_
_atom_site_label
_atom_site_type_symbol
_atom_site_fract_x
_atom_site_fract_y
_atom_site_fract_z
Zn11	Zn1	0.882360	0.540390	0.071000
Zn21	Zn2	0.549030	0.530610	0.459610
Zn31	Zn3	0.215690	0.929000	0.469390
Zn41	Zn4	0.382360	0.459610	0.929000
Zn51	Zn5	0.049030	0.469390	0.540390
Zn61	Zn6	0.715690	0.071000	0.530610
H11	H1	0.974000	0.468900	0.918800
H21	H2	0.167400	0.467900	0.692200
H31	H3	0.849700	0.572500	0.677300
H41	H4	0.799500	0.614500	0.818600
H51	H5	0.126100	0.507200	0.834500
H61	H6	0.990800	0.617100	0.973500
H71	H7	0.846600	0.618400	0.953500
H81	H8	0.773100	0.470600	0.845600
H91	H9	0.739800	0.324400	0.805400
H101	H10	0.884500	0.254200	0.851100
H111	H11	0.792400	0.317600	0.925400
H121	H12	0.932300	0.346200	0.923400
H131	H13	0.997200	0.352400	0.783400
H141	H14	0.887900	0.353900	0.724100
H151	H15	0.921000	0.267000	0.723100
H161	H16	0.640670	0.449900	0.531100
H171	H17	0.834070	0.224300	0.532100
H181	H18	0.516370	0.104800	0.427500
H191	H19	0.466170	0.204100	0.385500
H201	H20	0.792770	0.327300	0.492800
H211	H21	0.657470	0.356400	0.382900
H221	H22	0.513270	0.335100	0.381600
H231	H23	0.439770	0.375000	0.529400
H241	H24	0.406470	0.481000	0.675600
H251	H25	0.551170	0.596900	0.745800
H261	H26	0.459070	0.607800	0.682400
H271	H27	0.598970	0.577200	0.653800
H281	H28	0.663870	0.431000	0.647600
H291	H29	0.554570	0.370200	0.646100
H301	H30	0.587670	0.456100	0.733000
H311	H31	0.307330	0.081200	0.550100
H321	H32	0.500730	0.307800	0.775700
H331	H33	0.183030	0.322700	0.895200
H341	H34	0.132830	0.181400	0.795900
H351	H35	0.459430	0.165500	0.672700
H361	H36	0.324130	0.026500	0.643600
H371	H37	0.179930	0.046500	0.664900
H381	H38	0.106430	0.154400	0.625000
H391	H39	0.073130	0.194600	0.519000
H401	H40	0.217830	0.148900	0.403100
H411	H41	0.125730	0.074600	0.392200
H421	H42	0.265630	0.076600	0.422800
H431	H43	0.330530	0.216600	0.569000
H441	H44	0.221230	0.275900	0.629800
H451	H45	0.254330	0.276900	0.543900
H461	H46	0.474000	0.531100	0.081200
H471	H47	0.667400	0.532100	0.307800
H481	H48	0.349700	0.427500	0.322700
H491	H49	0.299500	0.385500	0.181400
H501	H50	0.626100	0.492800	0.165500
H511	H51	0.490800	0.382900	0.026500
H521	H52	0.346600	0.381600	0.046500
H531	H53	0.273100	0.529400	0.154400
H541	H54	0.239800	0.675600	0.194600
H551	H55	0.384500	0.745800	0.148900
H561	H56	0.292400	0.682400	0.074600
H571	H57	0.432300	0.653800	0.076600
H581	H58	0.497200	0.647600	0.216600
H591	H59	0.387900	0.646100	0.275900
H601	H60	0.421000	0.733000	0.276900
H611	H61	0.140670	0.550100	0.468900
H621	H62	0.334070	0.775700	0.467900
H631	H63	0.016370	0.895200	0.572500
H641	H64	0.966170	0.795900	0.614500
H651	H65	0.292770	0.672700	0.507200
H661	H66	0.157470	0.643600	0.617100
H671	H67	0.013270	0.664900	0.618400
H681	H68	0.939770	0.625000	0.470600
H691	H69	0.906470	0.519000	0.324400
H701	H70	0.051170	0.403100	0.254200
H711	H71	0.959070	0.392200	0.317600
H721	H72	0.098970	0.422800	0.346200
H731	H73	0.163870	0.569000	0.352400
H741	H74	0.054570	0.629800	0.353900
H751	H75	0.087670	0.543900	0.267000
H761	H76	0.807330	0.918800	0.449900
H771	H77	0.000730	0.692200	0.224300
H781	H78	0.683030	0.677300	0.104800
H791	H79	0.632830	0.818600	0.204100
H801	H80	0.959430	0.834500	0.327300
H811	H81	0.824130	0.973500	0.356400
H821	H82	0.679930	0.953500	0.335100
H831	H83	0.606430	0.845600	0.375000
H841	H84	0.573130	0.805400	0.481000
H851	H85	0.717830	0.851100	0.596900
H861	H86	0.625730	0.925400	0.607800
H871	H87	0.765630	0.923400	0.577200
H881	H88	0.830530	0.783400	0.431000
H891	H89	0.721230	0.724100	0.370200
H901	H90	0.754330	0.723100	0.456100
C11	C1	0.092500	0.497100	0.717800
C21	C2	0.905400	0.558700	0.709300
C31	C3	0.874300	0.584200	0.794300
C41	C4	0.955400	0.564400	0.843500
C51	C5	0.068000	0.520500	0.803400
C61	C6	0.923000	0.583300	0.934200
C71	C7	0.676900	0.468100	0.945900
C81	C8	0.793800	0.450510	0.886610
C91	C9	0.820000	0.352600	0.833000
C101	C10	0.861000	0.314200	0.888300
C111	C11	0.915500	0.329300	0.759000
C121	C12	0.759170	0.220700	0.502900
C131	C13	0.572070	0.150600	0.441300
C141	C14	0.540970	0.210100	0.415800
C151	C15	0.622070	0.279100	0.435600
C161	C16	0.734670	0.282900	0.479500
C171	C17	0.589670	0.350900	0.416700
C181	C18	0.343570	0.477800	0.531900
C191	C19	0.460470	0.436100	0.549490
C201	C20	0.486670	0.480400	0.647400
C211	C21	0.527670	0.574100	0.685800
C221	C22	0.582170	0.429700	0.670700
C231	C23	0.425830	0.282200	0.779300
C241	C24	0.238730	0.290700	0.849400
C251	C25	0.207630	0.205700	0.789900
C261	C26	0.288730	0.156500	0.720900
C271	C27	0.401330	0.196600	0.717100
C281	C28	0.256330	0.065800	0.649100
C291	C29	0.010230	0.054100	0.522200
C301	C30	0.127130	0.113390	0.563900
C311	C31	0.153330	0.167000	0.519600
C321	C32	0.194330	0.111700	0.425900
C331	C33	0.248830	0.241000	0.570300
C341	C34	0.592500	0.502900	0.282200
C351	C35	0.405400	0.441300	0.290700
C361	C36	0.374300	0.415800	0.205700
C371	C37	0.455400	0.435600	0.156500
C381	C38	0.568000	0.479500	0.196600
C391	C39	0.423000	0.416700	0.065800
C401	C40	0.176900	0.531900	0.054100
C411	C41	0.293800	0.549490	0.113390
C421	C42	0.320000	0.647400	0.167000
C431	C43	0.361000	0.685800	0.111700
C441	C44	0.415500	0.670700	0.241000
C451	C45	0.259170	0.779300	0.497100
C461	C46	0.072070	0.849400	0.558700
C471	C47	0.040970	0.789900	0.584200
C481	C48	0.122070	0.720900	0.564400
C491	C49	0.234670	0.717100	0.520500
C501	C50	0.089670	0.649100	0.583300
C511	C51	0.843570	0.522200	0.468100
C521	C52	0.960470	0.563900	0.450510
C531	C53	0.986670	0.519600	0.352600
C541	C54	0.027670	0.425900	0.314200
C551	C55	0.082170	0.570300	0.329300
C561	C56	0.925830	0.717800	0.220700
C571	C57	0.738730	0.709300	0.150600
C581	C58	0.707630	0.794300	0.210100
C591	C59	0.788730	0.843500	0.279100
C601	C60	0.901330	0.803400	0.282900
C611	C61	0.756330	0.934200	0.350900
C621	C62	0.510230	0.945900	0.477800
C631	C63	0.627130	0.886610	0.436100
C641	C64	0.653330	0.833000	0.480400
C651	C65	0.694330	0.888300	0.574100
C661	C66	0.748830	0.759000	0.429700
N11	N1	0.010900	0.515200	0.670100
N21	N2	0.903200	0.502470	0.939330
N31	N3	0.677570	0.154900	0.484800
N41	N4	0.569870	0.436860	0.497530
N51	N5	0.344230	0.329900	0.845100
N61	N6	0.236530	0.060670	0.563140
N71	N7	0.510900	0.484800	0.329900
N81	N8	0.403200	0.497530	0.060670
N91	N9	0.177570	0.845100	0.515200
N101	N10	0.069870	0.563140	0.502470
N111	N11	0.844230	0.670100	0.154900
N121	N12	0.736530	0.939330	0.436860
Cl11	Cl1	0.881180	0.455090	0.131070
Cl21	Cl2	0.547850	0.675980	0.544910
Cl31	Cl3	0.214510	0.868930	0.324020
Cl41	Cl4	0.381180	0.544910	0.868930
Cl51	Cl5	0.047850	0.324020	0.455090
Cl61	Cl6	0.714510	0.131070	0.675980
O11	O1	0.688000	0.514910	0.026420
O21	O2	0.576500	0.433610	0.906080
O31	O3	0.354670	0.511510	0.485090
O41	O4	0.243170	0.472470	0.566390
O51	O5	0.021330	0.973580	0.488490
O61	O6	0.909830	0.093920	0.527530
O71	O7	0.188000	0.485090	0.973580
O81	O8	0.076500	0.566390	0.093920
O91	O9	0.854670	0.488490	0.514910
O101	O10	0.743170	0.527530	0.433610
O111	O11	0.521330	0.026420	0.511510
O121	O12	0.409830	0.906080	0.472470
