data_IBIRES_freeONLY_PM
_symmetry_space_group_name_H-M	'P1'
_cell_length_a	21.311100
_cell_length_b	20.985800
_cell_length_c	17.931900
_cell_angle_alpha	90.000000
_cell_angle_beta	96.387000
_cell_angle_gamma	90.000000
_symmetry_Int_Tables_number 1

loop_
_symmetry_equiv_pos_as_xyz
'x,y,z'

loop_
_atom_site_label
_atom_site_type_symbol
_atom_site_fract_x
_atom_site_fract_y
_atom_site_fract_z
W11	W1	0.715080	0.019810	0.996740
Cu11	Cu1	0.818690	0.089780	0.973620
Cu21	Cu2	0.736810	0.047400	0.143480
Cu31	Cu3	0.785450	0.911660	0.016490
S11	S1	0.740130	0.117350	0.045700
S21	S2	0.713530	0.948780	0.091070
S31	S3	0.790840	0.989820	0.926390
Br11	Br1	0.883030	0.863980	0.076070
C11	C1	0.829900	0.210200	0.881500
H11	H1	0.844100	0.229500	0.928200
C21	C2	0.821600	0.247600	0.818500
H21	H2	0.829400	0.292100	0.822300
C31	C3	0.801900	0.220900	0.749600
C41	C4	0.791500	0.156700	0.747600
H31	H3	0.778700	0.136300	0.701100
C51	C5	0.799800	0.121400	0.813200
H41	H4	0.791700	0.076800	0.810600
C61	C6	0.788600	0.259600	0.680800
C71	C7	0.825200	0.311400	0.665200
H51	H5	0.862700	0.321400	0.696800
C81	C8	0.806200	0.348500	0.602800
H61	H6	0.831900	0.383800	0.593100
C91	C9	0.721300	0.286700	0.570700
H71	H7	0.684600	0.277400	0.537400
C101	C10	0.735900	0.246800	0.629900
H81	H8	0.710400	0.210500	0.636500
C111	C11	0.180200	0.103300	0.229100
H91	H9	0.213100	0.133700	0.228700
C121	C12	0.126800	0.111800	0.179700
H101	H10	0.123300	0.147400	0.146900
C131	C13	0.078000	0.067900	0.178200
C141	C14	0.086700	0.017600	0.227200
H111	H11	0.054900	0.985900	0.227300
C151	C15	0.140400	0.012500	0.275700
H121	H12	0.143800	0.977700	0.309800
C161	C16	0.020100	0.075500	0.125000
C171	C17	0.996000	0.133500	0.101500
H131	H13	0.018400	0.171200	0.117300
C181	C18	0.939900	0.138100	0.055600
H141	H14	0.924400	0.179300	0.041600
C191	C19	0.930100	0.031300	0.050400
H151	H15	0.907400	0.994500	0.032100
C201	C20	0.987100	0.022600	0.097800
H161	H16	0.002200	0.981000	0.110600
C211	C21	0.643600	0.038900	0.259800
H171	H17	0.678600	0.023000	0.291700
C221	C22	0.583900	0.037600	0.284800
H181	H18	0.579000	0.023100	0.334000
C231	C23	0.532000	0.057500	0.237600
C241	C24	0.541900	0.079100	0.167000
H191	H19	0.507400	0.092100	0.132200
C251	C25	0.603000	0.081600	0.147900
H201	H20	0.609500	0.098300	0.100100
N11	N1	0.818600	0.147200	0.879700
N21	N2	0.755300	0.338300	0.556300
N31	N3	0.189000	0.054000	0.278300
N41	N4	0.906800	0.087800	0.030000
N51	N5	0.653100	0.061800	0.192700
O11	O1	0.642300	0.022100	0.943300
W21	W2	0.215080	0.519810	0.996740
Cu41	Cu4	0.318690	0.589780	0.973620
Cu51	Cu5	0.236810	0.547400	0.143480
Cu61	Cu6	0.285450	0.411660	0.016490
S41	S4	0.240130	0.617350	0.045700
S51	S5	0.213530	0.448780	0.091070
S61	S6	0.290840	0.489820	0.926390
Br21	Br2	0.383030	0.363980	0.076070
C261	C26	0.329900	0.710200	0.881500
H211	H21	0.344100	0.729500	0.928200
C271	C27	0.321600	0.747600	0.818500
H221	H22	0.329400	0.792100	0.822300
C281	C28	0.301900	0.720900	0.749600
C291	C29	0.291500	0.656700	0.747600
H231	H23	0.278700	0.636300	0.701100
C301	C30	0.299800	0.621400	0.813200
H241	H24	0.291700	0.576800	0.810600
C311	C31	0.288600	0.759600	0.680800
C321	C32	0.325200	0.811400	0.665200
H251	H25	0.362700	0.821400	0.696800
C331	C33	0.306200	0.848500	0.602800
H261	H26	0.331900	0.883800	0.593100
C341	C34	0.221300	0.786700	0.570700
H271	H27	0.184600	0.777400	0.537400
C351	C35	0.235900	0.746800	0.629900
H281	H28	0.210400	0.710500	0.636500
C361	C36	0.680200	0.603300	0.229100
H291	H29	0.713100	0.633700	0.228700
C371	C37	0.626800	0.611800	0.179700
H301	H30	0.623300	0.647400	0.146900
C381	C38	0.578000	0.567900	0.178200
C391	C39	0.586700	0.517600	0.227200
H311	H31	0.554900	0.485900	0.227300
C401	C40	0.640400	0.512500	0.275700
H321	H32	0.643800	0.477700	0.309800
C411	C41	0.520100	0.575500	0.125000
C421	C42	0.496000	0.633500	0.101500
H331	H33	0.518400	0.671200	0.117300
C431	C43	0.439900	0.638100	0.055600
H341	H34	0.424400	0.679300	0.041600
C441	C44	0.430100	0.531300	0.050400
H351	H35	0.407400	0.494500	0.032100
C451	C45	0.487100	0.522600	0.097800
H361	H36	0.502200	0.481000	0.110600
C461	C46	0.143600	0.538900	0.259800
H371	H37	0.178600	0.523000	0.291700
C471	C47	0.083900	0.537600	0.284800
H381	H38	0.079000	0.523100	0.334000
C481	C48	0.032000	0.557500	0.237600
C491	C49	0.041900	0.579100	0.167000
H391	H39	0.007400	0.592100	0.132200
C501	C50	0.103000	0.581600	0.147900
H401	H40	0.109500	0.598300	0.100100
N61	N6	0.318600	0.647200	0.879700
N71	N7	0.255300	0.838300	0.556300
N81	N8	0.689000	0.554000	0.278300
N91	N9	0.406800	0.587800	0.030000
N101	N10	0.153100	0.561800	0.192700
O21	O2	0.142300	0.522100	0.943300
W31	W3	0.284920	0.019810	0.503260
Cu71	Cu7	0.181310	0.089780	0.526380
Cu81	Cu8	0.263190	0.047400	0.356520
Cu91	Cu9	0.214550	0.911660	0.483510
S71	S7	0.259870	0.117350	0.454300
S81	S8	0.286470	0.948780	0.408930
S91	S9	0.209160	0.989820	0.573610
Br31	Br3	0.116970	0.863980	0.423930
C511	C51	0.170100	0.210200	0.618500
H411	H41	0.155900	0.229500	0.571800
C521	C52	0.178400	0.247600	0.681500
H421	H42	0.170600	0.292100	0.677700
C531	C53	0.198100	0.220900	0.750400
C541	C54	0.208500	0.156700	0.752400
H431	H43	0.221300	0.136300	0.798900
C551	C55	0.200200	0.121400	0.686800
H441	H44	0.208300	0.076800	0.689400
C561	C56	0.211400	0.259600	0.819200
C571	C57	0.174800	0.311400	0.834800
H451	H45	0.137300	0.321400	0.803200
C581	C58	0.193800	0.348500	0.897200
H461	H46	0.168100	0.383800	0.906900
C591	C59	0.278700	0.286700	0.929300
H471	H47	0.315400	0.277400	0.962600
C601	C60	0.264100	0.246800	0.870100
H481	H48	0.289600	0.210500	0.863500
C611	C61	0.819800	0.103300	0.270900
H491	H49	0.786900	0.133700	0.271300
C621	C62	0.873200	0.111800	0.320300
H501	H50	0.876700	0.147400	0.353100
C631	C63	0.922000	0.067900	0.321800
C641	C64	0.913300	0.017600	0.272800
H511	H51	0.945100	0.985900	0.272700
C651	C65	0.859600	0.012500	0.224300
H521	H52	0.856200	0.977700	0.190200
C661	C66	0.979900	0.075500	0.375000
C671	C67	0.004000	0.133500	0.398500
H531	H53	0.981600	0.171200	0.382700
C681	C68	0.060100	0.138100	0.444400
H541	H54	0.075600	0.179300	0.458400
C691	C69	0.069900	0.031300	0.449600
H551	H55	0.092600	0.994500	0.467900
C701	C70	0.012900	0.022600	0.402200
H561	H56	0.997800	0.981000	0.389400
C711	C71	0.356400	0.038900	0.240200
H571	H57	0.321400	0.023000	0.208300
C721	C72	0.416100	0.037600	0.215200
H581	H58	0.421000	0.023100	0.166000
C731	C73	0.468000	0.057500	0.262400
C741	C74	0.458100	0.079100	0.333000
H591	H59	0.492600	0.092100	0.367800
C751	C75	0.397000	0.081600	0.352100
H601	H60	0.390500	0.098300	0.399900
N111	N11	0.181400	0.147200	0.620300
N121	N12	0.244700	0.338300	0.943700
N131	N13	0.811000	0.054000	0.221700
N141	N14	0.093200	0.087800	0.470000
N151	N15	0.346900	0.061800	0.307300
O31	O3	0.357700	0.022100	0.556700
W41	W4	0.784920	0.519810	0.503260
Cu101	Cu10	0.681310	0.589780	0.526380
Cu111	Cu11	0.763190	0.547400	0.356520
Cu121	Cu12	0.714550	0.411660	0.483510
S101	S10	0.759870	0.617350	0.454300
S111	S11	0.786470	0.448780	0.408930
S121	S12	0.709160	0.489820	0.573610
Br41	Br4	0.616970	0.363980	0.423930
C761	C76	0.670100	0.710200	0.618500
H611	H61	0.655900	0.729500	0.571800
C771	C77	0.678400	0.747600	0.681500
H621	H62	0.670600	0.792100	0.677700
C781	C78	0.698100	0.720900	0.750400
C791	C79	0.708500	0.656700	0.752400
H631	H63	0.721300	0.636300	0.798900
C801	C80	0.700200	0.621400	0.686800
H641	H64	0.708300	0.576800	0.689400
C811	C81	0.711400	0.759600	0.819200
C821	C82	0.674800	0.811400	0.834800
H651	H65	0.637300	0.821400	0.803200
C831	C83	0.693800	0.848500	0.897200
H661	H66	0.668100	0.883800	0.906900
C841	C84	0.778700	0.786700	0.929300
H671	H67	0.815400	0.777400	0.962600
C851	C85	0.764100	0.746800	0.870100
H681	H68	0.789600	0.710500	0.863500
C861	C86	0.319800	0.603300	0.270900
H691	H69	0.286900	0.633700	0.271300
C871	C87	0.373200	0.611800	0.320300
H701	H70	0.376700	0.647400	0.353100
C881	C88	0.422000	0.567900	0.321800
C891	C89	0.413300	0.517600	0.272800
H711	H71	0.445100	0.485900	0.272700
C901	C90	0.359600	0.512500	0.224300
H721	H72	0.356200	0.477700	0.190200
C911	C91	0.479900	0.575500	0.375000
C921	C92	0.504000	0.633500	0.398500
H731	H73	0.481600	0.671200	0.382700
C931	C93	0.560100	0.638100	0.444400
H741	H74	0.575600	0.679300	0.458400
C941	C94	0.569900	0.531300	0.449600
H751	H75	0.592600	0.494500	0.467900
C951	C95	0.512900	0.522600	0.402200
H761	H76	0.497800	0.481000	0.389400
C961	C96	0.856400	0.538900	0.240200
H771	H77	0.821400	0.523000	0.208300
C971	C97	0.916100	0.537600	0.215200
H781	H78	0.921000	0.523100	0.166000
C981	C98	0.968000	0.557500	0.262400
C991	C99	0.958100	0.579100	0.333000
H791	H79	0.992600	0.592100	0.367800
C1001	C100	0.897000	0.581600	0.352100
H801	H80	0.890500	0.598300	0.399900
N161	N16	0.681400	0.647200	0.620300
N171	N17	0.744700	0.838300	0.943700
N181	N18	0.311000	0.554000	0.221700
N191	N19	0.593200	0.587800	0.470000
N201	N20	0.846900	0.561800	0.307300
O41	O4	0.857700	0.522100	0.556700
W51	W5	0.284920	0.980190	0.003260
Cu131	Cu13	0.181310	0.910220	0.026380
Cu141	Cu14	0.263190	0.952600	0.856520
Cu151	Cu15	0.214550	0.088340	0.983510
S131	S13	0.259870	0.882650	0.954300
S141	S14	0.286470	0.051220	0.908930
S151	S15	0.209160	0.010180	0.073610
Br51	Br5	0.116970	0.136020	0.923930
C1011	C101	0.170100	0.789800	0.118500
H811	H81	0.155900	0.770500	0.071800
C1021	C102	0.178400	0.752400	0.181500
H821	H82	0.170600	0.707900	0.177700
C1031	C103	0.198100	0.779100	0.250400
C1041	C104	0.208500	0.843300	0.252400
H831	H83	0.221300	0.863700	0.298900
C1051	C105	0.200200	0.878600	0.186800
H841	H84	0.208300	0.923200	0.189400
C1061	C106	0.211400	0.740400	0.319200
C1071	C107	0.174800	0.688600	0.334800
H851	H85	0.137300	0.678600	0.303200
C1081	C108	0.193800	0.651500	0.397200
H861	H86	0.168100	0.616200	0.406900
C1091	C109	0.278700	0.713300	0.429300
H871	H87	0.315400	0.722600	0.462600
C1101	C110	0.264100	0.753200	0.370100
H881	H88	0.289600	0.789500	0.363500
C1111	C111	0.819800	0.896700	0.770900
H891	H89	0.786900	0.866300	0.771300
C1121	C112	0.873200	0.888200	0.820300
H901	H90	0.876700	0.852600	0.853100
C1131	C113	0.922000	0.932100	0.821800
C1141	C114	0.913300	0.982400	0.772800
H911	H91	0.945100	0.014100	0.772700
C1151	C115	0.859600	0.987500	0.724300
H921	H92	0.856200	0.022300	0.690200
C1161	C116	0.979900	0.924500	0.875000
C1171	C117	0.004000	0.866500	0.898500
H931	H93	0.981600	0.828800	0.882700
C1181	C118	0.060100	0.861900	0.944400
H941	H94	0.075600	0.820700	0.958400
C1191	C119	0.069900	0.968700	0.949600
H951	H95	0.092600	0.005500	0.967900
C1201	C120	0.012900	0.977400	0.902200
H961	H96	0.997800	0.019000	0.889400
C1211	C121	0.356400	0.961100	0.740200
H971	H97	0.321400	0.977000	0.708300
C1221	C122	0.416100	0.962400	0.715200
H981	H98	0.421000	0.976900	0.666000
C1231	C123	0.468000	0.942500	0.762400
C1241	C124	0.458100	0.920900	0.833000
H991	H99	0.492600	0.907900	0.867800
C1251	C125	0.397000	0.918400	0.852100
H1001	H100	0.390500	0.901700	0.899900
N211	N21	0.181400	0.852800	0.120300
N221	N22	0.244700	0.661700	0.443700
N231	N23	0.811000	0.946000	0.721700
N241	N24	0.093200	0.912200	0.970000
N251	N25	0.346900	0.938200	0.807300
O51	O5	0.357700	0.977900	0.056700
W61	W6	0.784920	0.480190	0.003260
Cu161	Cu16	0.681310	0.410220	0.026380
Cu171	Cu17	0.763190	0.452600	0.856520
Cu181	Cu18	0.714550	0.588340	0.983510
S161	S16	0.759870	0.382650	0.954300
S171	S17	0.786470	0.551220	0.908930
S181	S18	0.709160	0.510180	0.073610
Br61	Br6	0.616970	0.636020	0.923930
C1261	C126	0.670100	0.289800	0.118500
H1011	H101	0.655900	0.270500	0.071800
C1271	C127	0.678400	0.252400	0.181500
H1021	H102	0.670600	0.207900	0.177700
C1281	C128	0.698100	0.279100	0.250400
C1291	C129	0.708500	0.343300	0.252400
H1031	H103	0.721300	0.363700	0.298900
C1301	C130	0.700200	0.378600	0.186800
H1041	H104	0.708300	0.423200	0.189400
C1311	C131	0.711400	0.240400	0.319200
C1321	C132	0.674800	0.188600	0.334800
H1051	H105	0.637300	0.178600	0.303200
C1331	C133	0.693800	0.151500	0.397200
H1061	H106	0.668100	0.116200	0.406900
C1341	C134	0.778700	0.213300	0.429300
H1071	H107	0.815400	0.222600	0.462600
C1351	C135	0.764100	0.253200	0.370100
H1081	H108	0.789600	0.289500	0.363500
C1361	C136	0.319800	0.396700	0.770900
H1091	H109	0.286900	0.366300	0.771300
C1371	C137	0.373200	0.388200	0.820300
H1101	H110	0.376700	0.352600	0.853100
C1381	C138	0.422000	0.432100	0.821800
C1391	C139	0.413300	0.482400	0.772800
H1111	H111	0.445100	0.514100	0.772700
C1401	C140	0.359600	0.487500	0.724300
H1121	H112	0.356200	0.522300	0.690200
C1411	C141	0.479900	0.424500	0.875000
C1421	C142	0.504000	0.366500	0.898500
H1131	H113	0.481600	0.328800	0.882700
C1431	C143	0.560100	0.361900	0.944400
H1141	H114	0.575600	0.320700	0.958400
C1441	C144	0.569900	0.468700	0.949600
H1151	H115	0.592600	0.505500	0.967900
C1451	C145	0.512900	0.477400	0.902200
H1161	H116	0.497800	0.519000	0.889400
C1461	C146	0.856400	0.461100	0.740200
H1171	H117	0.821400	0.477000	0.708300
C1471	C147	0.916100	0.462400	0.715200
H1181	H118	0.921000	0.476900	0.666000
C1481	C148	0.968000	0.442500	0.762400
C1491	C149	0.958100	0.420900	0.833000
H1191	H119	0.992600	0.407900	0.867800
C1501	C150	0.897000	0.418400	0.852100
H1201	H120	0.890500	0.401700	0.899900
N261	N26	0.681400	0.352800	0.120300
N271	N27	0.744700	0.161700	0.443700
N281	N28	0.311000	0.446000	0.721700
N291	N29	0.593200	0.412200	0.970000
N301	N30	0.846900	0.438200	0.807300
O61	O6	0.857700	0.477900	0.056700
W71	W7	0.715080	0.980190	0.496740
Cu191	Cu19	0.818690	0.910220	0.473620
Cu201	Cu20	0.736810	0.952600	0.643480
Cu211	Cu21	0.785450	0.088340	0.516490
S191	S19	0.740130	0.882650	0.545700
S201	S20	0.713530	0.051220	0.591070
S211	S21	0.790840	0.010180	0.426390
Br71	Br7	0.883030	0.136020	0.576070
C1511	C151	0.829900	0.789800	0.381500
H1211	H121	0.844100	0.770500	0.428200
C1521	C152	0.821600	0.752400	0.318500
H1221	H122	0.829400	0.707900	0.322300
C1531	C153	0.801900	0.779100	0.249600
C1541	C154	0.791500	0.843300	0.247600
H1231	H123	0.778700	0.863700	0.201100
C1551	C155	0.799800	0.878600	0.313200
H1241	H124	0.791700	0.923200	0.310600
C1561	C156	0.788600	0.740400	0.180800
C1571	C157	0.825200	0.688600	0.165200
H1251	H125	0.862700	0.678600	0.196800
C1581	C158	0.806200	0.651500	0.102800
H1261	H126	0.831900	0.616200	0.093100
C1591	C159	0.721300	0.713300	0.070700
H1271	H127	0.684600	0.722600	0.037400
C1601	C160	0.735900	0.753200	0.129900
H1281	H128	0.710400	0.789500	0.136500
C1611	C161	0.180200	0.896700	0.729100
H1291	H129	0.213100	0.866300	0.728700
C1621	C162	0.126800	0.888200	0.679700
H1301	H130	0.123300	0.852600	0.646900
C1631	C163	0.078000	0.932100	0.678200
C1641	C164	0.086700	0.982400	0.727200
H1311	H131	0.054900	0.014100	0.727300
C1651	C165	0.140400	0.987500	0.775700
H1321	H132	0.143800	0.022300	0.809800
C1661	C166	0.020100	0.924500	0.625000
C1671	C167	0.996000	0.866500	0.601500
H1331	H133	0.018400	0.828800	0.617300
C1681	C168	0.939900	0.861900	0.555600
H1341	H134	0.924400	0.820700	0.541600
C1691	C169	0.930100	0.968700	0.550400
H1351	H135	0.907400	0.005500	0.532100
C1701	C170	0.987100	0.977400	0.597800
H1361	H136	0.002200	0.019000	0.610600
C1711	C171	0.643600	0.961100	0.759800
H1371	H137	0.678600	0.977000	0.791700
C1721	C172	0.583900	0.962400	0.784800
H1381	H138	0.579000	0.976900	0.834000
C1731	C173	0.532000	0.942500	0.737600
C1741	C174	0.541900	0.920900	0.667000
H1391	H139	0.507400	0.907900	0.632200
C1751	C175	0.603000	0.918400	0.647900
H1401	H140	0.609500	0.901700	0.600100
N311	N31	0.818600	0.852800	0.379700
N321	N32	0.755300	0.661700	0.056300
N331	N33	0.189000	0.946000	0.778300
N341	N34	0.906800	0.912200	0.530000
N351	N35	0.653100	0.938200	0.692700
O71	O7	0.642300	0.977900	0.443300
W81	W8	0.215080	0.480190	0.496740
Cu221	Cu22	0.318690	0.410220	0.473620
Cu231	Cu23	0.236810	0.452600	0.643480
Cu241	Cu24	0.285450	0.588340	0.516490
S221	S22	0.240130	0.382650	0.545700
S231	S23	0.213530	0.551220	0.591070
S241	S24	0.290840	0.510180	0.426390
Br81	Br8	0.383030	0.636020	0.576070
C1761	C176	0.329900	0.289800	0.381500
H1411	H141	0.344100	0.270500	0.428200
C1771	C177	0.321600	0.252400	0.318500
H1421	H142	0.329400	0.207900	0.322300
C1781	C178	0.301900	0.279100	0.249600
C1791	C179	0.291500	0.343300	0.247600
H1431	H143	0.278700	0.363700	0.201100
C1801	C180	0.299800	0.378600	0.313200
H1441	H144	0.291700	0.423200	0.310600
C1811	C181	0.288600	0.240400	0.180800
C1821	C182	0.325200	0.188600	0.165200
H1451	H145	0.362700	0.178600	0.196800
C1831	C183	0.306200	0.151500	0.102800
H1461	H146	0.331900	0.116200	0.093100
C1841	C184	0.221300	0.213300	0.070700
H1471	H147	0.184600	0.222600	0.037400
C1851	C185	0.235900	0.253200	0.129900
H1481	H148	0.210400	0.289500	0.136500
C1861	C186	0.680200	0.396700	0.729100
H1491	H149	0.713100	0.366300	0.728700
C1871	C187	0.626800	0.388200	0.679700
H1501	H150	0.623300	0.352600	0.646900
C1881	C188	0.578000	0.432100	0.678200
C1891	C189	0.586700	0.482400	0.727200
H1511	H151	0.554900	0.514100	0.727300
C1901	C190	0.640400	0.487500	0.775700
H1521	H152	0.643800	0.522300	0.809800
C1911	C191	0.520100	0.424500	0.625000
C1921	C192	0.496000	0.366500	0.601500
H1531	H153	0.518400	0.328800	0.617300
C1931	C193	0.439900	0.361900	0.555600
H1541	H154	0.424400	0.320700	0.541600
C1941	C194	0.430100	0.468700	0.550400
H1551	H155	0.407400	0.505500	0.532100
C1951	C195	0.487100	0.477400	0.597800
H1561	H156	0.502200	0.519000	0.610600
C1961	C196	0.143600	0.461100	0.759800
H1571	H157	0.178600	0.477000	0.791700
C1971	C197	0.083900	0.462400	0.784800
H1581	H158	0.079000	0.476900	0.834000
C1981	C198	0.032000	0.442500	0.737600
C1991	C199	0.041900	0.420900	0.667000
H1591	H159	0.007400	0.407900	0.632200
C2001	C200	0.103000	0.418400	0.647900
H1601	H160	0.109500	0.401700	0.600100
N361	N36	0.318600	0.352800	0.379700
N371	N37	0.255300	0.161700	0.056300
N381	N38	0.689000	0.446000	0.778300
N391	N39	0.406800	0.412200	0.530000
N401	N40	0.153100	0.438200	0.692700
O81	O8	0.142300	0.477900	0.443300
