data_IBUDOZ_freeONLY_PM
_symmetry_space_group_name_H-M	'P1'
_cell_length_a	5.726600
_cell_length_b	9.941200
_cell_length_c	16.474000
_cell_angle_alpha	90.000000
_cell_angle_beta	90.000000
_cell_angle_gamma	94.294000
_symmetry_Int_Tables_number 1

loop_
_symmetry_equiv_pos_as_xyz
'x,y,z'

loop_
_atom_site_label
_atom_site_type_symbol
_atom_site_fract_x
_atom_site_fract_y
_atom_site_fract_z
Cu11	Cu1	0.246410	0.511610	0.567300
Cu21	Cu2	0.753590	0.988390	0.067300
Cu31	Cu3	0.753590	0.488390	0.432700
Cu41	Cu4	0.246410	0.011610	0.932700
H11	H1	0.565000	0.303000	0.590000
H21	H2	0.742000	0.185000	0.688000
H31	H3	0.307000	0.324000	0.847000
H41	H4	0.131000	0.437000	0.742000
H51	H5	0.435000	0.197000	0.090000
H61	H6	0.258000	0.315000	0.188000
H71	H7	0.693000	0.176000	0.347000
H81	H8	0.869000	0.063000	0.242000
H91	H9	0.435000	0.697000	0.410000
H101	H10	0.258000	0.815000	0.312000
H111	H11	0.693000	0.676000	0.153000
H121	H12	0.869000	0.563000	0.258000
H131	H13	0.565000	0.803000	0.910000
H141	H14	0.742000	0.685000	0.812000
H151	H15	0.307000	0.824000	0.653000
H161	H16	0.131000	0.937000	0.758000
C11	C1	0.515600	0.301900	0.642500
C21	C2	0.625100	0.232200	0.702000
C31	C3	0.543500	0.237200	0.781000
C41	C4	0.357400	0.312500	0.796200
C51	C5	0.258600	0.380300	0.733500
C61	C6	0.665400	0.167400	0.845400
C71	C7	0.484400	0.198100	0.142500
C81	C8	0.374900	0.267800	0.202000
C91	C9	0.456500	0.262800	0.281000
C101	C10	0.642600	0.187500	0.296200
C111	C11	0.741400	0.119700	0.233500
C121	C12	0.334600	0.332600	0.345400
C131	C13	0.484400	0.698100	0.357500
C141	C14	0.374900	0.767800	0.298000
C151	C15	0.456500	0.762800	0.219000
C161	C16	0.642600	0.687500	0.203800
C171	C17	0.741400	0.619700	0.266500
C181	C18	0.334600	0.832600	0.154600
C191	C19	0.515600	0.801900	0.857500
C201	C20	0.625100	0.732200	0.798000
C211	C21	0.543500	0.737200	0.719000
C221	C22	0.357400	0.812500	0.703800
C231	C23	0.258600	0.880300	0.766500
C241	C24	0.665400	0.667400	0.654600
N11	N1	0.335200	0.376200	0.656500
N21	N2	0.573500	0.125100	0.916650
N31	N3	0.751700	0.071300	0.955810
N41	N4	0.939500	0.082900	0.908300
N51	N5	0.888700	0.141100	0.838300
N61	N6	0.664800	0.123800	0.156500
N71	N7	0.426500	0.374900	0.416650
N81	N8	0.248300	0.428700	0.455810
N91	N9	0.060500	0.417100	0.408300
N101	N10	0.111300	0.358900	0.338300
N111	N11	0.664800	0.623800	0.343500
N121	N12	0.426500	0.874900	0.083350
N131	N13	0.248300	0.928700	0.044190
N141	N14	0.060500	0.917100	0.091700
N151	N15	0.111300	0.858900	0.161700
N161	N16	0.335200	0.876200	0.843500
N171	N17	0.573500	0.625100	0.583350
N181	N18	0.751700	0.571300	0.544190
N191	N19	0.939500	0.582900	0.591700
N201	N20	0.888700	0.641100	0.661700
