data_ic034943jsi20030807_040506_freeONLY_PM
_symmetry_space_group_name_H-M	'P1'
_cell_length_a	13.420800
_cell_length_b	13.420800
_cell_length_c	22.802700
_cell_angle_alpha	101.939000
_cell_angle_beta	101.939000
_cell_angle_gamma	107.281000
_symmetry_Int_Tables_number 1

loop_
_symmetry_equiv_pos_as_xyz
'x,y,z'

loop_
_atom_site_label
_atom_site_type_symbol
_atom_site_fract_x
_atom_site_fract_y
_atom_site_fract_z
Cu11	Cu1	0.532250	0.303950	0.903560
Cu21	Cu2	0.371310	0.099610	0.903560
Cu31	Cu3	0.628690	0.900390	0.096440
Cu41	Cu4	0.900390	0.628690	0.596440
Cu51	Cu5	0.467750	0.696050	0.096440
Cu61	Cu6	0.625000	0.375000	0.250000
Cu71	Cu7	0.375000	0.625000	0.750000
Cu81	Cu8	0.696050	0.467750	0.596440
Cu91	Cu9	0.099610	0.371310	0.403560
Cu101	Cu10	0.303950	0.532250	0.403560
H11	H1	0.192000	0.406800	0.916400
H21	H2	0.139700	0.052100	0.837000
H31	H3	0.437800	0.147600	0.688800
H41	H4	0.435400	0.070000	0.338000
H51	H5	0.068700	0.634300	0.553200
H61	H6	0.097400	0.232000	0.662000
H71	H7	0.621700	0.495700	0.062000
H81	H8	0.234000	0.189400	0.257800
H91	H9	0.504300	0.378300	0.438000
H101	H10	0.975000	0.915200	0.796000
H111	H11	0.023800	0.568400	0.257800
H121	H12	0.930000	0.564600	0.162000
H131	H13	0.052100	0.139700	0.337000
H141	H14	0.066300	0.440300	0.562000
H151	H15	0.768800	0.259200	0.047400
H161	H16	0.102600	0.724000	0.872200
H171	H17	0.276000	0.897400	0.627800
H181	H18	0.216700	0.546700	0.621600
H191	H19	0.147600	0.437800	0.188800
H201	H20	0.740800	0.231200	0.452600
H211	H21	0.595100	0.425100	0.378400
H221	H22	0.453300	0.783300	0.878400
H231	H23	0.546700	0.216700	0.121600
H241	H24	0.232000	0.097400	0.162000
H251	H25	0.440300	0.066300	0.062000
H261	H26	0.769600	0.648200	0.872200
H271	H27	0.860300	0.947900	0.163000
H281	H28	0.808000	0.593200	0.083600
H291	H29	0.574900	0.404900	0.121600
H301	H30	0.947900	0.860300	0.663000
H311	H31	0.821000	0.380800	0.796000
H321	H32	0.697300	0.284900	0.837000
H331	H33	0.070000	0.435400	0.838000
H341	H34	0.915200	0.975000	0.296000
H351	H35	0.990400	0.275600	0.583600
H361	H36	0.378300	0.504300	0.938000
H371	H37	0.404900	0.574900	0.621600
H381	H38	0.724000	0.102600	0.372200
H391	H39	0.425100	0.595100	0.878400
H401	H40	0.855500	0.386100	0.253800
H411	H41	0.601700	0.632300	0.746200
H421	H42	0.041200	0.251000	0.188800
H431	H43	0.581100	0.515500	0.946800
H441	H44	0.084800	0.025000	0.704000
H451	H45	0.288200	0.278600	0.547400
H461	H46	0.515500	0.581100	0.446800
H471	H47	0.632300	0.601700	0.246200
H481	H48	0.619200	0.179000	0.704000
H491	H49	0.810600	0.766000	0.242200
H501	H50	0.976200	0.431600	0.742200
H511	H51	0.931300	0.365700	0.446800
H521	H52	0.634300	0.068700	0.053200
H531	H53	0.278600	0.288200	0.047400
H541	H54	0.768000	0.902600	0.838000
H551	H55	0.251000	0.041200	0.688800
H561	H56	0.231200	0.740800	0.952600
H571	H57	0.852400	0.562200	0.811200
H581	H58	0.648200	0.769600	0.372200
H591	H59	0.275600	0.990400	0.083600
H601	H60	0.367700	0.398300	0.753800
H611	H61	0.495700	0.621700	0.562000
H621	H62	0.365700	0.931300	0.946800
H631	H63	0.025000	0.084800	0.204000
H641	H64	0.398300	0.367700	0.253800
H651	H65	0.715100	0.302700	0.663000
H661	H66	0.783300	0.453300	0.378400
H671	H67	0.749000	0.958800	0.311200
H681	H68	0.559700	0.933700	0.938000
H691	H69	0.897400	0.276000	0.127800
H701	H70	0.721400	0.711800	0.952600
H711	H71	0.724400	0.009600	0.916400
H721	H72	0.933700	0.559700	0.438000
H731	H73	0.418900	0.484500	0.053200
H741	H74	0.179000	0.619200	0.204000
H751	H75	0.958800	0.749000	0.811200
H761	H76	0.613900	0.144500	0.246200
H771	H77	0.351800	0.230400	0.627800
H781	H78	0.189400	0.234000	0.757800
H791	H79	0.564600	0.930000	0.662000
H801	H80	0.302700	0.715100	0.163000
H811	H81	0.431600	0.976200	0.242200
H821	H82	0.386100	0.855500	0.753800
H831	H83	0.711800	0.721400	0.452600
H841	H84	0.766000	0.810600	0.742200
H851	H85	0.259200	0.768800	0.547400
H861	H86	0.593200	0.808000	0.583600
H871	H87	0.380800	0.821000	0.296000
H881	H88	0.902600	0.768000	0.338000
H891	H89	0.144500	0.613900	0.746200
H901	H90	0.562200	0.852400	0.311200
H911	H91	0.230400	0.351800	0.127800
H921	H92	0.284900	0.697300	0.337000
H931	H93	0.406800	0.192000	0.416400
H941	H94	0.484500	0.418900	0.553200
H951	H95	0.568400	0.023800	0.757800
H961	H96	0.009600	0.724400	0.416400
C11	C1	0.687390	0.514390	0.894180
C21	C2	0.879790	0.206790	0.394180
C31	C3	0.287100	0.640500	0.155000
C41	C4	0.975400	0.193000	0.170400
C51	C5	0.479600	0.190400	0.129200
C61	C6	0.562290	0.638290	0.437580
C71	C7	0.890600	0.208200	0.134000
C81	C8	0.705300	0.646500	0.259600
C91	C9	0.520400	0.809600	0.870800
C101	C10	0.195000	0.477400	0.170400
C111	C11	0.220100	0.371100	0.687600
C121	C12	0.282180	0.376180	0.486160
C131	C13	0.361710	0.437710	0.062420
C141	C14	0.628900	0.779900	0.812400
C151	C15	0.262700	0.277100	0.769400
C161	C16	0.816500	0.467500	0.187600
C171	C17	0.522600	0.805000	0.329600
C181	C18	0.793210	0.120210	0.105820
C191	C19	0.554300	0.113100	0.259600
C201	C20	0.113100	0.554300	0.759600
C211	C21	0.701300	0.876900	0.846000
C221	C22	0.676200	0.940000	0.893400
C231	C23	0.985500	0.132100	0.345000
C241	C24	0.700710	0.124710	0.062420
C251	C25	0.722900	0.737300	0.730600
C261	C26	0.609980	0.203980	0.986160
C271	C27	0.703300	0.200700	0.035400
C281	C28	0.561200	0.350400	0.370800
C291	C29	0.120210	0.793210	0.605820
C301	C30	0.886900	0.445700	0.240400
C311	C31	0.992300	0.506700	0.269400
C321	C32	0.376180	0.282180	0.986160
C331	C33	0.190400	0.479600	0.629200
C341	C34	0.584600	0.214400	0.680400
C351	C35	0.578900	0.897300	0.905400
C361	C36	0.102700	0.421100	0.594600
C371	C37	0.546600	0.782800	0.606600
C381	C38	0.508100	0.326500	0.405400
C391	C39	0.007700	0.493300	0.730600
C401	C40	0.532500	0.183500	0.312400
C411	C41	0.034000	0.904200	0.819600
C421	C42	0.144700	0.469100	0.846000
C431	C43	0.649600	0.438800	0.129200
C441	C44	0.024600	0.807000	0.829600
C451	C45	0.809600	0.520400	0.370800
C461	C46	0.438800	0.649600	0.629200
C471	C47	0.214400	0.584600	0.180400
C481	C48	0.791800	0.109400	0.366000
C491	C49	0.807000	0.024600	0.329600
C501	C50	0.659240	0.740840	0.179880
C511	C51	0.667900	0.665300	0.964600
C521	C52	0.779900	0.628900	0.312400
C531	C53	0.966000	0.095800	0.180400
C541	C54	0.296700	0.799300	0.964600
C551	C55	0.485610	0.312610	0.605820
C561	C56	0.876900	0.701300	0.346000
C571	C57	0.940000	0.676200	0.393400
C581	C58	0.060960	0.479360	0.320120
C591	C59	0.206790	0.879790	0.894180
C601	C60	0.855300	0.530900	0.154000
C611	C61	0.737300	0.722900	0.230600
C621	C62	0.712900	0.359500	0.845000
C631	C63	0.939040	0.520640	0.679880
C641	C64	0.425800	0.243400	0.634000
C651	C65	0.123100	0.298700	0.654000
C661	C66	0.623820	0.717820	0.013840
C671	C67	0.520640	0.939040	0.179880
C681	C68	0.469100	0.144700	0.346000
C691	C69	0.217200	0.453400	0.893400
C701	C70	0.477400	0.195000	0.670400
C711	C71	0.312610	0.485610	0.105820
C721	C72	0.467500	0.816500	0.687600
C731	C73	0.493300	0.007700	0.230600
C741	C74	0.491900	0.673500	0.594600
C751	C75	0.638290	0.562290	0.937580
C761	C76	0.574200	0.756600	0.366000
C771	C77	0.183500	0.532500	0.812400
C781	C78	0.014500	0.867900	0.655000
C791	C79	0.673500	0.491900	0.094600
C801	C80	0.875290	0.299290	0.437580
C811	C81	0.350400	0.561200	0.870800
C821	C82	0.124710	0.700710	0.562420
C831	C83	0.514390	0.687390	0.394180
C841	C84	0.740840	0.659240	0.679880
C851	C85	0.421100	0.102700	0.094600
C861	C86	0.095800	0.966000	0.680400
C871	C87	0.298700	0.123100	0.154000
C881	C88	0.799300	0.296700	0.464600
C891	C89	0.437710	0.361710	0.562420
C901	C90	0.208200	0.890600	0.634000
C911	C91	0.506700	0.992300	0.769400
C921	C92	0.785600	0.415400	0.819600
C931	C93	0.445700	0.886900	0.740400
C941	C94	0.904200	0.034000	0.319600
C951	C95	0.340760	0.259160	0.820120
C961	C96	0.334700	0.332100	0.535400
C971	C97	0.353500	0.294700	0.240400
C981	C98	0.782800	0.546600	0.106600
C991	C99	0.323800	0.060000	0.106600
C1001	C100	0.640500	0.287100	0.655000
C1011	C101	0.390020	0.796020	0.013840
C1021	C102	0.530900	0.855300	0.654000
C1031	C103	0.646500	0.705300	0.759600
C1041	C104	0.371100	0.220100	0.187600
C1051	C105	0.805000	0.522600	0.829600
C1061	C106	0.200700	0.703300	0.535400
C1071	C107	0.203980	0.609980	0.486160
C1081	C108	0.665300	0.667900	0.464600
C1091	C109	0.359500	0.712900	0.345000
C1101	C110	0.415400	0.785600	0.319600
C1111	C111	0.453400	0.217200	0.393400
C1121	C112	0.299290	0.875290	0.937580
C1131	C113	0.756600	0.574200	0.866000
C1141	C114	0.897300	0.578900	0.405400
C1151	C115	0.277100	0.262700	0.269400
C1161	C116	0.796020	0.390020	0.513840
C1171	C117	0.109400	0.791800	0.866000
C1181	C118	0.294700	0.353500	0.740400
C1191	C119	0.259160	0.340760	0.320120
C1201	C120	0.060000	0.323800	0.606600
C1211	C121	0.326500	0.508100	0.905400
C1221	C122	0.243400	0.425800	0.134000
C1231	C123	0.132100	0.985500	0.845000
C1241	C124	0.479360	0.060960	0.820120
C1251	C125	0.332100	0.334700	0.035400
C1261	C126	0.867900	0.014500	0.155000
C1271	C127	0.193000	0.975400	0.670400
C1281	C128	0.717820	0.623820	0.513840
N11	N1	0.288400	0.580800	0.822800
N21	N2	0.594950	0.337750	0.619300
N31	N3	0.024350	0.781550	0.619300
N41	N4	0.405050	0.662250	0.380700
N51	N5	0.258000	0.465600	0.677200
N61	N6	0.534400	0.742000	0.822800
N71	N7	0.580800	0.288400	0.322800
N81	N8	0.781550	0.024350	0.119300
N91	N9	0.742000	0.534400	0.322800
N101	N10	0.337750	0.594950	0.119300
N111	N11	0.419200	0.711600	0.677200
N121	N12	0.218450	0.975650	0.880700
N131	N13	0.711600	0.419200	0.177200
N141	N14	0.662250	0.405050	0.880700
N151	N15	0.465600	0.258000	0.177200
N161	N16	0.975650	0.218450	0.380700
O11	O1	0.407020	0.010020	0.841840
O21	O2	0.331820	0.434820	0.341840
O31	O3	0.331870	0.180870	0.966340
O41	O4	0.434820	0.331820	0.841840
O51	O5	0.714530	0.365530	0.533660
O61	O6	0.656130	0.546330	0.529660
O71	O7	0.180870	0.331870	0.466340
O81	O8	0.565180	0.668180	0.158160
O91	O9	0.516670	0.126470	0.970340
O101	O10	0.668180	0.565180	0.658160
O111	O11	0.176610	0.305410	0.335820
O121	O12	0.159210	0.530410	0.335820
O131	O13	0.469590	0.840790	0.164180
O141	O14	0.530410	0.159210	0.835820
O151	O15	0.592980	0.989980	0.158160
O161	O16	0.010020	0.407020	0.341840
O171	O17	0.365530	0.714530	0.033660
O181	O18	0.819130	0.668130	0.533660
O191	O19	0.483330	0.873530	0.029660
O201	O20	0.546330	0.656130	0.029660
O211	O21	0.343870	0.453670	0.470340
O221	O22	0.305410	0.176610	0.835820
O231	O23	0.873530	0.483330	0.529660
O241	O24	0.634470	0.285470	0.966340
O251	O25	0.453670	0.343870	0.970340
O261	O26	0.285470	0.634470	0.466340
O271	O27	0.668130	0.819130	0.033660
O281	O28	0.840790	0.469590	0.664180
O291	O29	0.694590	0.823390	0.164180
O301	O30	0.989980	0.592980	0.658160
O311	O31	0.126470	0.516670	0.470340
O321	O32	0.823390	0.694590	0.664180
