data_ic202626c_si_002_freeONLY_PM
_symmetry_space_group_name_H-M	'P1'
_cell_length_a	8.190100
_cell_length_b	8.962900
_cell_length_c	20.186900
_cell_angle_alpha	90.000000
_cell_angle_beta	90.000000
_cell_angle_gamma	90.845600
_symmetry_Int_Tables_number 1

loop_
_symmetry_equiv_pos_as_xyz
'x,y,z'

loop_
_atom_site_label
_atom_site_type_symbol
_atom_site_fract_x
_atom_site_fract_y
_atom_site_fract_z
Fe11	Fe1	0.500000	0.500000	0.500000
Fe21	Fe2	0.000000	0.000000	0.000000
H11	H1	0.895900	0.647100	0.498100
H21	H2	0.989400	0.801000	0.134500
H31	H3	0.528300	0.673900	0.356300
H41	H4	0.489400	0.301000	0.365500
H51	H5	0.032900	0.670000	0.647200
H61	H6	0.818400	0.460400	0.999000
H71	H7	0.028300	0.173900	0.143700
H81	H8	0.395900	0.147100	0.001900
H91	H9	0.010600	0.199000	0.865500
H101	H10	0.971700	0.826100	0.856300
H111	H11	0.318400	0.960400	0.501000
H121	H12	0.944100	0.374700	0.665900
H131	H13	0.532900	0.170000	0.852800
H141	H14	0.444100	0.874700	0.834100
H151	H15	0.471700	0.326100	0.643700
H161	H16	0.604100	0.852900	0.998100
H171	H17	0.467100	0.830000	0.147200
H181	H18	0.055900	0.625300	0.334100
H191	H19	0.510600	0.699000	0.634500
H201	H20	0.181600	0.539600	0.001000
H211	H21	0.681600	0.039600	0.499000
H221	H22	0.967100	0.330000	0.352800
H231	H23	0.104100	0.352900	0.501900
H241	H24	0.555900	0.125300	0.165900
C11	C1	0.160300	0.622700	0.352100
C21	C2	0.183000	0.279300	0.502200
C31	C3	0.817000	0.720700	0.497800
C41	C4	0.360700	0.837300	0.131500
C51	C5	0.639300	0.162700	0.868500
C61	C6	0.660300	0.122700	0.147900
C71	C7	0.198800	0.437300	0.001600
C81	C8	0.301200	0.062700	0.501600
C91	C9	0.317000	0.220700	0.002200
C101	C10	0.801200	0.562700	0.998400
C111	C11	0.839700	0.377300	0.647900
C121	C12	0.401400	0.679400	0.624800
C131	C13	0.901400	0.179400	0.875200
C141	C14	0.598600	0.320600	0.375200
C151	C15	0.919200	0.149100	0.136400
C161	C16	0.698800	0.937300	0.498400
C171	C17	0.580800	0.350900	0.636400
C181	C18	0.860700	0.337300	0.368500
C191	C19	0.098600	0.820600	0.124800
C201	C20	0.339700	0.877300	0.852100
C211	C21	0.683000	0.779300	0.997800
C221	C22	0.419200	0.649100	0.363600
C231	C23	0.080800	0.850900	0.863600
C241	C24	0.139300	0.662700	0.631500
N11	N1	0.152200	0.887900	0.072200
N21	N2	0.198000	0.724300	0.227000
N31	N3	0.802000	0.275700	0.773000
N41	N4	0.326100	0.724800	0.256100
N51	N5	0.659600	0.697200	0.496600
N61	N6	0.915600	0.666800	0.997100
N71	N7	0.693700	0.076500	0.088800
N81	N8	0.673900	0.275200	0.743900
N91	N9	0.806300	0.423500	0.588800
N101	N10	0.415600	0.166800	0.502900
N111	N11	0.840400	0.802800	0.996600
N121	N12	0.202700	0.833400	0.820100
N131	N13	0.496800	0.569300	0.000000
N141	N14	0.847800	0.112100	0.927800
N151	N15	0.173900	0.775200	0.756100
N161	N16	0.859800	0.091900	0.082300
N171	N17	0.584400	0.833200	0.497100
N181	N18	0.346800	0.369900	0.001200
N191	N19	0.846800	0.869900	0.498800
N201	N20	0.726700	0.283400	0.336700
N211	N21	0.306300	0.923500	0.911200
N221	N22	0.996800	0.069300	0.500000
N231	N23	0.297300	0.666600	0.320100
N241	N24	0.826100	0.224800	0.243900
N251	N25	0.179200	0.600000	0.576300
N261	N26	0.359800	0.591900	0.417700
N271	N27	0.702700	0.333400	0.679900
N281	N28	0.320800	0.900000	0.076300
N291	N29	0.347800	0.612100	0.572200
N301	N30	0.140200	0.908100	0.917700
N311	N31	0.503200	0.430700	0.000000
N321	N32	0.159600	0.197200	0.003400
N331	N33	0.003200	0.930700	0.500000
N341	N34	0.820800	0.400000	0.423700
N351	N35	0.640200	0.408100	0.582300
N361	N36	0.653200	0.630100	0.998800
N371	N37	0.084400	0.333200	0.002900
N381	N38	0.340400	0.302800	0.503400
N391	N39	0.302000	0.775700	0.727000
N401	N40	0.193700	0.576500	0.411200
N411	N41	0.797300	0.166600	0.179900
N421	N42	0.273300	0.716600	0.663300
N431	N43	0.679200	0.100000	0.923700
N441	N44	0.226700	0.783400	0.163300
N451	N45	0.652200	0.387900	0.427800
N461	N46	0.773300	0.216600	0.836700
N471	N47	0.153200	0.130100	0.501200
N481	N48	0.698000	0.224300	0.273000
