data_ic402058f_si_005_freeONLY_PM
_symmetry_space_group_name_H-M	'P1'
_cell_length_a	15.870000
_cell_length_b	19.220000
_cell_length_c	20.433000
_cell_angle_alpha	90.000000
_cell_angle_beta	90.000000
_cell_angle_gamma	98.409000
_symmetry_Int_Tables_number 1

loop_
_symmetry_equiv_pos_as_xyz
'x,y,z'

loop_
_atom_site_label
_atom_site_type_symbol
_atom_site_fract_x
_atom_site_fract_y
_atom_site_fract_z
Cd11	Cd1	0.444200	0.551350	0.222290
Cd21	Cd2	0.465280	0.097590	0.792370
Cd31	Cd3	0.555800	0.948650	0.722290
Cd41	Cd4	0.491820	0.728050	0.267450
Cd51	Cd5	0.444200	0.051350	0.277710
Cd61	Cd6	0.465280	0.597590	0.707630
Cd71	Cd7	0.534720	0.402410	0.292370
Cd81	Cd8	0.534720	0.902410	0.207630
Cd91	Cd9	0.508180	0.271950	0.732550
Cd101	Cd10	0.555800	0.448650	0.777710
Cd111	Cd11	0.491820	0.228050	0.232550
Cd121	Cd12	0.508180	0.771950	0.767450
H11	H1	0.302000	0.987800	0.863700
H21	H2	0.519300	0.116200	0.049800
H31	H3	0.403300	0.963800	0.977600
H41	H4	0.987500	0.395200	0.370300
H51	H5	0.675800	0.300200	0.559100
H61	H6	0.217700	0.183200	0.979500
H71	H7	0.171100	0.255400	0.662200
H81	H8	0.286700	0.453800	0.164300
H91	H9	0.372000	0.776000	0.132300
H101	H10	0.275200	0.355600	0.379800
H111	H11	0.519300	0.616200	0.450200
H121	H12	0.476900	0.675700	0.555500
H131	H13	0.909200	0.755600	0.155100
H141	H14	0.012500	0.104800	0.870300
H151	H15	0.746200	0.497000	0.621900
H161	H16	0.984200	0.421000	0.887800
H171	H17	0.698000	0.512200	0.363700
H181	H18	0.169600	0.449200	0.587700
H191	H19	0.152700	0.310800	0.484000
H201	H20	0.746200	0.997000	0.878100
H211	H21	0.839000	0.571300	0.894800
H221	H22	0.253800	0.003000	0.121900
H231	H23	0.171100	0.755400	0.837800
H241	H24	0.090800	0.244400	0.844900
H251	H25	0.596700	0.536200	0.477600
H261	H26	0.847300	0.189200	0.984000
H271	H27	0.150400	0.487900	0.456400
H281	H28	0.146400	0.818100	0.516600
H291	H29	0.853600	0.181900	0.483400
H301	H30	0.527800	0.005200	0.925700
H311	H31	0.286700	0.953800	0.335700
H321	H32	0.987500	0.895200	0.129700
H331	H33	0.215100	0.188300	0.489200
H341	H34	0.275200	0.855600	0.120200
H351	H35	0.815200	0.837500	0.167700
H361	H36	0.849600	0.512100	0.543600
H371	H37	0.305500	0.293200	0.706000
H381	H38	0.184800	0.662500	0.667700
H391	H39	0.044800	0.113500	0.066600
H401	H40	0.523100	0.824300	0.055500
H411	H41	0.915000	0.796800	0.663200
H421	H42	0.377600	0.322600	0.850600
H431	H43	0.830400	0.050800	0.087700
H441	H44	0.675300	0.278600	0.063400
H451	H45	0.828900	0.744600	0.337800
H461	H46	0.675800	0.800200	0.940900
H471	H47	0.184800	0.162500	0.832300
H481	H48	0.610700	0.043200	0.891900
H491	H49	0.815200	0.337500	0.332300
H501	H50	0.941200	0.367300	0.077100
H511	H51	0.955200	0.386500	0.566600
H521	H52	0.178900	0.994900	0.567400
H531	H53	0.622400	0.177400	0.350600
H541	H54	0.568200	0.898900	0.033300
H551	H55	0.149700	0.722000	0.343300
H561	H56	0.582500	0.674100	0.487000
H571	H57	0.662300	0.095100	0.988300
H581	H58	0.568200	0.398900	0.466700
H591	H59	0.282200	0.397900	0.872700
H601	H60	0.984200	0.921000	0.612200
H611	H61	0.698000	0.012200	0.136300
H621	H62	0.431800	0.601100	0.533300
H631	H63	0.717800	0.102100	0.372700
H641	H64	0.431800	0.101100	0.966700
H651	H65	0.178900	0.494900	0.932600
H661	H66	0.472200	0.994800	0.074300
H671	H67	0.290500	0.028000	0.636400
H681	H68	0.717800	0.602100	0.127300
H691	H69	0.177800	0.123200	0.329600
H701	H70	0.722600	0.249300	0.710900
H711	H71	0.389300	0.956800	0.108100
H721	H72	0.372000	0.276000	0.367700
H731	H73	0.152700	0.810800	0.016000
H741	H74	0.282200	0.897900	0.627300
H751	H75	0.822200	0.876800	0.670400
H761	H76	0.628000	0.224000	0.867700
H771	H77	0.694500	0.706800	0.294000
H781	H78	0.217700	0.683200	0.520500
H791	H79	0.955200	0.886500	0.933400
H801	H80	0.610700	0.543200	0.608100
H811	H81	0.085000	0.703200	0.163200
H821	H82	0.523100	0.324300	0.444500
H831	H83	0.417500	0.325900	0.513000
H841	H84	0.337700	0.904900	0.011700
H851	H85	0.709500	0.972000	0.363600
H861	H86	0.377600	0.822600	0.649400
H871	H87	0.853600	0.681900	0.016600
H881	H88	0.784900	0.311700	0.989200
H891	H89	0.146400	0.318100	0.983400
H901	H90	0.302000	0.487800	0.636300
H911	H91	0.085000	0.203200	0.336800
H921	H92	0.722600	0.749300	0.789100
H931	H93	0.044800	0.613500	0.433400
H941	H94	0.822200	0.376800	0.829600
H951	H95	0.596700	0.036200	0.022400
H961	H96	0.403300	0.463800	0.522400
H971	H97	0.527800	0.505200	0.574300
H981	H98	0.582500	0.174100	0.013000
H991	H99	0.847300	0.689200	0.516000
H1001	H100	0.012500	0.604800	0.629700
H1011	H101	0.628000	0.724000	0.632300
H1021	H102	0.782300	0.316800	0.479500
H1031	H103	0.169600	0.949200	0.912300
H1041	H104	0.830400	0.550800	0.412300
H1051	H105	0.622400	0.677400	0.149400
H1061	H106	0.305500	0.793200	0.794000
H1071	H107	0.675300	0.778600	0.436600
H1081	H108	0.253800	0.503000	0.378100
H1091	H109	0.694500	0.206800	0.206000
H1101	H110	0.324200	0.199800	0.059100
H1111	H111	0.480700	0.883800	0.950200
H1121	H112	0.821100	0.005100	0.432600
H1131	H113	0.472200	0.494800	0.425700
H1141	H114	0.337700	0.404900	0.488300
H1151	H115	0.161000	0.928700	0.394800
H1161	H116	0.389300	0.456800	0.391900
H1171	H117	0.909200	0.255600	0.344900
H1181	H118	0.476900	0.175700	0.944500
H1191	H119	0.941200	0.867300	0.422900
H1201	H120	0.782300	0.816800	0.020500
H1211	H121	0.277400	0.250700	0.210900
H1221	H122	0.277400	0.750700	0.289100
H1231	H123	0.713300	0.546200	0.835700
H1241	H124	0.161000	0.428700	0.105200
H1251	H125	0.850300	0.778000	0.843300
H1261	H126	0.324700	0.221400	0.563400
H1271	H127	0.724800	0.644400	0.620200
H1281	H128	0.290500	0.528000	0.863600
H1291	H129	0.709500	0.472000	0.136400
H1301	H130	0.090800	0.744400	0.655100
H1311	H131	0.058800	0.132700	0.577100
H1321	H132	0.821100	0.505100	0.067400
H1331	H133	0.784900	0.811700	0.510800
H1341	H134	0.417500	0.825900	0.987000
H1351	H135	0.015800	0.579000	0.112200
H1361	H136	0.713300	0.046200	0.664300
H1371	H137	0.177800	0.623200	0.170400
H1381	H138	0.724800	0.144400	0.879800
H1391	H139	0.839000	0.071300	0.605200
H1401	H140	0.850300	0.278000	0.656700
H1411	H141	0.324200	0.699800	0.440900
H1421	H142	0.058800	0.632700	0.922900
H1431	H143	0.915000	0.296800	0.836800
H1441	H144	0.015800	0.079000	0.387800
H1451	H145	0.149700	0.222000	0.156700
H1461	H146	0.150400	0.987900	0.043600
H1471	H147	0.662300	0.595100	0.511700
H1481	H148	0.828900	0.244600	0.162200
H1491	H149	0.480700	0.383800	0.549800
H1501	H150	0.324700	0.721400	0.936600
H1511	H151	0.215100	0.688300	0.010800
H1521	H152	0.849600	0.012100	0.956400
C11	C1	0.603000	0.075000	0.991300
C21	C2	0.318000	0.628600	0.891300
C31	C3	0.706000	0.646000	0.806500
C41	C4	0.376400	0.869100	0.270900
C51	C5	0.048300	0.837800	0.462600
C61	C6	0.317600	0.394500	0.676400
C71	C7	0.274300	0.061000	0.607500
C81	C8	0.711600	0.342900	0.556300
C91	C9	0.184600	0.585500	0.978300
C101	C10	0.815400	0.414500	0.021700
C111	C11	0.452000	0.372000	0.508700
C121	C12	0.548000	0.628000	0.491300
C131	C13	0.704400	0.324200	0.064100
C141	C14	0.855200	0.177400	0.624900
C151	C15	0.256600	0.808800	0.131000
C161	C16	0.056900	0.343700	0.532800
C171	C17	0.288400	0.157100	0.056300
C181	C18	0.262500	0.350900	0.863600
C191	C19	0.826100	0.918500	0.995000
C201	C20	0.598800	0.081600	0.207900
C211	C21	0.295600	0.175800	0.564100
C221	C22	0.256600	0.308800	0.369000
C231	C23	0.246600	0.039800	0.093800
C241	C24	0.015100	0.123300	0.029300
C251	C25	0.514000	0.372000	0.454300
C261	C26	0.999800	0.399700	0.926000
C271	C27	0.253000	0.285900	0.190100
C281	C28	0.927500	0.130700	0.428300
C291	C29	0.903200	0.161500	0.483100
C301	C30	0.959200	0.394700	0.466500
C311	C31	0.225400	0.647300	0.491600
C321	C32	0.436000	0.450000	0.421100
C331	C33	0.514000	0.872000	0.045700
C341	C34	0.655600	0.860800	0.668000
C351	C35	0.144800	0.322600	0.124900
C361	C36	0.015100	0.623300	0.470700
C371	C37	0.177700	0.268000	0.157400
C381	C38	0.185400	0.031000	0.046700
C391	C39	0.715200	0.807500	0.654000
C401	C40	0.795000	0.290200	0.339200
C411	C41	0.225400	0.147300	0.008400
C421	C42	0.004700	0.882300	0.088500
C431	C43	0.184300	0.393400	0.126700
C441	C44	0.840600	0.153100	0.118600
C451	C45	0.737500	0.649100	0.136400
C461	C46	0.344400	0.639200	0.168000
C471	C47	0.363900	0.613700	0.348300
C481	C48	0.753400	0.960200	0.906200
C491	C49	0.246600	0.539800	0.406200
C501	C50	0.072500	0.369300	0.928300
C511	C51	0.792100	0.459400	0.065400
C521	C52	0.026300	0.132400	0.539300
C531	C53	0.103500	0.831400	0.020400
C541	C54	0.169900	0.784400	0.140500
C551	C55	0.951700	0.662200	0.962600
C561	C56	0.680300	0.694300	0.148400
C571	C57	0.548000	0.128000	0.008700
C581	C58	0.792100	0.959400	0.434600
C591	C59	0.896500	0.668600	0.520400
C601	C60	0.486000	0.628000	0.545700
C611	C61	0.857200	0.282400	0.844000
C621	C62	0.048300	0.337800	0.037400
C631	C63	0.317600	0.894500	0.823600
C641	C64	0.274300	0.561000	0.892500
C651	C65	0.072500	0.869300	0.571700
C661	C66	0.702000	0.395700	0.599500
C671	C67	0.725700	0.939000	0.392500
C681	C68	0.229700	0.656200	0.980300
C691	C69	0.149100	0.259000	0.848400
C701	C70	0.702000	0.895700	0.900500
C711	C71	0.643600	0.312300	0.328900
C721	C72	0.821700	0.171700	0.362600
C731	C73	0.000200	0.600300	0.074000
C741	C74	0.802100	0.829900	0.661600
C751	C75	0.723100	0.058700	0.140800
C761	C76	0.722200	0.175200	0.182800
C771	C77	0.643600	0.812300	0.171100
C781	C78	0.814600	0.469000	0.546700
C791	C79	0.356400	0.687700	0.671100
C801	C80	0.004700	0.382300	0.411500
C811	C81	0.197200	0.418000	0.611500
C821	C82	0.830100	0.215600	0.859500
C831	C83	0.802800	0.082000	0.111500
C841	C84	0.276900	0.941300	0.859200
C851	C85	0.276900	0.441300	0.640800
C861	C86	0.603000	0.575000	0.508700
C871	C87	0.436000	0.950000	0.078900
C881	C88	0.826100	0.418500	0.505000
C891	C89	0.636100	0.386300	0.651700
C901	C90	0.753400	0.460200	0.593800
C911	C91	0.923700	0.149800	0.918800
C921	C92	0.284800	0.692500	0.154000
C931	C93	0.197900	0.670100	0.161600
C941	C94	0.857200	0.782400	0.656000
C951	C95	0.770300	0.843800	0.480300
C961	C96	0.686000	0.738600	0.638200
C971	C97	0.314000	0.261400	0.361800
C981	C98	0.611700	0.349000	0.158000
C991	C99	0.184600	0.085500	0.521700
C1001	C100	0.927500	0.630700	0.071700
C1011	C101	0.388300	0.651000	0.842000
C1021	C102	0.142800	0.217600	0.344000
C1031	C103	0.096800	0.838500	0.516900
C1041	C104	0.723100	0.558700	0.359200
C1051	C105	0.923700	0.649800	0.581200
C1061	C106	0.178300	0.328300	0.862600
C1071	C107	0.284800	0.192500	0.346000
C1081	C108	0.795000	0.790200	0.160800
C1091	C109	0.292100	0.234600	0.840700
C1101	C110	0.076300	0.350200	0.418800
C1111	C111	0.318000	0.128600	0.608700
C1121	C112	0.743400	0.191200	0.869000
C1131	C113	0.184300	0.893400	0.373300
C1141	C114	0.984900	0.376700	0.529300
C1151	C115	0.950200	0.397900	0.981500
C1161	C116	0.173900	0.081500	0.005000
C1171	C117	0.903200	0.661500	0.016900
C1181	C118	0.999800	0.899700	0.574000
C1191	C119	0.207900	0.040600	0.565400
C1201	C120	0.711600	0.842900	0.943700
C1211	C121	0.040800	0.605300	0.533500
C1221	C122	0.636100	0.886300	0.848300
C1231	C123	0.142800	0.717600	0.156000
C1241	C124	0.197700	0.301300	0.655400
C1251	C125	0.277800	0.824800	0.817200
C1261	C126	0.680300	0.194300	0.351600
C1271	C127	0.294000	0.854000	0.306500
C1281	C128	0.855200	0.677400	0.875100
C1291	C129	0.049800	0.102100	0.481500
C1301	C130	0.802800	0.582000	0.388500
C1311	C131	0.686000	0.238600	0.861800
C1321	C132	0.707900	0.265400	0.340700
C1331	C133	0.747000	0.214100	0.690100
C1341	C134	0.049800	0.602100	0.018500
C1351	C135	0.774600	0.852700	0.991600
C1361	C136	0.262500	0.850900	0.636400
C1371	C137	0.259000	0.407800	0.161700
C1381	C138	0.259000	0.907800	0.338300
C1391	C139	0.319700	0.305700	0.851600
C1401	C140	0.682000	0.371400	0.108700
C1411	C141	0.943100	0.656300	0.467200
C1421	C142	0.802300	0.698700	0.344600
C1431	C143	0.598800	0.581600	0.292100
C1441	C144	0.682400	0.105500	0.176400
C1451	C145	0.169900	0.284400	0.359500
C1461	C146	0.159400	0.346900	0.618600
C1471	C147	0.486000	0.128000	0.954300
C1481	C148	0.149100	0.759000	0.651600
C1491	C149	0.850900	0.241000	0.348400
C1501	C150	0.314000	0.761400	0.138200
C1511	C151	0.205000	0.209800	0.839200
C1521	C152	0.715200	0.307500	0.846000
C1531	C153	0.822300	0.232000	0.657400
C1541	C154	0.344400	0.139200	0.332000
C1551	C155	0.682000	0.871400	0.391300
C1561	C156	0.840600	0.653100	0.381400
C1571	C157	0.229700	0.156200	0.519700
C1581	C158	0.356400	0.187700	0.828900
C1591	C159	0.896500	0.168600	0.979600
C1601	C160	0.950200	0.897900	0.518500
C1611	C161	0.802100	0.329900	0.838400
C1621	C162	0.774600	0.352700	0.508400
C1631	C163	0.951700	0.162200	0.537400
C1641	C164	0.185400	0.531000	0.453300
C1651	C165	0.197700	0.801300	0.844600
C1661	C166	0.995300	0.117700	0.911500
C1671	C167	0.707900	0.765400	0.159300
C1681	C168	0.363900	0.113700	0.151700
C1691	C169	0.397000	0.425000	0.491300
C1701	C170	0.319700	0.805700	0.648400
C1711	C171	0.564000	0.550000	0.578900
C1721	C172	0.000200	0.100300	0.426000
C1731	C173	0.815400	0.914500	0.478300
C1741	C174	0.725700	0.439000	0.107500
C1751	C175	0.623600	0.630900	0.770900
C1761	C176	0.292100	0.734600	0.659300
C1771	C177	0.623600	0.130900	0.729100
C1781	C178	0.096800	0.338500	0.983100
C1791	C179	0.830100	0.715600	0.640500
C1801	C180	0.401200	0.918400	0.792100
C1811	C181	0.850900	0.741000	0.151600
C1821	C182	0.076300	0.850200	0.081200
C1831	C183	0.298000	0.104300	0.099500
C1841	C184	0.973700	0.367600	0.039300
C1851	C185	0.207900	0.540600	0.934600
C1861	C186	0.040800	0.105300	0.966500
C1871	C187	0.737500	0.149100	0.363600
C1881	C188	0.178300	0.828300	0.637400
C1891	C189	0.943100	0.156300	0.032800
C1901	C190	0.197200	0.918000	0.888500
C1911	C191	0.704400	0.824200	0.435900
C1921	C192	0.026300	0.632400	0.960700
C1931	C193	0.277800	0.324800	0.682800
C1941	C194	0.388300	0.151000	0.658000
C1951	C195	0.159400	0.846900	0.881400
C1961	C196	0.741000	0.592200	0.838300
C1971	C197	0.253000	0.785900	0.309900
C1981	C198	0.722200	0.675200	0.317200
C1991	C199	0.743400	0.691200	0.631000
C2001	C200	0.205000	0.709800	0.660800
C2011	C201	0.611700	0.849000	0.342000
C2021	C202	0.564000	0.050000	0.921100
C2031	C203	0.294000	0.354000	0.193500
C2041	C204	0.288400	0.657100	0.443700
C2051	C205	0.747000	0.714100	0.809900
C2061	C206	0.682400	0.605500	0.323600
C2071	C207	0.706000	0.146000	0.693500
C2081	C208	0.822300	0.732000	0.842600
C2091	C209	0.770300	0.343800	0.019700
C2101	C210	0.197900	0.170100	0.338400
C2111	C211	0.984900	0.876700	0.970700
C2121	C212	0.959200	0.894700	0.033500
C2131	C213	0.802300	0.198700	0.155400
C2141	C214	0.397000	0.925000	0.008700
C2151	C215	0.298000	0.604300	0.400500
C2161	C216	0.655600	0.360800	0.832000
C2171	C217	0.995300	0.617700	0.588500
C2181	C218	0.741000	0.092200	0.661700
C2191	C219	0.173900	0.581500	0.495000
C2201	C220	0.814600	0.969000	0.953300
C2211	C221	0.177700	0.768000	0.342600
C2221	C222	0.452000	0.872000	0.991300
C2231	C223	0.103500	0.331400	0.479600
C2241	C224	0.821700	0.671700	0.137400
C2251	C225	0.815700	0.606600	0.873300
C2261	C226	0.401200	0.418400	0.707900
C2271	C227	0.973700	0.867600	0.460700
C2281	C228	0.056900	0.843700	0.967200
C2291	C229	0.815700	0.106600	0.626700
C2301	C230	0.144800	0.822600	0.375100
C2311	C231	0.376400	0.369100	0.229100
C2321	C232	0.295600	0.675800	0.935900
O11	O1	0.321300	0.576900	0.167100
O21	O2	0.625100	0.935600	0.813300
O31	O3	0.118400	0.373000	0.869500
O41	O4	0.523000	0.014500	0.358100
O51	O5	0.079000	0.823400	0.905200
O61	O6	0.666600	0.878000	0.170500
O71	O7	0.414500	0.214300	0.663900
O81	O8	0.477000	0.985500	0.641900
O91	O9	0.577700	0.833400	0.682300
O101	O10	0.065600	0.302900	0.095300
O111	O11	0.934400	0.197100	0.595300
O121	O12	0.921000	0.676600	0.405200
O131	O13	0.568200	0.525900	0.293600
O141	O14	0.431800	0.974100	0.793600
O151	O15	0.568200	0.025900	0.206400
O161	O16	0.881600	0.127000	0.369500
O171	O17	0.520900	0.595700	0.604400
O181	O18	0.567900	0.788700	0.184000
O191	O19	0.079000	0.323400	0.594800
O201	O20	0.432100	0.211300	0.816000
O211	O21	0.881600	0.627000	0.130500
O221	O22	0.437500	0.369300	0.737000
O231	O23	0.117300	0.338500	0.360700
O241	O24	0.678700	0.923100	0.667100
O251	O25	0.479100	0.904300	0.104400
O261	O26	0.585500	0.285700	0.163900
O271	O27	0.321300	0.076900	0.332900
O281	O28	0.879800	0.432600	0.976800
O291	O29	0.120200	0.567400	0.023200
O301	O30	0.882700	0.661500	0.639300
O311	O31	0.065600	0.802900	0.404700
O321	O32	0.523000	0.514500	0.141900
O331	O33	0.882700	0.161500	0.860700
O341	O34	0.479100	0.404300	0.395600
O351	O35	0.477000	0.485500	0.858100
O361	O36	0.110800	0.071600	0.957000
O371	O37	0.432100	0.711300	0.684000
O381	O38	0.431800	0.474100	0.706400
O391	O39	0.520900	0.095700	0.895600
O401	O40	0.422300	0.166600	0.317700
O411	O41	0.374900	0.064400	0.186700
O421	O42	0.120200	0.067400	0.476800
O431	O43	0.586400	0.400400	0.188700
O441	O44	0.413600	0.099600	0.688700
O451	O45	0.374900	0.564400	0.313300
O461	O46	0.583600	0.179500	0.746900
O471	O47	0.678700	0.423100	0.832900
O481	O48	0.889200	0.928400	0.043000
O491	O49	0.562500	0.130700	0.237000
O501	O50	0.921000	0.176600	0.094800
O511	O51	0.583600	0.679500	0.753100
O521	O52	0.333400	0.622000	0.670500
O531	O53	0.586400	0.900400	0.311300
O541	O54	0.117300	0.838500	0.139300
O551	O55	0.577700	0.333400	0.817700
O561	O56	0.562500	0.630700	0.263000
O571	O57	0.879800	0.932600	0.523200
O581	O58	0.589800	0.063600	0.741400
O591	O59	0.597600	0.323300	0.659300
O601	O60	0.333400	0.122000	0.829500
O611	O61	0.402400	0.176700	0.159300
O621	O62	0.410200	0.936400	0.258600
O631	O63	0.567900	0.288700	0.316000
O641	O64	0.414500	0.714300	0.836100
O651	O65	0.437500	0.869300	0.763000
O661	O66	0.118400	0.873000	0.630500
O671	O67	0.410200	0.436400	0.241400
O681	O68	0.589800	0.563600	0.758600
O691	O69	0.402400	0.676700	0.340700
O701	O70	0.934400	0.697100	0.904700
O711	O71	0.416400	0.320500	0.246900
O721	O72	0.666600	0.378000	0.329500
O731	O73	0.422300	0.666600	0.182300
O741	O74	0.625100	0.435600	0.686700
O751	O75	0.889200	0.428400	0.457000
O761	O76	0.416400	0.820500	0.253100
O771	O77	0.585500	0.785700	0.336100
O781	O78	0.110800	0.571600	0.543000
O791	O79	0.413600	0.599600	0.811300
O801	O80	0.597600	0.823300	0.840700
