data_ic401157n_si_003_freeONLY_PM
_symmetry_space_group_name_H-M	'P1'
_cell_length_a	7.912900
_cell_length_b	20.418000
_cell_length_c	33.515800
_cell_angle_alpha	89.890300
_cell_angle_beta	90.000000
_cell_angle_gamma	90.000000
_symmetry_Int_Tables_number 1

loop_
_symmetry_equiv_pos_as_xyz
'x,y,z'

loop_
_atom_site_label
_atom_site_type_symbol
_atom_site_fract_x
_atom_site_fract_y
_atom_site_fract_z
Y11	Y1	0.740070	0.487770	0.016490
Y21	Y2	0.259930	0.987770	0.516490
Y31	Y3	0.740070	0.012230	0.483510
Y41	Y4	0.259930	0.512230	0.983510
H11	H1	0.825300	0.197600	0.455700
H21	H2	0.103000	0.424500	0.309100
H31	H3	0.323700	0.281000	0.124700
H41	H4	0.320500	0.683600	0.868500
H51	H5	0.679500	0.316400	0.131500
H61	H6	0.375500	0.991500	0.377600
H71	H7	0.961400	0.538500	0.747600
H81	H8	0.364100	0.818600	0.486300
H91	H9	0.880400	0.033000	0.306700
H101	H10	0.174700	0.697600	0.955700
H111	H11	0.676300	0.719000	0.875300
H121	H12	0.038600	0.038500	0.247600
H131	H13	0.897000	0.924500	0.809100
H141	H14	0.295700	0.712600	0.462600
H151	H15	0.611600	0.336700	0.636800
H161	H16	0.825300	0.302400	0.044300
H171	H17	0.738100	0.648700	0.861800
H181	H18	0.587300	0.891900	0.556800
H191	H19	0.364100	0.681400	0.013700
H201	H20	0.611600	0.163300	0.863200
H211	H21	0.239300	0.328900	0.093300
H221	H22	0.388400	0.663300	0.363200
H231	H23	0.704300	0.212600	0.962600
H241	H24	0.871400	0.209300	0.081500
H251	H25	0.239300	0.171100	0.406700
H261	H26	0.707100	0.791700	0.501100
H271	H27	0.704300	0.287400	0.537400
H281	H28	0.853200	0.003300	0.919300
H291	H29	0.626800	0.004900	0.692600
H301	H30	0.961400	0.961500	0.752400
H311	H31	0.635900	0.181400	0.513700
H321	H32	0.533600	0.165100	0.338200
H331	H33	0.624500	0.008500	0.622400
H341	H34	0.292900	0.291700	0.001100
H351	H35	0.388400	0.836700	0.136800
H361	H36	0.412700	0.391900	0.056800
H371	H37	0.515200	0.232300	0.645900
H381	H38	0.129200	0.969900	0.626400
H391	H39	0.478700	0.370700	0.877100
H401	H40	0.738100	0.851300	0.638200
H411	H41	0.795300	0.900900	0.933800
H421	H42	0.412700	0.108100	0.443200
H431	H43	0.373200	0.995100	0.307400
H441	H44	0.174700	0.802400	0.544300
H451	H45	0.707100	0.708300	0.998900
H461	H46	0.678400	0.686700	0.528400
H471	H47	0.292900	0.208300	0.498900
H481	H48	0.729700	0.107300	0.819000
H491	H49	0.478700	0.129300	0.622900
H501	H50	0.321600	0.313300	0.471600
H511	H51	0.870800	0.469900	0.126400
H521	H52	0.870800	0.030100	0.373600
H531	H53	0.729700	0.392700	0.681000
H541	H54	0.587300	0.608100	0.943200
H551	H55	0.270300	0.892700	0.181000
H561	H56	0.795300	0.599100	0.566200
H571	H57	0.321600	0.186700	0.028400
H581	H58	0.128600	0.790700	0.918500
H591	H59	0.270300	0.607300	0.319000
H601	H60	0.626800	0.495100	0.807400
H611	H61	0.146800	0.503300	0.419300
H621	H62	0.760700	0.671100	0.906700
H631	H63	0.129200	0.530100	0.873600
H641	H64	0.521300	0.870700	0.377100
H651	H65	0.521300	0.629300	0.122900
H661	H66	0.897000	0.575500	0.690900
H671	H67	0.646800	0.109200	0.357400
H681	H68	0.353200	0.609200	0.857400
H691	H69	0.679500	0.183600	0.368500
H701	H70	0.676300	0.781000	0.624700
H711	H71	0.646800	0.390800	0.142600
H721	H72	0.624500	0.491500	0.877600
H731	H73	0.103000	0.075500	0.190900
H741	H74	0.635900	0.318600	0.986300
H751	H75	0.373200	0.504900	0.192600
H761	H76	0.119600	0.533000	0.806700
H771	H77	0.323700	0.219000	0.375300
H781	H78	0.204700	0.099100	0.066200
H791	H79	0.320500	0.816400	0.631500
H801	H80	0.119600	0.967000	0.693300
H811	H81	0.466400	0.665100	0.838200
H821	H82	0.871400	0.290700	0.418500
H831	H83	0.375500	0.508500	0.122400
H841	H84	0.533600	0.334900	0.161800
H851	H85	0.484800	0.732300	0.145900
H861	H86	0.484800	0.767700	0.354100
H871	H87	0.146800	0.996700	0.080700
H881	H88	0.466400	0.834900	0.661800
H891	H89	0.515200	0.267700	0.854100
H901	H90	0.038600	0.461500	0.252400
H911	H91	0.760700	0.828900	0.593300
H921	H92	0.128600	0.709300	0.581500
H931	H93	0.261900	0.351300	0.138200
H941	H94	0.678400	0.813300	0.971600
H951	H95	0.261900	0.148700	0.361800
H961	H96	0.204700	0.400900	0.433800
H971	H97	0.353200	0.890800	0.642600
H981	H98	0.295700	0.787400	0.037400
H991	H99	0.880400	0.467000	0.193300
H1001	H100	0.853200	0.496700	0.580700
C11	C1	0.953400	0.223800	0.063200
C21	C2	0.233300	0.931200	0.168300
C31	C3	0.837800	0.493500	0.608500
C41	C4	0.872800	0.950200	0.866700
C51	C5	0.503400	0.386500	0.074700
C61	C6	0.525700	0.351500	0.936200
C71	C7	0.081000	0.385500	0.383100
C81	C8	0.837800	0.006500	0.891500
C91	C9	0.807900	0.014800	0.809800
C101	C10	0.875500	0.513200	0.884400
C111	C11	0.053000	0.308200	0.016900
C121	C12	0.457900	0.722500	0.119300
C131	C13	0.496600	0.613500	0.925300
C141	C14	0.201300	0.273300	0.015100
C151	C15	0.619400	0.274800	0.593300
C161	C16	0.274900	0.000600	0.363700
C171	C17	0.081000	0.114500	0.116900
C181	C18	0.607900	0.193000	0.540000
C191	C19	0.511000	0.162600	0.605200
C201	C20	0.755500	0.117800	0.902700
C211	C21	0.929700	0.280800	0.041900
C221	C22	0.219300	0.933900	0.125400
C231	C23	0.311800	0.326400	0.116600
C241	C24	0.127200	0.049800	0.133300
C251	C25	0.525700	0.148500	0.563800
C261	C26	0.053000	0.191800	0.483100
C271	C27	0.392100	0.807000	0.460000
C281	C28	0.807900	0.485200	0.690200
C291	C29	0.869200	0.987200	0.698300
C301	C30	0.953400	0.276200	0.436800
C311	C31	0.511000	0.337400	0.894800
C321	C32	0.947000	0.808200	0.516900
C331	C33	0.652200	0.242900	0.945300
C341	C34	0.347800	0.757100	0.054700
C351	C35	0.097800	0.188900	0.057300
C361	C36	0.967800	0.625400	0.999000
C371	C37	0.780400	0.477700	0.734700
C381	C38	0.947000	0.691800	0.983100
C391	C39	0.473800	0.085500	0.548800
C401	C40	0.875500	0.986800	0.615600
C411	C41	0.766700	0.068800	0.831700
C421	C42	0.798700	0.773300	0.515100
C431	C43	0.902200	0.811100	0.942700
C441	C44	0.974800	0.476300	0.139400
C451	C45	0.136600	0.041200	0.174000
C461	C46	0.192100	0.985200	0.190200
C471	C47	0.406400	0.651400	0.862000
C481	C48	0.593600	0.151400	0.362000
C491	C49	0.130800	0.487200	0.198300
C501	C50	0.347800	0.742900	0.445300
C511	C51	0.884200	0.990100	0.571200
C521	C52	0.652200	0.257100	0.554700
C531	C53	0.798700	0.726700	0.984900
C541	C54	0.233300	0.568800	0.331700
C551	C55	0.863400	0.541200	0.674000
C561	C56	0.688200	0.826400	0.616600
C571	C57	0.457900	0.777500	0.380700
C581	C58	0.489000	0.837400	0.394800
C591	C59	0.766700	0.431200	0.668300
C601	C60	0.607900	0.307000	0.960000
C611	C61	0.046600	0.776200	0.936800
C621	C62	0.020700	0.524400	0.821400
C631	C63	0.272300	0.498000	0.178400
C641	C64	0.124500	0.013200	0.384400
C651	C65	0.244500	0.617800	0.402700
C661	C66	0.869200	0.512800	0.801700
C671	C67	0.727700	0.998000	0.678400
C681	C68	0.162200	0.506500	0.391500
C691	C69	0.474300	0.851500	0.436200
C701	C70	0.902200	0.688900	0.557300
C711	C71	0.223600	0.288400	0.467000
C721	C72	0.046600	0.723800	0.563200
C731	C73	0.274900	0.499400	0.136300
C741	C74	0.380600	0.774800	0.093300
C751	C75	0.979300	0.024400	0.321400
C761	C76	0.526200	0.585500	0.048800
C771	C77	0.496600	0.886500	0.574700
C781	C78	0.219600	0.977700	0.234700
C791	C79	0.223600	0.211600	0.033000
C801	C80	0.392100	0.693000	0.040000
C811	C81	0.688200	0.673600	0.883400
C821	C82	0.919000	0.885500	0.883100
C831	C83	0.219300	0.566100	0.374600
C841	C84	0.542100	0.277500	0.880700
C851	C85	0.192100	0.514800	0.309800
C861	C86	0.727700	0.502000	0.821600
C871	C87	0.526200	0.914500	0.451200
C881	C88	0.070300	0.780800	0.541900
C891	C89	0.127200	0.450200	0.366700
C901	C90	0.162200	0.993500	0.108500
C911	C91	0.124500	0.486800	0.115600
C921	C92	0.272300	0.002000	0.321600
C931	C93	0.032200	0.125400	0.499000
C941	C94	0.136600	0.458800	0.326000
C951	C95	0.780400	0.022300	0.765300
C961	C96	0.311800	0.173600	0.383400
C971	C97	0.974800	0.023700	0.360600
C981	C98	0.201300	0.226700	0.484900
C991	C99	0.244500	0.882200	0.097300
C1001	C100	0.919000	0.614500	0.616900
C1011	C101	0.032200	0.374600	0.001000
C1021	C102	0.115800	0.009900	0.428800
C1031	C103	0.380600	0.725200	0.406700
C1041	C104	0.070300	0.719200	0.958100
C1051	C105	0.130800	0.012800	0.301700
C1061	C106	0.473800	0.414500	0.951200
C1071	C107	0.776400	0.711600	0.533000
C1081	C108	0.025200	0.976300	0.639400
C1091	C109	0.884200	0.509900	0.928800
C1101	C110	0.593600	0.348600	0.138000
C1111	C111	0.863400	0.958800	0.826000
C1121	C112	0.020700	0.975600	0.678600
C1131	C113	0.776400	0.788400	0.967000
C1141	C114	0.115800	0.490100	0.071200
C1151	C115	0.474300	0.648500	0.063800
C1161	C116	0.542100	0.222500	0.619300
C1171	C117	0.780700	0.066100	0.874600
C1181	C118	0.025200	0.523700	0.860600
C1191	C119	0.872800	0.549800	0.633300
C1201	C120	0.929700	0.219200	0.458100
C1211	C121	0.780700	0.433900	0.625400
C1221	C122	0.503400	0.113500	0.425300
C1231	C123	0.406400	0.848600	0.638000
C1241	C124	0.725100	0.500600	0.863700
C1251	C125	0.097800	0.311100	0.442700
C1261	C126	0.219600	0.522300	0.265300
C1271	C127	0.619400	0.225200	0.906700
C1281	C128	0.489000	0.662600	0.105200
C1291	C129	0.755500	0.382200	0.597300
C1301	C130	0.967800	0.874600	0.501000
C1311	C131	0.979300	0.475600	0.178600
C1321	C132	0.725100	0.999400	0.636300
N11	N1	0.518400	0.853900	0.606700
N21	N2	0.343900	0.669100	0.387600
N31	N3	0.138700	0.371300	0.421500
N41	N4	0.118200	0.487000	0.241000
N51	N5	0.656100	0.330900	0.612400
N61	N6	0.481600	0.146100	0.393300
N71	N7	0.861300	0.628700	0.578500
N81	N8	0.881800	0.987000	0.741000
N91	N9	0.138700	0.128700	0.078500
N101	N10	0.518400	0.646100	0.893300
N111	N11	0.656100	0.169100	0.887600
N121	N12	0.481600	0.353900	0.106700
N131	N13	0.881800	0.513000	0.759000
N141	N14	0.118200	0.013000	0.259000
N151	N15	0.343900	0.830900	0.112400
N161	N16	0.861300	0.871300	0.921500
O11	O1	0.375700	0.050070	0.569730
O21	O2	0.027700	0.512420	0.944980
O31	O3	0.878600	0.103720	0.502280
O41	O4	0.839600	0.594550	0.009550
O51	O5	0.997300	0.650800	0.637400
O61	O6	0.624300	0.949930	0.430270
O71	O7	0.878600	0.396280	0.997720
O81	O8	0.330400	0.557900	0.251700
O91	O9	0.972300	0.487580	0.055020
O101	O10	0.002700	0.150800	0.137400
O111	O11	0.839600	0.905450	0.490450
O121	O12	0.504000	0.434720	0.986880
O131	O13	0.997300	0.849200	0.862600
O141	O14	0.002700	0.349200	0.362600
O151	O15	0.355400	0.911800	0.566500
O161	O16	0.160400	0.094550	0.509550
O171	O17	0.624300	0.550070	0.069730
O181	O18	0.355400	0.588200	0.933500
O191	O19	0.027700	0.987580	0.555020
O201	O20	0.669600	0.057900	0.751700
O211	O21	0.811000	0.382100	0.564600
O221	O22	0.504000	0.065280	0.513120
O231	O23	0.496000	0.565280	0.013120
O241	O24	0.669600	0.442100	0.748300
O251	O25	0.496000	0.934720	0.486880
O261	O26	0.972300	0.012420	0.444980
O271	O27	0.330400	0.942100	0.248300
O281	O28	0.121400	0.603720	0.002280
O291	O29	0.644600	0.411800	0.066500
O301	O30	0.749200	0.494140	0.948660
O311	O31	0.160400	0.405450	0.990450
O321	O32	0.121400	0.896280	0.497720
O331	O33	0.250800	0.994140	0.448660
O341	O34	0.189000	0.617900	0.435400
O351	O35	0.250800	0.505860	0.051340
O361	O36	0.811000	0.117900	0.935400
O371	O37	0.749200	0.005860	0.551340
O381	O38	0.189000	0.882100	0.064600
O391	O39	0.644600	0.088200	0.433500
O401	O40	0.375700	0.449930	0.930270
