data_ic5028256_si_002_freeONLY_PM
_symmetry_space_group_name_H-M	'P1'
_cell_length_a	14.669300
_cell_length_b	14.669300
_cell_length_c	14.669300
_cell_angle_alpha	109.471000
_cell_angle_beta	109.471000
_cell_angle_gamma	109.471000
_symmetry_Int_Tables_number 1

loop_
_symmetry_equiv_pos_as_xyz
'x,y,z'

loop_
_atom_site_label
_atom_site_type_symbol
_atom_site_fract_x
_atom_site_fract_y
_atom_site_fract_z
Zn11	Zn1	0.750000	0.500000	0.250000
Zn21	Zn2	0.250000	0.500000	0.750000
Zn31	Zn3	0.750000	0.250000	0.500000
Zn41	Zn4	0.250000	0.750000	0.500000
Zn51	Zn5	0.500000	0.250000	0.750000
Zn61	Zn6	0.500000	0.750000	0.250000
H11	H1	0.125250	0.658060	0.239260
H21	H2	0.581200	0.467190	0.341940
H31	H3	0.000000	0.365450	0.472830
H41	H4	0.241700	0.449320	0.930750
H51	H5	0.365450	0.472840	0.000000
H61	H6	0.467190	0.581200	0.341940
H71	H7	0.689050	0.207610	0.758300
H81	H8	0.758300	0.689050	0.207610
H91	H9	0.792380	0.481430	0.550680
H101	H10	0.467190	0.341940	0.581200
H111	H11	0.518560	0.310940	0.069250
H121	H12	0.885990	0.760740	0.418800
H131	H13	0.114010	0.532810	0.874750
H141	H14	0.689050	0.758300	0.207610
H151	H15	0.481440	0.550690	0.792390
H161	H16	0.125250	0.239260	0.658060
H171	H17	0.449310	0.930750	0.241690
H181	H18	0.527170	0.892620	0.527170
H191	H19	0.792380	0.550680	0.481430
H201	H20	0.418800	0.885990	0.760740
H211	H21	0.472830	0.365440	0.000000
H221	H22	0.760740	0.885990	0.418800
H231	H23	0.930750	0.241700	0.449310
H241	H24	0.310950	0.069250	0.518570
H251	H25	0.885990	0.418800	0.760740
H261	H26	0.634550	0.107380	0.634550
H271	H27	0.069250	0.310950	0.518560
H281	H28	0.481440	0.792390	0.550690
H291	H29	0.527170	0.527170	0.892620
H301	H30	0.472830	0.000000	0.365440
H311	H31	0.658060	0.239260	0.125250
H321	H32	0.550690	0.792390	0.481440
H331	H33	0.550690	0.481440	0.792390
H341	H34	0.239260	0.658060	0.125250
H351	H35	0.634550	0.634550	0.107380
H361	H36	0.241700	0.930750	0.449320
H371	H37	0.114010	0.874750	0.532810
H381	H38	0.341940	0.467190	0.581200
H391	H39	0.758300	0.207610	0.689050
H401	H40	0.207620	0.689060	0.758310
H411	H41	0.000000	0.472830	0.365450
H421	H42	0.532810	0.874750	0.114010
H431	H43	0.239260	0.125250	0.658060
H441	H44	0.107390	0.634560	0.634560
H451	H45	0.365450	0.000000	0.472840
H461	H46	0.418800	0.760740	0.885990
H471	H47	0.892610	0.527160	0.527160
H481	H48	0.874750	0.114010	0.532810
H491	H49	0.874750	0.532810	0.114010
H501	H50	0.310950	0.518570	0.069250
H511	H51	0.760740	0.418800	0.885990
H521	H52	0.207620	0.758310	0.689060
H531	H53	0.581200	0.341940	0.467190
H541	H54	0.658060	0.125250	0.239260
H551	H55	0.930750	0.449310	0.241700
H561	H56	0.449310	0.241690	0.930750
H571	H57	0.341940	0.581200	0.467190
H581	H58	0.069250	0.518560	0.310950
H591	H59	0.518560	0.069250	0.310940
H601	H60	0.532810	0.114010	0.874750
C11	C1	0.056790	0.476820	0.791290
C21	C2	0.489180	0.489180	0.806900
C31	C3	0.629760	0.247080	0.629760
C41	C4	0.943210	0.420030	0.734500
C51	C5	0.370240	0.617320	0.000000
C61	C6	0.314470	0.523180	0.579970
C71	C7	0.579970	0.523180	0.314470
C81	C8	0.682280	0.193100	0.682280
C91	C9	0.629760	0.629760	0.247080
C101	C10	0.000000	0.317720	0.510820
C111	C11	0.370240	0.000000	0.617320
C121	C12	0.489180	0.806900	0.489180
C131	C13	0.579970	0.314470	0.523180
C141	C14	0.000000	0.510820	0.317720
C151	C15	0.685530	0.208710	0.265500
C161	C16	0.943210	0.734500	0.420030
C171	C17	0.617320	0.000000	0.370240
C181	C18	0.000000	0.370240	0.617320
C191	C19	0.523180	0.314470	0.579970
C201	C20	0.317720	0.510820	0.000000
C211	C21	0.382680	0.382680	0.752920
C221	C22	0.685530	0.265500	0.208710
C231	C23	0.617320	0.370240	0.000000
C241	C24	0.476820	0.056790	0.791290
C251	C25	0.476820	0.791290	0.056790
C261	C26	0.734500	0.420030	0.943210
C271	C27	0.791290	0.056790	0.476820
C281	C28	0.510820	0.000000	0.317720
C291	C29	0.734500	0.943210	0.420030
C301	C30	0.682280	0.682280	0.193100
C311	C31	0.247080	0.629760	0.629760
C321	C32	0.510820	0.317720	0.000000
C331	C33	0.806900	0.489180	0.489180
C341	C34	0.791290	0.476820	0.056790
C351	C35	0.265500	0.208710	0.685530
C361	C36	0.208710	0.265500	0.685530
C371	C37	0.420030	0.734500	0.943210
C381	C38	0.317720	0.000000	0.510820
C391	C39	0.265500	0.685530	0.208710
C401	C40	0.193100	0.682280	0.682280
C411	C41	0.420030	0.943210	0.734500
C421	C42	0.056790	0.791290	0.476820
C431	C43	0.523180	0.579970	0.314470
C441	C44	0.752920	0.382680	0.382680
C451	C45	0.382680	0.752920	0.382680
C461	C46	0.208710	0.685530	0.265500
C471	C47	0.000000	0.617320	0.370240
C481	C48	0.314470	0.579970	0.523180
N11	N1	0.271970	0.555230	0.647960
N21	N2	0.092730	0.444770	0.716740
N31	N3	0.728030	0.283260	0.375990
N41	N4	0.716740	0.444770	0.092730
N51	N5	0.555230	0.271970	0.647960
N61	N6	0.555230	0.647960	0.271970
N71	N7	0.352040	0.624010	0.907270
N81	N8	0.647960	0.555230	0.271970
N91	N9	0.728030	0.375990	0.283260
N101	N10	0.444770	0.716740	0.092730
N111	N11	0.624010	0.907270	0.352040
N121	N12	0.375990	0.283260	0.728030
N131	N13	0.271970	0.647960	0.555230
N141	N14	0.907270	0.352040	0.624010
N151	N15	0.283260	0.375990	0.728030
N161	N16	0.092730	0.716740	0.444770
N171	N17	0.352040	0.907270	0.624010
N181	N18	0.444770	0.092730	0.716740
N191	N19	0.716740	0.092730	0.444770
N201	N20	0.907270	0.624010	0.352040
N211	N21	0.375990	0.728030	0.283260
N221	N22	0.624010	0.352040	0.907270
N231	N23	0.283260	0.728030	0.375990
N241	N24	0.647960	0.271970	0.555230
