data_ic5021302_si_002_freeONLY_PM
_symmetry_space_group_name_H-M	'P1'
_cell_length_a	18.268200
_cell_length_b	18.268200
_cell_length_c	21.574900
_cell_angle_alpha	69.640300
_cell_angle_beta	69.640300
_cell_angle_gamma	100.266000
_symmetry_Int_Tables_number 1

loop_
_symmetry_equiv_pos_as_xyz
'x,y,z'

loop_
_atom_site_label
_atom_site_type_symbol
_atom_site_fract_x
_atom_site_fract_y
_atom_site_fract_z
Ce11	Ce1	0.852120	0.102120	0.750000
Ce21	Ce2	0.147880	0.897880	0.250000
Ce31	Ce3	0.602120	0.352120	0.250000
Ce41	Ce4	0.397880	0.647880	0.750000
Co11	Co1	0.892170	0.607830	0.750000
Co21	Co2	0.357830	0.142170	0.750000
Co31	Co3	0.107830	0.392170	0.250000
Co41	Co4	0.642170	0.857830	0.250000
H11	H1	0.882800	0.697200	0.605600
H21	H2	0.242300	0.860300	0.774200
H31	H3	0.697400	0.791400	0.045000
H41	H4	0.910100	0.446300	0.136600
H51	H5	0.360300	0.742300	0.274200
H61	H6	0.677700	0.671700	0.134600
H71	H7	0.950500	0.544700	0.633400
H81	H8	0.044700	0.450500	0.133400
H91	H9	0.821900	0.916100	0.133400
H101	H10	0.772800	0.822200	0.748600
H111	H11	0.302600	0.208600	0.955000
H121	H12	0.049500	0.455300	0.366600
H131	H13	0.242600	0.493600	0.270200
H141	H14	0.019800	0.217000	0.516400
H151	H15	0.697200	0.011600	0.105600
H161	H16	0.006400	0.257400	0.229800
H171	H17	0.639700	0.257700	0.725800
H181	H18	0.757700	0.139700	0.225800
H191	H19	0.708600	0.802600	0.455000
H201	H20	0.677800	0.727200	0.751400
H211	H21	0.171700	0.177700	0.634600
H221	H22	0.955300	0.549500	0.866600
H231	H23	0.812300	0.306300	0.865400
H241	H24	0.583900	0.678100	0.366600
H251	H25	0.322200	0.272800	0.248600
H261	H26	0.983500	0.865500	0.774200
H271	H27	0.117200	0.302800	0.394400
H281	H28	0.163600	0.757600	0.545000
H291	H29	0.980200	0.783000	0.483600
H301	H30	0.757400	0.506400	0.729800
H311	H31	0.511600	0.197200	0.605600
H321	H32	0.322300	0.328300	0.865400
H331	H33	0.187700	0.693700	0.134600
H341	H34	0.634500	0.516500	0.725800
H351	H35	0.733400	0.036200	0.983600
H361	H36	0.487200	0.736200	0.270200
H371	H37	0.417100	0.453300	0.636600
H381	H38	0.197200	0.382800	0.105600
H391	H39	0.488400	0.802800	0.394400
H401	H40	0.463800	0.766600	0.516400
H411	H41	0.512800	0.263800	0.729800
H421	H42	0.416100	0.321900	0.633400
H431	H43	0.521400	0.070800	0.251400
H441	H44	0.536200	0.233400	0.483600
H451	H45	0.742400	0.336400	0.955000
H461	H46	0.283000	0.480200	0.983600
H471	H47	0.953300	0.917100	0.136600
H481	H48	0.763800	0.012800	0.229800
H491	H49	0.227200	0.177800	0.251400
H501	H50	0.946300	0.410100	0.636600
H511	H51	0.089900	0.553700	0.863400
H521	H52	0.365500	0.483500	0.274200
H531	H53	0.178100	0.083900	0.866600
H541	H54	0.993600	0.742600	0.770200
H551	H55	0.478600	0.929200	0.748600
H561	H56	0.429200	0.978600	0.248600
H571	H57	0.291400	0.197400	0.545000
H581	H58	0.717000	0.519800	0.016400
H591	H59	0.828300	0.822300	0.365400
H601	H60	0.257600	0.663600	0.045000
H611	H61	0.236200	0.987200	0.770200
H621	H62	0.582900	0.546700	0.363400
H631	H63	0.570800	0.021400	0.751400
H641	H64	0.016500	0.134500	0.225800
H651	H65	0.193700	0.687700	0.634600
H661	H66	0.806300	0.312300	0.365400
H671	H67	0.053700	0.589900	0.363400
H681	H68	0.266600	0.963800	0.016400
H691	H69	0.836400	0.242400	0.455000
H701	H70	0.046700	0.082900	0.863400
H711	H71	0.802800	0.617200	0.894400
H721	H72	0.302800	0.988400	0.894400
C11	C1	0.439870	0.928270	0.253860
C21	C2	0.739120	0.502120	0.979560
C31	C3	0.942650	0.832050	0.768300
C41	C4	0.638950	0.118550	0.238500
C51	C5	0.157290	0.642690	0.184020
C61	C6	0.994730	0.424530	0.182740
C71	C7	0.245430	0.606430	0.056540
C81	C8	0.152090	0.619930	0.747580
C91	C9	0.656650	0.746150	0.190000
C101	C10	0.936150	0.346650	0.310000
C111	C11	0.279730	0.582130	0.002340
C121	C12	0.282070	0.084470	0.997660
C131	C13	0.420120	0.013620	0.754060
C141	C14	0.147160	0.839560	0.423280
C151	C15	0.524980	0.214380	0.733640
C161	C16	0.367510	0.399670	0.752420
C171	C17	0.847910	0.380070	0.252420
C181	C18	0.481680	0.218680	0.520440
C191	C19	0.369930	0.801730	0.758340
C201	C20	0.630070	0.198270	0.241660
C211	C21	0.917870	0.220270	0.497660
C221	C22	0.486380	0.079880	0.745940
C231	C23	0.301970	0.162970	0.943460
C241	C24	0.842710	0.357310	0.815980
C251	C25	0.642950	0.622550	0.738500
C261	C26	0.893570	0.254570	0.443460
C271	C27	0.100330	0.132490	0.747580
C281	C28	0.940220	0.709120	0.593060
C291	C29	0.046080	0.693120	0.627800
C301	C30	0.605890	0.602490	0.315020
C311	C31	0.232320	0.325820	0.254060
C321	C32	0.122550	0.142950	0.238500
C331	C33	0.246150	0.156650	0.690000
C341	C34	0.570440	0.762840	0.576720
C351	C35	0.899670	0.867510	0.252420
C361	C36	0.357050	0.377450	0.261500
C371	C37	0.658690	0.673290	0.184020
C381	C38	0.173290	0.158690	0.684020
C391	C39	0.717930	0.915530	0.002340
C401	C40	0.392730	0.322530	0.682740
C411	C41	0.857310	0.342710	0.315980
C421	C42	0.102490	0.105890	0.815020
C431	C43	0.361050	0.881450	0.761500
C441	C44	0.057350	0.167950	0.231700
C451	C45	0.997880	0.760880	0.520440
C461	C46	0.051980	0.241380	0.233640
C471	C47	0.475020	0.785620	0.266360
C481	C48	0.980490	0.867130	0.257380
C491	C49	0.897510	0.894110	0.184980
C501	C50	0.262840	0.070440	0.076720
C511	C51	0.917510	0.420910	0.184980
C521	C52	0.718680	0.981680	0.020440
C531	C53	0.281320	0.018320	0.979560
C541	C54	0.119930	0.652090	0.247580
C551	C55	0.871730	0.939930	0.758340
C561	C56	0.948020	0.758620	0.766360
C571	C57	0.741380	0.551980	0.733640
C581	C58	0.399650	0.789050	0.268300
C591	C59	0.953920	0.306880	0.372200
C601	C60	0.019510	0.132870	0.742620
C611	C61	0.618550	0.138950	0.738500
C621	C62	0.260880	0.497880	0.020440
C631	C63	0.343350	0.253850	0.810000
C641	C64	0.289050	0.899650	0.768300
C651	C65	0.306270	0.317870	0.253860
C661	C66	0.754570	0.393570	0.943460
C671	C67	0.518320	0.781320	0.479560
C681	C68	0.082490	0.579090	0.815020
C691	C69	0.128270	0.060070	0.241660
C701	C70	0.662970	0.801970	0.443460
C711	C71	0.660440	0.352840	0.076720
C721	C72	0.673880	0.820920	0.372200
C731	C73	0.513620	0.920120	0.254060
C741	C74	0.720270	0.417870	0.997660
C751	C75	0.924530	0.494730	0.682740
C761	C76	0.429560	0.237160	0.423280
C771	C77	0.177470	0.107270	0.817260
C781	C78	0.679080	0.826120	0.127800
C791	C79	0.846650	0.436150	0.810000
C801	C80	0.428270	0.939870	0.753860
C811	C81	0.258620	0.448020	0.266360
C821	C82	0.106430	0.745430	0.556540
C831	C83	0.579880	0.986380	0.245940
C841	C84	0.302180	0.033280	0.906940
C851	C85	0.710950	0.100350	0.231700
C861	C86	0.153350	0.563850	0.190000
C871	C87	0.790880	0.559780	0.906940
C881	C88	0.124510	0.737870	0.242620
C891	C89	0.466720	0.197820	0.593060
C901	C90	0.560130	0.071730	0.746140
C911	C91	0.367130	0.480490	0.757380
C921	C92	0.826710	0.841310	0.315980
C931	C93	0.082130	0.779730	0.502340
C941	C94	0.394110	0.397510	0.684980
C951	C95	0.533280	0.802180	0.406940
C961	C96	0.697820	0.966720	0.093060
C971	C97	0.806880	0.453920	0.872200
C981	C98	0.237870	0.624510	0.742620
C991	C99	0.326120	0.179080	0.627800
C1001	C100	0.415530	0.217930	0.502340
C1011	C101	0.767680	0.674180	0.745940
C1021	C102	0.571730	0.060130	0.246140
C1031	C103	0.142690	0.657290	0.684020
C1041	C104	0.002120	0.239120	0.479560
C1051	C105	0.075470	0.505270	0.317260
C1061	C106	0.693730	0.682130	0.746140
C1071	C107	0.875490	0.262130	0.757380
C1081	C108	0.737160	0.929560	0.923280
C1091	C109	0.301730	0.869930	0.258340
C1101	C110	0.332050	0.442650	0.268300
C1111	C111	0.381450	0.861050	0.261500
C1121	C112	0.825820	0.732320	0.754060
C1131	C113	0.339560	0.647160	0.923280
C1141	C114	0.822530	0.892730	0.182740
C1151	C115	0.880070	0.347910	0.752420
C1161	C116	0.059780	0.290880	0.406940
C1171	C117	0.600350	0.210950	0.731700
C1181	C118	0.852840	0.160440	0.576720
C1191	C119	0.920910	0.417510	0.684980
C1201	C120	0.079090	0.582490	0.315020
C1211	C121	0.174180	0.267680	0.245940
C1221	C122	0.714380	0.024980	0.233640
C1231	C123	0.877450	0.857050	0.761500
C1241	C124	0.439930	0.371730	0.258340
C1251	C125	0.063850	0.653350	0.690000
C1261	C126	0.560070	0.628270	0.741660
C1271	C127	0.607270	0.677470	0.317260
C1281	C128	0.632870	0.519510	0.242620
C1291	C129	0.762130	0.375490	0.257380
C1301	C130	0.698270	0.130070	0.741660
C1311	C131	0.632490	0.600330	0.247580
C1321	C132	0.005270	0.575470	0.817260
C1331	C133	0.341310	0.326710	0.815980
C1341	C134	0.209120	0.440220	0.093060
C1351	C135	0.285620	0.975020	0.766360
C1361	C136	0.337030	0.198030	0.556540
C1371	C137	0.584470	0.782070	0.497660
C1381	C138	0.193120	0.546080	0.127800
C1391	C139	0.182130	0.193730	0.246140
C1401	C140	0.753850	0.843350	0.310000
C1411	C141	0.320920	0.173880	0.872200
C1421	C142	0.817870	0.806270	0.753860
C1431	C143	0.698030	0.837030	0.056540
C1441	C144	0.667950	0.557350	0.731700
N11	N1	0.390830	0.178530	0.645840
N21	N2	0.247940	0.132300	0.756360
N31	N3	0.349530	0.031930	0.759180
N41	N4	0.367700	0.252060	0.743640
N51	N5	0.995700	0.611340	0.756360
N61	N6	0.888660	0.504300	0.743640
N71	N7	0.791110	0.608710	0.740820
N81	N8	0.963330	0.675630	0.645840
N91	N9	0.650470	0.968070	0.240820
N101	N10	0.468070	0.150470	0.740820
N111	N11	0.004300	0.388660	0.243640
N121	N12	0.824370	0.536670	0.854160
N131	N13	0.036670	0.324370	0.354160
N141	N14	0.678530	0.890830	0.145840
N151	N15	0.632300	0.747940	0.256360
N161	N16	0.891290	0.708890	0.759180
N171	N17	0.531930	0.849530	0.259180
N181	N18	0.208890	0.391290	0.259180
N191	N19	0.321470	0.109170	0.854160
N201	N20	0.752060	0.867700	0.243640
N211	N21	0.175630	0.463330	0.145840
N221	N22	0.111340	0.495700	0.256360
N231	N23	0.108710	0.291110	0.240820
N241	N24	0.609170	0.821470	0.354160
O11	O1	0.559240	0.200380	0.270180
O21	O2	0.700380	0.059240	0.770180
O31	O3	0.220210	0.865210	0.412380
O41	O4	0.759170	0.195830	0.713400
O51	O5	0.984550	0.859790	0.316080
O61	O6	0.234600	0.995820	0.123180
O71	O7	0.695830	0.259170	0.213400
O81	O8	0.779790	0.134790	0.587620
O91	O9	0.367410	0.222410	0.412380
O101	O10	0.624990	0.460070	0.298520
O111	O11	0.119000	0.857780	0.376820
O121	O12	0.015450	0.140210	0.683920
O131	O13	0.440760	0.799620	0.729820
O141	O14	0.175870	0.800630	0.183920
O151	O15	0.881000	0.142220	0.623180
O161	O16	0.090770	0.027430	0.213400
O171	O17	0.495820	0.734600	0.623180
O181	O18	0.375010	0.539930	0.701480
O191	O19	0.241410	0.576490	0.798520
O201	O20	0.765400	0.004180	0.876820
O211	O21	0.170580	0.029440	0.270180
O221	O22	0.642220	0.381000	0.123180
O231	O23	0.277590	0.132590	0.087620
O241	O24	0.357780	0.619000	0.876820
O251	O25	0.632590	0.777590	0.587620
O261	O26	0.472570	0.409230	0.286600
O271	O27	0.039930	0.875010	0.201480
O281	O28	0.470560	0.329420	0.229820
O291	O29	0.634790	0.279790	0.087620
O301	O30	0.076490	0.741410	0.298520
O311	O31	0.529440	0.670580	0.770180
O321	O32	0.504180	0.265400	0.376820
O331	O33	0.527430	0.590770	0.713400
O341	O34	0.909230	0.972570	0.786600
O351	O35	0.923510	0.258590	0.701480
O361	O36	0.829420	0.970560	0.729820
O371	O37	0.640210	0.515450	0.183920
O381	O38	0.960070	0.124990	0.798520
O391	O39	0.300630	0.675870	0.683920
O401	O40	0.240830	0.804170	0.286600
O411	O41	0.699370	0.324130	0.316080
O421	O42	0.824130	0.199370	0.816080
O431	O43	0.758590	0.423510	0.201480
O441	O44	0.722410	0.867410	0.912380
O451	O45	0.299620	0.940760	0.229820
O461	O46	0.304170	0.740830	0.786600
O471	O47	0.359790	0.484550	0.816080
O481	O48	0.365210	0.720210	0.912380
