data_ic502254c_si_002_freeONLY_PM
_symmetry_space_group_name_H-M	'P1'
_cell_length_a	20.519500
_cell_length_b	20.519500
_cell_length_c	20.519500
_cell_angle_alpha	92.206300
_cell_angle_beta	92.206300
_cell_angle_gamma	92.206300
_symmetry_Int_Tables_number 1

loop_
_symmetry_equiv_pos_as_xyz
'x,y,z'

loop_
_atom_site_label
_atom_site_type_symbol
_atom_site_fract_x
_atom_site_fract_y
_atom_site_fract_z
Zn11	Zn1	0.669540	0.968190	0.539610
Zn21	Zn2	0.539610	0.669540	0.968190
Zn31	Zn3	0.031810	0.330460	0.460390
Zn41	Zn4	0.663850	0.690670	0.857470
Zn51	Zn5	0.336150	0.142530	0.309330
Zn61	Zn6	0.857470	0.663850	0.690670
Zn71	Zn7	0.309330	0.336150	0.142530
Zn81	Zn8	0.968190	0.539610	0.669540
Zn91	Zn9	0.142530	0.309330	0.336150
Zn101	Zn10	0.330460	0.460390	0.031810
Zn111	Zn11	0.460390	0.031810	0.330460
Zn121	Zn12	0.690670	0.857470	0.663850
H11	H1	0.877000	0.434900	0.055300
H21	H2	0.540400	0.940600	0.739800
H31	H3	0.581000	0.111600	0.053900
H41	H4	0.055300	0.877000	0.434900
H51	H5	0.081100	0.150700	0.545000
H61	H6	0.459600	0.260200	0.059400
H71	H7	0.668600	0.608600	0.109000
H81	H8	0.077700	0.887100	0.650300
H91	H9	0.111600	0.053900	0.581000
H101	H10	0.922300	0.349700	0.112900
H111	H11	0.003900	0.543800	0.308300
H121	H12	0.391400	0.331400	0.891000
H131	H13	0.731400	0.393000	0.173800
H141	H14	0.496100	0.396900	0.945000
H151	H15	0.002200	0.812000	0.683300
H161	H16	0.812000	0.683300	0.002200
H171	H17	0.655900	0.369900	0.842200
H181	H18	0.188000	0.997800	0.316700
H191	H19	0.112900	0.922300	0.349700
H201	H20	0.182300	0.744100	0.570500
H211	H21	0.503200	0.506300	0.925100
H221	H22	0.944700	0.565100	0.123000
H231	H23	0.842200	0.655900	0.369900
H241	H24	0.150700	0.545000	0.081100
H251	H25	0.521300	0.336800	0.171900
H261	H26	0.888400	0.419000	0.946100
H271	H27	0.331400	0.891000	0.391400
H281	H28	0.630100	0.344100	0.157800
H291	H29	0.308300	0.003900	0.543800
H301	H30	0.828100	0.663200	0.478700
H311	H31	0.683300	0.002200	0.812000
H321	H32	0.369900	0.842200	0.655900
H331	H33	0.074900	0.493700	0.496800
H341	H34	0.419000	0.946100	0.888400
H351	H35	0.739800	0.540400	0.940600
H361	H36	0.059400	0.459600	0.260200
H371	H37	0.222800	0.153100	0.417400
H381	H38	0.663200	0.478700	0.828100
H391	H39	0.918900	0.455000	0.849300
H401	H40	0.925100	0.503200	0.506300
H411	H41	0.396900	0.945000	0.496100
H421	H42	0.691700	0.456200	0.996100
H431	H43	0.255900	0.817700	0.429500
H441	H44	0.157800	0.630100	0.344100
H451	H45	0.887100	0.650300	0.077700
H461	H46	0.478700	0.828100	0.663200
H471	H47	0.336800	0.171900	0.521300
H481	H48	0.506300	0.925100	0.503200
H491	H49	0.940600	0.739800	0.540400
H501	H50	0.946100	0.888400	0.419000
H511	H51	0.496800	0.074900	0.493700
H521	H52	0.429500	0.255900	0.817700
H531	H53	0.260200	0.059400	0.459600
H541	H54	0.055000	0.603100	0.503900
H551	H55	0.493700	0.496800	0.074900
H561	H56	0.434900	0.055300	0.877000
H571	H57	0.171900	0.521300	0.336800
H581	H58	0.744100	0.570500	0.182300
H591	H59	0.123000	0.944700	0.565100
H601	H60	0.945000	0.496100	0.396900
H611	H61	0.826200	0.607000	0.268600
H621	H62	0.153100	0.417400	0.222800
H631	H63	0.632750	0.000000	0.367250
H641	H64	0.417400	0.222800	0.153100
H651	H65	0.543800	0.308300	0.003900
H661	H66	0.109000	0.668600	0.608600
H671	H67	0.455000	0.849300	0.918900
H681	H68	0.817700	0.429500	0.255900
H691	H69	0.503900	0.055000	0.603100
H701	H70	0.846900	0.777200	0.582600
H711	H71	0.456200	0.996100	0.691700
H721	H72	0.603100	0.503900	0.055000
H731	H73	0.997800	0.316700	0.188000
H741	H74	0.777200	0.582600	0.846900
H751	H75	0.570500	0.182300	0.744100
H761	H76	0.545000	0.081100	0.150700
H771	H77	0.053900	0.581000	0.111600
H781	H78	0.582600	0.846900	0.777200
H791	H79	0.608600	0.109000	0.668600
H801	H80	0.849300	0.918900	0.455000
H811	H81	0.607000	0.268600	0.826200
H821	H82	0.268600	0.826200	0.607000
H831	H83	0.316700	0.188000	0.997800
H841	H84	0.349700	0.112900	0.922300
H851	H85	0.996100	0.691700	0.456200
H861	H86	0.650300	0.077700	0.887100
H871	H87	0.000000	0.367250	0.632750
H881	H88	0.891000	0.391400	0.331400
H891	H89	0.173800	0.731400	0.393000
H901	H90	0.367250	0.632750	0.000000
H911	H91	0.565100	0.123000	0.944700
H921	H92	0.344100	0.157800	0.630100
H931	H93	0.393000	0.173800	0.731400
C11	C1	0.339920	0.201420	0.962120
C21	C2	0.897380	0.576980	0.369880
C31	C3	0.450660	0.924860	0.865260
C41	C4	0.883740	0.473550	0.869120
C51	C5	0.898200	0.385600	0.287100
C61	C6	0.340500	0.315800	0.006100
C71	C7	0.547420	0.213630	0.980410
C81	C8	0.416740	0.124840	0.495740
C91	C9	0.000000	0.398680	0.601330
C101	C10	0.549340	0.134740	0.075140
C111	C11	0.798580	0.660080	0.037880
C121	C12	0.461770	0.851370	0.628870
C131	C13	0.962120	0.339920	0.201420
C141	C14	0.851370	0.628870	0.461770
C151	C15	0.138390	0.826790	0.609090
C161	C16	0.644060	0.045260	0.732460
C171	C17	0.186580	0.875690	0.590300
C181	C18	0.853150	0.406150	0.242450
C191	C19	0.954740	0.355940	0.267540
C201	C20	0.064700	0.833100	0.432800
C211	C21	0.593850	0.146850	0.757550
C221	C22	0.807420	0.477160	0.951400
C231	C23	0.477160	0.951400	0.807420
C241	C24	0.045260	0.732460	0.644060
C251	C25	0.369880	0.897380	0.576980
C261	C26	0.077540	0.476040	0.223040
C271	C27	0.865260	0.450660	0.924860
C281	C28	0.037880	0.798580	0.660080
C291	C29	0.548930	0.866270	0.798910
C301	C30	0.451070	0.201090	0.133730
C311	C31	0.315800	0.006100	0.340500
C321	C32	0.122420	0.222400	0.446710
C331	C33	0.504260	0.875160	0.583260
C341	C34	0.019590	0.786370	0.452580
C351	C35	0.526450	0.116260	0.130880
C361	C36	0.921150	0.530250	0.413150
C371	C37	0.476040	0.223040	0.077540
C381	C38	0.385600	0.287100	0.898200
C391	C39	0.475480	0.147140	0.161830
C401	C40	0.420850	0.412750	0.134450
C411	C41	0.660080	0.037880	0.798580
C421	C42	0.746050	0.408700	0.134750
C431	C43	0.875690	0.590300	0.186580
C441	C44	0.201420	0.962120	0.339920
C451	C45	0.083880	0.843080	0.640980
C461	C46	0.223040	0.077540	0.476040
C471	C47	0.590300	0.186580	0.875690
C481	C48	0.970500	0.552320	0.278280
C491	C49	0.614400	0.101800	0.712900
C501	C50	0.201090	0.133730	0.451070
C511	C51	0.910030	0.570130	0.299430
C521	C52	0.630120	0.423020	0.102620
C531	C53	0.452580	0.019590	0.786370
C541	C54	0.408700	0.134750	0.746050
C551	C55	0.628870	0.461770	0.851370
C561	C56	0.124840	0.495740	0.416740
C571	C57	0.625410	0.396710	0.860610
C581	C58	0.909180	0.534580	0.479080
C591	C59	0.396710	0.860610	0.625410
C601	C60	0.432800	0.064700	0.833100
C611	C61	0.553290	0.777600	0.877580
C621	C62	0.359020	0.156920	0.916120
C631	C63	0.860610	0.625410	0.396710
C641	C64	0.869120	0.883740	0.473550
C651	C65	0.355940	0.267540	0.954740
C661	C66	0.102620	0.630120	0.423020
C671	C67	0.865550	0.587250	0.579150
C681	C68	0.826790	0.609090	0.138390
C691	C69	0.522840	0.192580	0.048600
C701	C70	0.603290	0.374590	0.139390
C711	C71	0.479080	0.909180	0.534580
C721	C72	0.924860	0.865260	0.450660
C731	C73	0.299430	0.910030	0.570130
C741	C74	0.412750	0.134450	0.420850
C751	C75	0.116260	0.130880	0.526450
C761	C76	0.833100	0.432800	0.064700
C771	C77	0.029500	0.721720	0.447680
C781	C78	0.398680	0.601330	0.000000
C791	C79	0.877580	0.553290	0.777600
C801	C80	0.601330	0.000000	0.398680
C811	C81	0.406150	0.242450	0.853150
C821	C82	0.413150	0.921150	0.530250
C831	C83	0.609090	0.138390	0.826790
C841	C84	0.757550	0.593850	0.146850
C851	C85	0.951400	0.807420	0.477160
C861	C86	0.374590	0.139390	0.603290
C871	C87	0.538230	0.371130	0.148630
C881	C88	0.980410	0.547420	0.213630
C891	C89	0.409700	0.124310	0.813420
C901	C90	0.124310	0.813420	0.409700
C911	C91	0.146850	0.757550	0.593850
C921	C92	0.659500	0.993900	0.684200
C931	C93	0.465420	0.090820	0.520920
C941	C94	0.865250	0.591300	0.253950
C951	C95	0.192580	0.048600	0.522840
C961	C96	0.587250	0.579150	0.865550
C971	C97	0.523960	0.922460	0.776960
C981	C98	0.161830	0.475480	0.147140
C991	C99	0.139390	0.603290	0.374590
C1001	C100	0.520920	0.465420	0.090820
C1011	C101	0.684200	0.659500	0.993900
C1021	C102	0.579150	0.865550	0.587250
C1031	C103	0.253950	0.865250	0.591300
C1041	C104	0.090820	0.520920	0.465420
C1051	C105	0.134750	0.746050	0.408700
C1061	C106	0.534580	0.479080	0.909180
C1071	C107	0.222400	0.446710	0.122420
C1081	C108	0.134740	0.075140	0.549340
C1091	C109	0.469750	0.078850	0.586850
C1101	C110	0.078850	0.586850	0.469750
C1111	C111	0.776960	0.523960	0.922460
C1121	C112	0.130880	0.526450	0.116260
C1131	C113	0.446710	0.122420	0.222400
C1141	C114	0.134450	0.420850	0.412750
C1151	C115	0.133730	0.451070	0.201090
C1161	C116	0.101800	0.712900	0.614400
C1171	C117	0.173210	0.861610	0.390910
C1181	C118	0.495740	0.416740	0.124840
C1191	C119	0.813420	0.409700	0.124310
C1201	C120	0.287100	0.898200	0.385600
C1211	C121	0.640980	0.083880	0.843080
C1221	C122	0.591300	0.253950	0.865250
C1231	C123	0.798910	0.548930	0.866270
C1241	C124	0.267540	0.954740	0.355940
C1251	C125	0.552320	0.278280	0.970500
C1261	C126	0.922460	0.776960	0.523960
C1271	C127	0.712900	0.614400	0.101800
C1281	C128	0.786370	0.452580	0.019590
C1291	C129	0.048600	0.522840	0.192580
C1301	C130	0.278280	0.970500	0.552320
C1311	C131	0.700570	0.429870	0.089970
C1321	C132	0.423020	0.102620	0.630120
C1331	C133	0.530250	0.413150	0.921150
C1341	C134	0.916120	0.359020	0.156920
C1351	C135	0.075140	0.549340	0.134740
C1361	C136	0.586850	0.469750	0.078850
C1371	C137	0.576980	0.369880	0.897380
C1381	C138	0.524520	0.838170	0.852860
C1391	C139	0.166900	0.935300	0.567200
C1401	C140	0.006100	0.340500	0.315800
C1411	C141	0.777600	0.877580	0.553290
C1421	C142	0.861610	0.390910	0.173210
C1431	C143	0.875160	0.583260	0.504260
C1441	C144	0.147140	0.161830	0.475480
C1451	C145	0.371130	0.148630	0.538230
C1461	C146	0.567200	0.166900	0.935300
C1471	C147	0.732460	0.644060	0.045260
C1481	C148	0.852860	0.524520	0.838170
C1491	C149	0.583260	0.504260	0.875160
C1501	C150	0.473550	0.869120	0.883740
C1511	C151	0.838170	0.852860	0.524520
C1521	C152	0.156920	0.916120	0.359020
C1531	C153	0.935300	0.567200	0.166900
C1541	C154	0.089970	0.700570	0.429870
C1551	C155	0.721720	0.447680	0.029500
C1561	C156	0.866270	0.798910	0.548930
C1571	C157	0.570130	0.299430	0.910030
C1581	C158	0.213630	0.980410	0.547420
C1591	C159	0.390910	0.173210	0.861610
C1601	C160	0.242450	0.853150	0.406150
C1611	C161	0.843080	0.640980	0.083880
C1621	C162	0.148630	0.538230	0.371130
C1631	C163	0.429870	0.089970	0.700570
C1641	C164	0.447680	0.029500	0.721720
C1651	C165	0.993900	0.684200	0.659500
S11	S1	0.259150	0.259150	0.259150
S21	S2	0.740850	0.740850	0.740850
O11	O1	0.704600	0.691730	0.946220
O21	O2	0.308270	0.295400	0.053780
O31	O3	0.267050	0.196670	0.285440
O41	O4	0.358790	0.374260	0.998560
O51	O5	0.750900	0.925860	0.525740
O61	O6	0.474260	0.074140	0.249100
O71	O7	0.803330	0.732950	0.714560
O81	O8	0.295400	0.053780	0.308270
O91	O9	0.053780	0.308270	0.295400
O101	O10	0.757190	0.848550	0.602130
O111	O11	0.249100	0.474260	0.074140
O121	O12	0.998560	0.358790	0.374260
O131	O13	0.359750	0.157450	0.401830
O141	O14	0.008600	0.467000	0.625300
O151	O15	0.640250	0.598170	0.842550
O161	O16	0.157450	0.401830	0.359750
O171	O17	0.598170	0.842550	0.640250
O181	O18	0.285440	0.267050	0.196670
O191	O19	0.074140	0.249100	0.474260
O201	O20	0.691730	0.946220	0.704600
O211	O21	0.602130	0.757190	0.848550
O221	O22	0.401830	0.359750	0.157450
O231	O23	0.714560	0.803330	0.732950
O241	O24	0.543940	0.612800	0.885590
O251	O25	0.732950	0.714560	0.803330
O261	O26	0.114410	0.387200	0.456060
O271	O27	0.842550	0.640250	0.598170
O281	O28	0.946220	0.704600	0.691730
O291	O29	0.374700	0.533000	0.991400
O301	O30	0.641210	0.001440	0.625740
O311	O31	0.001440	0.625740	0.641210
O321	O32	0.625300	0.008600	0.467000
O331	O33	0.612800	0.885590	0.543940
O341	O34	0.196670	0.285440	0.267050
O351	O35	0.925860	0.525740	0.750900
O361	O36	0.467000	0.625300	0.008600
O371	O37	0.242810	0.397870	0.151450
O381	O38	0.151450	0.242810	0.397870
O391	O39	0.397870	0.151450	0.242810
O401	O40	0.387200	0.456060	0.114410
O411	O41	0.533000	0.991400	0.374700
O421	O42	0.374260	0.998560	0.358790
O431	O43	0.625740	0.641210	0.001440
O441	O44	0.991400	0.374700	0.533000
O451	O45	0.456060	0.114410	0.387200
O461	O46	0.525740	0.750900	0.925860
O471	O47	0.885590	0.543940	0.612800
O481	O48	0.848550	0.602130	0.757190
