data_ic5011133_si_002_freeONLY_PM
_symmetry_space_group_name_H-M	'P1'
_cell_length_a	11.253400
_cell_length_b	16.211700
_cell_length_c	33.311600
_cell_angle_alpha	90.000000
_cell_angle_beta	96.797400
_cell_angle_gamma	90.000000
_symmetry_Int_Tables_number 1

loop_
_symmetry_equiv_pos_as_xyz
'x,y,z'

loop_
_atom_site_label
_atom_site_type_symbol
_atom_site_fract_x
_atom_site_fract_y
_atom_site_fract_z
Co11	Co1	0.165200	0.565900	0.146580
Co21	Co2	0.077240	0.540750	0.464060
Co31	Co3	0.577240	0.959250	0.964060
Co41	Co4	0.878370	0.492860	0.114030
Co51	Co5	0.047910	0.420500	0.195030
Co61	Co6	0.621630	0.992860	0.385970
Co71	Co7	0.121630	0.507140	0.885970
Co81	Co8	0.422760	0.040750	0.035940
Co91	Co9	0.547910	0.079500	0.695030
Co101	Co10	0.952090	0.579500	0.804970
Co111	Co11	0.665200	0.934100	0.646580
Co121	Co12	0.452090	0.920500	0.304970
Co131	Co13	0.922760	0.459250	0.535940
Co141	Co14	0.334800	0.065900	0.353420
Co151	Co15	0.378370	0.007140	0.614030
Co161	Co16	0.834800	0.434100	0.853420
H11	H1	0.744000	0.330500	0.242400
H21	H2	0.260400	0.682400	0.380800
H31	H3	0.839500	0.707600	0.569100
H41	H4	0.442300	0.032100	0.194600
H51	H5	0.826000	0.728600	0.448300
H61	H6	0.739600	0.317600	0.619200
H71	H7	0.339500	0.792400	0.069100
H81	H8	0.806400	0.409800	0.987400
H91	H9	0.430400	0.552900	0.538100
H101	H10	0.097800	0.787300	0.117900
H111	H11	0.569600	0.447100	0.461900
H121	H12	0.279800	0.695500	0.261800
H131	H13	0.674000	0.228600	0.051700
H141	H14	0.942300	0.467900	0.694600
H151	H15	0.193600	0.590200	0.012600
H161	H16	0.930400	0.947100	0.038100
H171	H17	0.660500	0.207600	0.930900
H181	H18	0.174000	0.271400	0.551700
H191	H19	0.057700	0.532100	0.305400
H201	H20	0.720200	0.304500	0.738200
H211	H21	0.326000	0.771400	0.948300
H221	H22	0.779200	0.728600	0.057600
H231	H23	0.244000	0.169500	0.742400
H241	H24	0.387300	0.340900	0.241700
H251	H25	0.953400	0.977700	0.336500
H261	H26	0.693600	0.909800	0.512600
H271	H27	0.612700	0.659100	0.758300
H281	H28	0.160500	0.292400	0.430900
H291	H29	0.112700	0.840900	0.258300
H301	H30	0.557700	0.967900	0.805400
H311	H31	0.220800	0.271400	0.942400
H321	H32	0.220200	0.195500	0.238200
H331	H33	0.756000	0.830500	0.257600
H341	H34	0.239600	0.182400	0.119200
H351	H35	0.779800	0.804500	0.761800
H361	H36	0.887300	0.159100	0.741700
H371	H37	0.902200	0.212700	0.882100
H381	H38	0.546600	0.477700	0.163500
H391	H39	0.256000	0.669500	0.757600
H401	H40	0.453400	0.522300	0.836500
H411	H41	0.306400	0.090200	0.487400
H421	H42	0.402200	0.287300	0.382100
H431	H43	0.720800	0.228600	0.442400
H441	H44	0.760400	0.817600	0.880800
H451	H45	0.597800	0.712700	0.617900
H461	H46	0.279200	0.771400	0.557600
H471	H47	0.069600	0.052900	0.961900
H481	H48	0.046600	0.022300	0.663500
C11	C1	0.076990	0.233300	0.782090
C21	C2	0.402120	0.066000	0.116220
C31	C3	0.903910	0.623800	0.505910
C41	C4	0.769330	0.358700	0.988430
C51	C5	0.841850	0.765800	0.063250
C61	C6	0.933790	0.826800	0.252090
C71	C7	0.730670	0.858700	0.511570
C81	C8	0.336420	0.591800	0.799620
C91	C9	0.137340	0.275300	0.169540
C101	C10	0.288660	0.128400	0.564460
C111	C11	0.747570	0.828200	0.783470
C121	C12	0.836420	0.908200	0.299620
C131	C13	0.066210	0.173200	0.747910
C141	C14	0.637340	0.224700	0.669540
C151	C15	0.764840	0.814700	0.547140
C161	C16	0.097880	0.566000	0.383780
C171	C17	0.834730	0.393200	0.723230
C181	C18	0.341850	0.734200	0.563250
C191	C19	0.362660	0.775300	0.330460
C201	C20	0.230670	0.641300	0.011570
C211	C21	0.067450	0.103600	0.948750
C221	C22	0.269330	0.141300	0.488430
C231	C23	0.343510	0.793800	0.008410
C241	C24	0.637740	0.568800	0.587140
C251	C25	0.969140	0.124800	0.921240
C261	C26	0.423010	0.733300	0.717910
C271	C27	0.557030	0.162200	0.389330
C281	C28	0.252430	0.171800	0.216530
C291	C29	0.788660	0.371600	0.064460
C301	C30	0.862660	0.724700	0.830460
C311	C31	0.235410	0.664600	0.354610
C321	C32	0.211340	0.628400	0.935540
C331	C33	0.057030	0.337800	0.889330
C341	C34	0.633270	0.927200	0.735070
C351	C35	0.466950	0.300600	0.400950
C361	C36	0.229530	0.638300	0.513930
C371	C37	0.735410	0.835400	0.854610
C381	C38	0.237650	0.647500	0.086550
C391	C39	0.662010	0.341600	0.456410
C401	C40	0.247560	0.174300	0.525260
C411	C41	0.781350	0.798900	0.822650
C421	C42	0.747560	0.325700	0.025260
C431	C43	0.433790	0.673200	0.752090
C441	C44	0.551790	0.439800	0.184590
C451	C45	0.326530	0.448900	0.184930
C461	C46	0.658150	0.265800	0.436750
C471	C47	0.189970	0.250200	0.526970
C481	C48	0.096090	0.376200	0.494090
C491	C49	0.115460	0.573200	0.309560
C501	C50	0.718650	0.298900	0.677350
C511	C51	0.448210	0.560200	0.815410
C521	C52	0.723900	0.933500	0.316700
C531	C53	0.884540	0.426800	0.690440
C541	C54	0.966950	0.199400	0.900950
C551	C55	0.270470	0.138300	0.986070
C561	C56	0.735160	0.314700	0.952860
C571	C57	0.262350	0.147500	0.413450
C581	C58	0.543410	0.641700	0.768510
C591	C59	0.942970	0.662200	0.110670
C601	C60	0.615460	0.926800	0.809560
C611	C61	0.923010	0.766700	0.217910
C621	C62	0.162010	0.158400	0.956410
C631	C63	0.158150	0.234200	0.936750
C641	C64	0.847740	0.398700	0.651640
C651	C65	0.165270	0.606800	0.276770
C661	C66	0.866730	0.427200	0.764930
C671	C67	0.652260	0.898700	0.848360
C681	C68	0.173470	0.948900	0.315070
C691	C69	0.366730	0.072800	0.264930
C701	C70	0.956590	0.141700	0.731490
C711	C71	0.264590	0.164600	0.145390
C721	C72	0.567450	0.396400	0.448750
C731	C73	0.764590	0.335400	0.645390
C741	C74	0.552070	0.585500	0.799470
C751	C75	0.862260	0.068800	0.912860
C761	C76	0.530860	0.624800	0.578760
C771	C77	0.680650	0.237800	0.954450
C781	C78	0.837990	0.841600	0.043590
C791	C79	0.043410	0.858300	0.268510
C801	C80	0.770470	0.361700	0.486070
C811	C81	0.447930	0.414500	0.200530
C821	C82	0.347740	0.101300	0.151640
C831	C83	0.902120	0.434000	0.616220
C841	C84	0.737650	0.852500	0.586550
C851	C85	0.829850	0.851900	0.268150
C861	C86	0.689970	0.249800	0.026970
C871	C87	0.403910	0.876200	0.005910
C881	C88	0.776100	0.433500	0.183300
C891	C89	0.810030	0.749800	0.473030
C901	C90	0.329850	0.648100	0.768150
C911	C91	0.051790	0.060200	0.684590
C921	C92	0.711340	0.871600	0.435540
C931	C93	0.281350	0.701100	0.322650
C941	C94	0.061590	0.254700	0.908790
C951	C95	0.752440	0.825700	0.474740
C961	C96	0.843510	0.706200	0.508410
C971	C97	0.752430	0.328200	0.716530
C981	C98	0.469140	0.375200	0.421240
C991	C99	0.432550	0.603600	0.551250
C1001	C100	0.561590	0.245300	0.408790
C1011	C101	0.947930	0.085500	0.700530
C1021	C102	0.052070	0.914500	0.299470
C1031	C103	0.152260	0.601300	0.348360
C1041	C104	0.235160	0.185300	0.452860
C1051	C105	0.670150	0.351900	0.231850
C1061	C106	0.310030	0.750200	0.973030
C1071	C107	0.665270	0.893200	0.776770
C1081	C108	0.948210	0.939800	0.315410
C1091	C109	0.597880	0.934000	0.883780
C1101	C110	0.163580	0.091800	0.700380
C1111	C111	0.156490	0.293800	0.491590
C1121	C112	0.133270	0.572800	0.235070
C1131	C113	0.596090	0.123800	0.994090
C1141	C114	0.030860	0.875200	0.078760
C1151	C115	0.218650	0.201100	0.177350
C1161	C116	0.566210	0.326800	0.247910
C1171	C117	0.276100	0.066500	0.683300
C1181	C118	0.247570	0.671800	0.283470
C1191	C119	0.180650	0.262200	0.454450
C1201	C120	0.337990	0.658400	0.543590
C1211	C121	0.576990	0.266700	0.282090
C1221	C122	0.819350	0.737800	0.545550
C1231	C123	0.938410	0.745300	0.091210
C1241	C124	0.384540	0.073200	0.190440
C1251	C125	0.170150	0.148100	0.731850
C1261	C126	0.656490	0.206200	0.991590
C1271	C127	0.932550	0.896400	0.051250
C1281	C128	0.438410	0.754700	0.591210
C1291	C129	0.533050	0.699400	0.599050
C1301	C130	0.033050	0.800600	0.099050
C1311	C131	0.137740	0.931200	0.087140
C1321	C132	0.319350	0.762200	0.045550
C1331	C133	0.663580	0.408200	0.200380
C1341	C134	0.826530	0.051100	0.684930
C1351	C135	0.264840	0.685300	0.047140
C1361	C136	0.223900	0.566500	0.816700
C1371	C137	0.762350	0.352500	0.913450
C1381	C138	0.252440	0.674300	0.974740
C1391	C139	0.673470	0.551100	0.815070
C1401	C140	0.729530	0.861700	0.013930
C1411	C141	0.456590	0.358300	0.231490
C1421	C142	0.334730	0.106800	0.223230
C1431	C143	0.362260	0.431200	0.412860
C1441	C144	0.442970	0.837800	0.610670
O11	O1	0.127920	0.390800	0.905320
O21	O2	0.820660	0.000000	0.655760
O31	O3	0.776550	0.086100	0.889250
O41	O4	0.741720	0.074700	0.702720
O51	O5	0.842150	0.420900	0.581250
O61	O6	0.870590	0.401500	0.199690
O71	O7	0.627920	0.109200	0.405320
O81	O8	0.077600	0.418400	0.462200
O91	O9	0.676720	0.918000	0.585120
O101	O10	0.872080	0.609200	0.094680
O111	O11	0.724590	0.319200	0.880290
O121	O12	0.069320	0.398000	0.528120
O131	O13	0.179340	0.000000	0.344240
O141	O14	0.917290	0.700600	0.800990
O151	O15	0.422400	0.918400	0.037800
O161	O16	0.582710	0.200600	0.699010
O171	O17	0.870380	0.999700	0.934080
O181	O18	0.371050	0.806600	0.364350
O191	O19	0.176720	0.582000	0.085120
O201	O20	0.831900	0.734200	0.204700
O211	O21	0.293320	0.061600	0.991120
O221	O22	0.474630	0.253400	0.295930
O231	O23	0.765740	0.483700	0.154740
O241	O24	0.445360	0.015600	0.267560
O251	O25	0.554640	0.984400	0.732440
O261	O26	0.706680	0.938400	0.008880
O271	O27	0.430680	0.898000	0.971880
O281	O28	0.234260	0.516300	0.845260
O291	O29	0.082710	0.299400	0.199010
O301	O30	0.017100	0.649800	0.141600
O311	O31	0.775410	0.819200	0.619710
O321	O32	0.208790	0.664100	0.902890
O331	O33	0.922400	0.581600	0.537800
O341	O34	0.265740	0.016300	0.654740
O351	O35	0.974630	0.246600	0.795930
O361	O36	0.329680	0.195000	0.003580
O371	O37	0.258280	0.925300	0.297280
O381	O38	0.370590	0.098500	0.699690
O391	O39	0.930680	0.602000	0.471880
O401	O40	0.668100	0.234200	0.295300
O411	O41	0.044680	0.468580	0.137880
O421	O42	0.945360	0.484400	0.767560
O431	O43	0.482900	0.149800	0.358400
O441	O44	0.517100	0.850200	0.641600
O451	O45	0.793320	0.438400	0.491120
O461	O46	0.670320	0.805000	0.996420
O471	O47	0.823280	0.418000	0.914880
O481	O48	0.276550	0.413900	0.389250
O491	O49	0.708790	0.835900	0.402890
O501	O50	0.316190	0.100800	0.293390
O511	O51	0.544680	0.031420	0.637880
O521	O52	0.223450	0.913900	0.110750
O531	O53	0.342150	0.079100	0.081250
O541	O54	0.128950	0.306600	0.135650
O551	O55	0.372080	0.890800	0.594680
O561	O56	0.177070	0.555400	0.938770
O571	O57	0.241720	0.425300	0.202720
O581	O58	0.157850	0.579100	0.418750
O591	O59	0.025370	0.753400	0.204070
O601	O60	0.628950	0.193400	0.635650
O611	O61	0.170320	0.695000	0.496420
O621	O62	0.417290	0.799400	0.300990
O631	O63	0.955320	0.531420	0.862120
O641	O64	0.183810	0.600800	0.206610
O651	O65	0.455320	0.968580	0.362120
O661	O66	0.569320	0.102000	0.028120
O671	O67	0.054640	0.515600	0.232440
O681	O68	0.320660	0.500000	0.155760
O691	O69	0.168100	0.265800	0.795300
O701	O70	0.791210	0.335900	0.097110
O711	O71	0.822930	0.444600	0.061230
O721	O72	0.982900	0.350200	0.858400
O731	O73	0.502160	0.971400	0.879260
O741	O74	0.322930	0.055400	0.561230
O751	O75	0.129410	0.598500	0.800310
O761	O76	0.829680	0.305000	0.503580
O771	O77	0.816190	0.399200	0.793390
O781	O78	0.525370	0.746600	0.704070
O791	O79	0.275410	0.680800	0.119710
O801	O80	0.291210	0.164100	0.597110
O811	O81	0.723450	0.586100	0.610750
O821	O82	0.734260	0.983700	0.345260
O831	O83	0.370380	0.500300	0.434080
O841	O84	0.758280	0.574700	0.797280
O851	O85	0.002160	0.528600	0.379260
O861	O86	0.871050	0.693400	0.864350
O871	O87	0.683810	0.899200	0.706610
O881	O88	0.129620	0.000300	0.065920
O891	O89	0.206680	0.561600	0.508880
O901	O90	0.224590	0.180800	0.380290
O911	O91	0.323280	0.082000	0.414880
O921	O92	0.577600	0.081600	0.962200
O931	O93	0.629410	0.901500	0.300310
O941	O94	0.657850	0.920900	0.918750
O951	O95	0.497840	0.028600	0.120740
O961	O96	0.997840	0.471400	0.620740
O971	O97	0.677070	0.944600	0.438770
O981	O98	0.331900	0.765800	0.704700
O991	O99	0.629620	0.499700	0.565920
O1001	O100	0.679340	0.500000	0.844240
