data_ic501849g_si_002_freeONLY_PM
_symmetry_space_group_name_H-M	'P1'
_cell_length_a	11.074900
_cell_length_b	12.209400
_cell_length_c	19.507400
_cell_angle_alpha	92.459600
_cell_angle_beta	90.000000
_cell_angle_gamma	116.971000
_symmetry_Int_Tables_number 1

loop_
_symmetry_equiv_pos_as_xyz
'x,y,z'

loop_
_atom_site_label
_atom_site_type_symbol
_atom_site_fract_x
_atom_site_fract_y
_atom_site_fract_z
Cu11	Cu1	0.545850	0.038260	0.437650
Cu21	Cu2	0.186980	0.243720	0.850300
Cu31	Cu3	0.507590	0.961740	0.562350
Cu41	Cu4	0.096810	0.395840	0.805160
Cu51	Cu5	0.943260	0.756280	0.149700
Cu61	Cu6	0.700970	0.604160	0.194840
H11	H1	0.008500	0.170000	0.446200
H21	H2	0.405800	0.723000	0.631100
H31	H3	0.499200	0.286400	0.362500
H41	H4	0.156300	0.423200	0.478700
H51	H5	0.684900	0.750400	0.742500
H61	H6	0.428600	0.740000	0.710400
H71	H7	0.733100	0.576800	0.521300
H81	H8	0.498500	0.529000	0.992800
H91	H9	0.780100	0.942600	0.650200
H101	H10	0.324600	0.074600	0.314300
H111	H11	0.492900	0.722000	0.831700
H121	H12	0.473000	0.936400	0.763800
H131	H13	0.682800	0.277000	0.368900
H141	H14	0.837500	0.057400	0.349800
H151	H15	0.902500	0.287800	0.600900
H161	H16	0.770900	0.278000	0.168300
H171	H17	0.264100	0.942800	0.766100
H181	H18	0.898300	0.964600	0.334100
H191	H19	0.799100	0.773600	0.798000
H201	H20	0.596600	0.373000	0.308400
H211	H21	0.074000	0.239000	0.585900
H221	H22	0.145700	0.810600	0.347500
H231	H23	0.692900	0.951600	0.262600
H241	H24	0.614700	0.712200	0.399100
H251	H25	0.933700	0.035400	0.665900
H261	H26	0.790200	0.876000	0.974400
H271	H27	0.838500	0.830000	0.553800
H281	H28	0.966400	0.898800	0.730500
H291	H29	0.335100	0.189400	0.652500
H301	H30	0.321300	0.057200	0.233900
H311	H31	0.212800	0.713600	0.637500
H321	H32	0.826200	0.487200	0.381500
H331	H33	0.250000	0.925400	0.685700
H341	H34	0.481400	0.038800	0.715100
H351	H35	0.688600	0.260000	0.289600
H361	H36	0.223600	0.627000	0.691600
H371	H37	0.741300	0.048400	0.737400
H381	H38	0.138900	0.628400	0.516800
H391	H39	0.067600	0.101200	0.269500
H401	H40	0.536600	0.063600	0.236200
H411	H41	0.056700	0.191400	0.326800
H421	H42	0.442600	0.961200	0.284900
H431	H43	0.844500	0.886200	0.445200
H441	H44	0.915900	0.761200	0.520000
H451	H45	0.025500	0.226400	0.202000
H461	H46	0.691800	0.640200	0.582900
H471	H47	0.835000	0.761000	0.414100
H481	H48	0.154700	0.238800	0.480000
H491	H49	0.914200	0.124000	0.025600
H501	H50	0.051600	0.359800	0.417100
H511	H51	0.958300	0.113800	0.554800
H521	H52	0.339000	0.512800	0.618500
H531	H53	0.510500	0.371600	0.483200
H541	H54	0.934500	0.249600	0.257500
H551	H55	0.969500	0.471000	0.007200
H561	H56	0.865300	0.808600	0.673200
C11	C1	0.902500	0.191000	0.042400
C21	C2	0.652400	0.702200	0.994400
C31	C3	0.161100	0.737600	0.437200
C41	C4	0.463700	0.366200	0.523500
C51	C5	0.803300	0.866000	0.218800
C61	C6	0.934900	0.399200	0.031200
C71	C7	0.008200	0.132000	0.289600
C81	C8	0.064300	0.232800	0.480300
C91	C9	0.958300	0.188600	0.236700
C101	C10	0.714700	0.929800	0.856500
C111	C11	0.904100	0.256400	0.554000
C121	C12	0.004400	0.202000	0.550100
C131	C13	0.911600	0.548800	0.394700
C141	C14	0.475100	0.606400	0.907900
C151	C15	0.937300	0.134000	0.781200
C161	C16	0.357900	0.256200	0.625200
C171	C17	0.811100	0.023600	0.749100
C181	C18	0.452600	0.158800	0.538700
C191	C19	0.868700	0.393600	0.092100
C201	C20	0.769700	0.811400	0.763300
C211	C21	0.876200	0.868000	0.710400
C221	C22	0.535700	0.600800	0.968800
C231	C23	0.647700	0.743600	0.446000
C241	C24	0.097500	0.633800	0.476500
C251	C25	0.762600	0.159400	0.531600
C261	C26	0.912500	0.657400	0.287800
C271	C27	0.652900	0.815200	0.896300
C281	C28	0.717100	0.694200	0.060900
C291	C29	0.976900	0.649000	0.354300
C301	C30	0.831500	0.767200	0.519700
C311	C31	0.486900	0.049200	0.278600
C321	C32	0.390400	0.762600	0.672000
C331	C33	0.101700	0.743800	0.374800
C341	C34	0.255100	0.342600	0.712200
C351	C35	0.879300	0.027400	0.315000
C361	C36	0.423500	0.262400	0.562800
C371	C37	0.380100	0.096000	0.273800
C381	C38	0.362800	0.451200	0.605300
C391	C39	0.069100	0.355800	0.465400
C401	C40	0.293800	0.841200	0.461300
C411	C41	0.711500	0.809000	0.957600
C421	C42	0.850500	0.499600	0.121700
C431	C43	0.534100	0.716200	0.872000
C441	C44	0.433900	0.460600	0.544500
C451	C45	0.603200	0.840600	0.468400
C461	C46	0.837700	0.184800	0.103700
C471	C47	0.950200	0.297800	0.005600
C481	C48	0.784900	0.070200	0.143500
C491	C49	0.284100	0.904000	0.726200
C501	C50	0.543900	0.287600	0.319600
C511	C51	0.903400	0.433000	0.499900
C521	C52	0.022900	0.305800	0.939100
C531	C53	0.350900	0.500400	0.878300
C541	C54	0.851900	0.972600	0.685000
C551	C55	0.627800	0.237400	0.328000
C561	C56	0.470400	0.567000	0.500100
C571	C57	0.437700	0.950800	0.721400
C581	C58	0.817900	0.283800	0.128000
C591	C59	0.256300	0.712400	0.680400
C601	C60	0.327900	0.351000	0.645700
C611	C61	0.802400	0.798000	0.449900
C621	C62	0.973300	0.539400	0.455500
C631	C63	0.713300	0.644200	0.534600
C641	C64	0.787500	0.976400	0.250900
N11	N1	0.961100	0.358800	0.507500
N21	N2	0.602300	0.641200	0.492500
N31	N3	0.836780	0.080560	0.207200
N41	N4	0.756220	0.919440	0.792800
O11	O1	0.843000	0.763200	0.067870
O21	O2	0.014960	0.522520	0.779900
O31	O3	0.219300	0.772800	0.731500
O41	O4	0.294400	0.143200	0.875000
O51	O5	0.492440	0.477480	0.220100
O61	O6	0.020880	0.377960	0.897000
O71	O7	0.334800	0.395600	0.890600
O81	O8	0.383660	0.583720	0.469600
O91	O9	0.730890	0.147380	0.468640
O101	O10	0.446500	0.227200	0.268500
O111	O11	0.642920	0.622040	0.103000
O121	O12	0.583510	0.852620	0.531360
O131	O13	0.272410	0.524820	0.842840
O141	O14	0.270100	0.278200	0.757170
O151	O15	0.576740	0.110280	0.333820
O161	O16	0.357280	0.919360	0.418100
O171	O17	0.913910	0.890420	0.190650
O181	O18	0.785450	0.598300	0.281850
O191	O19	0.187150	0.401700	0.718150
O201	O20	0.331920	0.840640	0.521590
O211	O21	0.799940	0.416280	0.530400
O221	O22	0.466460	0.889720	0.666180
O231	O23	0.747590	0.475180	0.157160
O241	O24	0.706520	0.761840	0.227330
O251	O25	0.491280	0.159360	0.478410
O261	O26	0.727130	0.027860	0.880800
O271	O27	0.939200	0.604400	0.109400
O281	O28	0.594250	0.902900	0.421630
O291	O29	0.437920	0.080640	0.581900
O301	O30	0.691350	0.097100	0.578370
O311	O31	0.151200	0.856800	0.125000
O321	O32	0.699270	0.972140	0.119200
O331	O33	0.079800	0.236800	0.932130
O341	O34	0.023490	0.109580	0.809350
O351	O35	0.944680	0.238160	0.772670
O361	O36	0.991900	0.721800	0.242830
