data_ic502921j_si_003_freeONLY_PM
_symmetry_space_group_name_H-M	'P1'
_cell_length_a	16.852700
_cell_length_b	16.901800
_cell_length_c	26.713200
_cell_angle_alpha	102.989000
_cell_angle_beta	90.000000
_cell_angle_gamma	119.904000
_symmetry_Int_Tables_number 1

loop_
_symmetry_equiv_pos_as_xyz
'x,y,z'

loop_
_atom_site_label
_atom_site_type_symbol
_atom_site_fract_x
_atom_site_fract_y
_atom_site_fract_z
Cu11	Cu1	0.432720	0.758960	0.521830
Cu21	Cu2	0.299120	0.406380	0.029510
Cu31	Cu3	0.793230	0.944080	0.542070
Cu41	Cu4	0.636940	0.000000	0.750000
Cu51	Cu5	0.128030	0.725320	0.506130
Cu61	Cu6	0.059380	0.789360	0.102560
Cu71	Cu7	0.729980	0.789360	0.602560
Cu81	Cu8	0.326240	0.758960	0.021830
Cu91	Cu9	0.700880	0.593620	0.970490
Cu101	Cu10	0.871970	0.274680	0.493870
Cu111	Cu11	0.673760	0.241040	0.978170
Cu121	Cu12	0.892740	0.593620	0.470490
Cu131	Cu13	0.940620	0.210640	0.897440
Cu141	Cu14	0.402710	0.274680	0.993870
Cu151	Cu15	0.567280	0.241040	0.478170
Cu161	Cu16	0.849150	0.055920	0.957930
Cu171	Cu17	0.206770	0.055920	0.457930
Cu181	Cu18	0.107260	0.406380	0.529510
Cu191	Cu19	0.500000	0.500000	0.000000
Cu201	Cu20	0.270020	0.210640	0.397440
Cu211	Cu21	0.150850	0.944080	0.042070
Cu221	Cu22	0.597290	0.725320	0.006130
Cu231	Cu23	0.363060	0.000000	0.250000
Cu241	Cu24	0.000000	0.500000	0.500000
H11	H1	0.216500	0.613000	0.042400
H21	H2	0.339900	0.496000	0.639100
H31	H3	0.137200	0.729400	0.229800
H41	H4	0.156100	0.496000	0.139100
H51	H5	0.387000	0.731200	0.438300
H61	H6	0.773700	0.815800	0.685400
H71	H7	0.089100	0.936000	0.495400
H81	H8	0.624500	0.455200	0.856200
H91	H9	0.957900	0.184200	0.814600
H101	H10	0.401500	0.730600	0.741300
H111	H11	0.910900	0.064000	0.504600
H121	H12	0.042100	0.815800	0.185400
H131	H13	0.412600	0.718200	0.962500
H141	H14	0.674900	0.443800	0.501700
H151	H15	0.577200	0.820800	0.571700
H161	H16	0.109500	0.022000	0.533200
H171	H17	0.756400	0.179200	0.928300
H181	H18	0.715700	0.564000	0.720000
H191	H19	0.396500	0.613000	0.542400
H201	H20	0.535600	0.429800	0.651400
H211	H21	0.409300	0.629000	0.848400
H221	H22	0.292500	0.849000	0.526600
H231	H23	0.087500	0.978000	0.966800
H241	H24	0.169300	0.544800	0.643800
H251	H25	0.862800	0.270600	0.770200
H261	H26	0.783500	0.387000	0.957600
H271	H27	0.613500	0.868000	0.985700
H281	H28	0.745500	0.132000	0.514300
H291	H29	0.670900	0.269400	0.758700
H301	H30	0.768900	0.443800	0.001700
H311	H31	0.443500	0.151000	0.973400
H321	H32	0.375500	0.544800	0.143800
H331	H33	0.219700	0.629000	0.348400
H341	H34	0.830700	0.455200	0.356200
H351	H35	0.598500	0.269400	0.258700
H361	H36	0.846900	0.936000	0.995400
H371	H37	0.858400	0.132000	0.812600
H381	H38	0.344200	0.731200	0.938300
H391	H39	0.231100	0.556200	0.998300
H401	H40	0.305600	0.718200	0.462500
H411	H41	0.407800	0.270600	0.270200
H421	H42	0.707500	0.151000	0.473400
H431	H43	0.422800	0.179200	0.428300
H441	H44	0.105800	0.570200	0.848600
H451	H45	0.313300	0.830800	0.108400
H461	H46	0.226300	0.184200	0.314600
H471	H47	0.329100	0.730600	0.241300
H481	H48	0.254500	0.868000	0.485700
H491	H49	0.975300	0.573000	0.321400
H501	H50	0.726400	0.868000	0.687400
H511	H51	0.141600	0.868000	0.187400
H521	H52	0.613000	0.268800	0.561700
H531	H53	0.556500	0.849000	0.026600
H541	H54	0.590700	0.371000	0.151600
H551	H55	0.603500	0.387000	0.457600
H561	H56	0.024700	0.427000	0.678600
H571	H57	0.890500	0.978000	0.466800
H581	H58	0.464400	0.570200	0.348600
H591	H59	0.386500	0.132000	0.014300
H601	H60	0.694400	0.281800	0.537500
H611	H61	0.273600	0.132000	0.312600
H621	H62	0.848300	0.564000	0.220000
H631	H63	0.153100	0.064000	0.004600
H641	H64	0.587400	0.281800	0.037500
H651	H65	0.843900	0.504000	0.860900
H661	H66	0.482500	0.169200	0.391600
H671	H67	0.780300	0.371000	0.651600
H681	H68	0.894200	0.429800	0.151400
H691	H69	0.243600	0.820800	0.071700
H701	H70	0.284300	0.436000	0.280000
H711	H71	0.655800	0.268800	0.061700
H721	H72	0.597700	0.573000	0.821400
H731	H73	0.660100	0.504000	0.360900
H741	H74	0.151700	0.436000	0.780000
H751	H75	0.912500	0.022000	0.033200
H761	H76	0.402300	0.427000	0.178600
H771	H77	0.325100	0.556200	0.498300
H781	H78	0.592200	0.729400	0.729800
H791	H79	0.517500	0.830800	0.608400
H801	H80	0.686700	0.169200	0.891600
C11	C1	0.615200	0.220400	0.317200
C21	C2	0.138100	0.389200	0.423000
C31	C3	0.703800	0.884400	0.899600
C41	C4	0.225000	0.411200	0.344400
C51	C5	0.415100	0.362400	0.230700
C61	C6	0.029700	0.473600	0.153200
C71	C7	0.861900	0.610800	0.577000
C81	C8	0.181400	0.524800	0.384600
C91	C9	0.361900	0.715400	0.711900
C101	C10	0.394800	0.779600	0.182800
C111	C11	0.364100	0.457600	0.626800
C121	C12	0.229600	0.365400	0.558800
C131	C13	0.868000	0.203200	0.646100
C141	C14	0.748900	0.610800	0.077000
C151	C15	0.768100	0.676000	0.656900
C161	C16	0.619200	0.396200	0.846200
C171	C17	0.156200	0.804800	0.304400
C181	C18	0.492800	0.298400	0.568200
C191	C19	0.635900	0.542400	0.373200
C201	C20	0.186200	0.411200	0.844400
C211	C21	0.443900	0.473600	0.653200
C221	C22	0.353400	0.290800	0.140100
C231	C23	0.800600	0.541400	0.193500
C241	C24	0.977500	0.369400	0.682400
C251	C25	0.393900	0.275600	0.237800
C261	C26	0.646500	0.284600	0.788100
C271	C27	0.384800	0.779600	0.682800
C281	C28	0.424900	0.561400	0.925200
C291	C29	0.251100	0.389200	0.923000
C301	C30	0.296200	0.115600	0.100400
C311	C31	0.351400	0.195200	0.195600
C321	C32	0.907900	0.676000	0.156900
C331	C33	0.507200	0.701600	0.431800
C341	C34	0.604800	0.130200	0.801300
C351	C35	0.359300	0.328800	0.562200
C361	C36	0.935900	0.615400	0.917700
C371	C37	0.947300	0.362400	0.730700
C381	C38	0.608100	0.630600	0.817600
C391	C39	0.936700	0.418600	0.133800
C401	C40	0.518100	0.581400	0.366200
C411	C41	0.059000	0.745800	0.988400
C421	C42	0.279700	0.627600	0.697900
C431	C43	0.184800	0.443200	0.383400
C441	C44	0.651900	0.169000	0.392100
C451	C45	0.525400	0.130200	0.301300
C461	C46	0.179900	0.644800	0.576800
C471	C47	0.906900	0.347400	0.088700
C481	C48	0.320500	0.384600	0.582300
C491	C49	0.223000	0.603800	0.653800
C501	C50	0.770400	0.634600	0.441200
C511	C51	0.343400	0.524800	0.884600
C521	C52	0.347900	0.627600	0.197900
C531	C53	0.575100	0.438600	0.074800
C541	C54	0.652100	0.372400	0.802100
C551	C55	0.326000	0.756400	0.638100
C561	C56	0.820100	0.355200	0.423200
C571	C57	0.430400	0.756400	0.138100
C581	C58	0.258400	0.443200	0.883400
C591	C59	0.937400	0.290800	0.640100
C601	C60	0.354100	0.573400	0.847000
C611	C61	0.556100	0.526400	0.346800
C621	C62	0.648600	0.804800	0.804400
C631	C63	0.741600	0.556800	0.116600
C641	C64	0.665500	0.696200	0.911600
C651	C65	0.022500	0.630600	0.317600
C661	C66	0.716900	0.460600	0.192300
C671	C67	0.638100	0.284600	0.288100
C681	C68	0.969500	0.328800	0.062200
C691	C69	0.052700	0.637600	0.269300
C701	C70	0.577400	0.331800	0.876500
C711	C71	0.474600	0.869800	0.698700
C721	C72	0.328800	0.101600	0.205400
C731	C73	0.199400	0.458600	0.806500
C741	C74	0.813800	0.588800	0.155600
C751	C75	0.805600	0.298400	0.068200
C761	C76	0.569600	0.243600	0.861900
C771	C77	0.656600	0.475200	0.115400
C781	C78	0.517100	0.169000	0.892100
C791	C79	0.440500	0.347400	0.588700
C801	C80	0.231900	0.324000	0.343100
C811	C81	0.093500	0.457600	0.126800
C821	C82	0.283100	0.539400	0.807700
C831	C83	0.640700	0.671200	0.437800
C841	C84	0.606100	0.724400	0.762200
C851	C85	0.422600	0.668200	0.123500
C861	C86	0.245600	0.668200	0.623500
C871	C87	0.881700	0.275600	0.737800
C881	C88	0.395200	0.869800	0.198700
C891	C89	0.030500	0.671200	0.937800
C901	C90	0.535100	0.355200	0.923200
C911	C91	0.674000	0.243600	0.361900
C921	C92	0.843800	0.195200	0.695600
C931	C93	0.194400	0.701600	0.931800
C941	C94	0.093100	0.652600	0.911300
C951	C95	0.679500	0.615400	0.417700
C961	C96	0.775000	0.588800	0.655600
C971	C97	0.227200	0.898400	0.294600
C981	C98	0.559500	0.652600	0.411300
C991	C99	0.259200	0.458600	0.306500
C1001	C100	0.391900	0.369400	0.182400
C1011	C101	0.334500	0.303800	0.088400
C1021	C102	0.062600	0.709200	0.359900
C1031	C103	0.743700	0.460600	0.692300
C1041	C104	0.969300	0.303800	0.588400
C1051	C105	0.780700	0.426600	0.653000
C1061	C106	0.686800	0.745800	0.488400
C1071	C107	0.353500	0.715400	0.211900
C1081	C108	0.092100	0.324000	0.843100
C1091	C109	0.464900	0.644800	0.076800
C1101	C110	0.941000	0.254200	0.011600
C1111	C111	0.380800	0.603800	0.153800
C1121	C112	0.482900	0.831000	0.107900
C1131	C113	0.720300	0.372400	0.302100
C1141	C114	0.906500	0.542400	0.873200
C1151	C115	0.348100	0.831000	0.607900
C1161	C116	0.135800	0.365400	0.058800
C1171	C117	0.819400	0.115600	0.600400
C1181	C118	0.970300	0.526400	0.846800
C1191	C119	0.664800	0.796800	0.853900
C1201	C120	0.815200	0.556800	0.616600
C1211	C121	0.740800	0.541400	0.693500
C1221	C122	0.645900	0.426600	0.153000
C1231	C123	0.605200	0.220400	0.817200
C1241	C124	0.063300	0.581400	0.866200
C1251	C125	0.030700	0.696200	0.411600
C1261	C126	0.818600	0.475200	0.615400
C1271	C127	0.064100	0.384600	0.082300
C1281	C128	0.777000	0.396200	0.346200
C1291	C129	0.864200	0.634600	0.941200
C1301	C130	0.118300	0.724400	0.262200
C1311	C131	0.335200	0.203200	0.146100
C1321	C132	0.772800	0.101600	0.705400
C1331	C133	0.136500	0.561400	0.425200
C1341	C134	0.863500	0.438600	0.574800
C1351	C135	0.180600	0.884400	0.399600
C1361	C136	0.584900	0.637600	0.769300
C1371	C137	0.481900	0.418600	0.633800
C1381	C138	0.646600	0.709200	0.859900
C1391	C139	0.671200	0.898400	0.794600
C1401	C140	0.313200	0.254200	0.511600
C1411	C141	0.132000	0.796800	0.353900
C1421	C142	0.754400	0.331800	0.376500
C1431	C143	0.256300	0.539400	0.307700
C1441	C144	0.219300	0.573400	0.347000
N11	N1	0.689700	0.438200	0.769700
N21	N2	0.485400	0.553600	0.697700
N31	N3	0.695700	0.403400	0.227800
N41	N4	0.012300	0.552800	0.228500
N51	N5	0.068200	0.553600	0.197700
N61	N6	0.931800	0.446400	0.802300
N71	N7	0.707700	0.403400	0.727800
N81	N8	0.251500	0.561800	0.730300
N91	N9	0.514600	0.446400	0.302300
N101	N10	0.540500	0.552800	0.728500
N111	N11	0.987700	0.447200	0.771500
N121	N12	0.310300	0.561800	0.230300
N131	N13	0.748500	0.438200	0.269700
N141	N14	0.304300	0.596600	0.772200
N151	N15	0.459500	0.447200	0.271500
N161	N16	0.292300	0.596600	0.272200
O11	O1	0.235280	0.900160	0.247320
O21	O2	0.207800	0.066000	0.093400
O31	O3	0.032760	0.718520	0.028590
O41	O4	0.244920	0.845240	0.512400
O51	O5	0.933040	0.689280	0.591730
O61	O6	0.332530	0.377460	0.090050
O71	O7	0.130100	0.004600	0.992600
O81	O8	0.215670	0.437140	0.066240
O91	O9	0.637550	0.247900	0.538810
O101	O10	0.347480	0.096560	0.074330
O111	O11	0.044930	0.377460	0.590050
O121	O12	0.254400	0.604600	0.023900
O131	O13	0.745600	0.395400	0.976100
O141	O14	0.468330	0.647460	0.947800
O151	O15	0.687460	0.964320	0.830970
O161	O16	0.250920	0.903440	0.425670
O171	O17	0.572670	0.437340	0.950050
O181	O18	0.606600	0.090400	0.835470
O191	O19	0.769200	0.859200	0.676700
O201	O20	0.293200	0.115200	0.411600
O211	O21	0.864670	0.437340	0.450050
O221	O22	0.276860	0.964320	0.330970
O231	O23	0.910000	0.140800	0.823300
O241	O24	0.919720	0.241240	0.548530
O251	O25	0.723140	0.035680	0.669030
O261	O26	0.260360	0.434120	0.969760
O271	O27	0.858200	0.066000	0.593400
O281	O28	0.937140	0.689080	0.114240
O291	O29	0.230800	0.140800	0.323300
O301	O30	0.275600	0.799200	0.080510
O311	O31	0.664880	0.900160	0.747320
O321	O32	0.658010	0.099220	0.369770
O331	O33	0.706800	0.884800	0.588400
O341	O34	0.395270	0.901540	0.245440
O351	O35	0.248600	0.705600	0.899830
O361	O36	0.335120	0.099840	0.252680
O371	O37	0.820870	0.352540	0.552200
O381	O38	0.314240	0.281480	0.471410
O391	O39	0.393400	0.909600	0.164530
O401	O40	0.764720	0.099840	0.752680
O411	O41	0.604730	0.098460	0.754560
O421	O42	0.942910	0.499020	0.567160
O431	O43	0.885630	0.715860	0.965400
O441	O44	0.427330	0.562660	0.049950
O451	O45	0.062860	0.310920	0.885760
O461	O46	0.066960	0.310720	0.408270
O471	O47	0.051300	0.273200	0.799380
O481	O48	0.135330	0.562660	0.549950
O491	O49	0.178000	0.884800	0.088400
O501	O50	0.823780	0.285360	0.430650
O511	O51	0.778530	0.562860	0.433760
O521	O52	0.006070	0.621940	0.509540
O531	O53	0.531670	0.352540	0.052200
O541	O54	0.724400	0.200800	0.919490
O551	O55	0.667470	0.622540	0.909950
O561	O56	0.629300	0.180600	0.437230
O571	O57	0.516200	0.909600	0.664530
O581	O58	0.476400	0.200800	0.419490
O591	O59	0.248060	0.310920	0.385760
O601	O60	0.784330	0.562860	0.933760
O611	O61	0.551300	0.180600	0.937230
O621	O62	0.389650	0.752100	0.961190
O631	O63	0.176220	0.714640	0.569350
O641	O64	0.955070	0.622540	0.409950
O651	O65	0.483800	0.090400	0.335470
O661	O66	0.448700	0.819400	0.062770
O671	O67	0.751940	0.689080	0.614240
O681	O68	0.399680	0.154760	0.987600
O691	O69	0.515710	0.730820	0.480740
O701	O70	0.370700	0.819400	0.562770
O711	O71	0.125500	0.995400	0.507400
O721	O72	0.384130	0.378060	0.990460
O731	O73	0.615870	0.621940	0.009540
O741	O74	0.749080	0.096560	0.574330
O751	O75	0.874500	0.004600	0.492600
O761	O76	0.649800	0.395400	0.476100
O771	O77	0.169770	0.284140	0.534600
O781	O78	0.993930	0.378060	0.490460
O791	O79	0.484290	0.269180	0.519260
O801	O80	0.493730	0.098460	0.254560
O811	O81	0.057090	0.500980	0.432840
O821	O82	0.221470	0.437140	0.566240
O831	O83	0.751400	0.294400	0.100170
O841	O84	0.948700	0.726800	0.200620
O851	O85	0.600320	0.845240	0.012400
O861	O86	0.221900	0.273200	0.299380
O871	O87	0.869900	0.995400	0.007400
O881	O88	0.538420	0.714640	0.069350
O891	O89	0.778100	0.726800	0.700620
O901	O90	0.756240	0.689280	0.091730
O911	O91	0.755080	0.154760	0.487600
O921	O92	0.724770	0.829340	0.484900
O931	O93	0.443890	0.500980	0.932840
O941	O94	0.080280	0.758760	0.451470
O951	O95	0.558790	0.900780	0.130230
O961	O96	0.523600	0.799200	0.580510
O971	O97	0.173760	0.434120	0.469760
O981	O98	0.822000	0.115200	0.911600
O991	O99	0.556110	0.499020	0.067160
O1001	O100	0.543000	0.294400	0.600170
O1011	O101	0.179130	0.647460	0.447800
O1021	O102	0.104570	0.829340	0.984900
O1031	O103	0.441210	0.099220	0.869770
O1041	O104	0.461580	0.285360	0.930650
O1051	O105	0.830230	0.715860	0.465400
O1061	O106	0.141800	0.934000	0.406600
O1071	O107	0.321520	0.241240	0.048530
O1081	O108	0.610350	0.247900	0.038810
O1091	O109	0.895430	0.170660	0.015100
O1101	O110	0.350200	0.604600	0.523900
O1111	O111	0.243760	0.310720	0.908270
O1121	O112	0.652520	0.903440	0.925670
O1131	O113	0.685760	0.718520	0.528590
O1141	O114	0.114370	0.284140	0.034600
O1151	O115	0.784890	0.269180	0.019260
O1161	O116	0.275230	0.170660	0.515100
O1171	O117	0.739640	0.565880	0.030240
O1181	O118	0.457000	0.705600	0.399830
O1191	O119	0.312540	0.035680	0.169030
O1201	O120	0.215110	0.730820	0.980740
O1211	O121	0.506270	0.901540	0.745440
O1221	O122	0.090000	0.859200	0.176700
O1231	O123	0.967240	0.281480	0.971410
O1241	O124	0.792200	0.934000	0.906600
O1251	O125	0.826240	0.565880	0.530240
O1261	O126	0.341990	0.900780	0.630230
O1271	O127	0.362450	0.752100	0.461190
O1281	O128	0.678480	0.758760	0.951470
