data_ic501477u_si_002_freeONLY_PM
_symmetry_space_group_name_H-M	'P1'
_cell_length_a	18.020800
_cell_length_b	18.020800
_cell_length_c	18.368400
_cell_angle_alpha	69.519700
_cell_angle_beta	62.028700
_cell_angle_gamma	99.514000
_symmetry_Int_Tables_number 1

loop_
_symmetry_equiv_pos_as_xyz
'x,y,z'

loop_
_atom_site_label
_atom_site_type_symbol
_atom_site_fract_x
_atom_site_fract_y
_atom_site_fract_z
Zn11	Zn1	0.961890	0.819810	0.488080
Zn21	Zn2	0.192110	0.550030	0.988080
H11	H1	0.104200	0.662800	0.758800
H21	H2	0.389100	0.804900	0.151800
H31	H3	0.629900	0.538700	0.558600
H41	H4	0.531700	0.532700	0.586400
H51	H5	0.543300	0.459100	0.651800
H61	H6	0.031000	0.291400	0.052200
H71	H7	0.957100	0.668600	0.597100
H81	H8	0.282900	0.896300	0.213800
H91	H9	0.113200	0.321000	0.171800
H101	H10	0.258600	0.499700	0.832700
H111	H11	0.289000	0.840300	0.731900
H121	H12	0.234300	0.445800	0.097100
H131	H13	0.402700	0.811500	0.058600
H141	H14	0.729200	0.618000	0.545000
H151	H15	0.048300	0.523600	0.149300
H161	H16	0.318900	0.924500	0.578400
H171	H17	0.102500	0.667400	0.311300
H181	H18	0.827100	0.802400	0.649300
H191	H19	0.389900	0.503300	0.713800
H201	H20	0.167600	0.908700	0.332700
H211	H21	0.078400	0.137000	0.258800
H221	H22	0.337000	0.725800	0.045000
H231	H23	0.156400	0.916800	0.552200
H241	H24	0.380900	0.881900	0.086400
H251	H25	0.284200	0.735900	0.848300
H261	H26	0.386800	0.571000	0.933600
H271	H27	0.144200	0.451700	0.166300
H281	H28	0.997100	0.102700	0.078400
H291	H29	0.927800	0.979100	0.231900
H301	H30	0.245200	0.942700	0.651700
H311	H31	0.826400	0.868800	0.566800
H321	H32	0.705300	0.730200	0.652500
H331	H33	0.521300	0.586200	0.811300
H341	H34	0.982100	0.189000	0.058300
H351	H35	0.905600	0.103100	0.151700
H361	H36	0.007200	0.715000	0.671800
H371	H37	0.995400	0.679600	0.433600
H381	H38	0.097900	0.560700	0.883000
H391	H39	0.882000	0.689500	0.666300
H401	H40	0.117300	0.642200	0.152500
H411	H41	0.252700	0.959600	0.558300
H421	H42	0.056300	0.019100	0.383000
H431	H43	0.064400	0.606800	0.066800
H441	H44	0.915800	0.867500	0.348300
C11	C1	0.567900	0.520100	0.610400
C21	C2	0.999900	0.069600	0.238100
C31	C3	0.947800	0.923300	0.331700
C41	C4	0.236200	0.658100	0.051100
C51	C5	0.054800	0.833600	0.572600
C61	C6	0.139500	0.679400	0.778900
C71	C7	0.566000	0.569600	0.667200
C81	C8	0.192300	0.762000	0.738100
C91	C9	0.245000	0.720500	0.831700
C101	C10	0.224200	0.852700	0.256100
C111	C11	0.093800	0.372600	0.072600
C121	C12	0.029900	0.010200	0.352100
C131	C13	0.790800	0.712700	0.551100
C141	C14	0.154200	0.858900	0.328500
C151	C15	0.202000	0.777100	0.250100
C161	C16	0.954200	0.989100	0.262300
C171	C17	0.137700	0.618000	0.852100
C181	C18	0.970500	0.135500	0.106600
C191	C19	0.312600	0.517300	0.828500
C201	C20	0.041700	0.081600	0.278900
C211	C21	0.472800	0.547900	0.750100
C221	C22	0.012300	0.153800	0.155900
C231	C23	0.263200	0.766800	0.167200
C241	C24	0.052300	0.725300	0.387400
C251	C25	0.387300	0.560300	0.887400
C261	C26	0.118200	0.717300	0.314700
C271	C27	0.391200	0.519700	0.756100
C281	C28	0.257900	0.922900	0.606600
C291	C29	0.248600	0.783500	0.762300
C301	C30	0.468000	0.567100	0.814700
C311	C31	0.369500	0.821700	0.110400
C321	C32	0.190300	0.831800	0.655900
N11	N1	0.628400	0.620800	0.653200
N21	N2	0.047400	0.224300	0.151700
N31	N3	0.278200	0.704600	0.076200
N41	N4	0.143800	0.629400	0.108600
N51	N5	0.174900	0.444400	0.111100
N61	N6	0.002800	0.746900	0.627900
N71	N7	0.309700	0.538400	0.891900
N81	N8	0.944500	0.714000	0.611100
N91	N9	0.119900	0.863300	0.584200
N101	N10	0.189300	0.637600	0.878500
N111	N11	0.983900	0.932200	0.378500
N121	N12	0.069700	0.798400	0.391900
N131	N13	0.125200	0.369300	0.127900
N141	N14	0.719200	0.645600	0.576200
N151	N15	0.094600	0.577000	0.091200
N161	N16	0.052500	0.295900	0.084200
N171	N17	0.124000	0.800900	0.651700
N181	N18	0.762000	0.747600	0.608600
N191	N19	0.226000	0.718400	0.153200
N201	N20	0.831800	0.814200	0.591200
O11	O1	0.043700	0.883400	0.514700
O21	O2	0.279000	0.643300	0.987300
O31	O3	0.101900	0.441600	0.014700
O41	O4	0.869400	0.733700	0.487300
Zn31	Zn3	0.807890	0.449970	0.011920
Zn41	Zn4	0.038110	0.180190	0.511920
H451	H45	0.172900	0.197600	0.350700
H461	H46	0.943700	0.980900	0.617000
H471	H47	0.017900	0.811000	0.941700
H481	H48	0.969000	0.708600	0.947800
H491	H49	0.717100	0.103700	0.786200
H501	H50	0.832400	0.091300	0.667300
H511	H51	0.597300	0.188500	0.941400
H521	H52	0.002900	0.897300	0.921600
H531	H53	0.855800	0.548300	0.833700
H541	H54	0.897500	0.332600	0.688700
H551	H55	0.072200	0.020900	0.768100
H561	H56	0.004600	0.320400	0.566400
H571	H57	0.094400	0.896900	0.848300
H581	H58	0.468300	0.467300	0.413600
H591	H59	0.613200	0.429000	0.066400
H601	H60	0.747300	0.040400	0.441700
H611	H61	0.935600	0.393200	0.933200
H621	H62	0.951700	0.476400	0.850700
H631	H63	0.610900	0.195100	0.848200
H641	H64	0.042900	0.331400	0.402900
H651	H65	0.084200	0.132500	0.651700
H661	H66	0.843600	0.083200	0.447800
H671	H67	0.992800	0.285000	0.328200
H681	H68	0.886800	0.679000	0.828200
H691	H69	0.895800	0.337200	0.241200
H701	H70	0.741400	0.500300	0.167300
H711	H71	0.370100	0.461300	0.441400
H721	H72	0.118000	0.310500	0.333700
H731	H73	0.882700	0.357800	0.847500
H741	H74	0.270800	0.382000	0.455000
H751	H75	0.294700	0.269800	0.347500
H761	H76	0.711000	0.159700	0.268100
H771	H77	0.754800	0.057300	0.348300
H781	H78	0.456700	0.540900	0.348200
H791	H79	0.715800	0.264100	0.151700
H801	H80	0.681100	0.075500	0.421600
H811	H81	0.765700	0.554200	0.902900
H821	H82	0.173600	0.131200	0.433200
H831	H83	0.478700	0.413800	0.188700
H841	H84	0.921600	0.863000	0.741200
H851	H85	0.902100	0.439300	0.117000
H861	H86	0.663000	0.274200	0.955000
H871	H87	0.610100	0.496700	0.286200
H881	H88	0.619100	0.118100	0.913600
C331	C33	0.532000	0.432900	0.185300
C341	C34	0.608800	0.480300	0.243900
C351	C35	0.052200	0.076700	0.668300
C361	C36	0.809700	0.168200	0.344100
C371	C37	0.798000	0.222900	0.749900
C381	C38	0.630500	0.178300	0.889600
C391	C39	0.763800	0.341900	0.948900
C401	C40	0.775800	0.147300	0.743900
C411	C41	0.045800	0.010900	0.737700
C421	C42	0.906200	0.627400	0.927400
C431	C43	0.751400	0.216500	0.237700
C441	C44	0.958300	0.918400	0.721100
C451	C45	0.970100	0.989800	0.647900
C461	C46	0.029500	0.864500	0.893400
C471	C47	0.687400	0.482700	0.171500
C481	C48	0.987700	0.846200	0.844100
C491	C49	0.807700	0.238000	0.261900
C501	C50	0.845800	0.141100	0.671500
C511	C51	0.945200	0.166400	0.427400
C521	C52	0.881800	0.282700	0.685300
C531	C53	0.434000	0.430400	0.332800
C541	C54	0.527200	0.452100	0.249900
C551	C55	0.000100	0.930400	0.761900
C561	C56	0.862300	0.382000	0.147900
C571	C57	0.947700	0.274700	0.612600
C581	C58	0.755000	0.279500	0.168300
C591	C59	0.860500	0.320600	0.221100
C601	C60	0.612700	0.439700	0.112600
C611	C61	0.742100	0.077100	0.393400
C621	C62	0.209200	0.287300	0.448900
C631	C63	0.432100	0.479900	0.389600
C641	C64	0.736800	0.233200	0.832800
N211	N21	0.905400	0.423000	0.908800
N221	N22	0.690300	0.461600	0.108100
N231	N23	0.238000	0.252400	0.391400
N241	N24	0.874800	0.630700	0.872100
N251	N25	0.810700	0.362400	0.121500
N261	N26	0.721800	0.295400	0.923800
N271	N27	0.880100	0.136700	0.415800
N281	N28	0.168200	0.185800	0.408800
N291	N29	0.371600	0.379200	0.346800
N301	N30	0.930300	0.201600	0.608100
N311	N31	0.016100	0.067800	0.621500
N321	N32	0.876000	0.199100	0.348300
N331	N33	0.952600	0.775700	0.848300
N341	N34	0.280800	0.354400	0.423800
N351	N35	0.825100	0.555600	0.888900
N361	N36	0.774000	0.281600	0.846800
N371	N37	0.856200	0.370600	0.891400
N381	N38	0.947500	0.704100	0.915800
N391	N39	0.997200	0.253100	0.372100
N401	N40	0.055500	0.286000	0.388900
O51	O5	0.956300	0.116600	0.485300
O61	O6	0.721000	0.356700	0.012700
O71	O7	0.898100	0.558400	0.985300
O81	O8	0.130600	0.266300	0.512700
