data_ic801404p_si_001_freeONLY_PM
_symmetry_space_group_name_H-M	'P1'
_cell_length_a	8.858300
_cell_length_b	11.700800
_cell_length_c	17.952200
_cell_angle_alpha	90.000000
_cell_angle_beta	90.000000
_cell_angle_gamma	100.045000
_symmetry_Int_Tables_number 1

loop_
_symmetry_equiv_pos_as_xyz
'x,y,z'

loop_
_atom_site_label
_atom_site_type_symbol
_atom_site_fract_x
_atom_site_fract_y
_atom_site_fract_z
Mn11	Mn1	0.458500	0.118360	0.430890
Mn21	Mn2	0.954840	0.116550	0.589340
Mn31	Mn3	0.541500	0.881640	0.930890
Mn41	Mn4	0.045160	0.883450	0.089340
H11	H1	0.713500	0.314300	0.006000
H21	H2	0.109900	0.917600	0.666200
H31	H3	0.542700	0.918600	0.187900
H41	H4	0.280500	0.835600	0.861500
H51	H5	0.456100	0.882800	0.642600
H61	H6	0.147400	0.911800	0.339900
H71	H7	0.983800	0.886900	0.376300
H81	H8	0.787100	0.847700	0.158400
H91	H9	0.132300	0.354400	0.642000
H101	H10	0.213300	0.858800	0.923500
H111	H11	0.386700	0.077300	0.852500
H121	H12	0.867700	0.645600	0.142000
H131	H13	0.277100	0.138100	0.590700
H141	H14	0.711000	0.492000	0.006600
H151	H15	0.752300	0.503300	0.529600
H161	H16	0.199200	0.118000	0.011200
H171	H17	0.290900	0.313100	0.502500
H181	H18	0.286500	0.685700	0.506000
H191	H19	0.133900	0.548800	0.654400
H201	H20	0.625500	0.893800	0.671200
H211	H21	0.630900	0.552700	0.364600
H221	H22	0.016200	0.113100	0.876300
H231	H23	0.457300	0.081400	0.687900
H241	H24	0.852600	0.088200	0.839900
H251	H25	0.634000	0.090900	0.703300
H261	H26	0.382500	0.642800	0.858000
H271	H27	0.786700	0.141200	0.423500
H281	H28	0.212900	0.152300	0.658400
H291	H29	0.622200	0.727900	0.356900
H301	H30	0.369100	0.447300	0.864600
H311	H31	0.617500	0.357200	0.358000
H321	H32	0.892800	0.277300	0.172300
H331	H33	0.722900	0.861900	0.090700
H341	H34	0.709100	0.686900	0.002500
H351	H35	0.704700	0.117700	0.004200
H361	H36	0.199300	0.311800	0.003700
H371	H37	0.289000	0.508000	0.506600
H381	H38	0.247700	0.496700	0.029600
H391	H39	0.800700	0.688200	0.503700
H401	H40	0.377800	0.272100	0.856900
H411	H41	0.374500	0.106200	0.171200
H421	H42	0.107200	0.722700	0.672300
H431	H43	0.366000	0.909100	0.203300
H441	H44	0.295300	0.882300	0.504200
H451	H45	0.231300	0.125600	0.300900
H461	H46	0.755000	0.309100	0.528900
H471	H47	0.056500	0.933200	0.838500
H481	H48	0.245000	0.690900	0.028900
H491	H49	0.890100	0.082400	0.166200
H501	H50	0.613300	0.922700	0.352500
H511	H51	0.866100	0.451200	0.154400
H521	H52	0.943500	0.066800	0.338500
H531	H53	0.768700	0.874400	0.800900
H541	H54	0.719500	0.164400	0.361500
H551	H55	0.800800	0.882000	0.511200
H561	H56	0.543900	0.117200	0.142600
C11	C1	0.450300	0.945700	0.172200
C21	C2	0.552000	0.757100	0.386800
C31	C3	0.555600	0.505000	0.391800
C41	C4	0.954500	0.247500	0.138100
C51	C5	0.643900	0.268000	0.975200
C61	C6	0.955600	0.071000	0.836800
C71	C7	0.084300	0.090000	0.428200
C81	C8	0.024800	0.110600	0.762300
C91	C9	0.356100	0.732000	0.475200
C101	C10	0.361200	0.850600	0.473100
C111	C11	0.638800	0.149400	0.973100
C121	C12	0.531300	0.121400	0.257800
C131	C13	0.947500	0.615200	0.120300
C141	C14	0.049600	0.055700	0.347200
C151	C15	0.471800	0.081200	0.180000
C161	C16	0.950400	0.944300	0.847200
C171	C17	0.167700	0.524600	0.053000
C181	C18	0.357500	0.479500	0.475300
C191	C19	0.544400	0.446200	0.931200
C201	C20	0.468700	0.878600	0.757800
C211	C21	0.583200	0.085000	0.591700
C221	C22	0.955900	0.130600	0.134600
C231	C23	0.058800	0.503200	0.625900
C241	C24	0.642500	0.520500	0.975300
C251	C25	0.832300	0.475400	0.553000
C261	C26	0.548700	0.875700	0.385100
C271	C27	0.052500	0.384800	0.620300
C281	C28	0.915700	0.910000	0.928200
C291	C29	0.049100	0.321600	0.088200
C301	C30	0.639100	0.638300	0.973000
C311	C31	0.950900	0.678400	0.588200
C321	C32	0.455500	0.682600	0.430800
C331	C33	0.448000	0.242900	0.886800
C341	C34	0.044100	0.869400	0.634600
C351	C35	0.941200	0.496800	0.125900
C361	C36	0.451300	0.124300	0.885100
C371	C37	0.549700	0.054300	0.672200
C381	C38	0.416800	0.915000	0.091700
C391	C39	0.134700	0.150200	0.042800
C401	C40	0.360900	0.361700	0.473000
C411	C41	0.444400	0.495000	0.891800
C421	C42	0.833400	0.358300	0.553100
C431	C43	0.448500	0.612600	0.889800
C441	C44	0.947700	0.553000	0.587000
C451	C45	0.975200	0.889400	0.262300
C461	C46	0.544500	0.317400	0.930800
C471	C47	0.044400	0.929000	0.336800
C481	C48	0.528200	0.918800	0.680000
C491	C49	0.551500	0.387400	0.389800
C501	C50	0.052300	0.447000	0.087000
C511	C51	0.862000	0.732300	0.539000
C521	C52	0.166600	0.641700	0.053100
C531	C53	0.138000	0.267700	0.039000
C541	C54	0.455600	0.553800	0.431200
C551	C55	0.045500	0.752500	0.638100
C561	C56	0.865300	0.849800	0.542800
N11	N1	0.945900	0.311800	0.587600
N21	N2	0.046000	0.080200	0.088400
N31	N3	0.456500	0.923200	0.428600
N41	N4	0.054100	0.688200	0.087600
N51	N5	0.954000	0.919800	0.588400
N61	N6	0.453800	0.314300	0.433000
N71	N7	0.543500	0.076800	0.928600
N81	N8	0.546200	0.685700	0.933000
O11	O1	0.167000	0.136700	0.756100
O21	O2	0.140800	0.130900	0.295600
O31	O3	0.859200	0.869100	0.795600
O41	O4	0.703600	0.160400	0.408300
O51	O5	0.930900	0.112700	0.708900
O61	O6	0.712700	0.083200	0.565900
O71	O7	0.801200	0.843200	0.111700
O81	O8	0.473400	0.111200	0.551900
O91	O9	0.023000	0.889000	0.968000
O101	O10	0.437800	0.112600	0.309800
O111	O11	0.977000	0.111000	0.468000
O121	O12	0.069100	0.887300	0.208900
O131	O13	0.217600	0.091500	0.452000
O141	O14	0.198800	0.156800	0.611700
O151	O15	0.833000	0.863300	0.256100
O161	O16	0.296400	0.839600	0.908300
O171	O17	0.562200	0.887400	0.809800
O181	O18	0.526600	0.888800	0.051900
O191	O19	0.782400	0.908500	0.952000
O201	O20	0.330500	0.846000	0.763000
O211	O21	0.287300	0.916800	0.065900
O221	O22	0.669500	0.154000	0.263000
