data_ICOWON_freeONLY_PM
_symmetry_space_group_name_H-M	'P1'
_cell_length_a	8.754400
_cell_length_b	10.003700
_cell_length_c	11.789500
_cell_angle_alpha	74.695000
_cell_angle_beta	69.848000
_cell_angle_gamma	86.182000
_symmetry_Int_Tables_number 1

loop_
_symmetry_equiv_pos_as_xyz
'x,y,z'

loop_
_atom_site_label
_atom_site_type_symbol
_atom_site_fract_x
_atom_site_fract_y
_atom_site_fract_z
La11	La1	0.254660	0.522470	0.487610
La21	La2	0.745340	0.477530	0.512390
H11	H1	0.766700	0.700400	0.136400
H21	H2	0.793800	0.540600	0.162500
H31	H3	0.626500	0.690700	0.005200
H41	H4	0.627100	0.528400	0.041300
H51	H5	0.913000	0.539600	0.940300
H61	H6	0.904600	0.701500	0.897800
H71	H7	0.756500	0.686200	0.774800
H81	H8	0.736800	0.525400	0.827800
H91	H9	0.275600	0.033000	0.399500
H101	H10	0.240200	0.019900	0.281200
H111	H11	0.021800	0.121800	0.401700
H121	H12	0.964600	0.978500	0.397700
H131	H13	0.186000	0.226000	0.653000
H141	H14	0.350000	0.232000	0.473000
H151	H15	0.469000	0.297000	0.361000
H161	H16	0.049000	0.269000	0.642000
H171	H17	0.233300	0.299600	0.863600
H181	H18	0.206200	0.459400	0.837500
H191	H19	0.373500	0.309300	0.994800
H201	H20	0.372900	0.471600	0.958700
H211	H21	0.087000	0.460400	0.059700
H221	H22	0.095400	0.298500	0.102200
H231	H23	0.243500	0.313800	0.225200
H241	H24	0.263200	0.474600	0.172200
H251	H25	0.724400	0.967000	0.600500
H261	H26	0.759800	0.980100	0.718800
H271	H27	0.978200	0.878200	0.598300
H281	H28	0.035400	0.021500	0.602300
H291	H29	0.814000	0.774000	0.347000
H301	H30	0.650000	0.768000	0.527000
H311	H31	0.531000	0.703000	0.639000
H321	H32	0.951000	0.731000	0.358000
C11	C1	0.565900	0.588100	0.261000
C21	C2	0.717300	0.611900	0.147500
C31	C3	0.690200	0.611200	0.026800
C41	C4	0.845100	0.615200	0.917400
C51	C5	0.811600	0.603500	0.803100
C61	C6	0.956000	0.585500	0.694500
C71	C7	0.236100	0.832200	0.404600
C81	C8	0.207500	0.986000	0.371400
C91	C9	0.032000	0.022300	0.428800
C101	C10	0.434100	0.411900	0.739000
C111	C11	0.282700	0.388100	0.852500
C121	C12	0.309800	0.388800	0.973200
C131	C13	0.154900	0.384800	0.082600
C141	C14	0.188400	0.396500	0.196900
C151	C15	0.044000	0.414500	0.305500
C161	C16	0.763900	0.167800	0.595400
C171	C17	0.792500	0.014000	0.628600
C181	C18	0.968000	0.977700	0.571200
O11	O1	0.427200	0.607400	0.250500
O21	O2	0.577300	0.546100	0.370000
O31	O3	0.098600	0.617800	0.683100
O41	O4	0.933200	0.535700	0.611780
O51	O5	0.137300	0.749800	0.399500
O61	O6	0.356800	0.785500	0.437600
O71	O7	0.128400	0.293600	0.653300
O81	O8	0.377700	0.299600	0.411700
O91	O9	0.572800	0.392600	0.749500
O101	O10	0.422700	0.453900	0.630000
O111	O11	0.901400	0.382200	0.316900
O121	O12	0.066800	0.464300	0.388220
O131	O13	0.862700	0.250200	0.600500
O141	O14	0.643200	0.214500	0.562400
O151	O15	0.871600	0.706400	0.346700
O161	O16	0.622300	0.700400	0.588300
