data_IDIWIB_freeONLY_PM
_symmetry_space_group_name_H-M	'P1'
_cell_length_a	17.518500
_cell_length_b	6.875000
_cell_length_c	12.168000
_cell_angle_alpha	90.000000
_cell_angle_beta	90.000000
_cell_angle_gamma	90.000000
_symmetry_Int_Tables_number 1

loop_
_symmetry_equiv_pos_as_xyz
'x,y,z'

loop_
_atom_site_label
_atom_site_type_symbol
_atom_site_fract_x
_atom_site_fract_y
_atom_site_fract_z
O11	O1	0.089360	0.913600	0.089200
O21	O2	0.426010	0.588000	0.385300
C11	C1	0.227000	0.575800	0.201500
H11	H1	0.204600	0.458400	0.181500
C21	C2	0.294200	0.576500	0.259500
H21	H2	0.316900	0.459200	0.279200
O31	O3	0.410640	0.086400	0.589200
O41	O4	0.073990	0.412000	0.885300
C31	C3	0.273000	0.424200	0.701500
H31	H3	0.295400	0.541600	0.681500
C41	C4	0.205800	0.423500	0.759500
H41	H4	0.183100	0.540800	0.779200
O51	O5	0.910640	0.413600	0.910800
O61	O6	0.573990	0.088000	0.614700
C51	C5	0.773000	0.075800	0.798500
H51	H5	0.795400	0.958400	0.818500
C61	C6	0.705800	0.076500	0.740500
H61	H6	0.683100	0.959200	0.720800
O71	O7	0.589360	0.586400	0.410800
O81	O8	0.926010	0.912000	0.114700
C71	C7	0.727000	0.924200	0.298500
H71	H7	0.704600	0.041600	0.318500
C81	C8	0.794200	0.923500	0.240500
H81	H8	0.816900	0.040800	0.220800
O91	O9	0.910640	0.086400	0.910800
O101	O10	0.573990	0.412000	0.614700
C91	C9	0.773000	0.424200	0.798500
H91	H9	0.795400	0.541600	0.818500
C101	C10	0.705800	0.423500	0.740500
H101	H10	0.683100	0.540800	0.720800
O111	O11	0.589360	0.913600	0.410800
O121	O12	0.926010	0.588000	0.114700
C111	C11	0.727000	0.575800	0.298500
H111	H11	0.704600	0.458400	0.318500
C121	C12	0.794200	0.576500	0.240500
H121	H12	0.816900	0.459200	0.220800
O131	O13	0.089360	0.586400	0.089200
O141	O14	0.426010	0.912000	0.385300
C131	C13	0.227000	0.924200	0.201500
H131	H13	0.204600	0.041600	0.181500
C141	C14	0.294200	0.923500	0.259500
H141	H14	0.316900	0.040800	0.279200
O151	O15	0.410640	0.413600	0.589200
O161	O16	0.073990	0.088000	0.885300
C151	C15	0.273000	0.075800	0.701500
H151	H15	0.295400	0.958400	0.681500
C161	C16	0.205800	0.076500	0.759500
H161	H16	0.183100	0.959200	0.779200
V11	V1	0.000000	0.000000	0.000000
V21	V2	0.500000	0.000000	0.500000
V31	V3	0.000000	0.500000	0.000000
V41	V4	0.500000	0.500000	0.500000
O171	O17	0.993200	0.750000	0.925500
C171	C17	0.328700	0.750000	0.288900
C181	C18	0.192500	0.750000	0.172800
C191	C19	0.398800	0.750000	0.358800
C201	C20	0.118200	0.750000	0.111800
O181	O18	0.506800	0.250000	0.425500
C211	C21	0.171300	0.250000	0.788900
C221	C22	0.307500	0.250000	0.672800
C231	C23	0.101200	0.250000	0.858800
C241	C24	0.381800	0.250000	0.611800
O191	O19	0.006800	0.250000	0.074500
C251	C25	0.671300	0.250000	0.711100
C261	C26	0.807500	0.250000	0.827200
C271	C27	0.601200	0.250000	0.641200
C281	C28	0.881800	0.250000	0.888200
O201	O20	0.493200	0.750000	0.574500
C291	C29	0.828700	0.750000	0.211100
C301	C30	0.692500	0.750000	0.327200
C311	C31	0.898800	0.750000	0.141200
C321	C32	0.618200	0.750000	0.388200
