data_IDIWUN_freeONLY_PM
_symmetry_space_group_name_H-M	'P1'
_cell_length_a	23.118000
_cell_length_b	20.919200
_cell_length_c	12.002100
_cell_angle_alpha	90.000000
_cell_angle_beta	111.627000
_cell_angle_gamma	90.000000
_symmetry_Int_Tables_number 1

loop_
_symmetry_equiv_pos_as_xyz
'x,y,z'

loop_
_atom_site_label
_atom_site_type_symbol
_atom_site_fract_x
_atom_site_fract_y
_atom_site_fract_z
O11	O1	0.037800	0.000400	0.185500
O21	O2	0.934000	0.124600	0.144000
O31	O3	0.958700	0.089800	0.987000
O41	O4	0.558200	0.375900	0.366100
O51	O5	0.580700	0.456700	0.497200
C11	C1	0.928100	0.123200	0.028000
C21	C2	0.879400	0.166900	0.953000
C31	C3	0.850000	0.211400	0.994000
C41	C4	0.803600	0.250800	0.921000
C51	C5	0.786300	0.245300	0.794000
C61	C6	0.815100	0.199100	0.752000
C71	C7	0.862400	0.160700	0.827000
C81	C8	0.735500	0.286500	0.713000
C91	C9	0.726000	0.349100	0.742000
C101	C10	0.677000	0.385600	0.662000
C111	C11	0.640100	0.361100	0.553000
C121	C12	0.650000	0.300000	0.525000
C131	C13	0.696800	0.261100	0.600000
C141	C14	0.590700	0.402000	0.468000
H11	H1	0.861900	0.215900	0.078600
H21	H2	0.783700	0.281000	0.954100
H31	H3	0.802100	0.193100	0.667700
H41	H4	0.883100	0.130900	0.794600
H51	H5	0.752500	0.367300	0.815500
H61	H6	0.669600	0.427700	0.683300
H71	H7	0.623500	0.283400	0.450400
H81	H8	0.702700	0.219000	0.576700
H91	H9	0.082000	0.000300	0.217700
O61	O6	0.537800	0.500400	0.185500
O71	O7	0.434000	0.624600	0.144000
O81	O8	0.458700	0.589800	0.987000
O91	O9	0.058200	0.875900	0.366100
O101	O10	0.080700	0.956700	0.497200
C151	C15	0.428100	0.623200	0.028000
C161	C16	0.379400	0.666900	0.953000
C171	C17	0.350000	0.711400	0.994000
C181	C18	0.303600	0.750800	0.921000
C191	C19	0.286300	0.745300	0.794000
C201	C20	0.315100	0.699100	0.752000
C211	C21	0.362400	0.660700	0.827000
C221	C22	0.235500	0.786500	0.713000
C231	C23	0.226000	0.849100	0.742000
C241	C24	0.177000	0.885600	0.662000
C251	C25	0.140100	0.861100	0.553000
C261	C26	0.150000	0.800000	0.525000
C271	C27	0.196800	0.761100	0.600000
C281	C28	0.090700	0.902000	0.468000
H101	H10	0.361900	0.715900	0.078600
H111	H11	0.283700	0.781000	0.954100
H121	H12	0.302100	0.693100	0.667700
H131	H13	0.383100	0.630900	0.794600
H141	H14	0.252500	0.867300	0.815500
H151	H15	0.169600	0.927700	0.683300
H161	H16	0.123500	0.783400	0.450400
H171	H17	0.202700	0.719000	0.576700
H181	H18	0.582000	0.500300	0.217700
O111	O11	0.962200	0.000400	0.314500
O121	O12	0.066000	0.124600	0.356000
O131	O13	0.041300	0.089800	0.513000
O141	O14	0.441800	0.375900	0.133900
O151	O15	0.419300	0.456700	0.002800
C291	C29	0.071900	0.123200	0.472000
C301	C30	0.120600	0.166900	0.547000
C311	C31	0.150000	0.211400	0.506000
C321	C32	0.196400	0.250800	0.579000
C331	C33	0.213700	0.245300	0.706000
C341	C34	0.184900	0.199100	0.748000
C351	C35	0.137600	0.160700	0.673000
C361	C36	0.264500	0.286500	0.787000
C371	C37	0.274000	0.349100	0.758000
C381	C38	0.323000	0.385600	0.838000
C391	C39	0.359900	0.361100	0.947000
C401	C40	0.350000	0.300000	0.975000
C411	C41	0.303200	0.261100	0.900000
C421	C42	0.409300	0.402000	0.032000
H191	H19	0.138100	0.215900	0.421400
H201	H20	0.216300	0.281000	0.545900
H211	H21	0.197900	0.193100	0.832300
H221	H22	0.116900	0.130900	0.705400
H231	H23	0.247500	0.367300	0.684500
H241	H24	0.330400	0.427700	0.816700
H251	H25	0.376500	0.283400	0.049600
H261	H26	0.297300	0.219000	0.923300
H271	H27	0.918000	0.000300	0.282300
O161	O16	0.462200	0.500400	0.314500
O171	O17	0.566000	0.624600	0.356000
O181	O18	0.541300	0.589800	0.513000
O191	O19	0.941800	0.875900	0.133900
O201	O20	0.919300	0.956700	0.002800
C431	C43	0.571900	0.623200	0.472000
C441	C44	0.620600	0.666900	0.547000
C451	C45	0.650000	0.711400	0.506000
C461	C46	0.696400	0.750800	0.579000
C471	C47	0.713700	0.745300	0.706000
C481	C48	0.684900	0.699100	0.748000
C491	C49	0.637600	0.660700	0.673000
C501	C50	0.764500	0.786500	0.787000
C511	C51	0.774000	0.849100	0.758000
C521	C52	0.823000	0.885600	0.838000
C531	C53	0.859900	0.861100	0.947000
C541	C54	0.850000	0.800000	0.975000
C551	C55	0.803200	0.761100	0.900000
C561	C56	0.909300	0.902000	0.032000
H281	H28	0.638100	0.715900	0.421400
H291	H29	0.716300	0.781000	0.545900
H301	H30	0.697900	0.693100	0.832300
H311	H31	0.616900	0.630900	0.705400
H321	H32	0.747500	0.867300	0.684500
H331	H33	0.830400	0.927700	0.816700
H341	H34	0.876500	0.783400	0.049600
H351	H35	0.797300	0.719000	0.923300
H361	H36	0.418000	0.500300	0.282300
O211	O21	0.962200	0.999600	0.814500
O221	O22	0.066000	0.875400	0.856000
O231	O23	0.041300	0.910200	0.013000
O241	O24	0.441800	0.624100	0.633900
O251	O25	0.419300	0.543300	0.502800
C571	C57	0.071900	0.876800	0.972000
C581	C58	0.120600	0.833100	0.047000
C591	C59	0.150000	0.788600	0.006000
C601	C60	0.196400	0.749200	0.079000
C611	C61	0.213700	0.754700	0.206000
C621	C62	0.184900	0.800900	0.248000
C631	C63	0.137600	0.839300	0.173000
C641	C64	0.264500	0.713500	0.287000
C651	C65	0.274000	0.650900	0.258000
C661	C66	0.323000	0.614400	0.338000
C671	C67	0.359900	0.638900	0.447000
C681	C68	0.350000	0.700000	0.475000
C691	C69	0.303200	0.738900	0.400000
C701	C70	0.409300	0.598000	0.532000
H371	H37	0.138100	0.784100	0.921400
H381	H38	0.216300	0.719000	0.045900
H391	H39	0.197900	0.806900	0.332300
H401	H40	0.116900	0.869100	0.205400
H411	H41	0.247500	0.632700	0.184500
H421	H42	0.330400	0.572300	0.316700
H431	H43	0.376500	0.716600	0.549600
H441	H44	0.297300	0.781000	0.423300
H451	H45	0.918000	0.999700	0.782300
O261	O26	0.462200	0.499600	0.814500
O271	O27	0.566000	0.375400	0.856000
O281	O28	0.541300	0.410200	0.013000
O291	O29	0.941800	0.124100	0.633900
O301	O30	0.919300	0.043300	0.502800
C711	C71	0.571900	0.376800	0.972000
C721	C72	0.620600	0.333100	0.047000
C731	C73	0.650000	0.288600	0.006000
C741	C74	0.696400	0.249200	0.079000
C751	C75	0.713700	0.254700	0.206000
C761	C76	0.684900	0.300900	0.248000
C771	C77	0.637600	0.339300	0.173000
C781	C78	0.764500	0.213500	0.287000
C791	C79	0.774000	0.150900	0.258000
C801	C80	0.823000	0.114400	0.338000
C811	C81	0.859900	0.138900	0.447000
C821	C82	0.850000	0.200000	0.475000
C831	C83	0.803200	0.238900	0.400000
C841	C84	0.909300	0.098000	0.532000
H461	H46	0.638100	0.284100	0.921400
H471	H47	0.716300	0.219000	0.045900
H481	H48	0.697900	0.306900	0.332300
H491	H49	0.616900	0.369100	0.205400
H501	H50	0.747500	0.132700	0.184500
H511	H51	0.830400	0.072300	0.316700
H521	H52	0.876500	0.216600	0.549600
H531	H53	0.797300	0.281000	0.423300
H541	H54	0.418000	0.499700	0.782300
O311	O31	0.037800	0.999600	0.685500
O321	O32	0.934000	0.875400	0.644000
O331	O33	0.958700	0.910200	0.487000
O341	O34	0.558200	0.624100	0.866100
O351	O35	0.580700	0.543300	0.997200
C851	C85	0.928100	0.876800	0.528000
C861	C86	0.879400	0.833100	0.453000
C871	C87	0.850000	0.788600	0.494000
C881	C88	0.803600	0.749200	0.421000
C891	C89	0.786300	0.754700	0.294000
C901	C90	0.815100	0.800900	0.252000
C911	C91	0.862400	0.839300	0.327000
C921	C92	0.735500	0.713500	0.213000
C931	C93	0.726000	0.650900	0.242000
C941	C94	0.677000	0.614400	0.162000
C951	C95	0.640100	0.638900	0.053000
C961	C96	0.650000	0.700000	0.025000
C971	C97	0.696800	0.738900	0.100000
C981	C98	0.590700	0.598000	0.968000
H551	H55	0.861900	0.784100	0.578600
H561	H56	0.783700	0.719000	0.454100
H571	H57	0.802100	0.806900	0.167700
H581	H58	0.883100	0.869100	0.294600
H591	H59	0.752500	0.632700	0.315500
H601	H60	0.669600	0.572300	0.183300
H611	H61	0.623500	0.716600	0.950400
H621	H62	0.702700	0.781000	0.076700
H631	H63	0.082000	0.999700	0.717700
O361	O36	0.537800	0.499600	0.685500
O371	O37	0.434000	0.375400	0.644000
O381	O38	0.458700	0.410200	0.487000
O391	O39	0.058200	0.124100	0.866100
O401	O40	0.080700	0.043300	0.997200
C991	C99	0.428100	0.376800	0.528000
C1001	C100	0.379400	0.333100	0.453000
C1011	C101	0.350000	0.288600	0.494000
C1021	C102	0.303600	0.249200	0.421000
C1031	C103	0.286300	0.254700	0.294000
C1041	C104	0.315100	0.300900	0.252000
C1051	C105	0.362400	0.339300	0.327000
C1061	C106	0.235500	0.213500	0.213000
C1071	C107	0.226000	0.150900	0.242000
C1081	C108	0.177000	0.114400	0.162000
C1091	C109	0.140100	0.138900	0.053000
C1101	C110	0.150000	0.200000	0.025000
C1111	C111	0.196800	0.238900	0.100000
C1121	C112	0.090700	0.098000	0.968000
H641	H64	0.361900	0.284100	0.578600
H651	H65	0.283700	0.219000	0.454100
H661	H66	0.302100	0.306900	0.167700
H671	H67	0.383100	0.369100	0.294600
H681	H68	0.252500	0.132700	0.315500
H691	H69	0.169600	0.072300	0.183300
H701	H70	0.123500	0.216600	0.950400
H711	H71	0.202700	0.281000	0.076700
H721	H72	0.582000	0.499700	0.717700
Zn11	Zn1	0.000000	0.000000	0.000000
Zn21	Zn2	0.500000	0.500000	0.000000
Zn31	Zn3	0.000000	0.000000	0.500000
Zn41	Zn4	0.500000	0.500000	0.500000
Zn51	Zn5	0.000000	0.070900	0.250000
Zn61	Zn6	0.000000	0.931800	0.250000
Zn71	Zn7	0.500000	0.570900	0.250000
Zn81	Zn8	0.500000	0.431800	0.250000
Zn91	Zn9	0.000000	0.929100	0.750000
Zn101	Zn10	0.000000	0.068200	0.750000
Zn111	Zn11	0.500000	0.429100	0.750000
Zn121	Zn12	0.500000	0.568200	0.750000
