data_IFENOY02_SL_PM
_symmetry_space_group_name_H-M	'P1'
_cell_length_a	26.457300
_cell_length_b	26.457300
_cell_length_c	5.285400
_cell_angle_alpha	90.000000
_cell_angle_beta	90.000000
_cell_angle_gamma	90.000000
_symmetry_Int_Tables_number 1

loop_
_symmetry_equiv_pos_as_xyz
'x,y,z'

loop_
_atom_site_label
_atom_site_type_symbol
_atom_site_fract_x
_atom_site_fract_y
_atom_site_fract_z
Zn11	Zn1	0.285150	0.773800	0.084180
H21	H2	0.392800	0.794900	0.859100
H31	H3	0.320800	0.687300	0.475700
H41	H4	0.830300	0.122200	0.313500
H51	H5	0.878900	0.064300	0.521700
H61	H6	0.463000	0.551900	0.903900
H71	H7	0.499100	0.599300	0.595600
H81	H8	0.493700	0.667700	0.280100
H91	H9	0.470300	0.830800	0.890500
H101	H10	0.550500	0.858700	0.764800
H111	H11	0.596000	0.714300	0.724900
H121	H12	0.515100	0.688200	0.851600
C131	C13	0.395960	0.768430	0.974000
C141	C14	0.378100	0.712480	0.258900
C151	C15	0.354940	0.683280	0.438800
C161	C16	0.384370	0.646910	0.566200
C171	C17	0.863880	0.117690	0.266700
C181	C18	0.892740	0.083300	0.390700
C191	C19	0.443800	0.576290	0.821200
C201	C20	0.465300	0.604290	0.636800
C211	C21	0.436590	0.641490	0.504900
C221	C22	0.459720	0.671700	0.320800
C231	C23	0.430370	0.707490	0.202400
C241	C24	0.487960	0.758350	0.916800
C251	C25	0.496300	0.807700	0.868000
C261	C26	0.543300	0.824500	0.784000
C271	C27	0.580690	0.785510	0.726300
C281	C28	0.571100	0.738200	0.758400
C291	C29	0.523100	0.722400	0.844100
C301	C30	0.631700	0.800900	0.625000
N311	N31	0.358420	0.751200	0.107700
N321	N32	0.440140	0.743930	0.019300
O331	O33	0.253490	0.776670	0.409500
O341	O34	0.665210	0.777110	0.620000
O351	O35	0.635600	0.852700	0.596000
H361	H36	0.314470	0.254070	0.090500
Zn371	Zn37	0.785150	0.273800	0.584180
H381	H38	0.892800	0.294900	0.359100
H391	H39	0.820800	0.187300	0.975700
H401	H40	0.330300	0.622200	0.813500
H411	H41	0.378900	0.564300	0.021700
H421	H42	0.963000	0.051900	0.403900
H431	H43	0.999100	0.099300	0.095600
H441	H44	0.993700	0.167700	0.780100
H451	H45	0.970300	0.330800	0.390500
H461	H46	0.050500	0.358700	0.264800
H471	H47	0.096000	0.214300	0.224900
H481	H48	0.015100	0.188200	0.351600
C491	C49	0.895960	0.268430	0.474000
C501	C50	0.878100	0.212480	0.758900
C511	C51	0.854940	0.183280	0.938800
C521	C52	0.884370	0.146910	0.066200
C531	C53	0.363880	0.617690	0.766700
C541	C54	0.392740	0.583300	0.890700
C551	C55	0.943800	0.076290	0.321200
C561	C56	0.965300	0.104290	0.136800
C571	C57	0.936590	0.141490	0.004900
C581	C58	0.959720	0.171700	0.820800
C591	C59	0.930370	0.207490	0.702400
C601	C60	0.987960	0.258350	0.416800
C611	C61	0.996300	0.307700	0.368000
C621	C62	0.043300	0.324500	0.284000
C631	C63	0.080690	0.285510	0.226300
C641	C64	0.071100	0.238200	0.258400
C651	C65	0.023100	0.222400	0.344100
C661	C66	0.131700	0.300900	0.125000
N671	N67	0.858420	0.251200	0.607700
N681	N68	0.940140	0.243930	0.519300
O691	O69	0.753490	0.276670	0.909500
O701	O70	0.165210	0.277110	0.120000
O711	O71	0.135600	0.352700	0.096000
H721	H72	0.814470	0.754070	0.590500
Zn731	Zn73	0.714850	0.226200	0.084180
H741	H74	0.607200	0.205100	0.859100
H751	H75	0.679200	0.312700	0.475700
H761	H76	0.169700	0.877800	0.313500
H771	H77	0.121100	0.935700	0.521700
H781	H78	0.537000	0.448100	0.903900
H791	H79	0.500900	0.400700	0.595600
H801	H80	0.506300	0.332300	0.280100
H811	H81	0.529700	0.169200	0.890500
H821	H82	0.449500	0.141300	0.764800
H831	H83	0.404000	0.285700	0.724900
H841	H84	0.484900	0.311800	0.851600
C851	C85	0.604040	0.231570	0.974000
C861	C86	0.621900	0.287520	0.258900
C871	C87	0.645060	0.316720	0.438800
C881	C88	0.615630	0.353090	0.566200
C891	C89	0.136120	0.882310	0.266700
C901	C90	0.107260	0.916700	0.390700
C911	C91	0.556200	0.423710	0.821200
C921	C92	0.534700	0.395710	0.636800
C931	C93	0.563410	0.358510	0.504900
C941	C94	0.540280	0.328300	0.320800
C951	C95	0.569630	0.292510	0.202400
C961	C96	0.512040	0.241650	0.916800
C971	C97	0.503700	0.192300	0.868000
C981	C98	0.456700	0.175500	0.784000
C991	C99	0.419310	0.214490	0.726300
C1001	C100	0.428900	0.261800	0.758400
C1011	C101	0.476900	0.277600	0.844100
C1021	C102	0.368300	0.199100	0.625000
N1031	N103	0.641580	0.248800	0.107700
N1041	N104	0.559860	0.256070	0.019300
O1051	O105	0.746510	0.223330	0.409500
O1061	O106	0.334790	0.222890	0.620000
O1071	O107	0.364400	0.147300	0.596000
H1081	H108	0.685530	0.745930	0.090500
Zn1091	Zn109	0.214850	0.726200	0.584180
H1101	H110	0.107200	0.705100	0.359100
H1111	H111	0.179200	0.812700	0.975700
H1121	H112	0.669700	0.377800	0.813500
H1131	H113	0.621100	0.435700	0.021700
H1141	H114	0.037000	0.948100	0.403900
H1151	H115	0.000900	0.900700	0.095600
H1161	H116	0.006300	0.832300	0.780100
H1171	H117	0.029700	0.669200	0.390500
H1181	H118	0.949500	0.641300	0.264800
H1191	H119	0.904000	0.785700	0.224900
H1201	H120	0.984900	0.811800	0.351600
C1211	C121	0.104040	0.731570	0.474000
C1221	C122	0.121900	0.787520	0.758900
C1231	C123	0.145060	0.816720	0.938800
C1241	C124	0.115630	0.853090	0.066200
C1251	C125	0.636120	0.382310	0.766700
C1261	C126	0.607260	0.416700	0.890700
C1271	C127	0.056200	0.923710	0.321200
C1281	C128	0.034700	0.895710	0.136800
C1291	C129	0.063410	0.858510	0.004900
C1301	C130	0.040280	0.828300	0.820800
C1311	C131	0.069630	0.792510	0.702400
C1321	C132	0.012040	0.741650	0.416800
C1331	C133	0.003700	0.692300	0.368000
C1341	C134	0.956700	0.675500	0.284000
C1351	C135	0.919310	0.714490	0.226300
C1361	C136	0.928900	0.761800	0.258400
C1371	C137	0.976900	0.777600	0.344100
C1381	C138	0.868300	0.699100	0.125000
N1391	N139	0.141580	0.748800	0.607700
N1401	N140	0.059860	0.756070	0.519300
O1411	O141	0.246510	0.723330	0.909500
O1421	O142	0.834790	0.722890	0.120000
O1431	O143	0.864400	0.647300	0.096000
H1441	H144	0.185530	0.245930	0.590500
Zn1451	Zn145	0.773800	0.714850	0.915820
H1461	H146	0.794900	0.607200	0.140900
H1471	H147	0.687300	0.679200	0.524300
H1481	H148	0.122200	0.169700	0.686500
H1491	H149	0.064300	0.121100	0.478300
H1501	H150	0.551900	0.537000	0.096100
H1511	H151	0.599300	0.500900	0.404400
H1521	H152	0.667700	0.506300	0.719900
H1531	H153	0.830800	0.529700	0.109500
H1541	H154	0.858700	0.449500	0.235200
H1551	H155	0.714300	0.404000	0.275100
H1561	H156	0.688200	0.484900	0.148400
C1571	C157	0.768430	0.604040	0.026000
C1581	C158	0.712480	0.621900	0.741100
C1591	C159	0.683280	0.645060	0.561200
C1601	C160	0.646910	0.615630	0.433800
C1611	C161	0.117690	0.136120	0.733300
C1621	C162	0.083300	0.107260	0.609300
C1631	C163	0.576290	0.556200	0.178800
C1641	C164	0.604290	0.534700	0.363200
C1651	C165	0.641490	0.563410	0.495100
C1661	C166	0.671700	0.540280	0.679200
C1671	C167	0.707490	0.569630	0.797600
C1681	C168	0.758350	0.512040	0.083200
C1691	C169	0.807700	0.503700	0.132000
C1701	C170	0.824500	0.456700	0.216000
C1711	C171	0.785510	0.419310	0.273700
C1721	C172	0.738200	0.428900	0.241600
C1731	C173	0.722400	0.476900	0.155900
C1741	C174	0.800900	0.368300	0.375000
N1751	N175	0.751200	0.641580	0.892300
N1761	N176	0.743930	0.559860	0.980700
O1771	O177	0.776670	0.746510	0.590500
O1781	O178	0.777110	0.334790	0.380000
O1791	O179	0.852700	0.364400	0.404000
H1801	H180	0.254070	0.685530	0.909500
Zn1811	Zn181	0.273800	0.214850	0.415820
H1821	H182	0.294900	0.107200	0.640900
H1831	H183	0.187300	0.179200	0.024300
H1841	H184	0.622200	0.669700	0.186500
H1851	H185	0.564300	0.621100	0.978300
H1861	H186	0.051900	0.037000	0.596100
H1871	H187	0.099300	0.000900	0.904400
H1881	H188	0.167700	0.006300	0.219900
H1891	H189	0.330800	0.029700	0.609500
H1901	H190	0.358700	0.949500	0.735200
H1911	H191	0.214300	0.904000	0.775100
H1921	H192	0.188200	0.984900	0.648400
C1931	C193	0.268430	0.104040	0.526000
C1941	C194	0.212480	0.121900	0.241100
C1951	C195	0.183280	0.145060	0.061200
C1961	C196	0.146910	0.115630	0.933800
C1971	C197	0.617690	0.636120	0.233300
C1981	C198	0.583300	0.607260	0.109300
C1991	C199	0.076290	0.056200	0.678800
C2001	C200	0.104290	0.034700	0.863200
C2011	C201	0.141490	0.063410	0.995100
C2021	C202	0.171700	0.040280	0.179200
C2031	C203	0.207490	0.069630	0.297600
C2041	C204	0.258350	0.012040	0.583200
C2051	C205	0.307700	0.003700	0.632000
C2061	C206	0.324500	0.956700	0.716000
C2071	C207	0.285510	0.919310	0.773700
C2081	C208	0.238200	0.928900	0.741600
C2091	C209	0.222400	0.976900	0.655900
C2101	C210	0.300900	0.868300	0.875000
N2111	N211	0.251200	0.141580	0.392300
N2121	N212	0.243930	0.059860	0.480700
O2131	O213	0.276670	0.246510	0.090500
O2141	O214	0.277110	0.834790	0.880000
O2151	O215	0.352700	0.864400	0.904000
H2161	H216	0.754070	0.185530	0.409500
Zn2171	Zn217	0.226200	0.285150	0.915820
H2181	H218	0.205100	0.392800	0.140900
H2191	H219	0.312700	0.320800	0.524300
H2201	H220	0.877800	0.830300	0.686500
H2211	H221	0.935700	0.878900	0.478300
H2221	H222	0.448100	0.463000	0.096100
H2231	H223	0.400700	0.499100	0.404400
H2241	H224	0.332300	0.493700	0.719900
H2251	H225	0.169200	0.470300	0.109500
H2261	H226	0.141300	0.550500	0.235200
H2271	H227	0.285700	0.596000	0.275100
H2281	H228	0.311800	0.515100	0.148400
C2291	C229	0.231570	0.395960	0.026000
C2301	C230	0.287520	0.378100	0.741100
C2311	C231	0.316720	0.354940	0.561200
C2321	C232	0.353090	0.384370	0.433800
C2331	C233	0.882310	0.863880	0.733300
C2341	C234	0.916700	0.892740	0.609300
C2351	C235	0.423710	0.443800	0.178800
C2361	C236	0.395710	0.465300	0.363200
C2371	C237	0.358510	0.436590	0.495100
C2381	C238	0.328300	0.459720	0.679200
C2391	C239	0.292510	0.430370	0.797600
C2401	C240	0.241650	0.487960	0.083200
C2411	C241	0.192300	0.496300	0.132000
C2421	C242	0.175500	0.543300	0.216000
C2431	C243	0.214490	0.580690	0.273700
C2441	C244	0.261800	0.571100	0.241600
C2451	C245	0.277600	0.523100	0.155900
C2461	C246	0.199100	0.631700	0.375000
N2471	N247	0.248800	0.358420	0.892300
N2481	N248	0.256070	0.440140	0.980700
O2491	O249	0.223330	0.253490	0.590500
O2501	O250	0.222890	0.665210	0.380000
O2511	O251	0.147300	0.635600	0.404000
H2521	H252	0.745930	0.314470	0.909500
Zn2531	Zn253	0.726200	0.785150	0.415820
H2541	H254	0.705100	0.892800	0.640900
H2551	H255	0.812700	0.820800	0.024300
H2561	H256	0.377800	0.330300	0.186500
H2571	H257	0.435700	0.378900	0.978300
H2581	H258	0.948100	0.963000	0.596100
H2591	H259	0.900700	0.999100	0.904400
H2601	H260	0.832300	0.993700	0.219900
H2611	H261	0.669200	0.970300	0.609500
H2621	H262	0.641300	0.050500	0.735200
H2631	H263	0.785700	0.096000	0.775100
H2641	H264	0.811800	0.015100	0.648400
C2651	C265	0.731570	0.895960	0.526000
C2661	C266	0.787520	0.878100	0.241100
C2671	C267	0.816720	0.854940	0.061200
C2681	C268	0.853090	0.884370	0.933800
C2691	C269	0.382310	0.363880	0.233300
C2701	C270	0.416700	0.392740	0.109300
C2711	C271	0.923710	0.943800	0.678800
C2721	C272	0.895710	0.965300	0.863200
C2731	C273	0.858510	0.936590	0.995100
C2741	C274	0.828300	0.959720	0.179200
C2751	C275	0.792510	0.930370	0.297600
C2761	C276	0.741650	0.987960	0.583200
C2771	C277	0.692300	0.996300	0.632000
C2781	C278	0.675500	0.043300	0.716000
C2791	C279	0.714490	0.080690	0.773700
C2801	C280	0.761800	0.071100	0.741600
C2811	C281	0.777600	0.023100	0.655900
C2821	C282	0.699100	0.131700	0.875000
N2831	N283	0.748800	0.858420	0.392300
N2841	N284	0.756070	0.940140	0.480700
O2851	O285	0.723330	0.753490	0.090500
O2861	O286	0.722890	0.165210	0.880000
O2871	O287	0.647300	0.135600	0.904000
H2881	H288	0.245930	0.814470	0.409500
