data_IFEQAN_SL_PM
_symmetry_space_group_name_H-M	'P1'
_cell_length_a	26.713000
_cell_length_b	26.713000
_cell_length_c	5.088300
_cell_angle_alpha	90.000000
_cell_angle_beta	90.000000
_cell_angle_gamma	90.000000
_symmetry_Int_Tables_number 1

loop_
_symmetry_equiv_pos_as_xyz
'x,y,z'

loop_
_atom_site_label
_atom_site_type_symbol
_atom_site_fract_x
_atom_site_fract_y
_atom_site_fract_z
Zn11	Zn1	0.786700	0.770910	0.300510
H21	H2	0.892900	0.792300	0.057800
H31	H3	0.820300	0.688000	0.714400
H41	H4	0.828300	0.622200	0.061500
H51	H5	0.876500	0.563300	0.281400
H61	H6	0.962000	0.553400	0.176100
H71	H7	0.998400	0.599300	0.846800
H81	H8	0.993900	0.668400	0.520800
H91	H9	0.961500	0.778100	0.783300
H101	H10	0.039400	0.799900	0.602000
H111	H11	0.107000	0.763500	0.286500
H121	H12	0.029700	0.744300	0.473000
C131	C13	0.896170	0.766470	0.185000
C141	C14	0.877990	0.711560	0.489700
C151	C15	0.854860	0.683670	0.676400
C161	C16	0.883840	0.648040	0.811700
C171	C17	0.862570	0.618040	0.016000
C181	C18	0.891100	0.583300	0.147400
C191	C19	0.942520	0.577230	0.082800
C201	C20	0.964290	0.604830	0.890600
C211	C21	0.936270	0.642280	0.753200
C221	C22	0.959410	0.672070	0.561500
C231	C23	0.930020	0.706940	0.434500
C241	C24	0.988110	0.757490	0.137600
C251	C25	0.080220	0.785280	0.939100
C261	C26	0.129660	0.800230	0.821500
C271	C27	0.991000	0.775100	0.885900
C281	C28	0.037000	0.788600	0.778700
C291	C29	0.077300	0.767400	0.186000
C301	C30	0.031800	0.754700	0.295000
N311	N31	0.858440	0.749120	0.324600
N321	N32	0.940120	0.743500	0.242300
O331	O33	0.748690	0.719020	0.123800
O341	O34	0.168220	0.780260	0.916700
O351	O35	0.129800	0.816500	0.580200
H361	H36	0.256180	0.189070	0.623800
Zn371	Zn37	0.286700	0.270910	0.800510
H381	H38	0.392900	0.292300	0.557800
H391	H39	0.320300	0.188000	0.214400
H401	H40	0.328300	0.122200	0.561500
H411	H41	0.376500	0.063300	0.781400
H421	H42	0.462000	0.053400	0.676100
H431	H43	0.498400	0.099300	0.346800
H441	H44	0.493900	0.168400	0.020800
H451	H45	0.461500	0.278100	0.283300
H461	H46	0.539400	0.299900	0.102000
H471	H47	0.607000	0.263500	0.786500
H481	H48	0.529700	0.244300	0.973000
C491	C49	0.396170	0.266470	0.685000
C501	C50	0.377990	0.211560	0.989700
C511	C51	0.354860	0.183670	0.176400
C521	C52	0.383840	0.148040	0.311700
C531	C53	0.362570	0.118040	0.516000
C541	C54	0.391100	0.083300	0.647400
C551	C55	0.442520	0.077230	0.582800
C561	C56	0.464290	0.104830	0.390600
C571	C57	0.436270	0.142280	0.253200
C581	C58	0.459410	0.172070	0.061500
C591	C59	0.430020	0.206940	0.934500
C601	C60	0.488110	0.257490	0.637600
C611	C61	0.580220	0.285280	0.439100
C621	C62	0.629660	0.300230	0.321500
C631	C63	0.491000	0.275100	0.385900
C641	C64	0.537000	0.288600	0.278700
C651	C65	0.577300	0.267400	0.686000
C661	C66	0.531800	0.254700	0.795000
N671	N67	0.358440	0.249120	0.824600
N681	N68	0.440120	0.243500	0.742300
O691	O69	0.248690	0.219020	0.623800
O701	O70	0.668220	0.280260	0.416700
O711	O71	0.629800	0.316500	0.080200
H721	H72	0.756180	0.689070	0.123800
Zn731	Zn73	0.213300	0.229090	0.300510
H741	H74	0.107100	0.207700	0.057800
H751	H75	0.179700	0.312000	0.714400
H761	H76	0.171700	0.377800	0.061500
H771	H77	0.123500	0.436700	0.281400
H781	H78	0.038000	0.446600	0.176100
H791	H79	0.001600	0.400700	0.846800
H801	H80	0.006100	0.331600	0.520800
H811	H81	0.038500	0.221900	0.783300
H821	H82	0.960600	0.200100	0.602000
H831	H83	0.893000	0.236500	0.286500
H841	H84	0.970300	0.255700	0.473000
C851	C85	0.103830	0.233530	0.185000
C861	C86	0.122010	0.288440	0.489700
C871	C87	0.145140	0.316330	0.676400
C881	C88	0.116160	0.351960	0.811700
C891	C89	0.137430	0.381960	0.016000
C901	C90	0.108900	0.416700	0.147400
C911	C91	0.057480	0.422770	0.082800
C921	C92	0.035710	0.395170	0.890600
C931	C93	0.063730	0.357720	0.753200
C941	C94	0.040590	0.327930	0.561500
C951	C95	0.069980	0.293060	0.434500
C961	C96	0.011890	0.242510	0.137600
C971	C97	0.919780	0.214720	0.939100
C981	C98	0.870340	0.199770	0.821500
C991	C99	0.009000	0.224900	0.885900
C1001	C100	0.963000	0.211400	0.778700
C1011	C101	0.922700	0.232600	0.186000
C1021	C102	0.968200	0.245300	0.295000
N1031	N103	0.141560	0.250880	0.324600
N1041	N104	0.059880	0.256500	0.242300
O1051	O105	0.251310	0.280980	0.123800
O1061	O106	0.831780	0.219740	0.916700
O1071	O107	0.870200	0.183500	0.580200
H1081	H108	0.743820	0.810930	0.623800
Zn1091	Zn109	0.713300	0.729090	0.800510
H1101	H110	0.607100	0.707700	0.557800
H1111	H111	0.679700	0.812000	0.214400
H1121	H112	0.671700	0.877800	0.561500
H1131	H113	0.623500	0.936700	0.781400
H1141	H114	0.538000	0.946600	0.676100
H1151	H115	0.501600	0.900700	0.346800
H1161	H116	0.506100	0.831600	0.020800
H1171	H117	0.538500	0.721900	0.283300
H1181	H118	0.460600	0.700100	0.102000
H1191	H119	0.393000	0.736500	0.786500
H1201	H120	0.470300	0.755700	0.973000
C1211	C121	0.603830	0.733530	0.685000
C1221	C122	0.622010	0.788440	0.989700
C1231	C123	0.645140	0.816330	0.176400
C1241	C124	0.616160	0.851960	0.311700
C1251	C125	0.637430	0.881960	0.516000
C1261	C126	0.608900	0.916700	0.647400
C1271	C127	0.557480	0.922770	0.582800
C1281	C128	0.535710	0.895170	0.390600
C1291	C129	0.563730	0.857720	0.253200
C1301	C130	0.540590	0.827930	0.061500
C1311	C131	0.569980	0.793060	0.934500
C1321	C132	0.511890	0.742510	0.637600
C1331	C133	0.419780	0.714720	0.439100
C1341	C134	0.370340	0.699770	0.321500
C1351	C135	0.509000	0.724900	0.385900
C1361	C136	0.463000	0.711400	0.278700
C1371	C137	0.422700	0.732600	0.686000
C1381	C138	0.468200	0.745300	0.795000
N1391	N139	0.641560	0.750880	0.824600
N1401	N140	0.559880	0.756500	0.742300
O1411	O141	0.751310	0.780980	0.623800
O1421	O142	0.331780	0.719740	0.416700
O1431	O143	0.370200	0.683500	0.080200
H1441	H144	0.243820	0.310930	0.123800
Zn1451	Zn145	0.770910	0.213300	0.699490
H1461	H146	0.792300	0.107100	0.942200
H1471	H147	0.688000	0.179700	0.285600
H1481	H148	0.622200	0.171700	0.938500
H1491	H149	0.563300	0.123500	0.718600
H1501	H150	0.553400	0.038000	0.823900
H1511	H151	0.599300	0.001600	0.153200
H1521	H152	0.668400	0.006100	0.479200
H1531	H153	0.778100	0.038500	0.216700
H1541	H154	0.799900	0.960600	0.398000
H1551	H155	0.763500	0.893000	0.713500
H1561	H156	0.744300	0.970300	0.527000
C1571	C157	0.766470	0.103830	0.815000
C1581	C158	0.711560	0.122010	0.510300
C1591	C159	0.683670	0.145140	0.323600
C1601	C160	0.648040	0.116160	0.188300
C1611	C161	0.618040	0.137430	0.984000
C1621	C162	0.583300	0.108900	0.852600
C1631	C163	0.577230	0.057480	0.917200
C1641	C164	0.604830	0.035710	0.109400
C1651	C165	0.642280	0.063730	0.246800
C1661	C166	0.672070	0.040590	0.438500
C1671	C167	0.706940	0.069980	0.565500
C1681	C168	0.757490	0.011890	0.862400
C1691	C169	0.785280	0.919780	0.060900
C1701	C170	0.800230	0.870340	0.178500
C1711	C171	0.775100	0.009000	0.114100
C1721	C172	0.788600	0.963000	0.221300
C1731	C173	0.767400	0.922700	0.814000
C1741	C174	0.754700	0.968200	0.705000
N1751	N175	0.749120	0.141560	0.675400
N1761	N176	0.743500	0.059880	0.757700
O1771	O177	0.719020	0.251310	0.876200
O1781	O178	0.780260	0.831780	0.083300
O1791	O179	0.816500	0.870200	0.419800
H1801	H180	0.189070	0.743820	0.376200
Zn1811	Zn181	0.270910	0.713300	0.199490
H1821	H182	0.292300	0.607100	0.442200
H1831	H183	0.188000	0.679700	0.785600
H1841	H184	0.122200	0.671700	0.438500
H1851	H185	0.063300	0.623500	0.218600
H1861	H186	0.053400	0.538000	0.323900
H1871	H187	0.099300	0.501600	0.653200
H1881	H188	0.168400	0.506100	0.979200
H1891	H189	0.278100	0.538500	0.716700
H1901	H190	0.299900	0.460600	0.898000
H1911	H191	0.263500	0.393000	0.213500
H1921	H192	0.244300	0.470300	0.027000
C1931	C193	0.266470	0.603830	0.315000
C1941	C194	0.211560	0.622010	0.010300
C1951	C195	0.183670	0.645140	0.823600
C1961	C196	0.148040	0.616160	0.688300
C1971	C197	0.118040	0.637430	0.484000
C1981	C198	0.083300	0.608900	0.352600
C1991	C199	0.077230	0.557480	0.417200
C2001	C200	0.104830	0.535710	0.609400
C2011	C201	0.142280	0.563730	0.746800
C2021	C202	0.172070	0.540590	0.938500
C2031	C203	0.206940	0.569980	0.065500
C2041	C204	0.257490	0.511890	0.362400
C2051	C205	0.285280	0.419780	0.560900
C2061	C206	0.300230	0.370340	0.678500
C2071	C207	0.275100	0.509000	0.614100
C2081	C208	0.288600	0.463000	0.721300
C2091	C209	0.267400	0.422700	0.314000
C2101	C210	0.254700	0.468200	0.205000
N2111	N211	0.249120	0.641560	0.175400
N2121	N212	0.243500	0.559880	0.257700
O2131	O213	0.219020	0.751310	0.376200
O2141	O214	0.280260	0.331780	0.583300
O2151	O215	0.316500	0.370200	0.919800
H2161	H216	0.689070	0.243820	0.876200
Zn2171	Zn217	0.229090	0.786700	0.699490
H2181	H218	0.207700	0.892900	0.942200
H2191	H219	0.312000	0.820300	0.285600
H2201	H220	0.377800	0.828300	0.938500
H2211	H221	0.436700	0.876500	0.718600
H2221	H222	0.446600	0.962000	0.823900
H2231	H223	0.400700	0.998400	0.153200
H2241	H224	0.331600	0.993900	0.479200
H2251	H225	0.221900	0.961500	0.216700
H2261	H226	0.200100	0.039400	0.398000
H2271	H227	0.236500	0.107000	0.713500
H2281	H228	0.255700	0.029700	0.527000
C2291	C229	0.233530	0.896170	0.815000
C2301	C230	0.288440	0.877990	0.510300
C2311	C231	0.316330	0.854860	0.323600
C2321	C232	0.351960	0.883840	0.188300
C2331	C233	0.381960	0.862570	0.984000
C2341	C234	0.416700	0.891100	0.852600
C2351	C235	0.422770	0.942520	0.917200
C2361	C236	0.395170	0.964290	0.109400
C2371	C237	0.357720	0.936270	0.246800
C2381	C238	0.327930	0.959410	0.438500
C2391	C239	0.293060	0.930020	0.565500
C2401	C240	0.242510	0.988110	0.862400
C2411	C241	0.214720	0.080220	0.060900
C2421	C242	0.199770	0.129660	0.178500
C2431	C243	0.224900	0.991000	0.114100
C2441	C244	0.211400	0.037000	0.221300
C2451	C245	0.232600	0.077300	0.814000
C2461	C246	0.245300	0.031800	0.705000
N2471	N247	0.250880	0.858440	0.675400
N2481	N248	0.256500	0.940120	0.757700
O2491	O249	0.280980	0.748690	0.876200
O2501	O250	0.219740	0.168220	0.083300
O2511	O251	0.183500	0.129800	0.419800
H2521	H252	0.810930	0.256180	0.376200
Zn2531	Zn253	0.729090	0.286700	0.199490
H2541	H254	0.707700	0.392900	0.442200
H2551	H255	0.812000	0.320300	0.785600
H2561	H256	0.877800	0.328300	0.438500
H2571	H257	0.936700	0.376500	0.218600
H2581	H258	0.946600	0.462000	0.323900
H2591	H259	0.900700	0.498400	0.653200
H2601	H260	0.831600	0.493900	0.979200
H2611	H261	0.721900	0.461500	0.716700
H2621	H262	0.700100	0.539400	0.898000
H2631	H263	0.736500	0.607000	0.213500
H2641	H264	0.755700	0.529700	0.027000
C2651	C265	0.733530	0.396170	0.315000
C2661	C266	0.788440	0.377990	0.010300
C2671	C267	0.816330	0.354860	0.823600
C2681	C268	0.851960	0.383840	0.688300
C2691	C269	0.881960	0.362570	0.484000
C2701	C270	0.916700	0.391100	0.352600
C2711	C271	0.922770	0.442520	0.417200
C2721	C272	0.895170	0.464290	0.609400
C2731	C273	0.857720	0.436270	0.746800
C2741	C274	0.827930	0.459410	0.938500
C2751	C275	0.793060	0.430020	0.065500
C2761	C276	0.742510	0.488110	0.362400
C2771	C277	0.714720	0.580220	0.560900
C2781	C278	0.699770	0.629660	0.678500
C2791	C279	0.724900	0.491000	0.614100
C2801	C280	0.711400	0.537000	0.721300
C2811	C281	0.732600	0.577300	0.314000
C2821	C282	0.745300	0.531800	0.205000
N2831	N283	0.750880	0.358440	0.175400
N2841	N284	0.756500	0.440120	0.257700
O2851	O285	0.780980	0.248690	0.376200
O2861	O286	0.719740	0.668220	0.583300
O2871	O287	0.683500	0.629800	0.919800
H2881	H288	0.310930	0.756180	0.876200
