data_IFUXOW_freeONLY_PM
_symmetry_space_group_name_H-M	'P1'
_cell_length_a	25.854600
_cell_length_b	12.390600
_cell_length_c	13.538200
_cell_angle_alpha	90.000000
_cell_angle_beta	116.417000
_cell_angle_gamma	90.000000
_symmetry_Int_Tables_number 1

loop_
_symmetry_equiv_pos_as_xyz
'x,y,z'

loop_
_atom_site_label
_atom_site_type_symbol
_atom_site_fract_x
_atom_site_fract_y
_atom_site_fract_z
C11	C1	0.912100	0.860400	0.490800
C21	C2	0.817950	0.699400	0.189400
C31	C3	0.915400	0.090100	0.794900
C41	C4	0.806000	0.903500	0.189000
C51	C5	0.792800	0.871300	0.364000
C61	C6	0.834510	0.676400	0.405900
C71	C7	0.926230	0.688900	0.352000
N11	N1	0.941910	0.888500	0.580000
N21	N2	0.799850	0.636100	0.118500
N31	N3	0.945530	0.030200	0.781600
N41	N4	0.776400	0.953800	0.111200
N51	N5	0.757980	0.902100	0.389300
N61	N6	0.822030	0.610600	0.452300
N71	N7	0.958680	0.618400	0.365900
Mn11	Mn1	0.788200	0.483510	0.041260
Mo11	Mo1	0.857850	0.805680	0.324610
H11	H1	0.966500	0.737000	0.743000
O11	O1	0.880410	0.460000	0.175600
H21	H2	0.901000	0.442000	0.146000
H31	H3	0.891000	0.515000	0.213000
C81	C8	0.412100	0.360400	0.490800
C91	C9	0.317950	0.199400	0.189400
C101	C10	0.415400	0.590100	0.794900
C111	C11	0.306000	0.403500	0.189000
C121	C12	0.292800	0.371300	0.364000
C131	C13	0.334510	0.176400	0.405900
C141	C14	0.426230	0.188900	0.352000
N81	N8	0.441910	0.388500	0.580000
N91	N9	0.299850	0.136100	0.118500
N101	N10	0.445530	0.530200	0.781600
N111	N11	0.276400	0.453800	0.111200
N121	N12	0.257980	0.402100	0.389300
N131	N13	0.322030	0.110600	0.452300
N141	N14	0.458680	0.118400	0.365900
Mn21	Mn2	0.288200	0.983510	0.041260
Mo21	Mo2	0.357850	0.305680	0.324610
H41	H4	0.466500	0.237000	0.743000
O21	O2	0.380410	0.960000	0.175600
H51	H5	0.401000	0.942000	0.146000
H61	H6	0.391000	0.015000	0.213000
C151	C15	0.087900	0.860400	0.009200
C161	C16	0.182050	0.699400	0.310600
C171	C17	0.084600	0.090100	0.705100
C181	C18	0.194000	0.903500	0.311000
C191	C19	0.207200	0.871300	0.136000
C201	C20	0.165490	0.676400	0.094100
C211	C21	0.073770	0.688900	0.148000
N151	N15	0.058090	0.888500	0.920000
N161	N16	0.200150	0.636100	0.381500
N171	N17	0.054470	0.030200	0.718400
N181	N18	0.223600	0.953800	0.388800
N191	N19	0.242020	0.902100	0.110700
N201	N20	0.177970	0.610600	0.047700
N211	N21	0.041320	0.618400	0.134100
Mn31	Mn3	0.211800	0.483510	0.458740
Mo31	Mo3	0.142150	0.805680	0.175390
H71	H7	0.033500	0.737000	0.757000
O31	O3	0.119590	0.460000	0.324400
H81	H8	0.099000	0.442000	0.354000
H91	H9	0.109000	0.515000	0.287000
C221	C22	0.587900	0.360400	0.009200
C231	C23	0.682050	0.199400	0.310600
C241	C24	0.584600	0.590100	0.705100
C251	C25	0.694000	0.403500	0.311000
C261	C26	0.707200	0.371300	0.136000
C271	C27	0.665490	0.176400	0.094100
C281	C28	0.573770	0.188900	0.148000
N221	N22	0.558090	0.388500	0.920000
N231	N23	0.700150	0.136100	0.381500
N241	N24	0.554470	0.530200	0.718400
N251	N25	0.723600	0.453800	0.388800
N261	N26	0.742020	0.402100	0.110700
N271	N27	0.677970	0.110600	0.047700
N281	N28	0.541320	0.118400	0.134100
Mn41	Mn4	0.711800	0.983510	0.458740
Mo41	Mo4	0.642150	0.305680	0.175390
H101	H10	0.533500	0.237000	0.757000
O41	O4	0.619590	0.960000	0.324400
H111	H11	0.599000	0.942000	0.354000
H121	H12	0.609000	0.015000	0.287000
C291	C29	0.087900	0.139600	0.509200
C301	C30	0.182050	0.300600	0.810600
C311	C31	0.084600	0.909900	0.205100
C321	C32	0.194000	0.096500	0.811000
C331	C33	0.207200	0.128700	0.636000
C341	C34	0.165490	0.323600	0.594100
C351	C35	0.073770	0.311100	0.648000
N291	N29	0.058090	0.111500	0.420000
N301	N30	0.200150	0.363900	0.881500
N311	N31	0.054470	0.969800	0.218400
N321	N32	0.223600	0.046200	0.888800
N331	N33	0.242020	0.097900	0.610700
N341	N34	0.177970	0.389400	0.547700
N351	N35	0.041320	0.381600	0.634100
Mn51	Mn5	0.211800	0.516490	0.958740
Mo51	Mo5	0.142150	0.194320	0.675390
H131	H13	0.033500	0.263000	0.257000
O51	O5	0.119590	0.540000	0.824400
H141	H14	0.099000	0.558000	0.854000
H151	H15	0.109000	0.485000	0.787000
C361	C36	0.587900	0.639600	0.509200
C371	C37	0.682050	0.800600	0.810600
C381	C38	0.584600	0.409900	0.205100
C391	C39	0.694000	0.596500	0.811000
C401	C40	0.707200	0.628700	0.636000
C411	C41	0.665490	0.823600	0.594100
C421	C42	0.573770	0.811100	0.648000
N361	N36	0.558090	0.611500	0.420000
N371	N37	0.700150	0.863900	0.881500
N381	N38	0.554470	0.469800	0.218400
N391	N39	0.723600	0.546200	0.888800
N401	N40	0.742020	0.597900	0.610700
N411	N41	0.677970	0.889400	0.547700
N421	N42	0.541320	0.881600	0.634100
Mn61	Mn6	0.711800	0.016490	0.958740
Mo61	Mo6	0.642150	0.694320	0.675390
H161	H16	0.533500	0.763000	0.257000
O61	O6	0.619590	0.040000	0.824400
H171	H17	0.599000	0.058000	0.854000
H181	H18	0.609000	0.985000	0.787000
C431	C43	0.912100	0.139600	0.990800
C441	C44	0.817950	0.300600	0.689400
C451	C45	0.915400	0.909900	0.294900
C461	C46	0.806000	0.096500	0.689000
C471	C47	0.792800	0.128700	0.864000
C481	C48	0.834510	0.323600	0.905900
C491	C49	0.926230	0.311100	0.852000
N431	N43	0.941910	0.111500	0.080000
N441	N44	0.799850	0.363900	0.618500
N451	N45	0.945530	0.969800	0.281600
N461	N46	0.776400	0.046200	0.611200
N471	N47	0.757980	0.097900	0.889300
N481	N48	0.822030	0.389400	0.952300
N491	N49	0.958680	0.381600	0.865900
Mn71	Mn7	0.788200	0.516490	0.541260
Mo71	Mo7	0.857850	0.194320	0.824610
H191	H19	0.966500	0.263000	0.243000
O71	O7	0.880410	0.540000	0.675600
H201	H20	0.901000	0.558000	0.646000
H211	H21	0.891000	0.485000	0.713000
C501	C50	0.412100	0.639600	0.990800
C511	C51	0.317950	0.800600	0.689400
C521	C52	0.415400	0.409900	0.294900
C531	C53	0.306000	0.596500	0.689000
C541	C54	0.292800	0.628700	0.864000
C551	C55	0.334510	0.823600	0.905900
C561	C56	0.426230	0.811100	0.852000
N501	N50	0.441910	0.611500	0.080000
N511	N51	0.299850	0.863900	0.618500
N521	N52	0.445530	0.469800	0.281600
N531	N53	0.276400	0.546200	0.611200
N541	N54	0.257980	0.597900	0.889300
N551	N55	0.322030	0.889400	0.952300
N561	N56	0.458680	0.881600	0.865900
Mn81	Mn8	0.288200	0.016490	0.541260
Mo81	Mo8	0.357850	0.694320	0.824610
H221	H22	0.466500	0.763000	0.243000
O81	O8	0.380410	0.040000	0.675600
H231	H23	0.401000	0.058000	0.646000
H241	H24	0.391000	0.985000	0.713000
Mn91	Mn9	0.000000	0.922210	0.750000
O91	O9	0.000000	0.741700	0.750000
Mn101	Mn10	0.500000	0.422210	0.750000
O101	O10	0.500000	0.241700	0.750000
Mn111	Mn11	0.000000	0.077790	0.250000
O111	O11	0.000000	0.258300	0.250000
Mn121	Mn12	0.500000	0.577790	0.250000
O121	O12	0.500000	0.758300	0.250000
