data_IGEXOH_freeONLY_PM
_symmetry_space_group_name_H-M	'P1'
_cell_length_a	9.976000
_cell_length_b	10.359000
_cell_length_c	12.980000
_cell_angle_alpha	90.000000
_cell_angle_beta	90.000000
_cell_angle_gamma	90.000000
_symmetry_Int_Tables_number 1

loop_
_symmetry_equiv_pos_as_xyz
'x,y,z'

loop_
_atom_site_label
_atom_site_type_symbol
_atom_site_fract_x
_atom_site_fract_y
_atom_site_fract_z
Zn11	Zn1	0.971500	0.201900	0.635200
P11	P1	0.226400	0.214700	0.496500
P21	P2	0.889500	0.439900	0.785900
O11	O1	0.935700	0.309800	0.751900
O21	O2	0.122000	0.275900	0.565700
O31	O3	0.999000	0.525900	0.821700
O41	O4	0.312200	0.321100	0.449400
O51	O5	0.784700	0.417500	0.869800
O61	O6	0.819900	0.513700	0.696400
O71	O7	0.310700	0.113700	0.547900
O81	O8	0.150900	0.142100	0.406200
Zn21	Zn2	0.528500	0.798100	0.135200
P31	P3	0.273600	0.785300	0.996500
P41	P4	0.610500	0.560100	0.285900
O91	O9	0.564300	0.690200	0.251900
O101	O10	0.378000	0.724100	0.065700
O111	O11	0.501000	0.474100	0.321700
O121	O12	0.187800	0.678900	0.949400
O131	O13	0.715300	0.582500	0.369800
O141	O14	0.680100	0.486300	0.196400
O151	O15	0.189300	0.886300	0.047900
O161	O16	0.349100	0.857900	0.906200
Zn31	Zn3	0.028500	0.701900	0.864800
P51	P5	0.773600	0.714700	0.003500
P61	P6	0.110500	0.939900	0.714100
O171	O17	0.064300	0.809800	0.748100
O181	O18	0.878000	0.775900	0.934300
O191	O19	0.001000	0.025900	0.678300
O201	O20	0.687800	0.821100	0.050600
O211	O21	0.215300	0.917500	0.630200
O221	O22	0.180100	0.013700	0.803600
O231	O23	0.689300	0.613700	0.952100
O241	O24	0.849100	0.642100	0.093800
Zn41	Zn4	0.471500	0.298100	0.364800
P71	P7	0.726400	0.285300	0.503500
P81	P8	0.389500	0.060100	0.214100
O251	O25	0.435700	0.190200	0.248100
O261	O26	0.622000	0.224100	0.434300
O271	O27	0.499000	0.974100	0.178300
O281	O28	0.812200	0.178900	0.550600
O291	O29	0.284700	0.082500	0.130200
O301	O30	0.319900	0.986300	0.303600
O311	O31	0.810700	0.386300	0.452100
O321	O32	0.650900	0.357900	0.593800
