data_IGINIX_freeONLY_PM
_symmetry_space_group_name_H-M	'P1'
_cell_length_a	14.000300
_cell_length_b	12.169200
_cell_length_c	14.671100
_cell_angle_alpha	90.000000
_cell_angle_beta	105.867000
_cell_angle_gamma	90.000000
_symmetry_Int_Tables_number 1

loop_
_symmetry_equiv_pos_as_xyz
'x,y,z'

loop_
_atom_site_label
_atom_site_type_symbol
_atom_site_fract_x
_atom_site_fract_y
_atom_site_fract_z
Zn11	Zn1	0.350370	0.521400	0.657710
Zn21	Zn2	0.195390	0.742710	0.574810
O11	O1	0.209780	0.567950	0.596830
O21	O2	0.175370	0.411150	0.515030
O31	O3	0.823630	0.713760	0.174900
O41	O4	0.896390	0.863640	0.254750
O51	O5	0.328920	0.401740	0.750690
O61	O6	0.391400	0.246110	0.826970
O71	O7	0.712260	0.266430	0.522880
O81	O8	0.612540	0.406800	0.457190
O91	O9	0.155460	0.900570	0.526130
N11	N1	0.079640	0.679050	0.462270
N21	N2	0.463310	0.407500	0.657020
N31	N3	0.184700	0.084600	0.538130
C11	C1	0.080400	0.569100	0.453020
C21	C2	0.014700	0.514100	0.379000
H11	H1	0.014900	0.436200	0.375600
C31	C3	0.948500	0.575600	0.310100
H21	H2	0.902500	0.540100	0.258900
C41	C4	0.950200	0.689200	0.316820
C51	C5	0.016400	0.737600	0.395460
H31	H3	0.016400	0.815300	0.401600
C61	C6	0.160300	0.508300	0.526200
C71	C7	0.883500	0.761000	0.242600
C81	C8	0.462200	0.316600	0.709090
C91	C9	0.523200	0.227600	0.707000
H41	H4	0.523100	0.165400	0.746000
C101	C10	0.585100	0.230600	0.646400
H51	H5	0.626800	0.169900	0.643200
C111	C11	0.584800	0.323100	0.591300
C121	C12	0.525100	0.411000	0.601800
H61	H6	0.528400	0.476900	0.568000
C131	C13	0.388000	0.321400	0.767610
C141	C14	0.643200	0.331900	0.518200
C151	C15	0.199600	0.982500	0.568500
H71	H7	0.247800	0.970400	0.627300
C161	C16	0.114600	0.111400	0.447400
H81	H8	0.150000	0.115800	0.398400
H91	H9	0.083200	0.182300	0.452300
H101	H10	0.063600	0.054200	0.430500
C171	C17	0.246000	0.173400	0.590100
H111	H11	0.279800	0.148400	0.654300
H121	H12	0.203900	0.236700	0.593500
H131	H13	0.295400	0.194700	0.557300
Zn31	Zn3	0.149630	0.021400	0.842290
Zn41	Zn4	0.304610	0.242710	0.925190
O101	O10	0.290220	0.067950	0.903170
O111	O11	0.324630	0.911150	0.984970
O121	O12	0.676370	0.213760	0.325100
O131	O13	0.603610	0.363640	0.245250
O141	O14	0.171080	0.901740	0.749310
O151	O15	0.108600	0.746110	0.673030
O161	O16	0.787740	0.766430	0.977120
O171	O17	0.887460	0.906800	0.042810
O181	O18	0.344540	0.400570	0.973870
N41	N4	0.420360	0.179050	0.037730
N51	N5	0.036690	0.907500	0.842980
N61	N6	0.315300	0.584600	0.961870
C181	C18	0.419600	0.069100	0.046980
C191	C19	0.485300	0.014100	0.121000
H141	H14	0.485100	0.936200	0.124400
C201	C20	0.551500	0.075600	0.189900
H151	H15	0.597500	0.040100	0.241100
C211	C21	0.549800	0.189200	0.183180
C221	C22	0.483600	0.237600	0.104540
H161	H16	0.483600	0.315300	0.098400
C231	C23	0.339700	0.008300	0.973800
C241	C24	0.616500	0.261000	0.257400
C251	C25	0.037800	0.816600	0.790910
C261	C26	0.976800	0.727600	0.793000
H171	H17	0.976900	0.665400	0.754000
C271	C27	0.914900	0.730600	0.853600
H181	H18	0.873200	0.669900	0.856800
C281	C28	0.915200	0.823100	0.908700
C291	C29	0.974900	0.911000	0.898200
H191	H19	0.971600	0.976900	0.932000
C301	C30	0.112000	0.821400	0.732390
C311	C31	0.856800	0.831900	0.981800
C321	C32	0.300400	0.482500	0.931500
H201	H20	0.252200	0.470400	0.872700
C331	C33	0.385400	0.611400	0.052600
H211	H21	0.350000	0.615800	0.101600
H221	H22	0.416800	0.682300	0.047700
H231	H23	0.436400	0.554200	0.069500
C341	C34	0.254000	0.673400	0.909900
H241	H24	0.220200	0.648400	0.845700
H251	H25	0.296100	0.736700	0.906500
H261	H26	0.204600	0.694700	0.942700
Zn51	Zn5	0.649630	0.478600	0.342290
Zn61	Zn6	0.804610	0.257290	0.425190
O191	O19	0.790220	0.432050	0.403170
O201	O20	0.824630	0.588850	0.484970
O211	O21	0.176370	0.286240	0.825100
O221	O22	0.103610	0.136360	0.745250
O231	O23	0.671080	0.598260	0.249310
O241	O24	0.608600	0.753890	0.173030
O251	O25	0.287740	0.733570	0.477120
O261	O26	0.387460	0.593200	0.542810
O271	O27	0.844540	0.099430	0.473870
N71	N7	0.920360	0.320950	0.537730
N81	N8	0.536690	0.592500	0.342980
N91	N9	0.815300	0.915400	0.461870
C351	C35	0.919600	0.430900	0.546980
C361	C36	0.985300	0.485900	0.621000
H271	H27	0.985100	0.563800	0.624400
C371	C37	0.051500	0.424400	0.689900
H281	H28	0.097500	0.459900	0.741100
C381	C38	0.049800	0.310800	0.683180
C391	C39	0.983600	0.262400	0.604540
H291	H29	0.983600	0.184700	0.598400
C401	C40	0.839700	0.491700	0.473800
C411	C41	0.116500	0.239000	0.757400
C421	C42	0.537800	0.683400	0.290910
C431	C43	0.476800	0.772400	0.293000
H301	H30	0.476900	0.834600	0.254000
C441	C44	0.414900	0.769400	0.353600
H311	H31	0.373200	0.830100	0.356800
C451	C45	0.415200	0.676900	0.408700
C461	C46	0.474900	0.589000	0.398200
H321	H32	0.471600	0.523100	0.432000
C471	C47	0.612000	0.678600	0.232390
C481	C48	0.356800	0.668100	0.481800
C491	C49	0.800400	0.017500	0.431500
H331	H33	0.752200	0.029600	0.372700
C501	C50	0.885400	0.888600	0.552600
H341	H34	0.850000	0.884200	0.601600
H351	H35	0.916800	0.817700	0.547700
H361	H36	0.936400	0.945800	0.569500
C511	C51	0.754000	0.826600	0.409900
H371	H37	0.720200	0.851600	0.345700
H381	H38	0.796100	0.763300	0.406500
H391	H39	0.704600	0.805300	0.442700
Zn71	Zn7	0.850370	0.978600	0.157710
Zn81	Zn8	0.695390	0.757290	0.074810
O281	O28	0.709780	0.932050	0.096830
O291	O29	0.675370	0.088850	0.015030
O301	O30	0.323630	0.786240	0.674900
O311	O31	0.396390	0.636360	0.754750
O321	O32	0.828920	0.098260	0.250690
O331	O33	0.891400	0.253890	0.326970
O341	O34	0.212260	0.233570	0.022880
O351	O35	0.112540	0.093200	0.957190
O361	O36	0.655460	0.599430	0.026130
N101	N10	0.579640	0.820950	0.962270
N111	N11	0.963310	0.092500	0.157020
N121	N12	0.684700	0.415400	0.038130
C521	C52	0.580400	0.930900	0.953020
C531	C53	0.514700	0.985900	0.879000
H401	H40	0.514900	0.063800	0.875600
C541	C54	0.448500	0.924400	0.810100
H411	H41	0.402500	0.959900	0.758900
C551	C55	0.450200	0.810800	0.816820
C561	C56	0.516400	0.762400	0.895460
H421	H42	0.516400	0.684700	0.901600
C571	C57	0.660300	0.991700	0.026200
C581	C58	0.383500	0.739000	0.742600
C591	C59	0.962200	0.183400	0.209090
C601	C60	0.023200	0.272400	0.207000
H431	H43	0.023100	0.334600	0.246000
C611	C61	0.085100	0.269400	0.146400
H441	H44	0.126800	0.330100	0.143200
C621	C62	0.084800	0.176900	0.091300
C631	C63	0.025100	0.089000	0.101800
H451	H45	0.028400	0.023100	0.068000
C641	C64	0.888000	0.178600	0.267610
C651	C65	0.143200	0.168100	0.018200
C661	C66	0.699600	0.517500	0.068500
H461	H46	0.747800	0.529600	0.127300
C671	C67	0.614600	0.388600	0.947400
H471	H47	0.650000	0.384200	0.898400
H481	H48	0.583200	0.317700	0.952300
H491	H49	0.563600	0.445800	0.930500
C681	C68	0.746000	0.326600	0.090100
H501	H50	0.779800	0.351600	0.154300
H511	H51	0.703900	0.263300	0.093500
H521	H52	0.795400	0.305300	0.057300
