data_IGITOJ_freeONLY_PM
_symmetry_space_group_name_H-M	'P1'
_cell_length_a	25.905100
_cell_length_b	25.905100
_cell_length_c	20.460300
_cell_angle_alpha	90.000000
_cell_angle_beta	90.000000
_cell_angle_gamma	120.000000
_symmetry_Int_Tables_number 1

loop_
_symmetry_equiv_pos_as_xyz
'x,y,z'

loop_
_atom_site_label
_atom_site_type_symbol
_atom_site_fract_x
_atom_site_fract_y
_atom_site_fract_z
Cu11	Cu1	0.017510	0.391130	0.418150
Cu21	Cu2	0.954430	0.265870	0.411650
Cu31	Cu3	0.011200	0.341400	0.194420
I11	I1	0.038510	0.330480	0.323820
I21	I2	0.999820	0.224430	0.498070
I31	I3	0.910530	0.339110	0.177500
I41	I4	0.907040	0.326820	0.468150
C11	C1	0.873100	0.212600	0.300100
H11	H1	0.859700	0.240500	0.307800
H21	H2	0.910100	0.232900	0.276500
C21	C2	0.827700	0.163900	0.259200
H31	H3	0.847200	0.157900	0.222500
H41	H4	0.799300	0.174200	0.242800
C31	C3	0.898700	0.148100	0.347100
H51	H5	0.932900	0.163600	0.319000
H61	H6	0.907900	0.135000	0.387100
C41	C4	0.843700	0.096500	0.313500
H71	H7	0.826400	0.062700	0.342400
H81	H8	0.856600	0.085300	0.274600
C51	C5	0.829600	0.165500	0.398300
H91	H9	0.835100	0.145400	0.434700
H101	H10	0.820500	0.194700	0.415200
C61	C6	0.778700	0.121100	0.356900
H111	H11	0.751500	0.135400	0.349300
H121	H12	0.757700	0.083900	0.379900
N11	N1	0.884300	0.195200	0.361400
N21	N2	0.797800	0.110600	0.295700
Cu41	Cu4	0.684180	0.724460	0.751480
Cu51	Cu5	0.621100	0.599200	0.744980
Cu61	Cu6	0.677870	0.674730	0.527750
I51	I5	0.705180	0.663810	0.657150
I61	I6	0.666490	0.557760	0.831400
I71	I7	0.577200	0.672440	0.510830
I81	I8	0.573710	0.660150	0.801480
C71	C7	0.539770	0.545930	0.633430
H131	H13	0.526370	0.573830	0.641130
H141	H14	0.576770	0.566230	0.609830
C81	C8	0.494370	0.497230	0.592530
H151	H15	0.513870	0.491230	0.555830
H161	H16	0.465970	0.507530	0.576130
C91	C9	0.565370	0.481430	0.680430
H171	H17	0.599570	0.496930	0.652330
H181	H18	0.574570	0.468330	0.720430
C101	C10	0.510370	0.429830	0.646830
H191	H19	0.493070	0.396030	0.675730
H201	H20	0.523270	0.418630	0.607930
C111	C11	0.496270	0.498830	0.731630
H211	H21	0.501770	0.478730	0.768030
H221	H22	0.487170	0.528030	0.748530
C121	C12	0.445370	0.454430	0.690230
H231	H23	0.418170	0.468730	0.682630
H241	H24	0.424370	0.417230	0.713230
N31	N3	0.550970	0.528530	0.694730
N41	N4	0.464470	0.443930	0.629030
Cu71	Cu7	0.350840	0.057800	0.084820
Cu81	Cu8	0.287760	0.932540	0.078320
Cu91	Cu9	0.344530	0.008070	0.861090
I91	I9	0.371840	0.997150	0.990490
I101	I10	0.333150	0.891100	0.164740
I111	I11	0.243860	0.005780	0.844170
I121	I12	0.240370	0.993490	0.134820
C131	C13	0.206430	0.879270	0.966770
H251	H25	0.193030	0.907170	0.974470
H261	H26	0.243430	0.899570	0.943170
C141	C14	0.161030	0.830570	0.925870
H271	H27	0.180530	0.824570	0.889170
H281	H28	0.132630	0.840870	0.909470
C151	C15	0.232030	0.814770	0.013770
H291	H29	0.266230	0.830270	0.985670
H301	H30	0.241230	0.801670	0.053770
C161	C16	0.177030	0.763170	0.980170
H311	H31	0.159730	0.729370	0.009070
H321	H32	0.189930	0.751970	0.941270
C171	C17	0.162930	0.832170	0.064970
H331	H33	0.168430	0.812070	0.101370
H341	H34	0.153830	0.861370	0.081870
C181	C18	0.112030	0.787770	0.023570
H351	H35	0.084830	0.802070	0.015970
H361	H36	0.091030	0.750570	0.046570
N51	N5	0.217630	0.861870	0.028070
N61	N6	0.131130	0.777270	0.962370
Cu101	Cu10	0.608870	0.626380	0.418150
Cu111	Cu11	0.734130	0.688560	0.411650
Cu121	Cu12	0.658600	0.669800	0.194420
I131	I13	0.669520	0.708030	0.323820
I141	I14	0.775570	0.775390	0.498070
I151	I15	0.660890	0.571420	0.177500
I161	I16	0.673180	0.580220	0.468150
C191	C19	0.787400	0.660500	0.300100
H371	H37	0.759500	0.619200	0.307800
H381	H38	0.767100	0.677200	0.276500
C201	C20	0.836100	0.663800	0.259200
H391	H39	0.842100	0.689300	0.222500
H401	H40	0.825800	0.625100	0.242800
C211	C21	0.851900	0.750600	0.347100
H411	H41	0.836400	0.769300	0.319000
H421	H42	0.865000	0.772900	0.387100
C221	C22	0.903500	0.747200	0.313500
H431	H43	0.937300	0.763700	0.342400
H441	H44	0.914700	0.771300	0.274600
C231	C23	0.834500	0.664100	0.398300
H451	H45	0.854600	0.689700	0.434700
H461	H46	0.805300	0.625800	0.415200
C241	C24	0.878900	0.657600	0.356900
H471	H47	0.864600	0.616100	0.349300
H481	H48	0.916100	0.673800	0.379900
N71	N7	0.804800	0.689100	0.361400
N81	N8	0.889400	0.687200	0.295700
Cu131	Cu13	0.275540	0.959710	0.751480
Cu141	Cu14	0.400800	0.021890	0.744980
Cu151	Cu15	0.325270	0.003130	0.527750
I171	I17	0.336190	0.041360	0.657150
I181	I18	0.442240	0.108720	0.831400
I191	I19	0.327560	0.904750	0.510830
I201	I20	0.339850	0.913550	0.801480
C251	C25	0.454070	0.993830	0.633430
H491	H49	0.426170	0.952530	0.641130
H501	H50	0.433770	0.010530	0.609830
C261	C26	0.502770	0.997130	0.592530
H511	H51	0.508770	0.022630	0.555830
H521	H52	0.492470	0.958430	0.576130
C271	C27	0.518570	0.083930	0.680430
H531	H53	0.503070	0.102630	0.652330
H541	H54	0.531670	0.106230	0.720430
C281	C28	0.570170	0.080530	0.646830
H551	H55	0.603970	0.097030	0.675730
H561	H56	0.581370	0.104630	0.607930
C291	C29	0.501170	0.997430	0.731630
H571	H57	0.521270	0.023030	0.768030
H581	H58	0.471970	0.959130	0.748530
C301	C30	0.545570	0.990930	0.690230
H591	H59	0.531270	0.949430	0.682630
H601	H60	0.582770	0.007130	0.713230
N91	N9	0.471470	0.022430	0.694730
N101	N10	0.556070	0.020530	0.629030
Cu161	Cu16	0.942200	0.293050	0.084820
Cu171	Cu17	0.067460	0.355230	0.078320
Cu181	Cu18	0.991930	0.336470	0.861090
I211	I21	0.002850	0.374700	0.990490
I221	I22	0.108900	0.442060	0.164740
I231	I23	0.994220	0.238090	0.844170
I241	I24	0.006510	0.246890	0.134820
C311	C31	0.120730	0.327170	0.966770
H611	H61	0.092830	0.285870	0.974470
H621	H62	0.100430	0.343870	0.943170
C321	C32	0.169430	0.330470	0.925870
H631	H63	0.175430	0.355970	0.889170
H641	H64	0.159130	0.291770	0.909470
C331	C33	0.185230	0.417270	0.013770
H651	H65	0.169730	0.435970	0.985670
H661	H66	0.198330	0.439570	0.053770
C341	C34	0.236830	0.413870	0.980170
H671	H67	0.270630	0.430370	0.009070
H681	H68	0.248030	0.437970	0.941270
C351	C35	0.167830	0.330770	0.064970
H691	H69	0.187930	0.356370	0.101370
H701	H70	0.138630	0.292470	0.081870
C361	C36	0.212230	0.324270	0.023570
H711	H71	0.197930	0.282770	0.015970
H721	H72	0.249430	0.340470	0.046570
N111	N11	0.138130	0.355770	0.028070
N121	N12	0.222730	0.353870	0.962370
Cu191	Cu19	0.373620	0.982490	0.418150
Cu201	Cu20	0.311440	0.045570	0.411650
Cu211	Cu21	0.330200	0.988800	0.194420
I251	I25	0.291970	0.961490	0.323820
I261	I26	0.224610	0.000180	0.498070
I271	I27	0.428580	0.089470	0.177500
I281	I28	0.419780	0.092960	0.468150
C371	C37	0.339500	0.126900	0.300100
H731	H73	0.380800	0.140300	0.307800
H741	H74	0.322800	0.089900	0.276500
C381	C38	0.336200	0.172300	0.259200
H751	H75	0.310700	0.152800	0.222500
H761	H76	0.374900	0.200700	0.242800
C391	C39	0.249400	0.101300	0.347100
H771	H77	0.230700	0.067100	0.319000
H781	H78	0.227100	0.092100	0.387100
C401	C40	0.252800	0.156300	0.313500
H791	H79	0.236300	0.173600	0.342400
H801	H80	0.228700	0.143400	0.274600
C411	C41	0.335900	0.170400	0.398300
H811	H81	0.310300	0.164900	0.434700
H821	H82	0.374200	0.179500	0.415200
C421	C42	0.342400	0.221300	0.356900
H831	H83	0.383900	0.248500	0.349300
H841	H84	0.326200	0.242300	0.379900
N131	N13	0.310900	0.115700	0.361400
N141	N14	0.312800	0.202200	0.295700
Cu221	Cu22	0.040290	0.315820	0.751480
Cu231	Cu23	0.978110	0.378900	0.744980
Cu241	Cu24	0.996870	0.322130	0.527750
I291	I29	0.958640	0.294820	0.657150
I301	I30	0.891280	0.333510	0.831400
I311	I31	0.095250	0.422800	0.510830
I321	I32	0.086450	0.426290	0.801480
C431	C43	0.006170	0.460230	0.633430
H851	H85	0.047470	0.473630	0.641130
H861	H86	0.989470	0.423230	0.609830
C441	C44	0.002870	0.505630	0.592530
H871	H87	0.977370	0.486130	0.555830
H881	H88	0.041570	0.534030	0.576130
C451	C45	0.916070	0.434630	0.680430
H891	H89	0.897370	0.400430	0.652330
H901	H90	0.893770	0.425430	0.720430
C461	C46	0.919470	0.489630	0.646830
H911	H91	0.902970	0.506930	0.675730
H921	H92	0.895370	0.476730	0.607930
C471	C47	0.002570	0.503730	0.731630
H931	H93	0.976970	0.498230	0.768030
H941	H94	0.040870	0.512830	0.748530
C481	C48	0.009070	0.554630	0.690230
H951	H95	0.050570	0.581830	0.682630
H961	H96	0.992870	0.575630	0.713230
N151	N15	0.977570	0.449030	0.694730
N161	N16	0.979470	0.535530	0.629030
Cu251	Cu25	0.706950	0.649160	0.084820
Cu261	Cu26	0.644770	0.712240	0.078320
Cu271	Cu27	0.663530	0.655470	0.861090
I331	I33	0.625300	0.628160	0.990490
I341	I34	0.557940	0.666850	0.164740
I351	I35	0.761910	0.756140	0.844170
I361	I36	0.753110	0.759630	0.134820
C491	C49	0.672830	0.793570	0.966770
H971	H97	0.714130	0.806970	0.974470
H981	H98	0.656130	0.756570	0.943170
C501	C50	0.669530	0.838970	0.925870
H991	H99	0.644030	0.819470	0.889170
H1001	H100	0.708230	0.867370	0.909470
C511	C51	0.582730	0.767970	0.013770
H1011	H101	0.564030	0.733770	0.985670
H1021	H102	0.560430	0.758770	0.053770
C521	C52	0.586130	0.822970	0.980170
H1031	H103	0.569630	0.840270	0.009070
H1041	H104	0.562030	0.810070	0.941270
C531	C53	0.669230	0.837070	0.064970
H1051	H105	0.643630	0.831570	0.101370
H1061	H106	0.707530	0.846170	0.081870
C541	C54	0.675730	0.887970	0.023570
H1071	H107	0.717230	0.915170	0.015970
H1081	H108	0.659530	0.908970	0.046570
N171	N17	0.644230	0.782370	0.028070
N181	N18	0.646130	0.868870	0.962370
Cu281	Cu28	0.982490	0.608870	0.581850
Cu291	Cu29	0.045570	0.734130	0.588350
Cu301	Cu30	0.988800	0.658600	0.805580
I371	I37	0.961490	0.669520	0.676180
I381	I38	0.000180	0.775570	0.501930
I391	I39	0.089470	0.660890	0.822500
I401	I40	0.092960	0.673180	0.531850
C551	C55	0.126900	0.787400	0.699900
H1091	H109	0.140300	0.759500	0.692200
H1101	H110	0.089900	0.767100	0.723500
C561	C56	0.172300	0.836100	0.740800
H1111	H111	0.152800	0.842100	0.777500
H1121	H112	0.200700	0.825800	0.757200
C571	C57	0.101300	0.851900	0.652900
H1131	H113	0.067100	0.836400	0.681000
H1141	H114	0.092100	0.865000	0.612900
C581	C58	0.156300	0.903500	0.686500
H1151	H115	0.173600	0.937300	0.657600
H1161	H116	0.143400	0.914700	0.725400
C591	C59	0.170400	0.834500	0.601700
H1171	H117	0.164900	0.854600	0.565300
H1181	H118	0.179500	0.805300	0.584800
C601	C60	0.221300	0.878900	0.643100
H1191	H119	0.248500	0.864600	0.650700
H1201	H120	0.242300	0.916100	0.620100
N191	N19	0.115700	0.804800	0.638600
N201	N20	0.202200	0.889400	0.704300
Cu311	Cu31	0.649160	0.942200	0.915180
Cu321	Cu32	0.712240	0.067460	0.921680
Cu331	Cu33	0.655470	0.991930	0.138910
I411	I41	0.628160	0.002850	0.009510
I421	I42	0.666850	0.108900	0.835260
I431	I43	0.756140	0.994220	0.155830
I441	I44	0.759630	0.006510	0.865180
C611	C61	0.793570	0.120730	0.033230
H1211	H121	0.806970	0.092830	0.025530
H1221	H122	0.756570	0.100430	0.056830
C621	C62	0.838970	0.169430	0.074130
H1231	H123	0.819470	0.175430	0.110830
H1241	H124	0.867370	0.159130	0.090530
C631	C63	0.767970	0.185230	0.986230
H1251	H125	0.733770	0.169730	0.014330
H1261	H126	0.758770	0.198330	0.946230
C641	C64	0.822970	0.236830	0.019830
H1271	H127	0.840270	0.270630	0.990930
H1281	H128	0.810070	0.248030	0.058730
C651	C65	0.837070	0.167830	0.935030
H1291	H129	0.831570	0.187930	0.898630
H1301	H130	0.846170	0.138630	0.918130
C661	C66	0.887970	0.212230	0.976430
H1311	H131	0.915170	0.197930	0.984030
H1321	H132	0.908970	0.249430	0.953430
N211	N21	0.782370	0.138130	0.971930
N221	N22	0.868870	0.222730	0.037630
Cu341	Cu34	0.315820	0.275540	0.248520
Cu351	Cu35	0.378900	0.400800	0.255020
Cu361	Cu36	0.322130	0.325270	0.472250
I451	I45	0.294820	0.336190	0.342850
I461	I46	0.333510	0.442240	0.168600
I471	I47	0.422800	0.327560	0.489170
I481	I48	0.426290	0.339850	0.198520
C671	C67	0.460230	0.454070	0.366570
H1331	H133	0.473630	0.426170	0.358870
H1341	H134	0.423230	0.433770	0.390170
C681	C68	0.505630	0.502770	0.407470
H1351	H135	0.486130	0.508770	0.444170
H1361	H136	0.534030	0.492470	0.423870
C691	C69	0.434630	0.518570	0.319570
H1371	H137	0.400430	0.503070	0.347670
H1381	H138	0.425430	0.531670	0.279570
C701	C70	0.489630	0.570170	0.353170
H1391	H139	0.506930	0.603970	0.324270
H1401	H140	0.476730	0.581370	0.392070
C711	C71	0.503730	0.501170	0.268370
H1411	H141	0.498230	0.521270	0.231970
H1421	H142	0.512830	0.471970	0.251470
C721	C72	0.554630	0.545570	0.309770
H1431	H143	0.581830	0.531270	0.317370
H1441	H144	0.575630	0.582770	0.286770
N231	N23	0.449030	0.471470	0.305270
N241	N24	0.535530	0.556070	0.370970
Cu371	Cu37	0.391130	0.373620	0.581850
Cu381	Cu38	0.265870	0.311440	0.588350
Cu391	Cu39	0.341400	0.330200	0.805580
I491	I49	0.330480	0.291970	0.676180
I501	I50	0.224430	0.224610	0.501930
I511	I51	0.339110	0.428580	0.822500
I521	I52	0.326820	0.419780	0.531850
C731	C73	0.212600	0.339500	0.699900
H1451	H145	0.240500	0.380800	0.692200
H1461	H146	0.232900	0.322800	0.723500
C741	C74	0.163900	0.336200	0.740800
H1471	H147	0.157900	0.310700	0.777500
H1481	H148	0.174200	0.374900	0.757200
C751	C75	0.148100	0.249400	0.652900
H1491	H149	0.163600	0.230700	0.681000
H1501	H150	0.135000	0.227100	0.612900
C761	C76	0.096500	0.252800	0.686500
H1511	H151	0.062700	0.236300	0.657600
H1521	H152	0.085300	0.228700	0.725400
C771	C77	0.165500	0.335900	0.601700
H1531	H153	0.145400	0.310300	0.565300
H1541	H154	0.194700	0.374200	0.584800
C781	C78	0.121100	0.342400	0.643100
H1551	H155	0.135400	0.383900	0.650700
H1561	H156	0.083900	0.326200	0.620100
N251	N25	0.195200	0.310900	0.638600
N261	N26	0.110600	0.312800	0.704300
Cu401	Cu40	0.057800	0.706950	0.915180
Cu411	Cu41	0.932540	0.644770	0.921680
Cu421	Cu42	0.008070	0.663530	0.138910
I531	I53	0.997150	0.625300	0.009510
I541	I54	0.891100	0.557940	0.835260
I551	I55	0.005780	0.761910	0.155830
I561	I56	0.993490	0.753110	0.865180
C791	C79	0.879270	0.672830	0.033230
H1571	H157	0.907170	0.714130	0.025530
H1581	H158	0.899570	0.656130	0.056830
C801	C80	0.830570	0.669530	0.074130
H1591	H159	0.824570	0.644030	0.110830
H1601	H160	0.840870	0.708230	0.090530
C811	C81	0.814770	0.582730	0.986230
H1611	H161	0.830270	0.564030	0.014330
H1621	H162	0.801670	0.560430	0.946230
C821	C82	0.763170	0.586130	0.019830
H1631	H163	0.729370	0.569630	0.990930
H1641	H164	0.751970	0.562030	0.058730
C831	C83	0.832170	0.669230	0.935030
H1651	H165	0.812070	0.643630	0.898630
H1661	H166	0.861370	0.707530	0.918130
C841	C84	0.787770	0.675730	0.976430
H1671	H167	0.802070	0.717230	0.984030
H1681	H168	0.750570	0.659530	0.953430
N271	N27	0.861870	0.644230	0.971930
N281	N28	0.777270	0.646130	0.037630
Cu431	Cu43	0.724460	0.040290	0.248520
Cu441	Cu44	0.599200	0.978110	0.255020
Cu451	Cu45	0.674730	0.996870	0.472250
I571	I57	0.663810	0.958640	0.342850
I581	I58	0.557760	0.891280	0.168600
I591	I59	0.672440	0.095250	0.489170
I601	I60	0.660150	0.086450	0.198520
C851	C85	0.545930	0.006170	0.366570
H1691	H169	0.573830	0.047470	0.358870
H1701	H170	0.566230	0.989470	0.390170
C861	C86	0.497230	0.002870	0.407470
H1711	H171	0.491230	0.977370	0.444170
H1721	H172	0.507530	0.041570	0.423870
C871	C87	0.481430	0.916070	0.319570
H1731	H173	0.496930	0.897370	0.347670
H1741	H174	0.468330	0.893770	0.279570
C881	C88	0.429830	0.919470	0.353170
H1751	H175	0.396030	0.902970	0.324270
H1761	H176	0.418630	0.895370	0.392070
C891	C89	0.498830	0.002570	0.268370
H1771	H177	0.478730	0.976970	0.231970
H1781	H178	0.528030	0.040870	0.251470
C901	C90	0.454430	0.009070	0.309770
H1791	H179	0.468730	0.050570	0.317370
H1801	H180	0.417230	0.992870	0.286770
N291	N29	0.528530	0.977570	0.305270
N301	N30	0.443930	0.979470	0.370970
Cu461	Cu46	0.626380	0.017510	0.581850
Cu471	Cu47	0.688560	0.954430	0.588350
Cu481	Cu48	0.669800	0.011200	0.805580
I611	I61	0.708030	0.038510	0.676180
I621	I62	0.775390	0.999820	0.501930
I631	I63	0.571420	0.910530	0.822500
I641	I64	0.580220	0.907040	0.531850
C911	C91	0.660500	0.873100	0.699900
H1811	H181	0.619200	0.859700	0.692200
H1821	H182	0.677200	0.910100	0.723500
C921	C92	0.663800	0.827700	0.740800
H1831	H183	0.689300	0.847200	0.777500
H1841	H184	0.625100	0.799300	0.757200
C931	C93	0.750600	0.898700	0.652900
H1851	H185	0.769300	0.932900	0.681000
H1861	H186	0.772900	0.907900	0.612900
C941	C94	0.747200	0.843700	0.686500
H1871	H187	0.763700	0.826400	0.657600
H1881	H188	0.771300	0.856600	0.725400
C951	C95	0.664100	0.829600	0.601700
H1891	H189	0.689700	0.835100	0.565300
H1901	H190	0.625800	0.820500	0.584800
C961	C96	0.657600	0.778700	0.643100
H1911	H191	0.616100	0.751500	0.650700
H1921	H192	0.673800	0.757700	0.620100
N311	N31	0.689100	0.884300	0.638600
N321	N32	0.687200	0.797800	0.704300
Cu491	Cu49	0.293050	0.350840	0.915180
Cu501	Cu50	0.355230	0.287760	0.921680
Cu511	Cu51	0.336470	0.344530	0.138910
I651	I65	0.374700	0.371840	0.009510
I661	I66	0.442060	0.333150	0.835260
I671	I67	0.238090	0.243860	0.155830
I681	I68	0.246890	0.240370	0.865180
C971	C97	0.327170	0.206430	0.033230
H1931	H193	0.285870	0.193030	0.025530
H1941	H194	0.343870	0.243430	0.056830
C981	C98	0.330470	0.161030	0.074130
H1951	H195	0.355970	0.180530	0.110830
H1961	H196	0.291770	0.132630	0.090530
C991	C99	0.417270	0.232030	0.986230
H1971	H197	0.435970	0.266230	0.014330
H1981	H198	0.439570	0.241230	0.946230
C1001	C100	0.413870	0.177030	0.019830
H1991	H199	0.430370	0.159730	0.990930
H2001	H200	0.437970	0.189930	0.058730
C1011	C101	0.330770	0.162930	0.935030
H2011	H201	0.356370	0.168430	0.898630
H2021	H202	0.292470	0.153830	0.918130
C1021	C102	0.324270	0.112030	0.976430
H2031	H203	0.282770	0.084830	0.984030
H2041	H204	0.340470	0.091030	0.953430
N331	N33	0.355770	0.217630	0.971930
N341	N34	0.353870	0.131130	0.037630
Cu521	Cu52	0.959710	0.684180	0.248520
Cu531	Cu53	0.021890	0.621100	0.255020
Cu541	Cu54	0.003130	0.677870	0.472250
I691	I69	0.041360	0.705180	0.342850
I701	I70	0.108720	0.666490	0.168600
I711	I71	0.904750	0.577200	0.489170
I721	I72	0.913550	0.573710	0.198520
C1031	C103	0.993830	0.539770	0.366570
H2051	H205	0.952530	0.526370	0.358870
H2061	H206	0.010530	0.576770	0.390170
C1041	C104	0.997130	0.494370	0.407470
H2071	H207	0.022630	0.513870	0.444170
H2081	H208	0.958430	0.465970	0.423870
C1051	C105	0.083930	0.565370	0.319570
H2091	H209	0.102630	0.599570	0.347670
H2101	H210	0.106230	0.574570	0.279570
C1061	C106	0.080530	0.510370	0.353170
H2111	H211	0.097030	0.493070	0.324270
H2121	H212	0.104630	0.523270	0.392070
C1071	C107	0.997430	0.496270	0.268370
H2131	H213	0.023030	0.501770	0.231970
H2141	H214	0.959130	0.487170	0.251470
C1081	C108	0.990930	0.445370	0.309770
H2151	H215	0.949430	0.418170	0.317370
H2161	H216	0.007130	0.424370	0.286770
N351	N35	0.022430	0.550970	0.305270
N361	N36	0.020530	0.464470	0.370970
