data_IHAJIL_freeONLY_PM
_symmetry_space_group_name_H-M	'P1'
_cell_length_a	14.072000
_cell_length_b	14.522700
_cell_length_c	10.446100
_cell_angle_alpha	90.000000
_cell_angle_beta	90.000000
_cell_angle_gamma	90.000000
_symmetry_Int_Tables_number 1

loop_
_symmetry_equiv_pos_as_xyz
'x,y,z'

loop_
_atom_site_label
_atom_site_type_symbol
_atom_site_fract_x
_atom_site_fract_y
_atom_site_fract_z
Fe11	Fe1	0.896850	0.170040	0.714860
Fe21	Fe2	0.746310	0.539340	0.682150
Fe31	Fe3	0.613680	0.151530	0.651620
P11	P1	0.615430	0.368100	0.702010
P21	P2	0.898950	0.385370	0.654050
P31	P3	0.776570	0.589510	0.397300
P41	P4	0.782280	0.138630	0.458750
O11	O1	0.855400	0.464700	0.728100
O21	O2	0.646900	0.452500	0.625700
O31	O3	0.518700	0.385500	0.761700
O41	O4	0.902700	0.301100	0.736600
O51	O5	0.698300	0.096000	0.526700
O61	O6	0.618400	0.282600	0.622800
O71	O7	0.873000	0.135700	0.537700
O81	O8	0.686100	0.614000	0.336200
O91	O9	0.995800	0.410900	0.602100
O101	O10	0.780500	0.613800	0.538100
O111	O11	0.803800	0.093900	0.331300
O121	O12	0.865000	0.624000	0.329500
H11	H1	0.680000	0.358000	0.814000
H21	H2	0.762000	0.232000	0.436000
H31	H3	0.837000	0.367000	0.556000
H41	H4	0.769000	0.485000	0.383000
Zn11	Zn1	0.396850	0.329960	0.714860
Zn21	Zn2	0.753690	0.039340	0.182150
Zn31	Zn3	0.113680	0.348470	0.651620
Fe41	Fe4	0.103150	0.829960	0.214860
Fe51	Fe5	0.253690	0.460660	0.182150
Fe61	Fe6	0.386320	0.848470	0.151620
P51	P5	0.384570	0.631900	0.202010
P61	P6	0.101050	0.614630	0.154050
P71	P7	0.223430	0.410490	0.897300
P81	P8	0.217720	0.861370	0.958750
O131	O13	0.144600	0.535300	0.228100
O141	O14	0.353100	0.547500	0.125700
O151	O15	0.481300	0.614500	0.261700
O161	O16	0.097300	0.698900	0.236600
O171	O17	0.301700	0.904000	0.026700
O181	O18	0.381600	0.717400	0.122800
O191	O19	0.127000	0.864300	0.037700
O201	O20	0.313900	0.386000	0.836200
O211	O21	0.004200	0.589100	0.102100
O221	O22	0.219500	0.386200	0.038100
O231	O23	0.196200	0.906100	0.831300
O241	O24	0.135000	0.376000	0.829500
H51	H5	0.320000	0.642000	0.314000
H61	H6	0.238000	0.768000	0.936000
H71	H7	0.163000	0.633000	0.056000
H81	H8	0.231000	0.515000	0.883000
Zn41	Zn4	0.603150	0.670040	0.214860
Zn51	Zn5	0.246310	0.960660	0.682150
Zn61	Zn6	0.886320	0.651530	0.151620
P91	P9	0.115430	0.131900	0.702010
P101	P10	0.398950	0.114630	0.654050
P111	P11	0.276570	0.910490	0.397300
P121	P12	0.282280	0.361370	0.458750
O251	O25	0.355400	0.035300	0.728100
O261	O26	0.146900	0.047500	0.625700
O271	O27	0.018700	0.114500	0.761700
O281	O28	0.402700	0.198900	0.736600
O291	O29	0.198300	0.404000	0.526700
O301	O30	0.118400	0.217400	0.622800
O311	O31	0.373000	0.364300	0.537700
O321	O32	0.186100	0.886000	0.336200
O331	O33	0.495800	0.089100	0.602100
O341	O34	0.280500	0.886200	0.538100
O351	O35	0.303800	0.406100	0.331300
O361	O36	0.365000	0.876000	0.329500
H91	H9	0.180000	0.142000	0.814000
H101	H10	0.262000	0.268000	0.436000
H111	H11	0.337000	0.133000	0.556000
H121	H12	0.269000	0.015000	0.383000
P131	P13	0.884570	0.868100	0.202010
P141	P14	0.601050	0.885370	0.154050
P151	P15	0.723430	0.089510	0.897300
P161	P16	0.717720	0.638630	0.958750
O371	O37	0.644600	0.964700	0.228100
O381	O38	0.853100	0.952500	0.125700
O391	O39	0.981300	0.885500	0.261700
O401	O40	0.597300	0.801100	0.236600
O411	O41	0.801700	0.596000	0.026700
O421	O42	0.881600	0.782600	0.122800
O431	O43	0.627000	0.635700	0.037700
O441	O44	0.813900	0.114000	0.836200
O451	O45	0.504200	0.910900	0.102100
O461	O46	0.719500	0.113800	0.038100
O471	O47	0.696200	0.593900	0.831300
O481	O48	0.635000	0.124000	0.829500
H131	H13	0.820000	0.858000	0.314000
H141	H14	0.738000	0.732000	0.936000
H151	H15	0.663000	0.867000	0.056000
H161	H16	0.731000	0.985000	0.883000
