data_IHECAB_freeONLY_PM
_symmetry_space_group_name_H-M	'P1'
_cell_length_a	8.911000
_cell_length_b	8.098000
_cell_length_c	10.289000
_cell_angle_alpha	90.000000
_cell_angle_beta	101.433000
_cell_angle_gamma	90.000000
_symmetry_Int_Tables_number 1

loop_
_symmetry_equiv_pos_as_xyz
'x,y,z'

loop_
_atom_site_label
_atom_site_type_symbol
_atom_site_fract_x
_atom_site_fract_y
_atom_site_fract_z
Zn11	Zn1	0.313820	0.058780	0.561360
O11	O1	0.841800	0.129400	0.459000
N11	N1	0.378400	0.220500	0.712300
C11	C1	0.981600	0.091600	0.492300
N21	N2	0.376900	0.361700	0.896600
N31	N3	0.519800	0.381500	0.865300
C21	C2	0.299200	0.265900	0.803500
H11	H1	0.198700	0.233100	0.801500
C31	C3	0.513800	0.294400	0.754500
O21	O2	0.090900	0.190200	0.511000
N41	N4	0.634400	0.282900	0.690200
H21	H2	0.718800	0.333400	0.721200
H31	H3	0.625500	0.225300	0.618900
Zn21	Zn2	0.686180	0.558780	0.938640
O31	O3	0.158200	0.629400	0.041000
N51	N5	0.621600	0.720500	0.787700
C41	C4	0.018400	0.591600	0.007700
N61	N6	0.623100	0.861700	0.603400
N71	N7	0.480200	0.881500	0.634700
C51	C5	0.700800	0.765900	0.696500
H41	H4	0.801300	0.733100	0.698500
C61	C6	0.486200	0.794400	0.745500
O41	O4	0.909100	0.690200	0.989000
N81	N8	0.365600	0.782900	0.809800
H51	H5	0.281200	0.833400	0.778800
H61	H6	0.374500	0.725300	0.881100
Zn31	Zn3	0.686180	0.941220	0.438640
O51	O5	0.158200	0.870600	0.541000
N91	N9	0.621600	0.779500	0.287700
C71	C7	0.018400	0.908400	0.507700
N101	N10	0.623100	0.638300	0.103400
N111	N11	0.480200	0.618500	0.134700
C81	C8	0.700800	0.734100	0.196500
H71	H7	0.801300	0.766900	0.198500
C91	C9	0.486200	0.705600	0.245500
O61	O6	0.909100	0.809800	0.489000
N121	N12	0.365600	0.717100	0.309800
H81	H8	0.281200	0.666600	0.278800
H91	H9	0.374500	0.774700	0.381100
Zn41	Zn4	0.313820	0.441220	0.061360
O71	O7	0.841800	0.370600	0.959000
N131	N13	0.378400	0.279500	0.212300
C101	C10	0.981600	0.408400	0.992300
N141	N14	0.376900	0.138300	0.396600
N151	N15	0.519800	0.118500	0.365300
C111	C11	0.299200	0.234100	0.303500
H101	H10	0.198700	0.266900	0.301500
C121	C12	0.513800	0.205600	0.254500
O81	O8	0.090900	0.309800	0.011000
N161	N16	0.634400	0.217100	0.190200
H111	H11	0.718800	0.166600	0.221200
H121	H12	0.625500	0.274700	0.118900
