data_IJANEN_freeONLY_PM
_symmetry_space_group_name_H-M	'P1'
_cell_length_a	9.471990
_cell_length_b	11.497700
_cell_length_c	22.503900
_cell_angle_alpha	78.417200
_cell_angle_beta	77.851100
_cell_angle_gamma	65.675300
_symmetry_Int_Tables_number 1

loop_
_symmetry_equiv_pos_as_xyz
'x,y,z'

loop_
_atom_site_label
_atom_site_type_symbol
_atom_site_fract_x
_atom_site_fract_y
_atom_site_fract_z
Zn11	Zn1	0.067070	0.837290	0.738630
Zn21	Zn2	0.642990	0.662710	0.761370
Zn31	Zn3	0.932930	0.162710	0.261370
Zn41	Zn4	0.357010	0.337290	0.238630
Zn51	Zn5	0.084350	0.250000	0.750000
Zn61	Zn6	0.915650	0.750000	0.250000
H11	H1	0.746700	0.053100	0.570900
H21	H2	0.540800	0.066700	0.525700
H31	H3	0.337400	0.018500	0.585100
H41	H4	0.748600	0.167100	0.167900
H51	H5	0.771100	0.172900	0.063500
H61	H6	0.202900	0.165700	0.049100
H71	H7	0.167100	0.162400	0.153000
H81	H8	0.782800	0.276800	0.964800
H91	H9	0.821700	0.297900	0.860300
H101	H10	0.268000	0.103400	0.857000
H111	H11	0.243400	0.079500	0.960700
H121	H12	0.370700	0.446900	0.929100
H131	H13	0.133200	0.433300	0.974300
H141	H14	0.941000	0.481500	0.914900
H151	H15	0.083600	0.332900	0.332100
H161	H16	0.007500	0.327100	0.436500
H171	H17	0.417700	0.334300	0.450900
H181	H18	0.482500	0.337600	0.347000
H191	H19	0.024400	0.223200	0.535200
H201	H20	0.979900	0.202100	0.639700
H211	H21	0.228400	0.396600	0.643000
H221	H22	0.283600	0.420500	0.539300
H231	H23	0.253300	0.946900	0.429100
H241	H24	0.459200	0.933300	0.474300
H251	H25	0.662600	0.981500	0.414900
H261	H26	0.251400	0.832900	0.832100
H271	H27	0.228900	0.827100	0.936500
H281	H28	0.797100	0.834300	0.950900
H291	H29	0.832900	0.837600	0.847000
H301	H30	0.217200	0.723200	0.035200
H311	H31	0.178300	0.702100	0.139700
H321	H32	0.732000	0.896600	0.143000
H331	H33	0.756600	0.920500	0.039300
H341	H34	0.629300	0.553100	0.070900
H351	H35	0.866800	0.566700	0.025700
H361	H36	0.059000	0.518500	0.085100
H371	H37	0.916400	0.667100	0.667900
H381	H38	0.992500	0.672900	0.563500
H391	H39	0.582300	0.665700	0.549100
H401	H40	0.517500	0.662400	0.653000
H411	H41	0.975600	0.776800	0.464800
H421	H42	0.020100	0.797900	0.360300
H431	H43	0.771600	0.603400	0.357000
H441	H44	0.716400	0.579500	0.460700
C11	C1	0.663520	0.035250	0.594890
C21	C2	0.540220	0.043560	0.567720
C31	C3	0.417370	0.017310	0.603430
C41	C4	0.411740	0.988870	0.666870
C51	C5	0.535920	0.978150	0.694470
C61	C6	0.663230	0.000690	0.657410
C71	C7	0.805730	0.981470	0.682390
C81	C8	0.532380	0.944790	0.762510
C91	C9	0.267950	0.973560	0.704520
C101	C10	0.841050	0.166900	0.143440
C111	C11	0.853860	0.170240	0.080560
C121	C12	0.990350	0.169540	0.043660
C131	C13	0.108920	0.166170	0.072290
C141	C14	0.087050	0.163760	0.134640
C151	C15	0.010150	0.176110	0.976250
C161	C16	0.883510	0.241550	0.943890
C171	C17	0.907930	0.253890	0.880970
C181	C18	0.168930	0.140650	0.878890
C191	C19	0.154840	0.124970	0.941490
C201	C20	0.293660	0.464750	0.905110
C211	C21	0.151500	0.456440	0.932280
C221	C22	0.038110	0.482690	0.896570
C231	C23	0.067480	0.511130	0.833130
C241	C24	0.208540	0.521850	0.805530
C251	C25	0.321330	0.499310	0.842590
C261	C26	0.469590	0.518530	0.817610
C271	C27	0.239680	0.555210	0.737490
C281	C28	0.946030	0.526440	0.795480
C291	C29	0.151390	0.333100	0.356560
C301	C30	0.104660	0.329760	0.419440
C311	C31	0.203550	0.330460	0.456340
C321	C32	0.347380	0.333830	0.427710
C331	C33	0.385450	0.336240	0.365360
C341	C34	0.162510	0.323890	0.523750
C351	C35	0.068950	0.258450	0.556110
C361	C36	0.042790	0.246110	0.619030
C371	C37	0.188470	0.359350	0.621110
C381	C38	0.221300	0.375030	0.558510
C391	C39	0.336480	0.964750	0.405110
C401	C40	0.459780	0.956440	0.432280
C411	C41	0.582630	0.982690	0.396570
C421	C42	0.588260	0.011130	0.333130
C431	C43	0.464080	0.021850	0.305530
C441	C44	0.336770	0.999310	0.342590
C451	C45	0.194270	0.018530	0.317610
C461	C46	0.467620	0.055210	0.237490
C471	C47	0.732050	0.026440	0.295480
C481	C48	0.158950	0.833100	0.856560
C491	C49	0.146140	0.829760	0.919440
C501	C50	0.009650	0.830460	0.956340
C511	C51	0.891080	0.833830	0.927710
C521	C52	0.912950	0.836240	0.865360
C531	C53	0.989850	0.823890	0.023750
C541	C54	0.116490	0.758450	0.056110
C551	C55	0.092070	0.746110	0.119030
C561	C56	0.831070	0.859350	0.121110
C571	C57	0.845160	0.875030	0.058510
C581	C58	0.706340	0.535250	0.094890
C591	C59	0.848500	0.543560	0.067720
C601	C60	0.961890	0.517310	0.103430
C611	C61	0.932520	0.488870	0.166870
C621	C62	0.791460	0.478150	0.194470
C631	C63	0.678670	0.500690	0.157410
C641	C64	0.530410	0.481470	0.182390
C651	C65	0.760320	0.444790	0.262510
C661	C66	0.053970	0.473560	0.204520
C671	C67	0.848610	0.666900	0.643440
C681	C68	0.895340	0.670240	0.580560
C691	C69	0.796450	0.669540	0.543660
C701	C70	0.652620	0.666170	0.572290
C711	C71	0.614550	0.663760	0.634640
C721	C72	0.837490	0.676110	0.476250
C731	C73	0.931050	0.741550	0.443890
C741	C74	0.957210	0.753890	0.380970
C751	C75	0.811530	0.640650	0.378890
C761	C76	0.778700	0.624970	0.441490
N11	N1	0.954920	0.163400	0.169980
N21	N2	0.049940	0.205610	0.847650
N31	N3	0.288300	0.336600	0.330020
N41	N4	0.103200	0.294390	0.652350
N51	N5	0.045080	0.836600	0.830020
N61	N6	0.950060	0.794390	0.152350
N71	N7	0.711700	0.663400	0.669980
N81	N8	0.896800	0.705610	0.347650
O11	O1	0.851740	0.889680	0.723120
O21	O2	0.839430	0.086730	0.674210
O31	O3	0.521720	0.029240	0.792780
O41	O4	0.531820	0.836920	0.787240
O51	O5	0.235890	0.885460	0.692000
O61	O6	0.188590	0.044390	0.744230
O71	O7	0.464540	0.610320	0.776880
O81	O8	0.600370	0.413270	0.825790
O91	O9	0.343740	0.470760	0.707220
O101	O10	0.155980	0.663080	0.712760
O111	O11	0.813350	0.614540	0.808000
O121	O12	0.977210	0.455610	0.755770
O131	O13	0.148260	0.110320	0.276880
O141	O14	0.160570	0.913270	0.325790
O151	O15	0.478280	0.970760	0.207220
O161	O16	0.468180	0.163080	0.212760
O171	O17	0.764110	0.114540	0.308000
O181	O18	0.811410	0.955610	0.255770
O191	O19	0.535460	0.389680	0.223120
O201	O20	0.399630	0.586730	0.174210
O211	O21	0.656260	0.529240	0.292780
O221	O22	0.844020	0.336920	0.287240
O231	O23	0.186650	0.385460	0.192000
O241	O24	0.022790	0.544390	0.244230
O251	O25	0.860000	0.250000	0.750000
O261	O26	0.303310	0.250000	0.750000
O271	O27	0.140000	0.750000	0.250000
O281	O28	0.696690	0.750000	0.250000
