data_IJASIW_freeONLY_PM
_symmetry_space_group_name_H-M	'P1'
_cell_length_a	10.069100
_cell_length_b	10.949100
_cell_length_c	13.221100
_cell_angle_alpha	99.755000
_cell_angle_beta	110.245000
_cell_angle_gamma	107.793000
_symmetry_Int_Tables_number 1

loop_
_symmetry_equiv_pos_as_xyz
'x,y,z'

loop_
_atom_site_label
_atom_site_type_symbol
_atom_site_fract_x
_atom_site_fract_y
_atom_site_fract_z
Er11	Er1	0.154950	0.706490	0.195820
Er21	Er2	0.845050	0.293510	0.804180
H11	H1	0.723900	0.619500	0.162600
H21	H2	0.504000	0.366200	0.846300
H31	H3	0.837500	0.915600	0.311100
H41	H4	0.226300	0.968900	0.564300
H51	H5	0.233400	0.409700	0.425400
H61	H6	0.626200	0.668900	0.441200
H71	H7	0.963900	0.641900	0.913600
H81	H8	0.902000	0.734900	0.770900
H91	H9	0.021700	0.966100	0.809800
H101	H10	0.204200	0.190300	0.956000
H111	H11	0.385500	0.311900	0.136500
H121	H12	0.542900	0.315600	0.335300
H131	H13	0.601400	0.194700	0.458400
H141	H14	0.465200	0.964600	0.400300
H151	H15	0.276100	0.380500	0.837400
H161	H16	0.496000	0.633800	0.153700
H171	H17	0.162500	0.084400	0.688900
H181	H18	0.773700	0.031100	0.435700
H191	H19	0.766600	0.590300	0.574600
H201	H20	0.373800	0.331100	0.558800
H211	H21	0.036100	0.358100	0.086400
H221	H22	0.098000	0.265100	0.229100
H231	H23	0.978300	0.033900	0.190200
H241	H24	0.795800	0.809700	0.044000
H251	H25	0.614500	0.688100	0.863500
H261	H26	0.457100	0.684400	0.664700
H271	H27	0.398600	0.805300	0.541600
H281	H28	0.534800	0.035400	0.599700
C11	C1	0.786600	0.485700	0.009900
C21	C2	0.637200	0.492000	0.004800
C31	C3	0.633600	0.571400	0.096800
C41	C4	0.503100	0.420300	0.908300
C51	C5	0.077100	0.851500	0.343300
C61	C6	0.038300	0.929400	0.424300
C71	C7	0.904000	0.949600	0.387800
C81	C8	0.134300	0.981000	0.537600
C91	C9	0.326100	0.601000	0.336200
C101	C10	0.415900	0.547500	0.420900
C111	C11	0.340400	0.446100	0.455400
C121	C12	0.575600	0.601300	0.464900
C131	C13	0.011100	0.734900	0.931000
C141	C14	0.973600	0.789500	0.843700
C151	C15	0.044100	0.926000	0.866800
C161	C16	0.150700	0.004000	0.977800
C171	C17	0.227700	0.145900	0.009600
C181	C18	0.336100	0.219000	0.117800
C191	C19	0.373800	0.154200	0.201700
C201	C20	0.490000	0.222600	0.312300
C211	C21	0.524100	0.151200	0.385200
C221	C22	0.441500	0.011800	0.349000
C231	C23	0.295800	0.013100	0.172100
C241	C24	0.178800	0.938100	0.058000
C251	C25	0.213400	0.514300	0.990100
C261	C26	0.362800	0.508000	0.995200
C271	C27	0.366400	0.428600	0.903200
C281	C28	0.496900	0.579700	0.091700
C291	C29	0.922900	0.148500	0.656700
C301	C30	0.961700	0.070600	0.575700
C311	C31	0.096000	0.050400	0.612200
C321	C32	0.865700	0.019000	0.462400
C331	C33	0.673900	0.399000	0.663800
C341	C34	0.584100	0.452500	0.579100
C351	C35	0.659600	0.553900	0.544600
C361	C36	0.424400	0.398700	0.535100
C371	C37	0.988900	0.265100	0.069000
C381	C38	0.026400	0.210500	0.156300
C391	C39	0.955900	0.074000	0.133200
C401	C40	0.849300	0.996000	0.022200
C411	C41	0.772300	0.854100	0.990400
C421	C42	0.663900	0.781000	0.882200
C431	C43	0.626200	0.845800	0.798300
C441	C44	0.510000	0.777400	0.687700
C451	C45	0.475900	0.848800	0.614800
C461	C46	0.558500	0.988200	0.651000
C471	C47	0.704200	0.986900	0.827900
C481	C48	0.821200	0.061900	0.942000
N11	N1	0.108500	0.804000	0.037100
N21	N2	0.331700	0.943200	0.245800
N31	N3	0.891500	0.196000	0.962900
N41	N4	0.668300	0.056800	0.754200
O11	O1	0.908800	0.559600	0.095900
O21	O2	0.780500	0.407000	0.925900
O31	O3	0.011700	0.833700	0.238200
O41	O4	0.176200	0.801700	0.380400
O51	O5	0.180800	0.537600	0.282400
O61	O6	0.394000	0.709000	0.320600
O71	O7	0.091200	0.440400	0.904100
O81	O8	0.219500	0.593000	0.074100
O91	O9	0.988300	0.166300	0.761800
O101	O10	0.823800	0.198300	0.619600
O111	O11	0.819200	0.462400	0.717600
O121	O12	0.606000	0.291000	0.679400
