data_IJEBUV_freeONLY_PM
_symmetry_space_group_name_H-M	'P1'
_cell_length_a	17.559000
_cell_length_b	11.426000
_cell_length_c	21.736000
_cell_angle_alpha	90.000000
_cell_angle_beta	114.588000
_cell_angle_gamma	90.000000
_symmetry_Int_Tables_number 1

loop_
_symmetry_equiv_pos_as_xyz
'x,y,z'

loop_
_atom_site_label
_atom_site_type_symbol
_atom_site_fract_x
_atom_site_fract_y
_atom_site_fract_z
C11	C1	0.335200	0.602400	0.649500
H11	H1	0.355700	0.567100	0.620900
C21	C2	0.254300	0.607700	0.638200
H21	H2	0.209300	0.576300	0.601600
C31	C3	0.330600	0.700000	0.734600
H31	H3	0.345500	0.743500	0.774000
C41	C4	0.178100	0.688800	0.705100
C51	C5	0.108300	0.618500	0.671000
H41	H4	0.107500	0.565000	0.638500
C61	C6	0.039400	0.630900	0.687100
H51	H5	0.992100	0.585200	0.664600
C71	C7	0.040000	0.709600	0.735800
C81	C8	0.109800	0.781300	0.767200
H61	H6	0.110300	0.836100	0.799000
C91	C9	0.178900	0.771800	0.751500
H71	H7	0.225000	0.820800	0.772000
C101	C10	0.894400	0.651600	0.718000
H81	H8	0.891300	0.607300	0.681100
C111	C11	0.826400	0.651800	0.736300
H91	H9	0.778800	0.607600	0.712000
C121	C12	0.831200	0.717700	0.790300
C131	C13	0.902400	0.781400	0.827800
H101	H10	0.905300	0.824600	0.865000
C141	C14	0.969500	0.780600	0.810000
H111	H11	0.017500	0.823300	0.835400
C151	C15	0.684600	0.677400	0.770700
H121	H12	0.670900	0.634600	0.731100
C161	C16	0.677100	0.765000	0.856900
H131	H13	0.656800	0.793100	0.887300
C171	C17	0.756400	0.777800	0.862300
H141	H14	0.799800	0.817200	0.896500
C181	C18	0.318500	0.388800	0.920800
H151	H15	0.333800	0.359400	0.964300
C191	C19	0.324700	0.450700	0.828900
H161	H16	0.345200	0.472200	0.797400
C201	C20	0.242100	0.451900	0.817900
H171	H17	0.196900	0.474700	0.778600
C211	C21	0.166900	0.404300	0.891400
C221	C22	0.165100	0.320000	0.935400
H181	H18	0.209000	0.267400	0.954900
C231	C23	0.094100	0.315600	0.950300
H191	H19	0.092300	0.260200	0.981000
C241	C24	0.027400	0.390900	0.920700
C251	C25	0.032600	0.471200	0.874500
H201	H20	0.987400	0.520800	0.852400
C261	C26	0.101000	0.480500	0.860200
H211	H21	0.103200	0.536900	0.830100
C271	C27	0.947600	0.296300	0.979100
H221	H22	0.990900	0.242300	0.997500
C281	C28	0.887700	0.461100	0.909500
H231	H23	0.890300	0.519300	0.880500
C291	C29	0.665500	0.320000	0.036700
H241	H24	0.647800	0.294600	0.069300
C301	C30	0.743400	0.307100	0.040400
H251	H25	0.788200	0.269400	0.074300
C311	C31	0.666800	0.402000	0.947800
H261	H26	0.650600	0.443100	0.907400
C321	C32	0.878000	0.289500	0.994600
H271	H27	0.874700	0.231500	0.023500
C331	C33	0.814900	0.369000	0.966900
C341	C34	0.817800	0.455100	0.924300
H281	H28	0.774200	0.508600	0.905700
Cu11	Cu1	0.508130	0.675110	0.755360
Cu21	Cu2	0.494980	0.398440	0.942690
N11	N1	0.384100	0.657400	0.710430
N21	N2	0.251000	0.669300	0.691870
C351	C35	0.965900	0.716100	0.753900
N31	N3	0.760800	0.722700	0.808510
N41	N4	0.631700	0.703300	0.798690
N51	N5	0.372000	0.413300	0.892880
N61	N6	0.239700	0.412700	0.876940
C361	C36	0.952300	0.383700	0.936400
N71	N7	0.743600	0.360500	0.984140
N81	N8	0.616300	0.375600	0.978380
N91	N9	0.503000	0.423800	0.735940
N101	N10	0.509900	0.627600	0.902600
N111	N11	0.513300	0.687500	0.606880
O11	O1	0.525100	0.519900	0.720520
O21	O2	0.510270	0.329200	0.710420
O31	O3	0.510910	0.580300	0.852150
O41	O4	0.505390	0.571300	0.951550
O51	O5	0.516300	0.725700	0.553940
O61	O6	0.506790	0.749600	0.651960
C371	C37	0.664800	0.102400	0.850500
H291	H29	0.644300	0.067100	0.879100
C381	C38	0.745700	0.107700	0.861800
H301	H30	0.790700	0.076300	0.898400
C391	C39	0.669400	0.200000	0.765400
H311	H31	0.654500	0.243500	0.726000
C401	C40	0.821900	0.188800	0.794900
C411	C41	0.891700	0.118500	0.829000
H321	H32	0.892500	0.065000	0.861500
C421	C42	0.960600	0.130900	0.812900
H331	H33	0.007900	0.085200	0.835400
C431	C43	0.960000	0.209600	0.764200
C441	C44	0.890200	0.281300	0.732800
H341	H34	0.889700	0.336100	0.701000
C451	C45	0.821100	0.271800	0.748500
H351	H35	0.775000	0.320800	0.728000
C461	C46	0.105600	0.151600	0.782000
H361	H36	0.108700	0.107300	0.818900
C471	C47	0.173600	0.151800	0.763700
H371	H37	0.221200	0.107600	0.788000
C481	C48	0.168800	0.217700	0.709700
C491	C49	0.097600	0.281400	0.672200
H381	H38	0.094700	0.324600	0.635000
C501	C50	0.030500	0.280600	0.690000
H391	H39	0.982500	0.323300	0.664600
C511	C51	0.315400	0.177400	0.729300
H401	H40	0.329100	0.134600	0.768900
C521	C52	0.322900	0.265000	0.643100
H411	H41	0.343200	0.293100	0.612700
C531	C53	0.243600	0.277800	0.637700
H421	H42	0.200200	0.317200	0.603500
C541	C54	0.681500	0.888800	0.579200
H431	H43	0.666200	0.859400	0.535700
C551	C55	0.675300	0.950700	0.671100
H441	H44	0.654800	0.972200	0.702600
C561	C56	0.757900	0.951900	0.682100
H451	H45	0.803100	0.974700	0.721400
C571	C57	0.833100	0.904300	0.608600
C581	C58	0.834900	0.820000	0.564600
H461	H46	0.791000	0.767400	0.545100
C591	C59	0.905900	0.815600	0.549700
H471	H47	0.907700	0.760200	0.519000
C601	C60	0.972600	0.890900	0.579300
C611	C61	0.967400	0.971200	0.625500
H481	H48	0.012600	0.020800	0.647600
C621	C62	0.899000	0.980500	0.639800
H491	H49	0.896800	0.036900	0.669900
C631	C63	0.052400	0.796300	0.520900
H501	H50	0.009100	0.742300	0.502500
C641	C64	0.112300	0.961100	0.590500
H511	H51	0.109700	0.019300	0.619500
C651	C65	0.334500	0.820000	0.463300
H521	H52	0.352200	0.794600	0.430700
C661	C66	0.256600	0.807100	0.459600
H531	H53	0.211800	0.769400	0.425700
C671	C67	0.333200	0.902000	0.552200
H541	H54	0.349400	0.943100	0.592600
C681	C68	0.122000	0.789500	0.505400
H551	H55	0.125300	0.731500	0.476500
C691	C69	0.185100	0.869000	0.533100
C701	C70	0.182200	0.955100	0.575700
H561	H56	0.225800	0.008600	0.594300
Cu31	Cu3	0.491870	0.175110	0.744640
Cu41	Cu4	0.505020	0.898440	0.557310
N121	N12	0.615900	0.157400	0.789570
N131	N13	0.749000	0.169300	0.808130
C711	C71	0.034100	0.216100	0.746100
N141	N14	0.239200	0.222700	0.691490
N151	N15	0.368300	0.203300	0.701310
N161	N16	0.628000	0.913300	0.607120
N171	N17	0.760300	0.912700	0.623060
C721	C72	0.047700	0.883700	0.563600
N181	N18	0.256400	0.860500	0.515860
N191	N19	0.383700	0.875600	0.521620
N201	N20	0.497000	0.923800	0.764060
N211	N21	0.490100	0.127600	0.597400
N221	N22	0.486700	0.187500	0.893120
O71	O7	0.474900	0.019900	0.779480
O81	O8	0.489730	0.829200	0.789580
O91	O9	0.489090	0.080300	0.647850
O101	O10	0.494610	0.071300	0.548450
O111	O11	0.483700	0.225700	0.946060
O121	O12	0.493210	0.249600	0.848040
C731	C73	0.664800	0.397600	0.350500
H571	H57	0.644300	0.432900	0.379100
C741	C74	0.745700	0.392300	0.361800
H581	H58	0.790700	0.423700	0.398400
C751	C75	0.669400	0.300000	0.265400
H591	H59	0.654500	0.256500	0.226000
C761	C76	0.821900	0.311200	0.294900
C771	C77	0.891700	0.381500	0.329000
H601	H60	0.892500	0.435000	0.361500
C781	C78	0.960600	0.369100	0.312900
H611	H61	0.007900	0.414800	0.335400
C791	C79	0.960000	0.290400	0.264200
C801	C80	0.890200	0.218700	0.232800
H621	H62	0.889700	0.163900	0.201000
C811	C81	0.821100	0.228200	0.248500
H631	H63	0.775000	0.179200	0.228000
C821	C82	0.105600	0.348400	0.282000
H641	H64	0.108700	0.392700	0.318900
C831	C83	0.173600	0.348200	0.263700
H651	H65	0.221200	0.392400	0.288000
C841	C84	0.168800	0.282300	0.209700
C851	C85	0.097600	0.218600	0.172200
H661	H66	0.094700	0.175400	0.135000
C861	C86	0.030500	0.219400	0.190000
H671	H67	0.982500	0.176700	0.164600
C871	C87	0.315400	0.322600	0.229300
H681	H68	0.329100	0.365400	0.268900
C881	C88	0.322900	0.235000	0.143100
H691	H69	0.343200	0.206900	0.112700
C891	C89	0.243600	0.222200	0.137700
H701	H70	0.200200	0.182800	0.103500
C901	C90	0.681500	0.611200	0.079200
H711	H71	0.666200	0.640600	0.035700
C911	C91	0.675300	0.549300	0.171100
H721	H72	0.654800	0.527800	0.202600
C921	C92	0.757900	0.548100	0.182100
H731	H73	0.803100	0.525300	0.221400
C931	C93	0.833100	0.595700	0.108600
C941	C94	0.834900	0.680000	0.064600
H741	H74	0.791000	0.732600	0.045100
C951	C95	0.905900	0.684400	0.049700
H751	H75	0.907700	0.739800	0.019000
C961	C96	0.972600	0.609100	0.079300
C971	C97	0.967400	0.528800	0.125500
H761	H76	0.012600	0.479200	0.147600
C981	C98	0.899000	0.519500	0.139800
H771	H77	0.896800	0.463100	0.169900
C991	C99	0.052400	0.703700	0.020900
H781	H78	0.009100	0.757700	0.002500
C1001	C100	0.112300	0.538900	0.090500
H791	H79	0.109700	0.480700	0.119500
C1011	C101	0.334500	0.680000	0.963300
H801	H80	0.352200	0.705400	0.930700
C1021	C102	0.256600	0.692900	0.959600
H811	H81	0.211800	0.730600	0.925700
C1031	C103	0.333200	0.598000	0.052200
H821	H82	0.349400	0.556900	0.092600
C1041	C104	0.122000	0.710500	0.005400
H831	H83	0.125300	0.768500	0.976500
C1051	C105	0.185100	0.631000	0.033100
C1061	C106	0.182200	0.544900	0.075700
H841	H84	0.225800	0.491400	0.094300
Cu51	Cu5	0.491870	0.324890	0.244640
Cu61	Cu6	0.505020	0.601560	0.057310
N231	N23	0.615900	0.342600	0.289570
N241	N24	0.749000	0.330700	0.308130
C1071	C107	0.034100	0.283900	0.246100
N251	N25	0.239200	0.277300	0.191490
N261	N26	0.368300	0.296700	0.201310
N271	N27	0.628000	0.586700	0.107120
N281	N28	0.760300	0.587300	0.123060
C1081	C108	0.047700	0.616300	0.063600
N291	N29	0.256400	0.639500	0.015860
N301	N30	0.383700	0.624400	0.021620
N311	N31	0.497000	0.576200	0.264060
N321	N32	0.490100	0.372400	0.097400
N331	N33	0.486700	0.312500	0.393120
O131	O13	0.474900	0.480100	0.279480
O141	O14	0.489730	0.670800	0.289580
O151	O15	0.489090	0.419700	0.147850
O161	O16	0.494610	0.428700	0.048450
O171	O17	0.483700	0.274300	0.446060
O181	O18	0.493210	0.250400	0.348040
C1091	C109	0.335200	0.897600	0.149500
H851	H85	0.355700	0.932900	0.120900
C1101	C110	0.254300	0.892300	0.138200
H861	H86	0.209300	0.923700	0.101600
C1111	C111	0.330600	0.800000	0.234600
H871	H87	0.345500	0.756500	0.274000
C1121	C112	0.178100	0.811200	0.205100
C1131	C113	0.108300	0.881500	0.171000
H881	H88	0.107500	0.935000	0.138500
C1141	C114	0.039400	0.869100	0.187100
H891	H89	0.992100	0.914800	0.164600
C1151	C115	0.040000	0.790400	0.235800
C1161	C116	0.109800	0.718700	0.267200
H901	H90	0.110300	0.663900	0.299000
C1171	C117	0.178900	0.728200	0.251500
H911	H91	0.225000	0.679200	0.272000
C1181	C118	0.894400	0.848400	0.218000
H921	H92	0.891300	0.892700	0.181100
C1191	C119	0.826400	0.848200	0.236300
H931	H93	0.778800	0.892400	0.212000
C1201	C120	0.831200	0.782300	0.290300
C1211	C121	0.902400	0.718600	0.327800
H941	H94	0.905300	0.675400	0.365000
C1221	C122	0.969500	0.719400	0.310000
H951	H95	0.017500	0.676700	0.335400
C1231	C123	0.684600	0.822600	0.270700
H961	H96	0.670900	0.865400	0.231100
C1241	C124	0.677100	0.735000	0.356900
H971	H97	0.656800	0.706900	0.387300
C1251	C125	0.756400	0.722200	0.362300
H981	H98	0.799800	0.682800	0.396500
C1261	C126	0.318500	0.111200	0.420800
H991	H99	0.333800	0.140600	0.464300
C1271	C127	0.324700	0.049300	0.328900
H1001	H100	0.345200	0.027800	0.297400
C1281	C128	0.242100	0.048100	0.317900
H1011	H101	0.196900	0.025300	0.278600
C1291	C129	0.166900	0.095700	0.391400
C1301	C130	0.165100	0.180000	0.435400
H1021	H102	0.209000	0.232600	0.454900
C1311	C131	0.094100	0.184400	0.450300
H1031	H103	0.092300	0.239800	0.481000
C1321	C132	0.027400	0.109100	0.420700
C1331	C133	0.032600	0.028800	0.374500
H1041	H104	0.987400	0.979200	0.352400
C1341	C134	0.101000	0.019500	0.360200
H1051	H105	0.103200	0.963100	0.330100
C1351	C135	0.947600	0.203700	0.479100
H1061	H106	0.990900	0.257700	0.497500
C1361	C136	0.887700	0.038900	0.409500
H1071	H107	0.890300	0.980700	0.380500
C1371	C137	0.665500	0.180000	0.536700
H1081	H108	0.647800	0.205400	0.569300
C1381	C138	0.743400	0.192900	0.540400
H1091	H109	0.788200	0.230600	0.574300
C1391	C139	0.666800	0.098000	0.447800
H1101	H110	0.650600	0.056900	0.407400
C1401	C140	0.878000	0.210500	0.494600
H1111	H111	0.874700	0.268500	0.523500
C1411	C141	0.814900	0.131000	0.466900
C1421	C142	0.817800	0.044900	0.424300
H1121	H112	0.774200	0.991400	0.405700
Cu71	Cu7	0.508130	0.824890	0.255360
Cu81	Cu8	0.494980	0.101560	0.442690
N341	N34	0.384100	0.842600	0.210430
N351	N35	0.251000	0.830700	0.191870
C1431	C143	0.965900	0.783900	0.253900
N361	N36	0.760800	0.777300	0.308510
N371	N37	0.631700	0.796700	0.298690
N381	N38	0.372000	0.086700	0.392880
N391	N39	0.239700	0.087300	0.376940
C1441	C144	0.952300	0.116300	0.436400
N401	N40	0.743600	0.139500	0.484140
N411	N41	0.616300	0.124400	0.478380
N421	N42	0.503000	0.076200	0.235940
N431	N43	0.509900	0.872400	0.402600
N441	N44	0.513300	0.812500	0.106880
O191	O19	0.525100	0.980100	0.220520
O201	O20	0.510270	0.170800	0.210420
O211	O21	0.510910	0.919700	0.352150
O221	O22	0.505390	0.928700	0.451550
O231	O23	0.516300	0.774300	0.053940
O241	O24	0.506790	0.750400	0.151960
