data_IJENER_freeONLY_PM
_symmetry_space_group_name_H-M	'P1'
_cell_length_a	12.967700
_cell_length_b	12.967700
_cell_length_c	13.545000
_cell_angle_alpha	90.000000
_cell_angle_beta	90.000000
_cell_angle_gamma	90.000000
_symmetry_Int_Tables_number 1

loop_
_symmetry_equiv_pos_as_xyz
'x,y,z'

loop_
_atom_site_label
_atom_site_type_symbol
_atom_site_fract_x
_atom_site_fract_y
_atom_site_fract_z
Ag11	Ag1	0.831910	0.331630	0.747400
Ag21	Ag2	0.668090	0.168370	0.747400
Ag31	Ag3	0.668370	0.331910	0.247400
Ag41	Ag4	0.831630	0.168090	0.247400
Ag51	Ag5	0.168090	0.668370	0.252600
Ag61	Ag6	0.331910	0.831630	0.252600
Ag71	Ag7	0.331630	0.668090	0.752600
Ag81	Ag8	0.168370	0.831910	0.752600
H11	H1	0.075800	0.314500	0.782200
H21	H2	0.106300	0.369200	0.680300
H31	H3	0.156100	0.408300	0.781800
H41	H4	0.028900	0.788800	0.991200
H51	H5	0.101800	0.855700	0.061900
H61	H6	0.007600	0.791900	0.107600
H71	H7	0.424200	0.185500	0.782200
H81	H8	0.393700	0.130800	0.680300
H91	H9	0.343900	0.091700	0.781800
H101	H10	0.471100	0.711200	0.991200
H111	H11	0.398200	0.644300	0.061900
H121	H12	0.492400	0.708100	0.107600
H131	H13	0.685500	0.575800	0.282200
H141	H14	0.630800	0.606300	0.180300
H151	H15	0.591700	0.656100	0.281800
H161	H16	0.211200	0.528900	0.491200
H171	H17	0.144300	0.601800	0.561900
H181	H18	0.208100	0.507600	0.607600
H191	H19	0.814500	0.924200	0.282200
H201	H20	0.869200	0.893700	0.180300
H211	H21	0.908300	0.843900	0.281800
H221	H22	0.288800	0.971100	0.491200
H231	H23	0.355700	0.898200	0.561900
H241	H24	0.291900	0.992400	0.607600
H251	H25	0.924200	0.685500	0.217800
H261	H26	0.893700	0.630800	0.319700
H271	H27	0.843900	0.591700	0.218200
H281	H28	0.971100	0.211200	0.008800
H291	H29	0.898200	0.144300	0.938100
H301	H30	0.992400	0.208100	0.892400
H311	H31	0.575800	0.814500	0.217800
H321	H32	0.606300	0.869200	0.319700
H331	H33	0.656100	0.908300	0.218200
H341	H34	0.528900	0.288800	0.008800
H351	H35	0.601800	0.355700	0.938100
H361	H36	0.507600	0.291900	0.892400
H371	H37	0.314500	0.424200	0.717800
H381	H38	0.369200	0.393700	0.819700
H391	H39	0.408300	0.343900	0.718200
H401	H40	0.788800	0.471100	0.508800
H411	H41	0.855700	0.398200	0.438100
H421	H42	0.791900	0.492400	0.392400
H431	H43	0.185500	0.075800	0.717800
H441	H44	0.130800	0.106300	0.819700
H451	H45	0.091700	0.156100	0.718200
H461	H46	0.711200	0.028900	0.508800
H471	H47	0.644300	0.101800	0.438100
H481	H48	0.708100	0.007600	0.392400
C11	C1	0.123000	0.622400	0.863900
C21	C2	0.057400	0.559100	0.934300
C31	C3	0.996600	0.482300	0.897700
C41	C4	0.058300	0.581200	0.037100
C51	C5	0.093700	0.380300	0.750900
C61	C6	0.061200	0.792200	0.056600
C71	C7	0.377000	0.877600	0.863900
C81	C8	0.442600	0.940900	0.934300
C91	C9	0.503400	0.017700	0.897700
C101	C10	0.441700	0.918800	0.037100
C111	C11	0.406300	0.119700	0.750900
C121	C12	0.438800	0.707800	0.056600
C131	C13	0.377600	0.623000	0.363900
C141	C14	0.440900	0.557400	0.434300
C151	C15	0.517700	0.496600	0.397700
C161	C16	0.418800	0.558300	0.537100
C171	C17	0.619700	0.593700	0.250900
C181	C18	0.207800	0.561200	0.556600
C191	C19	0.122400	0.877000	0.363900
C201	C20	0.059100	0.942600	0.434300
C211	C21	0.982300	0.003400	0.397700
C221	C22	0.081200	0.941700	0.537100
C231	C23	0.880300	0.906300	0.250900
C241	C24	0.292200	0.938800	0.556600
C251	C25	0.877000	0.377600	0.136100
C261	C26	0.942600	0.440900	0.065700
C271	C27	0.003400	0.517700	0.102300
C281	C28	0.941700	0.418800	0.962900
C291	C29	0.906300	0.619700	0.249100
C301	C30	0.938800	0.207800	0.943400
C311	C31	0.623000	0.122400	0.136100
C321	C32	0.557400	0.059100	0.065700
C331	C33	0.496600	0.982300	0.102300
C341	C34	0.558300	0.081200	0.962900
C351	C35	0.593700	0.880300	0.249100
C361	C36	0.561200	0.292200	0.943400
C371	C37	0.622400	0.377000	0.636100
C381	C38	0.559100	0.442600	0.565700
C391	C39	0.482300	0.503400	0.602300
C401	C40	0.581200	0.441700	0.462900
C411	C41	0.380300	0.406300	0.749100
C421	C42	0.792200	0.438800	0.443400
C431	C43	0.877600	0.123000	0.636100
C441	C44	0.940900	0.057400	0.565700
C451	C45	0.017700	0.996600	0.602300
C461	C46	0.918800	0.058300	0.462900
C471	C47	0.119700	0.093700	0.749100
C481	C48	0.707800	0.061200	0.443400
S11	S1	0.988600	0.470400	0.766400
S21	S2	0.145800	0.680700	0.073500
S31	S3	0.511400	0.029600	0.766400
S41	S4	0.354200	0.819300	0.073500
S51	S5	0.529600	0.488600	0.266400
S61	S6	0.319300	0.645800	0.573500
S71	S7	0.970400	0.011400	0.266400
S81	S8	0.180700	0.854200	0.573500
S91	S9	0.011400	0.529600	0.233600
S101	S10	0.854200	0.319300	0.926500
S111	S11	0.488600	0.970400	0.233600
S121	S12	0.645800	0.180700	0.926500
S131	S13	0.470400	0.511400	0.733600
S141	S14	0.680700	0.354200	0.426500
S151	S15	0.029600	0.988600	0.733600
S161	S16	0.819300	0.145800	0.426500
O11	O1	0.085900	0.705300	0.836900
O21	O2	0.209600	0.585300	0.841400
O31	O3	0.414100	0.794700	0.836900
O41	O4	0.290400	0.914700	0.841400
O51	O5	0.294700	0.585900	0.336900
O61	O6	0.414700	0.709600	0.341400
O71	O7	0.205300	0.914100	0.336900
O81	O8	0.085300	0.790400	0.341400
O91	O9	0.914100	0.294700	0.163100
O101	O10	0.790400	0.414700	0.158600
O111	O11	0.585900	0.205300	0.163100
O121	O12	0.709600	0.085300	0.158600
O131	O13	0.705300	0.414100	0.663100
O141	O14	0.585300	0.290400	0.658600
O151	O15	0.794700	0.085900	0.663100
O161	O16	0.914700	0.209600	0.658600
