data_IJISOK_charged_PM
_symmetry_space_group_name_H-M	'P1'
_cell_length_a	10.409000
_cell_length_b	11.154000
_cell_length_c	22.258000
_cell_angle_alpha	90.000000
_cell_angle_beta	90.000000
_cell_angle_gamma	90.000000
_symmetry_Int_Tables_number 1

loop_
_symmetry_equiv_pos_as_xyz
'x,y,z'

loop_
_atom_site_label
_atom_site_type_symbol
_atom_site_fract_x
_atom_site_fract_y
_atom_site_fract_z
Ag11	Ag1	0.153970	0.808580	0.302920
Ag21	Ag2	0.653970	0.191420	0.697080
Ag31	Ag3	0.153970	0.691420	0.802920
Ag41	Ag4	0.653970	0.308580	0.197080
H11	H1	0.338500	0.503200	0.308700
H21	H2	0.189100	0.452100	0.141500
H31	H3	0.556100	0.568100	0.159200
H41	H4	0.660100	0.690000	0.229300
H51	H5	0.712700	0.554700	0.227500
H61	H6	0.905300	0.707700	0.248700
H71	H7	0.661400	0.586400	0.375900
H81	H8	0.808200	0.651400	0.448800
H91	H9	0.001200	0.733200	0.419300
H101	H10	0.118500	0.510700	0.330400
H111	H11	0.171300	0.375400	0.333900
H121	H12	0.921000	0.393600	0.235300
H131	H13	0.983700	0.361300	0.411500
H141	H14	0.773900	0.289700	0.423600
H151	H15	0.642900	0.275100	0.339000
H161	H16	0.217000	0.559000	0.059600
H171	H17	0.269200	0.438000	0.028900
H181	H18	0.174000	0.563400	0.937400
H191	H19	0.511800	0.641900	0.015900
H201	H20	0.567300	0.748100	0.929800
H211	H21	0.422600	0.762800	0.851300
H221	H22	0.838500	0.496800	0.691300
H231	H23	0.689100	0.547900	0.858500
H241	H24	0.056100	0.431900	0.840800
H251	H25	0.160100	0.310000	0.770700
H261	H26	0.212700	0.445300	0.772500
H271	H27	0.405300	0.292300	0.751300
H281	H28	0.161400	0.413600	0.624100
H291	H29	0.308200	0.348600	0.551200
H301	H30	0.501200	0.266800	0.580700
H311	H31	0.618500	0.489300	0.669600
H321	H32	0.671300	0.624600	0.666100
H331	H33	0.421000	0.606400	0.764700
H341	H34	0.483700	0.638700	0.588500
H351	H35	0.273900	0.710300	0.576400
H361	H36	0.142900	0.724900	0.661000
H371	H37	0.717000	0.441000	0.940400
H381	H38	0.769200	0.562000	0.971100
H391	H39	0.674000	0.436600	0.062600
H401	H40	0.011800	0.358100	0.984100
H411	H41	0.067300	0.251900	0.070200
H421	H42	0.922600	0.237200	0.148700
H431	H43	0.338500	0.996800	0.808700
H441	H44	0.189100	0.047900	0.641500
H451	H45	0.556100	0.931900	0.659200
H461	H46	0.660100	0.810000	0.729300
H471	H47	0.712700	0.945300	0.727500
H481	H48	0.905300	0.792300	0.748700
H491	H49	0.661400	0.913600	0.875900
H501	H50	0.808200	0.848600	0.948800
H511	H51	0.001200	0.766800	0.919300
H521	H52	0.118500	0.989300	0.830400
H531	H53	0.171300	0.124600	0.833900
H541	H54	0.921000	0.106400	0.735300
H551	H55	0.983700	0.138700	0.911500
H561	H56	0.773900	0.210300	0.923600
H571	H57	0.642900	0.224900	0.839000
H581	H58	0.217000	0.941000	0.559600
H591	H59	0.269200	0.062000	0.528900
H601	H60	0.174000	0.936600	0.437400
H611	H61	0.511800	0.858100	0.515900
H621	H62	0.567300	0.751900	0.429800
H631	H63	0.422600	0.737200	0.351300
H641	H64	0.838500	0.003200	0.191300
H651	H65	0.689100	0.952100	0.358500
H661	H66	0.056100	0.068100	0.340800
H671	H67	0.160100	0.190000	0.270700
H681	H68	0.212700	0.054700	0.272500
H691	H69	0.405300	0.207700	0.251300
H701	H70	0.161400	0.086400	0.124100
H711	H71	0.308200	0.151400	0.051200
H721	H72	0.501200	0.233200	0.080700
H731	H73	0.618500	0.010700	0.169600
H741	H74	0.671300	0.875400	0.166100
H751	H75	0.421000	0.893600	0.264700
H761	H76	0.483700	0.861300	0.088500
H771	H77	0.273900	0.789700	0.076400
H781	H78	0.142900	0.775100	0.161000
H791	H79	0.717000	0.059000	0.440400
H801	H80	0.769200	0.938000	0.471100
H811	H81	0.674000	0.063400	0.562600
H821	H82	0.011800	0.141900	0.484100
H831	H83	0.067300	0.248100	0.570200
H841	H84	0.922600	0.262800	0.648700
C11	C1	0.464400	0.541900	0.239100
C21	C2	0.347400	0.504700	0.266200
C31	C3	0.248900	0.471300	0.230100
C41	C4	0.258700	0.475100	0.166600
C51	C5	0.374400	0.513800	0.142800
C61	C6	0.477200	0.544800	0.177230
C71	C7	0.675400	0.617200	0.253800
C81	C8	0.884900	0.695600	0.289830
C91	C9	0.766500	0.645400	0.304300
C101	C10	0.739200	0.624700	0.364400
C111	C11	0.826900	0.660800	0.407300
C121	C12	0.940900	0.710200	0.389400
C131	C13	0.109500	0.429000	0.313470
C141	C14	0.891200	0.371800	0.274200
C151	C15	0.974800	0.384100	0.321800
C161	C16	0.929200	0.353500	0.377500
C171	C17	0.805300	0.311500	0.385100
C181	C18	0.728700	0.302600	0.334400
C191	C19	0.292700	0.520700	0.040640
C201	C20	0.255000	0.602500	0.936500
C211	C21	0.334200	0.590600	0.986930
C221	C22	0.453200	0.647000	0.983300
C231	C23	0.485900	0.710100	0.932600
C241	C24	0.399500	0.717800	0.885900
C251	C25	0.964400	0.458100	0.760900
C261	C26	0.847400	0.495300	0.733800
C271	C27	0.748900	0.528700	0.769900
C281	C28	0.758700	0.524900	0.833400
C291	C29	0.874400	0.486200	0.857200
C301	C30	0.977200	0.455200	0.822770
C311	C31	0.175400	0.382800	0.746200
C321	C32	0.384900	0.304400	0.710170
C331	C33	0.266500	0.354600	0.695700
C341	C34	0.239200	0.375300	0.635600
C351	C35	0.326900	0.339200	0.592700
C361	C36	0.440900	0.289800	0.610600
C371	C37	0.609500	0.571000	0.686530
C381	C38	0.391200	0.628200	0.725800
C391	C39	0.474800	0.615900	0.678200
C401	C40	0.429200	0.646500	0.622500
C411	C41	0.305300	0.688500	0.614900
C421	C42	0.228700	0.697400	0.665600
C431	C43	0.792700	0.479300	0.959360
C441	C44	0.755000	0.397500	0.063500
C451	C45	0.834200	0.409400	0.013070
C461	C46	0.953200	0.353000	0.016700
C471	C47	0.985900	0.289900	0.067400
C481	C48	0.899500	0.282200	0.114100
C491	C49	0.464400	0.958100	0.739100
C501	C50	0.347400	0.995300	0.766200
C511	C51	0.248900	0.028700	0.730100
C521	C52	0.258700	0.024900	0.666600
C531	C53	0.374400	0.986200	0.642800
C541	C54	0.477200	0.955200	0.677230
C551	C55	0.675400	0.882800	0.753800
C561	C56	0.884900	0.804400	0.789830
C571	C57	0.766500	0.854600	0.804300
C581	C58	0.739200	0.875300	0.864400
C591	C59	0.826900	0.839200	0.907300
C601	C60	0.940900	0.789800	0.889400
C611	C61	0.109500	0.071000	0.813470
C621	C62	0.891200	0.128200	0.774200
C631	C63	0.974800	0.115900	0.821800
C641	C64	0.929200	0.146500	0.877500
C651	C65	0.805300	0.188500	0.885100
C661	C66	0.728700	0.197400	0.834400
C671	C67	0.292700	0.979300	0.540640
C681	C68	0.255000	0.897500	0.436500
C691	C69	0.334200	0.909400	0.486930
C701	C70	0.453200	0.853000	0.483300
C711	C71	0.485900	0.789900	0.432600
C721	C72	0.399500	0.782200	0.385900
C731	C73	0.964400	0.041900	0.260900
C741	C74	0.847400	0.004700	0.233800
C751	C75	0.748900	0.971300	0.269900
C761	C76	0.758700	0.975100	0.333400
C771	C77	0.874400	0.013800	0.357200
C781	C78	0.977200	0.044800	0.322770
C791	C79	0.175400	0.117200	0.246200
C801	C80	0.384900	0.195600	0.210170
C811	C81	0.266500	0.145400	0.195700
C821	C82	0.239200	0.124700	0.135600
C831	C83	0.326900	0.160800	0.092700
C841	C84	0.440900	0.210200	0.110600
C851	C85	0.609500	0.929000	0.186530
C861	C86	0.391200	0.871800	0.225800
C871	C87	0.474800	0.884100	0.178200
C881	C88	0.429200	0.853500	0.122500
C891	C89	0.305300	0.811500	0.114900
C901	C90	0.228700	0.802600	0.165600
C911	C91	0.792700	0.020700	0.459360
C921	C92	0.755000	0.102500	0.563500
C931	C93	0.834200	0.090600	0.513070
C941	C94	0.953200	0.147000	0.516700
C951	C95	0.985900	0.210100	0.567400
C961	C96	0.899500	0.217800	0.614100
N11	N1	0.971100	0.727700	0.331290
N21	N2	0.770300	0.331000	0.279160
N31	N3	0.284400	0.664500	0.887170
N41	N4	0.471100	0.272300	0.668710
N51	N5	0.270300	0.669000	0.720840
N61	N6	0.784400	0.335500	0.112830
N71	N7	0.971100	0.772300	0.831290
N81	N8	0.770300	0.169000	0.779160
N91	N9	0.284400	0.835500	0.387170
N101	N10	0.471100	0.227700	0.168710
N111	N11	0.270300	0.831000	0.220840
N121	N12	0.784400	0.164500	0.612830
O11	O1	0.558400	0.576200	0.278480
O21	O2	0.133000	0.430500	0.249880
O31	O3	0.397100	0.519200	0.080970
O41	O4	0.058400	0.423800	0.721520
O51	O5	0.633000	0.569500	0.750120
O61	O6	0.897100	0.480800	0.919030
O71	O7	0.558400	0.923800	0.778480
O81	O8	0.133000	0.069500	0.749880
O91	O9	0.397100	0.980800	0.580970
O101	O10	0.058400	0.076200	0.221520
O111	O11	0.633000	0.930500	0.250120
O121	O12	0.897100	0.019200	0.419030
Cl11	Cl1	0.387260	0.215600	0.409200
O131	O13	0.409900	0.332400	0.388700
O141	O14	0.414500	0.133500	0.363100
O151	O15	0.259100	0.203100	0.428900
O161	O16	0.469800	0.190200	0.455700
Cl21	Cl2	0.887260	0.784400	0.590800
O171	O17	0.909900	0.667600	0.611300
O181	O18	0.914500	0.866500	0.636900
O191	O19	0.759100	0.796900	0.571100
O201	O20	0.969800	0.809800	0.544300
Cl31	Cl3	0.387260	0.284400	0.909200
O211	O21	0.409900	0.167600	0.888700
O221	O22	0.414500	0.366500	0.863100
O231	O23	0.259100	0.296900	0.928900
O241	O24	0.469800	0.309800	0.955700
Cl41	Cl4	0.887260	0.715600	0.090800
O251	O25	0.909900	0.832400	0.111300
O261	O26	0.914500	0.633500	0.136900
O271	O27	0.759100	0.703100	0.071100
O281	O28	0.969800	0.690200	0.044300
