data_IKETAU_freeONLY_PM
_symmetry_space_group_name_H-M	'P1'
_cell_length_a	6.164500
_cell_length_b	10.074000
_cell_length_c	13.503000
_cell_angle_alpha	68.951000
_cell_angle_beta	80.872000
_cell_angle_gamma	76.667000
_symmetry_Int_Tables_number 1

loop_
_symmetry_equiv_pos_as_xyz
'x,y,z'

loop_
_atom_site_label
_atom_site_type_symbol
_atom_site_fract_x
_atom_site_fract_y
_atom_site_fract_z
Nd11	Nd1	0.828780	0.615410	0.196660
Nd21	Nd2	0.171220	0.384590	0.803350
H11	H1	0.323900	0.046900	0.026800
H21	H2	0.701600	0.327100	0.629300
H31	H3	0.711200	0.858200	0.281500
H41	H4	0.869900	0.781400	0.345100
H51	H5	0.452400	0.485300	0.211700
H61	H6	0.562100	0.363200	0.271300
H71	H7	0.676100	0.953100	0.973200
H81	H8	0.298400	0.672900	0.370700
H91	H9	0.288800	0.141800	0.718500
H101	H10	0.130100	0.218600	0.654900
H111	H11	0.547600	0.514700	0.788300
H121	H12	0.437900	0.636800	0.728700
C11	C1	0.283800	0.769500	0.140500
C21	C2	0.133600	0.895000	0.068200
C31	C3	0.190600	0.029400	0.014500
C41	C4	0.946900	0.384200	0.440900
C51	C5	0.710200	0.445100	0.473000
C61	C6	0.616400	0.398800	0.577500
C71	C7	0.087300	0.440300	0.033800
C81	C8	0.716200	0.230500	0.859500
C91	C9	0.866400	0.105000	0.931800
C101	C10	0.809400	0.970600	0.985500
C111	C11	0.053100	0.615800	0.559100
C121	C12	0.289800	0.554900	0.527000
C131	C13	0.383600	0.601200	0.422500
C141	C14	0.912700	0.559700	0.966200
N11	N1	0.940200	0.865900	0.054400
N21	N2	0.592400	0.545700	0.394600
N31	N3	0.059800	0.134100	0.945600
N41	N4	0.407600	0.454300	0.605400
O11	O1	0.212100	0.654300	0.184600
O21	O2	0.473800	0.787600	0.149600
O31	O3	0.011800	0.430900	0.343800
O41	O4	0.064700	0.292500	0.511400
O51	O5	0.082900	0.430800	0.128900
O61	O6	0.220600	0.363100	0.987800
O71	O7	0.820900	0.793200	0.285800
O81	O8	0.584200	0.436300	0.219700
O91	O9	0.787900	0.345700	0.815400
O101	O10	0.526200	0.212400	0.850400
O111	O11	0.988200	0.569100	0.656200
O121	O12	0.935300	0.707500	0.488600
O131	O13	0.917100	0.569200	0.871100
O141	O14	0.779400	0.636900	0.012200
O151	O15	0.179100	0.206800	0.714200
O161	O16	0.415800	0.563700	0.780300
