data_IKETOH_manual_PM
_symmetry_space_group_name_H-M	'P1'
_cell_length_a	18.623800
_cell_length_b	18.623800
_cell_length_c	18.623800
_cell_angle_alpha	60.000000
_cell_angle_beta	60.000000
_cell_angle_gamma	60.000000
_symmetry_Int_Tables_number 1

loop_
_symmetry_equiv_pos_as_xyz
'x,y,z'

loop_
_atom_site_label
_atom_site_type_symbol
_atom_site_fract_x
_atom_site_fract_y
_atom_site_fract_z
Cu11	Cu1	0.500000	0.070210	0.500000
Cu21	Cu2	0.070210	0.500000	0.929790
Cu31	Cu3	0.500000	0.929790	0.500000
Cu41	Cu4	0.929790	0.500000	0.070210
Cu51	Cu5	0.500000	0.500000	0.929790
Cu61	Cu6	0.070210	0.929790	0.500000
Cu71	Cu7	0.500000	0.500000	0.070210
Cu81	Cu8	0.929790	0.070210	0.500000
Cu91	Cu9	0.500000	0.929790	0.070210
Cu101	Cu10	0.070210	0.500000	0.500000
Cu111	Cu11	0.500000	0.070210	0.929790
Cu121	Cu12	0.929790	0.500000	0.500000
C11	C1	0.533700	0.199500	0.199500
C21	C2	0.199500	0.533700	0.067300
C31	C3	0.199500	0.067300	0.533700
C41	C4	0.067300	0.199500	0.199500
C51	C5	0.533700	0.199500	0.067300
C61	C6	0.199500	0.067300	0.199500
C71	C7	0.199500	0.533700	0.199500
C81	C8	0.067300	0.199500	0.533700
C91	C9	0.533700	0.067300	0.199500
C101	C10	0.199500	0.199500	0.533700
C111	C11	0.199500	0.199500	0.067300
C121	C12	0.067300	0.533700	0.199500
C131	C13	0.800500	0.466300	0.800500
C141	C14	0.466300	0.800500	0.932700
C151	C15	0.932700	0.800500	0.466300
C161	C16	0.800500	0.932700	0.800500
C171	C17	0.800500	0.466300	0.932700
C181	C18	0.932700	0.800500	0.800500
C191	C19	0.466300	0.800500	0.800500
C201	C20	0.800500	0.932700	0.466300
C211	C21	0.932700	0.466300	0.800500
C221	C22	0.800500	0.800500	0.466300
C231	C23	0.800500	0.800500	0.932700
C241	C24	0.466300	0.932700	0.800500
C251	C25	0.524900	0.068900	0.337300
C261	C26	0.533000	0.112400	0.242200
C271	C27	0.068900	0.524900	0.068900
C281	C28	0.112400	0.533000	0.112400
C291	C29	0.337300	0.068900	0.524900
C301	C30	0.242200	0.112400	0.533000
C311	C31	0.068900	0.337300	0.068900
C321	C32	0.112400	0.242200	0.112400
C331	C33	0.524900	0.337300	0.068900
C341	C34	0.533000	0.242200	0.112400
C351	C35	0.068900	0.068900	0.337300
C361	C36	0.112400	0.112400	0.242200
C371	C37	0.337300	0.524900	0.068900
C381	C38	0.242200	0.533000	0.112400
C391	C39	0.068900	0.068900	0.524900
C401	C40	0.112400	0.112400	0.533000
C411	C41	0.524900	0.068900	0.068900
C421	C42	0.533000	0.112400	0.112400
C431	C43	0.068900	0.337300	0.524900
C441	C44	0.112400	0.242200	0.533000
C451	C45	0.337300	0.068900	0.068900
C461	C46	0.242200	0.112400	0.112400
C471	C47	0.068900	0.524900	0.337300
C481	C48	0.112400	0.533000	0.242200
C491	C49	0.931100	0.475100	0.662700
C501	C50	0.887600	0.467000	0.757800
C511	C51	0.475100	0.931100	0.931100
C521	C52	0.467000	0.887600	0.887600
C531	C53	0.931100	0.662700	0.475100
C541	C54	0.887600	0.757800	0.467000
C551	C55	0.662700	0.931100	0.931100
C561	C56	0.757800	0.887600	0.887600
C571	C57	0.662700	0.475100	0.931100
C581	C58	0.757800	0.467000	0.887600
C591	C59	0.931100	0.931100	0.662700
C601	C60	0.887600	0.887600	0.757800
C611	C61	0.475100	0.662700	0.931100
C621	C62	0.467000	0.757800	0.887600
C631	C63	0.931100	0.931100	0.475100
C641	C64	0.887600	0.887600	0.467000
C651	C65	0.931100	0.475100	0.931100
C661	C66	0.887600	0.467000	0.887600
C671	C67	0.662700	0.931100	0.475100
C681	C68	0.757800	0.887600	0.467000
C691	C69	0.931100	0.662700	0.931100
C701	C70	0.887600	0.757800	0.887600
C711	C71	0.475100	0.931100	0.662700
C721	C72	0.467000	0.887600	0.757800
O11	O1	0.521200	0.112800	0.374000
O21	O2	0.112800	0.521200	0.992000
O31	O3	0.374000	0.992000	0.521200
O41	O4	0.992000	0.374000	0.112800
O51	O5	0.521200	0.374000	0.992000
O61	O6	0.112800	0.992000	0.374000
O71	O7	0.374000	0.521200	0.112800
O81	O8	0.992000	0.112800	0.521200
O91	O9	0.521200	0.992000	0.112800
O101	O10	0.112800	0.374000	0.521200
O111	O11	0.374000	0.112800	0.992000
O121	O12	0.992000	0.521200	0.374000
O131	O13	0.887200	0.478800	0.626000
O141	O14	0.478800	0.887200	0.008000
O151	O15	0.008000	0.626000	0.478800
O161	O16	0.626000	0.008000	0.887200
O171	O17	0.626000	0.478800	0.008000
O181	O18	0.008000	0.887200	0.626000
O191	O19	0.478800	0.626000	0.887200
O201	O20	0.887200	0.008000	0.478800
O211	O21	0.008000	0.478800	0.887200
O221	O22	0.626000	0.887200	0.478800
O231	O23	0.887200	0.626000	0.008000
O241	O24	0.478800	0.008000	0.626000
O251	O25	0.478800	0.887200	0.626000
O261	O26	0.887200	0.478800	0.008000
O271	O27	0.626000	0.008000	0.478800
O281	O28	0.008000	0.626000	0.887200
O291	O29	0.478800	0.626000	0.008000
O301	O30	0.887200	0.008000	0.626000
O311	O31	0.626000	0.478800	0.887200
O321	O32	0.008000	0.887200	0.478800
O331	O33	0.478800	0.008000	0.887200
O341	O34	0.887200	0.626000	0.478800
O351	O35	0.626000	0.887200	0.008000
O361	O36	0.008000	0.478800	0.626000
O371	O37	0.112800	0.521200	0.374000
O381	O38	0.521200	0.112800	0.992000
O391	O39	0.992000	0.374000	0.521200
O401	O40	0.374000	0.992000	0.112800
O411	O41	0.374000	0.521200	0.992000
O421	O42	0.992000	0.112800	0.374000
O431	O43	0.521200	0.374000	0.112800
O441	O44	0.112800	0.992000	0.521200
O451	O45	0.992000	0.521200	0.112800
O461	O46	0.374000	0.112800	0.521200
O471	O47	0.112800	0.374000	0.992000
O481	O48	0.521200	0.992000	0.374000
H11	H1	0.534800	0.233490	0.235440
H21	H2	0.233490	0.534800	0.996270
H31	H3	0.235440	0.996270	0.534800
H41	H4	0.996270	0.235440	0.233490
H51	H5	0.534800	0.235440	0.996270
H61	H6	0.233490	0.996270	0.235440
H71	H7	0.235440	0.534800	0.233490
H81	H8	0.996270	0.233490	0.534800
H91	H9	0.534800	0.996270	0.235440
H101	H10	0.235440	0.233490	0.534800
H111	H11	0.233490	0.235440	0.996270
H121	H12	0.996270	0.534800	0.233490
H131	H13	0.766510	0.465200	0.764560
H141	H14	0.465200	0.766510	0.003730
H151	H15	0.003730	0.764560	0.465200
H161	H16	0.764560	0.003730	0.766510
H171	H17	0.764560	0.465200	0.003730
H181	H18	0.003730	0.766510	0.764560
H191	H19	0.465200	0.764560	0.766510
H201	H20	0.766510	0.003730	0.465200
H211	H21	0.003730	0.465200	0.764560
H221	H22	0.766510	0.764560	0.465200
H231	H23	0.764560	0.766510	0.003730
H241	H24	0.465200	0.003730	0.766510
