data_IKUBUL01_freeONLY_PM
_symmetry_space_group_name_H-M	'P1'
_cell_length_a	8.762700
_cell_length_b	13.811700
_cell_length_c	16.618700
_cell_angle_alpha	90.000000
_cell_angle_beta	92.680000
_cell_angle_gamma	90.000000
_symmetry_Int_Tables_number 1

loop_
_symmetry_equiv_pos_as_xyz
'x,y,z'

loop_
_atom_site_label
_atom_site_type_symbol
_atom_site_fract_x
_atom_site_fract_y
_atom_site_fract_z
Zn11	Zn1	0.437290	0.399100	0.075220
Zn21	Zn2	0.548370	0.109930	0.077480
Zn31	Zn3	0.521210	0.249360	0.749270
P11	P1	0.515000	0.383280	0.894730
H11	H1	0.611400	0.314600	0.918900
P21	P2	0.509800	0.106730	0.889550
H21	H2	0.401600	0.170400	0.903000
P31	P3	0.755200	0.286580	0.120360
H31	H3	0.827100	0.269800	0.053700
P41	P4	0.234800	0.225130	0.113890
H41	H4	0.120800	0.241400	0.060900
O11	O1	0.401900	0.396300	0.960100
O21	O2	0.432000	0.347900	0.817800
O31	O3	0.608700	0.473900	0.879300
O41	O4	0.603300	0.147200	0.821600
O51	O5	0.607500	0.097300	0.966700
O61	O6	0.430500	0.012100	0.864300
O71	O7	0.682100	0.191800	0.143700
O81	O8	0.646800	0.370600	0.102200
O91	O9	0.875500	0.320400	0.183100
O101	O10	0.299800	0.323200	0.137100
O111	O11	0.164400	0.177500	0.187200
O121	O12	0.342800	0.155800	0.073800
Zn41	Zn4	0.062710	0.899100	0.424780
Zn51	Zn5	0.951630	0.609930	0.422520
Zn61	Zn6	0.978790	0.749360	0.750730
P51	P5	0.985000	0.883280	0.605270
H51	H5	0.888600	0.814600	0.581100
P61	P6	0.990200	0.606730	0.610450
H61	H6	0.098400	0.670400	0.597000
P71	P7	0.744800	0.786580	0.379640
H71	H7	0.672900	0.769800	0.446300
P81	P8	0.265200	0.725130	0.386110
H81	H8	0.379200	0.741400	0.439100
O131	O13	0.098100	0.896300	0.539900
O141	O14	0.068000	0.847900	0.682200
O151	O15	0.891300	0.973900	0.620700
O161	O16	0.896700	0.647200	0.678400
O171	O17	0.892500	0.597300	0.533300
O181	O18	0.069500	0.512100	0.635700
O191	O19	0.817900	0.691800	0.356300
O201	O20	0.853200	0.870600	0.397800
O211	O21	0.624500	0.820400	0.316900
O221	O22	0.200200	0.823200	0.362900
O231	O23	0.335600	0.677500	0.312800
O241	O24	0.157200	0.655800	0.426200
Zn71	Zn7	0.562710	0.600900	0.924780
Zn81	Zn8	0.451630	0.890070	0.922520
Zn91	Zn9	0.478790	0.750640	0.250730
P91	P9	0.485000	0.616720	0.105270
H91	H9	0.388600	0.685400	0.081100
P101	P10	0.490200	0.893270	0.110450
H101	H10	0.598400	0.829600	0.097000
P111	P11	0.244800	0.713420	0.879640
H111	H11	0.172900	0.730200	0.946300
P121	P12	0.765200	0.774870	0.886110
H121	H12	0.879200	0.758600	0.939100
O251	O25	0.598100	0.603700	0.039900
O261	O26	0.568000	0.652100	0.182200
O271	O27	0.391300	0.526100	0.120700
O281	O28	0.396700	0.852800	0.178400
O291	O29	0.392500	0.902700	0.033300
O301	O30	0.569500	0.987900	0.135700
O311	O31	0.317900	0.808200	0.856300
O321	O32	0.353200	0.629400	0.897800
O331	O33	0.124500	0.679600	0.816900
O341	O34	0.700200	0.676800	0.862900
O351	O35	0.835600	0.822500	0.812800
O361	O36	0.657200	0.844200	0.926200
Zn101	Zn10	0.937290	0.100900	0.575220
Zn111	Zn11	0.048370	0.390070	0.577480
Zn121	Zn12	0.021210	0.250640	0.249270
P131	P13	0.015000	0.116720	0.394730
H131	H13	0.111400	0.185400	0.418900
P141	P14	0.009800	0.393270	0.389550
H141	H14	0.901600	0.329600	0.403000
P151	P15	0.255200	0.213420	0.620360
H151	H15	0.327100	0.230200	0.553700
P161	P16	0.734800	0.274870	0.613890
H161	H16	0.620800	0.258600	0.560900
O371	O37	0.901900	0.103700	0.460100
O381	O38	0.932000	0.152100	0.317800
O391	O39	0.108700	0.026100	0.379300
O401	O40	0.103300	0.352800	0.321600
O411	O41	0.107500	0.402700	0.466700
O421	O42	0.930500	0.487900	0.364300
O431	O43	0.182100	0.308200	0.643700
O441	O44	0.146800	0.129400	0.602200
O451	O45	0.375500	0.179600	0.683100
O461	O46	0.799800	0.176800	0.637100
O471	O47	0.664400	0.322500	0.687200
O481	O48	0.842800	0.344200	0.573800
