data_ILAXEA_freeONLY_PM
_symmetry_space_group_name_H-M	'P1'
_cell_length_a	14.084500
_cell_length_b	14.084500
_cell_length_c	44.203600
_cell_angle_alpha	90.000000
_cell_angle_beta	90.000000
_cell_angle_gamma	90.000000
_symmetry_Int_Tables_number 1

loop_
_symmetry_equiv_pos_as_xyz
'x,y,z'

loop_
_atom_site_label
_atom_site_type_symbol
_atom_site_fract_x
_atom_site_fract_y
_atom_site_fract_z
N11	N1	0.617890	0.404500	0.242490
N21	N2	0.698810	0.372950	0.229020
N31	N3	0.571020	0.321720	0.204100
N41	N4	0.631840	0.619520	0.349500
N51	N5	0.712710	0.647070	0.364140
N61	N6	0.582620	0.690030	0.390030
C11	C1	0.666840	0.324150	0.205960
H11	H1	0.706400	0.293900	0.192100
C21	C2	0.542730	0.373010	0.227470
H21	H2	0.479800	0.385100	0.232600
C31	C3	0.622150	0.460670	0.269650
C41	C4	0.624500	0.559670	0.267040
C51	C5	0.620990	0.608430	0.238810
H31	H3	0.617800	0.574000	0.220900
C61	C6	0.622300	0.704830	0.237900
H41	H4	0.619800	0.735800	0.219300
C71	C7	0.627300	0.758950	0.265010
H51	H5	0.628000	0.824900	0.264000
C81	C8	0.631000	0.715600	0.292350
H61	H6	0.634500	0.751900	0.309900
C91	C9	0.629610	0.614480	0.294370
C101	C10	0.633180	0.565760	0.321780
C111	C11	0.633180	0.466940	0.324310
C121	C12	0.639440	0.418830	0.352560
H71	H7	0.646200	0.453700	0.370300
C131	C13	0.635600	0.322500	0.353850
H81	H8	0.640400	0.292000	0.372400
C141	C14	0.624300	0.268210	0.327150
H91	H9	0.619400	0.202500	0.328500
C151	C15	0.620530	0.311000	0.299660
H101	H10	0.614500	0.274200	0.282300
C161	C16	0.625790	0.412060	0.297170
C171	C17	0.679450	0.689180	0.388350
H111	H11	0.718300	0.716100	0.403100
C181	C18	0.555560	0.645210	0.365120
H121	H12	0.493000	0.633600	0.359500
N71	N7	0.117890	0.904500	0.742490
N81	N8	0.198810	0.872950	0.729020
N91	N9	0.071020	0.821720	0.704100
N101	N10	0.131840	0.119520	0.849500
N111	N11	0.212710	0.147070	0.864140
N121	N12	0.082620	0.190030	0.890030
C191	C19	0.166840	0.824150	0.705960
H131	H13	0.206400	0.793900	0.692100
C201	C20	0.042730	0.873010	0.727470
H141	H14	0.979800	0.885100	0.732600
C211	C21	0.122150	0.960670	0.769650
C221	C22	0.124500	0.059670	0.767040
C231	C23	0.120990	0.108430	0.738810
H151	H15	0.117800	0.074000	0.720900
C241	C24	0.122300	0.204830	0.737900
H161	H16	0.119800	0.235800	0.719300
C251	C25	0.127300	0.258950	0.765010
H171	H17	0.128000	0.324900	0.764000
C261	C26	0.131000	0.215600	0.792350
H181	H18	0.134500	0.251900	0.809900
C271	C27	0.129610	0.114480	0.794370
C281	C28	0.133180	0.065760	0.821780
C291	C29	0.133180	0.966940	0.824310
C301	C30	0.139440	0.918830	0.852560
H191	H19	0.146200	0.953700	0.870300
C311	C31	0.135600	0.822500	0.853850
H201	H20	0.140400	0.792000	0.872400
C321	C32	0.124300	0.768210	0.827150
H211	H21	0.119400	0.702500	0.828500
C331	C33	0.120530	0.811000	0.799660
H221	H22	0.114500	0.774200	0.782300
C341	C34	0.125790	0.912060	0.797170
C351	C35	0.179450	0.189180	0.888350
H231	H23	0.218300	0.216100	0.903100
C361	C36	0.055560	0.145210	0.865120
H241	H24	0.993000	0.133600	0.859500
N131	N13	0.882110	0.595500	0.742490
N141	N14	0.801190	0.627050	0.729020
N151	N15	0.928980	0.678280	0.704100
N161	N16	0.868160	0.380480	0.849500
N171	N17	0.787290	0.352930	0.864140
N181	N18	0.917380	0.309970	0.890030
C371	C37	0.833160	0.675850	0.705960
H251	H25	0.793600	0.706100	0.692100
C381	C38	0.957270	0.626990	0.727470
H261	H26	0.020200	0.614900	0.732600
C391	C39	0.877850	0.539330	0.769650
C401	C40	0.875500	0.440330	0.767040
C411	C41	0.879010	0.391570	0.738810
H271	H27	0.882200	0.426000	0.720900
C421	C42	0.877700	0.295170	0.737900
H281	H28	0.880200	0.264200	0.719300
C431	C43	0.872700	0.241050	0.765010
H291	H29	0.872000	0.175100	0.764000
C441	C44	0.869000	0.284400	0.792350
H301	H30	0.865500	0.248100	0.809900
C451	C45	0.870390	0.385520	0.794370
C461	C46	0.866820	0.434240	0.821780
C471	C47	0.866820	0.533060	0.824310
C481	C48	0.860560	0.581170	0.852560
H311	H31	0.853800	0.546300	0.870300
C491	C49	0.864400	0.677500	0.853850
H321	H32	0.859600	0.708000	0.872400
C501	C50	0.875700	0.731790	0.827150
H331	H33	0.880600	0.797500	0.828500
C511	C51	0.879470	0.689000	0.799660
H341	H34	0.885500	0.725800	0.782300
C521	C52	0.874210	0.587940	0.797170
C531	C53	0.820550	0.310820	0.888350
H351	H35	0.781700	0.283900	0.903100
C541	C54	0.944440	0.354790	0.865120
H361	H36	0.007000	0.366400	0.859500
N191	N19	0.382110	0.095500	0.242490
N201	N20	0.301190	0.127050	0.229020
N211	N21	0.428980	0.178280	0.204100
N221	N22	0.368160	0.880480	0.349500
N231	N23	0.287290	0.852930	0.364140
N241	N24	0.417380	0.809970	0.390030
C551	C55	0.333160	0.175850	0.205960
H371	H37	0.293600	0.206100	0.192100
C561	C56	0.457270	0.126990	0.227470
H381	H38	0.520200	0.114900	0.232600
C571	C57	0.377850	0.039330	0.269650
C581	C58	0.375500	0.940330	0.267040
C591	C59	0.379010	0.891570	0.238810
H391	H39	0.382200	0.926000	0.220900
C601	C60	0.377700	0.795170	0.237900
H401	H40	0.380200	0.764200	0.219300
C611	C61	0.372700	0.741050	0.265010
H411	H41	0.372000	0.675100	0.264000
C621	C62	0.369000	0.784400	0.292350
H421	H42	0.365500	0.748100	0.309900
C631	C63	0.370390	0.885520	0.294370
C641	C64	0.366820	0.934240	0.321780
C651	C65	0.366820	0.033060	0.324310
C661	C66	0.360560	0.081170	0.352560
H431	H43	0.353800	0.046300	0.370300
C671	C67	0.364400	0.177500	0.353850
H441	H44	0.359600	0.208000	0.372400
C681	C68	0.375700	0.231790	0.327150
H451	H45	0.380600	0.297500	0.328500
C691	C69	0.379470	0.189000	0.299660
H461	H46	0.385500	0.225800	0.282300
C701	C70	0.374210	0.087940	0.297170
C711	C71	0.320550	0.810820	0.388350
H471	H47	0.281700	0.783900	0.403100
C721	C72	0.444440	0.854790	0.365120
H481	H48	0.507000	0.866400	0.359500
N251	N25	0.345500	0.867890	0.492490
N261	N26	0.377050	0.948810	0.479020
N271	N27	0.428280	0.821020	0.454100
N281	N28	0.130480	0.881840	0.599500
N291	N29	0.102930	0.962710	0.614140
N301	N30	0.059970	0.832620	0.640030
C731	C73	0.425850	0.916840	0.455960
H491	H49	0.456100	0.956400	0.442100
C741	C74	0.376990	0.792730	0.477470
H501	H50	0.364900	0.729800	0.482600
C751	C75	0.289330	0.872150	0.519650
C761	C76	0.190330	0.874500	0.517040
C771	C77	0.141570	0.870990	0.488810
H511	H51	0.176000	0.867800	0.470900
C781	C78	0.045170	0.872300	0.487900
H521	H52	0.014200	0.869800	0.469300
C791	C79	0.991050	0.877300	0.515010
H531	H53	0.925100	0.878000	0.514000
C801	C80	0.034400	0.881000	0.542350
H541	H54	0.998100	0.884500	0.559900
C811	C81	0.135520	0.879610	0.544370
C821	C82	0.184240	0.883180	0.571780
C831	C83	0.283060	0.883180	0.574310
C841	C84	0.331170	0.889440	0.602560
H551	H55	0.296300	0.896200	0.620300
C851	C85	0.427500	0.885600	0.603850
H561	H56	0.458000	0.890400	0.622400
C861	C86	0.481790	0.874300	0.577150
H571	H57	0.547500	0.869400	0.578500
C871	C87	0.439000	0.870530	0.549660
H581	H58	0.475800	0.864500	0.532300
C881	C88	0.337940	0.875790	0.547170
C891	C89	0.060820	0.929450	0.638350
H591	H59	0.033900	0.968300	0.653100
C901	C90	0.104790	0.805560	0.615120
H601	H60	0.116400	0.743000	0.609500
N311	N31	0.845500	0.367890	0.992490
N321	N32	0.877050	0.448810	0.979020
N331	N33	0.928280	0.321020	0.954100
N341	N34	0.630480	0.381840	0.099500
N351	N35	0.602930	0.462710	0.114140
N361	N36	0.559970	0.332620	0.140030
C911	C91	0.925850	0.416840	0.955960
H611	H61	0.956100	0.456400	0.942100
C921	C92	0.876990	0.292730	0.977470
H621	H62	0.864900	0.229800	0.982600
C931	C93	0.789330	0.372150	0.019650
C941	C94	0.690330	0.374500	0.017040
C951	C95	0.641570	0.370990	0.988810
H631	H63	0.676000	0.367800	0.970900
C961	C96	0.545170	0.372300	0.987900
H641	H64	0.514200	0.369800	0.969300
C971	C97	0.491050	0.377300	0.015010
H651	H65	0.425100	0.378000	0.014000
C981	C98	0.534400	0.381000	0.042350
H661	H66	0.498100	0.384500	0.059900
C991	C99	0.635520	0.379610	0.044370
C1001	C100	0.684240	0.383180	0.071780
C1011	C101	0.783060	0.383180	0.074310
C1021	C102	0.831170	0.389440	0.102560
H671	H67	0.796300	0.396200	0.120300
C1031	C103	0.927500	0.385600	0.103850
H681	H68	0.958000	0.390400	0.122400
C1041	C104	0.981790	0.374300	0.077150
H691	H69	0.047500	0.369400	0.078500
C1051	C105	0.939000	0.370530	0.049660
H701	H70	0.975800	0.364500	0.032300
C1061	C106	0.837940	0.375790	0.047170
C1071	C107	0.560820	0.429450	0.138350
H711	H71	0.533900	0.468300	0.153100
C1081	C108	0.604790	0.305560	0.115120
H721	H72	0.616400	0.243000	0.109500
N371	N37	0.154500	0.132110	0.992490
N381	N38	0.122950	0.051190	0.979020
N391	N39	0.071720	0.178980	0.954100
N401	N40	0.369520	0.118160	0.099500
N411	N41	0.397070	0.037290	0.114140
N421	N42	0.440030	0.167380	0.140030
C1091	C109	0.074150	0.083160	0.955960
H731	H73	0.043900	0.043600	0.942100
C1101	C110	0.123010	0.207270	0.977470
H741	H74	0.135100	0.270200	0.982600
C1111	C111	0.210670	0.127850	0.019650
C1121	C112	0.309670	0.125500	0.017040
C1131	C113	0.358430	0.129010	0.988810
H751	H75	0.324000	0.132200	0.970900
C1141	C114	0.454830	0.127700	0.987900
H761	H76	0.485800	0.130200	0.969300
C1151	C115	0.508950	0.122700	0.015010
H771	H77	0.574900	0.122000	0.014000
C1161	C116	0.465600	0.119000	0.042350
H781	H78	0.501900	0.115500	0.059900
C1171	C117	0.364480	0.120390	0.044370
C1181	C118	0.315760	0.116820	0.071780
C1191	C119	0.216940	0.116820	0.074310
C1201	C120	0.168830	0.110560	0.102560
H791	H79	0.203700	0.103800	0.120300
C1211	C121	0.072500	0.114400	0.103850
H801	H80	0.042000	0.109600	0.122400
C1221	C122	0.018210	0.125700	0.077150
H811	H81	0.952500	0.130600	0.078500
C1231	C123	0.061000	0.129470	0.049660
H821	H82	0.024200	0.135500	0.032300
C1241	C124	0.162060	0.124210	0.047170
C1251	C125	0.439180	0.070550	0.138350
H831	H83	0.466100	0.031700	0.153100
C1261	C126	0.395210	0.194440	0.115120
H841	H84	0.383600	0.257000	0.109500
N431	N43	0.654500	0.632110	0.492490
N441	N44	0.622950	0.551190	0.479020
N451	N45	0.571720	0.678980	0.454100
N461	N46	0.869520	0.618160	0.599500
N471	N47	0.897070	0.537290	0.614140
N481	N48	0.940030	0.667380	0.640030
C1271	C127	0.574150	0.583160	0.455960
H851	H85	0.543900	0.543600	0.442100
C1281	C128	0.623010	0.707270	0.477470
H861	H86	0.635100	0.770200	0.482600
C1291	C129	0.710670	0.627850	0.519650
C1301	C130	0.809670	0.625500	0.517040
C1311	C131	0.858430	0.629010	0.488810
H871	H87	0.824000	0.632200	0.470900
C1321	C132	0.954830	0.627700	0.487900
H881	H88	0.985800	0.630200	0.469300
C1331	C133	0.008950	0.622700	0.515010
H891	H89	0.074900	0.622000	0.514000
C1341	C134	0.965600	0.619000	0.542350
H901	H90	0.001900	0.615500	0.559900
C1351	C135	0.864480	0.620390	0.544370
C1361	C136	0.815760	0.616820	0.571780
C1371	C137	0.716940	0.616820	0.574310
C1381	C138	0.668830	0.610560	0.602560
H911	H91	0.703700	0.603800	0.620300
C1391	C139	0.572500	0.614400	0.603850
H921	H92	0.542000	0.609600	0.622400
C1401	C140	0.518210	0.625700	0.577150
H931	H93	0.452500	0.630600	0.578500
C1411	C141	0.561000	0.629470	0.549660
H941	H94	0.524200	0.635500	0.532300
C1421	C142	0.662060	0.624210	0.547170
C1431	C143	0.939180	0.570550	0.638350
H951	H95	0.966100	0.531700	0.653100
C1441	C144	0.895210	0.694440	0.615120
H961	H96	0.883600	0.757000	0.609500
Cu11	Cu1	0.500000	0.250000	0.171910
Cu21	Cu2	0.000000	0.750000	0.671910
Cu31	Cu3	0.500000	0.750000	0.421910
Cu41	Cu4	0.000000	0.250000	0.921910
N491	N49	0.382110	0.595500	0.757510
N501	N50	0.301190	0.627050	0.770980
N511	N51	0.428980	0.678280	0.795900
N521	N52	0.368160	0.380480	0.650500
N531	N53	0.287290	0.352930	0.635860
N541	N54	0.417380	0.309970	0.609970
C1451	C145	0.333160	0.675850	0.794040
H971	H97	0.293600	0.706100	0.807900
C1461	C146	0.457270	0.626990	0.772530
H981	H98	0.520200	0.614900	0.767400
C1471	C147	0.377850	0.539330	0.730350
C1481	C148	0.375500	0.440330	0.732960
C1491	C149	0.379010	0.391570	0.761190
H991	H99	0.382200	0.426000	0.779100
C1501	C150	0.377700	0.295170	0.762100
H1001	H100	0.380200	0.264200	0.780700
C1511	C151	0.372700	0.241050	0.734990
H1011	H101	0.372000	0.175100	0.736000
C1521	C152	0.369000	0.284400	0.707650
H1021	H102	0.365500	0.248100	0.690100
C1531	C153	0.370390	0.385520	0.705630
C1541	C154	0.366820	0.434240	0.678220
C1551	C155	0.366820	0.533060	0.675690
C1561	C156	0.360560	0.581170	0.647440
H1031	H103	0.353800	0.546300	0.629700
C1571	C157	0.364400	0.677500	0.646150
H1041	H104	0.359600	0.708000	0.627600
C1581	C158	0.375700	0.731790	0.672850
H1051	H105	0.380600	0.797500	0.671500
C1591	C159	0.379470	0.689000	0.700340
H1061	H106	0.385500	0.725800	0.717700
C1601	C160	0.374210	0.587940	0.702830
C1611	C161	0.320550	0.310820	0.611650
H1071	H107	0.281700	0.283900	0.596900
C1621	C162	0.444440	0.354790	0.634880
H1081	H108	0.507000	0.366400	0.640500
N551	N55	0.882110	0.095500	0.257510
N561	N56	0.801190	0.127050	0.270980
N571	N57	0.928980	0.178280	0.295900
N581	N58	0.868160	0.880480	0.150500
N591	N59	0.787290	0.852930	0.135860
N601	N60	0.917380	0.809970	0.109970
C1631	C163	0.833160	0.175850	0.294040
H1091	H109	0.793600	0.206100	0.307900
C1641	C164	0.957270	0.126990	0.272530
H1101	H110	0.020200	0.114900	0.267400
C1651	C165	0.877850	0.039330	0.230350
C1661	C166	0.875500	0.940330	0.232960
C1671	C167	0.879010	0.891570	0.261190
H1111	H111	0.882200	0.926000	0.279100
C1681	C168	0.877700	0.795170	0.262100
H1121	H112	0.880200	0.764200	0.280700
C1691	C169	0.872700	0.741050	0.234990
H1131	H113	0.872000	0.675100	0.236000
C1701	C170	0.869000	0.784400	0.207650
H1141	H114	0.865500	0.748100	0.190100
C1711	C171	0.870390	0.885520	0.205630
C1721	C172	0.866820	0.934240	0.178220
C1731	C173	0.866820	0.033060	0.175690
C1741	C174	0.860560	0.081170	0.147440
H1151	H115	0.853800	0.046300	0.129700
C1751	C175	0.864400	0.177500	0.146150
H1161	H116	0.859600	0.208000	0.127600
C1761	C176	0.875700	0.231790	0.172850
H1171	H117	0.880600	0.297500	0.171500
C1771	C177	0.879470	0.189000	0.200340
H1181	H118	0.885500	0.225800	0.217700
C1781	C178	0.874210	0.087940	0.202830
C1791	C179	0.820550	0.810820	0.111650
H1191	H119	0.781700	0.783900	0.096900
C1801	C180	0.944440	0.854790	0.134880
H1201	H120	0.007000	0.866400	0.140500
N611	N61	0.117890	0.404500	0.257510
N621	N62	0.198810	0.372950	0.270980
N631	N63	0.071020	0.321720	0.295900
N641	N64	0.131840	0.619520	0.150500
N651	N65	0.212710	0.647070	0.135860
N661	N66	0.082620	0.690030	0.109970
C1811	C181	0.166840	0.324150	0.294040
H1211	H121	0.206400	0.293900	0.307900
C1821	C182	0.042730	0.373010	0.272530
H1221	H122	0.979800	0.385100	0.267400
C1831	C183	0.122150	0.460670	0.230350
C1841	C184	0.124500	0.559670	0.232960
C1851	C185	0.120990	0.608430	0.261190
H1231	H123	0.117800	0.574000	0.279100
C1861	C186	0.122300	0.704830	0.262100
H1241	H124	0.119800	0.735800	0.280700
C1871	C187	0.127300	0.758950	0.234990
H1251	H125	0.128000	0.824900	0.236000
C1881	C188	0.131000	0.715600	0.207650
H1261	H126	0.134500	0.751900	0.190100
C1891	C189	0.129610	0.614480	0.205630
C1901	C190	0.133180	0.565760	0.178220
C1911	C191	0.133180	0.466940	0.175690
C1921	C192	0.139440	0.418830	0.147440
H1271	H127	0.146200	0.453700	0.129700
C1931	C193	0.135600	0.322500	0.146150
H1281	H128	0.140400	0.292000	0.127600
C1941	C194	0.124300	0.268210	0.172850
H1291	H129	0.119400	0.202500	0.171500
C1951	C195	0.120530	0.311000	0.200340
H1301	H130	0.114500	0.274200	0.217700
C1961	C196	0.125790	0.412060	0.202830
C1971	C197	0.179450	0.689180	0.111650
H1311	H131	0.218300	0.716100	0.096900
C1981	C198	0.055560	0.645210	0.134880
H1321	H132	0.993000	0.633600	0.140500
N671	N67	0.617890	0.904500	0.757510
N681	N68	0.698810	0.872950	0.770980
N691	N69	0.571020	0.821720	0.795900
N701	N70	0.631840	0.119520	0.650500
N711	N71	0.712710	0.147070	0.635860
N721	N72	0.582620	0.190030	0.609970
C1991	C199	0.666840	0.824150	0.794040
H1331	H133	0.706400	0.793900	0.807900
C2001	C200	0.542730	0.873010	0.772530
H1341	H134	0.479800	0.885100	0.767400
C2011	C201	0.622150	0.960670	0.730350
C2021	C202	0.624500	0.059670	0.732960
C2031	C203	0.620990	0.108430	0.761190
H1351	H135	0.617800	0.074000	0.779100
C2041	C204	0.622300	0.204830	0.762100
H1361	H136	0.619800	0.235800	0.780700
C2051	C205	0.627300	0.258950	0.734990
H1371	H137	0.628000	0.324900	0.736000
C2061	C206	0.631000	0.215600	0.707650
H1381	H138	0.634500	0.251900	0.690100
C2071	C207	0.629610	0.114480	0.705630
C2081	C208	0.633180	0.065760	0.678220
C2091	C209	0.633180	0.966940	0.675690
C2101	C210	0.639440	0.918830	0.647440
H1391	H139	0.646200	0.953700	0.629700
C2111	C211	0.635600	0.822500	0.646150
H1401	H140	0.640400	0.792000	0.627600
C2121	C212	0.624300	0.768210	0.672850
H1411	H141	0.619400	0.702500	0.671500
C2131	C213	0.620530	0.811000	0.700340
H1421	H142	0.614500	0.774200	0.717700
C2141	C214	0.625790	0.912060	0.702830
C2151	C215	0.679450	0.189180	0.611650
H1431	H143	0.718300	0.216100	0.596900
C2161	C216	0.555560	0.145210	0.634880
H1441	H144	0.493000	0.133600	0.640500
N731	N73	0.654500	0.132110	0.507510
N741	N74	0.622950	0.051190	0.520980
N751	N75	0.571720	0.178980	0.545900
N761	N76	0.869520	0.118160	0.400500
N771	N77	0.897070	0.037290	0.385860
N781	N78	0.940030	0.167380	0.359970
C2171	C217	0.574150	0.083160	0.544040
H1451	H145	0.543900	0.043600	0.557900
C2181	C218	0.623010	0.207270	0.522530
H1461	H146	0.635100	0.270200	0.517400
C2191	C219	0.710670	0.127850	0.480350
C2201	C220	0.809670	0.125500	0.482960
C2211	C221	0.858430	0.129010	0.511190
H1471	H147	0.824000	0.132200	0.529100
C2221	C222	0.954830	0.127700	0.512100
H1481	H148	0.985800	0.130200	0.530700
C2231	C223	0.008950	0.122700	0.484990
H1491	H149	0.074900	0.122000	0.486000
C2241	C224	0.965600	0.119000	0.457650
H1501	H150	0.001900	0.115500	0.440100
C2251	C225	0.864480	0.120390	0.455630
C2261	C226	0.815760	0.116820	0.428220
C2271	C227	0.716940	0.116820	0.425690
C2281	C228	0.668830	0.110560	0.397440
H1511	H151	0.703700	0.103800	0.379700
C2291	C229	0.572500	0.114400	0.396150
H1521	H152	0.542000	0.109600	0.377600
C2301	C230	0.518210	0.125700	0.422850
H1531	H153	0.452500	0.130600	0.421500
C2311	C231	0.561000	0.129470	0.450340
H1541	H154	0.524200	0.135500	0.467700
C2321	C232	0.662060	0.124210	0.452830
C2331	C233	0.939180	0.070550	0.361650
H1551	H155	0.966100	0.031700	0.346900
C2341	C234	0.895210	0.194440	0.384880
H1561	H156	0.883600	0.257000	0.390500
N791	N79	0.154500	0.632110	0.007510
N801	N80	0.122950	0.551190	0.020980
N811	N81	0.071720	0.678980	0.045900
N821	N82	0.369520	0.618160	0.900500
N831	N83	0.397070	0.537290	0.885860
N841	N84	0.440030	0.667380	0.859970
C2351	C235	0.074150	0.583160	0.044040
H1571	H157	0.043900	0.543600	0.057900
C2361	C236	0.123010	0.707270	0.022530
H1581	H158	0.135100	0.770200	0.017400
C2371	C237	0.210670	0.627850	0.980350
C2381	C238	0.309670	0.625500	0.982960
C2391	C239	0.358430	0.629010	0.011190
H1591	H159	0.324000	0.632200	0.029100
C2401	C240	0.454830	0.627700	0.012100
H1601	H160	0.485800	0.630200	0.030700
C2411	C241	0.508950	0.622700	0.984990
H1611	H161	0.574900	0.622000	0.986000
C2421	C242	0.465600	0.619000	0.957650
H1621	H162	0.501900	0.615500	0.940100
C2431	C243	0.364480	0.620390	0.955630
C2441	C244	0.315760	0.616820	0.928220
C2451	C245	0.216940	0.616820	0.925690
C2461	C246	0.168830	0.610560	0.897440
H1631	H163	0.203700	0.603800	0.879700
C2471	C247	0.072500	0.614400	0.896150
H1641	H164	0.042000	0.609600	0.877600
C2481	C248	0.018210	0.625700	0.922850
H1651	H165	0.952500	0.630600	0.921500
C2491	C249	0.061000	0.629470	0.950340
H1661	H166	0.024200	0.635500	0.967700
C2501	C250	0.162060	0.624210	0.952830
C2511	C251	0.439180	0.570550	0.861650
H1671	H167	0.466100	0.531700	0.846900
C2521	C252	0.395210	0.694440	0.884880
H1681	H168	0.383600	0.757000	0.890500
N851	N85	0.845500	0.867890	0.007510
N861	N86	0.877050	0.948810	0.020980
N871	N87	0.928280	0.821020	0.045900
N881	N88	0.630480	0.881840	0.900500
N891	N89	0.602930	0.962710	0.885860
N901	N90	0.559970	0.832620	0.859970
C2531	C253	0.925850	0.916840	0.044040
H1691	H169	0.956100	0.956400	0.057900
C2541	C254	0.876990	0.792730	0.022530
H1701	H170	0.864900	0.729800	0.017400
C2551	C255	0.789330	0.872150	0.980350
C2561	C256	0.690330	0.874500	0.982960
C2571	C257	0.641570	0.870990	0.011190
H1711	H171	0.676000	0.867800	0.029100
C2581	C258	0.545170	0.872300	0.012100
H1721	H172	0.514200	0.869800	0.030700
C2591	C259	0.491050	0.877300	0.984990
H1731	H173	0.425100	0.878000	0.986000
C2601	C260	0.534400	0.881000	0.957650
H1741	H174	0.498100	0.884500	0.940100
C2611	C261	0.635520	0.879610	0.955630
C2621	C262	0.684240	0.883180	0.928220
C2631	C263	0.783060	0.883180	0.925690
C2641	C264	0.831170	0.889440	0.897440
H1751	H175	0.796300	0.896200	0.879700
C2651	C265	0.927500	0.885600	0.896150
H1761	H176	0.958000	0.890400	0.877600
C2661	C266	0.981790	0.874300	0.922850
H1771	H177	0.047500	0.869400	0.921500
C2671	C267	0.939000	0.870530	0.950340
H1781	H178	0.975800	0.864500	0.967700
C2681	C268	0.837940	0.875790	0.952830
C2691	C269	0.560820	0.929450	0.861650
H1791	H179	0.533900	0.968300	0.846900
C2701	C270	0.604790	0.805560	0.884880
H1801	H180	0.616400	0.743000	0.890500
N911	N91	0.345500	0.367890	0.507510
N921	N92	0.377050	0.448810	0.520980
N931	N93	0.428280	0.321020	0.545900
N941	N94	0.130480	0.381840	0.400500
N951	N95	0.102930	0.462710	0.385860
N961	N96	0.059970	0.332620	0.359970
C2711	C271	0.425850	0.416840	0.544040
H1811	H181	0.456100	0.456400	0.557900
C2721	C272	0.376990	0.292730	0.522530
H1821	H182	0.364900	0.229800	0.517400
C2731	C273	0.289330	0.372150	0.480350
C2741	C274	0.190330	0.374500	0.482960
C2751	C275	0.141570	0.370990	0.511190
H1831	H183	0.176000	0.367800	0.529100
C2761	C276	0.045170	0.372300	0.512100
H1841	H184	0.014200	0.369800	0.530700
C2771	C277	0.991050	0.377300	0.484990
H1851	H185	0.925100	0.378000	0.486000
C2781	C278	0.034400	0.381000	0.457650
H1861	H186	0.998100	0.384500	0.440100
C2791	C279	0.135520	0.379610	0.455630
C2801	C280	0.184240	0.383180	0.428220
C2811	C281	0.283060	0.383180	0.425690
C2821	C282	0.331170	0.389440	0.397440
H1871	H187	0.296300	0.396200	0.379700
C2831	C283	0.427500	0.385600	0.396150
H1881	H188	0.458000	0.390400	0.377600
C2841	C284	0.481790	0.374300	0.422850
H1891	H189	0.547500	0.369400	0.421500
C2851	C285	0.439000	0.370530	0.450340
H1901	H190	0.475800	0.364500	0.467700
C2861	C286	0.337940	0.375790	0.452830
C2871	C287	0.060820	0.429450	0.361650
H1911	H191	0.033900	0.468300	0.346900
C2881	C288	0.104790	0.305560	0.384880
H1921	H192	0.116400	0.243000	0.390500
Cu51	Cu5	0.500000	0.750000	0.828090
Cu61	Cu6	0.000000	0.250000	0.328090
Cu71	Cu7	0.500000	0.250000	0.578090
Cu81	Cu8	0.000000	0.750000	0.078090
