data_ILIFOY_freeONLY_PM
_symmetry_space_group_name_H-M	'P1'
_cell_length_a	8.970900
_cell_length_b	10.342600
_cell_length_c	10.342600
_cell_angle_alpha	120.000000
_cell_angle_beta	90.000000
_cell_angle_gamma	90.000000
_symmetry_Int_Tables_number 1

loop_
_symmetry_equiv_pos_as_xyz
'x,y,z'

loop_
_atom_site_label
_atom_site_type_symbol
_atom_site_fract_x
_atom_site_fract_y
_atom_site_fract_z
La11	La1	0.950640	0.333330	0.666660
La21	La2	0.049360	0.666670	0.333340
H11	H1	0.563300	0.479200	0.365000
H21	H2	0.719900	0.628500	0.569800
H31	H3	0.563300	0.885800	0.520800
H41	H4	0.719900	0.941300	0.371500
H51	H5	0.563300	0.635000	0.114200
H61	H6	0.719900	0.430200	0.058700
H71	H7	0.436700	0.520800	0.635000
H81	H8	0.280100	0.371500	0.430200
H91	H9	0.436700	0.114200	0.479200
H101	H10	0.280100	0.058700	0.628500
H111	H11	0.436700	0.365000	0.885800
H121	H12	0.280100	0.569800	0.941300
C11	C1	0.567200	0.461700	0.449700
C21	C2	0.842700	0.445200	0.420100
C31	C3	0.714900	0.520400	0.529600
C41	C4	0.567200	0.988000	0.538300
C51	C5	0.842700	0.974900	0.554800
C61	C6	0.714900	0.009200	0.479600
C71	C7	0.567200	0.550300	0.012000
C81	C8	0.842700	0.579900	0.025100
C91	C9	0.714900	0.470400	0.990800
C101	C10	0.432800	0.538300	0.550300
C111	C11	0.157300	0.554800	0.579900
C121	C12	0.285100	0.479600	0.470400
C131	C13	0.432800	0.012000	0.461700
C141	C14	0.157300	0.025100	0.445200
C151	C15	0.285100	0.990800	0.520400
C161	C16	0.432800	0.449700	0.988000
C171	C17	0.157300	0.420100	0.974900
C181	C18	0.285100	0.529600	0.009200
O11	O1	0.558700	0.303800	0.393200
O21	O2	0.920500	0.351400	0.433600
O31	O3	0.861600	0.480400	0.321700
O41	O4	0.734000	0.488700	0.648900
O51	O5	0.558700	0.089400	0.696200
O61	O6	0.920500	0.082200	0.648600
O71	O7	0.861600	0.841300	0.519600
O81	O8	0.734000	0.160200	0.511300
O91	O9	0.558700	0.606800	0.910600
O101	O10	0.920500	0.566400	0.917800
O111	O11	0.861600	0.678300	0.158700
O121	O12	0.734000	0.351100	0.839800
O131	O13	0.441300	0.696200	0.606800
O141	O14	0.079500	0.648600	0.566400
O151	O15	0.138400	0.519600	0.678300
O161	O16	0.266000	0.511300	0.351100
O171	O17	0.441300	0.910600	0.303800
O181	O18	0.079500	0.917800	0.351400
O191	O19	0.138400	0.158700	0.480400
O201	O20	0.266000	0.839800	0.488700
O211	O21	0.441300	0.393200	0.089400
O221	O22	0.079500	0.433600	0.082200
O231	O23	0.138400	0.321700	0.841300
O241	O24	0.266000	0.648900	0.160200
