data_ILIMUN_freeONLY_PM
_symmetry_space_group_name_H-M	'P1'
_cell_length_a	9.113000
_cell_length_b	15.904000
_cell_length_c	16.014000
_cell_angle_alpha	73.488000
_cell_angle_beta	74.016000
_cell_angle_gamma	76.264000
_symmetry_Int_Tables_number 1

loop_
_symmetry_equiv_pos_as_xyz
'x,y,z'

loop_
_atom_site_label
_atom_site_type_symbol
_atom_site_fract_x
_atom_site_fract_y
_atom_site_fract_z
N11	N1	0.789400	0.829800	0.487900
N21	N2	0.719400	0.917800	0.472900
N31	N3	0.974100	0.915900	0.414300
N41	N4	0.646600	0.095800	0.433500
N51	N5	0.307800	0.611400	0.475700
N61	N6	0.181200	0.018000	0.135000
N71	N7	0.168600	0.989300	0.065600
N81	N8	0.394800	0.918000	0.097900
N91	N9	0.191000	0.914100	0.934000
N101	N10	0.461900	0.996800	0.373600
N111	N11	0.718500	0.632800	0.356600
N121	N12	0.637000	0.563800	0.384100
N131	N13	0.674200	0.605400	0.235900
N141	N14	0.453600	0.447600	0.401600
N151	N15	0.924700	0.880900	0.095800
C11	C1	0.609300	0.185200	0.415600
H11	H1	0.506200	0.210400	0.433700
C21	C2	0.712300	0.240400	0.373000
H21	H2	0.679600	0.301800	0.361800
C31	C3	0.864700	0.205700	0.346600
H31	H3	0.938100	0.242300	0.316700
C41	C4	0.906100	0.113700	0.366000
H41	H4	0.009400	0.087600	0.350300
C51	C5	0.797000	0.061800	0.407700
C61	C6	0.832100	0.964300	0.430000
C71	C7	0.939700	0.833200	0.451400
C81	C8	0.163000	0.600500	0.502900
H51	H5	0.142400	0.543200	0.529900
C91	C9	0.038600	0.669500	0.493700
H61	H6	0.937900	0.657800	0.513300
C101	C10	0.064300	0.754400	0.455900
C111	C11	0.215500	0.766000	0.424700
H71	H7	0.239700	0.822300	0.396200
C121	C12	0.331300	0.693200	0.436100
H81	H8	0.433300	0.702500	0.414300
C131	C13	0.201000	0.880500	0.865100
H91	H9	0.115900	0.895900	0.839000
C141	C14	0.323400	0.826500	0.830900
H101	H10	0.323200	0.805300	0.782500
C151	C15	0.451100	0.802300	0.868200
H111	H11	0.538900	0.764700	0.845500
C161	C16	0.444800	0.835900	0.941400
H121	H12	0.528500	0.820700	0.968600
C171	C17	0.315600	0.890700	0.971900
C181	C18	0.297300	0.931200	0.045200
C191	C19	0.318900	0.972800	0.151700
C201	C20	0.523300	0.928600	0.335500
H131	H13	0.597100	0.884500	0.360100
C211	C21	0.484900	0.919400	0.262400
H141	H14	0.532500	0.870500	0.238000
C221	C22	0.374100	0.983700	0.225100
C231	C23	0.314600	0.055700	0.261300
H151	H15	0.243500	0.101300	0.236100
C241	C24	0.358400	0.061800	0.334900
H161	H16	0.315900	0.111600	0.358500
C251	C25	0.362500	0.388200	0.413900
H171	H17	0.315500	0.362200	0.472000
C261	C26	0.335900	0.364100	0.344900
H181	H18	0.272100	0.322600	0.355600
C271	C27	0.405900	0.402800	0.258300
H191	H19	0.390600	0.387200	0.209900
C281	C28	0.498100	0.464200	0.245100
H201	H20	0.545400	0.491100	0.187400
C291	C29	0.520000	0.485700	0.317000
C301	C30	0.613400	0.550400	0.310100
C311	C31	0.737400	0.654600	0.268900
C321	C32	0.926300	0.857000	0.182700
H211	H21	0.968800	0.891600	0.204800
C331	C33	0.868600	0.784000	0.241600
H221	H22	0.871300	0.770900	0.301600
C341	C34	0.807200	0.731100	0.210600
C351	C35	0.805400	0.755600	0.120700
H231	H23	0.763400	0.722400	0.096800
C361	C36	0.865500	0.828600	0.067500
H241	H24	0.864900	0.842600	0.007100
N161	N16	0.210600	0.170200	0.512100
N171	N17	0.280600	0.082200	0.527100
N181	N18	0.025900	0.084100	0.585700
N191	N19	0.353400	0.904200	0.566500
N201	N20	0.692200	0.388600	0.524300
N211	N21	0.818800	0.982000	0.865000
N221	N22	0.831400	0.010700	0.934400
N231	N23	0.605200	0.082000	0.902100
N241	N24	0.809000	0.085900	0.066000
N251	N25	0.538100	0.003200	0.626400
N261	N26	0.281500	0.367200	0.643400
N271	N27	0.363000	0.436200	0.615900
N281	N28	0.325800	0.394600	0.764100
N291	N29	0.546400	0.552400	0.598400
N301	N30	0.075300	0.119100	0.904200
C371	C37	0.390700	0.814800	0.584400
H251	H25	0.493800	0.789600	0.566300
C381	C38	0.287700	0.759600	0.627000
H261	H26	0.320400	0.698200	0.638200
C391	C39	0.135300	0.794300	0.653400
H271	H27	0.061900	0.757700	0.683300
C401	C40	0.093900	0.886300	0.634000
H281	H28	0.990600	0.912400	0.649700
C411	C41	0.203000	0.938200	0.592300
C421	C42	0.167900	0.035700	0.570000
C431	C43	0.060300	0.166800	0.548600
C441	C44	0.837000	0.399500	0.497100
H291	H29	0.857600	0.456800	0.470100
C451	C45	0.961400	0.330500	0.506300
H301	H30	0.062100	0.342200	0.486700
C461	C46	0.935700	0.245600	0.544100
C471	C47	0.784500	0.234000	0.575300
H311	H31	0.760300	0.177700	0.603800
C481	C48	0.668700	0.306800	0.563900
H321	H32	0.566700	0.297500	0.585700
C491	C49	0.799000	0.119500	0.134900
H331	H33	0.884100	0.104100	0.161000
C501	C50	0.676600	0.173500	0.169100
H341	H34	0.676800	0.194700	0.217500
C511	C51	0.548900	0.197700	0.131800
H351	H35	0.461100	0.235300	0.154500
C521	C52	0.555200	0.164100	0.058600
H361	H36	0.471500	0.179300	0.031400
C531	C53	0.684400	0.109300	0.028100
C541	C54	0.702700	0.068800	0.954800
C551	C55	0.681100	0.027200	0.848300
C561	C56	0.476700	0.071400	0.664500
H371	H37	0.402900	0.115500	0.639900
C571	C57	0.515100	0.080600	0.737600
H381	H38	0.467500	0.129500	0.762000
C581	C58	0.625900	0.016300	0.774900
C591	C59	0.685400	0.944300	0.738700
H391	H39	0.756500	0.898700	0.763900
C601	C60	0.641600	0.938200	0.665100
H401	H40	0.684100	0.888400	0.641500
C611	C61	0.637500	0.611800	0.586100
H411	H41	0.684500	0.637800	0.528000
C621	C62	0.664100	0.635900	0.655100
H421	H42	0.727900	0.677400	0.644400
C631	C63	0.594100	0.597200	0.741700
H431	H43	0.609400	0.612800	0.790100
C641	C64	0.501900	0.535800	0.754900
H441	H44	0.454600	0.508900	0.812600
C651	C65	0.480000	0.514300	0.683000
C661	C66	0.386600	0.449600	0.689900
C671	C67	0.262600	0.345400	0.731100
C681	C68	0.073700	0.143000	0.817300
H451	H45	0.031200	0.108400	0.795200
C691	C69	0.131400	0.216000	0.758400
H461	H46	0.128700	0.229100	0.698400
C701	C70	0.192800	0.268900	0.789400
C711	C71	0.194600	0.244400	0.879300
H471	H47	0.236600	0.277600	0.903200
C721	C72	0.134500	0.171400	0.932500
H481	H48	0.135100	0.157400	0.992900
Ni11	Ni1	0.500000	0.000000	0.500000
Ni21	Ni2	0.500000	0.500000	0.500000
Ni31	Ni3	0.000000	0.000000	0.000000
