data_ILOJOJ_freeONLY_PM
_symmetry_space_group_name_H-M	'P1'
_cell_length_a	11.553900
_cell_length_b	15.422800
_cell_length_c	17.686000
_cell_angle_alpha	114.095000
_cell_angle_beta	90.000000
_cell_angle_gamma	111.998000
_symmetry_Int_Tables_number 1

loop_
_symmetry_equiv_pos_as_xyz
'x,y,z'

loop_
_atom_site_label
_atom_site_type_symbol
_atom_site_fract_x
_atom_site_fract_y
_atom_site_fract_z
Cu11	Cu1	0.837230	0.601820	0.770190
Cu21	Cu2	0.235410	0.398180	0.729810
Cu31	Cu3	0.162770	0.398180	0.229810
Cu41	Cu4	0.764590	0.601820	0.270190
H11	H1	0.893500	0.537800	0.577800
H21	H2	0.121800	0.650600	0.784800
H31	H3	0.330400	0.664000	0.726000
H41	H4	0.307300	0.590400	0.629700
H51	H5	0.224200	0.802800	0.686600
H61	H6	0.329700	0.948400	0.665500
H71	H7	0.598100	0.847400	0.585000
H81	H8	0.493600	0.702800	0.607300
H91	H9	0.407200	0.053200	0.607700
H101	H10	0.521500	0.200000	0.587800
H111	H11	0.832900	0.150200	0.598400
H121	H12	0.721900	0.009200	0.621700
H131	H13	0.739000	0.342400	0.613400
H141	H14	0.727900	0.269000	0.518400
H151	H15	0.954200	0.380600	0.713000
H161	H16	0.147700	0.325600	0.534600
H171	H17	0.711300	0.613600	0.540300
H181	H18	0.355700	0.462200	0.922200
H191	H19	0.471200	0.349400	0.715200
H201	H20	0.666400	0.336000	0.774000
H211	H21	0.716900	0.409600	0.870300
H221	H22	0.421400	0.197200	0.813400
H231	H23	0.381300	0.051600	0.834500
H241	H24	0.750700	0.152600	0.915000
H251	H25	0.790800	0.297200	0.892700
H261	H26	0.354000	0.946800	0.892300
H271	H27	0.321500	0.800000	0.912200
H281	H28	0.682700	0.849800	0.901600
H291	H29	0.712700	0.990800	0.878300
H301	H30	0.396600	0.657600	0.886600
H311	H31	0.458900	0.731000	0.981600
H321	H32	0.573600	0.619400	0.787000
H331	H33	0.822100	0.674400	0.965400
H341	H34	0.097700	0.386400	0.959700
H351	H35	0.106500	0.462200	0.422200
H361	H36	0.878200	0.349400	0.215200
H371	H37	0.669600	0.336000	0.274000
H381	H38	0.692700	0.409600	0.370300
H391	H39	0.775800	0.197200	0.313400
H401	H40	0.670300	0.051600	0.334500
H411	H41	0.401900	0.152600	0.415000
H421	H42	0.506400	0.297200	0.392700
H431	H43	0.592800	0.946800	0.392300
H441	H44	0.478500	0.800000	0.412200
H451	H45	0.167100	0.849800	0.401600
H461	H46	0.278100	0.990800	0.378300
H471	H47	0.261000	0.657600	0.386600
H481	H48	0.272100	0.731000	0.481600
H491	H49	0.045800	0.619400	0.287000
H501	H50	0.852300	0.674400	0.465400
H511	H51	0.288700	0.386400	0.459700
H521	H52	0.644300	0.537800	0.077800
H531	H53	0.528800	0.650600	0.284800
H541	H54	0.333600	0.664000	0.226000
H551	H55	0.283100	0.590400	0.129700
H561	H56	0.578600	0.802800	0.186600
H571	H57	0.618700	0.948400	0.165500
H581	H58	0.249300	0.847400	0.085000
H591	H59	0.209200	0.702800	0.107300
H601	H60	0.646000	0.053200	0.107700
H611	H61	0.678500	0.200000	0.087800
H621	H62	0.317300	0.150200	0.098400
H631	H63	0.287300	0.009200	0.121700
H641	H64	0.603400	0.342400	0.113400
H651	H65	0.541100	0.269000	0.018400
H661	H66	0.426400	0.380600	0.213000
H671	H67	0.177900	0.325600	0.034600
H681	H68	0.902300	0.613600	0.040300
C11	C1	0.967600	0.565000	0.616000
C21	C2	0.088300	0.625400	0.728500
C31	C3	0.291600	0.648000	0.670600
C41	C4	0.351900	0.739400	0.653900
C51	C5	0.301500	0.812800	0.668200
C61	C6	0.364900	0.900200	0.655400
C71	C7	0.480700	0.917600	0.627600
C81	C8	0.524500	0.840600	0.607800
C91	C9	0.461200	0.753200	0.621000
C101	C10	0.551200	0.013000	0.615500
C111	C11	0.493300	0.072200	0.606100
C121	C12	0.562500	0.161000	0.594000
C131	C13	0.687600	0.190800	0.591400
C141	C14	0.747100	0.131800	0.600900
C151	C15	0.679500	0.046400	0.613700
C161	C16	0.757800	0.284800	0.575800
C171	C17	0.975900	0.357600	0.659900
C181	C18	0.080100	0.326000	0.563100
C191	C19	0.651400	0.526400	0.644000
C201	C20	0.572200	0.513600	0.571100
C211	C21	0.444000	0.446200	0.546600
C221	C22	0.626200	0.567600	0.523900
C231	C23	0.374200	0.389800	0.596800
C241	C24	0.402600	0.435000	0.884000
C251	C25	0.462900	0.374600	0.771500
C261	C26	0.643600	0.352000	0.829400
C271	C27	0.612500	0.260600	0.846100
C281	C28	0.488700	0.187200	0.831800
C291	C29	0.464700	0.099800	0.844600
C301	C30	0.563100	0.082400	0.872400
C311	C31	0.683900	0.159400	0.892200
C321	C32	0.708000	0.246800	0.879000
C331	C33	0.538200	0.987000	0.884500
C341	C34	0.421100	0.927800	0.893900
C351	C35	0.401500	0.839000	0.906000
C361	C36	0.496800	0.809200	0.908600
C371	C37	0.615300	0.868200	0.899100
C381	C38	0.633100	0.953600	0.886300
C391	C39	0.473000	0.715200	0.924200
C401	C40	0.618300	0.642400	0.840100
C411	C41	0.754100	0.674000	0.936900
C421	C42	0.125000	0.473600	0.856000
C431	C43	0.058600	0.486400	0.928900
C441	C44	0.997800	0.553800	0.953400
C451	C45	0.058600	0.432400	0.976100
C461	C46	0.984400	0.610200	0.903200
C471	C47	0.032400	0.435000	0.384000
C481	C48	0.911700	0.374600	0.271500
C491	C49	0.708400	0.352000	0.329400
C501	C50	0.648100	0.260600	0.346100
C511	C51	0.698500	0.187200	0.331800
C521	C52	0.635100	0.099800	0.344600
C531	C53	0.519300	0.082400	0.372400
C541	C54	0.475500	0.159400	0.392200
C551	C55	0.538800	0.246800	0.379000
C561	C56	0.448800	0.987000	0.384500
C571	C57	0.506700	0.927800	0.393900
C581	C58	0.437500	0.839000	0.406000
C591	C59	0.312400	0.809200	0.408600
C601	C60	0.252900	0.868200	0.399100
C611	C61	0.320500	0.953600	0.386300
C621	C62	0.242200	0.715200	0.424200
C631	C63	0.024100	0.642400	0.340100
C641	C64	0.919900	0.674000	0.436900
C651	C65	0.348600	0.473600	0.356000
C661	C66	0.427800	0.486400	0.428900
C671	C67	0.556000	0.553800	0.453400
C681	C68	0.373800	0.432400	0.476100
C691	C69	0.625800	0.610200	0.403200
C701	C70	0.597400	0.565000	0.116000
C711	C71	0.537100	0.625400	0.228500
C721	C72	0.356400	0.648000	0.170600
C731	C73	0.387500	0.739400	0.153900
C741	C74	0.511300	0.812800	0.168200
C751	C75	0.535300	0.900200	0.155400
C761	C76	0.436900	0.917600	0.127600
C771	C77	0.316100	0.840600	0.107800
C781	C78	0.292000	0.753200	0.121000
C791	C79	0.461800	0.013000	0.115500
C801	C80	0.578900	0.072200	0.106100
C811	C81	0.598500	0.161000	0.094000
C821	C82	0.503200	0.190800	0.091400
C831	C83	0.384700	0.131800	0.100900
C841	C84	0.366900	0.046400	0.113700
C851	C85	0.527000	0.284800	0.075800
C861	C86	0.381700	0.357600	0.159900
C871	C87	0.245900	0.326000	0.063100
C881	C88	0.875000	0.526400	0.144000
C891	C89	0.941400	0.513600	0.071100
C901	C90	0.002200	0.446200	0.046600
C911	C91	0.941400	0.567600	0.023900
C921	C92	0.015600	0.389800	0.096800
N11	N1	0.969190	0.594780	0.699300
N21	N2	0.076700	0.576800	0.593400
N31	N3	0.155210	0.615820	0.666900
N41	N4	0.086790	0.362380	0.647600
N51	N5	0.962500	0.292200	0.528900
N61	N6	0.895270	0.316340	0.588600
N71	N7	0.374410	0.405220	0.800700
N81	N8	0.499900	0.423200	0.906600
N91	N9	0.539390	0.384180	0.833100
N101	N10	0.724410	0.637620	0.852400
N111	N11	0.670300	0.707800	0.971100
N121	N12	0.578930	0.683660	0.911400
N131	N13	0.030810	0.405220	0.300700
N141	N14	0.923300	0.423200	0.406600
N151	N15	0.844790	0.384180	0.333100
N161	N16	0.913210	0.637620	0.352400
N171	N17	0.037500	0.707800	0.471100
N181	N18	0.104730	0.683660	0.411400
N191	N19	0.625590	0.594780	0.199300
N201	N20	0.500100	0.576800	0.093400
N211	N21	0.460610	0.615820	0.166900
N221	N22	0.275590	0.362380	0.147600
N231	N23	0.329700	0.292200	0.028900
N241	N24	0.421070	0.316340	0.088600
O11	O1	0.742850	0.616900	0.686400
O21	O2	0.632890	0.452980	0.660800
O31	O3	0.357060	0.451520	0.666100
O41	O4	0.338270	0.295740	0.570100
O51	O5	0.125950	0.383100	0.813600
O61	O6	0.179910	0.547020	0.839200
O71	O7	0.905540	0.548480	0.833900
O81	O8	0.042530	0.704260	0.929900
O91	O9	0.257150	0.383100	0.313600
O101	O10	0.367110	0.547020	0.339200
O111	O11	0.642940	0.548480	0.333900
O121	O12	0.661730	0.704260	0.429900
O131	O13	0.874050	0.616900	0.186400
O141	O14	0.820090	0.452980	0.160800
O151	O15	0.094460	0.451520	0.166100
O161	O16	0.957470	0.295740	0.070100
