data_ILUHIH_freeONLY_PM
_symmetry_space_group_name_H-M	'P1'
_cell_length_a	15.187000
_cell_length_b	15.187000
_cell_length_c	15.616000
_cell_angle_alpha	90.000000
_cell_angle_beta	90.000000
_cell_angle_gamma	120.000000
_symmetry_Int_Tables_number 1

loop_
_symmetry_equiv_pos_as_xyz
'x,y,z'

loop_
_atom_site_label
_atom_site_type_symbol
_atom_site_fract_x
_atom_site_fract_y
_atom_site_fract_z
Ho11	Ho1	0.666670	0.333340	0.250000
Ho21	Ho2	0.333330	0.666660	0.250000
Ho31	Ho3	0.333330	0.666660	0.750000
Ho41	Ho4	0.666670	0.333340	0.750000
Fe11	Fe1	0.500000	0.500000	0.500000
Fe21	Fe2	0.000000	0.500000	0.500000
Fe31	Fe3	0.500000	0.000000	0.500000
Fe41	Fe4	0.000000	0.500000	0.000000
Fe51	Fe5	0.500000	0.500000	0.000000
Fe61	Fe6	0.500000	0.000000	0.000000
H11	H1	0.656300	0.482800	0.458500
H21	H2	0.289300	0.233700	0.344700
H31	H3	0.826500	0.343700	0.458500
H41	H4	0.944400	0.710700	0.344700
H51	H5	0.517200	0.173500	0.458500
H61	H6	0.766300	0.055600	0.344700
H71	H7	0.343700	0.517200	0.458500
H81	H8	0.710700	0.766300	0.344700
H91	H9	0.173500	0.656300	0.458500
H101	H10	0.055600	0.289300	0.344700
H111	H11	0.482800	0.826500	0.458500
H121	H12	0.233700	0.944400	0.344700
H131	H13	0.173500	0.517200	0.041500
H141	H14	0.055600	0.766300	0.155300
H151	H15	0.482800	0.656300	0.041500
H161	H16	0.233700	0.289300	0.155300
H171	H17	0.343700	0.826500	0.041500
H181	H18	0.710700	0.944400	0.155300
H191	H19	0.826500	0.482800	0.041500
H201	H20	0.944400	0.233700	0.155300
H211	H21	0.517200	0.343700	0.041500
H221	H22	0.766300	0.710700	0.155300
H231	H23	0.656300	0.173500	0.041500
H241	H24	0.289300	0.055600	0.155300
H251	H25	0.343700	0.517200	0.541500
H261	H26	0.710700	0.766300	0.655300
H271	H27	0.173500	0.656300	0.541500
H281	H28	0.055600	0.289300	0.655300
H291	H29	0.482800	0.826500	0.541500
H301	H30	0.233700	0.944400	0.655300
H311	H31	0.656300	0.482800	0.541500
H321	H32	0.289300	0.233700	0.655300
H331	H33	0.826500	0.343700	0.541500
H341	H34	0.944400	0.710700	0.655300
H351	H35	0.517200	0.173500	0.541500
H361	H36	0.766300	0.055600	0.655300
H371	H37	0.826500	0.482800	0.958500
H381	H38	0.944400	0.233700	0.844700
H391	H39	0.517200	0.343700	0.958500
H401	H40	0.766300	0.710700	0.844700
H411	H41	0.656300	0.173500	0.958500
H421	H42	0.289300	0.055600	0.844700
H431	H43	0.173500	0.517200	0.958500
H441	H44	0.055600	0.766300	0.844700
H451	H45	0.482800	0.656300	0.958500
H461	H46	0.233700	0.289300	0.844700
H471	H47	0.343700	0.826500	0.958500
H481	H48	0.710700	0.944400	0.844700
H491	H49	0.199200	0.099600	0.250000
H501	H50	0.900400	0.800800	0.250000
H511	H51	0.900400	0.099600	0.250000
H521	H52	0.800800	0.900400	0.250000
H531	H53	0.099600	0.199200	0.250000
H541	H54	0.099600	0.900400	0.250000
H551	H55	0.800800	0.900400	0.750000
H561	H56	0.099600	0.199200	0.750000
H571	H57	0.099600	0.900400	0.750000
H581	H58	0.199200	0.099600	0.750000
H591	H59	0.900400	0.800800	0.750000
H601	H60	0.900400	0.099600	0.750000
C11	C1	0.493700	0.354100	0.361000
C21	C2	0.427700	0.266200	0.303900
C31	C3	0.323600	0.215000	0.306100
C41	C4	0.860400	0.506300	0.361000
C51	C5	0.838500	0.572300	0.303900
C61	C6	0.891400	0.676400	0.306100
C71	C7	0.645900	0.139600	0.361000
C81	C8	0.733800	0.161500	0.303900
C91	C9	0.785000	0.108600	0.306100
C101	C10	0.506300	0.645900	0.361000
C111	C11	0.572300	0.733800	0.303900
C121	C12	0.676400	0.785000	0.306100
C131	C13	0.139600	0.493700	0.361000
C141	C14	0.161500	0.427700	0.303900
C151	C15	0.108600	0.323600	0.306100
C161	C16	0.354100	0.860400	0.361000
C171	C17	0.266200	0.838500	0.303900
C181	C18	0.215000	0.891400	0.306100
C191	C19	0.139600	0.645900	0.139000
C201	C20	0.161500	0.733800	0.196100
C211	C21	0.108600	0.785000	0.193900
C221	C22	0.354100	0.493700	0.139000
C231	C23	0.266200	0.427700	0.196100
C241	C24	0.215000	0.323600	0.193900
C251	C25	0.506300	0.860400	0.139000
C261	C26	0.572300	0.838500	0.196100
C271	C27	0.676400	0.891400	0.193900
C281	C28	0.860400	0.354100	0.139000
C291	C29	0.838500	0.266200	0.196100
C301	C30	0.891400	0.215000	0.193900
C311	C31	0.645900	0.506300	0.139000
C321	C32	0.733800	0.572300	0.196100
C331	C33	0.785000	0.676400	0.193900
C341	C34	0.493700	0.139600	0.139000
C351	C35	0.427700	0.161500	0.196100
C361	C36	0.323600	0.108600	0.193900
C371	C37	0.506300	0.645900	0.639000
C381	C38	0.572300	0.733800	0.696100
C391	C39	0.676400	0.785000	0.693900
C401	C40	0.139600	0.493700	0.639000
C411	C41	0.161500	0.427700	0.696100
C421	C42	0.108600	0.323600	0.693900
C431	C43	0.354100	0.860400	0.639000
C441	C44	0.266200	0.838500	0.696100
C451	C45	0.215000	0.891400	0.693900
C461	C46	0.493700	0.354100	0.639000
C471	C47	0.427700	0.266200	0.696100
C481	C48	0.323600	0.215000	0.693900
C491	C49	0.860400	0.506300	0.639000
C501	C50	0.838500	0.572300	0.696100
C511	C51	0.891400	0.676400	0.693900
C521	C52	0.645900	0.139600	0.639000
C531	C53	0.733800	0.161500	0.696100
C541	C54	0.785000	0.108600	0.693900
C551	C55	0.860400	0.354100	0.861000
C561	C56	0.838500	0.266200	0.803900
C571	C57	0.891400	0.215000	0.806100
C581	C58	0.645900	0.506300	0.861000
C591	C59	0.733800	0.572300	0.803900
C601	C60	0.785000	0.676400	0.806100
C611	C61	0.493700	0.139600	0.861000
C621	C62	0.427700	0.161500	0.803900
C631	C63	0.323600	0.108600	0.806100
C641	C64	0.139600	0.645900	0.861000
C651	C65	0.161500	0.733800	0.803900
C661	C66	0.108600	0.785000	0.806100
C671	C67	0.354100	0.493700	0.861000
C681	C68	0.266200	0.427700	0.803900
C691	C69	0.215000	0.323600	0.806100
C701	C70	0.506300	0.860400	0.861000
C711	C71	0.572300	0.838500	0.803900
C721	C72	0.676400	0.891400	0.806100
C731	C73	0.269800	0.134900	0.250000
C741	C74	0.865100	0.730200	0.250000
C751	C75	0.865100	0.134900	0.250000
C761	C76	0.730200	0.865100	0.250000
C771	C77	0.134900	0.269800	0.250000
C781	C78	0.134900	0.865100	0.250000
C791	C79	0.730200	0.865100	0.750000
C801	C80	0.134900	0.269800	0.750000
C811	C81	0.134900	0.865100	0.750000
C821	C82	0.269800	0.134900	0.750000
C831	C83	0.865100	0.730200	0.750000
C841	C84	0.865100	0.134900	0.750000
N11	N1	0.479380	0.239690	0.250000
N21	N2	0.760310	0.520620	0.250000
N31	N3	0.760310	0.239690	0.250000
N41	N4	0.520620	0.760310	0.250000
N51	N5	0.239690	0.479380	0.250000
N61	N6	0.239690	0.760310	0.250000
N71	N7	0.520620	0.760310	0.750000
N81	N8	0.239690	0.479380	0.750000
N91	N9	0.239690	0.760310	0.750000
N101	N10	0.479380	0.239690	0.750000
N111	N11	0.760310	0.520620	0.750000
N121	N12	0.760310	0.239690	0.750000
O11	O1	0.588100	0.388300	0.355730
O21	O2	0.449500	0.385100	0.408400
O31	O3	0.800200	0.411900	0.355730
O41	O4	0.935600	0.550500	0.408400
O51	O5	0.611700	0.199800	0.355730
O61	O6	0.614900	0.064400	0.408400
O71	O7	0.411900	0.611700	0.355730
O81	O8	0.550500	0.614900	0.408400
O91	O9	0.199800	0.588100	0.355730
O101	O10	0.064400	0.449500	0.408400
O111	O11	0.388300	0.800200	0.355730
O121	O12	0.385100	0.935600	0.408400
O131	O13	0.199800	0.611700	0.144270
O141	O14	0.064400	0.614900	0.091600
O151	O15	0.388300	0.588100	0.144270
O161	O16	0.385100	0.449500	0.091600
O171	O17	0.411900	0.800200	0.144270
O181	O18	0.550500	0.935600	0.091600
O191	O19	0.800200	0.388300	0.144270
O201	O20	0.935600	0.385100	0.091600
O211	O21	0.611700	0.411900	0.144270
O221	O22	0.614900	0.550500	0.091600
O231	O23	0.588100	0.199800	0.144270
O241	O24	0.449500	0.064400	0.091600
O251	O25	0.411900	0.611700	0.644270
O261	O26	0.550500	0.614900	0.591600
O271	O27	0.199800	0.588100	0.644270
O281	O28	0.064400	0.449500	0.591600
O291	O29	0.388300	0.800200	0.644270
O301	O30	0.385100	0.935600	0.591600
O311	O31	0.588100	0.388300	0.644270
O321	O32	0.449500	0.385100	0.591600
O331	O33	0.800200	0.411900	0.644270
O341	O34	0.935600	0.550500	0.591600
O351	O35	0.611700	0.199800	0.644270
O361	O36	0.614900	0.064400	0.591600
O371	O37	0.800200	0.388300	0.855730
O381	O38	0.935600	0.385100	0.908400
O391	O39	0.611700	0.411900	0.855730
O401	O40	0.614900	0.550500	0.908400
O411	O41	0.588100	0.199800	0.855730
O421	O42	0.449500	0.064400	0.908400
O431	O43	0.199800	0.611700	0.855730
O441	O44	0.064400	0.614900	0.908400
O451	O45	0.388300	0.588100	0.855730
O461	O46	0.385100	0.449500	0.908400
O471	O47	0.411900	0.800200	0.855730
O481	O48	0.550500	0.935600	0.908400
O491	O49	0.651300	0.513200	0.500000
O501	O50	0.861900	0.348700	0.500000
O511	O51	0.486800	0.138100	0.500000
O521	O52	0.348700	0.486800	0.500000
O531	O53	0.138100	0.651300	0.500000
O541	O54	0.513200	0.861900	0.500000
O551	O55	0.138100	0.486800	0.000000
O561	O56	0.513200	0.651300	0.000000
O571	O57	0.348700	0.861900	0.000000
O581	O58	0.861900	0.513200	0.000000
O591	O59	0.486800	0.348700	0.000000
O601	O60	0.651300	0.138100	0.000000
