data_IMIDZB10_freeONLY_PM
_symmetry_space_group_name_H-M	'P1'
_cell_length_a	14.575500
_cell_length_b	14.575500
_cell_length_c	14.575500
_cell_angle_alpha	109.471000
_cell_angle_beta	109.471000
_cell_angle_gamma	109.471000
_symmetry_Int_Tables_number 1

loop_
_symmetry_equiv_pos_as_xyz
'x,y,z'

loop_
_atom_site_label
_atom_site_type_symbol
_atom_site_fract_x
_atom_site_fract_y
_atom_site_fract_z
Zn11	Zn1	0.750000	0.500000	0.250000
Zn21	Zn2	0.250000	0.500000	0.750000
Zn31	Zn3	0.250000	0.750000	0.500000
Zn41	Zn4	0.750000	0.250000	0.500000
Zn51	Zn5	0.500000	0.750000	0.250000
Zn61	Zn6	0.500000	0.250000	0.750000
H11	H1	0.669000	0.537300	0.434900
H21	H2	0.102400	0.234100	0.565100
H31	H3	0.897600	0.462700	0.131700
H41	H4	0.331000	0.765900	0.868300
H51	H5	0.131700	0.897600	0.462700
H61	H6	0.868300	0.331000	0.765900
H71	H7	0.434900	0.669000	0.537300
H81	H8	0.565100	0.102400	0.234100
H91	H9	0.234100	0.565100	0.102400
H101	H10	0.537300	0.434900	0.669000
H111	H11	0.765900	0.868300	0.331000
H121	H12	0.462700	0.131700	0.897600
H131	H13	0.234100	0.102400	0.565100
H141	H14	0.537300	0.669000	0.434900
H151	H15	0.765900	0.331000	0.868300
H161	H16	0.462700	0.897600	0.131700
H171	H17	0.669000	0.434900	0.537300
H181	H18	0.102400	0.565100	0.234100
H191	H19	0.897600	0.131700	0.462700
H201	H20	0.331000	0.868300	0.765900
H211	H21	0.131700	0.462700	0.897600
H221	H22	0.868300	0.765900	0.331000
H231	H23	0.434900	0.537300	0.669000
H241	H24	0.565100	0.234100	0.102400
H251	H25	0.803000	0.358400	0.358400
H261	H26	0.000000	0.444600	0.641600
H271	H27	0.000000	0.641600	0.444600
H281	H28	0.197000	0.555400	0.555400
H291	H29	0.444600	0.000000	0.641600
H301	H30	0.555400	0.197000	0.555400
H311	H31	0.358400	0.803000	0.358400
H321	H32	0.641600	0.000000	0.444600
H331	H33	0.444600	0.641600	0.000000
H341	H34	0.358400	0.358400	0.803000
H351	H35	0.555400	0.555400	0.197000
H361	H36	0.641600	0.444600	0.000000
C11	C1	0.691200	0.482000	0.425800
C21	C2	0.056200	0.265400	0.574200
C31	C3	0.943800	0.518000	0.209200
C41	C4	0.308800	0.734600	0.790800
C51	C5	0.209200	0.943800	0.518000
C61	C6	0.790800	0.308800	0.734600
C71	C7	0.425800	0.691200	0.482000
C81	C8	0.574200	0.056200	0.265400
C91	C9	0.265400	0.574200	0.056200
C101	C10	0.482000	0.425800	0.691200
C111	C11	0.734600	0.790800	0.308800
C121	C12	0.518000	0.209200	0.943800
C131	C13	0.265400	0.056200	0.574200
C141	C14	0.482000	0.691200	0.425800
C151	C15	0.734600	0.308800	0.790800
C161	C16	0.518000	0.943800	0.209200
C171	C17	0.691200	0.425800	0.482000
C181	C18	0.056200	0.574200	0.265400
C191	C19	0.943800	0.209200	0.518000
C201	C20	0.308800	0.790800	0.734600
C211	C21	0.209200	0.518000	0.943800
C221	C22	0.790800	0.734600	0.308800
C231	C23	0.425800	0.482000	0.691200
C241	C24	0.574200	0.265400	0.056200
C251	C25	0.758740	0.383270	0.383270
C261	C26	0.000000	0.375470	0.616730
C271	C27	0.000000	0.616730	0.375470
C281	C28	0.241260	0.624530	0.624530
C291	C29	0.375470	0.000000	0.616730
C301	C30	0.624530	0.241260	0.624530
C311	C31	0.383270	0.758740	0.383270
C321	C32	0.616730	0.000000	0.375470
C331	C33	0.375470	0.616730	0.000000
C341	C34	0.383270	0.383270	0.758740
C351	C35	0.624530	0.624530	0.241260
C361	C36	0.616730	0.375470	0.000000
N11	N1	0.727810	0.447440	0.353730
N21	N2	0.093710	0.374080	0.646270
N31	N3	0.906290	0.552560	0.280370
N41	N4	0.272190	0.625920	0.719630
N51	N5	0.280370	0.906290	0.552560
N61	N6	0.719630	0.272190	0.625920
N71	N7	0.353730	0.727810	0.447440
N81	N8	0.646270	0.093710	0.374080
N91	N9	0.374080	0.646270	0.093710
N101	N10	0.447440	0.353730	0.727810
N111	N11	0.625920	0.719630	0.272190
N121	N12	0.552560	0.280370	0.906290
N131	N13	0.374080	0.093710	0.646270
N141	N14	0.447440	0.727810	0.353730
N151	N15	0.625920	0.272190	0.719630
N161	N16	0.552560	0.906290	0.280370
N171	N17	0.727810	0.353730	0.447440
N181	N18	0.093710	0.646270	0.374080
N191	N19	0.906290	0.280370	0.552560
N201	N20	0.272190	0.719630	0.625920
N211	N21	0.280370	0.552560	0.906290
N221	N22	0.719630	0.625920	0.272190
N231	N23	0.353730	0.447440	0.727810
N241	N24	0.646270	0.374080	0.093710
