data_IMUTUG_ion_b_PM
_symmetry_space_group_name_H-M	'P1'
_cell_length_a	22.269000
_cell_length_b	22.269000
_cell_length_c	22.269000
_cell_angle_alpha	109.471200
_cell_angle_beta	109.471200
_cell_angle_gamma	109.471200
_symmetry_Int_Tables_number 1

loop_
_symmetry_equiv_pos_as_xyz
'x,y,z'

loop_
_atom_site_label
_atom_site_type_symbol
_atom_site_fract_x
_atom_site_fract_y
_atom_site_fract_z
O11	O1	0.546500	0.810600	0.191500
O21	O2	0.670200	0.940200	0.088000
O31	O3	0.803600	0.937900	0.079300
O41	O4	0.536900	0.866100	0.279600
C51	C5	0.559700	0.868400	0.236100
C61	C6	0.620600	0.929400	0.181200
H71	H7	0.600010	0.873570	0.133490
C81	C8	0.601000	0.933600	0.239600
O101	O10	0.619100	0.355000	0.808500
O111	O11	0.852200	0.582200	0.912000
O121	O12	0.858600	0.724300	0.920700
O131	O13	0.586500	0.257300	0.720400
C141	C14	0.632300	0.323600	0.763900
C151	C15	0.748200	0.439400	0.818800
H161	H16	0.740080	0.466530	0.866510
C171	C17	0.694000	0.361400	0.760400
O191	O19	0.380900	0.189400	0.735900
O201	O20	0.147800	0.059800	0.730000
O211	O21	0.141400	0.062100	0.865700
O221	O22	0.413500	0.133900	0.670800
C231	C23	0.367700	0.131600	0.691300
C241	C24	0.251800	0.070600	0.691200
H251	H25	0.259920	0.126430	0.726450
C261	C26	0.306000	0.066400	0.667400
O281	O28	0.453500	0.645000	0.264100
O291	O29	0.329800	0.417800	0.270000
O301	O30	0.196400	0.275700	0.134300
O311	O31	0.463100	0.742700	0.329200
C321	C32	0.440300	0.676400	0.308700
C331	C33	0.379400	0.560600	0.308800
H341	H34	0.399990	0.533470	0.273550
C351	C35	0.399000	0.638600	0.332600
O371	O37	0.191500	0.546500	0.810600
O381	O38	0.088000	0.670200	0.940200
O391	O39	0.079300	0.803600	0.937900
O401	O40	0.279600	0.536900	0.866100
C411	C41	0.236100	0.559700	0.868400
C421	C42	0.181200	0.620600	0.929400
H431	H43	0.133490	0.600010	0.873570
C441	C44	0.239600	0.601000	0.933600
O461	O46	0.808500	0.619100	0.355000
O471	O47	0.912000	0.852200	0.582200
O481	O48	0.920700	0.858600	0.724300
O491	O49	0.720400	0.586500	0.257300
C501	C50	0.763900	0.632300	0.323600
C511	C51	0.818800	0.748200	0.439400
H521	H52	0.866510	0.740080	0.466530
C531	C53	0.760400	0.694000	0.361400
O551	O55	0.735900	0.380900	0.189400
O561	O56	0.730000	0.147800	0.059800
O571	O57	0.865700	0.141400	0.062100
O581	O58	0.670800	0.413500	0.133900
C591	C59	0.691300	0.367700	0.131600
C601	C60	0.691200	0.251800	0.070600
H611	H61	0.726450	0.259920	0.126430
C621	C62	0.667400	0.306000	0.066400
O641	O64	0.264100	0.453500	0.645000
O651	O65	0.270000	0.329800	0.417800
O661	O66	0.134300	0.196400	0.275700
O671	O67	0.329200	0.463100	0.742700
C681	C68	0.308700	0.440300	0.676400
C691	C69	0.308800	0.379400	0.560600
H701	H70	0.273550	0.399990	0.533470
C711	C71	0.332600	0.399000	0.638600
O731	O73	0.810600	0.191500	0.546500
O741	O74	0.940200	0.088000	0.670200
O751	O75	0.937900	0.079300	0.803600
O761	O76	0.866100	0.279600	0.536900
C771	C77	0.868400	0.236100	0.559700
C781	C78	0.929400	0.181200	0.620600
H791	H79	0.873570	0.133490	0.600010
C801	C80	0.933600	0.239600	0.601000
O821	O82	0.355000	0.808500	0.619100
O831	O83	0.582200	0.912000	0.852200
O841	O84	0.724300	0.920700	0.858600
O851	O85	0.257300	0.720400	0.586500
C861	C86	0.323600	0.763900	0.632300
C871	C87	0.439400	0.818800	0.748200
H881	H88	0.466530	0.866510	0.740080
C891	C89	0.361400	0.760400	0.694000
O911	O91	0.189400	0.735900	0.380900
O921	O92	0.059800	0.730000	0.147800
O931	O93	0.062100	0.865700	0.141400
O941	O94	0.133900	0.670800	0.413500
C951	C95	0.131600	0.691300	0.367700
C961	C96	0.070600	0.691200	0.251800
H971	H97	0.126430	0.726450	0.259920
C981	C98	0.066400	0.667400	0.306000
O1001	O100	0.645000	0.264100	0.453500
O1011	O101	0.417800	0.270000	0.329800
O1021	O102	0.275700	0.134300	0.196400
O1031	O103	0.742700	0.329200	0.463100
C1041	C104	0.676400	0.308700	0.440300
C1051	C105	0.560600	0.308800	0.379400
H1061	H106	0.533470	0.273550	0.399990
C1071	C107	0.638600	0.332600	0.399000
O1091	O109	0.810600	0.546500	0.191500
O1101	O110	0.940200	0.670200	0.088000
O1111	O111	0.937900	0.803600	0.079300
O1121	O112	0.866100	0.536900	0.279600
C1131	C113	0.868400	0.559700	0.236100
C1141	C114	0.929400	0.620600	0.181200
H1151	H115	0.873570	0.600010	0.133490
C1161	C116	0.933600	0.601000	0.239600
O1181	O118	0.355000	0.619100	0.808500
O1191	O119	0.582200	0.852200	0.912000
O1201	O120	0.724300	0.858600	0.920700
O1211	O121	0.257300	0.586500	0.720400
C1221	C122	0.323600	0.632300	0.763900
C1231	C123	0.439400	0.748200	0.818800
H1241	H124	0.466530	0.740080	0.866510
C1251	C125	0.361400	0.694000	0.760400
O1271	O127	0.189400	0.380900	0.735900
O1281	O128	0.059800	0.147800	0.730000
O1291	O129	0.062100	0.141400	0.865700
O1301	O130	0.133900	0.413500	0.670800
C1311	C131	0.131600	0.367700	0.691300
C1321	C132	0.070600	0.251800	0.691200
H1331	H133	0.126430	0.259920	0.726450
C1341	C134	0.066400	0.306000	0.667400
O1361	O136	0.645000	0.453500	0.264100
O1371	O137	0.417800	0.329800	0.270000
O1381	O138	0.275700	0.196400	0.134300
O1391	O139	0.742700	0.463100	0.329200
C1401	C140	0.676400	0.440300	0.308700
C1411	C141	0.560600	0.379400	0.308800
H1421	H142	0.533470	0.399990	0.273550
C1431	C143	0.638600	0.399000	0.332600
O1451	O145	0.546500	0.191500	0.810600
O1461	O146	0.670200	0.088000	0.940200
O1471	O147	0.803600	0.079300	0.937900
O1481	O148	0.536900	0.279600	0.866100
C1491	C149	0.559700	0.236100	0.868400
C1501	C150	0.620600	0.181200	0.929400
H1511	H151	0.600010	0.133490	0.873570
C1521	C152	0.601000	0.239600	0.933600
O1541	O154	0.619100	0.808500	0.355000
O1551	O155	0.852200	0.912000	0.582200
O1561	O156	0.858600	0.920700	0.724300
O1571	O157	0.586500	0.720400	0.257300
C1581	C158	0.632300	0.763900	0.323600
C1591	C159	0.748200	0.818800	0.439400
H1601	H160	0.740080	0.866510	0.466530
C1611	C161	0.694000	0.760400	0.361400
O1631	O163	0.380900	0.735900	0.189400
O1641	O164	0.147800	0.730000	0.059800
O1651	O165	0.141400	0.865700	0.062100
O1661	O166	0.413500	0.670800	0.133900
C1671	C167	0.367700	0.691300	0.131600
C1681	C168	0.251800	0.691200	0.070600
H1691	H169	0.259920	0.726450	0.126430
C1701	C170	0.306000	0.667400	0.066400
O1721	O172	0.453500	0.264100	0.645000
O1731	O173	0.329800	0.270000	0.417800
O1741	O174	0.196400	0.134300	0.275700
O1751	O175	0.463100	0.329200	0.742700
C1761	C176	0.440300	0.308700	0.676400
C1771	C177	0.379400	0.308800	0.560600
H1781	H178	0.399990	0.273550	0.533470
C1791	C179	0.399000	0.332600	0.638600
O1811	O181	0.191500	0.810600	0.546500
O1821	O182	0.088000	0.940200	0.670200
O1831	O183	0.079300	0.937900	0.803600
O1841	O184	0.279600	0.866100	0.536900
C1851	C185	0.236100	0.868400	0.559700
C1861	C186	0.181200	0.929400	0.620600
H1871	H187	0.133490	0.873570	0.600010
C1881	C188	0.239600	0.933600	0.601000
O1901	O190	0.808500	0.355000	0.619100
O1911	O191	0.912000	0.582200	0.852200
O1921	O192	0.920700	0.724300	0.858600
O1931	O193	0.720400	0.257300	0.586500
C1941	C194	0.763900	0.323600	0.632300
C1951	C195	0.818800	0.439400	0.748200
H1961	H196	0.866510	0.466530	0.740080
C1971	C197	0.760400	0.361400	0.694000
O1991	O199	0.735900	0.189400	0.380900
O2001	O200	0.730000	0.059800	0.147800
O2011	O201	0.865700	0.062100	0.141400
O2021	O202	0.670800	0.133900	0.413500
C2031	C203	0.691300	0.131600	0.367700
C2041	C204	0.691200	0.070600	0.251800
H2051	H205	0.726450	0.126430	0.259920
C2061	C206	0.667400	0.066400	0.306000
O2081	O208	0.264100	0.645000	0.453500
O2091	O209	0.270000	0.417800	0.329800
O2101	O210	0.134300	0.275700	0.196400
O2111	O211	0.329200	0.742700	0.463100
C2121	C212	0.308700	0.676400	0.440300
C2131	C213	0.308800	0.560600	0.379400
H2141	H214	0.273550	0.533470	0.399990
C2151	C215	0.332600	0.638600	0.399000
In2171	In217	0.694370	0.902830	0.000000
In2191	In219	0.902830	0.694370	0.000000
In2211	In221	0.097170	0.097170	0.791540
In2231	In223	0.305630	0.305630	0.208460
In2251	In225	0.000000	0.694370	0.902830
In2271	In227	0.000000	0.902830	0.694370
In2291	In229	0.791540	0.097170	0.097170
In2311	In231	0.208460	0.305630	0.305630
In2331	In233	0.902830	0.000000	0.694370
In2351	In235	0.694370	0.000000	0.902830
In2371	In237	0.097170	0.791540	0.097170
In2391	In239	0.305630	0.208460	0.305630
In2411	In241	0.500000	0.750000	0.250000
In2421	In242	0.500000	0.250000	0.750000
In2431	In243	0.250000	0.500000	0.750000
In2441	In244	0.750000	0.500000	0.250000
In2451	In245	0.750000	0.250000	0.500000
In2461	In246	0.250000	0.750000	0.500000
O2471	O247	0.731400	0.000000	0.000000
O2481	O248	0.000000	0.731400	0.000000
O2491	O249	0.000000	0.000000	0.731400
O2501	O250	0.268600	0.268600	0.268600
C2511	C251	0.000000	0.065900	0.193300
H2521	H252	0.998750	0.119560	0.211200
C2531	C253	0.872600	0.806700	0.806700
H2541	H254	0.908360	0.787550	0.788800
C2551	C255	0.127400	0.934100	0.934100
H2561	H256	0.091640	0.880440	0.879190
C2571	C257	0.000000	0.193300	0.065900
H2581	H258	0.001250	0.212450	0.120810
C2591	C259	0.193300	0.000000	0.065900
H2601	H260	0.211200	0.998750	0.119560
C2611	C261	0.806700	0.872600	0.806700
H2621	H262	0.788800	0.908360	0.787550
C2631	C263	0.934100	0.127400	0.934100
H2641	H264	0.879190	0.091640	0.880440
C2651	C265	0.065900	0.000000	0.193300
H2661	H266	0.120810	0.001250	0.212450
C2671	C267	0.065900	0.193300	0.000000
H2681	H268	0.120810	0.212450	0.001250
C2691	C269	0.806700	0.806700	0.872600
H2701	H270	0.788800	0.787550	0.908360
C2711	C271	0.934100	0.934100	0.127400
H2721	H272	0.879190	0.880440	0.091640
C2731	C273	0.193300	0.065900	0.000000
H2741	H274	0.211200	0.119560	0.998750
C2751	C275	0.935600	0.000000	0.149600
C2761	C276	0.691400	0.000000	0.138400
C2771	C277	0.861200	0.000000	0.123000
C2781	C278	0.623400	0.000000	0.298400
H2791	H279	0.605690	0.000330	0.340940
C2801	C280	0.664700	0.000000	0.194700
C2821	C282	0.850400	0.786000	0.850400
C2831	C283	0.861600	0.553000	0.861600
C2841	C284	0.877000	0.738200	0.877000
C2851	C285	0.701600	0.325000	0.701600
H2861	H286	0.659060	0.264740	0.659390
C2871	C287	0.805300	0.470000	0.805300
C2891	C289	0.149600	0.000000	0.935600
C2901	C290	0.138400	0.000000	0.691400
C2911	C291	0.123000	0.000000	0.861200
C2921	C292	0.298400	0.000000	0.623400
H2931	H293	0.340610	0.999670	0.605360
C2941	C294	0.194700	0.000000	0.664700
C2961	C296	0.064400	0.214000	0.064400
C2971	C297	0.308600	0.447000	0.308600
C2981	C298	0.138800	0.261800	0.138800
C2991	C299	0.376600	0.675000	0.376600
H3001	H300	0.394640	0.735260	0.394310
C3011	C301	0.335300	0.530000	0.335300
C3031	C303	0.149600	0.935600	0.000000
C3041	C304	0.138400	0.691400	0.000000
C3051	C305	0.123000	0.861200	0.000000
C3061	C306	0.298400	0.623400	0.000000
H3071	H307	0.340940	0.605690	0.000330
C3081	C308	0.194700	0.664700	0.000000
C3101	C310	0.850400	0.850400	0.786000
C3111	C311	0.861600	0.861600	0.553000
C3121	C312	0.877000	0.877000	0.738200
C3131	C313	0.701600	0.701600	0.325000
H3141	H314	0.659390	0.659060	0.264740
C3151	C315	0.805300	0.805300	0.470000
C3171	C317	0.935600	0.149600	0.000000
C3181	C318	0.691400	0.138400	0.000000
C3191	C319	0.861200	0.123000	0.000000
C3201	C320	0.623400	0.298400	0.000000
H3211	H321	0.605690	0.340940	0.000330
C3221	C322	0.664700	0.194700	0.000000
C3241	C324	0.064400	0.064400	0.214000
C3251	C325	0.308600	0.308600	0.447000
C3261	C326	0.138800	0.138800	0.261800
C3271	C327	0.376600	0.376600	0.675000
H3281	H328	0.394640	0.394310	0.735260
C3291	C329	0.335300	0.335300	0.530000
C3311	C331	0.000000	0.149600	0.935600
C3321	C332	0.000000	0.138400	0.691400
C3331	C333	0.000000	0.123000	0.861200
C3341	C334	0.000000	0.298400	0.623400
H3351	H335	0.999670	0.340610	0.605360
C3361	C336	0.000000	0.194700	0.664700
C3381	C338	0.786000	0.850400	0.850400
C3391	C339	0.553000	0.861600	0.861600
C3401	C340	0.738200	0.877000	0.877000
C3411	C341	0.325000	0.701600	0.701600
H3421	H342	0.264740	0.659060	0.659390
C3431	C343	0.470000	0.805300	0.805300
C3451	C345	0.000000	0.935600	0.149600
C3461	C346	0.000000	0.691400	0.138400
C3471	C347	0.000000	0.861200	0.123000
C3481	C348	0.000000	0.623400	0.298400
H3491	H349	0.999670	0.605360	0.340610
C3501	C350	0.000000	0.664700	0.194700
C3521	C352	0.214000	0.064400	0.064400
C3531	C353	0.447000	0.308600	0.308600
C3541	C354	0.261800	0.138800	0.138800
C3551	C355	0.675000	0.376600	0.376600
H3561	H356	0.735260	0.394640	0.394310
C3571	C357	0.530000	0.335300	0.335300
