data_INEXOQ_freeONLY_PM
_symmetry_space_group_name_H-M	'P1'
_cell_length_a	10.615000
_cell_length_b	9.641900
_cell_length_c	28.480000
_cell_angle_alpha	90.000000
_cell_angle_beta	94.819000
_cell_angle_gamma	90.000000
_symmetry_Int_Tables_number 1

loop_
_symmetry_equiv_pos_as_xyz
'x,y,z'

loop_
_atom_site_label
_atom_site_type_symbol
_atom_site_fract_x
_atom_site_fract_y
_atom_site_fract_z
Mn11	Mn1	0.552120	0.194680	0.094250
Mn21	Mn2	0.767700	0.260410	0.690870
O11	O1	0.351430	0.148700	0.090540
O21	O2	0.586400	0.993400	0.061230
H11	H1	0.656600	0.001500	0.042300
H21	H2	0.512400	0.966200	0.041700
O31	O3	0.343800	0.005100	0.028780
O41	O4	0.904400	0.215300	0.141980
O51	O5	0.748400	0.234300	0.085710
O61	O6	0.472800	0.620100	0.867200
O71	O7	0.297500	0.555700	0.824180
O81	O8	0.387700	0.895800	0.835690
O91	O9	0.241400	0.029900	0.800410
O101	O10	0.910700	0.209900	0.750570
O111	O11	0.719000	0.257100	0.764770
O121	O12	0.516700	0.296100	0.025480
N11	N1	0.339100	0.399300	0.992370
C11	C1	0.295100	0.092200	0.054340
C21	C2	0.160900	0.134400	0.040840
C31	C3	0.079200	0.164800	0.075460
H31	H3	0.108900	0.163600	0.107100
C41	C4	0.954000	0.196700	0.062520
C51	C5	0.911800	0.205300	0.014610
H41	H4	0.828100	0.229300	0.006100
C61	C6	0.991600	0.179000	0.979570
C71	C7	0.116400	0.139600	0.993860
H51	H5	0.170600	0.116400	0.971100
C81	C8	0.861900	0.217100	0.099470
C91	C9	0.948700	0.187900	0.928230
C101	C10	0.821200	0.208200	0.913090
H61	H6	0.763200	0.216900	0.935600
C111	C11	0.777300	0.215900	0.865450
C121	C12	0.864200	0.206200	0.831390
C131	C13	0.991400	0.183000	0.846210
H71	H7	0.049500	0.173500	0.823700
C141	C14	0.032600	0.174100	0.893010
H81	H8	0.117900	0.158500	0.901600
C151	C15	0.637900	0.234300	0.853980
C161	C16	0.584600	0.365900	0.855240
H91	H9	0.636100	0.441700	0.863400
C171	C17	0.454800	0.386500	0.844400
C181	C18	0.377900	0.272300	0.833030
H101	H10	0.291900	0.284800	0.825100
C191	C19	0.429600	0.139700	0.833560
C201	C20	0.559400	0.121500	0.843510
H111	H11	0.593700	0.032800	0.843100
C211	C21	0.403800	0.531400	0.845370
C221	C22	0.346900	0.015700	0.822230
C231	C23	0.828700	0.224700	0.779520
C241	C24	0.441700	0.322500	0.991360
H121	H12	0.458800	0.285300	0.962400
C251	C25	0.306900	0.464700	0.035620
H131	H13	0.229700	0.516000	0.029700
H141	H14	0.296000	0.394800	0.058900
H151	H15	0.373600	0.526500	0.046900
C261	C26	0.260700	0.430700	0.949110
H161	H16	0.190500	0.487300	0.956400
H171	H17	0.310200	0.479600	0.927700
H181	H18	0.229800	0.345800	0.934700
Mn31	Mn3	0.447880	0.694680	0.405750
Mn41	Mn4	0.232300	0.760410	0.809130
O131	O13	0.648570	0.648700	0.409460
O141	O14	0.413600	0.493400	0.438770
H191	H19	0.343400	0.501500	0.457700
H201	H20	0.487600	0.466200	0.458300
O151	O15	0.656200	0.505100	0.471220
O161	O16	0.095600	0.715300	0.358020
O171	O17	0.251600	0.734300	0.414290
O181	O18	0.527200	0.120100	0.632800
O191	O19	0.702500	0.055700	0.675820
O201	O20	0.612300	0.395800	0.664310
O211	O21	0.758600	0.529900	0.699590
O221	O22	0.089300	0.709900	0.749430
O231	O23	0.281000	0.757100	0.735230
O241	O24	0.483300	0.796100	0.474520
N21	N2	0.660900	0.899300	0.507630
C271	C27	0.704900	0.592200	0.445660
C281	C28	0.839100	0.634400	0.459160
C291	C29	0.920800	0.664800	0.424540
H211	H21	0.891100	0.663600	0.392900
C301	C30	0.046000	0.696700	0.437480
C311	C31	0.088200	0.705300	0.485390
H221	H22	0.171900	0.729300	0.493900
C321	C32	0.008400	0.679000	0.520430
C331	C33	0.883600	0.639600	0.506140
H231	H23	0.829400	0.616400	0.528900
C341	C34	0.138100	0.717100	0.400530
C351	C35	0.051300	0.687900	0.571770
C361	C36	0.178800	0.708200	0.586910
H241	H24	0.236800	0.716900	0.564400
C371	C37	0.222700	0.715900	0.634550
C381	C38	0.135800	0.706200	0.668610
C391	C39	0.008600	0.683000	0.653790
H251	H25	0.950500	0.673500	0.676300
C401	C40	0.967400	0.674100	0.606990
H261	H26	0.882100	0.658500	0.598400
C411	C41	0.362100	0.734300	0.646020
C421	C42	0.415400	0.865900	0.644760
H271	H27	0.363900	0.941700	0.636600
C431	C43	0.545200	0.886500	0.655600
C441	C44	0.622100	0.772300	0.666970
H281	H28	0.708100	0.784800	0.674900
C451	C45	0.570400	0.639700	0.666440
C461	C46	0.440600	0.621500	0.656490
H291	H29	0.406300	0.532800	0.656900
C471	C47	0.596200	0.031400	0.654630
C481	C48	0.653100	0.515700	0.677770
C491	C49	0.171300	0.724700	0.720480
C501	C50	0.558300	0.822500	0.508640
H301	H30	0.541200	0.785300	0.537600
C511	C51	0.693100	0.964700	0.464380
H311	H31	0.770300	0.016000	0.470300
H321	H32	0.704000	0.894800	0.441100
H331	H33	0.626400	0.026500	0.453100
C521	C52	0.739300	0.930700	0.550890
H341	H34	0.809500	0.987300	0.543600
H351	H35	0.689800	0.979600	0.572300
H361	H36	0.770200	0.845800	0.565300
Mn51	Mn5	0.447880	0.805320	0.905750
Mn61	Mn6	0.232300	0.739590	0.309130
O251	O25	0.648570	0.851300	0.909460
O261	O26	0.413600	0.006600	0.938770
H371	H37	0.343400	0.998500	0.957700
H381	H38	0.487600	0.033800	0.958300
O271	O27	0.656200	0.994900	0.971220
O281	O28	0.095600	0.784700	0.858020
O291	O29	0.251600	0.765700	0.914290
O301	O30	0.527200	0.379900	0.132800
O311	O31	0.702500	0.444300	0.175820
O321	O32	0.612300	0.104200	0.164310
O331	O33	0.758600	0.970100	0.199590
O341	O34	0.089300	0.790100	0.249430
O351	O35	0.281000	0.742900	0.235230
O361	O36	0.483300	0.703900	0.974520
N31	N3	0.660900	0.600700	0.007630
C531	C53	0.704900	0.907800	0.945660
C541	C54	0.839100	0.865600	0.959160
C551	C55	0.920800	0.835200	0.924540
H391	H39	0.891100	0.836400	0.892900
C561	C56	0.046000	0.803300	0.937480
C571	C57	0.088200	0.794700	0.985390
H401	H40	0.171900	0.770700	0.993900
C581	C58	0.008400	0.821000	0.020430
C591	C59	0.883600	0.860400	0.006140
H411	H41	0.829400	0.883600	0.028900
C601	C60	0.138100	0.782900	0.900530
C611	C61	0.051300	0.812100	0.071770
C621	C62	0.178800	0.791800	0.086910
H421	H42	0.236800	0.783100	0.064400
C631	C63	0.222700	0.784100	0.134550
C641	C64	0.135800	0.793800	0.168610
C651	C65	0.008600	0.817000	0.153790
H431	H43	0.950500	0.826500	0.176300
C661	C66	0.967400	0.825900	0.106990
H441	H44	0.882100	0.841500	0.098400
C671	C67	0.362100	0.765700	0.146020
C681	C68	0.415400	0.634100	0.144760
H451	H45	0.363900	0.558300	0.136600
C691	C69	0.545200	0.613500	0.155600
C701	C70	0.622100	0.727700	0.166970
H461	H46	0.708100	0.715200	0.174900
C711	C71	0.570400	0.860300	0.166440
C721	C72	0.440600	0.878500	0.156490
H471	H47	0.406300	0.967200	0.156900
C731	C73	0.596200	0.468600	0.154630
C741	C74	0.653100	0.984300	0.177770
C751	C75	0.171300	0.775300	0.220480
C761	C76	0.558300	0.677500	0.008640
H481	H48	0.541200	0.714700	0.037600
C771	C77	0.693100	0.535300	0.964380
H491	H49	0.770300	0.484000	0.970300
H501	H50	0.704000	0.605200	0.941100
H511	H51	0.626400	0.473500	0.953100
C781	C78	0.739300	0.569300	0.050890
H521	H52	0.809500	0.512700	0.043600
H531	H53	0.689800	0.520400	0.072300
H541	H54	0.770200	0.654200	0.065300
Mn71	Mn7	0.552120	0.305320	0.594250
Mn81	Mn8	0.767700	0.239590	0.190870
O371	O37	0.351430	0.351300	0.590540
O381	O38	0.586400	0.506600	0.561230
H551	H55	0.656600	0.498500	0.542300
H561	H56	0.512400	0.533800	0.541700
O391	O39	0.343800	0.494900	0.528780
O401	O40	0.904400	0.284700	0.641980
O411	O41	0.748400	0.265700	0.585710
O421	O42	0.472800	0.879900	0.367200
O431	O43	0.297500	0.944300	0.324180
O441	O44	0.387700	0.604200	0.335690
O451	O45	0.241400	0.470100	0.300410
O461	O46	0.910700	0.290100	0.250570
O471	O47	0.719000	0.242900	0.264770
O481	O48	0.516700	0.203900	0.525480
N41	N4	0.339100	0.100700	0.492370
C791	C79	0.295100	0.407800	0.554340
C801	C80	0.160900	0.365600	0.540840
C811	C81	0.079200	0.335200	0.575460
H571	H57	0.108900	0.336400	0.607100
C821	C82	0.954000	0.303300	0.562520
C831	C83	0.911800	0.294700	0.514610
H581	H58	0.828100	0.270700	0.506100
C841	C84	0.991600	0.321000	0.479570
C851	C85	0.116400	0.360400	0.493860
H591	H59	0.170600	0.383600	0.471100
C861	C86	0.861900	0.282900	0.599470
C871	C87	0.948700	0.312100	0.428230
C881	C88	0.821200	0.291800	0.413090
H601	H60	0.763200	0.283100	0.435600
C891	C89	0.777300	0.284100	0.365450
C901	C90	0.864200	0.293800	0.331390
C911	C91	0.991400	0.317000	0.346210
H611	H61	0.049500	0.326500	0.323700
C921	C92	0.032600	0.325900	0.393010
H621	H62	0.117900	0.341500	0.401600
C931	C93	0.637900	0.265700	0.353980
C941	C94	0.584600	0.134100	0.355240
H631	H63	0.636100	0.058300	0.363400
C951	C95	0.454800	0.113500	0.344400
C961	C96	0.377900	0.227700	0.333030
H641	H64	0.291900	0.215200	0.325100
C971	C97	0.429600	0.360300	0.333560
C981	C98	0.559400	0.378500	0.343510
H651	H65	0.593700	0.467200	0.343100
C991	C99	0.403800	0.968600	0.345370
C1001	C100	0.346900	0.484300	0.322230
C1011	C101	0.828700	0.275300	0.279520
C1021	C102	0.441700	0.177500	0.491360
H661	H66	0.458800	0.214700	0.462400
C1031	C103	0.306900	0.035300	0.535620
H671	H67	0.229700	0.984000	0.529700
H681	H68	0.296000	0.105200	0.558900
H691	H69	0.373600	0.973500	0.546900
C1041	C104	0.260700	0.069300	0.449110
H701	H70	0.190500	0.012700	0.456400
H711	H71	0.310200	0.020400	0.427700
H721	H72	0.229800	0.154200	0.434700
