data_INIRAA_freeONLY_PM
_symmetry_space_group_name_H-M	'P1'
_cell_length_a	9.000800
_cell_length_b	27.894400
_cell_length_c	10.979800
_cell_angle_alpha	90.000000
_cell_angle_beta	98.694000
_cell_angle_gamma	90.000000
_symmetry_Int_Tables_number 1

loop_
_symmetry_equiv_pos_as_xyz
'x,y,z'

loop_
_atom_site_label
_atom_site_type_symbol
_atom_site_fract_x
_atom_site_fract_y
_atom_site_fract_z
Mo11	Mo1	0.412500	0.351100	0.626190
C11	C1	0.658300	0.473340	0.337400
H11	H1	0.743500	0.487050	0.382600
C21	C2	0.572400	0.501310	0.249100
H21	H2	0.598700	0.533070	0.237700
C31	C3	0.446300	0.481440	0.177600
C41	C4	0.414700	0.433850	0.201200
H31	H3	0.332500	0.418760	0.155400
C51	C5	0.504900	0.409110	0.292200
H41	H4	0.480200	0.377440	0.306600
C61	C6	0.345700	0.509640	0.083300
C71	C7	0.349500	0.559560	0.085200
H51	H5	0.418000	0.575590	0.143000
C81	C8	0.279000	0.663880	0.110900
H61	H6	0.295500	0.647320	0.185200
C91	C9	0.283200	0.713420	0.110600
H71	H7	0.308300	0.729960	0.184400
N11	N1	0.626400	0.427970	0.361600
O11	O1	0.167900	0.815070	0.915010
O21	O2	0.566800	0.384620	0.593700
O31	O3	0.366800	0.370870	0.763810
O41	O4	0.461100	0.291340	0.638500
Mo21	Mo2	0.912500	0.851100	0.126190
C101	C10	0.158300	0.973340	0.837400
H81	H8	0.243500	0.987050	0.882600
C111	C11	0.072400	0.001310	0.749100
H91	H9	0.098700	0.033070	0.737700
C121	C12	0.946300	0.981440	0.677600
C131	C13	0.914700	0.933850	0.701200
H101	H10	0.832500	0.918760	0.655400
C141	C14	0.004900	0.909110	0.792200
H111	H11	0.980200	0.877440	0.806600
C151	C15	0.845700	0.009640	0.583300
C161	C16	0.849500	0.059560	0.585200
H121	H12	0.918000	0.075590	0.643000
C171	C17	0.779000	0.163880	0.610900
H131	H13	0.795500	0.147320	0.685200
C181	C18	0.783200	0.213420	0.610600
H141	H14	0.808300	0.229960	0.684400
N21	N2	0.126400	0.927970	0.861600
O51	O5	0.667900	0.315070	0.415010
O61	O6	0.066800	0.884620	0.093700
O71	O7	0.866800	0.870870	0.263810
O81	O8	0.961100	0.791340	0.138500
Mo31	Mo3	0.087500	0.351100	0.373810
C191	C19	0.841700	0.473340	0.662600
H151	H15	0.756500	0.487050	0.617400
C201	C20	0.927600	0.501310	0.750900
H161	H16	0.901300	0.533070	0.762300
C211	C21	0.053700	0.481440	0.822400
C221	C22	0.085300	0.433850	0.798800
H171	H17	0.167500	0.418760	0.844600
C231	C23	0.995100	0.409110	0.707800
H181	H18	0.019800	0.377440	0.693400
C241	C24	0.154300	0.509640	0.916700
C251	C25	0.150500	0.559560	0.914800
H191	H19	0.082000	0.575590	0.857000
C261	C26	0.221000	0.663880	0.889100
H201	H20	0.204500	0.647320	0.814800
C271	C27	0.216800	0.713420	0.889400
H211	H21	0.191700	0.729960	0.815600
N31	N3	0.873600	0.427970	0.638400
O91	O9	0.332100	0.815070	0.084990
O101	O10	0.933200	0.384620	0.406300
O111	O11	0.133200	0.370870	0.236190
O121	O12	0.038900	0.291340	0.361500
Mo41	Mo4	0.587500	0.851100	0.873810
C281	C28	0.341700	0.973340	0.162600
H221	H22	0.256500	0.987050	0.117400
C291	C29	0.427600	0.001310	0.250900
H231	H23	0.401300	0.033070	0.262300
C301	C30	0.553700	0.981440	0.322400
C311	C31	0.585300	0.933850	0.298800
H241	H24	0.667500	0.918760	0.344600
C321	C32	0.495100	0.909110	0.207800
H251	H25	0.519800	0.877440	0.193400
C331	C33	0.654300	0.009640	0.416700
C341	C34	0.650500	0.059560	0.414800
H261	H26	0.582000	0.075590	0.357000
C351	C35	0.721000	0.163880	0.389100
H271	H27	0.704500	0.147320	0.314800
C361	C36	0.716800	0.213420	0.389400
H281	H28	0.691700	0.229960	0.315600
N41	N4	0.373600	0.927970	0.138400
O131	O13	0.832100	0.315070	0.584990
O141	O14	0.433200	0.884620	0.906300
O151	O15	0.633200	0.870870	0.736190
O161	O16	0.538900	0.791340	0.861500
Co11	Co1	0.750000	0.383320	0.500000
Co21	Co2	0.250000	0.883320	0.000000
C371	C37	0.250000	0.585320	0.000000
C381	C38	0.250000	0.638550	0.000000
C391	C39	0.250000	0.738800	0.000000
C401	C40	0.250000	0.792740	0.000000
N51	N5	0.250000	0.484610	0.000000
C411	C41	0.750000	0.085320	0.500000
C421	C42	0.750000	0.138550	0.500000
C431	C43	0.750000	0.238800	0.500000
C441	C44	0.750000	0.292740	0.500000
N61	N6	0.750000	0.984610	0.500000
O171	O17	0.250000	0.361120	0.500000
O181	O18	0.750000	0.861120	0.000000
Mo51	Mo5	0.587500	0.648900	0.373810
C451	C45	0.341700	0.526660	0.662600
H291	H29	0.256500	0.512950	0.617400
C461	C46	0.427600	0.498690	0.750900
H301	H30	0.401300	0.466930	0.762300
C471	C47	0.553700	0.518560	0.822400
C481	C48	0.585300	0.566150	0.798800
H311	H31	0.667500	0.581240	0.844600
C491	C49	0.495100	0.590890	0.707800
H321	H32	0.519800	0.622560	0.693400
C501	C50	0.654300	0.490360	0.916700
C511	C51	0.650500	0.440440	0.914800
H331	H33	0.582000	0.424410	0.857000
C521	C52	0.721000	0.336120	0.889100
H341	H34	0.704500	0.352680	0.814800
C531	C53	0.716800	0.286580	0.889400
H351	H35	0.691700	0.270040	0.815600
N71	N7	0.373600	0.572030	0.638400
O191	O19	0.832100	0.184930	0.084990
O201	O20	0.433200	0.615380	0.406300
O211	O21	0.633200	0.629130	0.236190
O221	O22	0.538900	0.708660	0.361500
Mo61	Mo6	0.087500	0.148900	0.873810
C541	C54	0.841700	0.026660	0.162600
H361	H36	0.756500	0.012950	0.117400
C551	C55	0.927600	0.998690	0.250900
H371	H37	0.901300	0.966930	0.262300
C561	C56	0.053700	0.018560	0.322400
C571	C57	0.085300	0.066150	0.298800
H381	H38	0.167500	0.081240	0.344600
C581	C58	0.995100	0.090890	0.207800
H391	H39	0.019800	0.122560	0.193400
C591	C59	0.154300	0.990360	0.416700
C601	C60	0.150500	0.940440	0.414800
H401	H40	0.082000	0.924410	0.357000
C611	C61	0.221000	0.836120	0.389100
H411	H41	0.204500	0.852680	0.314800
C621	C62	0.216800	0.786580	0.389400
H421	H42	0.191700	0.770040	0.315600
N81	N8	0.873600	0.072030	0.138400
O231	O23	0.332100	0.684930	0.584990
O241	O24	0.933200	0.115380	0.906300
O251	O25	0.133200	0.129130	0.736190
O261	O26	0.038900	0.208660	0.861500
Mo71	Mo7	0.912500	0.648900	0.626190
C631	C63	0.158300	0.526660	0.337400
H431	H43	0.243500	0.512950	0.382600
C641	C64	0.072400	0.498690	0.249100
H441	H44	0.098700	0.466930	0.237700
C651	C65	0.946300	0.518560	0.177600
C661	C66	0.914700	0.566150	0.201200
H451	H45	0.832500	0.581240	0.155400
C671	C67	0.004900	0.590890	0.292200
H461	H46	0.980200	0.622560	0.306600
C681	C68	0.845700	0.490360	0.083300
C691	C69	0.849500	0.440440	0.085200
H471	H47	0.918000	0.424410	0.143000
C701	C70	0.779000	0.336120	0.110900
H481	H48	0.795500	0.352680	0.185200
C711	C71	0.783200	0.286580	0.110600
H491	H49	0.808300	0.270040	0.184400
N91	N9	0.126400	0.572030	0.361600
O271	O27	0.667900	0.184930	0.915010
O281	O28	0.066800	0.615380	0.593700
O291	O29	0.866800	0.629130	0.763810
O301	O30	0.961100	0.708660	0.638500
Mo81	Mo8	0.412500	0.148900	0.126190
C721	C72	0.658300	0.026660	0.837400
H501	H50	0.743500	0.012950	0.882600
C731	C73	0.572400	0.998690	0.749100
H511	H51	0.598700	0.966930	0.737700
C741	C74	0.446300	0.018560	0.677600
C751	C75	0.414700	0.066150	0.701200
H521	H52	0.332500	0.081240	0.655400
C761	C76	0.504900	0.090890	0.792200
H531	H53	0.480200	0.122560	0.806600
C771	C77	0.345700	0.990360	0.583300
C781	C78	0.349500	0.940440	0.585200
H541	H54	0.418000	0.924410	0.643000
C791	C79	0.279000	0.836120	0.610900
H551	H55	0.295500	0.852680	0.685200
C801	C80	0.283200	0.786580	0.610600
H561	H56	0.308300	0.770040	0.684400
N101	N10	0.626400	0.072030	0.861600
O311	O31	0.167900	0.684930	0.415010
O321	O32	0.566800	0.115380	0.093700
O331	O33	0.366800	0.129130	0.263810
O341	O34	0.461100	0.208660	0.138500
Co31	Co3	0.250000	0.616680	0.500000
Co41	Co4	0.750000	0.116680	0.000000
C811	C81	0.750000	0.414680	0.000000
C821	C82	0.750000	0.361450	0.000000
C831	C83	0.750000	0.261200	0.000000
C841	C84	0.750000	0.207260	0.000000
N111	N11	0.750000	0.515390	0.000000
C851	C85	0.250000	0.914680	0.500000
C861	C86	0.250000	0.861450	0.500000
C871	C87	0.250000	0.761200	0.500000
C881	C88	0.250000	0.707260	0.500000
N121	N12	0.250000	0.015390	0.500000
O351	O35	0.750000	0.638880	0.500000
O361	O36	0.250000	0.138880	0.000000
