data_IPIJEY_freeONLY_PM
_symmetry_space_group_name_H-M	'P1'
_cell_length_a	18.580000
_cell_length_b	9.962000
_cell_length_c	32.732000
_cell_angle_alpha	90.000000
_cell_angle_beta	90.000000
_cell_angle_gamma	90.000000
_symmetry_Int_Tables_number 1

loop_
_symmetry_equiv_pos_as_xyz
'x,y,z'

loop_
_atom_site_label
_atom_site_type_symbol
_atom_site_fract_x
_atom_site_fract_y
_atom_site_fract_z
Zn11	Zn1	0.080700	0.274610	0.058600
Zn21	Zn2	0.064300	0.028280	0.218910
O11	O1	0.159140	0.001560	0.240010
O21	O2	0.990230	0.393900	0.068960
H11	H1	0.951100	0.345300	0.069600
H21	H2	0.985300	0.453100	0.049400
O31	O3	0.173250	0.824000	0.200440
O41	O4	0.938180	0.611950	0.026990
O51	O5	0.955470	0.799460	0.992880
N11	N1	0.145420	0.403000	0.092460
N21	N2	0.190150	0.222500	0.039790
N31	N3	0.057600	0.125640	0.098570
N41	N4	0.070540	0.141590	0.138080
N51	N5	0.052570	0.031290	0.158510
N61	N6	0.445340	0.723380	0.234670
N71	N7	0.504360	0.782840	0.247180
N81	N8	0.490200	0.908330	0.258460
C11	C1	0.208600	0.128900	0.012430
H31	H3	0.172500	0.080700	0.999300
C21	C2	0.279300	0.101500	0.003060
H41	H4	0.290700	0.035700	0.984000
C31	C3	0.331800	0.171800	0.022050
H51	H5	0.380000	0.155400	0.016000
C41	C4	0.313600	0.266700	0.050040
H61	H6	0.349300	0.315300	0.063400
C51	C5	0.242120	0.291000	0.058650
C61	C6	0.216600	0.391300	0.088660
C71	C7	0.263000	0.468400	0.111870
H71	H7	0.312600	0.458200	0.109300
C81	C8	0.235300	0.559200	0.138470
H81	H8	0.266000	0.613600	0.153600
C91	C9	0.163400	0.570800	0.143010
H91	H9	0.143900	0.631400	0.161600
C101	C10	0.119400	0.490100	0.119330
H101	H10	0.069800	0.497300	0.122400
C111	C11	0.029490	0.999900	0.093120
C121	C12	0.006800	0.933200	0.058070
H111	H11	0.008500	0.974300	0.032600
C131	C13	0.981870	0.804700	0.062520
C141	C14	0.956910	0.730200	0.025000
C151	C15	0.979570	0.743600	0.101210
H121	H12	0.962600	0.656100	0.103300
C161	C16	0.001470	0.808300	0.135870
H131	H13	0.999600	0.767000	0.161300
C171	C17	0.026830	0.939800	0.131210
C181	C18	0.196300	0.908700	0.223820
C191	C19	0.275200	0.912000	0.234850
C201	C20	0.304050	0.029900	0.252180
H141	H14	0.273400	0.101100	0.258000
C211	C21	0.375720	0.042500	0.260620
H151	H15	0.395000	0.121700	0.271000
C221	C22	0.418500	0.930300	0.252920
C231	C23	0.389850	0.812600	0.237170
C241	C24	0.317160	0.803900	0.226590
H161	H16	0.298300	0.727300	0.214400
Zn31	Zn3	0.419300	0.725390	0.558600
Zn41	Zn4	0.435700	0.971720	0.718910
O61	O6	0.340860	0.998440	0.740010
O71	O7	0.509770	0.606100	0.568960
H171	H17	0.548900	0.654700	0.569600
H181	H18	0.514700	0.546900	0.549400
O81	O8	0.326750	0.176000	0.700440
O91	O9	0.561820	0.388050	0.526990
O101	O10	0.544530	0.200540	0.492880
N91	N9	0.354580	0.597000	0.592460
N101	N10	0.309850	0.777500	0.539790
N111	N11	0.442400	0.874360	0.598570
N121	N12	0.429460	0.858410	0.638080
N131	N13	0.447430	0.968710	0.658510
N141	N14	0.054660	0.276620	0.734670
N151	N15	0.995640	0.217160	0.747180
N161	N16	0.009800	0.091670	0.758460
C251	C25	0.291400	0.871100	0.512430
H191	H19	0.327500	0.919300	0.499300
C261	C26	0.220700	0.898500	0.503060
H201	H20	0.209300	0.964300	0.484000
C271	C27	0.168200	0.828200	0.522050
H211	H21	0.120000	0.844600	0.516000
C281	C28	0.186400	0.733300	0.550040
H221	H22	0.150700	0.684700	0.563400
C291	C29	0.257880	0.709000	0.558650
C301	C30	0.283400	0.608700	0.588660
C311	C31	0.237000	0.531600	0.611870
H231	H23	0.187400	0.541800	0.609300
C321	C32	0.264700	0.440800	0.638470
H241	H24	0.234000	0.386400	0.653600
C331	C33	0.336600	0.429200	0.643010
H251	H25	0.356100	0.368600	0.661600
C341	C34	0.380600	0.509900	0.619330
H261	H26	0.430200	0.502700	0.622400
C351	C35	0.470510	0.000100	0.593120
C361	C36	0.493200	0.066800	0.558070
H271	H27	0.491500	0.025700	0.532600
C371	C37	0.518130	0.195300	0.562520
C381	C38	0.543090	0.269800	0.525000
C391	C39	0.520430	0.256400	0.601210
H281	H28	0.537400	0.343900	0.603300
C401	C40	0.498530	0.191700	0.635870
H291	H29	0.500400	0.233000	0.661300
C411	C41	0.473170	0.060200	0.631210
C421	C42	0.303700	0.091300	0.723820
C431	C43	0.224800	0.088000	0.734850
C441	C44	0.195950	0.970100	0.752180
H301	H30	0.226600	0.898900	0.758000
C451	C45	0.124280	0.957500	0.760620
H311	H31	0.105000	0.878300	0.771000
C461	C46	0.081500	0.069700	0.752920
C471	C47	0.110150	0.187400	0.737170
C481	C48	0.182840	0.196100	0.726590
H321	H32	0.201700	0.272700	0.714400
Zn51	Zn5	0.919300	0.774610	0.441400
Zn61	Zn6	0.935700	0.528280	0.281090
O111	O11	0.840860	0.501560	0.259990
O121	O12	0.009770	0.893900	0.431040
H331	H33	0.048900	0.845300	0.430400
H341	H34	0.014700	0.953100	0.450600
O131	O13	0.826750	0.324000	0.299560
O141	O14	0.061820	0.111950	0.473010
O151	O15	0.044530	0.299460	0.507120
N171	N17	0.854580	0.903000	0.407540
N181	N18	0.809850	0.722500	0.460210
N191	N19	0.942400	0.625640	0.401430
N201	N20	0.929460	0.641590	0.361920
N211	N21	0.947430	0.531290	0.341490
N221	N22	0.554660	0.223380	0.265330
N231	N23	0.495640	0.282840	0.252820
N241	N24	0.509800	0.408330	0.241540
C491	C49	0.791400	0.628900	0.487570
H351	H35	0.827500	0.580700	0.500700
C501	C50	0.720700	0.601500	0.496940
H361	H36	0.709300	0.535700	0.516000
C511	C51	0.668200	0.671800	0.477950
H371	H37	0.620000	0.655400	0.484000
C521	C52	0.686400	0.766700	0.449960
H381	H38	0.650700	0.815300	0.436600
C531	C53	0.757880	0.791000	0.441350
C541	C54	0.783400	0.891300	0.411340
C551	C55	0.737000	0.968400	0.388130
H391	H39	0.687400	0.958200	0.390700
C561	C56	0.764700	0.059200	0.361530
H401	H40	0.734000	0.113600	0.346400
C571	C57	0.836600	0.070800	0.356990
H411	H41	0.856100	0.131400	0.338400
C581	C58	0.880600	0.990100	0.380670
H421	H42	0.930200	0.997300	0.377600
C591	C59	0.970510	0.499900	0.406880
C601	C60	0.993200	0.433200	0.441930
H431	H43	0.991500	0.474300	0.467400
C611	C61	0.018130	0.304700	0.437480
C621	C62	0.043090	0.230200	0.475000
C631	C63	0.020430	0.243600	0.398790
H441	H44	0.037400	0.156100	0.396700
C641	C64	0.998530	0.308300	0.364130
H451	H45	0.000400	0.267000	0.338700
C651	C65	0.973170	0.439800	0.368790
C661	C66	0.803700	0.408700	0.276180
C671	C67	0.724800	0.412000	0.265150
C681	C68	0.695950	0.529900	0.247820
H461	H46	0.726600	0.601100	0.242000
C691	C69	0.624280	0.542500	0.239380
H471	H47	0.605000	0.621700	0.229000
C701	C70	0.581500	0.430300	0.247080
C711	C71	0.610150	0.312600	0.262830
C721	C72	0.682840	0.303900	0.273410
H481	H48	0.701700	0.227300	0.285600
Zn71	Zn7	0.580700	0.225390	0.941400
Zn81	Zn8	0.564300	0.471720	0.781090
O161	O16	0.659140	0.498440	0.759990
O171	O17	0.490230	0.106100	0.931040
H491	H49	0.451100	0.154700	0.930400
H501	H50	0.485300	0.046900	0.950600
O181	O18	0.673250	0.676000	0.799560
O191	O19	0.438180	0.888050	0.973010
O201	O20	0.455470	0.700540	0.007120
N251	N25	0.645420	0.097000	0.907540
N261	N26	0.690150	0.277500	0.960210
N271	N27	0.557600	0.374360	0.901430
N281	N28	0.570540	0.358410	0.861920
N291	N29	0.552570	0.468710	0.841490
N301	N30	0.945340	0.776620	0.765330
N311	N31	0.004360	0.717160	0.752820
N321	N32	0.990200	0.591670	0.741540
C731	C73	0.708600	0.371100	0.987570
H511	H51	0.672500	0.419300	0.000700
C741	C74	0.779300	0.398500	0.996940
H521	H52	0.790700	0.464300	0.016000
C751	C75	0.831800	0.328200	0.977950
H531	H53	0.880000	0.344600	0.984000
C761	C76	0.813600	0.233300	0.949960
H541	H54	0.849300	0.184700	0.936600
C771	C77	0.742120	0.209000	0.941350
C781	C78	0.716600	0.108700	0.911340
C791	C79	0.763000	0.031600	0.888130
H551	H55	0.812600	0.041800	0.890700
C801	C80	0.735300	0.940800	0.861530
H561	H56	0.766000	0.886400	0.846400
C811	C81	0.663400	0.929200	0.856990
H571	H57	0.643900	0.868600	0.838400
C821	C82	0.619400	0.009900	0.880670
H581	H58	0.569800	0.002700	0.877600
C831	C83	0.529490	0.500100	0.906880
C841	C84	0.506800	0.566800	0.941930
H591	H59	0.508500	0.525700	0.967400
C851	C85	0.481870	0.695300	0.937480
C861	C86	0.456910	0.769800	0.975000
C871	C87	0.479570	0.756400	0.898790
H601	H60	0.462600	0.843900	0.896700
C881	C88	0.501470	0.691700	0.864130
H611	H61	0.499600	0.733000	0.838700
C891	C89	0.526830	0.560200	0.868790
C901	C90	0.696300	0.591300	0.776180
C911	C91	0.775200	0.588000	0.765150
C921	C92	0.804050	0.470100	0.747820
H621	H62	0.773400	0.398900	0.742000
C931	C93	0.875720	0.457500	0.739380
H631	H63	0.895000	0.378300	0.729000
C941	C94	0.918500	0.569700	0.747080
C951	C95	0.889850	0.687400	0.762830
C961	C96	0.817160	0.696100	0.773410
H641	H64	0.798300	0.772700	0.785600
Zn91	Zn9	0.919300	0.725390	0.941400
Zn101	Zn10	0.935700	0.971720	0.781090
O211	O21	0.840860	0.998440	0.759990
O221	O22	0.009770	0.606100	0.931040
H651	H65	0.048900	0.654700	0.930400
H661	H66	0.014700	0.546900	0.950600
O231	O23	0.826750	0.176000	0.799560
O241	O24	0.061820	0.388050	0.973010
O251	O25	0.044530	0.200540	0.007120
N331	N33	0.854580	0.597000	0.907540
N341	N34	0.809850	0.777500	0.960210
N351	N35	0.942400	0.874360	0.901430
N361	N36	0.929460	0.858410	0.861920
N371	N37	0.947430	0.968710	0.841490
N381	N38	0.554660	0.276620	0.765330
N391	N39	0.495640	0.217160	0.752820
N401	N40	0.509800	0.091670	0.741540
C971	C97	0.791400	0.871100	0.987570
H671	H67	0.827500	0.919300	0.000700
C981	C98	0.720700	0.898500	0.996940
H681	H68	0.709300	0.964300	0.016000
C991	C99	0.668200	0.828200	0.977950
H691	H69	0.620000	0.844600	0.984000
C1001	C100	0.686400	0.733300	0.949960
H701	H70	0.650700	0.684700	0.936600
C1011	C101	0.757880	0.709000	0.941350
C1021	C102	0.783400	0.608700	0.911340
C1031	C103	0.737000	0.531600	0.888130
H711	H71	0.687400	0.541800	0.890700
C1041	C104	0.764700	0.440800	0.861530
H721	H72	0.734000	0.386400	0.846400
C1051	C105	0.836600	0.429200	0.856990
H731	H73	0.856100	0.368600	0.838400
C1061	C106	0.880600	0.509900	0.880670
H741	H74	0.930200	0.502700	0.877600
C1071	C107	0.970510	0.000100	0.906880
C1081	C108	0.993200	0.066800	0.941930
H751	H75	0.991500	0.025700	0.967400
C1091	C109	0.018130	0.195300	0.937480
C1101	C110	0.043090	0.269800	0.975000
C1111	C111	0.020430	0.256400	0.898790
H761	H76	0.037400	0.343900	0.896700
C1121	C112	0.998530	0.191700	0.864130
H771	H77	0.000400	0.233000	0.838700
C1131	C113	0.973170	0.060200	0.868790
C1141	C114	0.803700	0.091300	0.776180
C1151	C115	0.724800	0.088000	0.765150
C1161	C116	0.695950	0.970100	0.747820
H781	H78	0.726600	0.898900	0.742000
C1171	C117	0.624280	0.957500	0.739380
H791	H79	0.605000	0.878300	0.729000
C1181	C118	0.581500	0.069700	0.747080
C1191	C119	0.610150	0.187400	0.762830
C1201	C120	0.682840	0.196100	0.773410
H801	H80	0.701700	0.272700	0.785600
Zn111	Zn11	0.580700	0.274610	0.441400
Zn121	Zn12	0.564300	0.028280	0.281090
O261	O26	0.659140	0.001560	0.259990
O271	O27	0.490230	0.393900	0.431040
H811	H81	0.451100	0.345300	0.430400
H821	H82	0.485300	0.453100	0.450600
O281	O28	0.673250	0.824000	0.299560
O291	O29	0.438180	0.611950	0.473010
O301	O30	0.455470	0.799460	0.507120
N411	N41	0.645420	0.403000	0.407540
N421	N42	0.690150	0.222500	0.460210
N431	N43	0.557600	0.125640	0.401430
N441	N44	0.570540	0.141590	0.361920
N451	N45	0.552570	0.031290	0.341490
N461	N46	0.945340	0.723380	0.265330
N471	N47	0.004360	0.782840	0.252820
N481	N48	0.990200	0.908330	0.241540
C1211	C121	0.708600	0.128900	0.487570
H831	H83	0.672500	0.080700	0.500700
C1221	C122	0.779300	0.101500	0.496940
H841	H84	0.790700	0.035700	0.516000
C1231	C123	0.831800	0.171800	0.477950
H851	H85	0.880000	0.155400	0.484000
C1241	C124	0.813600	0.266700	0.449960
H861	H86	0.849300	0.315300	0.436600
C1251	C125	0.742120	0.291000	0.441350
C1261	C126	0.716600	0.391300	0.411340
C1271	C127	0.763000	0.468400	0.388130
H871	H87	0.812600	0.458200	0.390700
C1281	C128	0.735300	0.559200	0.361530
H881	H88	0.766000	0.613600	0.346400
C1291	C129	0.663400	0.570800	0.356990
H891	H89	0.643900	0.631400	0.338400
C1301	C130	0.619400	0.490100	0.380670
H901	H90	0.569800	0.497300	0.377600
C1311	C131	0.529490	0.999900	0.406880
C1321	C132	0.506800	0.933200	0.441930
H911	H91	0.508500	0.974300	0.467400
C1331	C133	0.481870	0.804700	0.437480
C1341	C134	0.456910	0.730200	0.475000
C1351	C135	0.479570	0.743600	0.398790
H921	H92	0.462600	0.656100	0.396700
C1361	C136	0.501470	0.808300	0.364130
H931	H93	0.499600	0.767000	0.338700
C1371	C137	0.526830	0.939800	0.368790
C1381	C138	0.696300	0.908700	0.276180
C1391	C139	0.775200	0.912000	0.265150
C1401	C140	0.804050	0.029900	0.247820
H941	H94	0.773400	0.101100	0.242000
C1411	C141	0.875720	0.042500	0.239380
H951	H95	0.895000	0.121700	0.229000
C1421	C142	0.918500	0.930300	0.247080
C1431	C143	0.889850	0.812600	0.262830
C1441	C144	0.817160	0.803900	0.273410
H961	H96	0.798300	0.727300	0.285600
Zn131	Zn13	0.080700	0.225390	0.558600
Zn141	Zn14	0.064300	0.471720	0.718910
O311	O31	0.159140	0.498440	0.740010
O321	O32	0.990230	0.106100	0.568960
H971	H97	0.951100	0.154700	0.569600
H981	H98	0.985300	0.046900	0.549400
O331	O33	0.173250	0.676000	0.700440
O341	O34	0.938180	0.888050	0.526990
O351	O35	0.955470	0.700540	0.492880
N491	N49	0.145420	0.097000	0.592460
N501	N50	0.190150	0.277500	0.539790
N511	N51	0.057600	0.374360	0.598570
N521	N52	0.070540	0.358410	0.638080
N531	N53	0.052570	0.468710	0.658510
N541	N54	0.445340	0.776620	0.734670
N551	N55	0.504360	0.717160	0.747180
N561	N56	0.490200	0.591670	0.758460
C1451	C145	0.208600	0.371100	0.512430
H991	H99	0.172500	0.419300	0.499300
C1461	C146	0.279300	0.398500	0.503060
H1001	H100	0.290700	0.464300	0.484000
C1471	C147	0.331800	0.328200	0.522050
H1011	H101	0.380000	0.344600	0.516000
C1481	C148	0.313600	0.233300	0.550040
H1021	H102	0.349300	0.184700	0.563400
C1491	C149	0.242120	0.209000	0.558650
C1501	C150	0.216600	0.108700	0.588660
C1511	C151	0.263000	0.031600	0.611870
H1031	H103	0.312600	0.041800	0.609300
C1521	C152	0.235300	0.940800	0.638470
H1041	H104	0.266000	0.886400	0.653600
C1531	C153	0.163400	0.929200	0.643010
H1051	H105	0.143900	0.868600	0.661600
C1541	C154	0.119400	0.009900	0.619330
H1061	H106	0.069800	0.002700	0.622400
C1551	C155	0.029490	0.500100	0.593120
C1561	C156	0.006800	0.566800	0.558070
H1071	H107	0.008500	0.525700	0.532600
C1571	C157	0.981870	0.695300	0.562520
C1581	C158	0.956910	0.769800	0.525000
C1591	C159	0.979570	0.756400	0.601210
H1081	H108	0.962600	0.843900	0.603300
C1601	C160	0.001470	0.691700	0.635870
H1091	H109	0.999600	0.733000	0.661300
C1611	C161	0.026830	0.560200	0.631210
C1621	C162	0.196300	0.591300	0.723820
C1631	C163	0.275200	0.588000	0.734850
C1641	C164	0.304050	0.470100	0.752180
H1101	H110	0.273400	0.398900	0.758000
C1651	C165	0.375720	0.457500	0.760620
H1111	H111	0.395000	0.378300	0.771000
C1661	C166	0.418500	0.569700	0.752920
C1671	C167	0.389850	0.687400	0.737170
C1681	C168	0.317160	0.696100	0.726590
H1121	H112	0.298300	0.772700	0.714400
Zn151	Zn15	0.419300	0.774610	0.058600
Zn161	Zn16	0.435700	0.528280	0.218910
O361	O36	0.340860	0.501560	0.240010
O371	O37	0.509770	0.893900	0.068960
H1131	H113	0.548900	0.845300	0.069600
H1141	H114	0.514700	0.953100	0.049400
O381	O38	0.326750	0.324000	0.200440
O391	O39	0.561820	0.111950	0.026990
O401	O40	0.544530	0.299460	0.992880
N571	N57	0.354580	0.903000	0.092460
N581	N58	0.309850	0.722500	0.039790
N591	N59	0.442400	0.625640	0.098570
N601	N60	0.429460	0.641590	0.138080
N611	N61	0.447430	0.531290	0.158510
N621	N62	0.054660	0.223380	0.234670
N631	N63	0.995640	0.282840	0.247180
N641	N64	0.009800	0.408330	0.258460
C1691	C169	0.291400	0.628900	0.012430
H1151	H115	0.327500	0.580700	0.999300
C1701	C170	0.220700	0.601500	0.003060
H1161	H116	0.209300	0.535700	0.984000
C1711	C171	0.168200	0.671800	0.022050
H1171	H117	0.120000	0.655400	0.016000
C1721	C172	0.186400	0.766700	0.050040
H1181	H118	0.150700	0.815300	0.063400
C1731	C173	0.257880	0.791000	0.058650
C1741	C174	0.283400	0.891300	0.088660
C1751	C175	0.237000	0.968400	0.111870
H1191	H119	0.187400	0.958200	0.109300
C1761	C176	0.264700	0.059200	0.138470
H1201	H120	0.234000	0.113600	0.153600
C1771	C177	0.336600	0.070800	0.143010
H1211	H121	0.356100	0.131400	0.161600
C1781	C178	0.380600	0.990100	0.119330
H1221	H122	0.430200	0.997300	0.122400
C1791	C179	0.470510	0.499900	0.093120
C1801	C180	0.493200	0.433200	0.058070
H1231	H123	0.491500	0.474300	0.032600
C1811	C181	0.518130	0.304700	0.062520
C1821	C182	0.543090	0.230200	0.025000
C1831	C183	0.520430	0.243600	0.101210
H1241	H124	0.537400	0.156100	0.103300
C1841	C184	0.498530	0.308300	0.135870
H1251	H125	0.500400	0.267000	0.161300
C1851	C185	0.473170	0.439800	0.131210
C1861	C186	0.303700	0.408700	0.223820
C1871	C187	0.224800	0.412000	0.234850
C1881	C188	0.195950	0.529900	0.252180
H1261	H126	0.226600	0.601100	0.258000
C1891	C189	0.124280	0.542500	0.260620
H1271	H127	0.105000	0.621700	0.271000
C1901	C190	0.081500	0.430300	0.252920
C1911	C191	0.110150	0.312600	0.237170
C1921	C192	0.182840	0.303900	0.226590
H1281	H128	0.201700	0.227300	0.214400
