data_IPIMEA_freeONLY_PM
_symmetry_space_group_name_H-M	'P1'
_cell_length_a	27.657000
_cell_length_b	19.775000
_cell_length_c	9.508000
_cell_angle_alpha	90.000000
_cell_angle_beta	90.000000
_cell_angle_gamma	90.000000
_symmetry_Int_Tables_number 1

loop_
_symmetry_equiv_pos_as_xyz
'x,y,z'

loop_
_atom_site_label
_atom_site_type_symbol
_atom_site_fract_x
_atom_site_fract_y
_atom_site_fract_z
La11	La1	0.132600	0.362040	0.748170
S11	S1	0.129970	0.255210	0.489220
O11	O1	0.217220	0.418690	0.661600
O21	O2	0.218210	0.335670	0.840000
O31	O3	0.171510	0.288330	0.557700
O41	O4	0.042960	0.349800	0.776400
O51	O5	0.132340	0.263200	0.335600
O61	O6	0.087110	0.288700	0.548000
O71	O7	0.136480	0.461500	0.901800
O81	O8	0.128930	0.182370	0.515100
O91	O9	0.075910	0.452460	0.079900
O101	O10	0.882320	0.448300	0.564700
O111	O11	0.942790	0.469100	0.393300
O121	O12	0.055510	0.331300	0.228000
La21	La2	0.632600	0.862040	0.748170
S21	S2	0.629970	0.755210	0.489220
O131	O13	0.717220	0.918690	0.661600
O141	O14	0.718210	0.835670	0.840000
O151	O15	0.671510	0.788330	0.557700
O161	O16	0.542960	0.849800	0.776400
O171	O17	0.632340	0.763200	0.335600
O181	O18	0.587110	0.788700	0.548000
O191	O19	0.636480	0.961500	0.901800
O201	O20	0.628930	0.682370	0.515100
O211	O21	0.575910	0.952460	0.079900
O221	O22	0.382320	0.948300	0.564700
O231	O23	0.442790	0.969100	0.393300
O241	O24	0.555510	0.831300	0.228000
La31	La3	0.867400	0.137960	0.248170
S31	S3	0.870030	0.244790	0.989220
O251	O25	0.782780	0.081310	0.161600
O261	O26	0.781790	0.164330	0.340000
O271	O27	0.828490	0.211670	0.057700
O281	O28	0.957040	0.150200	0.276400
O291	O29	0.867660	0.236800	0.835600
O301	O30	0.912890	0.211300	0.048000
O311	O31	0.863520	0.038500	0.401800
O321	O32	0.871070	0.317630	0.015100
O331	O33	0.924090	0.047540	0.579900
O341	O34	0.117680	0.051700	0.064700
O351	O35	0.057210	0.030900	0.893300
O361	O36	0.944490	0.168700	0.728000
La41	La4	0.367400	0.637960	0.248170
S41	S4	0.370030	0.744790	0.989220
O371	O37	0.282780	0.581310	0.161600
O381	O38	0.281790	0.664330	0.340000
O391	O39	0.328490	0.711670	0.057700
O401	O40	0.457040	0.650200	0.276400
O411	O41	0.367660	0.736800	0.835600
O421	O42	0.412890	0.711300	0.048000
O431	O43	0.363520	0.538500	0.401800
O441	O44	0.371070	0.817630	0.015100
O451	O45	0.424090	0.547540	0.579900
O461	O46	0.617680	0.551700	0.064700
O471	O47	0.557210	0.530900	0.893300
O481	O48	0.444490	0.668700	0.728000
La51	La5	0.867400	0.862040	0.751830
S51	S5	0.870030	0.755210	0.010780
O491	O49	0.782780	0.918690	0.838400
O501	O50	0.781790	0.835670	0.660000
O511	O51	0.828490	0.788330	0.942300
O521	O52	0.957040	0.849800	0.723600
O531	O53	0.867660	0.763200	0.164400
O541	O54	0.912890	0.788700	0.952000
O551	O55	0.863520	0.961500	0.598200
O561	O56	0.871070	0.682370	0.984900
O571	O57	0.924090	0.952460	0.420100
O581	O58	0.117680	0.948300	0.935300
O591	O59	0.057210	0.969100	0.106700
O601	O60	0.944490	0.831300	0.272000
La61	La6	0.367400	0.362040	0.751830
S61	S6	0.370030	0.255210	0.010780
O611	O61	0.282780	0.418690	0.838400
O621	O62	0.281790	0.335670	0.660000
O631	O63	0.328490	0.288330	0.942300
O641	O64	0.457040	0.349800	0.723600
O651	O65	0.367660	0.263200	0.164400
O661	O66	0.412890	0.288700	0.952000
O671	O67	0.363520	0.461500	0.598200
O681	O68	0.371070	0.182370	0.984900
O691	O69	0.424090	0.452460	0.420100
O701	O70	0.617680	0.448300	0.935300
O711	O71	0.557210	0.469100	0.106700
O721	O72	0.444490	0.331300	0.272000
La71	La7	0.132600	0.637960	0.251830
S71	S7	0.129970	0.744790	0.510780
O731	O73	0.217220	0.581310	0.338400
O741	O74	0.218210	0.664330	0.160000
O751	O75	0.171510	0.711670	0.442300
O761	O76	0.042960	0.650200	0.223600
O771	O77	0.132340	0.736800	0.664400
O781	O78	0.087110	0.711300	0.452000
O791	O79	0.136480	0.538500	0.098200
O801	O80	0.128930	0.817630	0.484900
O811	O81	0.075910	0.547540	0.920100
O821	O82	0.882320	0.551700	0.435300
O831	O83	0.942790	0.530900	0.606700
O841	O84	0.055510	0.668700	0.772000
La81	La8	0.632600	0.137960	0.251830
S81	S8	0.629970	0.244790	0.510780
O851	O85	0.717220	0.081310	0.338400
O861	O86	0.718210	0.164330	0.160000
O871	O87	0.671510	0.211670	0.442300
O881	O88	0.542960	0.150200	0.223600
O891	O89	0.632340	0.236800	0.664400
O901	O90	0.587110	0.211300	0.452000
O911	O91	0.636480	0.038500	0.098200
O921	O92	0.628930	0.317630	0.484900
O931	O93	0.575910	0.047540	0.920100
O941	O94	0.382320	0.051700	0.435300
O951	O95	0.442790	0.030900	0.606700
O961	O96	0.555510	0.168700	0.772000
La91	La9	0.867400	0.637960	0.251830
S91	S9	0.870030	0.744790	0.510780
O971	O97	0.782780	0.581310	0.338400
O981	O98	0.781790	0.664330	0.160000
O991	O99	0.828490	0.711670	0.442300
O1001	O100	0.957040	0.650200	0.223600
O1011	O101	0.867660	0.736800	0.664400
O1021	O102	0.912890	0.711300	0.452000
O1031	O103	0.863520	0.538500	0.098200
O1041	O104	0.871070	0.817630	0.484900
O1051	O105	0.924090	0.547540	0.920100
O1061	O106	0.117680	0.551700	0.435300
O1071	O107	0.057210	0.530900	0.606700
O1081	O108	0.944490	0.668700	0.772000
La101	La10	0.367400	0.137960	0.251830
S101	S10	0.370030	0.244790	0.510780
O1091	O109	0.282780	0.081310	0.338400
O1101	O110	0.281790	0.164330	0.160000
O1111	O111	0.328490	0.211670	0.442300
O1121	O112	0.457040	0.150200	0.223600
O1131	O113	0.367660	0.236800	0.664400
O1141	O114	0.412890	0.211300	0.452000
O1151	O115	0.363520	0.038500	0.098200
O1161	O116	0.371070	0.317630	0.484900
O1171	O117	0.424090	0.047540	0.920100
O1181	O118	0.617680	0.051700	0.435300
O1191	O119	0.557210	0.030900	0.606700
O1201	O120	0.444490	0.168700	0.772000
La111	La11	0.132600	0.862040	0.751830
S111	S11	0.129970	0.755210	0.010780
O1211	O121	0.217220	0.918690	0.838400
O1221	O122	0.218210	0.835670	0.660000
O1231	O123	0.171510	0.788330	0.942300
O1241	O124	0.042960	0.849800	0.723600
O1251	O125	0.132340	0.763200	0.164400
O1261	O126	0.087110	0.788700	0.952000
O1271	O127	0.136480	0.961500	0.598200
O1281	O128	0.128930	0.682370	0.984900
O1291	O129	0.075910	0.952460	0.420100
O1301	O130	0.882320	0.948300	0.935300
O1311	O131	0.942790	0.969100	0.106700
O1321	O132	0.055510	0.831300	0.272000
La121	La12	0.632600	0.362040	0.751830
S121	S12	0.629970	0.255210	0.010780
O1331	O133	0.717220	0.418690	0.838400
O1341	O134	0.718210	0.335670	0.660000
O1351	O135	0.671510	0.288330	0.942300
O1361	O136	0.542960	0.349800	0.723600
O1371	O137	0.632340	0.263200	0.164400
O1381	O138	0.587110	0.288700	0.952000
O1391	O139	0.636480	0.461500	0.598200
O1401	O140	0.628930	0.182370	0.984900
O1411	O141	0.575910	0.452460	0.420100
O1421	O142	0.382320	0.448300	0.935300
O1431	O143	0.442790	0.469100	0.106700
O1441	O144	0.555510	0.331300	0.272000
La131	La13	0.132600	0.137960	0.248170
S131	S13	0.129970	0.244790	0.989220
O1451	O145	0.217220	0.081310	0.161600
O1461	O146	0.218210	0.164330	0.340000
O1471	O147	0.171510	0.211670	0.057700
O1481	O148	0.042960	0.150200	0.276400
O1491	O149	0.132340	0.236800	0.835600
O1501	O150	0.087110	0.211300	0.048000
O1511	O151	0.136480	0.038500	0.401800
O1521	O152	0.128930	0.317630	0.015100
O1531	O153	0.075910	0.047540	0.579900
O1541	O154	0.882320	0.051700	0.064700
O1551	O155	0.942790	0.030900	0.893300
O1561	O156	0.055510	0.168700	0.728000
La141	La14	0.632600	0.637960	0.248170
S141	S14	0.629970	0.744790	0.989220
O1571	O157	0.717220	0.581310	0.161600
O1581	O158	0.718210	0.664330	0.340000
O1591	O159	0.671510	0.711670	0.057700
O1601	O160	0.542960	0.650200	0.276400
O1611	O161	0.632340	0.736800	0.835600
O1621	O162	0.587110	0.711300	0.048000
O1631	O163	0.636480	0.538500	0.401800
O1641	O164	0.628930	0.817630	0.015100
O1651	O165	0.575910	0.547540	0.579900
O1661	O166	0.382320	0.551700	0.064700
O1671	O167	0.442790	0.530900	0.893300
O1681	O168	0.555510	0.668700	0.728000
La151	La15	0.867400	0.362040	0.748170
S151	S15	0.870030	0.255210	0.489220
O1691	O169	0.782780	0.418690	0.661600
O1701	O170	0.781790	0.335670	0.840000
O1711	O171	0.828490	0.288330	0.557700
O1721	O172	0.957040	0.349800	0.776400
O1731	O173	0.867660	0.263200	0.335600
O1741	O174	0.912890	0.288700	0.548000
O1751	O175	0.863520	0.461500	0.901800
O1761	O176	0.871070	0.182370	0.515100
O1771	O177	0.924090	0.452460	0.079900
O1781	O178	0.117680	0.448300	0.564700
O1791	O179	0.057210	0.469100	0.393300
O1801	O180	0.944490	0.331300	0.228000
La161	La16	0.367400	0.862040	0.748170
S161	S16	0.370030	0.755210	0.489220
O1811	O181	0.282780	0.918690	0.661600
O1821	O182	0.281790	0.835670	0.840000
O1831	O183	0.328490	0.788330	0.557700
O1841	O184	0.457040	0.849800	0.776400
O1851	O185	0.367660	0.763200	0.335600
O1861	O186	0.412890	0.788700	0.548000
O1871	O187	0.363520	0.961500	0.901800
O1881	O188	0.371070	0.682370	0.515100
O1891	O189	0.424090	0.952460	0.079900
O1901	O190	0.617680	0.948300	0.564700
O1911	O191	0.557210	0.969100	0.393300
O1921	O192	0.444490	0.831300	0.228000
La171	La17	0.000000	0.432570	0.213450
S171	S17	0.000000	0.375450	0.848800
Na11	Na1	0.000000	0.242250	0.118500
O1931	O193	0.000000	0.352400	0.995200
O1941	O194	0.000000	0.448200	0.846500
O1951	O195	0.000000	0.361100	0.470000
La181	La18	0.500000	0.932570	0.213450
S181	S18	0.500000	0.875450	0.848800
Na21	Na2	0.500000	0.742250	0.118500
O1961	O196	0.500000	0.852400	0.995200
O1971	O197	0.500000	0.948200	0.846500
O1981	O198	0.500000	0.861100	0.470000
La191	La19	0.000000	0.067430	0.713450
S191	S19	0.000000	0.124550	0.348800
Na31	Na3	0.000000	0.257750	0.618500
O1991	O199	0.000000	0.147600	0.495200
O2001	O200	0.000000	0.051800	0.346500
O2011	O201	0.000000	0.138900	0.970000
La201	La20	0.500000	0.567430	0.713450
S201	S20	0.500000	0.624550	0.348800
Na41	Na4	0.500000	0.757750	0.618500
O2021	O202	0.500000	0.647600	0.495200
O2031	O203	0.500000	0.551800	0.346500
O2041	O204	0.500000	0.638900	0.970000
La211	La21	0.000000	0.932570	0.286550
S211	S21	0.000000	0.875450	0.651200
Na51	Na5	0.000000	0.742250	0.381500
O2051	O205	0.000000	0.852400	0.504800
O2061	O206	0.000000	0.948200	0.653500
O2071	O207	0.000000	0.861100	0.030000
La221	La22	0.500000	0.432570	0.286550
S221	S22	0.500000	0.375450	0.651200
Na61	Na6	0.500000	0.242250	0.381500
O2081	O208	0.500000	0.352400	0.504800
O2091	O209	0.500000	0.448200	0.653500
O2101	O210	0.500000	0.361100	0.030000
La231	La23	0.000000	0.567430	0.786550
S231	S23	0.000000	0.624550	0.151200
Na71	Na7	0.000000	0.757750	0.881500
O2111	O211	0.000000	0.647600	0.004800
O2121	O212	0.000000	0.551800	0.153500
O2131	O213	0.000000	0.638900	0.530000
La241	La24	0.500000	0.067430	0.786550
S241	S24	0.500000	0.124550	0.151200
Na81	Na8	0.500000	0.257750	0.881500
O2141	O214	0.500000	0.147600	0.004800
O2151	O215	0.500000	0.051800	0.153500
O2161	O216	0.500000	0.138900	0.530000
S251	S25	0.105220	0.500000	0.000000
S261	S26	0.605220	0.000000	0.000000
S271	S27	0.894780	0.000000	0.500000
S281	S28	0.394780	0.500000	0.500000
S291	S29	0.894780	0.500000	0.000000
S301	S30	0.394780	0.000000	0.000000
S311	S31	0.105220	0.000000	0.500000
S321	S32	0.605220	0.500000	0.500000
S331	S33	0.250000	0.376810	0.750000
S341	S34	0.750000	0.123190	0.250000
S351	S35	0.750000	0.876810	0.750000
S361	S36	0.250000	0.623190	0.250000
S371	S37	0.750000	0.623190	0.250000
S381	S38	0.250000	0.123190	0.250000
S391	S39	0.250000	0.876810	0.750000
S401	S40	0.750000	0.376810	0.750000
S411	S41	0.912730	0.500000	0.500000
S421	S42	0.412730	0.000000	0.500000
S431	S43	0.087270	0.000000	0.000000
S441	S44	0.587270	0.500000	0.000000
S451	S45	0.087270	0.500000	0.500000
S461	S46	0.587270	0.000000	0.500000
S471	S47	0.912730	0.000000	0.000000
S481	S48	0.412730	0.500000	0.000000
