data_IQEKOG_freeONLY_PM
_symmetry_space_group_name_H-M	'P1'
_cell_length_a	18.087000
_cell_length_b	24.867000
_cell_length_c	17.611000
_cell_angle_alpha	90.000000
_cell_angle_beta	90.000000
_cell_angle_gamma	90.000000
_symmetry_Int_Tables_number 1

loop_
_symmetry_equiv_pos_as_xyz
'x,y,z'

loop_
_atom_site_label
_atom_site_type_symbol
_atom_site_fract_x
_atom_site_fract_y
_atom_site_fract_z
Zn11	Zn1	0.036420	0.564370	0.185930
Zn21	Zn2	0.937140	0.318040	0.240360
C11	C1	0.024700	0.517100	0.341900
C21	C2	0.835300	0.183900	0.268300
C31	C3	0.985000	0.438400	0.178600
C41	C4	0.038000	0.441000	0.972300
H11	H1	0.081000	0.447300	0.942600
C51	C5	0.915600	0.417700	0.978900
H21	H2	0.870400	0.408300	0.954800
C61	C6	0.093900	0.132600	0.300500
C71	C7	0.966700	0.390200	0.367500
C81	C8	0.029600	0.168300	0.290900
C91	C9	0.978200	0.422300	0.298500
C101	C10	0.023900	0.222800	0.276000
C111	C11	0.004100	0.474100	0.288400
C121	C12	0.913100	0.189200	0.276800
C131	C13	0.981500	0.432500	0.094400
C141	C14	0.043700	0.443400	0.049700
H31	H3	0.089400	0.452500	0.072900
C151	C15	0.917400	0.418000	0.057700
H41	H4	0.874700	0.408200	0.086000
C161	C16	0.711700	0.177500	0.313800
H51	H5	0.681200	0.175500	0.357600
C171	C17	0.190600	0.534500	0.221600
H61	H6	0.172900	0.530300	0.272100
C181	C18	0.080200	0.264400	0.265900
C191	C19	0.307500	0.505700	0.268400
H71	H7	0.279800	0.504500	0.316200
H81	H8	0.348800	0.531000	0.273300
H91	H9	0.326800	0.469800	0.256700
C201	C20	0.799800	0.183900	0.203000
H101	H10	0.828900	0.184800	0.158100
C211	C21	0.930600	0.274100	0.973400
H111	H11	0.918700	0.235800	0.968100
H121	H12	0.938000	0.289900	0.923000
H131	H13	0.889800	0.292500	0.999200
C221	C22	0.991900	0.292600	0.087900
H141	H14	0.037200	0.295900	0.114800
C231	C23	0.721400	0.182800	0.193500
H151	H15	0.700200	0.186300	0.144400
C241	C24	0.288100	0.529900	0.130900
H161	H16	0.313900	0.497000	0.115300
H171	H17	0.322600	0.560300	0.129800
H181	H18	0.247000	0.536900	0.096100
C251	C25	0.070700	0.273600	0.977800
H191	H19	0.110300	0.284200	0.012700
H201	H20	0.072100	0.296600	0.932600
H211	H21	0.077500	0.236000	0.962600
C261	C26	0.786200	0.180400	0.323900
H221	H22	0.804300	0.180000	0.374600
N11	N1	0.996600	0.279900	0.017000
N21	N2	0.965100	0.400000	0.228200
N31	N3	0.009300	0.484200	0.211800
N41	N4	0.959600	0.148200	0.292400
N51	N5	0.951800	0.236400	0.266200
N61	N6	0.681200	0.177200	0.250100
N71	N7	0.259400	0.523000	0.208100
N81	N8	0.972200	0.429600	0.935500
O11	O1	0.946900	0.342200	0.359600
O21	O2	0.977800	0.412600	0.432000
O31	O3	0.045000	0.560900	0.316900
O41	O4	0.017600	0.507400	0.413400
H231	H23	0.972600	0.503400	0.423900
O51	O5	0.080600	0.084500	0.308500
O61	O6	0.158600	0.153500	0.300900
O71	O7	0.063200	0.310100	0.246200
O81	O8	0.148700	0.251000	0.278100
H241	H24	0.170900	0.248000	0.236400
O91	O9	0.146600	0.550600	0.172700
O101	O10	0.934800	0.300700	0.124400
Zn31	Zn3	0.463580	0.935630	0.185930
Zn41	Zn4	0.562860	0.181960	0.240360
C271	C27	0.475300	0.982900	0.341900
C281	C28	0.664700	0.316100	0.268300
C291	C29	0.515000	0.061600	0.178600
C301	C30	0.462000	0.059000	0.972300
H251	H25	0.419000	0.052700	0.942600
C311	C31	0.584400	0.082300	0.978900
H261	H26	0.629600	0.091700	0.954800
C321	C32	0.406100	0.367400	0.300500
C331	C33	0.533300	0.109800	0.367500
C341	C34	0.470400	0.331700	0.290900
C351	C35	0.521800	0.077700	0.298500
C361	C36	0.476100	0.277200	0.276000
C371	C37	0.495900	0.025900	0.288400
C381	C38	0.586900	0.310800	0.276800
C391	C39	0.518500	0.067500	0.094400
C401	C40	0.456300	0.056600	0.049700
H271	H27	0.410600	0.047500	0.072900
C411	C41	0.582600	0.082000	0.057700
H281	H28	0.625300	0.091800	0.086000
C421	C42	0.788300	0.322500	0.313800
H291	H29	0.818800	0.324500	0.357600
C431	C43	0.309400	0.965500	0.221600
H301	H30	0.327100	0.969700	0.272100
C441	C44	0.419800	0.235600	0.265900
C451	C45	0.192500	0.994300	0.268400
H311	H31	0.220200	0.995500	0.316200
H321	H32	0.151200	0.969000	0.273300
H331	H33	0.173200	0.030200	0.256700
C461	C46	0.700200	0.316100	0.203000
H341	H34	0.671100	0.315200	0.158100
C471	C47	0.569400	0.225900	0.973400
H351	H35	0.581300	0.264200	0.968100
H361	H36	0.562000	0.210100	0.923000
H371	H37	0.610200	0.207500	0.999200
C481	C48	0.508100	0.207400	0.087900
H381	H38	0.462800	0.204100	0.114800
C491	C49	0.778600	0.317200	0.193500
H391	H39	0.799800	0.313700	0.144400
C501	C50	0.211900	0.970100	0.130900
H401	H40	0.186100	0.003000	0.115300
H411	H41	0.177400	0.939700	0.129800
H421	H42	0.253000	0.963100	0.096100
C511	C51	0.429300	0.226400	0.977800
H431	H43	0.389700	0.215800	0.012700
H441	H44	0.427900	0.203400	0.932600
H451	H45	0.422500	0.264000	0.962600
C521	C52	0.713800	0.319600	0.323900
H461	H46	0.695700	0.320000	0.374600
N91	N9	0.503400	0.220100	0.017000
N101	N10	0.534900	0.100000	0.228200
N111	N11	0.490700	0.015800	0.211800
N121	N12	0.540400	0.351800	0.292400
N131	N13	0.548200	0.263600	0.266200
N141	N14	0.818800	0.322800	0.250100
N151	N15	0.240600	0.977000	0.208100
N161	N16	0.527800	0.070400	0.935500
O111	O11	0.553100	0.157800	0.359600
O121	O12	0.522200	0.087400	0.432000
O131	O13	0.455000	0.939100	0.316900
O141	O14	0.482400	0.992600	0.413400
H471	H47	0.527400	0.996600	0.423900
O151	O15	0.419400	0.415500	0.308500
O161	O16	0.341400	0.346500	0.300900
O171	O17	0.436800	0.189900	0.246200
O181	O18	0.351300	0.249000	0.278100
H481	H48	0.329100	0.252000	0.236400
O191	O19	0.353400	0.949400	0.172700
O201	O20	0.565200	0.199300	0.124400
Zn51	Zn5	0.963580	0.064370	0.314070
Zn61	Zn6	0.062860	0.818040	0.259640
C531	C53	0.975300	0.017100	0.158100
C541	C54	0.164700	0.683900	0.231700
C551	C55	0.015000	0.938400	0.321400
C561	C56	0.962000	0.941000	0.527700
H491	H49	0.919000	0.947300	0.557400
C571	C57	0.084400	0.917700	0.521100
H501	H50	0.129600	0.908300	0.545200
C581	C58	0.906100	0.632600	0.199500
C591	C59	0.033300	0.890200	0.132500
C601	C60	0.970400	0.668300	0.209100
C611	C61	0.021800	0.922300	0.201500
C621	C62	0.976100	0.722800	0.224000
C631	C63	0.995900	0.974100	0.211600
C641	C64	0.086900	0.689200	0.223200
C651	C65	0.018500	0.932500	0.405600
C661	C66	0.956300	0.943400	0.450300
H511	H51	0.910600	0.952500	0.427100
C671	C67	0.082600	0.918000	0.442300
H521	H52	0.125300	0.908200	0.414000
C681	C68	0.288300	0.677500	0.186200
H531	H53	0.318800	0.675500	0.142400
C691	C69	0.809400	0.034500	0.278400
H541	H54	0.827100	0.030300	0.227900
C701	C70	0.919800	0.764400	0.234100
C711	C71	0.692500	0.005700	0.231600
H551	H55	0.720200	0.004500	0.183800
H561	H56	0.651200	0.031000	0.226700
H571	H57	0.673200	0.969800	0.243300
C721	C72	0.200200	0.683900	0.297000
H581	H58	0.171100	0.684800	0.341900
C731	C73	0.069400	0.774100	0.526600
H591	H59	0.081300	0.735800	0.531900
H601	H60	0.062000	0.789900	0.577000
H611	H61	0.110200	0.792500	0.500800
C741	C74	0.008100	0.792600	0.412100
H621	H62	0.962800	0.795900	0.385200
C751	C75	0.278600	0.682800	0.306500
H631	H63	0.299800	0.686300	0.355600
C761	C76	0.711900	0.029900	0.369100
H641	H64	0.686100	0.997000	0.384700
H651	H65	0.677400	0.060300	0.370200
H661	H66	0.753000	0.036900	0.403900
C771	C77	0.929300	0.773600	0.522200
H671	H67	0.889700	0.784200	0.487300
H681	H68	0.927900	0.796600	0.567400
H691	H69	0.922500	0.736000	0.537400
C781	C78	0.213800	0.680400	0.176100
H701	H70	0.195700	0.680000	0.125400
N171	N17	0.003400	0.779900	0.483000
N181	N18	0.034900	0.900000	0.271800
N191	N19	0.990700	0.984200	0.288200
N201	N20	0.040400	0.648200	0.207600
N211	N21	0.048200	0.736400	0.233800
N221	N22	0.318800	0.677200	0.249900
N231	N23	0.740600	0.023000	0.291900
N241	N24	0.027800	0.929600	0.564500
O211	O21	0.053100	0.842200	0.140400
O221	O22	0.022200	0.912600	0.068000
O231	O23	0.955000	0.060900	0.183100
O241	O24	0.982400	0.007400	0.086600
H711	H71	0.027400	0.003400	0.076100
O251	O25	0.919400	0.584500	0.191500
O261	O26	0.841400	0.653500	0.199100
O271	O27	0.936800	0.810100	0.253800
O281	O28	0.851300	0.751000	0.221900
H721	H72	0.829100	0.748000	0.263600
O291	O29	0.853400	0.050600	0.327300
O301	O30	0.065200	0.800700	0.375600
Zn71	Zn7	0.536420	0.435630	0.314070
Zn81	Zn8	0.437140	0.681960	0.259640
C791	C79	0.524700	0.482900	0.158100
C801	C80	0.335300	0.816100	0.231700
C811	C81	0.485000	0.561600	0.321400
C821	C82	0.538000	0.559000	0.527700
H731	H73	0.581000	0.552700	0.557400
C831	C83	0.415600	0.582300	0.521100
H741	H74	0.370400	0.591700	0.545200
C841	C84	0.593900	0.867400	0.199500
C851	C85	0.466700	0.609800	0.132500
C861	C86	0.529600	0.831700	0.209100
C871	C87	0.478200	0.577700	0.201500
C881	C88	0.523900	0.777200	0.224000
C891	C89	0.504100	0.525900	0.211600
C901	C90	0.413100	0.810800	0.223200
C911	C91	0.481500	0.567500	0.405600
C921	C92	0.543700	0.556600	0.450300
H751	H75	0.589400	0.547500	0.427100
C931	C93	0.417400	0.582000	0.442300
H761	H76	0.374700	0.591800	0.414000
C941	C94	0.211700	0.822500	0.186200
H771	H77	0.181200	0.824500	0.142400
C951	C95	0.690600	0.465500	0.278400
H781	H78	0.672900	0.469700	0.227900
C961	C96	0.580200	0.735600	0.234100
C971	C97	0.807500	0.494300	0.231600
H791	H79	0.779800	0.495500	0.183800
H801	H80	0.848800	0.469000	0.226700
H811	H81	0.826800	0.530200	0.243300
C981	C98	0.299800	0.816100	0.297000
H821	H82	0.328900	0.815200	0.341900
C991	C99	0.430600	0.725900	0.526600
H831	H83	0.418700	0.764200	0.531900
H841	H84	0.438000	0.710100	0.577000
H851	H85	0.389800	0.707500	0.500800
C1001	C100	0.491900	0.707400	0.412100
H861	H86	0.537200	0.704100	0.385200
C1011	C101	0.221400	0.817200	0.306500
H871	H87	0.200200	0.813700	0.355600
C1021	C102	0.788100	0.470100	0.369100
H881	H88	0.813900	0.503000	0.384700
H891	H89	0.822600	0.439700	0.370200
H901	H90	0.747000	0.463100	0.403900
C1031	C103	0.570700	0.726400	0.522200
H911	H91	0.610300	0.715800	0.487300
H921	H92	0.572100	0.703400	0.567400
H931	H93	0.577500	0.764000	0.537400
C1041	C104	0.286200	0.819600	0.176100
H941	H94	0.304300	0.820000	0.125400
N251	N25	0.496600	0.720100	0.483000
N261	N26	0.465100	0.600000	0.271800
N271	N27	0.509300	0.515800	0.288200
N281	N28	0.459600	0.851800	0.207600
N291	N29	0.451800	0.763600	0.233800
N301	N30	0.181200	0.822800	0.249900
N311	N31	0.759400	0.477000	0.291900
N321	N32	0.472200	0.570400	0.564500
O311	O31	0.446900	0.657800	0.140400
O321	O32	0.477800	0.587400	0.068000
O331	O33	0.545000	0.439100	0.183100
O341	O34	0.517600	0.492600	0.086600
H951	H95	0.472600	0.496600	0.076100
O351	O35	0.580600	0.915500	0.191500
O361	O36	0.658600	0.846500	0.199100
O371	O37	0.563200	0.689900	0.253800
O381	O38	0.648700	0.749000	0.221900
H961	H96	0.670900	0.752000	0.263600
O391	O39	0.646600	0.449400	0.327300
O401	O40	0.434800	0.699300	0.375600
Zn91	Zn9	0.963580	0.435630	0.814070
Zn101	Zn10	0.062860	0.681960	0.759640
C1051	C105	0.975300	0.482900	0.658100
C1061	C106	0.164700	0.816100	0.731700
C1071	C107	0.015000	0.561600	0.821400
C1081	C108	0.962000	0.559000	0.027700
H971	H97	0.919000	0.552700	0.057400
C1091	C109	0.084400	0.582300	0.021100
H981	H98	0.129600	0.591700	0.045200
C1101	C110	0.906100	0.867400	0.699500
C1111	C111	0.033300	0.609800	0.632500
C1121	C112	0.970400	0.831700	0.709100
C1131	C113	0.021800	0.577700	0.701500
C1141	C114	0.976100	0.777200	0.724000
C1151	C115	0.995900	0.525900	0.711600
C1161	C116	0.086900	0.810800	0.723200
C1171	C117	0.018500	0.567500	0.905600
C1181	C118	0.956300	0.556600	0.950300
H991	H99	0.910600	0.547500	0.927100
C1191	C119	0.082600	0.582000	0.942300
H1001	H100	0.125300	0.591800	0.914000
C1201	C120	0.288300	0.822500	0.686200
H1011	H101	0.318800	0.824500	0.642400
C1211	C121	0.809400	0.465500	0.778400
H1021	H102	0.827100	0.469700	0.727900
C1221	C122	0.919800	0.735600	0.734100
C1231	C123	0.692500	0.494300	0.731600
H1031	H103	0.720200	0.495500	0.683800
H1041	H104	0.651200	0.469000	0.726700
H1051	H105	0.673200	0.530200	0.743300
C1241	C124	0.200200	0.816100	0.797000
H1061	H106	0.171100	0.815200	0.841900
C1251	C125	0.069400	0.725900	0.026600
H1071	H107	0.081300	0.764200	0.031900
H1081	H108	0.062000	0.710100	0.077000
H1091	H109	0.110200	0.707500	0.000800
C1261	C126	0.008100	0.707400	0.912100
H1101	H110	0.962800	0.704100	0.885200
C1271	C127	0.278600	0.817200	0.806500
H1111	H111	0.299800	0.813700	0.855600
C1281	C128	0.711900	0.470100	0.869100
H1121	H112	0.686100	0.503000	0.884700
H1131	H113	0.677400	0.439700	0.870200
H1141	H114	0.753000	0.463100	0.903900
C1291	C129	0.929300	0.726400	0.022200
H1151	H115	0.889700	0.715800	0.987300
H1161	H116	0.927900	0.703400	0.067400
H1171	H117	0.922500	0.764000	0.037400
C1301	C130	0.213800	0.819600	0.676100
H1181	H118	0.195700	0.820000	0.625400
N331	N33	0.003400	0.720100	0.983000
N341	N34	0.034900	0.600000	0.771800
N351	N35	0.990700	0.515800	0.788200
N361	N36	0.040400	0.851800	0.707600
N371	N37	0.048200	0.763600	0.733800
N381	N38	0.318800	0.822800	0.749900
N391	N39	0.740600	0.477000	0.791900
N401	N40	0.027800	0.570400	0.064500
O411	O41	0.053100	0.657800	0.640400
O421	O42	0.022200	0.587400	0.568000
O431	O43	0.955000	0.439100	0.683100
O441	O44	0.982400	0.492600	0.586600
H1191	H119	0.027400	0.496600	0.576100
O451	O45	0.919400	0.915500	0.691500
O461	O46	0.841400	0.846500	0.699100
O471	O47	0.936800	0.689900	0.753800
O481	O48	0.851300	0.749000	0.721900
H1201	H120	0.829100	0.752000	0.763600
O491	O49	0.853400	0.449400	0.827300
O501	O50	0.065200	0.699300	0.875600
Zn111	Zn11	0.536420	0.064370	0.814070
Zn121	Zn12	0.437140	0.818040	0.759640
C1311	C131	0.524700	0.017100	0.658100
C1321	C132	0.335300	0.683900	0.731700
C1331	C133	0.485000	0.938400	0.821400
C1341	C134	0.538000	0.941000	0.027700
H1211	H121	0.581000	0.947300	0.057400
C1351	C135	0.415600	0.917700	0.021100
H1221	H122	0.370400	0.908300	0.045200
C1361	C136	0.593900	0.632600	0.699500
C1371	C137	0.466700	0.890200	0.632500
C1381	C138	0.529600	0.668300	0.709100
C1391	C139	0.478200	0.922300	0.701500
C1401	C140	0.523900	0.722800	0.724000
C1411	C141	0.504100	0.974100	0.711600
C1421	C142	0.413100	0.689200	0.723200
C1431	C143	0.481500	0.932500	0.905600
C1441	C144	0.543700	0.943400	0.950300
H1231	H123	0.589400	0.952500	0.927100
C1451	C145	0.417400	0.918000	0.942300
H1241	H124	0.374700	0.908200	0.914000
C1461	C146	0.211700	0.677500	0.686200
H1251	H125	0.181200	0.675500	0.642400
C1471	C147	0.690600	0.034500	0.778400
H1261	H126	0.672900	0.030300	0.727900
C1481	C148	0.580200	0.764400	0.734100
C1491	C149	0.807500	0.005700	0.731600
H1271	H127	0.779800	0.004500	0.683800
H1281	H128	0.848800	0.031000	0.726700
H1291	H129	0.826800	0.969800	0.743300
C1501	C150	0.299800	0.683900	0.797000
H1301	H130	0.328900	0.684800	0.841900
C1511	C151	0.430600	0.774100	0.026600
H1311	H131	0.418700	0.735800	0.031900
H1321	H132	0.438000	0.789900	0.077000
H1331	H133	0.389800	0.792500	0.000800
C1521	C152	0.491900	0.792600	0.912100
H1341	H134	0.537200	0.795900	0.885200
C1531	C153	0.221400	0.682800	0.806500
H1351	H135	0.200200	0.686300	0.855600
C1541	C154	0.788100	0.029900	0.869100
H1361	H136	0.813900	0.997000	0.884700
H1371	H137	0.822600	0.060300	0.870200
H1381	H138	0.747000	0.036900	0.903900
C1551	C155	0.570700	0.773600	0.022200
H1391	H139	0.610300	0.784200	0.987300
H1401	H140	0.572100	0.796600	0.067400
H1411	H141	0.577500	0.736000	0.037400
C1561	C156	0.286200	0.680400	0.676100
H1421	H142	0.304300	0.680000	0.625400
N411	N41	0.496600	0.779900	0.983000
N421	N42	0.465100	0.900000	0.771800
N431	N43	0.509300	0.984200	0.788200
N441	N44	0.459600	0.648200	0.707600
N451	N45	0.451800	0.736400	0.733800
N461	N46	0.181200	0.677200	0.749900
N471	N47	0.759400	0.023000	0.791900
N481	N48	0.472200	0.929600	0.064500
O511	O51	0.446900	0.842200	0.640400
O521	O52	0.477800	0.912600	0.568000
O531	O53	0.545000	0.060900	0.683100
O541	O54	0.517600	0.007400	0.586600
H1431	H143	0.472600	0.003400	0.576100
O551	O55	0.580600	0.584500	0.691500
O561	O56	0.658600	0.653500	0.699100
O571	O57	0.563200	0.810100	0.753800
O581	O58	0.648700	0.751000	0.721900
H1441	H144	0.670900	0.748000	0.763600
O591	O59	0.646600	0.050600	0.827300
O601	O60	0.434800	0.800700	0.875600
Zn131	Zn13	0.036420	0.935630	0.685930
Zn141	Zn14	0.937140	0.181960	0.740360
C1571	C157	0.024700	0.982900	0.841900
C1581	C158	0.835300	0.316100	0.768300
C1591	C159	0.985000	0.061600	0.678600
C1601	C160	0.038000	0.059000	0.472300
H1451	H145	0.081000	0.052700	0.442600
C1611	C161	0.915600	0.082300	0.478900
H1461	H146	0.870400	0.091700	0.454800
C1621	C162	0.093900	0.367400	0.800500
C1631	C163	0.966700	0.109800	0.867500
C1641	C164	0.029600	0.331700	0.790900
C1651	C165	0.978200	0.077700	0.798500
C1661	C166	0.023900	0.277200	0.776000
C1671	C167	0.004100	0.025900	0.788400
C1681	C168	0.913100	0.310800	0.776800
C1691	C169	0.981500	0.067500	0.594400
C1701	C170	0.043700	0.056600	0.549700
H1471	H147	0.089400	0.047500	0.572900
C1711	C171	0.917400	0.082000	0.557700
H1481	H148	0.874700	0.091800	0.586000
C1721	C172	0.711700	0.322500	0.813800
H1491	H149	0.681200	0.324500	0.857600
C1731	C173	0.190600	0.965500	0.721600
H1501	H150	0.172900	0.969700	0.772100
C1741	C174	0.080200	0.235600	0.765900
C1751	C175	0.307500	0.994300	0.768400
H1511	H151	0.279800	0.995500	0.816200
H1521	H152	0.348800	0.969000	0.773300
H1531	H153	0.326800	0.030200	0.756700
C1761	C176	0.799800	0.316100	0.703000
H1541	H154	0.828900	0.315200	0.658100
C1771	C177	0.930600	0.225900	0.473400
H1551	H155	0.918700	0.264200	0.468100
H1561	H156	0.938000	0.210100	0.423000
H1571	H157	0.889800	0.207500	0.499200
C1781	C178	0.991900	0.207400	0.587900
H1581	H158	0.037200	0.204100	0.614800
C1791	C179	0.721400	0.317200	0.693500
H1591	H159	0.700200	0.313700	0.644400
C1801	C180	0.288100	0.970100	0.630900
H1601	H160	0.313900	0.003000	0.615300
H1611	H161	0.322600	0.939700	0.629800
H1621	H162	0.247000	0.963100	0.596100
C1811	C181	0.070700	0.226400	0.477800
H1631	H163	0.110300	0.215800	0.512700
H1641	H164	0.072100	0.203400	0.432600
H1651	H165	0.077500	0.264000	0.462600
C1821	C182	0.786200	0.319600	0.823900
H1661	H166	0.804300	0.320000	0.874600
N491	N49	0.996600	0.220100	0.517000
N501	N50	0.965100	0.100000	0.728200
N511	N51	0.009300	0.015800	0.711800
N521	N52	0.959600	0.351800	0.792400
N531	N53	0.951800	0.263600	0.766200
N541	N54	0.681200	0.322800	0.750100
N551	N55	0.259400	0.977000	0.708100
N561	N56	0.972200	0.070400	0.435500
O611	O61	0.946900	0.157800	0.859600
O621	O62	0.977800	0.087400	0.932000
O631	O63	0.045000	0.939100	0.816900
O641	O64	0.017600	0.992600	0.913400
H1671	H167	0.972600	0.996600	0.923900
O651	O65	0.080600	0.415500	0.808500
O661	O66	0.158600	0.346500	0.800900
O671	O67	0.063200	0.189900	0.746200
O681	O68	0.148700	0.249000	0.778100
H1681	H168	0.170900	0.252000	0.736400
O691	O69	0.146600	0.949400	0.672700
O701	O70	0.934800	0.199300	0.624400
Zn151	Zn15	0.463580	0.564370	0.685930
Zn161	Zn16	0.562860	0.318040	0.740360
C1831	C183	0.475300	0.517100	0.841900
C1841	C184	0.664700	0.183900	0.768300
C1851	C185	0.515000	0.438400	0.678600
C1861	C186	0.462000	0.441000	0.472300
H1691	H169	0.419000	0.447300	0.442600
C1871	C187	0.584400	0.417700	0.478900
H1701	H170	0.629600	0.408300	0.454800
C1881	C188	0.406100	0.132600	0.800500
C1891	C189	0.533300	0.390200	0.867500
C1901	C190	0.470400	0.168300	0.790900
C1911	C191	0.521800	0.422300	0.798500
C1921	C192	0.476100	0.222800	0.776000
C1931	C193	0.495900	0.474100	0.788400
C1941	C194	0.586900	0.189200	0.776800
C1951	C195	0.518500	0.432500	0.594400
C1961	C196	0.456300	0.443400	0.549700
H1711	H171	0.410600	0.452500	0.572900
C1971	C197	0.582600	0.418000	0.557700
H1721	H172	0.625300	0.408200	0.586000
C1981	C198	0.788300	0.177500	0.813800
H1731	H173	0.818800	0.175500	0.857600
C1991	C199	0.309400	0.534500	0.721600
H1741	H174	0.327100	0.530300	0.772100
C2001	C200	0.419800	0.264400	0.765900
C2011	C201	0.192500	0.505700	0.768400
H1751	H175	0.220200	0.504500	0.816200
H1761	H176	0.151200	0.531000	0.773300
H1771	H177	0.173200	0.469800	0.756700
C2021	C202	0.700200	0.183900	0.703000
H1781	H178	0.671100	0.184800	0.658100
C2031	C203	0.569400	0.274100	0.473400
H1791	H179	0.581300	0.235800	0.468100
H1801	H180	0.562000	0.289900	0.423000
H1811	H181	0.610200	0.292500	0.499200
C2041	C204	0.508100	0.292600	0.587900
H1821	H182	0.462800	0.295900	0.614800
C2051	C205	0.778600	0.182800	0.693500
H1831	H183	0.799800	0.186300	0.644400
C2061	C206	0.211900	0.529900	0.630900
H1841	H184	0.186100	0.497000	0.615300
H1851	H185	0.177400	0.560300	0.629800
H1861	H186	0.253000	0.536900	0.596100
C2071	C207	0.429300	0.273600	0.477800
H1871	H187	0.389700	0.284200	0.512700
H1881	H188	0.427900	0.296600	0.432600
H1891	H189	0.422500	0.236000	0.462600
C2081	C208	0.713800	0.180400	0.823900
H1901	H190	0.695700	0.180000	0.874600
N571	N57	0.503400	0.279900	0.517000
N581	N58	0.534900	0.400000	0.728200
N591	N59	0.490700	0.484200	0.711800
N601	N60	0.540400	0.148200	0.792400
N611	N61	0.548200	0.236400	0.766200
N621	N62	0.818800	0.177200	0.750100
N631	N63	0.240600	0.523000	0.708100
N641	N64	0.527800	0.429600	0.435500
O711	O71	0.553100	0.342200	0.859600
O721	O72	0.522200	0.412600	0.932000
O731	O73	0.455000	0.560900	0.816900
O741	O74	0.482400	0.507400	0.913400
H1911	H191	0.527400	0.503400	0.923900
O751	O75	0.419400	0.084500	0.808500
O761	O76	0.341400	0.153500	0.800900
O771	O77	0.436800	0.310100	0.746200
O781	O78	0.351300	0.251000	0.778100
H1921	H192	0.329100	0.248000	0.736400
O791	O79	0.353400	0.550600	0.672700
O801	O80	0.565200	0.300700	0.624400
