data_IQIDES_freeONLY_PM
_symmetry_space_group_name_H-M	'P1'
_cell_length_a	14.690500
_cell_length_b	8.047200
_cell_length_c	15.868800
_cell_angle_alpha	90.000000
_cell_angle_beta	112.929000
_cell_angle_gamma	90.000000
_symmetry_Int_Tables_number 1

loop_
_symmetry_equiv_pos_as_xyz
'x,y,z'

loop_
_atom_site_label
_atom_site_type_symbol
_atom_site_fract_x
_atom_site_fract_y
_atom_site_fract_z
P11	P1	0.516460	0.393590	0.396240
H11	H1	0.543000	0.269000	0.354400
P21	P2	0.352250	0.150570	0.621410
H21	H2	0.409000	0.006000	0.648400
Be11	Be1	0.361600	0.368100	0.471400
O11	O1	0.607780	0.449800	0.476980
O21	O2	0.437750	0.321500	0.423480
O31	O3	0.476100	0.526600	0.324340
O41	O4	0.248360	0.106400	0.608130
O51	O5	0.400710	0.253200	0.706130
O61	O6	0.364860	0.219000	0.538720
P31	P3	0.016460	0.893590	0.396240
H31	H3	0.043000	0.769000	0.354400
P41	P4	0.852250	0.650570	0.621410
H41	H4	0.909000	0.506000	0.648400
Be21	Be2	0.861600	0.868100	0.471400
O71	O7	0.107780	0.949800	0.476980
O81	O8	0.937750	0.821500	0.423480
O91	O9	0.976100	0.026600	0.324340
O101	O10	0.748360	0.606400	0.608130
O111	O11	0.900710	0.753200	0.706130
O121	O12	0.864860	0.719000	0.538720
P51	P5	0.483540	0.393590	0.103760
H51	H5	0.457000	0.269000	0.145600
P61	P6	0.647750	0.150570	0.878590
H61	H6	0.591000	0.006000	0.851600
Be31	Be3	0.638400	0.368100	0.028600
O131	O13	0.392220	0.449800	0.023020
O141	O14	0.562250	0.321500	0.076520
O151	O15	0.523900	0.526600	0.175660
O161	O16	0.751640	0.106400	0.891870
O171	O17	0.599290	0.253200	0.793870
O181	O18	0.635140	0.219000	0.961280
P71	P7	0.983540	0.893590	0.103760
H71	H7	0.957000	0.769000	0.145600
P81	P8	0.147750	0.650570	0.878590
H81	H8	0.091000	0.506000	0.851600
Be41	Be4	0.138400	0.868100	0.028600
O191	O19	0.892220	0.949800	0.023020
O201	O20	0.062250	0.821500	0.076520
O211	O21	0.023900	0.026600	0.175660
O221	O22	0.251640	0.606400	0.891870
O231	O23	0.099290	0.753200	0.793870
O241	O24	0.135140	0.719000	0.961280
P91	P9	0.483540	0.606410	0.603760
H91	H9	0.457000	0.731000	0.645600
P101	P10	0.647750	0.849430	0.378590
H101	H10	0.591000	0.994000	0.351600
Be51	Be5	0.638400	0.631900	0.528600
O251	O25	0.392220	0.550200	0.523020
O261	O26	0.562250	0.678500	0.576520
O271	O27	0.523900	0.473400	0.675660
O281	O28	0.751640	0.893600	0.391870
O291	O29	0.599290	0.746800	0.293870
O301	O30	0.635140	0.781000	0.461280
P111	P11	0.983540	0.106410	0.603760
H111	H11	0.957000	0.231000	0.645600
P121	P12	0.147750	0.349430	0.378590
H121	H12	0.091000	0.494000	0.351600
Be61	Be6	0.138400	0.131900	0.528600
O311	O31	0.892220	0.050200	0.523020
O321	O32	0.062250	0.178500	0.576520
O331	O33	0.023900	0.973400	0.675660
O341	O34	0.251640	0.393600	0.391870
O351	O35	0.099290	0.246800	0.293870
O361	O36	0.135140	0.281000	0.461280
P131	P13	0.516460	0.606410	0.896240
H131	H13	0.543000	0.731000	0.854400
P141	P14	0.352250	0.849430	0.121410
H141	H14	0.409000	0.994000	0.148400
Be71	Be7	0.361600	0.631900	0.971400
O371	O37	0.607780	0.550200	0.976980
O381	O38	0.437750	0.678500	0.923480
O391	O39	0.476100	0.473400	0.824340
O401	O40	0.248360	0.893600	0.108130
O411	O41	0.400710	0.746800	0.206130
O421	O42	0.364860	0.781000	0.038720
P151	P15	0.016460	0.106410	0.896240
H151	H15	0.043000	0.231000	0.854400
P161	P16	0.852250	0.349430	0.121410
H161	H16	0.909000	0.494000	0.148400
Be81	Be8	0.861600	0.131900	0.971400
O431	O43	0.107780	0.050200	0.976980
O441	O44	0.937750	0.178500	0.923480
O451	O45	0.976100	0.973400	0.824340
O461	O46	0.748360	0.393600	0.108130
O471	O47	0.900710	0.246800	0.206130
O481	O48	0.864860	0.281000	0.038720
Be91	Be9	0.500000	0.634100	0.250000
Be101	Be10	0.000000	0.134100	0.250000
Be111	Be11	0.500000	0.365900	0.750000
Be121	Be12	0.000000	0.865900	0.750000
