data_IQUQES_freeONLY_PM
_symmetry_space_group_name_H-M	'P1'
_cell_length_a	35.956000
_cell_length_b	7.869000
_cell_length_c	8.164000
_cell_angle_alpha	90.000000
_cell_angle_beta	101.807000
_cell_angle_gamma	90.000000
_symmetry_Int_Tables_number 1

loop_
_symmetry_equiv_pos_as_xyz
'x,y,z'

loop_
_atom_site_label
_atom_site_type_symbol
_atom_site_fract_x
_atom_site_fract_y
_atom_site_fract_z
O11	O1	0.928320	0.199400	0.097200
O21	O2	0.953520	0.129500	0.881400
C11	C1	0.887150	0.164300	0.833100
C21	C2	0.871630	0.301700	0.732200
C31	C3	0.926000	0.169600	0.947900
O31	O3	0.876500	0.580400	0.639500
H11	H1	0.892300	0.650800	0.624400
C41	C4	0.831660	0.998700	0.723600
O41	O4	0.813850	0.845900	0.731100
O51	O5	0.036450	0.185900	0.940200
H21	H2	0.042700	0.160700	0.852200
C51	C5	0.867300	0.014300	0.828600
H31	H3	0.877600	0.923400	0.895500
C61	C6	0.815980	0.131600	0.622000
H41	H4	0.792300	0.120200	0.551700
C71	C7	0.835960	0.280800	0.626400
H51	H5	0.825600	0.370200	0.557500
C81	C8	0.893170	0.462100	0.739100
O61	O6	0.923340	0.484100	0.833500
C91	C9	0.781540	0.803300	0.610100
C101	C10	0.785720	0.714700	0.473200
H61	H6	0.809900	0.692500	0.454500
C111	C11	0.745730	0.842500	0.638500
H71	H7	0.743100	0.906300	0.731300
O71	O7	0.428320	0.699400	0.097200
O81	O8	0.453520	0.629500	0.881400
C121	C12	0.387150	0.664300	0.833100
C131	C13	0.371630	0.801700	0.732200
C141	C14	0.426000	0.669600	0.947900
O91	O9	0.376500	0.080400	0.639500
H81	H8	0.392300	0.150800	0.624400
C151	C15	0.331660	0.498700	0.723600
O101	O10	0.313850	0.345900	0.731100
O111	O11	0.536450	0.685900	0.940200
H91	H9	0.542700	0.660700	0.852200
C161	C16	0.367300	0.514300	0.828600
H101	H10	0.377600	0.423400	0.895500
C171	C17	0.315980	0.631600	0.622000
H111	H11	0.292300	0.620200	0.551700
C181	C18	0.335960	0.780800	0.626400
H121	H12	0.325600	0.870200	0.557500
C191	C19	0.393170	0.962100	0.739100
O121	O12	0.423340	0.984100	0.833500
C201	C20	0.281540	0.303300	0.610100
C211	C21	0.285720	0.214700	0.473200
H131	H13	0.309900	0.192500	0.454500
C221	C22	0.245730	0.342500	0.638500
H141	H14	0.243100	0.406300	0.731300
O131	O13	0.071680	0.199400	0.402800
O141	O14	0.046480	0.129500	0.618600
C231	C23	0.112850	0.164300	0.666900
C241	C24	0.128370	0.301700	0.767800
C251	C25	0.074000	0.169600	0.552100
O151	O15	0.123500	0.580400	0.860500
H151	H15	0.107700	0.650800	0.875600
C261	C26	0.168340	0.998700	0.776400
O161	O16	0.186150	0.845900	0.768900
O171	O17	0.963550	0.185900	0.559800
H161	H16	0.957300	0.160700	0.647800
C271	C27	0.132700	0.014300	0.671400
H171	H17	0.122400	0.923400	0.604500
C281	C28	0.184020	0.131600	0.878000
H181	H18	0.207700	0.120200	0.948300
C291	C29	0.164040	0.280800	0.873600
H191	H19	0.174400	0.370200	0.942500
C301	C30	0.106830	0.462100	0.760900
O181	O18	0.076660	0.484100	0.666500
C311	C31	0.218460	0.803300	0.889900
C321	C32	0.214280	0.714700	0.026800
H201	H20	0.190100	0.692500	0.045500
C331	C33	0.254270	0.842500	0.861500
H211	H21	0.256900	0.906300	0.768700
O191	O19	0.571680	0.699400	0.402800
O201	O20	0.546480	0.629500	0.618600
C341	C34	0.612850	0.664300	0.666900
C351	C35	0.628370	0.801700	0.767800
C361	C36	0.574000	0.669600	0.552100
O211	O21	0.623500	0.080400	0.860500
H221	H22	0.607700	0.150800	0.875600
C371	C37	0.668340	0.498700	0.776400
O221	O22	0.686150	0.345900	0.768900
O231	O23	0.463550	0.685900	0.559800
H231	H23	0.457300	0.660700	0.647800
C381	C38	0.632700	0.514300	0.671400
H241	H24	0.622400	0.423400	0.604500
C391	C39	0.684020	0.631600	0.878000
H251	H25	0.707700	0.620200	0.948300
C401	C40	0.664040	0.780800	0.873600
H261	H26	0.674400	0.870200	0.942500
C411	C41	0.606830	0.962100	0.760900
O241	O24	0.576660	0.984100	0.666500
C421	C42	0.718460	0.303300	0.889900
C431	C43	0.714280	0.214700	0.026800
H271	H27	0.690100	0.192500	0.045500
C441	C44	0.754270	0.342500	0.861500
H281	H28	0.756900	0.406300	0.768700
O251	O25	0.071680	0.800600	0.902800
O261	O26	0.046480	0.870500	0.118600
C451	C45	0.112850	0.835700	0.166900
C461	C46	0.128370	0.698300	0.267800
C471	C47	0.074000	0.830400	0.052100
O271	O27	0.123500	0.419600	0.360500
H291	H29	0.107700	0.349200	0.375600
C481	C48	0.168340	0.001300	0.276400
O281	O28	0.186150	0.154100	0.268900
O291	O29	0.963550	0.814100	0.059800
H301	H30	0.957300	0.839300	0.147800
C491	C49	0.132700	0.985700	0.171400
H311	H31	0.122400	0.076600	0.104500
C501	C50	0.184020	0.868400	0.378000
H321	H32	0.207700	0.879800	0.448300
C511	C51	0.164040	0.719200	0.373600
H331	H33	0.174400	0.629800	0.442500
C521	C52	0.106830	0.537900	0.260900
O301	O30	0.076660	0.515900	0.166500
C531	C53	0.218460	0.196700	0.389900
C541	C54	0.214280	0.285300	0.526800
H341	H34	0.190100	0.307500	0.545500
C551	C55	0.254270	0.157500	0.361500
H351	H35	0.256900	0.093700	0.268700
O311	O31	0.571680	0.300600	0.902800
O321	O32	0.546480	0.370500	0.118600
C561	C56	0.612850	0.335700	0.166900
C571	C57	0.628370	0.198300	0.267800
C581	C58	0.574000	0.330400	0.052100
O331	O33	0.623500	0.919600	0.360500
H361	H36	0.607700	0.849200	0.375600
C591	C59	0.668340	0.501300	0.276400
O341	O34	0.686150	0.654100	0.268900
O351	O35	0.463550	0.314100	0.059800
H371	H37	0.457300	0.339300	0.147800
C601	C60	0.632700	0.485700	0.171400
H381	H38	0.622400	0.576600	0.104500
C611	C61	0.684020	0.368400	0.378000
H391	H39	0.707700	0.379800	0.448300
C621	C62	0.664040	0.219200	0.373600
H401	H40	0.674400	0.129800	0.442500
C631	C63	0.606830	0.037900	0.260900
O361	O36	0.576660	0.015900	0.166500
C641	C64	0.718460	0.696700	0.389900
C651	C65	0.714280	0.785300	0.526800
H411	H41	0.690100	0.807500	0.545500
C661	C66	0.754270	0.657500	0.361500
H421	H42	0.756900	0.593700	0.268700
O371	O37	0.928320	0.800600	0.597200
O381	O38	0.953520	0.870500	0.381400
C671	C67	0.887150	0.835700	0.333100
C681	C68	0.871630	0.698300	0.232200
C691	C69	0.926000	0.830400	0.447900
O391	O39	0.876500	0.419600	0.139500
H431	H43	0.892300	0.349200	0.124400
C701	C70	0.831660	0.001300	0.223600
O401	O40	0.813850	0.154100	0.231100
O411	O41	0.036450	0.814100	0.440200
H441	H44	0.042700	0.839300	0.352200
C711	C71	0.867300	0.985700	0.328600
H451	H45	0.877600	0.076600	0.395500
C721	C72	0.815980	0.868400	0.122000
H461	H46	0.792300	0.879800	0.051700
C731	C73	0.835960	0.719200	0.126400
H471	H47	0.825600	0.629800	0.057500
C741	C74	0.893170	0.537900	0.239100
O421	O42	0.923340	0.515900	0.333500
C751	C75	0.781540	0.196700	0.110100
C761	C76	0.785720	0.285300	0.973200
H481	H48	0.809900	0.307500	0.954500
C771	C77	0.745730	0.157500	0.138500
H491	H49	0.743100	0.093700	0.231300
O431	O43	0.428320	0.300600	0.597200
O441	O44	0.453520	0.370500	0.381400
C781	C78	0.387150	0.335700	0.333100
C791	C79	0.371630	0.198300	0.232200
C801	C80	0.426000	0.330400	0.447900
O451	O45	0.376500	0.919600	0.139500
H501	H50	0.392300	0.849200	0.124400
C811	C81	0.331660	0.501300	0.223600
O461	O46	0.313850	0.654100	0.231100
O471	O47	0.536450	0.314100	0.440200
H511	H51	0.542700	0.339300	0.352200
C821	C82	0.367300	0.485700	0.328600
H521	H52	0.377600	0.576600	0.395500
C831	C83	0.315980	0.368400	0.122000
H531	H53	0.292300	0.379800	0.051700
C841	C84	0.335960	0.219200	0.126400
H541	H54	0.325600	0.129800	0.057500
C851	C85	0.393170	0.037900	0.239100
O481	O48	0.423340	0.015900	0.333500
C861	C86	0.281540	0.696700	0.110100
C871	C87	0.285720	0.785300	0.973200
H551	H55	0.309900	0.807500	0.954500
C881	C88	0.245730	0.657500	0.138500
H561	H56	0.243100	0.593700	0.231300
Co11	Co1	0.000000	0.000000	0.000000
Co21	Co2	0.500000	0.500000	0.000000
Co31	Co3	0.000000	0.000000	0.500000
Co41	Co4	0.500000	0.500000	0.500000
O491	O49	0.000000	0.116200	0.250000
O501	O50	0.500000	0.616200	0.250000
O511	O51	0.000000	0.883800	0.750000
O521	O52	0.500000	0.383800	0.750000
