data_IRAGEN_charged_PM
_symmetry_space_group_name_H-M	'P1'
_cell_length_a	11.942000
_cell_length_b	21.575800
_cell_length_c	25.116300
_cell_angle_alpha	90.000000
_cell_angle_beta	90.000000
_cell_angle_gamma	90.000000
_symmetry_Int_Tables_number 1

loop_
_symmetry_equiv_pos_as_xyz
'x,y,z'

loop_
_atom_site_label
_atom_site_type_symbol
_atom_site_fract_x
_atom_site_fract_y
_atom_site_fract_z
Ag11	Ag1	0.546530	0.817030	0.744860
Ag21	Ag2	0.546530	0.682970	0.255140
Ag31	Ag3	0.953470	0.682970	0.244860
Ag41	Ag4	0.953470	0.817030	0.755140
Ag51	Ag5	0.453470	0.182970	0.255140
Ag61	Ag6	0.453470	0.317030	0.744860
Ag71	Ag7	0.046530	0.317030	0.755140
Ag81	Ag8	0.046530	0.182970	0.244860
Ag91	Ag9	0.500000	0.500000	0.500000
Ag101	Ag10	0.500000	0.000000	0.500000
Ag111	Ag11	0.000000	0.000000	0.000000
Ag121	Ag12	0.000000	0.500000	0.000000
Ag131	Ag13	0.750000	0.617690	0.750000
Ag141	Ag14	0.750000	0.882310	0.250000
Ag151	Ag15	0.250000	0.382310	0.250000
Ag161	Ag16	0.250000	0.117690	0.750000
Ag171	Ag17	0.259070	0.750000	0.000000
Ag181	Ag18	0.240930	0.750000	0.500000
Ag191	Ag19	0.740930	0.250000	0.000000
Ag201	Ag20	0.759070	0.250000	0.500000
H11	H1	0.486300	0.609300	0.589700
H21	H2	0.819800	0.533000	0.648400
H31	H3	0.746900	0.501700	0.567300
H41	H4	0.402700	0.715200	0.687800
H51	H5	0.443600	0.699900	0.628600
H61	H6	0.370900	0.650200	0.661000
H71	H7	0.475000	0.600600	0.790200
H81	H8	0.475700	0.618100	0.852100
H91	H9	0.361900	0.622700	0.818600
H101	H10	0.353200	0.690300	0.894000
H111	H11	0.334300	0.868400	0.925800
H121	H12	0.426300	0.890400	0.846900
H131	H13	0.664100	0.529600	0.402000
H141	H14	0.409100	0.681900	0.369200
H151	H15	0.403100	0.626400	0.447600
H161	H16	0.862900	0.545900	0.297000
H171	H17	0.835900	0.555400	0.358800
H181	H18	0.775800	0.501000	0.326300
H191	H19	0.486300	0.890700	0.410300
H201	H20	0.819800	0.967000	0.351600
H211	H21	0.746900	0.998300	0.432700
H221	H22	0.402700	0.784800	0.312200
H231	H23	0.443600	0.800100	0.371400
H241	H24	0.370900	0.849800	0.339000
H251	H25	0.475000	0.899400	0.209800
H261	H26	0.475700	0.881900	0.147900
H271	H27	0.361900	0.877300	0.181400
H281	H28	0.353200	0.809700	0.106000
H291	H29	0.334300	0.631600	0.074200
H301	H30	0.426300	0.609600	0.153100
H311	H31	0.664100	0.970400	0.598000
H321	H32	0.409100	0.818100	0.630800
H331	H33	0.403100	0.873600	0.552400
H341	H34	0.862900	0.954100	0.703000
H351	H35	0.835900	0.944600	0.641200
H361	H36	0.775800	0.999000	0.673700
H371	H37	0.013700	0.890700	0.089700
H381	H38	0.680200	0.967000	0.148400
H391	H39	0.753100	0.998300	0.067300
H401	H40	0.097300	0.784800	0.187800
H411	H41	0.056400	0.800100	0.128600
H421	H42	0.129100	0.849800	0.161000
H431	H43	0.025000	0.899400	0.290200
H441	H44	0.024300	0.881900	0.352100
H451	H45	0.138100	0.877300	0.318600
H461	H46	0.146800	0.809700	0.394000
H471	H47	0.165700	0.631600	0.425800
H481	H48	0.073700	0.609600	0.346900
H491	H49	0.835900	0.970400	0.902000
H501	H50	0.090900	0.818100	0.869200
H511	H51	0.096900	0.873600	0.947600
H521	H52	0.637100	0.954100	0.797000
H531	H53	0.664100	0.944600	0.858800
H541	H54	0.724200	0.999000	0.826300
H551	H55	0.013700	0.609300	0.910300
H561	H56	0.680200	0.533000	0.851600
H571	H57	0.753100	0.501700	0.932700
H581	H58	0.097300	0.715200	0.812200
H591	H59	0.056400	0.699900	0.871400
H601	H60	0.129100	0.650200	0.839000
H611	H61	0.025000	0.600600	0.709800
H621	H62	0.024300	0.618100	0.647900
H631	H63	0.138100	0.622700	0.681400
H641	H64	0.146800	0.690300	0.606000
H651	H65	0.165700	0.868400	0.574200
H661	H66	0.073700	0.890400	0.653100
H671	H67	0.835900	0.529600	0.098000
H681	H68	0.090900	0.681900	0.130800
H691	H69	0.096900	0.626400	0.052400
H701	H70	0.637100	0.545900	0.203000
H711	H71	0.664100	0.555400	0.141200
H721	H72	0.724200	0.501000	0.173700
H731	H73	0.513700	0.390700	0.410300
H741	H74	0.180200	0.467000	0.351600
H751	H75	0.253100	0.498300	0.432700
H761	H76	0.597300	0.284800	0.312200
H771	H77	0.556400	0.300100	0.371400
H781	H78	0.629100	0.349800	0.339000
H791	H79	0.525000	0.399400	0.209800
H801	H80	0.524300	0.381900	0.147900
H811	H81	0.638100	0.377300	0.181400
H821	H82	0.646800	0.309700	0.106000
H831	H83	0.665700	0.131600	0.074200
H841	H84	0.573700	0.109600	0.153100
H851	H85	0.335900	0.470400	0.598000
H861	H86	0.590900	0.318100	0.630800
H871	H87	0.596900	0.373600	0.552400
H881	H88	0.137100	0.454100	0.703000
H891	H89	0.164100	0.444600	0.641200
H901	H90	0.224200	0.499000	0.673700
H911	H91	0.513700	0.109300	0.589700
H921	H92	0.180200	0.033000	0.648400
H931	H93	0.253100	0.001700	0.567300
H941	H94	0.597300	0.215200	0.687800
H951	H95	0.556400	0.199900	0.628600
H961	H96	0.629100	0.150200	0.661000
H971	H97	0.525000	0.100600	0.790200
H981	H98	0.524300	0.118100	0.852100
H991	H99	0.638100	0.122700	0.818600
H1001	H100	0.646800	0.190300	0.894000
H1011	H101	0.665700	0.368400	0.925800
H1021	H102	0.573700	0.390400	0.846900
H1031	H103	0.335900	0.029600	0.402000
H1041	H104	0.590900	0.181900	0.369200
H1051	H105	0.596900	0.126400	0.447600
H1061	H106	0.137100	0.045900	0.297000
H1071	H107	0.164100	0.055400	0.358800
H1081	H108	0.224200	0.001000	0.326300
H1091	H109	0.986300	0.109300	0.910300
H1101	H110	0.319800	0.033000	0.851600
H1111	H111	0.246900	0.001700	0.932700
H1121	H112	0.902700	0.215200	0.812200
H1131	H113	0.943600	0.199900	0.871400
H1141	H114	0.870900	0.150200	0.839000
H1151	H115	0.975000	0.100600	0.709800
H1161	H116	0.975700	0.118100	0.647900
H1171	H117	0.861900	0.122700	0.681400
H1181	H118	0.853200	0.190300	0.606000
H1191	H119	0.834300	0.368400	0.574200
H1201	H120	0.926300	0.390400	0.653100
H1211	H121	0.164100	0.029600	0.098000
H1221	H122	0.909100	0.181900	0.130800
H1231	H123	0.903100	0.126400	0.052400
H1241	H124	0.362900	0.045900	0.203000
H1251	H125	0.335900	0.055400	0.141200
H1261	H126	0.275800	0.001000	0.173700
H1271	H127	0.986300	0.390700	0.089700
H1281	H128	0.319800	0.467000	0.148400
H1291	H129	0.246900	0.498300	0.067300
H1301	H130	0.902700	0.284800	0.187800
H1311	H131	0.943600	0.300100	0.128600
H1321	H132	0.870900	0.349800	0.161000
H1331	H133	0.975000	0.399400	0.290200
H1341	H134	0.975700	0.381900	0.352100
H1351	H135	0.861900	0.377300	0.318600
H1361	H136	0.853200	0.309700	0.394000
H1371	H137	0.834300	0.131600	0.425800
H1381	H138	0.926300	0.109600	0.346900
H1391	H139	0.164100	0.470400	0.902000
H1401	H140	0.909100	0.318100	0.869200
H1411	H141	0.903100	0.373600	0.947600
H1421	H142	0.362900	0.454100	0.797000
H1431	H143	0.335900	0.444600	0.858800
H1441	H144	0.275800	0.499000	0.826300
C11	C1	0.555600	0.592600	0.601600
C21	C2	0.596900	0.610500	0.650920
C31	C3	0.749500	0.549000	0.637130
C41	C4	0.706400	0.530700	0.588310
C51	C5	0.533300	0.654520	0.685530
C61	C6	0.428700	0.682300	0.663890
C71	C7	0.443300	0.628160	0.817270
C81	C8	0.469900	0.693810	0.803440
C91	C9	0.428800	0.744930	0.838560
C101	C10	0.369700	0.732160	0.885290
C111	C11	0.357600	0.835220	0.903490
C121	C12	0.413600	0.848340	0.856440
C131	C13	0.611000	0.561660	0.395910
C141	C14	0.618600	0.596290	0.349460
C151	C15	0.463700	0.650690	0.375430
C161	C16	0.459300	0.617100	0.422090
C171	C17	0.711200	0.586540	0.310220
C181	C18	0.804400	0.543500	0.324290
C191	C19	0.555600	0.907400	0.398400
C201	C20	0.596900	0.889500	0.349080
C211	C21	0.749500	0.951000	0.362870
C221	C22	0.706400	0.969300	0.411690
C231	C23	0.533300	0.845480	0.314470
C241	C24	0.428700	0.817700	0.336110
C251	C25	0.443300	0.871840	0.182730
C261	C26	0.469900	0.806190	0.196560
C271	C27	0.428800	0.755070	0.161440
C281	C28	0.369700	0.767840	0.114710
C291	C29	0.357600	0.664780	0.096510
C301	C30	0.413600	0.651660	0.143560
C311	C31	0.611000	0.938340	0.604090
C321	C32	0.618600	0.903710	0.650540
C331	C33	0.463700	0.849310	0.624570
C341	C34	0.459300	0.882900	0.577910
C351	C35	0.711200	0.913460	0.689780
C361	C36	0.804400	0.956500	0.675710
C371	C37	0.944400	0.907400	0.101600
C381	C38	0.903100	0.889500	0.150920
C391	C39	0.750500	0.951000	0.137130
C401	C40	0.793600	0.969300	0.088310
C411	C41	0.966700	0.845480	0.185530
C421	C42	0.071300	0.817700	0.163890
C431	C43	0.056700	0.871840	0.317270
C441	C44	0.030100	0.806190	0.303440
C451	C45	0.071200	0.755070	0.338560
C461	C46	0.130300	0.767840	0.385290
C471	C47	0.142400	0.664780	0.403490
C481	C48	0.086400	0.651660	0.356440
C491	C49	0.889000	0.938340	0.895910
C501	C50	0.881400	0.903710	0.849460
C511	C51	0.036300	0.849310	0.875430
C521	C52	0.040700	0.882900	0.922090
C531	C53	0.788800	0.913460	0.810220
C541	C54	0.695600	0.956500	0.824290
C551	C55	0.944400	0.592600	0.898400
C561	C56	0.903100	0.610500	0.849080
C571	C57	0.750500	0.549000	0.862870
C581	C58	0.793600	0.530700	0.911690
C591	C59	0.966700	0.654520	0.814470
C601	C60	0.071300	0.682300	0.836110
C611	C61	0.056700	0.628160	0.682730
C621	C62	0.030100	0.693810	0.696560
C631	C63	0.071200	0.744930	0.661440
C641	C64	0.130300	0.732160	0.614710
C651	C65	0.142400	0.835220	0.596510
C661	C66	0.086400	0.848340	0.643560
C671	C67	0.889000	0.561660	0.104090
C681	C68	0.881400	0.596290	0.150540
C691	C69	0.036300	0.650690	0.124570
C701	C70	0.040700	0.617100	0.077910
C711	C71	0.788800	0.586540	0.189780
C721	C72	0.695600	0.543500	0.175710
C731	C73	0.444400	0.407400	0.398400
C741	C74	0.403100	0.389500	0.349080
C751	C75	0.250500	0.451000	0.362870
C761	C76	0.293600	0.469300	0.411690
C771	C77	0.466700	0.345480	0.314470
C781	C78	0.571300	0.317700	0.336110
C791	C79	0.556700	0.371840	0.182730
C801	C80	0.530100	0.306190	0.196560
C811	C81	0.571200	0.255070	0.161440
C821	C82	0.630300	0.267840	0.114710
C831	C83	0.642400	0.164780	0.096510
C841	C84	0.586400	0.151660	0.143560
C851	C85	0.389000	0.438340	0.604090
C861	C86	0.381400	0.403710	0.650540
C871	C87	0.536300	0.349310	0.624570
C881	C88	0.540700	0.382900	0.577910
C891	C89	0.288800	0.413460	0.689780
C901	C90	0.195600	0.456500	0.675710
C911	C91	0.444400	0.092600	0.601600
C921	C92	0.403100	0.110500	0.650920
C931	C93	0.250500	0.049000	0.637130
C941	C94	0.293600	0.030700	0.588310
C951	C95	0.466700	0.154520	0.685530
C961	C96	0.571300	0.182300	0.663890
C971	C97	0.556700	0.128160	0.817270
C981	C98	0.530100	0.193810	0.803440
C991	C99	0.571200	0.244930	0.838560
C1001	C100	0.630300	0.232160	0.885290
C1011	C101	0.642400	0.335220	0.903490
C1021	C102	0.586400	0.348340	0.856440
C1031	C103	0.389000	0.061660	0.395910
C1041	C104	0.381400	0.096290	0.349460
C1051	C105	0.536300	0.150690	0.375430
C1061	C106	0.540700	0.117100	0.422090
C1071	C107	0.288800	0.086540	0.310220
C1081	C108	0.195600	0.043500	0.324290
C1091	C109	0.055600	0.092600	0.898400
C1101	C110	0.096900	0.110500	0.849080
C1111	C111	0.249500	0.049000	0.862870
C1121	C112	0.206400	0.030700	0.911690
C1131	C113	0.033300	0.154520	0.814470
C1141	C114	0.928700	0.182300	0.836110
C1151	C115	0.943300	0.128160	0.682730
C1161	C116	0.969900	0.193810	0.696560
C1171	C117	0.928800	0.244930	0.661440
C1181	C118	0.869700	0.232160	0.614710
C1191	C119	0.857600	0.335220	0.596510
C1201	C120	0.913600	0.348340	0.643560
C1211	C121	0.111000	0.061660	0.104090
C1221	C122	0.118600	0.096290	0.150540
C1231	C123	0.963700	0.150690	0.124570
C1241	C124	0.959300	0.117100	0.077910
C1251	C125	0.211200	0.086540	0.189780
C1261	C126	0.304400	0.043500	0.175710
C1271	C127	0.055600	0.407400	0.101600
C1281	C128	0.096900	0.389500	0.150920
C1291	C129	0.249500	0.451000	0.137130
C1301	C130	0.206400	0.469300	0.088310
C1311	C131	0.033300	0.345480	0.185530
C1321	C132	0.928700	0.317700	0.163890
C1331	C133	0.943300	0.371840	0.317270
C1341	C134	0.969900	0.306190	0.303440
C1351	C135	0.928800	0.255070	0.338560
C1361	C136	0.869700	0.267840	0.385290
C1371	C137	0.857600	0.164780	0.403490
C1381	C138	0.913600	0.151660	0.356440
C1391	C139	0.111000	0.438340	0.895910
C1401	C140	0.118600	0.403710	0.849460
C1411	C141	0.963700	0.349310	0.875430
C1421	C142	0.959300	0.382900	0.922090
C1431	C143	0.211200	0.413460	0.810220
C1441	C144	0.304400	0.456500	0.824290
N11	N1	0.610000	0.552630	0.570390
N21	N2	0.695000	0.588210	0.668470
N31	N3	0.575200	0.665170	0.731180
N41	N4	0.526200	0.710700	0.762620
N51	N5	0.450000	0.803770	0.824260
N61	N6	0.335600	0.777160	0.918180
N71	N7	0.531900	0.571830	0.432120
N81	N8	0.542700	0.640550	0.338860
N91	N9	0.704400	0.617570	0.267000
N101	N10	0.746500	0.408150	0.455900
N111	N11	0.610000	0.947370	0.429610
N121	N12	0.695000	0.911790	0.331530
N131	N13	0.575200	0.834830	0.268820
N141	N14	0.526200	0.789300	0.237380
N151	N15	0.450000	0.696230	0.175740
N161	N16	0.335600	0.722840	0.081820
N171	N17	0.531900	0.928170	0.567880
N181	N18	0.542700	0.859450	0.661140
N191	N19	0.704400	0.882430	0.733000
N201	N20	0.746500	0.091850	0.544100
N211	N21	0.890000	0.947370	0.070390
N221	N22	0.805000	0.911790	0.168470
N231	N23	0.924800	0.834830	0.231180
N241	N24	0.973800	0.789300	0.262620
N251	N25	0.050000	0.696230	0.324260
N261	N26	0.164400	0.722840	0.418180
N271	N27	0.968100	0.928170	0.932120
N281	N28	0.957300	0.859450	0.838860
N291	N29	0.795600	0.882430	0.767000
N301	N30	0.753500	0.091850	0.955900
N311	N31	0.890000	0.552630	0.929610
N321	N32	0.805000	0.588210	0.831530
N331	N33	0.924800	0.665170	0.768820
N341	N34	0.973800	0.710700	0.737380
N351	N35	0.050000	0.803770	0.675740
N361	N36	0.164400	0.777160	0.581820
N371	N37	0.968100	0.571830	0.067880
N381	N38	0.957300	0.640550	0.161140
N391	N39	0.795600	0.617570	0.233000
N401	N40	0.753500	0.408150	0.044100
N411	N41	0.390000	0.447370	0.429610
N421	N42	0.305000	0.411790	0.331530
N431	N43	0.424800	0.334830	0.268820
N441	N44	0.473800	0.289300	0.237380
N451	N45	0.550000	0.196230	0.175740
N461	N46	0.664400	0.222840	0.081820
N471	N47	0.468100	0.428170	0.567880
N481	N48	0.457300	0.359450	0.661140
N491	N49	0.295600	0.382430	0.733000
N501	N50	0.253500	0.591850	0.544100
N511	N51	0.390000	0.052630	0.570390
N521	N52	0.305000	0.088210	0.668470
N531	N53	0.424800	0.165170	0.731180
N541	N54	0.473800	0.210700	0.762620
N551	N55	0.550000	0.303770	0.824260
N561	N56	0.664400	0.277160	0.918180
N571	N57	0.468100	0.071830	0.432120
N581	N58	0.457300	0.140550	0.338860
N591	N59	0.295600	0.117570	0.267000
N601	N60	0.253500	0.908150	0.455900
N611	N61	0.110000	0.052630	0.929610
N621	N62	0.195000	0.088210	0.831530
N631	N63	0.075200	0.165170	0.768820
N641	N64	0.026200	0.210700	0.737380
N651	N65	0.950000	0.303770	0.675740
N661	N66	0.835600	0.277160	0.581820
N671	N67	0.031900	0.071830	0.067880
N681	N68	0.042700	0.140550	0.161140
N691	N69	0.204400	0.117570	0.233000
N701	N70	0.246500	0.908150	0.044100
N711	N71	0.110000	0.447370	0.070390
N721	N72	0.195000	0.411790	0.168470
N731	N73	0.075200	0.334830	0.231180
N741	N74	0.026200	0.289300	0.262620
N751	N75	0.950000	0.196230	0.324260
N761	N76	0.835600	0.222840	0.418180
N771	N77	0.031900	0.428170	0.932120
N781	N78	0.042700	0.359450	0.838860
N791	N79	0.204400	0.382430	0.767000
N801	N80	0.246500	0.591850	0.955900
N811	N81	0.008300	0.750000	0.000000
N821	N82	0.491700	0.750000	0.500000
N831	N83	0.991700	0.250000	0.000000
N841	N84	0.508300	0.250000	0.500000
O11	O1	0.702400	0.447400	0.484930
O21	O2	0.736600	0.411150	0.407600
O31	O3	0.807900	0.367660	0.475550
O41	O4	0.062600	0.726700	0.963740
O51	O5	0.702400	0.052600	0.515070
O61	O6	0.736600	0.088850	0.592400
O71	O7	0.807900	0.132340	0.524450
O81	O8	0.062600	0.773300	0.036260
O91	O9	0.797600	0.052600	0.984930
O101	O10	0.763400	0.088850	0.907600
O111	O11	0.692100	0.132340	0.975550
O121	O12	0.437400	0.773300	0.463740
O131	O13	0.797600	0.447400	0.015070
O141	O14	0.763400	0.411150	0.092400
O151	O15	0.692100	0.367660	0.024450
O161	O16	0.437400	0.726700	0.536260
O171	O17	0.297600	0.552600	0.515070
O181	O18	0.263400	0.588850	0.592400
O191	O19	0.192100	0.632340	0.524450
O201	O20	0.937400	0.273300	0.036260
O211	O21	0.297600	0.947400	0.484930
O221	O22	0.263400	0.911150	0.407600
O231	O23	0.192100	0.867660	0.475550
O241	O24	0.937400	0.226700	0.963740
O251	O25	0.202400	0.947400	0.015070
O261	O26	0.236600	0.911150	0.092400
O271	O27	0.307900	0.867660	0.024450
O281	O28	0.562600	0.226700	0.536260
O291	O29	0.202400	0.552600	0.984930
O301	O30	0.236600	0.588850	0.907600
O311	O31	0.307900	0.632340	0.975550
O321	O32	0.562600	0.273300	0.463740
O331	O33	0.907200	0.750000	0.000000
O341	O34	0.592800	0.750000	0.500000
O351	O35	0.092800	0.250000	0.000000
O361	O36	0.407200	0.250000	0.500000
Ag211	Ag21	0.250000	0.922380	0.750000
N851	N85	0.456500	0.988030	0.732390
N861	N86	0.043500	0.988030	0.767610
N871	N87	0.250000	0.787500	0.750000
O371	O37	0.303000	0.817560	0.714840
O381	O38	0.424900	0.982130	0.779820
O391	O39	0.398700	0.963780	0.696030
O401	O40	0.542900	0.016980	0.721260
O411	O41	0.197000	0.817560	0.785160
O421	O42	0.075100	0.982130	0.720180
O431	O43	0.101300	0.963780	0.803970
O441	O44	0.957100	0.016980	0.778740
O451	O45	0.250000	0.730500	0.750000
Ag221	Ag22	0.250000	0.577620	0.250000
N881	N88	0.456500	0.511970	0.267610
N891	N89	0.043500	0.511970	0.232390
N901	N90	0.250000	0.712500	0.250000
O461	O46	0.303000	0.682440	0.285160
O471	O47	0.424900	0.517870	0.220180
O481	O48	0.398700	0.536220	0.303970
O491	O49	0.542900	0.483020	0.278740
O501	O50	0.197000	0.682440	0.214840
O511	O51	0.075100	0.517870	0.279820
O521	O52	0.101300	0.536220	0.196030
O531	O53	0.957100	0.483020	0.221260
O541	O54	0.250000	0.769500	0.250000
Ag231	Ag23	0.750000	0.077620	0.250000
N911	N91	0.543500	0.011970	0.267610
N921	N92	0.956500	0.011970	0.232390
N931	N93	0.750000	0.212500	0.250000
O551	O55	0.697000	0.182440	0.285160
O561	O56	0.575100	0.017870	0.220180
O571	O57	0.601300	0.036220	0.303970
O581	O58	0.457100	0.983020	0.278740
O591	O59	0.803000	0.182440	0.214840
O601	O60	0.924900	0.017870	0.279820
O611	O61	0.898700	0.036220	0.196030
O621	O62	0.042900	0.983020	0.221260
O631	O63	0.750000	0.269500	0.250000
Ag241	Ag24	0.750000	0.422380	0.750000
N941	N94	0.543500	0.488030	0.732390
N951	N95	0.956500	0.488030	0.767610
N961	N96	0.750000	0.287500	0.750000
O641	O64	0.697000	0.317560	0.714840
O651	O65	0.575100	0.482130	0.779820
O661	O66	0.601300	0.463780	0.696030
O671	O67	0.457100	0.516980	0.721260
O681	O68	0.803000	0.317560	0.785160
O691	O69	0.924900	0.482130	0.720180
O701	O70	0.898700	0.463780	0.803970
O711	O71	0.042900	0.516980	0.778740
O721	O72	0.750000	0.230500	0.750000
