data_IRAYOQ_freeONLY_PM
_symmetry_space_group_name_H-M	'P1'
_cell_length_a	20.695000
_cell_length_b	9.959500
_cell_length_c	23.715000
_cell_angle_alpha	90.000000
_cell_angle_beta	101.000000
_cell_angle_gamma	90.000000
_symmetry_Int_Tables_number 1

loop_
_symmetry_equiv_pos_as_xyz
'x,y,z'

loop_
_atom_site_label
_atom_site_type_symbol
_atom_site_fract_x
_atom_site_fract_y
_atom_site_fract_z
V11	V1	0.439900	0.577630	0.564180
V21	V2	0.278760	0.408270	0.722340
V31	V3	0.326220	0.903730	0.672840
P11	P1	0.441880	0.314740	0.495440
P21	P2	0.393940	0.871180	0.560650
P31	P3	0.285520	0.623120	0.825180
P41	P4	0.310300	0.615830	0.623690
O11	O1	0.405110	0.445400	0.502990
O21	O2	0.407450	0.252700	0.435850
O31	O3	0.432840	0.214700	0.541370
O41	O4	0.514360	0.341330	0.495470
O51	O5	0.344850	0.813100	0.509560
O61	O6	0.436380	0.760300	0.592000
O71	O7	0.439610	0.966400	0.533670
O81	O8	0.359630	0.950150	0.601390
O91	O9	0.275900	0.582310	0.761280
O101	O10	0.355180	0.588340	0.856140
O111	O11	0.235410	0.550400	0.855110
O121	O12	0.274200	0.775080	0.828740
O131	O13	0.268880	0.512810	0.649690
O141	O14	0.348690	0.708250	0.670400
O151	O15	0.261340	0.702900	0.582760
O161	O16	0.357190	0.538240	0.592980
O171	O17	0.496180	0.505300	0.608410
O181	O18	0.352860	0.360000	0.734020
O191	O19	0.242010	0.333380	0.786640
O201	O20	0.381440	0.963500	0.722460
O211	O21	0.222800	0.934200	0.524630
H11	H1	0.183700	0.946600	0.511500
V41	V4	0.939900	0.077630	0.564180
V51	V5	0.778760	0.908270	0.722340
V61	V6	0.826220	0.403730	0.672840
P51	P5	0.941880	0.814740	0.495440
P61	P6	0.893940	0.371180	0.560650
P71	P7	0.785520	0.123120	0.825180
P81	P8	0.810300	0.115830	0.623690
O221	O22	0.905110	0.945400	0.502990
O231	O23	0.907450	0.752700	0.435850
O241	O24	0.932840	0.714700	0.541370
O251	O25	0.014360	0.841330	0.495470
O261	O26	0.844850	0.313100	0.509560
O271	O27	0.936380	0.260300	0.592000
O281	O28	0.939610	0.466400	0.533670
O291	O29	0.859630	0.450150	0.601390
O301	O30	0.775900	0.082310	0.761280
O311	O31	0.855180	0.088340	0.856140
O321	O32	0.735410	0.050400	0.855110
O331	O33	0.774200	0.275080	0.828740
O341	O34	0.768880	0.012810	0.649690
O351	O35	0.848690	0.208250	0.670400
O361	O36	0.761340	0.202900	0.582760
O371	O37	0.857190	0.038240	0.592980
O381	O38	0.996180	0.005300	0.608410
O391	O39	0.852860	0.860000	0.734020
O401	O40	0.742010	0.833380	0.786640
O411	O41	0.881440	0.463500	0.722460
O421	O42	0.722800	0.434200	0.524630
H21	H2	0.683700	0.446600	0.511500
V71	V7	0.560100	0.577630	0.935820
V81	V8	0.721240	0.408270	0.777660
V91	V9	0.673780	0.903730	0.827160
P91	P9	0.558120	0.314740	0.004560
P101	P10	0.606060	0.871180	0.939350
P111	P11	0.714480	0.623120	0.674820
P121	P12	0.689700	0.615830	0.876310
O431	O43	0.594890	0.445400	0.997010
O441	O44	0.592550	0.252700	0.064150
O451	O45	0.567160	0.214700	0.958630
O461	O46	0.485640	0.341330	0.004530
O471	O47	0.655150	0.813100	0.990440
O481	O48	0.563620	0.760300	0.908000
O491	O49	0.560390	0.966400	0.966330
O501	O50	0.640370	0.950150	0.898610
O511	O51	0.724100	0.582310	0.738720
O521	O52	0.644820	0.588340	0.643860
O531	O53	0.764590	0.550400	0.644890
O541	O54	0.725800	0.775080	0.671260
O551	O55	0.731120	0.512810	0.850310
O561	O56	0.651310	0.708250	0.829600
O571	O57	0.738660	0.702900	0.917240
O581	O58	0.642810	0.538240	0.907020
O591	O59	0.503820	0.505300	0.891590
O601	O60	0.647140	0.360000	0.765980
O611	O61	0.757990	0.333380	0.713360
O621	O62	0.618560	0.963500	0.777540
O631	O63	0.777200	0.934200	0.975370
H31	H3	0.816300	0.946600	0.988500
V101	V10	0.060100	0.077630	0.935820
V111	V11	0.221240	0.908270	0.777660
V121	V12	0.173780	0.403730	0.827160
P131	P13	0.058120	0.814740	0.004560
P141	P14	0.106060	0.371180	0.939350
P151	P15	0.214480	0.123120	0.674820
P161	P16	0.189700	0.115830	0.876310
O641	O64	0.094890	0.945400	0.997010
O651	O65	0.092550	0.752700	0.064150
O661	O66	0.067160	0.714700	0.958630
O671	O67	0.985640	0.841330	0.004530
O681	O68	0.155150	0.313100	0.990440
O691	O69	0.063620	0.260300	0.908000
O701	O70	0.060390	0.466400	0.966330
O711	O71	0.140370	0.450150	0.898610
O721	O72	0.224100	0.082310	0.738720
O731	O73	0.144820	0.088340	0.643860
O741	O74	0.264590	0.050400	0.644890
O751	O75	0.225800	0.275080	0.671260
O761	O76	0.231120	0.012810	0.850310
O771	O77	0.151310	0.208250	0.829600
O781	O78	0.238660	0.202900	0.917240
O791	O79	0.142810	0.038240	0.907020
O801	O80	0.003820	0.005300	0.891590
O811	O81	0.147140	0.860000	0.765980
O821	O82	0.257990	0.833380	0.713360
O831	O83	0.118560	0.463500	0.777540
O841	O84	0.277200	0.434200	0.975370
H41	H4	0.316300	0.446600	0.988500
V131	V13	0.560100	0.422370	0.435820
V141	V14	0.721240	0.591730	0.277660
V151	V15	0.673780	0.096270	0.327160
P171	P17	0.558120	0.685260	0.504560
P181	P18	0.606060	0.128820	0.439350
P191	P19	0.714480	0.376880	0.174820
P201	P20	0.689700	0.384170	0.376310
O851	O85	0.594890	0.554600	0.497010
O861	O86	0.592550	0.747300	0.564150
O871	O87	0.567160	0.785300	0.458630
O881	O88	0.485640	0.658670	0.504530
O891	O89	0.655150	0.186900	0.490440
O901	O90	0.563620	0.239700	0.408000
O911	O91	0.560390	0.033600	0.466330
O921	O92	0.640370	0.049850	0.398610
O931	O93	0.724100	0.417690	0.238720
O941	O94	0.644820	0.411660	0.143860
O951	O95	0.764590	0.449600	0.144890
O961	O96	0.725800	0.224920	0.171260
O971	O97	0.731120	0.487190	0.350310
O981	O98	0.651310	0.291750	0.329600
O991	O99	0.738660	0.297100	0.417240
O1001	O100	0.642810	0.461760	0.407020
O1011	O101	0.503820	0.494700	0.391590
O1021	O102	0.647140	0.640000	0.265980
O1031	O103	0.757990	0.666620	0.213360
O1041	O104	0.618560	0.036500	0.277540
O1051	O105	0.777200	0.065800	0.475370
H51	H5	0.816300	0.053400	0.488500
V161	V16	0.060100	0.922370	0.435820
V171	V17	0.221240	0.091730	0.277660
V181	V18	0.173780	0.596270	0.327160
P211	P21	0.058120	0.185260	0.504560
P221	P22	0.106060	0.628820	0.439350
P231	P23	0.214480	0.876880	0.174820
P241	P24	0.189700	0.884170	0.376310
O1061	O106	0.094890	0.054600	0.497010
O1071	O107	0.092550	0.247300	0.564150
O1081	O108	0.067160	0.285300	0.458630
O1091	O109	0.985640	0.158670	0.504530
O1101	O110	0.155150	0.686900	0.490440
O1111	O111	0.063620	0.739700	0.408000
O1121	O112	0.060390	0.533600	0.466330
O1131	O113	0.140370	0.549850	0.398610
O1141	O114	0.224100	0.917690	0.238720
O1151	O115	0.144820	0.911660	0.143860
O1161	O116	0.264590	0.949600	0.144890
O1171	O117	0.225800	0.724920	0.171260
O1181	O118	0.231120	0.987190	0.350310
O1191	O119	0.151310	0.791750	0.329600
O1201	O120	0.238660	0.797100	0.417240
O1211	O121	0.142810	0.961760	0.407020
O1221	O122	0.003820	0.994700	0.391590
O1231	O123	0.147140	0.140000	0.265980
O1241	O124	0.257990	0.166620	0.213360
O1251	O125	0.118560	0.536500	0.277540
O1261	O126	0.277200	0.565800	0.475370
H61	H6	0.316300	0.553400	0.488500
V191	V19	0.439900	0.422370	0.064180
V201	V20	0.278760	0.591730	0.222340
V211	V21	0.326220	0.096270	0.172840
P251	P25	0.441880	0.685260	0.995440
P261	P26	0.393940	0.128820	0.060650
P271	P27	0.285520	0.376880	0.325180
P281	P28	0.310300	0.384170	0.123690
O1271	O127	0.405110	0.554600	0.002990
O1281	O128	0.407450	0.747300	0.935850
O1291	O129	0.432840	0.785300	0.041370
O1301	O130	0.514360	0.658670	0.995470
O1311	O131	0.344850	0.186900	0.009560
O1321	O132	0.436380	0.239700	0.092000
O1331	O133	0.439610	0.033600	0.033670
O1341	O134	0.359630	0.049850	0.101390
O1351	O135	0.275900	0.417690	0.261280
O1361	O136	0.355180	0.411660	0.356140
O1371	O137	0.235410	0.449600	0.355110
O1381	O138	0.274200	0.224920	0.328740
O1391	O139	0.268880	0.487190	0.149690
O1401	O140	0.348690	0.291750	0.170400
O1411	O141	0.261340	0.297100	0.082760
O1421	O142	0.357190	0.461760	0.092980
O1431	O143	0.496180	0.494700	0.108410
O1441	O144	0.352860	0.640000	0.234020
O1451	O145	0.242010	0.666620	0.286640
O1461	O146	0.381440	0.036500	0.222460
O1471	O147	0.222800	0.065800	0.024630
H71	H7	0.183700	0.053400	0.011500
V221	V22	0.939900	0.922370	0.064180
V231	V23	0.778760	0.091730	0.222340
V241	V24	0.826220	0.596270	0.172840
P291	P29	0.941880	0.185260	0.995440
P301	P30	0.893940	0.628820	0.060650
P311	P31	0.785520	0.876880	0.325180
P321	P32	0.810300	0.884170	0.123690
O1481	O148	0.905110	0.054600	0.002990
O1491	O149	0.907450	0.247300	0.935850
O1501	O150	0.932840	0.285300	0.041370
O1511	O151	0.014360	0.158670	0.995470
O1521	O152	0.844850	0.686900	0.009560
O1531	O153	0.936380	0.739700	0.092000
O1541	O154	0.939610	0.533600	0.033670
O1551	O155	0.859630	0.549850	0.101390
O1561	O156	0.775900	0.917690	0.261280
O1571	O157	0.855180	0.911660	0.356140
O1581	O158	0.735410	0.949600	0.355110
O1591	O159	0.774200	0.724920	0.328740
O1601	O160	0.768880	0.987190	0.149690
O1611	O161	0.848690	0.791750	0.170400
O1621	O162	0.761340	0.797100	0.082760
O1631	O163	0.857190	0.961760	0.092980
O1641	O164	0.996180	0.994700	0.108410
O1651	O165	0.852860	0.140000	0.234020
O1661	O166	0.742010	0.166620	0.286640
O1671	O167	0.881440	0.536500	0.222460
O1681	O168	0.722800	0.565800	0.024630
H81	H8	0.683700	0.553400	0.011500
V251	V25	0.250000	0.750000	0.500000
V261	V26	0.750000	0.750000	0.000000
V271	V27	0.750000	0.250000	0.500000
V281	V28	0.250000	0.250000	0.000000
