data_ITIPOS_freeONLY_PM
_symmetry_space_group_name_H-M	'P1'
_cell_length_a	17.694300
_cell_length_b	17.694300
_cell_length_c	13.292100
_cell_angle_alpha	90.000000
_cell_angle_beta	90.000000
_cell_angle_gamma	120.000000
_symmetry_Int_Tables_number 1

loop_
_symmetry_equiv_pos_as_xyz
'x,y,z'

loop_
_atom_site_label
_atom_site_type_symbol
_atom_site_fract_x
_atom_site_fract_y
_atom_site_fract_z
Cu11	Cu1	0.133090	0.575260	0.680470
Cu21	Cu2	0.133630	0.580250	0.430510
N11	N1	0.902900	0.503700	0.293200
N21	N2	0.099300	0.505900	0.315000
O11	O1	0.172440	0.638460	0.557500
H11	H1	0.178000	0.685000	0.559000
O21	O2	0.984900	0.433600	0.200500
O31	O3	0.699500	0.501000	0.277400
O41	O4	0.014600	0.570600	0.411700
O51	O5	0.296200	0.498800	0.333600
O61	O6	0.236700	0.561100	0.425500
O71	O7	0.762500	0.441000	0.185500
C11	C1	0.022600	0.482400	0.278200
C21	C2	0.976200	0.522500	0.335200
C31	C3	0.162400	0.484800	0.272900
H21	H2	0.134400	0.420300	0.263600
C41	C4	0.237700	0.515900	0.350600
C51	C5	0.199000	0.531300	0.171100
H31	H3	0.150700	0.515900	0.124200
H41	H4	0.238500	0.512900	0.143100
H51	H5	0.231000	0.594600	0.181600
C61	C6	0.762400	0.488400	0.259100
C71	C7	0.887000	0.635900	0.308800
H61	H6	0.938700	0.666400	0.351800
H71	H7	0.844700	0.654000	0.326700
H81	H8	0.904200	0.650400	0.238200
C81	C8	0.844700	0.535000	0.324300
H91	H9	0.828800	0.520200	0.396700
Cu31	Cu3	0.424740	0.557830	0.680470
Cu41	Cu4	0.419750	0.553380	0.430510
N31	N3	0.496300	0.399200	0.293200
N41	N4	0.494100	0.593400	0.315000
O81	O8	0.361540	0.533980	0.557500
H101	H10	0.315000	0.493000	0.559000
O91	O9	0.566400	0.551300	0.200500
O101	O10	0.499000	0.198500	0.277400
O111	O11	0.429400	0.444000	0.411700
O121	O12	0.501200	0.797400	0.333600
O131	O13	0.438900	0.675600	0.425500
O141	O14	0.559000	0.321500	0.185500
C91	C9	0.517600	0.540200	0.278200
C101	C10	0.477500	0.453700	0.335200
C111	C11	0.515200	0.677600	0.272900
H111	H11	0.579700	0.714100	0.263600
C121	C12	0.484100	0.721800	0.350600
C131	C13	0.468700	0.667700	0.171100
H121	H12	0.484100	0.634800	0.124200
H131	H13	0.487100	0.725600	0.143100
H141	H14	0.405400	0.636400	0.181600
C141	C14	0.511600	0.274000	0.259100
C151	C15	0.364100	0.251100	0.308800
H151	H15	0.333600	0.272300	0.351800
H161	H16	0.346000	0.190700	0.326700
H171	H17	0.349600	0.253800	0.238200
C161	C16	0.465000	0.309700	0.324300
H181	H18	0.479800	0.308600	0.396700
Cu51	Cu5	0.442170	0.866910	0.680470
Cu61	Cu6	0.446620	0.866370	0.430510
N51	N5	0.600800	0.097100	0.293200
N61	N6	0.406600	0.900700	0.315000
O151	O15	0.466020	0.827560	0.557500
H191	H19	0.507000	0.822000	0.559000
O161	O16	0.448700	0.015100	0.200500
O171	O17	0.801500	0.300500	0.277400
O181	O18	0.556000	0.985400	0.411700
O191	O19	0.202600	0.703800	0.333600
O201	O20	0.324400	0.763300	0.425500
O211	O21	0.678500	0.237500	0.185500
C171	C17	0.459800	0.977400	0.278200
C181	C18	0.546300	0.023800	0.335200
C191	C19	0.322400	0.837600	0.272900
H201	H20	0.285900	0.865600	0.263600
C201	C20	0.278200	0.762300	0.350600
C211	C21	0.332300	0.801000	0.171100
H211	H21	0.365200	0.849300	0.124200
H221	H22	0.274400	0.761500	0.143100
H231	H23	0.363600	0.769000	0.181600
C221	C22	0.726000	0.237600	0.259100
C231	C23	0.748900	0.113000	0.308800
H241	H24	0.727700	0.061300	0.351800
H251	H25	0.809300	0.155300	0.326700
H261	H26	0.746200	0.095800	0.238200
C241	C24	0.690300	0.155300	0.324300
H271	H27	0.691400	0.171200	0.396700
Cu71	Cu7	0.866910	0.424740	0.180470
Cu81	Cu8	0.866370	0.419750	0.930510
N71	N7	0.097100	0.496300	0.793200
N81	N8	0.900700	0.494100	0.815000
O221	O22	0.827560	0.361540	0.057500
H281	H28	0.822000	0.315000	0.059000
O231	O23	0.015100	0.566400	0.700500
O241	O24	0.300500	0.499000	0.777400
O251	O25	0.985400	0.429400	0.911700
O261	O26	0.703800	0.501200	0.833600
O271	O27	0.763300	0.438900	0.925500
O281	O28	0.237500	0.559000	0.685500
C251	C25	0.977400	0.517600	0.778200
C261	C26	0.023800	0.477500	0.835200
C271	C27	0.837600	0.515200	0.772900
H291	H29	0.865600	0.579700	0.763600
C281	C28	0.762300	0.484100	0.850600
C291	C29	0.801000	0.468700	0.671100
H301	H30	0.849300	0.484100	0.624200
H311	H31	0.761500	0.487100	0.643100
H321	H32	0.769000	0.405400	0.681600
C301	C30	0.237600	0.511600	0.759100
C311	C31	0.113000	0.364100	0.808800
H331	H33	0.061300	0.333600	0.851800
H341	H34	0.155300	0.346000	0.826700
H351	H35	0.095800	0.349600	0.738200
C321	C32	0.155300	0.465000	0.824300
H361	H36	0.171200	0.479800	0.896700
Cu91	Cu9	0.575260	0.442170	0.180470
Cu101	Cu10	0.580250	0.446620	0.930510
N91	N9	0.503700	0.600800	0.793200
N101	N10	0.505900	0.406600	0.815000
O291	O29	0.638460	0.466020	0.057500
H371	H37	0.685000	0.507000	0.059000
O301	O30	0.433600	0.448700	0.700500
O311	O31	0.501000	0.801500	0.777400
O321	O32	0.570600	0.556000	0.911700
O331	O33	0.498800	0.202600	0.833600
O341	O34	0.561100	0.324400	0.925500
O351	O35	0.441000	0.678500	0.685500
C331	C33	0.482400	0.459800	0.778200
C341	C34	0.522500	0.546300	0.835200
C351	C35	0.484800	0.322400	0.772900
H381	H38	0.420300	0.285900	0.763600
C361	C36	0.515900	0.278200	0.850600
C371	C37	0.531300	0.332300	0.671100
H391	H39	0.515900	0.365200	0.624200
H401	H40	0.512900	0.274400	0.643100
H411	H41	0.594600	0.363600	0.681600
C381	C38	0.488400	0.726000	0.759100
C391	C39	0.635900	0.748900	0.808800
H421	H42	0.666400	0.727700	0.851800
H431	H43	0.654000	0.809300	0.826700
H441	H44	0.650400	0.746200	0.738200
C401	C40	0.535000	0.690300	0.824300
H451	H45	0.520200	0.691400	0.896700
Cu111	Cu11	0.557830	0.133090	0.180470
Cu121	Cu12	0.553380	0.133630	0.930510
N111	N11	0.399200	0.902900	0.793200
N121	N12	0.593400	0.099300	0.815000
O361	O36	0.533980	0.172440	0.057500
H461	H46	0.493000	0.178000	0.059000
O371	O37	0.551300	0.984900	0.700500
O381	O38	0.198500	0.699500	0.777400
O391	O39	0.444000	0.014600	0.911700
O401	O40	0.797400	0.296200	0.833600
O411	O41	0.675600	0.236700	0.925500
O421	O42	0.321500	0.762500	0.685500
C411	C41	0.540200	0.022600	0.778200
C421	C42	0.453700	0.976200	0.835200
C431	C43	0.677600	0.162400	0.772900
H471	H47	0.714100	0.134400	0.763600
C441	C44	0.721800	0.237700	0.850600
C451	C45	0.667700	0.199000	0.671100
H481	H48	0.634800	0.150700	0.624200
H491	H49	0.725600	0.238500	0.643100
H501	H50	0.636400	0.231000	0.681600
C461	C46	0.274000	0.762400	0.759100
C471	C47	0.251100	0.887000	0.808800
H511	H51	0.272300	0.938700	0.851800
H521	H52	0.190700	0.844700	0.826700
H531	H53	0.253800	0.904200	0.738200
C481	C48	0.309700	0.844700	0.824300
H541	H54	0.308600	0.828800	0.896700
Ca11	Ca1	0.333330	0.666670	0.556300
Ca21	Ca2	0.666670	0.333330	0.056300
