data_ITIWIS_charged_PM
_symmetry_space_group_name_H-M	'P1'
_cell_length_a	15.874600
_cell_length_b	15.874600
_cell_length_c	21.497000
_cell_angle_alpha	90.000000
_cell_angle_beta	90.000000
_cell_angle_gamma	90.000000
_symmetry_Int_Tables_number 1

loop_
_symmetry_equiv_pos_as_xyz
'x,y,z'

loop_
_atom_site_label
_atom_site_type_symbol
_atom_site_fract_x
_atom_site_fract_y
_atom_site_fract_z
Cd11	Cd1	0.059140	0.059140	0.000000
Cd21	Cd2	0.940860	0.940860	0.500000
Cd31	Cd3	0.440860	0.559140	0.250000
Cd41	Cd4	0.559140	0.440860	0.750000
H11	H1	0.387900	0.538400	0.098500
H21	H2	0.286200	0.590000	0.030900
H31	H3	0.257400	0.788100	0.147900
H41	H4	0.358300	0.730600	0.210500
H51	H5	0.200900	0.653500	0.967400
H61	H6	0.086800	0.703600	0.912500
H71	H7	0.994200	0.801000	0.957100
H81	H8	0.137800	0.803000	0.112500
H91	H9	0.876600	0.047600	0.208900
H101	H10	0.767600	0.066500	0.279400
H111	H11	0.661400	0.965300	0.288800
H121	H12	0.776200	0.825900	0.156000
H131	H13	0.606600	0.845400	0.317100
H141	H14	0.513000	0.734000	0.327400
H151	H15	0.553400	0.663200	0.154600
H161	H16	0.649900	0.771800	0.140600
H171	H17	0.968700	0.746500	0.146100
H181	H18	0.902900	0.740200	0.097200
H191	H19	0.612100	0.461600	0.598500
H201	H20	0.713800	0.410000	0.530900
H211	H21	0.742600	0.211900	0.647900
H221	H22	0.641700	0.269400	0.710500
H231	H23	0.799100	0.346500	0.467400
H241	H24	0.913200	0.296400	0.412500
H251	H25	0.005800	0.199000	0.457100
H261	H26	0.862200	0.197000	0.612500
H271	H27	0.123400	0.952400	0.708900
H281	H28	0.232400	0.933500	0.779400
H291	H29	0.338600	0.034700	0.788800
H301	H30	0.223800	0.174100	0.656000
H311	H31	0.393400	0.154600	0.817100
H321	H32	0.487000	0.266000	0.827400
H331	H33	0.446600	0.336800	0.654600
H341	H34	0.350100	0.228200	0.640600
H351	H35	0.031300	0.253500	0.646100
H361	H36	0.097100	0.259800	0.597200
H371	H37	0.961600	0.887900	0.348500
H381	H38	0.910000	0.786200	0.280900
H391	H39	0.711900	0.757400	0.397900
H401	H40	0.769400	0.858300	0.460500
H411	H41	0.846500	0.700900	0.217400
H421	H42	0.796400	0.586800	0.162500
H431	H43	0.699000	0.494200	0.207100
H441	H44	0.697000	0.637800	0.362500
H451	H45	0.452400	0.376600	0.458900
H461	H46	0.433500	0.267600	0.529400
H471	H47	0.534700	0.161400	0.538800
H481	H48	0.674100	0.276200	0.406000
H491	H49	0.654600	0.106600	0.567100
H501	H50	0.766000	0.013000	0.577400
H511	H51	0.836800	0.053400	0.404600
H521	H52	0.728200	0.149900	0.390600
H531	H53	0.753500	0.468700	0.396100
H541	H54	0.759800	0.402900	0.347200
H551	H55	0.038400	0.112100	0.848500
H561	H56	0.090000	0.213800	0.780900
H571	H57	0.288100	0.242600	0.897900
H581	H58	0.230600	0.141700	0.960500
H591	H59	0.153500	0.299100	0.717400
H601	H60	0.203600	0.413200	0.662500
H611	H61	0.301000	0.505800	0.707100
H621	H62	0.303000	0.362200	0.862500
H631	H63	0.547600	0.623400	0.958900
H641	H64	0.566500	0.732400	0.029400
H651	H65	0.465300	0.838600	0.038800
H661	H66	0.325900	0.723800	0.906000
H671	H67	0.345400	0.893400	0.067100
H681	H68	0.234000	0.987000	0.077400
H691	H69	0.163200	0.946600	0.904600
H701	H70	0.271800	0.850100	0.890600
H711	H71	0.246500	0.531300	0.896100
H721	H72	0.240200	0.597100	0.847200
H731	H73	0.112100	0.038400	0.151500
H741	H74	0.213800	0.090000	0.219100
H751	H75	0.242600	0.288100	0.102100
H761	H76	0.141700	0.230600	0.039500
H771	H77	0.299100	0.153500	0.282600
H781	H78	0.413200	0.203600	0.337500
H791	H79	0.505800	0.301000	0.292900
H801	H80	0.362200	0.303000	0.137500
H811	H81	0.623400	0.547600	0.041100
H821	H82	0.732400	0.566500	0.970600
H831	H83	0.838600	0.465300	0.961200
H841	H84	0.723800	0.325900	0.094000
H851	H85	0.893400	0.345400	0.932900
H861	H86	0.987000	0.234000	0.922600
H871	H87	0.946600	0.163200	0.095400
H881	H88	0.850100	0.271800	0.109400
H891	H89	0.531300	0.246500	0.103900
H901	H90	0.597100	0.240200	0.152800
H911	H91	0.887900	0.961600	0.651500
H921	H92	0.786200	0.910000	0.719100
H931	H93	0.757400	0.711900	0.602100
H941	H94	0.858300	0.769400	0.539500
H951	H95	0.700900	0.846500	0.782600
H961	H96	0.586800	0.796400	0.837500
H971	H97	0.494200	0.699000	0.792900
H981	H98	0.637800	0.697000	0.637500
H991	H99	0.376600	0.452400	0.541100
H1001	H100	0.267600	0.433500	0.470600
H1011	H101	0.161400	0.534700	0.461200
H1021	H102	0.276200	0.674100	0.594000
H1031	H103	0.106600	0.654600	0.432900
H1041	H104	0.013000	0.766000	0.422600
H1051	H105	0.053400	0.836800	0.595400
H1061	H106	0.149900	0.728200	0.609400
H1071	H107	0.468700	0.753500	0.603900
H1081	H108	0.402900	0.759800	0.652800
H1091	H109	0.538400	0.387900	0.901500
H1101	H110	0.590000	0.286200	0.969100
H1111	H111	0.788100	0.257400	0.852100
H1121	H112	0.730600	0.358300	0.789500
H1131	H113	0.653500	0.200900	0.032600
H1141	H114	0.703600	0.086800	0.087500
H1151	H115	0.801000	0.994200	0.042900
H1161	H116	0.803000	0.137800	0.887500
H1171	H117	0.047600	0.876600	0.791100
H1181	H118	0.066500	0.767600	0.720600
H1191	H119	0.965300	0.661400	0.711200
H1201	H120	0.825900	0.776200	0.844000
H1211	H121	0.845400	0.606600	0.682900
H1221	H122	0.734000	0.513000	0.672600
H1231	H123	0.663200	0.553400	0.845400
H1241	H124	0.771800	0.649900	0.859400
H1251	H125	0.746500	0.968700	0.853900
H1261	H126	0.740200	0.902900	0.902800
H1271	H127	0.461600	0.612100	0.401500
H1281	H128	0.410000	0.713800	0.469100
H1291	H129	0.211900	0.742600	0.352100
H1301	H130	0.269400	0.641700	0.289500
H1311	H131	0.346500	0.799100	0.532600
H1321	H132	0.296400	0.913200	0.587500
H1331	H133	0.199000	0.005800	0.542900
H1341	H134	0.197000	0.862200	0.387500
H1351	H135	0.952400	0.123400	0.291100
H1361	H136	0.933500	0.232400	0.220600
H1371	H137	0.034700	0.338600	0.211200
H1381	H138	0.174100	0.223800	0.344000
H1391	H139	0.154600	0.393400	0.182900
H1401	H140	0.266000	0.487000	0.172600
H1411	H141	0.336800	0.446600	0.345400
H1421	H142	0.228200	0.350100	0.359400
H1431	H143	0.253500	0.031300	0.353900
H1441	H144	0.259800	0.097100	0.402800
C11	C1	0.359400	0.589000	0.109300
C21	C2	0.298000	0.619100	0.068600
C31	C3	0.254200	0.692200	0.083800
C41	C4	0.281300	0.735200	0.137400
C51	C5	0.342000	0.700700	0.174200
C61	C6	0.181700	0.723400	0.046800
C71	C7	0.164800	0.694000	0.986000
C81	C8	0.096800	0.723500	0.953600
C91	C9	0.042000	0.781800	0.979500
C101	C10	0.058800	0.811600	0.039100
C111	C11	0.127500	0.782200	0.071800
C121	C12	0.002500	0.874800	0.069800
C131	C13	0.907400	0.925400	0.131900
C141	C14	0.836700	0.934600	0.176000
C151	C15	0.833700	0.006100	0.212600
C161	C16	0.768900	0.017500	0.254100
C171	C17	0.705500	0.957700	0.259400
C181	C18	0.706700	0.886400	0.221300
C191	C19	0.773700	0.875300	0.180800
C201	C20	0.640800	0.819800	0.227900
C211	C21	0.597700	0.808100	0.283200
C221	C22	0.541400	0.741500	0.288900
C231	C23	0.565000	0.700000	0.188400
C241	C24	0.622800	0.765100	0.179700
C251	C25	0.640600	0.411000	0.609300
C261	C26	0.702000	0.380900	0.568600
C271	C27	0.745800	0.307800	0.583800
C281	C28	0.718700	0.264800	0.637400
C291	C29	0.658000	0.299300	0.674200
C301	C30	0.818300	0.276600	0.546800
C311	C31	0.835200	0.306000	0.486000
C321	C32	0.903200	0.276500	0.453600
C331	C33	0.958000	0.218200	0.479500
C341	C34	0.941200	0.188400	0.539100
C351	C35	0.872500	0.217800	0.571800
C361	C36	0.997500	0.125200	0.569800
C371	C37	0.092600	0.074600	0.631900
C381	C38	0.163300	0.065400	0.676000
C391	C39	0.166300	0.993900	0.712600
C401	C40	0.231100	0.982500	0.754100
C411	C41	0.294500	0.042300	0.759400
C421	C42	0.293300	0.113600	0.721300
C431	C43	0.226300	0.124700	0.680800
C441	C44	0.359200	0.180200	0.727900
C451	C45	0.402300	0.191900	0.783200
C461	C46	0.458600	0.258500	0.788900
C471	C47	0.435000	0.300000	0.688400
C481	C48	0.377200	0.234900	0.679700
C491	C49	0.911000	0.859400	0.359300
C501	C50	0.880900	0.798000	0.318600
C511	C51	0.807800	0.754200	0.333800
C521	C52	0.764800	0.781300	0.387400
C531	C53	0.799300	0.842000	0.424200
C541	C54	0.776600	0.681700	0.296800
C551	C55	0.806000	0.664800	0.236000
C561	C56	0.776500	0.596800	0.203600
C571	C57	0.718200	0.542000	0.229500
C581	C58	0.688400	0.558800	0.289100
C591	C59	0.717800	0.627500	0.321800
C601	C60	0.625200	0.502500	0.319800
C611	C61	0.574600	0.407400	0.381900
C621	C62	0.565400	0.336700	0.426000
C631	C63	0.493900	0.333700	0.462600
C641	C64	0.482500	0.268900	0.504100
C651	C65	0.542300	0.205500	0.509400
C661	C66	0.613600	0.206700	0.471300
C671	C67	0.624700	0.273700	0.430800
C681	C68	0.680200	0.140800	0.477900
C691	C69	0.691900	0.097700	0.533200
C701	C70	0.758500	0.041400	0.538900
C711	C71	0.800000	0.065000	0.438400
C721	C72	0.734900	0.122800	0.429700
C731	C73	0.089000	0.140600	0.859300
C741	C74	0.119100	0.202000	0.818600
C751	C75	0.192200	0.245800	0.833800
C761	C76	0.235200	0.218700	0.887400
C771	C77	0.200700	0.158000	0.924200
C781	C78	0.223400	0.318300	0.796800
C791	C79	0.194000	0.335200	0.736000
C801	C80	0.223500	0.403200	0.703600
C811	C81	0.281800	0.458000	0.729500
C821	C82	0.311600	0.441200	0.789100
C831	C83	0.282200	0.372500	0.821800
C841	C84	0.374800	0.497500	0.819800
C851	C85	0.425400	0.592600	0.881900
C861	C86	0.434600	0.663300	0.926000
C871	C87	0.506100	0.666300	0.962600
C881	C88	0.517500	0.731100	0.004100
C891	C89	0.457700	0.794500	0.009400
C901	C90	0.386400	0.793300	0.971300
C911	C91	0.375300	0.726300	0.930800
C921	C92	0.319800	0.859200	0.977900
C931	C93	0.308100	0.902300	0.033200
C941	C94	0.241500	0.958600	0.038900
C951	C95	0.200000	0.935000	0.938400
C961	C96	0.265100	0.877200	0.929700
C971	C97	0.140600	0.089000	0.140700
C981	C98	0.202000	0.119100	0.181400
C991	C99	0.245800	0.192200	0.166200
C1001	C100	0.218700	0.235200	0.112600
C1011	C101	0.158000	0.200700	0.075800
C1021	C102	0.318300	0.223400	0.203200
C1031	C103	0.335200	0.194000	0.264000
C1041	C104	0.403200	0.223500	0.296400
C1051	C105	0.458000	0.281800	0.270500
C1061	C106	0.441200	0.311600	0.210900
C1071	C107	0.372500	0.282200	0.178200
C1081	C108	0.497500	0.374800	0.180200
C1091	C109	0.592600	0.425400	0.118100
C1101	C110	0.663300	0.434600	0.074000
C1111	C111	0.666300	0.506100	0.037400
C1121	C112	0.731100	0.517500	0.995900
C1131	C113	0.794500	0.457700	0.990600
C1141	C114	0.793300	0.386400	0.028700
C1151	C115	0.726300	0.375300	0.069200
C1161	C116	0.859200	0.319800	0.022100
C1171	C117	0.902300	0.308100	0.966800
C1181	C118	0.958600	0.241500	0.961100
C1191	C119	0.935000	0.200000	0.061600
C1201	C120	0.877200	0.265100	0.070300
C1211	C121	0.859400	0.911000	0.640700
C1221	C122	0.798000	0.880900	0.681400
C1231	C123	0.754200	0.807800	0.666200
C1241	C124	0.781300	0.764800	0.612600
C1251	C125	0.842000	0.799300	0.575800
C1261	C126	0.681700	0.776600	0.703200
C1271	C127	0.664800	0.806000	0.764000
C1281	C128	0.596800	0.776500	0.796400
C1291	C129	0.542000	0.718200	0.770500
C1301	C130	0.558800	0.688400	0.710900
C1311	C131	0.627500	0.717800	0.678200
C1321	C132	0.502500	0.625200	0.680200
C1331	C133	0.407400	0.574600	0.618100
C1341	C134	0.336700	0.565400	0.574000
C1351	C135	0.333700	0.493900	0.537400
C1361	C136	0.268900	0.482500	0.495900
C1371	C137	0.205500	0.542300	0.490600
C1381	C138	0.206700	0.613600	0.528700
C1391	C139	0.273700	0.624700	0.569200
C1401	C140	0.140800	0.680200	0.522100
C1411	C141	0.097700	0.691900	0.466800
C1421	C142	0.041400	0.758500	0.461100
C1431	C143	0.065000	0.800000	0.561600
C1441	C144	0.122800	0.734900	0.570300
C1451	C145	0.589000	0.359400	0.890700
C1461	C146	0.619100	0.298000	0.931400
C1471	C147	0.692200	0.254200	0.916200
C1481	C148	0.735200	0.281300	0.862600
C1491	C149	0.700700	0.342000	0.825800
C1501	C150	0.723400	0.181700	0.953200
C1511	C151	0.694000	0.164800	0.014000
C1521	C152	0.723500	0.096800	0.046400
C1531	C153	0.781800	0.042000	0.020500
C1541	C154	0.811600	0.058800	0.960900
C1551	C155	0.782200	0.127500	0.928200
C1561	C156	0.874800	0.002500	0.930200
C1571	C157	0.925400	0.907400	0.868100
C1581	C158	0.934600	0.836700	0.824000
C1591	C159	0.006100	0.833700	0.787400
C1601	C160	0.017500	0.768900	0.745900
C1611	C161	0.957700	0.705500	0.740600
C1621	C162	0.886400	0.706700	0.778700
C1631	C163	0.875300	0.773700	0.819200
C1641	C164	0.819800	0.640800	0.772100
C1651	C165	0.808100	0.597700	0.716800
C1661	C166	0.741500	0.541400	0.711100
C1671	C167	0.700000	0.565000	0.811600
C1681	C168	0.765100	0.622800	0.820300
C1691	C169	0.411000	0.640600	0.390700
C1701	C170	0.380900	0.702000	0.431400
C1711	C171	0.307800	0.745800	0.416200
C1721	C172	0.264800	0.718700	0.362600
C1731	C173	0.299300	0.658000	0.325800
C1741	C174	0.276600	0.818300	0.453200
C1751	C175	0.306000	0.835200	0.514000
C1761	C176	0.276500	0.903200	0.546400
C1771	C177	0.218200	0.958000	0.520500
C1781	C178	0.188400	0.941200	0.460900
C1791	C179	0.217800	0.872500	0.428200
C1801	C180	0.125200	0.997500	0.430200
C1811	C181	0.074600	0.092600	0.368100
C1821	C182	0.065400	0.163300	0.324000
C1831	C183	0.993900	0.166300	0.287400
C1841	C184	0.982500	0.231100	0.245900
C1851	C185	0.042300	0.294500	0.240600
C1861	C186	0.113600	0.293300	0.278700
C1871	C187	0.124700	0.226300	0.319200
C1881	C188	0.180200	0.359200	0.272100
C1891	C189	0.191900	0.402300	0.216800
C1901	C190	0.258500	0.458600	0.211100
C1911	C191	0.300000	0.435000	0.311600
C1921	C192	0.234900	0.377200	0.320300
N11	N1	0.006900	0.956800	0.067200
N21	N2	0.946200	0.989300	0.106000
N31	N3	0.941300	0.853200	0.109760
N41	N4	0.921700	0.771100	0.130100
N51	N5	0.380500	0.626300	0.162100
N61	N6	0.525300	0.687300	0.242400
N71	N7	0.993100	0.043200	0.567200
N81	N8	0.053800	0.010700	0.606000
N91	N9	0.058700	0.146800	0.609760
N101	N10	0.078300	0.228900	0.630100
N111	N11	0.619500	0.373700	0.662100
N121	N12	0.474700	0.312700	0.742400
N131	N13	0.543200	0.506900	0.317200
N141	N14	0.510700	0.446200	0.356000
N151	N15	0.646800	0.441300	0.359760
N161	N16	0.728900	0.421700	0.380100
N171	N17	0.873700	0.880500	0.412100
N181	N18	0.812700	0.025300	0.492400
N191	N19	0.456800	0.493100	0.817200
N201	N20	0.489300	0.553800	0.856000
N211	N21	0.353200	0.558700	0.859760
N221	N22	0.271100	0.578300	0.880100
N231	N23	0.126300	0.119500	0.912100
N241	N24	0.187300	0.974700	0.992400
N251	N25	0.493100	0.456800	0.182800
N261	N26	0.553800	0.489300	0.144000
N271	N27	0.558700	0.353200	0.140240
N281	N28	0.578300	0.271100	0.119900
N291	N29	0.119500	0.126300	0.087900
N301	N30	0.974700	0.187300	0.007600
N311	N31	0.506900	0.543200	0.682800
N321	N32	0.446200	0.510700	0.644000
N331	N33	0.441300	0.646800	0.640240
N341	N34	0.421700	0.728900	0.619900
N351	N35	0.880500	0.873700	0.587900
N361	N36	0.025300	0.812700	0.507600
N371	N37	0.956800	0.006900	0.932800
N381	N38	0.989300	0.946200	0.894000
N391	N39	0.853200	0.941300	0.890240
N401	N40	0.771100	0.921700	0.869900
N411	N41	0.626300	0.380500	0.837900
N421	N42	0.687300	0.525300	0.757600
N431	N43	0.043200	0.993100	0.432800
N441	N44	0.010700	0.053800	0.394000
N451	N45	0.146800	0.058700	0.390240
N461	N46	0.228900	0.078300	0.369900
N471	N47	0.373700	0.619500	0.337900
N481	N48	0.312700	0.474700	0.257600
Cl11	Cl1	0.881550	0.118450	0.750000
O11	O1	0.887200	0.185700	0.786800
O21	O2	0.871000	0.055600	0.784800
O31	O3	0.814300	0.112800	0.713200
O41	O4	0.944400	0.129000	0.715200
Cl21	Cl2	0.118450	0.881550	0.250000
O51	O5	0.112800	0.814300	0.286800
O61	O6	0.129000	0.944400	0.284800
O71	O7	0.185700	0.887200	0.213200
O81	O8	0.055600	0.871000	0.215200
Cl31	Cl3	0.381550	0.381550	0.000000
O91	O9	0.314300	0.387200	0.036800
O101	O10	0.444400	0.371000	0.034800
O111	O11	0.387200	0.314300	0.963200
O121	O12	0.371000	0.444400	0.965200
Cl41	Cl4	0.618450	0.618450	0.500000
O131	O13	0.685700	0.612800	0.536800
O141	O14	0.555600	0.629000	0.534800
O151	O15	0.612800	0.685700	0.463200
O161	O16	0.629000	0.555600	0.465200
