data_ITOSEQ_freeONLY_PM
_symmetry_space_group_name_H-M	'P1'
_cell_length_a	10.892800
_cell_length_b	8.791700
_cell_length_c	27.766500
_cell_angle_alpha	90.000000
_cell_angle_beta	101.051000
_cell_angle_gamma	90.000000
_symmetry_Int_Tables_number 1

loop_
_symmetry_equiv_pos_as_xyz
'x,y,z'

loop_
_atom_site_label
_atom_site_type_symbol
_atom_site_fract_x
_atom_site_fract_y
_atom_site_fract_z
Zn11	Zn1	0.629560	0.033080	0.800940
Zn21	Zn2	0.872840	0.237810	0.704000
P11	P1	0.881720	0.952900	0.767830
P21	P2	0.613280	0.305000	0.728990
O11	O1	0.887800	0.020400	0.718230
O21	O2	0.954660	0.804500	0.777000
O31	O3	0.746790	0.920400	0.771900
O41	O4	0.939600	0.075300	0.806780
O51	O5	0.752070	0.347700	0.733610
O61	O6	0.588000	0.239300	0.776610
O71	O7	0.584400	0.175300	0.689330
O81	O8	0.668000	0.064600	0.871460
O91	O9	0.836500	0.237800	0.132100
O101	O10	0.876900	0.058000	0.891680
O111	O11	0.628400	0.215200	0.110910
C11	C1	0.772000	0.073000	0.901690
C21	C2	0.763200	0.102700	0.954300
C31	C3	0.647700	0.103700	0.968090
C41	C4	0.639200	0.139500	0.015660
C51	C5	0.746800	0.169200	0.050560
C61	C6	0.862300	0.162200	0.037300
C71	C7	0.870900	0.130500	0.989080
C81	C8	0.735500	0.209600	0.102150
H11	H1	0.924300	0.056300	0.838500
H21	H2	0.601100	0.210500	0.662100
H31	H3	0.576400	0.082100	0.945200
H41	H4	0.561400	0.141900	0.024300
H51	H5	0.934500	0.176400	0.060800
H61	H6	0.948400	0.129000	0.980400
O121	O12	0.533700	0.442000	0.713710
Zn31	Zn3	0.370440	0.533080	0.699060
Zn41	Zn4	0.127160	0.737810	0.795990
P31	P3	0.118280	0.452900	0.732170
P41	P4	0.386720	0.805000	0.771010
O131	O13	0.112200	0.520400	0.781770
O141	O14	0.045340	0.304500	0.723000
O151	O15	0.253210	0.420400	0.728100
O161	O16	0.060400	0.575300	0.693220
O171	O17	0.247930	0.847700	0.766390
O181	O18	0.412000	0.739300	0.723390
O191	O19	0.415600	0.675300	0.810670
O201	O20	0.332000	0.564600	0.628540
O211	O21	0.163500	0.737800	0.367900
O221	O22	0.123100	0.558000	0.608320
O231	O23	0.371600	0.715200	0.389090
C91	C9	0.228000	0.573000	0.598310
C101	C10	0.236800	0.602700	0.545700
C111	C11	0.352300	0.603700	0.531910
C121	C12	0.360800	0.639500	0.484340
C131	C13	0.253200	0.669200	0.449440
C141	C14	0.137700	0.662200	0.462700
C151	C15	0.129100	0.630500	0.510920
C161	C16	0.264500	0.709600	0.397850
H71	H7	0.075700	0.556300	0.661500
H81	H8	0.398900	0.710500	0.837900
H91	H9	0.423600	0.582100	0.554800
H101	H10	0.438600	0.641900	0.475700
H111	H11	0.065500	0.676400	0.439200
H121	H12	0.051600	0.629000	0.519600
O241	O24	0.466300	0.942000	0.786290
Zn51	Zn5	0.370440	0.966920	0.199060
Zn61	Zn6	0.127160	0.762190	0.296000
P51	P5	0.118280	0.047100	0.232170
P61	P6	0.386720	0.695000	0.271010
O251	O25	0.112200	0.979600	0.281770
O261	O26	0.045340	0.195500	0.223000
O271	O27	0.253210	0.079600	0.228100
O281	O28	0.060400	0.924700	0.193220
O291	O29	0.247930	0.652300	0.266390
O301	O30	0.412000	0.760700	0.223390
O311	O31	0.415600	0.824700	0.310670
O321	O32	0.332000	0.935400	0.128540
O331	O33	0.163500	0.762200	0.867900
O341	O34	0.123100	0.942000	0.108320
O351	O35	0.371600	0.784800	0.889090
C171	C17	0.228000	0.927000	0.098310
C181	C18	0.236800	0.897300	0.045700
C191	C19	0.352300	0.896300	0.031910
C201	C20	0.360800	0.860500	0.984340
C211	C21	0.253200	0.830800	0.949440
C221	C22	0.137700	0.837800	0.962700
C231	C23	0.129100	0.869500	0.010920
C241	C24	0.264500	0.790400	0.897850
H131	H13	0.075700	0.943700	0.161500
H141	H14	0.398900	0.789500	0.337900
H151	H15	0.423600	0.917900	0.054800
H161	H16	0.438600	0.858100	0.975700
H171	H17	0.065500	0.823600	0.939200
H181	H18	0.051600	0.871000	0.019600
O361	O36	0.466300	0.558000	0.286290
Zn71	Zn7	0.629560	0.466920	0.300940
Zn81	Zn8	0.872840	0.262190	0.204000
P71	P7	0.881720	0.547100	0.267830
P81	P8	0.613280	0.195000	0.228990
O371	O37	0.887800	0.479600	0.218230
O381	O38	0.954660	0.695500	0.277000
O391	O39	0.746790	0.579600	0.271900
O401	O40	0.939600	0.424700	0.306780
O411	O41	0.752070	0.152300	0.233610
O421	O42	0.588000	0.260700	0.276610
O431	O43	0.584400	0.324700	0.189330
O441	O44	0.668000	0.435400	0.371460
O451	O45	0.836500	0.262200	0.632100
O461	O46	0.876900	0.442000	0.391680
O471	O47	0.628400	0.284800	0.610910
C251	C25	0.772000	0.427000	0.401690
C261	C26	0.763200	0.397300	0.454300
C271	C27	0.647700	0.396300	0.468090
C281	C28	0.639200	0.360500	0.515660
C291	C29	0.746800	0.330800	0.550560
C301	C30	0.862300	0.337800	0.537300
C311	C31	0.870900	0.369500	0.489080
C321	C32	0.735500	0.290400	0.602150
H191	H19	0.924300	0.443700	0.338500
H201	H20	0.601100	0.289500	0.162100
H211	H21	0.576400	0.417900	0.445200
H221	H22	0.561400	0.358100	0.524300
H231	H23	0.934500	0.323600	0.560800
H241	H24	0.948400	0.371000	0.480400
O481	O48	0.533700	0.058000	0.213710
