data_IVETOT_freeONLY_PM
_symmetry_space_group_name_H-M	'P1'
_cell_length_a	14.689000
_cell_length_b	14.995000
_cell_length_c	30.625000
_cell_angle_alpha	90.000000
_cell_angle_beta	90.000000
_cell_angle_gamma	90.000000
_symmetry_Int_Tables_number 1

loop_
_symmetry_equiv_pos_as_xyz
'x,y,z'

loop_
_atom_site_label
_atom_site_type_symbol
_atom_site_fract_x
_atom_site_fract_y
_atom_site_fract_z
Cu11	Cu1	0.500000	0.250000	0.250000
Cu21	Cu2	0.000000	0.750000	0.750000
H11	H1	0.601300	0.087800	0.226500
H21	H2	0.607300	0.978500	0.172000
H31	H3	0.386200	0.096000	0.117900
H41	H4	0.392500	0.200000	0.171300
H51	H5	0.629000	0.919700	0.110200
H61	H6	0.632600	0.812800	0.054800
H71	H7	0.371100	0.871600	0.026000
H81	H8	0.369900	0.976600	0.080800
H91	H9	0.855200	0.626300	0.788000
H101	H10	0.757900	0.623000	0.846800
H111	H11	0.840900	0.871300	0.880300
H121	H12	0.935800	0.865300	0.818800
H131	H13	0.667900	0.617700	0.896000
H141	H14	0.554000	0.624800	0.948000
H151	H15	0.637000	0.869200	0.984100
H161	H16	0.752000	0.865200	0.931600
H171	H17	0.601300	0.412200	0.273500
H181	H18	0.607300	0.521500	0.328000
H191	H19	0.386200	0.404000	0.382100
H201	H20	0.392500	0.300000	0.328700
H211	H21	0.629000	0.580300	0.389800
H221	H22	0.632600	0.687200	0.445200
H231	H23	0.371100	0.628400	0.474000
H241	H24	0.369900	0.523400	0.419200
H251	H25	0.855200	0.873700	0.712000
H261	H26	0.757900	0.877000	0.653200
H271	H27	0.840900	0.628700	0.619700
H281	H28	0.935800	0.634700	0.681200
H291	H29	0.667900	0.882300	0.604000
H301	H30	0.554000	0.875200	0.552000
H311	H31	0.637000	0.630800	0.515900
H321	H32	0.752000	0.634800	0.568400
H331	H33	0.398700	0.412200	0.226500
H341	H34	0.392700	0.521500	0.172000
H351	H35	0.613800	0.404000	0.117900
H361	H36	0.607500	0.300000	0.171300
H371	H37	0.371000	0.580300	0.110200
H381	H38	0.367400	0.687200	0.054800
H391	H39	0.628900	0.628400	0.026000
H401	H40	0.630100	0.523400	0.080800
H411	H41	0.144800	0.873700	0.788000
H421	H42	0.242100	0.877000	0.846800
H431	H43	0.159100	0.628700	0.880300
H441	H44	0.064200	0.634700	0.818800
H451	H45	0.332100	0.882300	0.896000
H461	H46	0.446000	0.875200	0.948000
H471	H47	0.363000	0.630800	0.984100
H481	H48	0.248000	0.634800	0.931600
H491	H49	0.398700	0.087800	0.273500
H501	H50	0.392700	0.978500	0.328000
H511	H51	0.613800	0.096000	0.382100
H521	H52	0.607500	0.200000	0.328700
H531	H53	0.371000	0.919700	0.389800
H541	H54	0.367400	0.812800	0.445200
H551	H55	0.628900	0.871600	0.474000
H561	H56	0.630100	0.976600	0.419200
H571	H57	0.144800	0.626300	0.712000
H581	H58	0.242100	0.623000	0.653200
H591	H59	0.159100	0.871300	0.619700
H601	H60	0.064200	0.865300	0.681200
H611	H61	0.332100	0.617700	0.604000
H621	H62	0.446000	0.624800	0.552000
H631	H63	0.363000	0.869200	0.515900
H641	H64	0.248000	0.865200	0.568400
C11	C1	0.558200	0.089500	0.203430
C21	C2	0.562200	0.023800	0.171150
C31	C3	0.496700	0.026900	0.137140
C41	C4	0.433100	0.092900	0.139230
C51	C5	0.436700	0.153800	0.171510
C61	C6	0.496100	0.959300	0.101820
C71	C7	0.576000	0.909500	0.093080
C81	C8	0.578500	0.845900	0.059940
C91	C9	0.501400	0.830700	0.034140
C101	C10	0.424500	0.880500	0.042970
C111	C11	0.424000	0.943200	0.076070
C121	C12	0.852300	0.676400	0.807000
C131	C13	0.794200	0.674400	0.841800
C141	C14	0.787700	0.745700	0.869680
C151	C15	0.842100	0.820300	0.861900
C161	C16	0.898800	0.814900	0.825000
C171	C17	0.719400	0.740200	0.907190
C181	C18	0.661600	0.669800	0.913430
C191	C19	0.594500	0.673800	0.944730
C201	C20	0.584600	0.747400	0.971610
C211	C21	0.643300	0.818000	0.966020
C221	C22	0.711300	0.816300	0.934690
C231	C23	0.558200	0.410500	0.296570
C241	C24	0.562200	0.476200	0.328850
C251	C25	0.496700	0.473100	0.362860
C261	C26	0.433100	0.407100	0.360770
C271	C27	0.436700	0.346200	0.328490
C281	C28	0.496100	0.540700	0.398180
C291	C29	0.576000	0.590500	0.406920
C301	C30	0.578500	0.654100	0.440060
C311	C31	0.501400	0.669300	0.465860
C321	C32	0.424500	0.619500	0.457030
C331	C33	0.424000	0.556800	0.423930
C341	C34	0.852300	0.823600	0.693000
C351	C35	0.794200	0.825600	0.658200
C361	C36	0.787700	0.754300	0.630320
C371	C37	0.842100	0.679700	0.638100
C381	C38	0.898800	0.685100	0.675000
C391	C39	0.719400	0.759800	0.592810
C401	C40	0.661600	0.830200	0.586570
C411	C41	0.594500	0.826200	0.555270
C421	C42	0.584600	0.752600	0.528390
C431	C43	0.643300	0.682000	0.533980
C441	C44	0.711300	0.683700	0.565310
C451	C45	0.441800	0.410500	0.203430
C461	C46	0.437800	0.476200	0.171150
C471	C47	0.503300	0.473100	0.137140
C481	C48	0.566900	0.407100	0.139230
C491	C49	0.563300	0.346200	0.171510
C501	C50	0.503900	0.540700	0.101820
C511	C51	0.424000	0.590500	0.093080
C521	C52	0.421500	0.654100	0.059940
C531	C53	0.498600	0.669300	0.034140
C541	C54	0.575500	0.619500	0.042970
C551	C55	0.576000	0.556800	0.076070
C561	C56	0.147700	0.823600	0.807000
C571	C57	0.205800	0.825600	0.841800
C581	C58	0.212300	0.754300	0.869680
C591	C59	0.157900	0.679700	0.861900
C601	C60	0.101200	0.685100	0.825000
C611	C61	0.280600	0.759800	0.907190
C621	C62	0.338400	0.830200	0.913430
C631	C63	0.405500	0.826200	0.944730
C641	C64	0.415400	0.752600	0.971610
C651	C65	0.356700	0.682000	0.966020
C661	C66	0.288700	0.683700	0.934690
C671	C67	0.441800	0.089500	0.296570
C681	C68	0.437800	0.023800	0.328850
C691	C69	0.503300	0.026900	0.362860
C701	C70	0.566900	0.092900	0.360770
C711	C71	0.563300	0.153800	0.328490
C721	C72	0.503900	0.959300	0.398180
C731	C73	0.424000	0.909500	0.406920
C741	C74	0.421500	0.845900	0.440060
C751	C75	0.498600	0.830700	0.465860
C761	C76	0.575500	0.880500	0.457030
C771	C77	0.576000	0.943200	0.423930
C781	C78	0.147700	0.676400	0.693000
C791	C79	0.205800	0.674400	0.658200
C801	C80	0.212300	0.745700	0.630320
C811	C81	0.157900	0.820300	0.638100
C821	C82	0.101200	0.814900	0.675000
C831	C83	0.280600	0.740200	0.592810
C841	C84	0.338400	0.669800	0.586570
C851	C85	0.405500	0.673800	0.555270
C861	C86	0.415400	0.747400	0.528390
C871	C87	0.356700	0.818000	0.533980
C881	C88	0.288700	0.816300	0.565310
C891	C89	0.500000	0.750000	0.003030
C901	C90	0.500000	0.750000	0.496970
N11	N1	0.496600	0.154000	0.203150
N21	N2	0.905400	0.747700	0.798810
N31	N3	0.496600	0.346000	0.296850
N41	N4	0.905400	0.752300	0.701190
N51	N5	0.503400	0.346000	0.203150
N61	N6	0.094600	0.752300	0.798810
N71	N7	0.503400	0.154000	0.296850
N81	N8	0.094600	0.747700	0.701190
Cu31	Cu3	0.500000	0.750000	0.750000
Cu41	Cu4	0.000000	0.250000	0.250000
H651	H65	0.398700	0.912200	0.773500
H661	H66	0.392700	0.021500	0.828000
H671	H67	0.613800	0.904000	0.882100
H681	H68	0.607500	0.800000	0.828700
H691	H69	0.371000	0.080300	0.889800
H701	H70	0.367400	0.187200	0.945200
H711	H71	0.628900	0.128400	0.974000
H721	H72	0.630100	0.023400	0.919200
H731	H73	0.144800	0.373700	0.212000
H741	H74	0.242100	0.377000	0.153200
H751	H75	0.159100	0.128700	0.119700
H761	H76	0.064200	0.134700	0.181200
H771	H77	0.332100	0.382300	0.104000
H781	H78	0.446000	0.375200	0.052000
H791	H79	0.363000	0.130800	0.015900
H801	H80	0.248000	0.134800	0.068400
H811	H81	0.398700	0.587800	0.726500
H821	H82	0.392700	0.478500	0.672000
H831	H83	0.613800	0.596000	0.617900
H841	H84	0.607500	0.700000	0.671300
H851	H85	0.371000	0.419700	0.610200
H861	H86	0.367400	0.312800	0.554800
H871	H87	0.628900	0.371600	0.526000
H881	H88	0.630100	0.476600	0.580800
H891	H89	0.144800	0.126300	0.288000
H901	H90	0.242100	0.123000	0.346800
H911	H91	0.159100	0.371300	0.380300
H921	H92	0.064200	0.365300	0.318800
H931	H93	0.332100	0.117700	0.396000
H941	H94	0.446000	0.124800	0.448000
H951	H95	0.363000	0.369200	0.484100
H961	H96	0.248000	0.365200	0.431600
H971	H97	0.601300	0.587800	0.773500
H981	H98	0.607300	0.478500	0.828000
H991	H99	0.386200	0.596000	0.882100
H1001	H100	0.392500	0.700000	0.828700
H1011	H101	0.629000	0.419700	0.889800
H1021	H102	0.632600	0.312800	0.945200
H1031	H103	0.371100	0.371600	0.974000
H1041	H104	0.369900	0.476600	0.919200
H1051	H105	0.855200	0.126300	0.212000
H1061	H106	0.757900	0.123000	0.153200
H1071	H107	0.840900	0.371300	0.119700
H1081	H108	0.935800	0.365300	0.181200
H1091	H109	0.667900	0.117700	0.104000
H1101	H110	0.554000	0.124800	0.052000
H1111	H111	0.637000	0.369200	0.015900
H1121	H112	0.752000	0.365200	0.068400
H1131	H113	0.601300	0.912200	0.726500
H1141	H114	0.607300	0.021500	0.672000
H1151	H115	0.386200	0.904000	0.617900
H1161	H116	0.392500	0.800000	0.671300
H1171	H117	0.629000	0.080300	0.610200
H1181	H118	0.632600	0.187200	0.554800
H1191	H119	0.371100	0.128400	0.526000
H1201	H120	0.369900	0.023400	0.580800
H1211	H121	0.855200	0.373700	0.288000
H1221	H122	0.757900	0.377000	0.346800
H1231	H123	0.840900	0.128700	0.380300
H1241	H124	0.935800	0.134700	0.318800
H1251	H125	0.667900	0.382300	0.396000
H1261	H126	0.554000	0.375200	0.448000
H1271	H127	0.637000	0.130800	0.484100
H1281	H128	0.752000	0.134800	0.431600
C911	C91	0.441800	0.910500	0.796570
C921	C92	0.437800	0.976200	0.828850
C931	C93	0.503300	0.973100	0.862860
C941	C94	0.566900	0.907100	0.860770
C951	C95	0.563300	0.846200	0.828490
C961	C96	0.503900	0.040700	0.898180
C971	C97	0.424000	0.090500	0.906920
C981	C98	0.421500	0.154100	0.940060
C991	C99	0.498600	0.169300	0.965860
C1001	C100	0.575500	0.119500	0.957030
C1011	C101	0.576000	0.056800	0.923930
C1021	C102	0.147700	0.323600	0.193000
C1031	C103	0.205800	0.325600	0.158200
C1041	C104	0.212300	0.254300	0.130320
C1051	C105	0.157900	0.179700	0.138100
C1061	C106	0.101200	0.185100	0.175000
C1071	C107	0.280600	0.259800	0.092810
C1081	C108	0.338400	0.330200	0.086570
C1091	C109	0.405500	0.326200	0.055270
C1101	C110	0.415400	0.252600	0.028390
C1111	C111	0.356700	0.182000	0.033980
C1121	C112	0.288700	0.183700	0.065310
C1131	C113	0.441800	0.589500	0.703430
C1141	C114	0.437800	0.523800	0.671150
C1151	C115	0.503300	0.526900	0.637140
C1161	C116	0.566900	0.592900	0.639230
C1171	C117	0.563300	0.653800	0.671510
C1181	C118	0.503900	0.459300	0.601820
C1191	C119	0.424000	0.409500	0.593080
C1201	C120	0.421500	0.345900	0.559940
C1211	C121	0.498600	0.330700	0.534140
C1221	C122	0.575500	0.380500	0.542970
C1231	C123	0.576000	0.443200	0.576070
C1241	C124	0.147700	0.176400	0.307000
C1251	C125	0.205800	0.174400	0.341800
C1261	C126	0.212300	0.245700	0.369680
C1271	C127	0.157900	0.320300	0.361900
C1281	C128	0.101200	0.314900	0.325000
C1291	C129	0.280600	0.240200	0.407190
C1301	C130	0.338400	0.169800	0.413430
C1311	C131	0.405500	0.173800	0.444730
C1321	C132	0.415400	0.247400	0.471610
C1331	C133	0.356700	0.318000	0.466020
C1341	C134	0.288700	0.316300	0.434690
C1351	C135	0.558200	0.589500	0.796570
C1361	C136	0.562200	0.523800	0.828850
C1371	C137	0.496700	0.526900	0.862860
C1381	C138	0.433100	0.592900	0.860770
C1391	C139	0.436700	0.653800	0.828490
C1401	C140	0.496100	0.459300	0.898180
C1411	C141	0.576000	0.409500	0.906920
C1421	C142	0.578500	0.345900	0.940060
C1431	C143	0.501400	0.330700	0.965860
C1441	C144	0.424500	0.380500	0.957030
C1451	C145	0.424000	0.443200	0.923930
C1461	C146	0.852300	0.176400	0.193000
C1471	C147	0.794200	0.174400	0.158200
C1481	C148	0.787700	0.245700	0.130320
C1491	C149	0.842100	0.320300	0.138100
C1501	C150	0.898800	0.314900	0.175000
C1511	C151	0.719400	0.240200	0.092810
C1521	C152	0.661600	0.169800	0.086570
C1531	C153	0.594500	0.173800	0.055270
C1541	C154	0.584600	0.247400	0.028390
C1551	C155	0.643300	0.318000	0.033980
C1561	C156	0.711300	0.316300	0.065310
C1571	C157	0.558200	0.910500	0.703430
C1581	C158	0.562200	0.976200	0.671150
C1591	C159	0.496700	0.973100	0.637140
C1601	C160	0.433100	0.907100	0.639230
C1611	C161	0.436700	0.846200	0.671510
C1621	C162	0.496100	0.040700	0.601820
C1631	C163	0.576000	0.090500	0.593080
C1641	C164	0.578500	0.154100	0.559940
C1651	C165	0.501400	0.169300	0.534140
C1661	C166	0.424500	0.119500	0.542970
C1671	C167	0.424000	0.056800	0.576070
C1681	C168	0.852300	0.323600	0.307000
C1691	C169	0.794200	0.325600	0.341800
C1701	C170	0.787700	0.254300	0.369680
C1711	C171	0.842100	0.179700	0.361900
C1721	C172	0.898800	0.185100	0.325000
C1731	C173	0.719400	0.259800	0.407190
C1741	C174	0.661600	0.330200	0.413430
C1751	C175	0.594500	0.326200	0.444730
C1761	C176	0.584600	0.252600	0.471610
C1771	C177	0.643300	0.182000	0.466020
C1781	C178	0.711300	0.183700	0.434690
C1791	C179	0.500000	0.250000	0.996970
C1801	C180	0.500000	0.250000	0.503030
N91	N9	0.503400	0.846000	0.796850
N101	N10	0.094600	0.252300	0.201190
N111	N11	0.503400	0.654000	0.703150
N121	N12	0.094600	0.247700	0.298810
N131	N13	0.496600	0.654000	0.796850
N141	N14	0.905400	0.247700	0.201190
N151	N15	0.496600	0.846000	0.703150
N161	N16	0.905400	0.252300	0.298810
