data_IWIPIO_freeONLY_PM
_symmetry_space_group_name_H-M	'P1'
_cell_length_a	14.444000
_cell_length_b	12.525400
_cell_length_c	13.307400
_cell_angle_alpha	90.000000
_cell_angle_beta	90.000000
_cell_angle_gamma	90.000000
_symmetry_Int_Tables_number 1

loop_
_symmetry_equiv_pos_as_xyz
'x,y,z'

loop_
_atom_site_label
_atom_site_type_symbol
_atom_site_fract_x
_atom_site_fract_y
_atom_site_fract_z
Cu11	Cu1	0.448430	0.531440	0.068140
Cu21	Cu2	0.382020	0.144040	0.021190
N11	N1	0.429300	0.288100	0.019400
N21	N2	0.322300	0.587400	0.050000
C11	C1	0.457400	0.373500	0.013500
C21	C2	0.246000	0.612100	0.040400
C31	C3	0.473400	0.034400	0.003000
N31	N3	0.026600	0.534400	0.003000
C41	C4	0.488100	0.534900	0.209700
Cu31	Cu3	0.051570	0.968560	0.568140
Cu41	Cu4	0.117980	0.355960	0.521190
N41	N4	0.070700	0.211900	0.519400
N51	N5	0.177700	0.912600	0.550000
C51	C5	0.042600	0.126500	0.513500
C61	C6	0.254000	0.887900	0.540400
C71	C7	0.026600	0.465600	0.503000
N61	N6	0.473400	0.965600	0.503000
C81	C8	0.011900	0.965100	0.709700
Cu51	Cu5	0.551570	0.531440	0.431860
Cu61	Cu6	0.617980	0.144040	0.478810
N71	N7	0.570700	0.288100	0.480600
N81	N8	0.677700	0.587400	0.450000
C91	C9	0.542600	0.373500	0.486500
C101	C10	0.754000	0.612100	0.459600
C111	C11	0.526600	0.034400	0.497000
N91	N9	0.973400	0.534400	0.497000
C121	C12	0.511900	0.534900	0.290300
Cu71	Cu7	0.948430	0.968560	0.931860
Cu81	Cu8	0.882020	0.355960	0.978810
N101	N10	0.929300	0.211900	0.980600
N111	N11	0.822300	0.912600	0.950000
C131	C13	0.957400	0.126500	0.986500
C141	C14	0.746000	0.887900	0.959600
C151	C15	0.973400	0.465600	0.997000
N121	N12	0.526600	0.965600	0.997000
C161	C16	0.988100	0.965100	0.790300
Cu91	Cu9	0.551570	0.468560	0.931860
Cu101	Cu10	0.617980	0.855960	0.978810
N131	N13	0.570700	0.711900	0.980600
N141	N14	0.677700	0.412600	0.950000
C171	C17	0.542600	0.626500	0.986500
C181	C18	0.754000	0.387900	0.959600
C191	C19	0.511900	0.465100	0.790300
Cu111	Cu11	0.948430	0.031440	0.431860
Cu121	Cu12	0.882020	0.644040	0.478810
N151	N15	0.929300	0.788100	0.480600
N161	N16	0.822300	0.087400	0.450000
C201	C20	0.957400	0.873500	0.486500
C211	C21	0.746000	0.112100	0.459600
C221	C22	0.988100	0.034900	0.290300
Cu131	Cu13	0.448430	0.468560	0.568140
Cu141	Cu14	0.382020	0.855960	0.521190
N171	N17	0.429300	0.711900	0.519400
N181	N18	0.322300	0.412600	0.550000
C231	C23	0.457400	0.626500	0.513500
C241	C24	0.246000	0.387900	0.540400
C251	C25	0.488100	0.465100	0.709700
Cu151	Cu15	0.051570	0.031440	0.068140
Cu161	Cu16	0.117980	0.644040	0.021190
N191	N19	0.070700	0.788100	0.019400
N201	N20	0.177700	0.087400	0.050000
C261	C26	0.042600	0.873500	0.013500
C271	C27	0.254000	0.112100	0.040400
C281	C28	0.011900	0.034900	0.209700
