data_IXAKAU_freeONLY_PM
_symmetry_space_group_name_H-M	'P1'
_cell_length_a	14.207000
_cell_length_b	14.564000
_cell_length_c	26.220000
_cell_angle_alpha	90.000000
_cell_angle_beta	90.000000
_cell_angle_gamma	107.080000
_symmetry_Int_Tables_number 1

loop_
_symmetry_equiv_pos_as_xyz
'x,y,z'

loop_
_atom_site_label
_atom_site_type_symbol
_atom_site_fract_x
_atom_site_fract_y
_atom_site_fract_z
Cu11	Cu1	0.563760	0.435490	0.797260
Cu21	Cu2	0.410980	0.972730	0.479750
Cu31	Cu3	0.936240	0.564510	0.297260
Cu41	Cu4	0.089020	0.027270	0.979750
Cu51	Cu5	0.436240	0.564510	0.202740
Cu61	Cu6	0.589020	0.027270	0.520250
Cu71	Cu7	0.063760	0.435490	0.702740
Cu81	Cu8	0.910980	0.972730	0.020250
H11	H1	0.740600	0.535200	0.738600
H21	H2	0.785500	0.641700	0.667200
H31	H3	0.661200	0.682800	0.623300
H41	H4	0.468700	0.552900	0.731000
H51	H5	0.566800	0.779400	0.614200
H61	H6	0.280900	0.742300	0.582400
H71	H7	0.355400	0.551200	0.674200
H81	H8	0.424700	0.260900	0.852500
H91	H9	0.438700	0.118400	0.887100
H101	H10	0.590900	0.095500	0.896100
H111	H11	0.710600	0.356600	0.831400
H121	H12	0.765400	0.126100	0.924300
H131	H13	0.036500	0.201900	0.858600
H141	H14	0.816700	0.291400	0.797600
H151	H15	0.759400	0.464800	0.238600
H161	H16	0.714500	0.358300	0.167200
H171	H17	0.838800	0.317200	0.123300
H181	H18	0.031300	0.447100	0.231000
H191	H19	0.933200	0.220600	0.114200
H201	H20	0.219100	0.257700	0.082400
H211	H21	0.144600	0.448800	0.174200
H221	H22	0.075300	0.739100	0.352500
H231	H23	0.061300	0.881600	0.387100
H241	H24	0.909100	0.904500	0.396100
H251	H25	0.789400	0.643400	0.331400
H261	H26	0.734600	0.873900	0.424300
H271	H27	0.463500	0.798100	0.358600
H281	H28	0.683300	0.708600	0.297600
H291	H29	0.259400	0.464800	0.261400
H301	H30	0.214500	0.358300	0.332800
H311	H31	0.338800	0.317200	0.376700
H321	H32	0.531300	0.447100	0.269000
H331	H33	0.433200	0.220600	0.385800
H341	H34	0.719100	0.257700	0.417600
H351	H35	0.644600	0.448800	0.325800
H361	H36	0.575300	0.739100	0.147500
H371	H37	0.561300	0.881600	0.112900
H381	H38	0.409100	0.904500	0.103900
H391	H39	0.289400	0.643400	0.168600
H401	H40	0.234600	0.873900	0.075700
H411	H41	0.963500	0.798100	0.141400
H421	H42	0.183300	0.708600	0.202400
H431	H43	0.240600	0.535200	0.761400
H441	H44	0.285500	0.641700	0.832800
H451	H45	0.161200	0.682800	0.876700
H461	H46	0.968700	0.552900	0.769000
H471	H47	0.066800	0.779400	0.885800
H481	H48	0.780900	0.742300	0.917600
H491	H49	0.855400	0.551200	0.825800
H501	H50	0.924700	0.260900	0.647500
H511	H51	0.938700	0.118400	0.612900
H521	H52	0.090900	0.095500	0.603900
H531	H53	0.210600	0.356600	0.668600
H541	H54	0.265400	0.126100	0.575700
H551	H55	0.536500	0.201900	0.641400
H561	H56	0.316700	0.291400	0.702400
C11	C1	0.692900	0.558800	0.722100
C21	C2	0.719300	0.620300	0.678800
C31	C3	0.646500	0.647700	0.654300
C41	C4	0.551900	0.625000	0.673900
C51	C5	0.532900	0.568700	0.716600
C61	C6	0.471600	0.654600	0.649000
C71	C7	0.499800	0.742400	0.617400
C81	C8	0.426200	0.769300	0.592500
C91	C9	0.330200	0.720700	0.598700
C101	C10	0.302500	0.634700	0.630500
C111	C11	0.373900	0.607200	0.653500
C121	C12	0.194800	0.583200	0.638000
C131	C13	0.451900	0.856300	0.557900
C141	C14	0.487200	0.250200	0.855500
C151	C15	0.495800	0.166600	0.875900
C161	C16	0.585900	0.152600	0.880300
C171	C17	0.673800	0.221300	0.861700
C181	C18	0.655800	0.305800	0.842600
C191	C19	0.771200	0.212200	0.862200
C201	C20	0.808100	0.159400	0.898000
C211	C21	0.900700	0.153800	0.896800
C221	C22	0.970000	0.203100	0.859100
C231	C23	0.931100	0.254100	0.822400
C241	C24	0.838500	0.257300	0.823700
C251	C25	0.942500	0.095600	0.935000
C261	C26	0.008700	0.311400	0.781900
C271	C27	0.807100	0.441200	0.222100
C281	C28	0.780700	0.379700	0.178800
C291	C29	0.853500	0.352300	0.154300
C301	C30	0.948100	0.375000	0.173900
C311	C31	0.967100	0.431300	0.216600
C321	C32	0.028400	0.345400	0.149000
C331	C33	0.000200	0.257600	0.117400
C341	C34	0.073800	0.230700	0.092500
C351	C35	0.169800	0.279300	0.098700
C361	C36	0.197500	0.365300	0.130500
C371	C37	0.126100	0.392800	0.153500
C381	C38	0.305200	0.416800	0.138000
C391	C39	0.048100	0.143700	0.057900
C401	C40	0.012800	0.749800	0.355500
C411	C41	0.004200	0.833400	0.375900
C421	C42	0.914100	0.847400	0.380300
C431	C43	0.826200	0.778700	0.361700
C441	C44	0.844200	0.694200	0.342600
C451	C45	0.728800	0.787800	0.362200
C461	C46	0.691900	0.840600	0.398000
C471	C47	0.599300	0.846200	0.396800
C481	C48	0.530000	0.796900	0.359100
C491	C49	0.568900	0.745900	0.322400
C501	C50	0.661500	0.742700	0.323700
C511	C51	0.557500	0.904400	0.435000
C521	C52	0.491300	0.688600	0.281900
C531	C53	0.307100	0.441200	0.277900
C541	C54	0.280700	0.379700	0.321200
C551	C55	0.353500	0.352300	0.345700
C561	C56	0.448100	0.375000	0.326100
C571	C57	0.467100	0.431300	0.283400
C581	C58	0.528400	0.345400	0.351000
C591	C59	0.500200	0.257600	0.382600
C601	C60	0.573800	0.230700	0.407500
C611	C61	0.669800	0.279300	0.401300
C621	C62	0.697500	0.365300	0.369500
C631	C63	0.626100	0.392800	0.346500
C641	C64	0.805200	0.416800	0.362000
C651	C65	0.548100	0.143700	0.442100
C661	C66	0.512800	0.749800	0.144500
C671	C67	0.504200	0.833400	0.124100
C681	C68	0.414100	0.847400	0.119700
C691	C69	0.326200	0.778700	0.138300
C701	C70	0.344200	0.694200	0.157400
C711	C71	0.228800	0.787800	0.137800
C721	C72	0.191900	0.840600	0.102000
C731	C73	0.099300	0.846200	0.103200
C741	C74	0.030000	0.796900	0.140900
C751	C75	0.068900	0.745900	0.177600
C761	C76	0.161500	0.742700	0.176300
C771	C77	0.057500	0.904400	0.065000
C781	C78	0.991300	0.688600	0.218100
C791	C79	0.192900	0.558800	0.777900
C801	C80	0.219300	0.620300	0.821200
C811	C81	0.146500	0.647700	0.845700
C821	C82	0.051900	0.625000	0.826100
C831	C83	0.032900	0.568700	0.783400
C841	C84	0.971600	0.654600	0.851000
C851	C85	0.999800	0.742400	0.882600
C861	C86	0.926200	0.769300	0.907500
C871	C87	0.830200	0.720700	0.901300
C881	C88	0.802500	0.634700	0.869500
C891	C89	0.873900	0.607200	0.846500
C901	C90	0.694800	0.583200	0.862000
C911	C91	0.951900	0.856300	0.942100
C921	C92	0.987200	0.250200	0.644500
C931	C93	0.995800	0.166600	0.624100
C941	C94	0.085900	0.152600	0.619700
C951	C95	0.173800	0.221300	0.638300
C961	C96	0.155800	0.305800	0.657400
C971	C97	0.271200	0.212200	0.637800
C981	C98	0.308100	0.159400	0.602000
C991	C99	0.400700	0.153800	0.603200
C1001	C100	0.470000	0.203100	0.640900
C1011	C101	0.431100	0.254100	0.677600
C1021	C102	0.338500	0.257300	0.676300
C1031	C103	0.442500	0.095600	0.565000
C1041	C104	0.508700	0.311400	0.718100
N11	N1	0.600600	0.535000	0.739000
N21	N2	0.569700	0.317400	0.839600
N31	N3	0.899400	0.465000	0.239000
N41	N4	0.930300	0.682600	0.339600
N51	N5	0.399400	0.465000	0.261000
N61	N6	0.430300	0.682600	0.160400
N71	N7	0.100600	0.535000	0.761000
N81	N8	0.069700	0.317400	0.660400
O11	O1	0.125800	0.586800	0.606500
O21	O2	0.179900	0.509300	0.666950
O31	O3	0.386900	0.866300	0.527730
O41	O4	0.538800	0.911300	0.561760
O51	O5	0.876000	0.050700	0.967110
O61	O6	0.028000	0.096800	0.933080
O71	O7	0.096700	0.315400	0.782590
O81	O8	0.967100	0.352700	0.748410
O91	O9	0.267000	0.929700	0.445700
O101	O10	0.444800	0.486000	0.830800
O111	O11	0.374200	0.413200	0.106500
O121	O12	0.320100	0.490700	0.166950
O131	O13	0.113100	0.133700	0.027730
O141	O14	0.961200	0.088700	0.061760
O151	O15	0.624000	0.949300	0.467110
O161	O16	0.472000	0.903200	0.433080
O171	O17	0.403300	0.684600	0.282590
O181	O18	0.532900	0.647300	0.248410
O191	O19	0.233000	0.070300	0.945700
O201	O20	0.055200	0.514000	0.330800
O211	O21	0.874200	0.413200	0.393500
O221	O22	0.820100	0.490700	0.333050
O231	O23	0.613100	0.133700	0.472270
O241	O24	0.461200	0.088700	0.438240
O251	O25	0.124000	0.949300	0.032890
O261	O26	0.972000	0.903200	0.066920
O271	O27	0.903300	0.684600	0.217410
O281	O28	0.032900	0.647300	0.251590
O291	O29	0.733000	0.070300	0.554300
O301	O30	0.555200	0.514000	0.169200
O311	O31	0.625800	0.586800	0.893500
O321	O32	0.679900	0.509300	0.833050
O331	O33	0.886900	0.866300	0.972270
O341	O34	0.038800	0.911300	0.938240
O351	O35	0.376000	0.050700	0.532890
O361	O36	0.528000	0.096800	0.566920
O371	O37	0.596700	0.315400	0.717410
O381	O38	0.467100	0.352700	0.751590
O391	O39	0.767000	0.929700	0.054300
O401	O40	0.944800	0.486000	0.669200
