data_IXAMIE_freeONLY_PM
_symmetry_space_group_name_H-M	'P1'
_cell_length_a	10.266000
_cell_length_b	10.266000
_cell_length_c	9.631100
_cell_angle_alpha	90.000000
_cell_angle_beta	90.000000
_cell_angle_gamma	90.000000
_symmetry_Int_Tables_number 1

loop_
_symmetry_equiv_pos_as_xyz
'x,y,z'

loop_
_atom_site_label
_atom_site_type_symbol
_atom_site_fract_x
_atom_site_fract_y
_atom_site_fract_z
O11	O1	0.304400	0.477900	0.778800
O21	O2	0.804400	0.977900	0.278800
O31	O3	0.695600	0.522100	0.778800
O41	O4	0.195600	0.022100	0.278800
O51	O5	0.477900	0.695600	0.221200
O61	O6	0.977900	0.195600	0.721200
O71	O7	0.522100	0.304400	0.221200
O81	O8	0.022100	0.804400	0.721200
O91	O9	0.695600	0.477900	0.221200
O101	O10	0.195600	0.977900	0.721200
O111	O11	0.304400	0.522100	0.221200
O121	O12	0.804400	0.022100	0.721200
O131	O13	0.522100	0.695600	0.778800
O141	O14	0.022100	0.195600	0.278800
O151	O15	0.477900	0.304400	0.778800
O161	O16	0.977900	0.804400	0.278800
Fe11	Fe1	0.367250	0.367250	0.131210
P11	P1	0.335840	0.335840	0.806300
O171	O17	0.300400	0.300400	0.954800
O181	O18	0.256400	0.256400	0.707400
Fe21	Fe2	0.867250	0.867250	0.631210
P21	P2	0.835840	0.835840	0.306300
O191	O19	0.800400	0.800400	0.454800
O201	O20	0.756400	0.756400	0.207400
Fe31	Fe3	0.632750	0.632750	0.131210
P31	P3	0.664160	0.664160	0.806300
O211	O21	0.699600	0.699600	0.954800
O221	O22	0.743600	0.743600	0.707400
Fe41	Fe4	0.132750	0.132750	0.631210
P41	P4	0.164160	0.164160	0.306300
O231	O23	0.199600	0.199600	0.454800
O241	O24	0.243600	0.243600	0.207400
Fe51	Fe5	0.367250	0.632750	0.868790
P51	P5	0.335840	0.664160	0.193700
O251	O25	0.300400	0.699600	0.045200
O261	O26	0.256400	0.743600	0.292600
Fe61	Fe6	0.867250	0.132750	0.368790
P61	P6	0.835840	0.164160	0.693700
O271	O27	0.800400	0.199600	0.545200
O281	O28	0.756400	0.243600	0.792600
Fe71	Fe7	0.632750	0.367250	0.868790
P71	P7	0.664160	0.335840	0.193700
O291	O29	0.699600	0.300400	0.045200
O301	O30	0.743600	0.256400	0.292600
Fe81	Fe8	0.132750	0.867250	0.368790
P81	P8	0.164160	0.835840	0.693700
O311	O31	0.199600	0.800400	0.545200
O321	O32	0.243600	0.756400	0.792600
O331	O33	0.500000	0.500000	0.000000
O341	O34	0.000000	0.000000	0.500000
