data_IXEDUK_charged_PM
_symmetry_space_group_name_H-M	'P1'
_cell_length_a	24.046000
_cell_length_b	24.157300
_cell_length_c	24.383400
_cell_angle_alpha	83.861000
_cell_angle_beta	61.837000
_cell_angle_gamma	61.701000
_symmetry_Int_Tables_number 1

loop_
_symmetry_equiv_pos_as_xyz
'x,y,z'

loop_
_atom_site_label
_atom_site_type_symbol
_atom_site_fract_x
_atom_site_fract_y
_atom_site_fract_z
Yb11	Yb1	0.341380	0.219920	0.363470
Yb21	Yb2	0.246600	0.779690	0.230440
Yb31	Yb3	0.852500	0.352680	0.208920
Yb41	Yb4	0.658620	0.780080	0.636530
Yb51	Yb5	0.753400	0.220310	0.769560
Yb61	Yb6	0.147500	0.647320	0.791080
H11	H1	0.202800	0.408300	0.423500
H21	H2	0.173700	0.501600	0.376800
H31	H3	0.166000	0.595100	0.360100
H41	H4	0.410000	0.343200	0.308100
H51	H5	0.387300	0.432800	0.260000
H61	H6	0.350900	0.500600	0.197400
H71	H7	0.142300	0.688200	0.318500
H81	H8	0.327000	0.594600	0.156900
H91	H9	0.088400	0.560600	0.730900
H101	H10	0.110200	0.470300	0.683700
H111	H11	0.283100	0.536000	0.606800
H121	H12	0.313300	0.440700	0.560200
H131	H13	0.329400	0.326100	0.576000
H141	H14	0.134800	0.424400	0.582200
H151	H15	0.162700	0.338900	0.521800
H161	H16	0.351700	0.240500	0.516800
H171	H17	0.097800	0.811400	0.605300
H181	H18	0.099800	0.792000	0.698800
H191	H19	0.293500	0.657400	0.515900
H201	H20	0.293300	0.641900	0.610900
H211	H21	0.261900	0.655100	0.444700
H221	H22	0.252900	0.672300	0.354100
H231	H23	0.111500	0.854800	0.421800
H241	H24	0.116300	0.841000	0.513300
H251	H25	0.250100	0.587200	0.882700
H261	H26	0.274300	0.620800	0.949800
H271	H27	0.064300	0.749700	0.050100
H281	H28	0.041100	0.712200	0.982700
H291	H29	0.037100	0.339600	0.061800
H301	H30	0.068700	0.393700	0.978300
H311	H31	0.907800	0.557400	0.090900
H321	H32	0.877000	0.501200	0.176500
H331	H33	0.637700	0.409800	0.314600
H341	H34	0.562600	0.366000	0.359700
H351	H35	0.700600	0.224900	0.207700
H361	H36	0.770000	0.273600	0.167400
H371	H37	0.768800	0.504300	0.135100
H381	H38	0.658500	0.564100	0.132600
H391	H39	0.554200	0.566800	0.322000
H401	H40	0.665800	0.506700	0.317600
H411	H41	0.071400	0.257800	0.138000
H421	H42	0.157300	0.262100	0.154000
H431	H43	0.010600	0.320900	0.341300
H441	H44	0.931900	0.305400	0.321600
H451	H45	0.858000	0.185600	0.220000
H461	H46	0.938600	0.086600	0.230300
H471	H47	0.104000	0.102700	0.088400
H481	H48	0.025100	0.199900	0.080900
H491	H49	0.958400	0.092500	0.647500
H501	H50	0.057600	0.097700	0.566800
H511	H51	0.010400	0.246100	0.670900
H521	H52	0.915000	0.236200	0.752500
H531	H53	0.239900	0.904300	0.107800
H541	H54	0.160900	0.991300	0.085800
H551	H55	0.022600	0.046900	0.271700
H561	H56	0.108600	0.962900	0.291400
H571	H57	0.192500	0.917800	0.354600
H581	H58	0.216900	0.000100	0.353900
H591	H59	0.422400	0.885900	0.224000
H601	H60	0.392000	0.806900	0.227800
H611	H61	0.136500	0.840300	0.134900
H621	H62	0.101100	0.802600	0.082100
H631	H63	0.290600	0.638400	0.017600
H641	H64	0.324300	0.679300	0.069000
H651	H65	0.357300	0.714200	0.315300
H661	H66	0.469400	0.666100	0.308800
H671	H67	0.551700	0.553700	0.150500
H681	H68	0.439000	0.600800	0.159600
H691	H69	0.640300	0.141300	0.880500
H701	H70	0.582500	0.132500	0.987000
H711	H71	0.509700	0.321500	0.030300
H721	H72	0.566600	0.325700	0.923600
H731	H73	0.116900	0.300300	0.474400
H741	H74	0.034500	0.286300	0.565000
H751	H75	0.171600	0.095600	0.518200
H761	H76	0.252900	0.115400	0.433400
H771	H77	0.257000	0.162100	0.299500
H781	H78	0.237200	0.075200	0.305900
H791	H79	0.446100	0.955400	0.254100
H801	H80	0.462400	0.042900	0.253100
H811	H81	0.415200	0.291100	0.429800
H821	H82	0.493900	0.331200	0.389400
H831	H83	0.638200	0.178300	0.255000
H841	H84	0.559700	0.138000	0.295800
H851	H85	0.151900	0.357800	0.371700
H861	H86	0.070300	0.359500	0.345300
H871	H87	0.237300	0.237300	0.184800
H881	H88	0.317900	0.236200	0.214400
H891	H89	0.322000	0.126500	0.505100
H901	H90	0.498900	0.039200	0.342300
H911	H91	0.562700	0.983100	0.396900
H921	H92	0.385600	0.073600	0.558900
H931	H93	0.382200	0.312500	0.222200
H941	H94	0.423700	0.311000	0.116600
H951	H95	0.579000	0.133000	0.086100
H961	H96	0.532400	0.133100	0.194400
H971	H97	0.797200	0.591700	0.576500
H981	H98	0.826300	0.498400	0.623200
H991	H99	0.834000	0.404900	0.639900
H1001	H100	0.590000	0.656800	0.691900
H1011	H101	0.612700	0.567200	0.740000
H1021	H102	0.649100	0.499400	0.802600
H1031	H103	0.857700	0.311800	0.681500
H1041	H104	0.673000	0.405400	0.843100
H1051	H105	0.911600	0.439400	0.269100
H1061	H106	0.889800	0.529700	0.316300
H1071	H107	0.716900	0.464000	0.393200
H1081	H108	0.686700	0.559300	0.439800
H1091	H109	0.670600	0.673900	0.424000
H1101	H110	0.865200	0.575600	0.417800
H1111	H111	0.837300	0.661100	0.478200
H1121	H112	0.648300	0.759500	0.483200
H1131	H113	0.902200	0.188600	0.394700
H1141	H114	0.900200	0.208000	0.301200
H1151	H115	0.706500	0.342600	0.484100
H1161	H116	0.706700	0.358100	0.389100
H1171	H117	0.738100	0.344900	0.555300
H1181	H118	0.747100	0.327700	0.645900
H1191	H119	0.888500	0.145200	0.578200
H1201	H120	0.883700	0.159000	0.486700
H1211	H121	0.749900	0.412800	0.117300
H1221	H122	0.725700	0.379200	0.050200
H1231	H123	0.935700	0.250300	0.949900
H1241	H124	0.958900	0.287800	0.017300
H1251	H125	0.962900	0.660400	0.938200
H1261	H126	0.931300	0.606300	0.021700
H1271	H127	0.092200	0.442600	0.909100
H1281	H128	0.123000	0.498800	0.823500
H1291	H129	0.362300	0.590200	0.685400
H1301	H130	0.437400	0.634000	0.640300
H1311	H131	0.299400	0.775100	0.792300
H1321	H132	0.230000	0.726400	0.832600
H1331	H133	0.231200	0.495700	0.864900
H1341	H134	0.341500	0.435900	0.867400
H1351	H135	0.445800	0.433200	0.678000
H1361	H136	0.334200	0.493300	0.682400
H1371	H137	0.928600	0.742200	0.862000
H1381	H138	0.842700	0.737900	0.846000
H1391	H139	0.989400	0.679100	0.658700
H1401	H140	0.068100	0.694600	0.678400
H1411	H141	0.142000	0.814400	0.780000
H1421	H142	0.061400	0.913400	0.769700
H1431	H143	0.896000	0.897300	0.911600
H1441	H144	0.974900	0.800100	0.919100
H1451	H145	0.041600	0.907500	0.352500
H1461	H146	0.942400	0.902300	0.433200
H1471	H147	0.989600	0.753900	0.329100
H1481	H148	0.085000	0.763800	0.247500
H1491	H149	0.760100	0.095700	0.892200
H1501	H150	0.839100	0.008700	0.914200
H1511	H151	0.977400	0.953100	0.728300
H1521	H152	0.891400	0.037100	0.708600
H1531	H153	0.807500	0.082200	0.645400
H1541	H154	0.783100	0.999900	0.646100
H1551	H155	0.577600	0.114100	0.776000
H1561	H156	0.608000	0.193100	0.772200
H1571	H157	0.863500	0.159700	0.865100
H1581	H158	0.898900	0.197400	0.917900
H1591	H159	0.709400	0.361600	0.982400
H1601	H160	0.675700	0.320700	0.931000
H1611	H161	0.642700	0.285800	0.684700
H1621	H162	0.530600	0.333900	0.691200
H1631	H163	0.448300	0.446300	0.849500
H1641	H164	0.561000	0.399200	0.840400
H1651	H165	0.359700	0.858700	0.119500
H1661	H166	0.417500	0.867500	0.013000
H1671	H167	0.490300	0.678500	0.969700
H1681	H168	0.433400	0.674300	0.076400
H1691	H169	0.883100	0.699700	0.525600
H1701	H170	0.965500	0.713700	0.435000
H1711	H171	0.828400	0.904400	0.481800
H1721	H172	0.747100	0.884600	0.566600
H1731	H173	0.743000	0.837900	0.700500
H1741	H174	0.762800	0.924800	0.694100
H1751	H175	0.553900	0.044600	0.745900
H1761	H176	0.537600	0.957100	0.746900
H1771	H177	0.584800	0.708900	0.570200
H1781	H178	0.506100	0.668800	0.610600
H1791	H179	0.361800	0.821700	0.745000
H1801	H180	0.440300	0.862000	0.704200
H1811	H181	0.848100	0.642200	0.628300
H1821	H182	0.929700	0.640500	0.654700
H1831	H183	0.762700	0.762700	0.815200
H1841	H184	0.682100	0.763800	0.785600
H1851	H185	0.678000	0.873500	0.494900
H1861	H186	0.501100	0.960800	0.657700
H1871	H187	0.437300	0.016900	0.603100
H1881	H188	0.614400	0.926400	0.441100
H1891	H189	0.617800	0.687500	0.777800
H1901	H190	0.576300	0.689000	0.883400
H1911	H191	0.421000	0.867000	0.913900
H1921	H192	0.467600	0.866900	0.805600
C11	C1	0.240000	0.414000	0.389500
C21	C2	0.222500	0.469800	0.362200
C31	C3	0.277600	0.477400	0.313800
C41	C4	0.199200	0.594700	0.318400
C51	C5	0.361800	0.375900	0.321800
C61	C6	0.348300	0.428700	0.293700
C71	C7	0.261000	0.536900	0.284100
C81	C8	0.308500	0.538700	0.222600
C91	C9	0.185100	0.649800	0.294500
C101	C10	0.294700	0.593900	0.198700
C111	C11	0.133500	0.536300	0.694800
C121	C12	0.146600	0.482500	0.667800
C131	C13	0.248600	0.521500	0.622400
C141	C14	0.266300	0.465500	0.594200
C151	C15	0.215400	0.444100	0.615300
C161	C16	0.232300	0.386600	0.582500
C171	C17	0.295000	0.330500	0.564500
C181	C18	0.180800	0.387700	0.567300
C191	C19	0.197000	0.337300	0.532000
C201	C20	0.308300	0.279500	0.528800
C211	C21	0.138000	0.775600	0.605900
C221	C22	0.139400	0.764100	0.661100
C231	C23	0.253100	0.685300	0.553200
C241	C24	0.252500	0.676000	0.609500
C251	C25	0.191300	0.745600	0.490600
C261	C26	0.194200	0.735800	0.551100
C271	C27	0.230500	0.696400	0.441100
C281	C28	0.224900	0.706300	0.387800
C291	C29	0.141300	0.813900	0.427500
C301	C30	0.145200	0.805700	0.480800
C311	C31	0.212000	0.619900	0.917300
C321	C32	0.226400	0.641200	0.956100
C331	C33	0.174000	0.691100	0.003800
C341	C34	0.102700	0.716900	0.015600
C351	C35	0.088900	0.693900	0.976100
C361	C36	0.010100	0.384700	0.068100
C371	C37	0.029000	0.416700	0.018200
C381	C38	0.990000	0.483100	0.026100
C391	C39	0.935100	0.512300	0.084100
C401	C40	0.915800	0.479200	0.136000
C411	C41	0.649400	0.372200	0.293100
C421	C42	0.605100	0.346000	0.320400
C431	C43	0.623100	0.287800	0.289400
C441	C44	0.686400	0.262800	0.230700
C451	C45	0.727100	0.291800	0.206700
C461	C46	0.724400	0.516800	0.172700
C471	C47	0.658800	0.552100	0.170900
C481	C48	0.593600	0.569200	0.227400
C491	C49	0.597100	0.553500	0.282800
C501	C50	0.663400	0.518600	0.280000
C511	C51	0.060500	0.268600	0.179400
C521	C52	0.111200	0.272200	0.188500
C531	C53	0.093300	0.291200	0.250300
C541	C54	0.024700	0.305900	0.300000
C551	C55	0.977400	0.298200	0.287900
C561	C56	0.908500	0.169300	0.194600
C571	C57	0.956500	0.110800	0.200800
C581	C58	0.029300	0.087700	0.164800
C591	C59	0.054000	0.120500	0.117300
C601	C60	0.007600	0.176800	0.112400
C611	C61	0.969400	0.124000	0.652200
C621	C62	0.026700	0.128500	0.603700
C631	C63	0.039800	0.177900	0.608000
C641	C64	0.999700	0.214900	0.664500
C651	C65	0.943200	0.208500	0.713700
C661	C66	0.195800	0.934800	0.141200
C671	C67	0.148800	0.985100	0.128300
C681	C68	0.082300	0.028400	0.177100
C691	C69	0.067700	0.018700	0.237600
C701	C70	0.118300	0.968400	0.249300
C711	C71	0.239800	0.911700	0.327900
C721	C72	0.253900	0.961000	0.327000
C731	C73	0.321300	0.953300	0.287100
C741	C74	0.374300	0.893900	0.250700
C751	C75	0.356600	0.846900	0.253800
C761	C76	0.168200	0.799600	0.109600
C771	C77	0.147300	0.777200	0.079100
C781	C78	0.194400	0.714700	0.041700
C791	C79	0.258900	0.680300	0.040400
C801	C80	0.278600	0.704700	0.071100
C811	C81	0.396900	0.680300	0.282300
C821	C82	0.463200	0.652300	0.278000
C831	C83	0.523300	0.602900	0.228200
C841	C84	0.512200	0.585800	0.185200
C851	C85	0.445400	0.613700	0.190600
C861	C86	0.612800	0.177500	0.911800
C871	C87	0.580000	0.171900	0.974900
C881	C88	0.542400	0.225800	0.021400
C891	C89	0.536400	0.284100	0.000600
C901	C90	0.569300	0.286700	0.937500
C911	C91	0.127800	0.258500	0.484500
C921	C92	0.079000	0.250700	0.537900
C931	C93	0.095400	0.188800	0.552800
C941	C94	0.160400	0.138100	0.510900
C951	C95	0.207000	0.150000	0.459900
C961	C96	0.294800	0.119900	0.291900
C971	C97	0.284000	0.067800	0.294600
C981	C98	0.337700	0.006600	0.281800
C991	C99	0.406600	0.997200	0.264800
C1001	C100	0.416100	0.049200	0.263900
C1011	C101	0.460900	0.267800	0.393900
C1021	C102	0.507700	0.291600	0.369700
C1031	C103	0.575700	0.259400	0.316300
C1041	C104	0.592500	0.202000	0.290800
C1051	C105	0.546400	0.177800	0.314700
C1061	C106	0.168700	0.332700	0.334200
C1071	C107	0.120500	0.333400	0.318700
C1081	C108	0.219200	0.260900	0.223600
C1091	C109	0.144700	0.295700	0.263200
C1101	C110	0.267300	0.260700	0.240800
C1111	C111	0.372000	0.097000	0.482500
C1121	C112	0.475100	0.045800	0.387000
C1131	C113	0.512500	0.011800	0.419800
C1141	C114	0.479200	0.019000	0.482600
C1151	C115	0.409000	0.064400	0.514400
C1161	C116	0.423300	0.275400	0.194000
C1171	C117	0.448500	0.274900	0.131800
C1181	C118	0.509800	0.222800	0.089600
C1191	C119	0.538700	0.170700	0.113900
C1201	C120	0.511500	0.170500	0.178300
C1211	C121	0.760000	0.586000	0.610500
C1221	C122	0.777500	0.530200	0.637800
C1231	C123	0.722400	0.522600	0.686200
C1241	C124	0.800800	0.405300	0.681600
C1251	C125	0.638200	0.624100	0.678200
C1261	C126	0.651700	0.571300	0.706300
C1271	C127	0.739000	0.463100	0.715900
C1281	C128	0.691500	0.461300	0.777400
C1291	C129	0.814900	0.350200	0.705500
C1301	C130	0.705300	0.406100	0.801300
C1311	C131	0.866500	0.463700	0.305200
C1321	C132	0.853400	0.517500	0.332200
C1331	C133	0.751400	0.478500	0.377600
C1341	C134	0.733700	0.534500	0.405800
C1351	C135	0.784600	0.555900	0.384700
C1361	C136	0.767700	0.613400	0.417500
C1371	C137	0.705000	0.669500	0.435500
C1381	C138	0.819200	0.612300	0.432700
C1391	C139	0.803000	0.662700	0.468000
C1401	C140	0.691700	0.720500	0.471200
C1411	C141	0.862000	0.224400	0.394100
C1421	C142	0.860600	0.235900	0.338900
C1431	C143	0.746900	0.314700	0.446800
C1441	C144	0.747500	0.324000	0.390500
C1451	C145	0.808700	0.254400	0.509400
C1461	C146	0.805800	0.264200	0.448900
C1471	C147	0.769500	0.303600	0.558900
C1481	C148	0.775100	0.293700	0.612200
C1491	C149	0.858700	0.186100	0.572500
C1501	C150	0.854800	0.194300	0.519200
C1511	C151	0.788000	0.380100	0.082700
C1521	C152	0.773600	0.358800	0.043900
C1531	C153	0.826000	0.308900	0.996200
C1541	C154	0.897300	0.283100	0.984400
C1551	C155	0.911100	0.306100	0.023900
C1561	C156	0.989900	0.615300	0.931900
C1571	C157	0.971000	0.583300	0.981800
C1581	C158	0.010000	0.516900	0.973900
C1591	C159	0.064900	0.487700	0.915900
C1601	C160	0.084200	0.520800	0.864000
C1611	C161	0.350600	0.627800	0.706900
C1621	C162	0.394900	0.654000	0.679600
C1631	C163	0.376900	0.712200	0.710600
C1641	C164	0.313600	0.737200	0.769300
C1651	C165	0.272900	0.708200	0.793300
C1661	C166	0.275600	0.483200	0.827300
C1671	C167	0.341200	0.447900	0.829100
C1681	C168	0.406400	0.430800	0.772600
C1691	C169	0.402900	0.446500	0.717200
C1701	C170	0.336600	0.481400	0.720000
C1711	C171	0.939500	0.731400	0.820600
C1721	C172	0.888800	0.727800	0.811500
C1731	C173	0.906700	0.708800	0.749700
C1741	C174	0.975300	0.694100	0.700000
C1751	C175	0.022600	0.701800	0.712100
C1761	C176	0.091500	0.830700	0.805400
C1771	C177	0.043500	0.889200	0.799200
C1781	C178	0.970700	0.912300	0.835200
C1791	C179	0.946000	0.879500	0.882700
C1801	C180	0.992400	0.823200	0.887600
C1811	C181	0.030600	0.876000	0.347800
C1821	C182	0.973300	0.871500	0.396300
C1831	C183	0.960200	0.822100	0.392000
C1841	C184	0.000300	0.785100	0.335500
C1851	C185	0.056800	0.791500	0.286300
C1861	C186	0.804200	0.065200	0.858800
C1871	C187	0.851200	0.014900	0.871700
C1881	C188	0.917700	0.971600	0.822900
C1891	C189	0.932300	0.981300	0.762400
C1901	C190	0.881700	0.031600	0.750700
C1911	C191	0.760200	0.088300	0.672100
C1921	C192	0.746100	0.039000	0.673000
C1931	C193	0.678700	0.046700	0.712900
C1941	C194	0.625700	0.106100	0.749300
C1951	C195	0.643400	0.153100	0.746200
C1961	C196	0.831800	0.200400	0.890400
C1971	C197	0.852700	0.222800	0.920900
C1981	C198	0.805600	0.285300	0.958300
C1991	C199	0.741100	0.319700	0.959600
C2001	C200	0.721400	0.295300	0.928900
C2011	C201	0.603100	0.319700	0.717700
C2021	C202	0.536800	0.347700	0.722000
C2031	C203	0.476700	0.397100	0.771800
C2041	C204	0.487800	0.414200	0.814800
C2051	C205	0.554600	0.386300	0.809400
C2061	C206	0.387200	0.822500	0.088200
C2071	C207	0.420000	0.828100	0.025100
C2081	C208	0.457600	0.774200	0.978600
C2091	C209	0.463600	0.715900	0.999400
C2101	C210	0.430700	0.713300	0.062500
C2111	C211	0.872200	0.741500	0.515500
C2121	C212	0.921000	0.749300	0.462100
C2131	C213	0.904600	0.811200	0.447200
C2141	C214	0.839600	0.861900	0.489100
C2151	C215	0.793000	0.850000	0.540100
C2161	C216	0.705200	0.880100	0.708100
C2171	C217	0.716000	0.932200	0.705400
C2181	C218	0.662300	0.993400	0.718200
C2191	C219	0.593400	0.002800	0.735200
C2201	C220	0.583900	0.950800	0.736100
C2211	C221	0.539100	0.732200	0.606100
C2221	C222	0.492300	0.708400	0.630300
C2231	C223	0.424300	0.740600	0.683700
C2241	C224	0.407500	0.798000	0.709200
C2251	C225	0.453600	0.822200	0.685300
C2261	C226	0.831300	0.667300	0.665800
C2271	C227	0.879500	0.666600	0.681300
C2281	C228	0.780800	0.739100	0.776400
C2291	C229	0.855300	0.704300	0.736800
C2301	C230	0.732700	0.739300	0.759200
C2311	C231	0.628000	0.903000	0.517500
C2321	C232	0.524900	0.954200	0.613000
C2331	C233	0.487500	0.988200	0.580200
C2341	C234	0.520800	0.981000	0.517400
C2351	C235	0.591000	0.935600	0.485600
C2361	C236	0.576700	0.724600	0.806000
C2371	C237	0.551500	0.725100	0.868200
C2381	C238	0.490200	0.777200	0.910400
C2391	C239	0.461300	0.829300	0.886100
C2401	C240	0.488500	0.829500	0.821700
N11	N1	0.406300	0.087100	0.419500
N21	N2	0.478900	0.212200	0.367600
N31	N3	0.456200	0.223300	0.217000
N41	N4	0.361900	0.108000	0.277800
N51	N5	0.307500	0.369600	0.368400
N61	N6	0.240600	0.296000	0.295700
N71	N7	0.191700	0.208900	0.444700
N81	N8	0.262100	0.284500	0.511400
N91	N9	0.233900	0.649000	0.234900
N101	N10	0.179300	0.764600	0.382400
N111	N11	0.387600	0.659800	0.239500
N121	N12	0.290500	0.856800	0.292700
N131	N13	0.605800	0.234100	0.894800
N141	N14	0.180900	0.927100	0.201800
N151	N15	0.236400	0.763200	0.104300
N161	N16	0.928400	0.164900	0.707200
N171	N17	0.724300	0.501200	0.225800
N181	N18	0.143300	0.645500	0.928100
N191	N19	0.707800	0.347100	0.237800
N201	N20	0.934800	0.202300	0.152000
N211	N21	0.195300	0.714400	0.663100
N221	N22	0.996600	0.280100	0.227600
N231	N23	0.183300	0.556700	0.671700
N241	N24	0.955300	0.415000	0.124700
N251	N25	0.593700	0.912900	0.580500
N261	N26	0.521100	0.787800	0.632400
N271	N27	0.543800	0.776700	0.783000
N281	N28	0.638100	0.892000	0.722200
N291	N29	0.692500	0.630400	0.631600
N301	N30	0.759400	0.704000	0.704300
N311	N31	0.808300	0.791100	0.555300
N321	N32	0.737900	0.715500	0.488600
N331	N33	0.766100	0.351000	0.765100
N341	N34	0.820700	0.235400	0.617600
N351	N35	0.612400	0.340200	0.760500
N361	N36	0.709500	0.143200	0.707300
N371	N37	0.394200	0.765900	0.105200
N381	N38	0.819100	0.072900	0.798200
N391	N39	0.763600	0.236800	0.895700
N401	N40	0.071600	0.835100	0.292800
N411	N41	0.275700	0.498800	0.774200
N421	N42	0.856700	0.354500	0.071900
N431	N43	0.292200	0.652900	0.762200
N441	N44	0.065200	0.797700	0.848000
N451	N45	0.804700	0.285600	0.336900
N461	N46	0.003400	0.719900	0.772400
N471	N47	0.816700	0.443300	0.328300
N481	N48	0.044700	0.585000	0.875300
O11	O1	0.369800	0.119100	0.387900
O21	O2	0.433100	0.190000	0.389000
O31	O3	0.434600	0.225900	0.279100
O41	O4	0.373000	0.158500	0.276600
O51	O5	0.320700	0.316800	0.396700
O61	O6	0.286000	0.295200	0.312200
O71	O7	0.235800	0.219800	0.391900
O81	O8	0.278500	0.236500	0.474100
O91	O9	0.221400	0.703700	0.211300
O101	O10	0.171200	0.773000	0.331000
O111	O11	0.322500	0.683000	0.246700
O121	O12	0.275500	0.809200	0.296700
O131	O13	0.635900	0.239600	0.834300
O141	O14	0.231000	0.880300	0.214300
O151	O15	0.258300	0.786700	0.131600
O161	O16	0.872700	0.159600	0.752500
O171	O17	0.787800	0.464600	0.225100
O181	O18	0.129400	0.622700	0.891400
O191	O19	0.747500	0.376000	0.212800
O201	O20	0.890600	0.260600	0.147600
O211	O21	0.196600	0.702900	0.717400
O221	O22	0.949800	0.273000	0.217700
O231	O23	0.167200	0.611700	0.696400
O241	O24	0.938700	0.383500	0.172500
O251	O25	0.630200	0.880900	0.612100
O261	O26	0.566900	0.810000	0.611000
O271	O27	0.565400	0.774100	0.720900
O281	O28	0.627000	0.841500	0.723400
O291	O29	0.679300	0.683200	0.603300
O301	O30	0.714000	0.704800	0.687800
O311	O31	0.764200	0.780200	0.608100
O321	O32	0.721500	0.763500	0.525900
O331	O33	0.778600	0.296300	0.788700
O341	O34	0.828800	0.227000	0.669000
O351	O35	0.677500	0.317000	0.753300
O361	O36	0.724500	0.190800	0.703300
O371	O37	0.364100	0.760400	0.165700
O381	O38	0.769000	0.119700	0.785700
O391	O39	0.741700	0.213300	0.868400
O401	O40	0.127300	0.840400	0.247500
O411	O41	0.212200	0.535400	0.774900
O421	O42	0.870600	0.377300	0.108600
O431	O43	0.252500	0.624000	0.787200
O441	O44	0.109400	0.739400	0.852400
O451	O45	0.803400	0.297100	0.282600
O461	O46	0.050200	0.727000	0.782300
O471	O47	0.832800	0.388300	0.303600
O481	O48	0.061300	0.616500	0.827500
C2411	C241	0.945300	0.823900	0.599500
S11	S1	0.939900	0.877000	0.653500
O491	O49	0.962300	0.836700	0.696900
O501	O50	0.990900	0.898300	0.608800
O511	O51	0.862900	0.926900	0.682800
F11	F1	0.894000	0.803200	0.632900
F21	F2	0.016000	0.772200	0.573200
F31	F3	0.931400	0.857800	0.552800
C2421	C242	0.873500	0.417600	0.476700
S21	S2	0.938000	0.356400	0.501300
O521	O52	0.003700	0.327500	0.439300
O531	O53	0.915000	0.311100	0.538900
O541	O54	0.936400	0.402700	0.538400
F41	F4	0.873000	0.378100	0.439300
F51	F5	0.821500	0.425600	0.539000
F61	F6	0.930300	0.429100	0.463300
C2431	C243	0.054700	0.176100	0.400500
S31	S3	0.060100	0.123000	0.346500
O551	O55	0.037700	0.163300	0.303100
O561	O56	0.009100	0.101700	0.391200
O571	O57	0.137100	0.073100	0.317200
F71	F7	0.106000	0.196800	0.367100
F81	F8	0.984000	0.227800	0.426800
F91	F9	0.068600	0.142200	0.447200
C2441	C244	0.126500	0.582400	0.523300
S41	S4	0.062000	0.643600	0.498700
O581	O58	0.996300	0.672500	0.560700
O591	O59	0.085000	0.688900	0.461100
O601	O60	0.063600	0.597300	0.461600
F101	F10	0.127000	0.621900	0.560700
F111	F11	0.178500	0.574400	0.461000
F121	F12	0.069700	0.570900	0.536700
