data_IXISOX_freeONLY_PM
_symmetry_space_group_name_H-M	'P1'
_cell_length_a	13.136000
_cell_length_b	14.080700
_cell_length_c	14.080700
_cell_angle_alpha	77.433000
_cell_angle_beta	62.195500
_cell_angle_gamma	62.195600
_symmetry_Int_Tables_number 1

loop_
_symmetry_equiv_pos_as_xyz
'x,y,z'

loop_
_atom_site_label
_atom_site_type_symbol
_atom_site_fract_x
_atom_site_fract_y
_atom_site_fract_z
Cu11	Cu1	0.384300	0.250000	0.731400
Cu21	Cu2	0.865700	0.250000	0.768600
Cu31	Cu3	0.615700	0.268600	0.750000
Cu41	Cu4	0.134300	0.231400	0.750000
Cu51	Cu5	0.615700	0.750000	0.268600
Cu61	Cu6	0.134300	0.750000	0.231400
Cu71	Cu7	0.384300	0.731400	0.250000
Cu81	Cu8	0.865700	0.768600	0.250000
H11	H1	0.355500	0.342000	0.494800
H21	H2	0.257700	0.382800	0.610800
H31	H3	0.692300	0.158000	0.005200
H41	H4	0.751300	0.117200	0.889200
H51	H5	0.350300	0.505200	0.842000
H61	H6	0.368500	0.389200	0.882800
H71	H7	0.197500	0.994800	0.658000
H81	H8	0.140500	0.110800	0.617200
H91	H9	0.307700	0.994800	0.842000
H101	H10	0.248700	0.110800	0.882800
H111	H11	0.644500	0.505200	0.658000
H121	H12	0.742300	0.389200	0.617200
H131	H13	0.802500	0.342000	0.005200
H141	H14	0.859500	0.382800	0.889200
H151	H15	0.649700	0.158000	0.494800
H161	H16	0.631500	0.117200	0.610800
H171	H17	0.644500	0.658000	0.505200
H181	H18	0.742300	0.617200	0.389200
H191	H19	0.307700	0.842000	0.994800
H201	H20	0.248700	0.882800	0.110800
H211	H21	0.649700	0.494800	0.158000
H221	H22	0.631500	0.610800	0.117200
H231	H23	0.802500	0.005200	0.342000
H241	H24	0.859500	0.889200	0.382800
H251	H25	0.692300	0.005200	0.158000
H261	H26	0.751300	0.889200	0.117200
H271	H27	0.355500	0.494800	0.342000
H281	H28	0.257700	0.610800	0.382800
H291	H29	0.197500	0.658000	0.994800
H301	H30	0.140500	0.617200	0.110800
H311	H31	0.350300	0.842000	0.505200
H321	H32	0.368500	0.882800	0.389200
H331	H33	0.184300	0.481300	0.481300
H341	H34	0.184300	0.551800	0.551800
H351	H35	0.646900	0.018700	0.018700
H361	H36	0.787900	0.948200	0.948200
H371	H37	0.165600	0.518700	0.981300
H381	H38	0.236100	0.448200	0.051800
H391	H39	0.165600	0.981300	0.518700
H401	H40	0.236100	0.051800	0.448200
H411	H41	0.353100	0.981300	0.981300
H421	H42	0.212100	0.051800	0.051800
H431	H43	0.815700	0.518700	0.518700
H441	H44	0.815700	0.448200	0.448200
H451	H45	0.834400	0.481300	0.018700
H461	H46	0.763900	0.551800	0.948200
H471	H47	0.834400	0.018700	0.481300
H481	H48	0.763900	0.948200	0.551800
C11	C1	0.411200	0.415600	0.558000
C21	C2	0.313100	0.400800	0.543200
C31	C3	0.884800	0.084400	0.942000
C41	C4	0.757100	0.099200	0.956800
C51	C5	0.469200	0.442000	0.915600
C61	C6	0.356300	0.456800	0.900800
C71	C7	0.326800	0.058000	0.584400
C81	C8	0.213900	0.043200	0.599200
C91	C9	0.115200	0.058000	0.915600
C101	C10	0.242900	0.043200	0.900800
C111	C11	0.588800	0.442000	0.584400
C121	C12	0.686900	0.456800	0.599200
C131	C13	0.673200	0.415600	0.942000
C141	C14	0.786100	0.400800	0.956800
C151	C15	0.530800	0.084400	0.558000
C161	C16	0.643700	0.099200	0.543200
C171	C17	0.588800	0.584400	0.442000
C181	C18	0.686900	0.599200	0.456800
C191	C19	0.115200	0.915600	0.058000
C201	C20	0.242900	0.900800	0.043200
C211	C21	0.530800	0.558000	0.084400
C221	C22	0.643700	0.543200	0.099200
C231	C23	0.673200	0.942000	0.415600
C241	C24	0.786100	0.956800	0.400800
C251	C25	0.884800	0.942000	0.084400
C261	C26	0.757100	0.956800	0.099200
C271	C27	0.411200	0.558000	0.415600
C281	C28	0.313100	0.543200	0.400800
C291	C29	0.326800	0.584400	0.058000
C301	C30	0.213900	0.599200	0.043200
C311	C31	0.469200	0.915600	0.442000
C321	C32	0.356300	0.900800	0.456800
C331	C33	0.455900	0.492700	0.492700
C341	C34	0.238200	0.497300	0.497300
C351	C35	0.941300	0.007300	0.007300
C361	C36	0.732800	0.002700	0.002700
C371	C37	0.448600	0.507300	0.992700
C381	C38	0.235500	0.502700	0.997300
C391	C39	0.448600	0.992700	0.507300
C401	C40	0.235500	0.997300	0.502700
C411	C41	0.058700	0.992700	0.992700
C421	C42	0.267200	0.997300	0.997300
C431	C43	0.544100	0.507300	0.507300
C441	C44	0.761800	0.502700	0.502700
C451	C45	0.551400	0.492700	0.007300
C461	C46	0.764500	0.497300	0.002700
C471	C47	0.551400	0.007300	0.492700
C481	C48	0.764500	0.002700	0.497300
I11	I1	0.500000	0.144060	0.855940
I21	I2	0.000000	0.355940	0.644060
I31	I3	0.855940	0.144060	0.644060
I41	I4	0.144060	0.355940	0.855940
I51	I5	0.500000	0.855940	0.144060
I61	I6	0.000000	0.644060	0.355940
I71	I7	0.144060	0.855940	0.355940
I81	I8	0.855940	0.644060	0.144060
N11	N1	0.454200	0.357500	0.629100
N21	N2	0.940800	0.142500	0.870900
N31	N3	0.583300	0.370900	0.857500
N41	N4	0.311700	0.129100	0.642500
N51	N5	0.059200	0.129100	0.857500
N61	N6	0.545800	0.370900	0.642500
N71	N7	0.688300	0.357500	0.870900
N81	N8	0.416700	0.142500	0.629100
N91	N9	0.545800	0.642500	0.370900
N101	N10	0.059200	0.857500	0.129100
N111	N11	0.416700	0.629100	0.142500
N121	N12	0.688300	0.870900	0.357500
N131	N13	0.940800	0.870900	0.142500
N141	N14	0.454200	0.629100	0.357500
N151	N15	0.311700	0.642500	0.129100
N161	N16	0.583300	0.857500	0.370900
