data_IXURID_freeONLY_PM
_symmetry_space_group_name_H-M	'P1'
_cell_length_a	10.902800
_cell_length_b	10.945300
_cell_length_c	15.853300
_cell_angle_alpha	88.159000
_cell_angle_beta	80.542000
_cell_angle_gamma	85.314000
_symmetry_Int_Tables_number 1

loop_
_symmetry_equiv_pos_as_xyz
'x,y,z'

loop_
_atom_site_label
_atom_site_type_symbol
_atom_site_fract_x
_atom_site_fract_y
_atom_site_fract_z
Zn11	Zn1	0.717580	0.842280	0.593700
Zn21	Zn2	0.670300	0.837130	0.784760
H11	H1	0.730000	0.448200	0.567900
H21	H2	0.726100	0.238800	0.567000
H31	H3	0.652600	0.231100	0.820100
H41	H4	0.660400	0.439200	0.820800
H51	H5	0.267300	0.818900	0.815400
H61	H6	0.057800	0.810400	0.811300
H71	H7	0.122900	0.859300	0.556700
H81	H8	0.330200	0.868300	0.560700
H91	H9	0.580300	0.830300	0.311000
H101	H10	0.564000	0.840500	0.455700
H111	H11	0.921800	0.839000	0.443500
H121	H12	0.951600	0.830700	0.296900
H131	H13	0.805500	0.731100	0.919400
H141	H14	0.820400	0.756400	0.061300
H151	H15	0.516200	0.960600	0.934900
H161	H16	0.866900	0.805400	0.168600
H171	H17	0.611800	0.949700	0.195700
C11	C1	0.696900	0.604600	0.693600
C21	C2	0.694700	0.466700	0.694500
C31	C3	0.714600	0.404800	0.619400
C41	C4	0.712300	0.278900	0.619000
C51	C5	0.690200	0.212500	0.692900
C61	C6	0.669300	0.274400	0.768600
C71	C7	0.673000	0.399300	0.768800
C81	C8	0.688000	0.075400	0.692100
C91	C9	0.458100	0.847100	0.690600
C101	C10	0.320700	0.843600	0.688400
C111	C11	0.238200	0.827100	0.763400
C121	C12	0.112600	0.822800	0.760900
C131	C13	0.067100	0.836800	0.683900
C141	C14	0.151400	0.852100	0.608900
C151	C15	0.275300	0.856500	0.611200
C161	C16	0.930800	0.833900	0.682500
C171	C17	0.767000	0.833600	0.288800
C181	C18	0.651000	0.833200	0.336400
C191	C19	0.643200	0.837500	0.423000
C201	C20	0.852600	0.836900	0.416500
C211	C21	0.871700	0.833300	0.328600
C221	C22	0.744400	0.782600	0.951400
C231	C23	0.755900	0.798000	0.037500
C241	C24	0.667500	0.876200	0.085300
C251	C25	0.586500	0.941500	0.042300
C261	C26	0.578200	0.917800	0.960300
N11	N1	0.659300	0.831900	0.912820
N21	N2	0.740500	0.837600	0.464850
N31	N3	0.776600	0.868100	0.199900
N41	N4	0.672500	0.906900	0.166200
O11	O1	0.859800	0.826000	0.752220
O21	O2	0.897400	0.839500	0.610310
O31	O3	0.491200	0.851800	0.762640
O41	O4	0.530400	0.844600	0.620530
O51	O5	0.673000	0.655100	0.764940
O61	O6	0.721900	0.658000	0.623750
O71	O7	0.674100	0.020700	0.763450
O81	O8	0.700500	0.026200	0.621280
Zn31	Zn3	0.282420	0.157720	0.406300
Zn41	Zn4	0.329700	0.162870	0.215240
H181	H18	0.270000	0.551800	0.432100
H191	H19	0.273900	0.761200	0.433000
H201	H20	0.347400	0.768900	0.179900
H211	H21	0.339600	0.560800	0.179200
H221	H22	0.732700	0.181100	0.184600
H231	H23	0.942200	0.189600	0.188700
H241	H24	0.877100	0.140700	0.443300
H251	H25	0.669800	0.131700	0.439300
H261	H26	0.419700	0.169700	0.689000
H271	H27	0.436000	0.159500	0.544300
H281	H28	0.078200	0.161000	0.556500
H291	H29	0.048400	0.169300	0.703100
H301	H30	0.194500	0.268900	0.080600
H311	H31	0.179600	0.243600	0.938700
H321	H32	0.483800	0.039400	0.065100
H331	H33	0.133100	0.194600	0.831400
H341	H34	0.388200	0.050300	0.804300
C271	C27	0.303100	0.395400	0.306400
C281	C28	0.305300	0.533300	0.305500
C291	C29	0.285400	0.595200	0.380600
C301	C30	0.287700	0.721100	0.381000
C311	C31	0.309800	0.787500	0.307100
C321	C32	0.330700	0.725600	0.231400
C331	C33	0.327000	0.600700	0.231200
C341	C34	0.312000	0.924600	0.307900
C351	C35	0.541900	0.152900	0.309400
C361	C36	0.679300	0.156400	0.311600
C371	C37	0.761800	0.172900	0.236600
C381	C38	0.887400	0.177200	0.239100
C391	C39	0.932900	0.163200	0.316100
C401	C40	0.848600	0.147900	0.391100
C411	C41	0.724700	0.143500	0.388800
C421	C42	0.069200	0.166100	0.317500
C431	C43	0.233000	0.166400	0.711200
C441	C44	0.349000	0.166800	0.663600
C451	C45	0.356800	0.162500	0.577000
C461	C46	0.147400	0.163100	0.583500
C471	C47	0.128300	0.166700	0.671400
C481	C48	0.255600	0.217400	0.048600
C491	C49	0.244100	0.202000	0.962500
C501	C50	0.332500	0.123800	0.914700
C511	C51	0.413500	0.058500	0.957700
C521	C52	0.421800	0.082200	0.039700
N51	N5	0.340700	0.168100	0.087180
N61	N6	0.259500	0.162400	0.535150
N71	N7	0.223400	0.131900	0.800100
N81	N8	0.327500	0.093100	0.833800
O91	O9	0.140200	0.174000	0.247780
O101	O10	0.102600	0.160500	0.389690
O111	O11	0.508800	0.148200	0.237360
O121	O12	0.469600	0.155400	0.379470
O131	O13	0.327000	0.344900	0.235060
O141	O14	0.278100	0.342000	0.376250
O151	O15	0.325900	0.979300	0.236550
O161	O16	0.299500	0.973800	0.378720
