data_IYAJID_freeONLY_PM
_symmetry_space_group_name_H-M	'P1'
_cell_length_a	18.414800
_cell_length_b	29.557400
_cell_length_c	16.315500
_cell_angle_alpha	90.000000
_cell_angle_beta	119.269000
_cell_angle_gamma	90.000000
_symmetry_Int_Tables_number 1

loop_
_symmetry_equiv_pos_as_xyz
'x,y,z'

loop_
_atom_site_label
_atom_site_type_symbol
_atom_site_fract_x
_atom_site_fract_y
_atom_site_fract_z
Cd11	Cd1	0.095610	0.630630	0.130570
O11	O1	0.090890	0.596390	0.249600
O21	O2	0.060900	0.430440	0.532700
O31	O3	0.958880	0.661970	0.084100
O41	O4	0.705890	0.827040	0.721500
O51	O5	0.367000	0.663940	0.176900
O61	O6	0.556100	0.577340	0.365600
O71	O7	0.213700	0.570130	0.278200
O81	O8	0.186300	0.405010	0.573300
O91	O9	0.620100	0.795230	0.763900
O101	O10	0.451900	0.693540	0.133400
O111	O11	0.025900	0.681790	0.009500
C11	C1	0.209600	0.503200	0.398900
H11	H1	0.255500	0.503600	0.389500
O121	O12	0.427200	0.591820	0.327400
C21	C2	0.330300	0.756730	0.016900
H21	H2	0.384400	0.761400	0.028400
C31	C3	0.751600	0.739940	0.895300
H31	H3	0.701700	0.739200	0.896700
C41	C4	0.204000	0.470280	0.456600
H41	H4	0.246100	0.448900	0.485600
C51	C5	0.817200	0.712840	0.956300
H51	H5	0.811100	0.694100	0.998400
C61	C6	0.689300	0.798720	0.768100
C71	C7	0.891700	0.713380	0.955100
C81	C8	0.075000	0.501200	0.428100
H61	H6	0.029200	0.500600	0.437600
C91	C9	0.430900	0.527510	0.457100
H71	H7	0.384300	0.546100	0.428600
C101	C10	0.147800	0.535420	0.355400
C111	C11	0.136400	0.469280	0.470800
C121	C12	0.152400	0.569890	0.290700
C131	C13	0.495900	0.533740	0.438700
C141	C14	0.899100	0.740860	0.892300
H81	H8	0.948900	0.741200	0.890600
C151	C15	0.232500	0.715720	0.045100
H91	H9	0.220800	0.692700	0.075700
C161	C16	0.314000	0.722050	0.062600
C171	C17	0.565100	0.505900	0.482700
H101	H10	0.609400	0.509900	0.471200
C181	C18	0.759400	0.767930	0.832800
C191	C19	0.834300	0.768110	0.831400
H111	H11	0.840700	0.786700	0.789300
C201	C20	0.382400	0.691540	0.128700
C211	C21	0.080300	0.534050	0.371500
H121	H12	0.038300	0.555500	0.343700
C221	C22	0.963300	0.683740	0.021100
C231	C23	0.128100	0.432410	0.530500
C241	C24	0.492200	0.570140	0.372500
Na11	Na1	0.295780	0.613980	0.225180
Cd21	Cd2	0.595610	0.130630	0.130570
O131	O13	0.590890	0.096390	0.249600
O141	O14	0.560900	0.930440	0.532700
O151	O15	0.458880	0.161970	0.084100
O161	O16	0.205890	0.327040	0.721500
O171	O17	0.867000	0.163940	0.176900
O181	O18	0.056100	0.077340	0.365600
O191	O19	0.713700	0.070130	0.278200
O201	O20	0.686300	0.905010	0.573300
O211	O21	0.120100	0.295230	0.763900
O221	O22	0.951900	0.193540	0.133400
O231	O23	0.525900	0.181790	0.009500
C251	C25	0.709600	0.003200	0.398900
H131	H13	0.755500	0.003600	0.389500
O241	O24	0.927200	0.091820	0.327400
C261	C26	0.830300	0.256730	0.016900
H141	H14	0.884400	0.261400	0.028400
C271	C27	0.251600	0.239940	0.895300
H151	H15	0.201700	0.239200	0.896700
C281	C28	0.704000	0.970280	0.456600
H161	H16	0.746100	0.948900	0.485600
C291	C29	0.317200	0.212840	0.956300
H171	H17	0.311100	0.194100	0.998400
C301	C30	0.189300	0.298720	0.768100
C311	C31	0.391700	0.213380	0.955100
C321	C32	0.575000	0.001200	0.428100
H181	H18	0.529200	0.000600	0.437600
C331	C33	0.930900	0.027510	0.457100
H191	H19	0.884300	0.046100	0.428600
C341	C34	0.647800	0.035420	0.355400
C351	C35	0.636400	0.969280	0.470800
C361	C36	0.652400	0.069890	0.290700
C371	C37	0.995900	0.033740	0.438700
C381	C38	0.399100	0.240860	0.892300
H201	H20	0.448900	0.241200	0.890600
C391	C39	0.732500	0.215720	0.045100
H211	H21	0.720800	0.192700	0.075700
C401	C40	0.814000	0.222050	0.062600
C411	C41	0.065100	0.005900	0.482700
H221	H22	0.109400	0.009900	0.471200
C421	C42	0.259400	0.267930	0.832800
C431	C43	0.334300	0.268110	0.831400
H231	H23	0.340700	0.286700	0.789300
C441	C44	0.882400	0.191540	0.128700
C451	C45	0.580300	0.034050	0.371500
H241	H24	0.538300	0.055500	0.343700
C461	C46	0.463300	0.183740	0.021100
C471	C47	0.628100	0.932410	0.530500
C481	C48	0.992200	0.070140	0.372500
Na21	Na2	0.795780	0.113980	0.225180
Cd31	Cd3	0.904390	0.630630	0.369430
O251	O25	0.909110	0.596390	0.250400
O261	O26	0.939100	0.430440	0.967300
O271	O27	0.041120	0.661970	0.415900
O281	O28	0.294110	0.827040	0.778500
O291	O29	0.633000	0.663940	0.323100
O301	O30	0.443900	0.577340	0.134400
O311	O31	0.786300	0.570130	0.221800
O321	O32	0.813700	0.405010	0.926700
O331	O33	0.379900	0.795230	0.736100
O341	O34	0.548100	0.693540	0.366600
O351	O35	0.974100	0.681790	0.490500
C491	C49	0.790400	0.503200	0.101100
H251	H25	0.744500	0.503600	0.110500
O361	O36	0.572800	0.591820	0.172600
C501	C50	0.669700	0.756730	0.483100
H261	H26	0.615600	0.761400	0.471600
C511	C51	0.248400	0.739940	0.604700
H271	H27	0.298300	0.739200	0.603300
C521	C52	0.796000	0.470280	0.043400
H281	H28	0.753900	0.448900	0.014400
C531	C53	0.182800	0.712840	0.543700
H291	H29	0.188900	0.694100	0.501600
C541	C54	0.310700	0.798720	0.731900
C551	C55	0.108300	0.713380	0.544900
C561	C56	0.925000	0.501200	0.071900
H301	H30	0.970800	0.500600	0.062400
C571	C57	0.569100	0.527510	0.042900
H311	H31	0.615700	0.546100	0.071400
C581	C58	0.852200	0.535420	0.144600
C591	C59	0.863600	0.469280	0.029200
C601	C60	0.847600	0.569890	0.209300
C611	C61	0.504100	0.533740	0.061300
C621	C62	0.100900	0.740860	0.607700
H321	H32	0.051100	0.741200	0.609400
C631	C63	0.767500	0.715720	0.454900
H331	H33	0.779200	0.692700	0.424300
C641	C64	0.686000	0.722050	0.437400
C651	C65	0.434900	0.505900	0.017300
H341	H34	0.390600	0.509900	0.028800
C661	C66	0.240600	0.767930	0.667200
C671	C67	0.165700	0.768110	0.668600
H351	H35	0.159300	0.786700	0.710700
C681	C68	0.617600	0.691540	0.371300
C691	C69	0.919700	0.534050	0.128500
H361	H36	0.961700	0.555500	0.156300
C701	C70	0.036700	0.683740	0.478900
C711	C71	0.871900	0.432410	0.969500
C721	C72	0.507800	0.570140	0.127500
Na31	Na3	0.704220	0.613980	0.274820
Cd41	Cd4	0.404390	0.130630	0.369430
O371	O37	0.409110	0.096390	0.250400
O381	O38	0.439100	0.930440	0.967300
O391	O39	0.541120	0.161970	0.415900
O401	O40	0.794110	0.327040	0.778500
O411	O41	0.133000	0.163940	0.323100
O421	O42	0.943900	0.077340	0.134400
O431	O43	0.286300	0.070130	0.221800
O441	O44	0.313700	0.905010	0.926700
O451	O45	0.879900	0.295230	0.736100
O461	O46	0.048100	0.193540	0.366600
O471	O47	0.474100	0.181790	0.490500
C731	C73	0.290400	0.003200	0.101100
H371	H37	0.244500	0.003600	0.110500
O481	O48	0.072800	0.091820	0.172600
C741	C74	0.169700	0.256730	0.483100
H381	H38	0.115600	0.261400	0.471600
C751	C75	0.748400	0.239940	0.604700
H391	H39	0.798300	0.239200	0.603300
C761	C76	0.296000	0.970280	0.043400
H401	H40	0.253900	0.948900	0.014400
C771	C77	0.682800	0.212840	0.543700
H411	H41	0.688900	0.194100	0.501600
C781	C78	0.810700	0.298720	0.731900
C791	C79	0.608300	0.213380	0.544900
C801	C80	0.425000	0.001200	0.071900
H421	H42	0.470800	0.000600	0.062400
C811	C81	0.069100	0.027510	0.042900
H431	H43	0.115700	0.046100	0.071400
C821	C82	0.352200	0.035420	0.144600
C831	C83	0.363600	0.969280	0.029200
C841	C84	0.347600	0.069890	0.209300
C851	C85	0.004100	0.033740	0.061300
C861	C86	0.600900	0.240860	0.607700
H441	H44	0.551100	0.241200	0.609400
C871	C87	0.267500	0.215720	0.454900
H451	H45	0.279200	0.192700	0.424300
C881	C88	0.186000	0.222050	0.437400
C891	C89	0.934900	0.005900	0.017300
H461	H46	0.890600	0.009900	0.028800
C901	C90	0.740600	0.267930	0.667200
C911	C91	0.665700	0.268110	0.668600
H471	H47	0.659300	0.286700	0.710700
C921	C92	0.117600	0.191540	0.371300
C931	C93	0.419700	0.034050	0.128500
H481	H48	0.461700	0.055500	0.156300
C941	C94	0.536700	0.183740	0.478900
C951	C95	0.371900	0.932410	0.969500
C961	C96	0.007800	0.070140	0.127500
Na41	Na4	0.204220	0.113980	0.274820
Cd51	Cd5	0.904390	0.369370	0.869430
O491	O49	0.909110	0.403610	0.750400
O501	O50	0.939100	0.569560	0.467300
O511	O51	0.041120	0.338030	0.915900
O521	O52	0.294110	0.172960	0.278500
O531	O53	0.633000	0.336060	0.823100
O541	O54	0.443900	0.422660	0.634400
O551	O55	0.786300	0.429870	0.721800
O561	O56	0.813700	0.594990	0.426700
O571	O57	0.379900	0.204770	0.236100
O581	O58	0.548100	0.306460	0.866600
O591	O59	0.974100	0.318210	0.990500
C971	C97	0.790400	0.496800	0.601100
H491	H49	0.744500	0.496400	0.610500
O601	O60	0.572800	0.408180	0.672600
C981	C98	0.669700	0.243270	0.983100
H501	H50	0.615600	0.238600	0.971600
C991	C99	0.248400	0.260060	0.104700
H511	H51	0.298300	0.260800	0.103300
C1001	C100	0.796000	0.529720	0.543400
H521	H52	0.753900	0.551100	0.514400
C1011	C101	0.182800	0.287160	0.043700
H531	H53	0.188900	0.305900	0.001600
C1021	C102	0.310700	0.201280	0.231900
C1031	C103	0.108300	0.286620	0.044900
C1041	C104	0.925000	0.498800	0.571900
H541	H54	0.970800	0.499400	0.562400
C1051	C105	0.569100	0.472490	0.542900
H551	H55	0.615700	0.453900	0.571400
C1061	C106	0.852200	0.464580	0.644600
C1071	C107	0.863600	0.530720	0.529200
C1081	C108	0.847600	0.430110	0.709300
C1091	C109	0.504100	0.466260	0.561300
C1101	C110	0.100900	0.259140	0.107700
H561	H56	0.051100	0.258800	0.109400
C1111	C111	0.767500	0.284280	0.954900
H571	H57	0.779200	0.307300	0.924300
C1121	C112	0.686000	0.277950	0.937400
C1131	C113	0.434900	0.494100	0.517300
H581	H58	0.390600	0.490100	0.528800
C1141	C114	0.240600	0.232070	0.167200
C1151	C115	0.165700	0.231890	0.168600
H591	H59	0.159300	0.213300	0.210700
C1161	C116	0.617600	0.308460	0.871300
C1171	C117	0.919700	0.465950	0.628500
H601	H60	0.961700	0.444500	0.656300
C1181	C118	0.036700	0.316260	0.978900
C1191	C119	0.871900	0.567590	0.469500
C1201	C120	0.507800	0.429860	0.627500
Na51	Na5	0.704220	0.386020	0.774820
Cd61	Cd6	0.404390	0.869370	0.869430
O611	O61	0.409110	0.903610	0.750400
O621	O62	0.439100	0.069560	0.467300
O631	O63	0.541120	0.838030	0.915900
O641	O64	0.794110	0.672960	0.278500
O651	O65	0.133000	0.836060	0.823100
O661	O66	0.943900	0.922660	0.634400
O671	O67	0.286300	0.929870	0.721800
O681	O68	0.313700	0.094990	0.426700
O691	O69	0.879900	0.704770	0.236100
O701	O70	0.048100	0.806460	0.866600
O711	O71	0.474100	0.818210	0.990500
C1211	C121	0.290400	0.996800	0.601100
H611	H61	0.244500	0.996400	0.610500
O721	O72	0.072800	0.908180	0.672600
C1221	C122	0.169700	0.743270	0.983100
H621	H62	0.115600	0.738600	0.971600
C1231	C123	0.748400	0.760060	0.104700
H631	H63	0.798300	0.760800	0.103300
C1241	C124	0.296000	0.029720	0.543400
H641	H64	0.253900	0.051100	0.514400
C1251	C125	0.682800	0.787160	0.043700
H651	H65	0.688900	0.805900	0.001600
C1261	C126	0.810700	0.701280	0.231900
C1271	C127	0.608300	0.786620	0.044900
C1281	C128	0.425000	0.998800	0.571900
H661	H66	0.470800	0.999400	0.562400
C1291	C129	0.069100	0.972490	0.542900
H671	H67	0.115700	0.953900	0.571400
C1301	C130	0.352200	0.964580	0.644600
C1311	C131	0.363600	0.030720	0.529200
C1321	C132	0.347600	0.930110	0.709300
C1331	C133	0.004100	0.966260	0.561300
C1341	C134	0.600900	0.759140	0.107700
H681	H68	0.551100	0.758800	0.109400
C1351	C135	0.267500	0.784280	0.954900
H691	H69	0.279200	0.807300	0.924300
C1361	C136	0.186000	0.777950	0.937400
C1371	C137	0.934900	0.994100	0.517300
H701	H70	0.890600	0.990100	0.528800
C1381	C138	0.740600	0.732070	0.167200
C1391	C139	0.665700	0.731890	0.168600
H711	H71	0.659300	0.713300	0.210700
C1401	C140	0.117600	0.808460	0.871300
C1411	C141	0.419700	0.965950	0.628500
H721	H72	0.461700	0.944500	0.656300
C1421	C142	0.536700	0.816260	0.978900
C1431	C143	0.371900	0.067590	0.469500
C1441	C144	0.007800	0.929860	0.627500
Na61	Na6	0.204220	0.886020	0.774820
Cd71	Cd7	0.095610	0.369370	0.630570
O731	O73	0.090890	0.403610	0.749600
O741	O74	0.060900	0.569560	0.032700
O751	O75	0.958880	0.338030	0.584100
O761	O76	0.705890	0.172960	0.221500
O771	O77	0.367000	0.336060	0.676900
O781	O78	0.556100	0.422660	0.865600
O791	O79	0.213700	0.429870	0.778200
O801	O80	0.186300	0.594990	0.073300
O811	O81	0.620100	0.204770	0.263900
O821	O82	0.451900	0.306460	0.633400
O831	O83	0.025900	0.318210	0.509500
C1451	C145	0.209600	0.496800	0.898900
H731	H73	0.255500	0.496400	0.889500
O841	O84	0.427200	0.408180	0.827400
C1461	C146	0.330300	0.243270	0.516900
H741	H74	0.384400	0.238600	0.528400
C1471	C147	0.751600	0.260060	0.395300
H751	H75	0.701700	0.260800	0.396700
C1481	C148	0.204000	0.529720	0.956600
H761	H76	0.246100	0.551100	0.985600
C1491	C149	0.817200	0.287160	0.456300
H771	H77	0.811100	0.305900	0.498400
C1501	C150	0.689300	0.201280	0.268100
C1511	C151	0.891700	0.286620	0.455100
C1521	C152	0.075000	0.498800	0.928100
H781	H78	0.029200	0.499400	0.937600
C1531	C153	0.430900	0.472490	0.957100
H791	H79	0.384300	0.453900	0.928600
C1541	C154	0.147800	0.464580	0.855400
C1551	C155	0.136400	0.530720	0.970800
C1561	C156	0.152400	0.430110	0.790700
C1571	C157	0.495900	0.466260	0.938700
C1581	C158	0.899100	0.259140	0.392300
H801	H80	0.948900	0.258800	0.390600
C1591	C159	0.232500	0.284280	0.545100
H811	H81	0.220800	0.307300	0.575700
C1601	C160	0.314000	0.277950	0.562600
C1611	C161	0.565100	0.494100	0.982700
H821	H82	0.609400	0.490100	0.971200
C1621	C162	0.759400	0.232070	0.332800
C1631	C163	0.834300	0.231890	0.331400
H831	H83	0.840700	0.213300	0.289300
C1641	C164	0.382400	0.308460	0.628700
C1651	C165	0.080300	0.465950	0.871500
H841	H84	0.038300	0.444500	0.843700
C1661	C166	0.963300	0.316260	0.521100
C1671	C167	0.128100	0.567590	0.030500
C1681	C168	0.492200	0.429860	0.872500
Na71	Na7	0.295780	0.386020	0.725180
Cd81	Cd8	0.595610	0.869370	0.630570
O851	O85	0.590890	0.903610	0.749600
O861	O86	0.560900	0.069560	0.032700
O871	O87	0.458880	0.838030	0.584100
O881	O88	0.205890	0.672960	0.221500
O891	O89	0.867000	0.836060	0.676900
O901	O90	0.056100	0.922660	0.865600
O911	O91	0.713700	0.929870	0.778200
O921	O92	0.686300	0.094990	0.073300
O931	O93	0.120100	0.704770	0.263900
O941	O94	0.951900	0.806460	0.633400
O951	O95	0.525900	0.818210	0.509500
C1691	C169	0.709600	0.996800	0.898900
H851	H85	0.755500	0.996400	0.889500
O961	O96	0.927200	0.908180	0.827400
C1701	C170	0.830300	0.743270	0.516900
H861	H86	0.884400	0.738600	0.528400
C1711	C171	0.251600	0.760060	0.395300
H871	H87	0.201700	0.760800	0.396700
C1721	C172	0.704000	0.029720	0.956600
H881	H88	0.746100	0.051100	0.985600
C1731	C173	0.317200	0.787160	0.456300
H891	H89	0.311100	0.805900	0.498400
C1741	C174	0.189300	0.701280	0.268100
C1751	C175	0.391700	0.786620	0.455100
C1761	C176	0.575000	0.998800	0.928100
H901	H90	0.529200	0.999400	0.937600
C1771	C177	0.930900	0.972490	0.957100
H911	H91	0.884300	0.953900	0.928600
C1781	C178	0.647800	0.964580	0.855400
C1791	C179	0.636400	0.030720	0.970800
C1801	C180	0.652400	0.930110	0.790700
C1811	C181	0.995900	0.966260	0.938700
C1821	C182	0.399100	0.759140	0.392300
H921	H92	0.448900	0.758800	0.390600
C1831	C183	0.732500	0.784280	0.545100
H931	H93	0.720800	0.807300	0.575700
C1841	C184	0.814000	0.777950	0.562600
C1851	C185	0.065100	0.994100	0.982700
H941	H94	0.109400	0.990100	0.971200
C1861	C186	0.259400	0.732070	0.332800
C1871	C187	0.334300	0.731890	0.331400
H951	H95	0.340700	0.713300	0.289300
C1881	C188	0.882400	0.808460	0.628700
C1891	C189	0.580300	0.965950	0.871500
H961	H96	0.538300	0.944500	0.843700
C1901	C190	0.463300	0.816260	0.521100
C1911	C191	0.628100	0.067590	0.030500
C1921	C192	0.992200	0.929860	0.872500
Na81	Na8	0.795780	0.886020	0.725180
Cd91	Cd9	0.500000	0.632540	0.250000
Cd101	Cd10	0.000000	0.132540	0.250000
Cd111	Cd11	0.500000	0.367460	0.750000
Cd121	Cd12	0.000000	0.867460	0.750000
Na91	Na9	0.000000	0.658140	0.250000
Na101	Na10	0.500000	0.158140	0.250000
Na111	Na11	0.000000	0.341860	0.750000
Na121	Na12	0.500000	0.841860	0.750000
