data_IYAJOJ_freeONLY_PM
_symmetry_space_group_name_H-M	'P1'
_cell_length_a	18.989500
_cell_length_b	28.481000
_cell_length_c	16.958700
_cell_angle_alpha	90.000000
_cell_angle_beta	119.896000
_cell_angle_gamma	90.000000
_symmetry_Int_Tables_number 1

loop_
_symmetry_equiv_pos_as_xyz
'x,y,z'

loop_
_atom_site_label
_atom_site_type_symbol
_atom_site_fract_x
_atom_site_fract_y
_atom_site_fract_z
Cd11	Cd1	0.400330	0.630520	0.372250
Na11	Na1	0.202350	0.608640	0.281820
O11	O1	0.438400	0.431260	0.974000
O21	O2	0.405900	0.591830	0.262300
O31	O3	0.288300	0.562600	0.232000
O41	O4	0.287900	0.671190	0.280400
O51	O5	0.034000	0.838070	0.923000
O61	O6	0.965700	0.814290	0.988900
O71	O7	0.315600	0.404750	0.929600
O81	O8	0.368400	0.705830	0.239700
O91	O9	0.869400	0.663460	0.176400
O101	O10	0.947200	0.575400	0.136000
O111	O11	0.950000	0.695700	0.134500
C11	C1	0.346900	0.564000	0.221000
C21	C2	0.827200	0.757500	0.016200
H11	H1	0.880700	0.762800	0.027100
C31	C3	0.301500	0.699700	0.233300
C41	C4	0.352300	0.530100	0.154600
C51	C5	0.813900	0.722400	0.062500
C61	C6	0.235200	0.756500	0.102300
H21	H2	0.283800	0.756600	0.099100
C71	C7	0.373100	0.432500	0.975000
C81	C8	0.158000	0.728100	0.168000
H31	H3	0.152900	0.708400	0.210000
C91	C9	0.027800	0.813500	0.981300
C101	C10	0.098800	0.783500	0.045000
O121	O12	0.073400	0.589800	0.177200
C111	C11	0.169900	0.783500	0.042500
H41	H4	0.174300	0.802400	0.999000
C121	C12	0.294600	0.496200	0.111500
H51	H5	0.250000	0.494000	0.122000
C131	C13	0.735000	0.715000	0.045600
H61	H6	0.724500	0.690900	0.076900
C141	C14	0.420400	0.502300	0.076200
H71	H7	0.463900	0.505000	0.063900
C151	C15	0.414600	0.534000	0.136300
H81	H8	0.453900	0.558100	0.164200
C161	C16	0.230100	0.729200	0.166700
C171	C17	0.363500	0.467500	0.035300
C181	C18	0.881900	0.691900	0.129100
C191	C19	0.093300	0.755600	0.108400
H91	H9	0.044500	0.755300	0.110900
C201	C20	0.300600	0.465100	0.053000
H101	H10	0.260400	0.441400	0.024400
C211	C21	0.005200	0.532800	0.062800
C221	C22	0.933900	0.507100	0.011300
H111	H11	0.888500	0.512000	0.019400
C231	C23	0.070400	0.524800	0.050300
H121	H12	0.119300	0.542000	0.085400
C241	C24	0.009600	0.568600	0.130400
Cd21	Cd2	0.900330	0.130520	0.372250
Na21	Na2	0.702350	0.108640	0.281820
O131	O13	0.938400	0.931260	0.974000
O141	O14	0.905900	0.091830	0.262300
O151	O15	0.788300	0.062600	0.232000
O161	O16	0.787900	0.171190	0.280400
O171	O17	0.534000	0.338070	0.923000
O181	O18	0.465700	0.314290	0.988900
O191	O19	0.815600	0.904750	0.929600
O201	O20	0.868400	0.205830	0.239700
O211	O21	0.369400	0.163460	0.176400
O221	O22	0.447200	0.075400	0.136000
O231	O23	0.450000	0.195700	0.134500
C251	C25	0.846900	0.064000	0.221000
C261	C26	0.327200	0.257500	0.016200
H131	H13	0.380700	0.262800	0.027100
C271	C27	0.801500	0.199700	0.233300
C281	C28	0.852300	0.030100	0.154600
C291	C29	0.313900	0.222400	0.062500
C301	C30	0.735200	0.256500	0.102300
H141	H14	0.783800	0.256600	0.099100
C311	C31	0.873100	0.932500	0.975000
C321	C32	0.658000	0.228100	0.168000
H151	H15	0.652900	0.208400	0.210000
C331	C33	0.527800	0.313500	0.981300
C341	C34	0.598800	0.283500	0.045000
O241	O24	0.573400	0.089800	0.177200
C351	C35	0.669900	0.283500	0.042500
H161	H16	0.674300	0.302400	0.999000
C361	C36	0.794600	0.996200	0.111500
H171	H17	0.750000	0.994000	0.122000
C371	C37	0.235000	0.215000	0.045600
H181	H18	0.224500	0.190900	0.076900
C381	C38	0.920400	0.002300	0.076200
H191	H19	0.963900	0.005000	0.063900
C391	C39	0.914600	0.034000	0.136300
H201	H20	0.953900	0.058100	0.164200
C401	C40	0.730100	0.229200	0.166700
C411	C41	0.863500	0.967500	0.035300
C421	C42	0.381900	0.191900	0.129100
C431	C43	0.593300	0.255600	0.108400
H211	H21	0.544500	0.255300	0.110900
C441	C44	0.800600	0.965100	0.053000
H221	H22	0.760400	0.941400	0.024400
C451	C45	0.505200	0.032800	0.062800
C461	C46	0.433900	0.007100	0.011300
H231	H23	0.388500	0.012000	0.019400
C471	C47	0.570400	0.024800	0.050300
H241	H24	0.619300	0.042000	0.085400
C481	C48	0.509600	0.068600	0.130400
Cd31	Cd3	0.599670	0.630520	0.127750
Na31	Na3	0.797650	0.608640	0.218180
O251	O25	0.561600	0.431260	0.526000
O261	O26	0.594100	0.591830	0.237700
O271	O27	0.711700	0.562600	0.268000
O281	O28	0.712100	0.671190	0.219600
O291	O29	0.966000	0.838070	0.577000
O301	O30	0.034300	0.814290	0.511100
O311	O31	0.684400	0.404750	0.570400
O321	O32	0.631600	0.705830	0.260300
O331	O33	0.130600	0.663460	0.323600
O341	O34	0.052800	0.575400	0.364000
O351	O35	0.050000	0.695700	0.365500
C491	C49	0.653100	0.564000	0.279000
C501	C50	0.172800	0.757500	0.483800
H251	H25	0.119300	0.762800	0.472900
C511	C51	0.698500	0.699700	0.266700
C521	C52	0.647700	0.530100	0.345400
C531	C53	0.186100	0.722400	0.437500
C541	C54	0.764800	0.756500	0.397700
H261	H26	0.716200	0.756600	0.400900
C551	C55	0.626900	0.432500	0.525000
C561	C56	0.842000	0.728100	0.332000
H271	H27	0.847100	0.708400	0.290000
C571	C57	0.972200	0.813500	0.518700
C581	C58	0.901200	0.783500	0.455000
O361	O36	0.926600	0.589800	0.322800
C591	C59	0.830100	0.783500	0.457500
H281	H28	0.825700	0.802400	0.501000
C601	C60	0.705400	0.496200	0.388500
H291	H29	0.750000	0.494000	0.378000
C611	C61	0.265000	0.715000	0.454400
H301	H30	0.275500	0.690900	0.423100
C621	C62	0.579600	0.502300	0.423800
H311	H31	0.536100	0.505000	0.436100
C631	C63	0.585400	0.534000	0.363700
H321	H32	0.546100	0.558100	0.335800
C641	C64	0.769900	0.729200	0.333300
C651	C65	0.636500	0.467500	0.464700
C661	C66	0.118100	0.691900	0.370900
C671	C67	0.906700	0.755600	0.391600
H331	H33	0.955500	0.755300	0.389100
C681	C68	0.699400	0.465100	0.447000
H341	H34	0.739600	0.441400	0.475600
C691	C69	0.994800	0.532800	0.437200
C701	C70	0.066100	0.507100	0.488700
H351	H35	0.111500	0.512000	0.480600
C711	C71	0.929600	0.524800	0.449700
H361	H36	0.880700	0.542000	0.414600
C721	C72	0.990400	0.568600	0.369600
Cd41	Cd4	0.099670	0.130520	0.127750
Na41	Na4	0.297650	0.108640	0.218180
O371	O37	0.061600	0.931260	0.526000
O381	O38	0.094100	0.091830	0.237700
O391	O39	0.211700	0.062600	0.268000
O401	O40	0.212100	0.171190	0.219600
O411	O41	0.466000	0.338070	0.577000
O421	O42	0.534300	0.314290	0.511100
O431	O43	0.184400	0.904750	0.570400
O441	O44	0.131600	0.205830	0.260300
O451	O45	0.630600	0.163460	0.323600
O461	O46	0.552800	0.075400	0.364000
O471	O47	0.550000	0.195700	0.365500
C731	C73	0.153100	0.064000	0.279000
C741	C74	0.672800	0.257500	0.483800
H371	H37	0.619300	0.262800	0.472900
C751	C75	0.198500	0.199700	0.266700
C761	C76	0.147700	0.030100	0.345400
C771	C77	0.686100	0.222400	0.437500
C781	C78	0.264800	0.256500	0.397700
H381	H38	0.216200	0.256600	0.400900
C791	C79	0.126900	0.932500	0.525000
C801	C80	0.342000	0.228100	0.332000
H391	H39	0.347100	0.208400	0.290000
C811	C81	0.472200	0.313500	0.518700
C821	C82	0.401200	0.283500	0.455000
O481	O48	0.426600	0.089800	0.322800
C831	C83	0.330100	0.283500	0.457500
H401	H40	0.325700	0.302400	0.501000
C841	C84	0.205400	0.996200	0.388500
H411	H41	0.250000	0.994000	0.378000
C851	C85	0.765000	0.215000	0.454400
H421	H42	0.775500	0.190900	0.423100
C861	C86	0.079600	0.002300	0.423800
H431	H43	0.036100	0.005000	0.436100
C871	C87	0.085400	0.034000	0.363700
H441	H44	0.046100	0.058100	0.335800
C881	C88	0.269900	0.229200	0.333300
C891	C89	0.136500	0.967500	0.464700
C901	C90	0.618100	0.191900	0.370900
C911	C91	0.406700	0.255600	0.391600
H451	H45	0.455500	0.255300	0.389100
C921	C92	0.199400	0.965100	0.447000
H461	H46	0.239600	0.941400	0.475600
C931	C93	0.494800	0.032800	0.437200
C941	C94	0.566100	0.007100	0.488700
H471	H47	0.611500	0.012000	0.480600
C951	C95	0.429600	0.024800	0.449700
H481	H48	0.380700	0.042000	0.414600
C961	C96	0.490400	0.068600	0.369600
Cd51	Cd5	0.599670	0.369480	0.627750
Na51	Na5	0.797650	0.391360	0.718180
O491	O49	0.561600	0.568740	0.026000
O501	O50	0.594100	0.408170	0.737700
O511	O51	0.711700	0.437400	0.768000
O521	O52	0.712100	0.328810	0.719600
O531	O53	0.966000	0.161930	0.077000
O541	O54	0.034300	0.185710	0.011100
O551	O55	0.684400	0.595250	0.070400
O561	O56	0.631600	0.294170	0.760300
O571	O57	0.130600	0.336540	0.823600
O581	O58	0.052800	0.424600	0.864000
O591	O59	0.050000	0.304300	0.865500
C971	C97	0.653100	0.436000	0.779000
C981	C98	0.172800	0.242500	0.983800
H491	H49	0.119300	0.237200	0.972900
C991	C99	0.698500	0.300300	0.766700
C1001	C100	0.647700	0.469900	0.845400
C1011	C101	0.186100	0.277600	0.937500
C1021	C102	0.764800	0.243500	0.897700
H501	H50	0.716200	0.243400	0.900900
C1031	C103	0.626900	0.567500	0.025000
C1041	C104	0.842000	0.271900	0.832000
H511	H51	0.847100	0.291600	0.790000
C1051	C105	0.972200	0.186500	0.018700
C1061	C106	0.901200	0.216500	0.955000
O601	O60	0.926600	0.410200	0.822800
C1071	C107	0.830100	0.216500	0.957500
H521	H52	0.825700	0.197600	0.001000
C1081	C108	0.705400	0.503800	0.888500
H531	H53	0.750000	0.506000	0.878000
C1091	C109	0.265000	0.285000	0.954400
H541	H54	0.275500	0.309100	0.923100
C1101	C110	0.579600	0.497700	0.923800
H551	H55	0.536100	0.495000	0.936100
C1111	C111	0.585400	0.466000	0.863700
H561	H56	0.546100	0.441900	0.835800
C1121	C112	0.769900	0.270800	0.833300
C1131	C113	0.636500	0.532500	0.964700
C1141	C114	0.118100	0.308100	0.870900
C1151	C115	0.906700	0.244400	0.891600
H571	H57	0.955500	0.244700	0.889100
C1161	C116	0.699400	0.534900	0.947000
H581	H58	0.739600	0.558600	0.975600
C1171	C117	0.994800	0.467200	0.937200
C1181	C118	0.066100	0.492900	0.988700
H591	H59	0.111500	0.488000	0.980600
C1191	C119	0.929600	0.475200	0.949700
H601	H60	0.880700	0.458000	0.914600
C1201	C120	0.990400	0.431400	0.869600
Cd61	Cd6	0.099670	0.869480	0.627750
Na61	Na6	0.297650	0.891360	0.718180
O611	O61	0.061600	0.068740	0.026000
O621	O62	0.094100	0.908170	0.737700
O631	O63	0.211700	0.937400	0.768000
O641	O64	0.212100	0.828810	0.719600
O651	O65	0.466000	0.661930	0.077000
O661	O66	0.534300	0.685710	0.011100
O671	O67	0.184400	0.095250	0.070400
O681	O68	0.131600	0.794170	0.760300
O691	O69	0.630600	0.836540	0.823600
O701	O70	0.552800	0.924600	0.864000
O711	O71	0.550000	0.804300	0.865500
C1211	C121	0.153100	0.936000	0.779000
C1221	C122	0.672800	0.742500	0.983800
H611	H61	0.619300	0.737200	0.972900
C1231	C123	0.198500	0.800300	0.766700
C1241	C124	0.147700	0.969900	0.845400
C1251	C125	0.686100	0.777600	0.937500
C1261	C126	0.264800	0.743500	0.897700
H621	H62	0.216200	0.743400	0.900900
C1271	C127	0.126900	0.067500	0.025000
C1281	C128	0.342000	0.771900	0.832000
H631	H63	0.347100	0.791600	0.790000
C1291	C129	0.472200	0.686500	0.018700
C1301	C130	0.401200	0.716500	0.955000
O721	O72	0.426600	0.910200	0.822800
C1311	C131	0.330100	0.716500	0.957500
H641	H64	0.325700	0.697600	0.001000
C1321	C132	0.205400	0.003800	0.888500
H651	H65	0.250000	0.006000	0.878000
C1331	C133	0.765000	0.785000	0.954400
H661	H66	0.775500	0.809100	0.923100
C1341	C134	0.079600	0.997700	0.923800
H671	H67	0.036100	0.995000	0.936100
C1351	C135	0.085400	0.966000	0.863700
H681	H68	0.046100	0.941900	0.835800
C1361	C136	0.269900	0.770800	0.833300
C1371	C137	0.136500	0.032500	0.964700
C1381	C138	0.618100	0.808100	0.870900
C1391	C139	0.406700	0.744400	0.891600
H691	H69	0.455500	0.744700	0.889100
C1401	C140	0.199400	0.034900	0.947000
H701	H70	0.239600	0.058600	0.975600
C1411	C141	0.494800	0.967200	0.937200
C1421	C142	0.566100	0.992900	0.988700
H711	H71	0.611500	0.988000	0.980600
C1431	C143	0.429600	0.975200	0.949700
H721	H72	0.380700	0.958000	0.914600
C1441	C144	0.490400	0.931400	0.869600
Cd71	Cd7	0.400330	0.369480	0.872250
Na71	Na7	0.202350	0.391360	0.781820
O731	O73	0.438400	0.568740	0.474000
O741	O74	0.405900	0.408170	0.762300
O751	O75	0.288300	0.437400	0.732000
O761	O76	0.287900	0.328810	0.780400
O771	O77	0.034000	0.161930	0.423000
O781	O78	0.965700	0.185710	0.488900
O791	O79	0.315600	0.595250	0.429600
O801	O80	0.368400	0.294170	0.739700
O811	O81	0.869400	0.336540	0.676400
O821	O82	0.947200	0.424600	0.636000
O831	O83	0.950000	0.304300	0.634500
C1451	C145	0.346900	0.436000	0.721000
C1461	C146	0.827200	0.242500	0.516200
H731	H73	0.880700	0.237200	0.527100
C1471	C147	0.301500	0.300300	0.733300
C1481	C148	0.352300	0.469900	0.654600
C1491	C149	0.813900	0.277600	0.562500
C1501	C150	0.235200	0.243500	0.602300
H741	H74	0.283800	0.243400	0.599100
C1511	C151	0.373100	0.567500	0.475000
C1521	C152	0.158000	0.271900	0.668000
H751	H75	0.152900	0.291600	0.710000
C1531	C153	0.027800	0.186500	0.481300
C1541	C154	0.098800	0.216500	0.545000
O841	O84	0.073400	0.410200	0.677200
C1551	C155	0.169900	0.216500	0.542500
H761	H76	0.174300	0.197600	0.499000
C1561	C156	0.294600	0.503800	0.611500
H771	H77	0.250000	0.506000	0.622000
C1571	C157	0.735000	0.285000	0.545600
H781	H78	0.724500	0.309100	0.576900
C1581	C158	0.420400	0.497700	0.576200
H791	H79	0.463900	0.495000	0.563900
C1591	C159	0.414600	0.466000	0.636300
H801	H80	0.453900	0.441900	0.664200
C1601	C160	0.230100	0.270800	0.666700
C1611	C161	0.363500	0.532500	0.535300
C1621	C162	0.881900	0.308100	0.629100
C1631	C163	0.093300	0.244400	0.608400
H811	H81	0.044500	0.244700	0.610900
C1641	C164	0.300600	0.534900	0.553000
H821	H82	0.260400	0.558600	0.524400
C1651	C165	0.005200	0.467200	0.562800
C1661	C166	0.933900	0.492900	0.511300
H831	H83	0.888500	0.488000	0.519400
C1671	C167	0.070400	0.475200	0.550300
H841	H84	0.119300	0.458000	0.585400
C1681	C168	0.009600	0.431400	0.630400
Cd81	Cd8	0.900330	0.869480	0.872250
Na81	Na8	0.702350	0.891360	0.781820
O851	O85	0.938400	0.068740	0.474000
O861	O86	0.905900	0.908170	0.762300
O871	O87	0.788300	0.937400	0.732000
O881	O88	0.787900	0.828810	0.780400
O891	O89	0.534000	0.661930	0.423000
O901	O90	0.465700	0.685710	0.488900
O911	O91	0.815600	0.095250	0.429600
O921	O92	0.868400	0.794170	0.739700
O931	O93	0.369400	0.836540	0.676400
O941	O94	0.447200	0.924600	0.636000
O951	O95	0.450000	0.804300	0.634500
C1691	C169	0.846900	0.936000	0.721000
C1701	C170	0.327200	0.742500	0.516200
H851	H85	0.380700	0.737200	0.527100
C1711	C171	0.801500	0.800300	0.733300
C1721	C172	0.852300	0.969900	0.654600
C1731	C173	0.313900	0.777600	0.562500
C1741	C174	0.735200	0.743500	0.602300
H861	H86	0.783800	0.743400	0.599100
C1751	C175	0.873100	0.067500	0.475000
C1761	C176	0.658000	0.771900	0.668000
H871	H87	0.652900	0.791600	0.710000
C1771	C177	0.527800	0.686500	0.481300
C1781	C178	0.598800	0.716500	0.545000
O961	O96	0.573400	0.910200	0.677200
C1791	C179	0.669900	0.716500	0.542500
H881	H88	0.674300	0.697600	0.499000
C1801	C180	0.794600	0.003800	0.611500
H891	H89	0.750000	0.006000	0.622000
C1811	C181	0.235000	0.785000	0.545600
H901	H90	0.224500	0.809100	0.576900
C1821	C182	0.920400	0.997700	0.576200
H911	H91	0.963900	0.995000	0.563900
C1831	C183	0.914600	0.966000	0.636300
H921	H92	0.953900	0.941900	0.664200
C1841	C184	0.730100	0.770800	0.666700
C1851	C185	0.863500	0.032500	0.535300
C1861	C186	0.381900	0.808100	0.629100
C1871	C187	0.593300	0.744400	0.608400
H931	H93	0.544500	0.744700	0.610900
C1881	C188	0.800600	0.034900	0.553000
H941	H94	0.760400	0.058600	0.524400
C1891	C189	0.505200	0.967200	0.562800
C1901	C190	0.433900	0.992900	0.511300
H951	H95	0.388500	0.988000	0.519400
C1911	C191	0.570400	0.975200	0.550300
H961	H96	0.619300	0.958000	0.585400
C1921	C192	0.509600	0.931400	0.630400
Cd91	Cd9	0.000000	0.632470	0.250000
Cd101	Cd10	0.500000	0.132470	0.250000
Cd111	Cd11	0.000000	0.367530	0.750000
Cd121	Cd12	0.500000	0.867530	0.750000
K11	K1	0.500000	0.663010	0.250000
K21	K2	0.000000	0.163010	0.250000
K31	K3	0.500000	0.336990	0.750000
K41	K4	0.000000	0.836990	0.750000
