data_IYAZAL_freeONLY_PM
_symmetry_space_group_name_H-M	'P1'
_cell_length_a	14.014700
_cell_length_b	18.315200
_cell_length_c	7.863000
_cell_angle_alpha	90.000000
_cell_angle_beta	105.464000
_cell_angle_gamma	90.000000
_symmetry_Int_Tables_number 1

loop_
_symmetry_equiv_pos_as_xyz
'x,y,z'

loop_
_atom_site_label
_atom_site_type_symbol
_atom_site_fract_x
_atom_site_fract_y
_atom_site_fract_z
Cd11	Cd1	0.818110	0.441080	0.227930
C11	C1	0.863200	0.687500	0.222300
C21	C2	0.932700	0.739200	0.211700
H11	H1	0.992600	0.725200	0.192100
C31	C3	0.912300	0.813100	0.230600
C41	C4	0.822200	0.834000	0.251400
H21	H2	0.808400	0.883400	0.258400
C51	C5	0.750400	0.782100	0.262100
C61	C6	0.773700	0.708400	0.249500
H31	H3	0.728200	0.672800	0.259500
C71	C7	0.885300	0.607100	0.196400
C81	C8	0.991600	0.868500	0.235400
C91	C9	0.650900	0.805200	0.278500
C101	C10	0.639000	0.869700	0.366800
H41	H4	0.694400	0.897300	0.421100
C111	C11	0.547300	0.892600	0.374800
H51	H5	0.541300	0.935700	0.433800
C121	C12	0.462800	0.852300	0.295500
C131	C13	0.476400	0.786600	0.211500
H61	H6	0.421800	0.757300	0.162900
C141	C14	0.566900	0.765000	0.199300
H71	H7	0.572600	0.722800	0.137200
C151	C15	0.362600	0.879100	0.298400
O11	O1	0.826800	0.561900	0.229000
O21	O2	0.860200	0.455800	0.526600
H81	H8	0.916000	0.480300	0.579500
H91	H9	0.821900	0.437400	0.591500
O31	O3	0.958400	0.593800	0.141100
O41	O4	0.077200	0.844900	0.237200
O51	O5	0.973800	0.935200	0.243200
O61	O6	0.352200	0.939900	0.353200
O71	O7	0.290400	0.841600	0.235200
Cd21	Cd2	0.181890	0.941080	0.272070
C161	C16	0.136800	0.187500	0.277700
C171	C17	0.067300	0.239200	0.288300
H101	H10	0.007400	0.225200	0.307900
C181	C18	0.087700	0.313100	0.269400
C191	C19	0.177800	0.334000	0.248600
H111	H11	0.191600	0.383400	0.241600
C201	C20	0.249600	0.282100	0.237900
C211	C21	0.226300	0.208400	0.250500
H121	H12	0.271800	0.172800	0.240500
C221	C22	0.114700	0.107100	0.303600
C231	C23	0.008400	0.368500	0.264600
C241	C24	0.349100	0.305200	0.221500
C251	C25	0.361000	0.369700	0.133200
H131	H13	0.305600	0.397300	0.078900
C261	C26	0.452700	0.392600	0.125200
H141	H14	0.458700	0.435700	0.066200
C271	C27	0.537200	0.352300	0.204500
C281	C28	0.523600	0.286600	0.288500
H151	H15	0.578200	0.257300	0.337100
C291	C29	0.433100	0.265000	0.300700
H161	H16	0.427400	0.222800	0.362800
C301	C30	0.637400	0.379100	0.201600
O81	O8	0.173200	0.061900	0.271000
O91	O9	0.139800	0.955800	0.973400
H171	H17	0.084000	0.980300	0.920500
H181	H18	0.178100	0.937400	0.908500
O101	O10	0.041600	0.093800	0.358900
O111	O11	0.922800	0.344900	0.262800
O121	O12	0.026200	0.435200	0.256800
O131	O13	0.647800	0.439900	0.146800
O141	O14	0.709600	0.341600	0.264800
Cd31	Cd3	0.181890	0.558920	0.772070
C311	C31	0.136800	0.312500	0.777700
C321	C32	0.067300	0.260800	0.788300
H191	H19	0.007400	0.274800	0.807900
C331	C33	0.087700	0.186900	0.769400
C341	C34	0.177800	0.166000	0.748600
H201	H20	0.191600	0.116600	0.741600
C351	C35	0.249600	0.217900	0.737900
C361	C36	0.226300	0.291600	0.750500
H211	H21	0.271800	0.327200	0.740500
C371	C37	0.114700	0.392900	0.803600
C381	C38	0.008400	0.131500	0.764600
C391	C39	0.349100	0.194800	0.721500
C401	C40	0.361000	0.130300	0.633200
H221	H22	0.305600	0.102700	0.578900
C411	C41	0.452700	0.107400	0.625200
H231	H23	0.458700	0.064300	0.566200
C421	C42	0.537200	0.147700	0.704500
C431	C43	0.523600	0.213400	0.788500
H241	H24	0.578200	0.242700	0.837100
C441	C44	0.433100	0.235000	0.800700
H251	H25	0.427400	0.277200	0.862800
C451	C45	0.637400	0.120900	0.701600
O151	O15	0.173200	0.438100	0.771000
O161	O16	0.139800	0.544200	0.473400
H261	H26	0.084000	0.519700	0.420500
H271	H27	0.178100	0.562600	0.408500
O171	O17	0.041600	0.406200	0.858900
O181	O18	0.922800	0.155100	0.762800
O191	O19	0.026200	0.064800	0.756800
O201	O20	0.647800	0.060100	0.646800
O211	O21	0.709600	0.158400	0.764800
Cd41	Cd4	0.818110	0.058920	0.727930
C461	C46	0.863200	0.812500	0.722300
C471	C47	0.932700	0.760800	0.711700
H281	H28	0.992600	0.774800	0.692100
C481	C48	0.912300	0.686900	0.730600
C491	C49	0.822200	0.666000	0.751400
H291	H29	0.808400	0.616600	0.758400
C501	C50	0.750400	0.717900	0.762100
C511	C51	0.773700	0.791600	0.749500
H301	H30	0.728200	0.827200	0.759500
C521	C52	0.885300	0.892900	0.696400
C531	C53	0.991600	0.631500	0.735400
C541	C54	0.650900	0.694800	0.778500
C551	C55	0.639000	0.630300	0.866800
H311	H31	0.694400	0.602700	0.921100
C561	C56	0.547300	0.607400	0.874800
H321	H32	0.541300	0.564300	0.933800
C571	C57	0.462800	0.647700	0.795500
C581	C58	0.476400	0.713400	0.711500
H331	H33	0.421800	0.742700	0.662900
C591	C59	0.566900	0.735000	0.699300
H341	H34	0.572600	0.777200	0.637200
C601	C60	0.362600	0.620900	0.798400
O221	O22	0.826800	0.938100	0.729000
O231	O23	0.860200	0.044200	0.026600
H351	H35	0.916000	0.019700	0.079500
H361	H36	0.821900	0.062600	0.091500
O241	O24	0.958400	0.906200	0.641100
O251	O25	0.077200	0.655100	0.737200
O261	O26	0.973800	0.564800	0.743200
O271	O27	0.352200	0.560100	0.853200
O281	O28	0.290400	0.658400	0.735200
Cd51	Cd5	0.000000	0.500000	0.000000
Cd61	Cd6	0.000000	0.000000	0.500000
