data_IYIGEC_freeONLY_PM
_symmetry_space_group_name_H-M	'P1'
_cell_length_a	6.733790
_cell_length_b	16.690300
_cell_length_c	16.690300
_cell_angle_alpha	87.667800
_cell_angle_beta	78.362200
_cell_angle_gamma	78.362000
_symmetry_Int_Tables_number 1

loop_
_symmetry_equiv_pos_as_xyz
'x,y,z'

loop_
_atom_site_label
_atom_site_type_symbol
_atom_site_fract_x
_atom_site_fract_y
_atom_site_fract_z
Ag11	Ag1	0.916320	0.890960	0.382560
Ag21	Ag2	0.189840	0.609040	0.117440
Ag31	Ag3	0.298880	0.117440	0.890960
Ag41	Ag4	0.307280	0.382560	0.609040
Ag51	Ag5	0.083680	0.109040	0.617440
Ag61	Ag6	0.810160	0.390960	0.882560
Ag71	Ag7	0.701120	0.882560	0.109040
Ag81	Ag8	0.692720	0.617440	0.390960
H11	H1	0.869600	0.762300	0.600900
H21	H2	0.664300	0.824900	0.622300
H31	H3	0.809200	0.891600	0.625400
H41	H4	0.009100	0.832700	0.585700
H51	H5	0.653000	0.999100	0.539700
H61	H6	0.803300	0.016400	0.594800
H71	H7	0.152500	0.946100	0.573100
H81	H8	0.236800	0.880700	0.503100
H91	H9	0.236800	0.721500	0.390300
H101	H10	0.369600	0.789100	0.387700
H111	H11	0.042000	0.714000	0.290000
H121	H12	0.232800	0.737700	0.899100
H131	H13	0.111500	0.675100	0.877700
H141	H14	0.326200	0.608400	0.874600
H151	H15	0.427500	0.667300	0.914300
H161	H16	0.191800	0.500900	0.960300
H171	H17	0.414500	0.483600	0.905200
H181	H18	0.671700	0.553900	0.926900
H191	H19	0.620600	0.619300	0.996900
H201	H20	0.348600	0.778500	0.109700
H211	H21	0.546400	0.710900	0.112300
H221	H22	0.046000	0.786000	0.210000
H231	H23	0.470500	0.899100	0.762300
H241	H24	0.286600	0.877700	0.824900
H251	H25	0.434600	0.874600	0.891600
H261	H26	0.594800	0.914300	0.832700
H271	H27	0.192700	0.960300	0.999100
H281	H28	0.398100	0.905200	0.016400
H291	H29	0.725600	0.926900	0.946100
H301	H30	0.739900	0.996900	0.880700
H311	H31	0.627100	0.109700	0.721500
H321	H32	0.757300	0.112300	0.789100
H331	H33	0.332000	0.210000	0.714000
H341	H34	0.131900	0.600900	0.737700
H351	H35	0.989200	0.622300	0.675100
H361	H36	0.200800	0.625400	0.608400
H371	H37	0.341800	0.585700	0.667300
H381	H38	0.152100	0.539700	0.500900
H391	H39	0.319700	0.594800	0.483600
H401	H40	0.598600	0.573100	0.553900
H411	H41	0.617500	0.503100	0.619300
H421	H42	0.458300	0.390300	0.778500
H431	H43	0.658700	0.387700	0.710900
H441	H44	0.256000	0.290000	0.786000
H451	H45	0.130400	0.237700	0.399100
H461	H46	0.335700	0.175100	0.377700
H471	H47	0.190800	0.108400	0.374600
H481	H48	0.990900	0.167300	0.414300
H491	H49	0.347000	0.000900	0.460300
H501	H50	0.196700	0.983600	0.405200
H511	H51	0.847500	0.053900	0.426900
H521	H52	0.763200	0.119300	0.496900
H531	H53	0.763200	0.278500	0.609700
H541	H54	0.630400	0.210900	0.612300
H551	H55	0.958000	0.286000	0.710000
H561	H56	0.767200	0.262300	0.100900
H571	H57	0.888500	0.324900	0.122300
H581	H58	0.673800	0.391600	0.125400
H591	H59	0.572500	0.332700	0.085700
H601	H60	0.808200	0.499100	0.039700
H611	H61	0.585500	0.516400	0.094800
H621	H62	0.328300	0.446100	0.073100
H631	H63	0.379400	0.380700	0.003100
H641	H64	0.651400	0.221500	0.890300
H651	H65	0.453600	0.289100	0.887700
H661	H66	0.954000	0.214000	0.790000
H671	H67	0.529500	0.100900	0.237700
H681	H68	0.713400	0.122300	0.175100
H691	H69	0.565400	0.125400	0.108400
H701	H70	0.405200	0.085700	0.167300
H711	H71	0.807300	0.039700	0.000900
H721	H72	0.601900	0.094800	0.983600
H731	H73	0.274400	0.073100	0.053900
H741	H74	0.260100	0.003100	0.119300
H751	H75	0.372900	0.890300	0.278500
H761	H76	0.242700	0.887700	0.210900
H771	H77	0.668000	0.790000	0.286000
H781	H78	0.868100	0.399100	0.262300
H791	H79	0.010800	0.377700	0.324900
H801	H80	0.799200	0.374600	0.391600
H811	H81	0.658200	0.414300	0.332700
H821	H82	0.847900	0.460300	0.499100
H831	H83	0.680300	0.405200	0.516400
H841	H84	0.401400	0.426900	0.446100
H851	H85	0.382500	0.496900	0.380700
H861	H86	0.541700	0.609700	0.221500
H871	H87	0.341300	0.612300	0.289100
H881	H88	0.744000	0.710000	0.214000
C11	C1	0.783500	0.808200	0.578800
C21	C2	0.875700	0.860800	0.575800
C31	C3	0.795100	0.002400	0.539800
C41	C4	0.142600	0.932500	0.518300
C51	C5	0.321400	0.753900	0.354100
C61	C6	0.170500	0.691800	0.921200
C71	C7	0.312300	0.639200	0.924200
C81	C8	0.337300	0.497600	0.960200
C91	C9	0.593400	0.567500	0.981700
C101	C10	0.429400	0.746100	0.145900
C111	C11	0.362300	0.921200	0.808200
C121	C12	0.451500	0.924200	0.860800
C131	C13	0.334900	0.960200	0.002400
C141	C14	0.660900	0.981700	0.932500
C151	C15	0.675500	0.145900	0.753900
C161	C16	0.091700	0.578800	0.691800
C171	C17	0.236500	0.575800	0.639200
C181	C18	0.297500	0.539800	0.497600
C191	C19	0.575100	0.518300	0.567500
C201	C20	0.575300	0.354100	0.746100
C211	C21	0.216500	0.191800	0.421200
C221	C22	0.124300	0.139200	0.424200
C231	C23	0.204900	0.997600	0.460200
C241	C24	0.857400	0.067500	0.481700
C251	C25	0.678600	0.246100	0.645900
C261	C26	0.829500	0.308200	0.078800
C271	C27	0.687700	0.360800	0.075800
C281	C28	0.662700	0.502400	0.039800
C291	C29	0.406600	0.432500	0.018300
C301	C30	0.570600	0.253900	0.854100
C311	C31	0.637700	0.078800	0.191800
C321	C32	0.548500	0.075800	0.139200
C331	C33	0.665100	0.039800	0.997600
C341	C34	0.339100	0.018300	0.067500
C351	C35	0.324500	0.854100	0.246100
C361	C36	0.908300	0.421200	0.308200
C371	C37	0.763500	0.424200	0.360800
C381	C38	0.702500	0.460200	0.502400
C391	C39	0.424900	0.481700	0.432500
C401	C40	0.424700	0.645900	0.253900
C411	C41	0.122400	0.750000	0.250000
C421	C42	0.372400	0.250000	0.750000
C431	C43	0.877600	0.250000	0.750000
C441	C44	0.627600	0.750000	0.250000
S11	S1	0.683690	0.762720	0.506100
S21	S2	0.952510	0.737280	0.993900
S31	S3	0.189790	0.993900	0.762720
S41	S4	0.946410	0.506100	0.737280
S51	S5	0.316310	0.237280	0.493900
S61	S6	0.047490	0.262720	0.006100
S71	S7	0.810210	0.006100	0.237280
S81	S8	0.053590	0.493900	0.262720
N11	N1	0.928000	0.924300	0.517100
N21	N2	0.193500	0.805400	0.301000
N31	N3	0.369400	0.575700	0.982900
N41	N4	0.299900	0.694600	0.199000
N51	N5	0.445100	0.982900	0.924300
N61	N6	0.494500	0.199000	0.805400
N71	N7	0.352300	0.517100	0.575700
N81	N8	0.498900	0.301000	0.694600
N91	N9	0.072000	0.075700	0.482900
N101	N10	0.806500	0.194600	0.699000
N111	N11	0.630600	0.424300	0.017100
N121	N12	0.700100	0.305400	0.801000
N131	N13	0.554900	0.017100	0.075700
N141	N14	0.505500	0.801000	0.194600
N151	N15	0.647700	0.482900	0.424300
N161	N16	0.501100	0.699000	0.305400
O11	O1	0.647100	0.822700	0.441100
O21	O2	0.492600	0.742000	0.545000
O31	O3	0.840400	0.691800	0.479000
O41	O4	0.910900	0.677300	0.058900
O51	O5	0.779600	0.758000	0.955000
O61	O6	0.011200	0.808200	0.021000
O71	O7	0.088200	0.058900	0.822700
O81	O8	0.037600	0.955000	0.742000
O91	O9	0.319400	0.021000	0.691800
O101	O10	0.969800	0.441100	0.677300
O111	O11	0.734600	0.545000	0.758000
O121	O12	0.032200	0.479000	0.808200
O131	O13	0.352900	0.177300	0.558900
O141	O14	0.507400	0.258000	0.455000
O151	O15	0.159600	0.308200	0.521000
O161	O16	0.089100	0.322700	0.941100
O171	O17	0.220400	0.242000	0.045000
O181	O18	0.988800	0.191800	0.979000
O191	O19	0.911800	0.941100	0.177300
O201	O20	0.962400	0.045000	0.258000
O211	O21	0.680600	0.979000	0.308200
O221	O22	0.030200	0.558900	0.322700
O231	O23	0.265400	0.455000	0.242000
O241	O24	0.967800	0.521000	0.191800
