data_IYOCIK_freeONLY_PM
_symmetry_space_group_name_H-M	'P1'
_cell_length_a	34.895000
_cell_length_b	14.655300
_cell_length_c	31.393000
_cell_angle_alpha	90.000000
_cell_angle_beta	101.491000
_cell_angle_gamma	90.000000
_symmetry_Int_Tables_number 1

loop_
_symmetry_equiv_pos_as_xyz
'x,y,z'

loop_
_atom_site_label
_atom_site_type_symbol
_atom_site_fract_x
_atom_site_fract_y
_atom_site_fract_z
C11	C1	0.241800	0.590000	0.302600
C21	C2	0.194100	0.579900	0.243700
C31	C3	0.205300	0.713300	0.279100
C41	C4	0.196800	0.812300	0.280000
C51	C5	0.162300	0.846300	0.254600
H11	H1	0.143900	0.806800	0.238900
C61	C6	0.155900	0.938400	0.253000
H21	H2	0.133000	0.960200	0.235600
C71	C7	0.214100	0.966600	0.300200
H31	H3	0.232000	0.007900	0.315400
C81	C8	0.222200	0.874400	0.303600
H41	H4	0.244900	0.854100	0.321900
C91	C9	0.273500	0.546100	0.334500
C101	C10	0.284500	0.456500	0.327600
H51	H5	0.272500	0.424600	0.303000
C111	C11	0.313300	0.416700	0.357800
H61	H6	0.320500	0.356900	0.353200
C121	C12	0.321100	0.545600	0.400200
H71	H7	0.333700	0.575700	0.425100
C131	C13	0.292400	0.591100	0.371300
H81	H8	0.286000	0.651100	0.376600
C141	C14	0.171100	0.528600	0.206800
C151	C15	0.142600	0.573600	0.176100
H91	H9	0.138500	0.636000	0.178200
C161	C16	0.121200	0.524100	0.143400
H101	H10	0.102300	0.554600	0.123400
C171	C17	0.152600	0.391900	0.166000
H111	H11	0.156500	0.329900	0.162100
C181	C18	0.175500	0.435900	0.201100
H121	H12	0.193800	0.403100	0.220800
C191	C19	0.517900	0.663400	0.444300
C201	C20	0.552100	0.791100	0.466500
C211	C21	0.567900	0.705700	0.412900
C221	C22	0.484200	0.602700	0.444900
C231	C23	0.469400	0.591100	0.482000
H131	H13	0.480700	0.620000	0.507900
C241	C24	0.436700	0.533800	0.479300
H141	H14	0.426300	0.525800	0.504100
C251	C25	0.434000	0.505600	0.407500
H151	H15	0.421700	0.477900	0.381700
C261	C26	0.465800	0.559600	0.407000
H161	H16	0.475100	0.567500	0.381500
C271	C27	0.592300	0.687600	0.380400
C281	C28	0.612300	0.757800	0.364300
H171	H17	0.611200	0.817100	0.374500
C291	C29	0.633200	0.738800	0.334000
H181	H18	0.646300	0.786400	0.323500
C301	C30	0.617900	0.587500	0.333800
H191	H19	0.620300	0.528600	0.323700
C311	C31	0.595700	0.601100	0.364400
H201	H20	0.583000	0.552200	0.374400
C321	C32	0.557700	0.874400	0.493300
C331	C33	0.531900	0.896000	0.520400
H211	H21	0.510100	0.859600	0.520800
C341	C34	0.539100	0.972500	0.546900
H221	H22	0.521900	0.986400	0.565100
C351	C35	0.593600	0.007200	0.519900
H231	H23	0.614400	0.046400	0.519000
C361	C36	0.588800	0.932000	0.493100
H241	H24	0.606400	0.920400	0.475000
I11	I1	0.120220	0.151730	0.195730
I21	I2	0.227370	0.235550	0.290220
I31	I3	0.026280	0.347480	0.129880
I41	I4	0.119510	0.250630	0.055670
I51	I5	0.351900	0.404350	0.511260
I61	I6	0.398500	0.261300	0.402930
N11	N1	0.223100	0.539500	0.269800
N21	N2	0.183400	0.667300	0.246900
N31	N3	0.233900	0.678900	0.308700
N41	N4	0.331500	0.459300	0.393500
N51	N5	0.125300	0.434900	0.137900
N61	N6	0.180700	0.998200	0.275100
N71	N7	0.539700	0.644500	0.414900
N81	N8	0.574200	0.781800	0.436800
N91	N9	0.523900	0.733200	0.472200
N101	N10	0.419700	0.490700	0.443400
N111	N11	0.636300	0.654600	0.317900
N121	N12	0.569900	0.026700	0.547300
Zn11	Zn1	0.166840	0.136350	0.268450
Zn21	Zn2	0.083790	0.367520	0.092000
Zn31	Zn3	0.374560	0.399600	0.439740
C371	C37	0.741800	0.090000	0.302600
C381	C38	0.694100	0.079900	0.243700
C391	C39	0.705300	0.213300	0.279100
C401	C40	0.696800	0.312300	0.280000
C411	C41	0.662300	0.346300	0.254600
H251	H25	0.643900	0.306800	0.238900
C421	C42	0.655900	0.438400	0.253000
H261	H26	0.633000	0.460200	0.235600
C431	C43	0.714100	0.466600	0.300200
H271	H27	0.732000	0.507900	0.315400
C441	C44	0.722200	0.374400	0.303600
H281	H28	0.744900	0.354100	0.321900
C451	C45	0.773500	0.046100	0.334500
C461	C46	0.784500	0.956500	0.327600
H291	H29	0.772500	0.924600	0.303000
C471	C47	0.813300	0.916700	0.357800
H301	H30	0.820500	0.856900	0.353200
C481	C48	0.821100	0.045600	0.400200
H311	H31	0.833700	0.075700	0.425100
C491	C49	0.792400	0.091100	0.371300
H321	H32	0.786000	0.151100	0.376600
C501	C50	0.671100	0.028600	0.206800
C511	C51	0.642600	0.073600	0.176100
H331	H33	0.638500	0.136000	0.178200
C521	C52	0.621200	0.024100	0.143400
H341	H34	0.602300	0.054600	0.123400
C531	C53	0.652600	0.891900	0.166000
H351	H35	0.656500	0.829900	0.162100
C541	C54	0.675500	0.935900	0.201100
H361	H36	0.693800	0.903100	0.220800
C551	C55	0.017900	0.163400	0.444300
C561	C56	0.052100	0.291100	0.466500
C571	C57	0.067900	0.205700	0.412900
C581	C58	0.984200	0.102700	0.444900
C591	C59	0.969400	0.091100	0.482000
H371	H37	0.980700	0.120000	0.507900
C601	C60	0.936700	0.033800	0.479300
H381	H38	0.926300	0.025800	0.504100
C611	C61	0.934000	0.005600	0.407500
H391	H39	0.921700	0.977900	0.381700
C621	C62	0.965800	0.059600	0.407000
H401	H40	0.975100	0.067500	0.381500
C631	C63	0.092300	0.187600	0.380400
C641	C64	0.112300	0.257800	0.364300
H411	H41	0.111200	0.317100	0.374500
C651	C65	0.133200	0.238800	0.334000
H421	H42	0.146300	0.286400	0.323500
C661	C66	0.117900	0.087500	0.333800
H431	H43	0.120300	0.028600	0.323700
C671	C67	0.095700	0.101100	0.364400
H441	H44	0.083000	0.052200	0.374400
C681	C68	0.057700	0.374400	0.493300
C691	C69	0.031900	0.396000	0.520400
H451	H45	0.010100	0.359600	0.520800
C701	C70	0.039100	0.472500	0.546900
H461	H46	0.021900	0.486400	0.565100
C711	C71	0.093600	0.507200	0.519900
H471	H47	0.114400	0.546400	0.519000
C721	C72	0.088800	0.432000	0.493100
H481	H48	0.106400	0.420400	0.475000
I71	I7	0.620220	0.651730	0.195730
I81	I8	0.727370	0.735550	0.290220
I91	I9	0.526280	0.847480	0.129880
I101	I10	0.619510	0.750630	0.055670
I111	I11	0.851900	0.904350	0.511260
I121	I12	0.898500	0.761300	0.402930
N131	N13	0.723100	0.039500	0.269800
N141	N14	0.683400	0.167300	0.246900
N151	N15	0.733900	0.178900	0.308700
N161	N16	0.831500	0.959300	0.393500
N171	N17	0.625300	0.934900	0.137900
N181	N18	0.680700	0.498200	0.275100
N191	N19	0.039700	0.144500	0.414900
N201	N20	0.074200	0.281800	0.436800
N211	N21	0.023900	0.233200	0.472200
N221	N22	0.919700	0.990700	0.443400
N231	N23	0.136300	0.154600	0.317900
N241	N24	0.069900	0.526700	0.547300
Zn41	Zn4	0.666840	0.636350	0.268450
Zn51	Zn5	0.583790	0.867520	0.092000
Zn61	Zn6	0.874560	0.899600	0.439740
C731	C73	0.241800	0.410000	0.802600
C741	C74	0.194100	0.420100	0.743700
C751	C75	0.205300	0.286700	0.779100
C761	C76	0.196800	0.187700	0.780000
C771	C77	0.162300	0.153700	0.754600
H491	H49	0.143900	0.193200	0.738900
C781	C78	0.155900	0.061600	0.753000
H501	H50	0.133000	0.039800	0.735600
C791	C79	0.214100	0.033400	0.800200
H511	H51	0.232000	0.992100	0.815400
C801	C80	0.222200	0.125600	0.803600
H521	H52	0.244900	0.145900	0.821900
C811	C81	0.273500	0.453900	0.834500
C821	C82	0.284500	0.543500	0.827600
H531	H53	0.272500	0.575400	0.803000
C831	C83	0.313300	0.583300	0.857800
H541	H54	0.320500	0.643100	0.853200
C841	C84	0.321100	0.454400	0.900200
H551	H55	0.333700	0.424300	0.925100
C851	C85	0.292400	0.408900	0.871300
H561	H56	0.286000	0.348900	0.876600
C861	C86	0.171100	0.471400	0.706800
C871	C87	0.142600	0.426400	0.676100
H571	H57	0.138500	0.364000	0.678200
C881	C88	0.121200	0.475900	0.643400
H581	H58	0.102300	0.445400	0.623400
C891	C89	0.152600	0.608100	0.666000
H591	H59	0.156500	0.670100	0.662100
C901	C90	0.175500	0.564100	0.701100
H601	H60	0.193800	0.596900	0.720800
C911	C91	0.517900	0.336600	0.944300
C921	C92	0.552100	0.208900	0.966500
C931	C93	0.567900	0.294300	0.912900
C941	C94	0.484200	0.397300	0.944900
C951	C95	0.469400	0.408900	0.982000
H611	H61	0.480700	0.380000	0.007900
C961	C96	0.436700	0.466200	0.979300
H621	H62	0.426300	0.474200	0.004100
C971	C97	0.434000	0.494400	0.907500
H631	H63	0.421700	0.522100	0.881700
C981	C98	0.465800	0.440400	0.907000
H641	H64	0.475100	0.432500	0.881500
C991	C99	0.592300	0.312400	0.880400
C1001	C100	0.612300	0.242200	0.864300
H651	H65	0.611200	0.182900	0.874500
C1011	C101	0.633200	0.261200	0.834000
H661	H66	0.646300	0.213600	0.823500
C1021	C102	0.617900	0.412500	0.833800
H671	H67	0.620300	0.471400	0.823700
C1031	C103	0.595700	0.398900	0.864400
H681	H68	0.583000	0.447800	0.874400
C1041	C104	0.557700	0.125600	0.993300
C1051	C105	0.531900	0.104000	0.020400
H691	H69	0.510100	0.140400	0.020800
C1061	C106	0.539100	0.027500	0.046900
H701	H70	0.521900	0.013600	0.065100
C1071	C107	0.593600	0.992800	0.019900
H711	H71	0.614400	0.953600	0.019000
C1081	C108	0.588800	0.068000	0.993100
H721	H72	0.606400	0.079600	0.975000
I131	I13	0.120220	0.848270	0.695730
I141	I14	0.227370	0.764450	0.790220
I151	I15	0.026280	0.652520	0.629880
I161	I16	0.119510	0.749370	0.555670
I171	I17	0.351900	0.595650	0.011260
I181	I18	0.398500	0.738700	0.902930
N251	N25	0.223100	0.460500	0.769800
N261	N26	0.183400	0.332700	0.746900
N271	N27	0.233900	0.321100	0.808700
N281	N28	0.331500	0.540700	0.893500
N291	N29	0.125300	0.565100	0.637900
N301	N30	0.180700	0.001800	0.775100
N311	N31	0.539700	0.355500	0.914900
N321	N32	0.574200	0.218200	0.936800
N331	N33	0.523900	0.266800	0.972200
N341	N34	0.419700	0.509300	0.943400
N351	N35	0.636300	0.345400	0.817900
N361	N36	0.569900	0.973300	0.047300
Zn71	Zn7	0.166840	0.863650	0.768450
Zn81	Zn8	0.083790	0.632480	0.592000
Zn91	Zn9	0.374560	0.600400	0.939740
C1091	C109	0.741800	0.910000	0.802600
C1101	C110	0.694100	0.920100	0.743700
C1111	C111	0.705300	0.786700	0.779100
C1121	C112	0.696800	0.687700	0.780000
C1131	C113	0.662300	0.653700	0.754600
H731	H73	0.643900	0.693200	0.738900
C1141	C114	0.655900	0.561600	0.753000
H741	H74	0.633000	0.539800	0.735600
C1151	C115	0.714100	0.533400	0.800200
H751	H75	0.732000	0.492100	0.815400
C1161	C116	0.722200	0.625600	0.803600
H761	H76	0.744900	0.645900	0.821900
C1171	C117	0.773500	0.953900	0.834500
C1181	C118	0.784500	0.043500	0.827600
H771	H77	0.772500	0.075400	0.803000
C1191	C119	0.813300	0.083300	0.857800
H781	H78	0.820500	0.143100	0.853200
C1201	C120	0.821100	0.954400	0.900200
H791	H79	0.833700	0.924300	0.925100
C1211	C121	0.792400	0.908900	0.871300
H801	H80	0.786000	0.848900	0.876600
C1221	C122	0.671100	0.971400	0.706800
C1231	C123	0.642600	0.926400	0.676100
H811	H81	0.638500	0.864000	0.678200
C1241	C124	0.621200	0.975900	0.643400
H821	H82	0.602300	0.945400	0.623400
C1251	C125	0.652600	0.108100	0.666000
H831	H83	0.656500	0.170100	0.662100
C1261	C126	0.675500	0.064100	0.701100
H841	H84	0.693800	0.096900	0.720800
C1271	C127	0.017900	0.836600	0.944300
C1281	C128	0.052100	0.708900	0.966500
C1291	C129	0.067900	0.794300	0.912900
C1301	C130	0.984200	0.897300	0.944900
C1311	C131	0.969400	0.908900	0.982000
H851	H85	0.980700	0.880000	0.007900
C1321	C132	0.936700	0.966200	0.979300
H861	H86	0.926300	0.974200	0.004100
C1331	C133	0.934000	0.994400	0.907500
H871	H87	0.921700	0.022100	0.881700
C1341	C134	0.965800	0.940400	0.907000
H881	H88	0.975100	0.932500	0.881500
C1351	C135	0.092300	0.812400	0.880400
C1361	C136	0.112300	0.742200	0.864300
H891	H89	0.111200	0.682900	0.874500
C1371	C137	0.133200	0.761200	0.834000
H901	H90	0.146300	0.713600	0.823500
C1381	C138	0.117900	0.912500	0.833800
H911	H91	0.120300	0.971400	0.823700
C1391	C139	0.095700	0.898900	0.864400
H921	H92	0.083000	0.947800	0.874400
C1401	C140	0.057700	0.625600	0.993300
C1411	C141	0.031900	0.604000	0.020400
H931	H93	0.010100	0.640400	0.020800
C1421	C142	0.039100	0.527500	0.046900
H941	H94	0.021900	0.513600	0.065100
C1431	C143	0.093600	0.492800	0.019900
H951	H95	0.114400	0.453600	0.019000
C1441	C144	0.088800	0.568000	0.993100
H961	H96	0.106400	0.579600	0.975000
I191	I19	0.620220	0.348270	0.695730
I201	I20	0.727370	0.264450	0.790220
I211	I21	0.526280	0.152520	0.629880
I221	I22	0.619510	0.249370	0.555670
I231	I23	0.851900	0.095650	0.011260
I241	I24	0.898500	0.238700	0.902930
N371	N37	0.723100	0.960500	0.769800
N381	N38	0.683400	0.832700	0.746900
N391	N39	0.733900	0.821100	0.808700
N401	N40	0.831500	0.040700	0.893500
N411	N41	0.625300	0.065100	0.637900
N421	N42	0.680700	0.501800	0.775100
N431	N43	0.039700	0.855500	0.914900
N441	N44	0.074200	0.718200	0.936800
N451	N45	0.023900	0.766800	0.972200
N461	N46	0.919700	0.009300	0.943400
N471	N47	0.136300	0.845400	0.817900
N481	N48	0.069900	0.473300	0.047300
Zn101	Zn10	0.666840	0.363650	0.768450
Zn111	Zn11	0.583790	0.132480	0.592000
Zn121	Zn12	0.874560	0.100400	0.939740
C1451	C145	0.758200	0.590000	0.197400
C1461	C146	0.805900	0.579900	0.256300
C1471	C147	0.794700	0.713300	0.220900
C1481	C148	0.803200	0.812300	0.220000
C1491	C149	0.837700	0.846300	0.245400
H971	H97	0.856100	0.806800	0.261100
C1501	C150	0.844100	0.938400	0.247000
H981	H98	0.867000	0.960200	0.264400
C1511	C151	0.785900	0.966600	0.199800
H991	H99	0.768000	0.007900	0.184600
C1521	C152	0.777800	0.874400	0.196400
H1001	H100	0.755100	0.854100	0.178100
C1531	C153	0.726500	0.546100	0.165500
C1541	C154	0.715500	0.456500	0.172400
H1011	H101	0.727500	0.424600	0.197000
C1551	C155	0.686700	0.416700	0.142200
H1021	H102	0.679500	0.356900	0.146800
C1561	C156	0.678900	0.545600	0.099800
H1031	H103	0.666300	0.575700	0.074900
C1571	C157	0.707600	0.591100	0.128700
H1041	H104	0.714000	0.651100	0.123400
C1581	C158	0.828900	0.528600	0.293200
C1591	C159	0.857400	0.573600	0.323900
H1051	H105	0.861500	0.636000	0.321800
C1601	C160	0.878800	0.524100	0.356600
H1061	H106	0.897700	0.554600	0.376600
C1611	C161	0.847400	0.391900	0.334000
H1071	H107	0.843500	0.329900	0.337900
C1621	C162	0.824500	0.435900	0.298900
H1081	H108	0.806200	0.403100	0.279200
C1631	C163	0.482100	0.663400	0.055700
C1641	C164	0.447900	0.791100	0.033500
C1651	C165	0.432100	0.705700	0.087100
C1661	C166	0.515800	0.602700	0.055100
C1671	C167	0.530600	0.591100	0.018000
H1091	H109	0.519300	0.620000	0.992100
C1681	C168	0.563300	0.533800	0.020700
H1101	H110	0.573700	0.525800	0.995900
C1691	C169	0.566000	0.505600	0.092500
H1111	H111	0.578300	0.477900	0.118300
C1701	C170	0.534200	0.559600	0.093000
H1121	H112	0.524900	0.567500	0.118500
C1711	C171	0.407700	0.687600	0.119600
C1721	C172	0.387700	0.757800	0.135700
H1131	H113	0.388800	0.817100	0.125500
C1731	C173	0.366800	0.738800	0.166000
H1141	H114	0.353700	0.786400	0.176500
C1741	C174	0.382100	0.587500	0.166200
H1151	H115	0.379700	0.528600	0.176300
C1751	C175	0.404300	0.601100	0.135600
H1161	H116	0.417000	0.552200	0.125600
C1761	C176	0.442300	0.874400	0.006700
C1771	C177	0.468100	0.896000	0.979600
H1171	H117	0.489900	0.859600	0.979200
C1781	C178	0.460900	0.972500	0.953100
H1181	H118	0.478100	0.986400	0.934900
C1791	C179	0.406400	0.007200	0.980100
H1191	H119	0.385600	0.046400	0.981000
C1801	C180	0.411200	0.932000	0.006900
H1201	H120	0.393600	0.920400	0.025000
I251	I25	0.879780	0.151730	0.304270
I261	I26	0.772630	0.235550	0.209780
I271	I27	0.973720	0.347480	0.370120
I281	I28	0.880490	0.250630	0.444330
I291	I29	0.648100	0.404350	0.988740
I301	I30	0.601500	0.261300	0.097070
N491	N49	0.776900	0.539500	0.230200
N501	N50	0.816600	0.667300	0.253100
N511	N51	0.766100	0.678900	0.191300
N521	N52	0.668500	0.459300	0.106500
N531	N53	0.874700	0.434900	0.362100
N541	N54	0.819300	0.998200	0.224900
N551	N55	0.460300	0.644500	0.085100
N561	N56	0.425800	0.781800	0.063200
N571	N57	0.476100	0.733200	0.027800
N581	N58	0.580300	0.490700	0.056600
N591	N59	0.363700	0.654600	0.182100
N601	N60	0.430100	0.026700	0.952700
Zn131	Zn13	0.833160	0.136350	0.231550
Zn141	Zn14	0.916210	0.367520	0.408000
Zn151	Zn15	0.625440	0.399600	0.060260
C1811	C181	0.258200	0.090000	0.197400
C1821	C182	0.305900	0.079900	0.256300
C1831	C183	0.294700	0.213300	0.220900
C1841	C184	0.303200	0.312300	0.220000
C1851	C185	0.337700	0.346300	0.245400
H1211	H121	0.356100	0.306800	0.261100
C1861	C186	0.344100	0.438400	0.247000
H1221	H122	0.367000	0.460200	0.264400
C1871	C187	0.285900	0.466600	0.199800
H1231	H123	0.268000	0.507900	0.184600
C1881	C188	0.277800	0.374400	0.196400
H1241	H124	0.255100	0.354100	0.178100
C1891	C189	0.226500	0.046100	0.165500
C1901	C190	0.215500	0.956500	0.172400
H1251	H125	0.227500	0.924600	0.197000
C1911	C191	0.186700	0.916700	0.142200
H1261	H126	0.179500	0.856900	0.146800
C1921	C192	0.178900	0.045600	0.099800
H1271	H127	0.166300	0.075700	0.074900
C1931	C193	0.207600	0.091100	0.128700
H1281	H128	0.214000	0.151100	0.123400
C1941	C194	0.328900	0.028600	0.293200
C1951	C195	0.357400	0.073600	0.323900
H1291	H129	0.361500	0.136000	0.321800
C1961	C196	0.378800	0.024100	0.356600
H1301	H130	0.397700	0.054600	0.376600
C1971	C197	0.347400	0.891900	0.334000
H1311	H131	0.343500	0.829900	0.337900
C1981	C198	0.324500	0.935900	0.298900
H1321	H132	0.306200	0.903100	0.279200
C1991	C199	0.982100	0.163400	0.055700
C2001	C200	0.947900	0.291100	0.033500
C2011	C201	0.932100	0.205700	0.087100
C2021	C202	0.015800	0.102700	0.055100
C2031	C203	0.030600	0.091100	0.018000
H1331	H133	0.019300	0.120000	0.992100
C2041	C204	0.063300	0.033800	0.020700
H1341	H134	0.073700	0.025800	0.995900
C2051	C205	0.066000	0.005600	0.092500
H1351	H135	0.078300	0.977900	0.118300
C2061	C206	0.034200	0.059600	0.093000
H1361	H136	0.024900	0.067500	0.118500
C2071	C207	0.907700	0.187600	0.119600
C2081	C208	0.887700	0.257800	0.135700
H1371	H137	0.888800	0.317100	0.125500
C2091	C209	0.866800	0.238800	0.166000
H1381	H138	0.853700	0.286400	0.176500
C2101	C210	0.882100	0.087500	0.166200
H1391	H139	0.879700	0.028600	0.176300
C2111	C211	0.904300	0.101100	0.135600
H1401	H140	0.917000	0.052200	0.125600
C2121	C212	0.942300	0.374400	0.006700
C2131	C213	0.968100	0.396000	0.979600
H1411	H141	0.989900	0.359600	0.979200
C2141	C214	0.960900	0.472500	0.953100
H1421	H142	0.978100	0.486400	0.934900
C2151	C215	0.906400	0.507200	0.980100
H1431	H143	0.885600	0.546400	0.981000
C2161	C216	0.911200	0.432000	0.006900
H1441	H144	0.893600	0.420400	0.025000
I311	I31	0.379780	0.651730	0.304270
I321	I32	0.272630	0.735550	0.209780
I331	I33	0.473720	0.847480	0.370120
I341	I34	0.380490	0.750630	0.444330
I351	I35	0.148100	0.904350	0.988740
I361	I36	0.101500	0.761300	0.097070
N611	N61	0.276900	0.039500	0.230200
N621	N62	0.316600	0.167300	0.253100
N631	N63	0.266100	0.178900	0.191300
N641	N64	0.168500	0.959300	0.106500
N651	N65	0.374700	0.934900	0.362100
N661	N66	0.319300	0.498200	0.224900
N671	N67	0.960300	0.144500	0.085100
N681	N68	0.925800	0.281800	0.063200
N691	N69	0.976100	0.233200	0.027800
N701	N70	0.080300	0.990700	0.056600
N711	N71	0.863700	0.154600	0.182100
N721	N72	0.930100	0.526700	0.952700
Zn161	Zn16	0.333160	0.636350	0.231550
Zn171	Zn17	0.416210	0.867520	0.408000
Zn181	Zn18	0.125440	0.899600	0.060260
C2171	C217	0.758200	0.410000	0.697400
C2181	C218	0.805900	0.420100	0.756300
C2191	C219	0.794700	0.286700	0.720900
C2201	C220	0.803200	0.187700	0.720000
C2211	C221	0.837700	0.153700	0.745400
H1451	H145	0.856100	0.193200	0.761100
C2221	C222	0.844100	0.061600	0.747000
H1461	H146	0.867000	0.039800	0.764400
C2231	C223	0.785900	0.033400	0.699800
H1471	H147	0.768000	0.992100	0.684600
C2241	C224	0.777800	0.125600	0.696400
H1481	H148	0.755100	0.145900	0.678100
C2251	C225	0.726500	0.453900	0.665500
C2261	C226	0.715500	0.543500	0.672400
H1491	H149	0.727500	0.575400	0.697000
C2271	C227	0.686700	0.583300	0.642200
H1501	H150	0.679500	0.643100	0.646800
C2281	C228	0.678900	0.454400	0.599800
H1511	H151	0.666300	0.424300	0.574900
C2291	C229	0.707600	0.408900	0.628700
H1521	H152	0.714000	0.348900	0.623400
C2301	C230	0.828900	0.471400	0.793200
C2311	C231	0.857400	0.426400	0.823900
H1531	H153	0.861500	0.364000	0.821800
C2321	C232	0.878800	0.475900	0.856600
H1541	H154	0.897700	0.445400	0.876600
C2331	C233	0.847400	0.608100	0.834000
H1551	H155	0.843500	0.670100	0.837900
C2341	C234	0.824500	0.564100	0.798900
H1561	H156	0.806200	0.596900	0.779200
C2351	C235	0.482100	0.336600	0.555700
C2361	C236	0.447900	0.208900	0.533500
C2371	C237	0.432100	0.294300	0.587100
C2381	C238	0.515800	0.397300	0.555100
C2391	C239	0.530600	0.408900	0.518000
H1571	H157	0.519300	0.380000	0.492100
C2401	C240	0.563300	0.466200	0.520700
H1581	H158	0.573700	0.474200	0.495900
C2411	C241	0.566000	0.494400	0.592500
H1591	H159	0.578300	0.522100	0.618300
C2421	C242	0.534200	0.440400	0.593000
H1601	H160	0.524900	0.432500	0.618500
C2431	C243	0.407700	0.312400	0.619600
C2441	C244	0.387700	0.242200	0.635700
H1611	H161	0.388800	0.182900	0.625500
C2451	C245	0.366800	0.261200	0.666000
H1621	H162	0.353700	0.213600	0.676500
C2461	C246	0.382100	0.412500	0.666200
H1631	H163	0.379700	0.471400	0.676300
C2471	C247	0.404300	0.398900	0.635600
H1641	H164	0.417000	0.447800	0.625600
C2481	C248	0.442300	0.125600	0.506700
C2491	C249	0.468100	0.104000	0.479600
H1651	H165	0.489900	0.140400	0.479200
C2501	C250	0.460900	0.027500	0.453100
H1661	H166	0.478100	0.013600	0.434900
C2511	C251	0.406400	0.992800	0.480100
H1671	H167	0.385600	0.953600	0.481000
C2521	C252	0.411200	0.068000	0.506900
H1681	H168	0.393600	0.079600	0.525000
I371	I37	0.879780	0.848270	0.804270
I381	I38	0.772630	0.764450	0.709780
I391	I39	0.973720	0.652520	0.870120
I401	I40	0.880490	0.749370	0.944330
I411	I41	0.648100	0.595650	0.488740
I421	I42	0.601500	0.738700	0.597070
N731	N73	0.776900	0.460500	0.730200
N741	N74	0.816600	0.332700	0.753100
N751	N75	0.766100	0.321100	0.691300
N761	N76	0.668500	0.540700	0.606500
N771	N77	0.874700	0.565100	0.862100
N781	N78	0.819300	0.001800	0.724900
N791	N79	0.460300	0.355500	0.585100
N801	N80	0.425800	0.218200	0.563200
N811	N81	0.476100	0.266800	0.527800
N821	N82	0.580300	0.509300	0.556600
N831	N83	0.363700	0.345400	0.682100
N841	N84	0.430100	0.973300	0.452700
Zn191	Zn19	0.833160	0.863650	0.731550
Zn201	Zn20	0.916210	0.632480	0.908000
Zn211	Zn21	0.625440	0.600400	0.560260
C2531	C253	0.258200	0.910000	0.697400
C2541	C254	0.305900	0.920100	0.756300
C2551	C255	0.294700	0.786700	0.720900
C2561	C256	0.303200	0.687700	0.720000
C2571	C257	0.337700	0.653700	0.745400
H1691	H169	0.356100	0.693200	0.761100
C2581	C258	0.344100	0.561600	0.747000
H1701	H170	0.367000	0.539800	0.764400
C2591	C259	0.285900	0.533400	0.699800
H1711	H171	0.268000	0.492100	0.684600
C2601	C260	0.277800	0.625600	0.696400
H1721	H172	0.255100	0.645900	0.678100
C2611	C261	0.226500	0.953900	0.665500
C2621	C262	0.215500	0.043500	0.672400
H1731	H173	0.227500	0.075400	0.697000
C2631	C263	0.186700	0.083300	0.642200
H1741	H174	0.179500	0.143100	0.646800
C2641	C264	0.178900	0.954400	0.599800
H1751	H175	0.166300	0.924300	0.574900
C2651	C265	0.207600	0.908900	0.628700
H1761	H176	0.214000	0.848900	0.623400
C2661	C266	0.328900	0.971400	0.793200
C2671	C267	0.357400	0.926400	0.823900
H1771	H177	0.361500	0.864000	0.821800
C2681	C268	0.378800	0.975900	0.856600
H1781	H178	0.397700	0.945400	0.876600
C2691	C269	0.347400	0.108100	0.834000
H1791	H179	0.343500	0.170100	0.837900
C2701	C270	0.324500	0.064100	0.798900
H1801	H180	0.306200	0.096900	0.779200
C2711	C271	0.982100	0.836600	0.555700
C2721	C272	0.947900	0.708900	0.533500
C2731	C273	0.932100	0.794300	0.587100
C2741	C274	0.015800	0.897300	0.555100
C2751	C275	0.030600	0.908900	0.518000
H1811	H181	0.019300	0.880000	0.492100
C2761	C276	0.063300	0.966200	0.520700
H1821	H182	0.073700	0.974200	0.495900
C2771	C277	0.066000	0.994400	0.592500
H1831	H183	0.078300	0.022100	0.618300
C2781	C278	0.034200	0.940400	0.593000
H1841	H184	0.024900	0.932500	0.618500
C2791	C279	0.907700	0.812400	0.619600
C2801	C280	0.887700	0.742200	0.635700
H1851	H185	0.888800	0.682900	0.625500
C2811	C281	0.866800	0.761200	0.666000
H1861	H186	0.853700	0.713600	0.676500
C2821	C282	0.882100	0.912500	0.666200
H1871	H187	0.879700	0.971400	0.676300
C2831	C283	0.904300	0.898900	0.635600
H1881	H188	0.917000	0.947800	0.625600
C2841	C284	0.942300	0.625600	0.506700
C2851	C285	0.968100	0.604000	0.479600
H1891	H189	0.989900	0.640400	0.479200
C2861	C286	0.960900	0.527500	0.453100
H1901	H190	0.978100	0.513600	0.434900
C2871	C287	0.906400	0.492800	0.480100
H1911	H191	0.885600	0.453600	0.481000
C2881	C288	0.911200	0.568000	0.506900
H1921	H192	0.893600	0.579600	0.525000
I431	I43	0.379780	0.348270	0.804270
I441	I44	0.272630	0.264450	0.709780
I451	I45	0.473720	0.152520	0.870120
I461	I46	0.380490	0.249370	0.944330
I471	I47	0.148100	0.095650	0.488740
I481	I48	0.101500	0.238700	0.597070
N851	N85	0.276900	0.960500	0.730200
N861	N86	0.316600	0.832700	0.753100
N871	N87	0.266100	0.821100	0.691300
N881	N88	0.168500	0.040700	0.606500
N891	N89	0.374700	0.065100	0.862100
N901	N90	0.319300	0.501800	0.724900
N911	N91	0.960300	0.855500	0.585100
N921	N92	0.925800	0.718200	0.563200
N931	N93	0.976100	0.766800	0.527800
N941	N94	0.080300	0.009300	0.556600
N951	N95	0.863700	0.845400	0.682100
N961	N96	0.930100	0.473300	0.452700
Zn221	Zn22	0.333160	0.363650	0.731550
Zn231	Zn23	0.416210	0.132480	0.908000
Zn241	Zn24	0.125440	0.100400	0.560260
