data_IYODAD_freeONLY_PM
_symmetry_space_group_name_H-M	'P1'
_cell_length_a	35.577000
_cell_length_b	14.634000
_cell_length_c	30.500000
_cell_angle_alpha	90.000000
_cell_angle_beta	102.333000
_cell_angle_gamma	90.000000
_symmetry_Int_Tables_number 1

loop_
_symmetry_equiv_pos_as_xyz
'x,y,z'

loop_
_atom_site_label
_atom_site_type_symbol
_atom_site_fract_x
_atom_site_fract_y
_atom_site_fract_z
Br11	Br1	0.272340	0.235680	0.709410
Br21	Br2	0.368940	0.151650	0.800650
Br31	Br3	0.382310	0.744340	0.436780
Br41	Br4	0.469490	0.667780	0.372200
Br51	Br5	0.104450	0.738240	0.093920
Br61	Br6	0.134550	0.599580	0.988170
C11	C1	0.172300	0.453000	0.097300
H11	H1	0.158300	0.422200	0.072500
C21	C2	0.201700	0.406100	0.126000
H21	H2	0.207000	0.345400	0.120600
C31	C3	0.222650	0.451600	0.162540
C41	C4	0.213630	0.542800	0.169000
H31	H3	0.227700	0.575600	0.193100
C51	C5	0.184120	0.583100	0.139600
H41	H4	0.178000	0.643500	0.144600
C61	C6	0.254240	0.406900	0.194120
C71	C7	0.289230	0.281800	0.218000
C81	C8	0.304000	0.415200	0.253940
C91	C9	0.297960	0.180800	0.216500
C101	C10	0.272790	0.120200	0.191200
H51	H5	0.250200	0.140900	0.172500
C111	C11	0.281630	0.026500	0.193900
H61	H6	0.264800	0.985500	0.176500
C121	C12	0.338200	0.054000	0.243300
H71	H7	0.361200	0.031900	0.260200
C131	C13	0.331900	0.145300	0.243200
H81	H8	0.349900	0.184000	0.260500
C141	C14	0.380500	0.473900	0.353900
H91	H9	0.399300	0.443500	0.374700
C151	C15	0.357200	0.424200	0.321300
H101	H10	0.360200	0.361300	0.319600
C161	C16	0.328890	0.468800	0.290580
C171	C17	0.325020	0.563600	0.294800
H111	H11	0.306100	0.595400	0.274900
C181	C18	0.349510	0.608800	0.328600
H121	H12	0.346600	0.671500	0.331600
C191	C19	0.461140	0.474900	0.450710
H131	H13	0.478200	0.488400	0.432400
C201	C20	0.467370	0.397000	0.476600
H141	H14	0.487400	0.357600	0.474500
C211	C21	0.443150	0.378300	0.505820
C221	C22	0.413400	0.439700	0.506700
H151	H15	0.396700	0.429900	0.525800
C231	C23	0.409100	0.513800	0.479500
H161	H16	0.389200	0.554400	0.480700
C241	C24	0.448600	0.294500	0.534820
C251	C25	0.481250	0.167000	0.558790
C261	C26	0.433350	0.213600	0.590740
C271	C27	0.408480	0.197800	0.623100
C281	C28	0.419200	0.144000	0.659900
H171	H17	0.443400	0.116800	0.665800
C291	C29	0.395200	0.129200	0.688200
H181	H18	0.403800	0.092100	0.713000
C301	C30	0.349000	0.216400	0.645900
H191	H19	0.324500	0.241800	0.640400
C311	C31	0.372100	0.234100	0.615900
H201	H20	0.363100	0.270600	0.590900
C321	C32	0.513390	0.102700	0.557580
C331	C33	0.530000	0.097700	0.520800
H211	H21	0.521100	0.134100	0.495800
C341	C34	0.560210	0.037600	0.521800
H221	H22	0.571000	0.033100	0.496600
C351	C35	0.558400	0.991700	0.593100
H231	H23	0.568000	0.955300	0.617900
C361	C36	0.528300	0.049200	0.594600
H241	H24	0.518000	0.052200	0.620200
N11	N1	0.163150	0.538900	0.103390
N21	N2	0.313540	0.994500	0.220870
N31	N3	0.377490	0.565400	0.357430
N41	N4	0.260380	0.315900	0.188140
N51	N5	0.312560	0.327100	0.251110
N61	N6	0.274630	0.458800	0.226980
N71	N7	0.432090	0.531500	0.450670
N81	N8	0.574480	0.985600	0.557670
N91	N9	0.360000	0.164700	0.682450
N101	N10	0.425940	0.287600	0.564540
N111	N11	0.475700	0.236000	0.529130
N121	N12	0.461080	0.152800	0.590360
Zn11	Zn1	0.327280	0.143780	0.728630
Zn21	Zn2	0.417290	0.636240	0.404760
Zn31	Zn3	0.119590	0.603150	0.059050
Br71	Br7	0.772340	0.735680	0.709410
Br81	Br8	0.868940	0.651650	0.800650
Br91	Br9	0.882310	0.244340	0.436780
Br101	Br10	0.969490	0.167780	0.372200
Br111	Br11	0.604450	0.238240	0.093920
Br121	Br12	0.634550	0.099580	0.988170
C371	C37	0.672300	0.953000	0.097300
H251	H25	0.658300	0.922200	0.072500
C381	C38	0.701700	0.906100	0.126000
H261	H26	0.707000	0.845400	0.120600
C391	C39	0.722650	0.951600	0.162540
C401	C40	0.713630	0.042800	0.169000
H271	H27	0.727700	0.075600	0.193100
C411	C41	0.684120	0.083100	0.139600
H281	H28	0.678000	0.143500	0.144600
C421	C42	0.754240	0.906900	0.194120
C431	C43	0.789230	0.781800	0.218000
C441	C44	0.804000	0.915200	0.253940
C451	C45	0.797960	0.680800	0.216500
C461	C46	0.772790	0.620200	0.191200
H291	H29	0.750200	0.640900	0.172500
C471	C47	0.781630	0.526500	0.193900
H301	H30	0.764800	0.485500	0.176500
C481	C48	0.838200	0.554000	0.243300
H311	H31	0.861200	0.531900	0.260200
C491	C49	0.831900	0.645300	0.243200
H321	H32	0.849900	0.684000	0.260500
C501	C50	0.880500	0.973900	0.353900
H331	H33	0.899300	0.943500	0.374700
C511	C51	0.857200	0.924200	0.321300
H341	H34	0.860200	0.861300	0.319600
C521	C52	0.828890	0.968800	0.290580
C531	C53	0.825020	0.063600	0.294800
H351	H35	0.806100	0.095400	0.274900
C541	C54	0.849510	0.108800	0.328600
H361	H36	0.846600	0.171500	0.331600
C551	C55	0.961140	0.974900	0.450710
H371	H37	0.978200	0.988400	0.432400
C561	C56	0.967370	0.897000	0.476600
H381	H38	0.987400	0.857600	0.474500
C571	C57	0.943150	0.878300	0.505820
C581	C58	0.913400	0.939700	0.506700
H391	H39	0.896700	0.929900	0.525800
C591	C59	0.909100	0.013800	0.479500
H401	H40	0.889200	0.054400	0.480700
C601	C60	0.948600	0.794500	0.534820
C611	C61	0.981250	0.667000	0.558790
C621	C62	0.933350	0.713600	0.590740
C631	C63	0.908480	0.697800	0.623100
C641	C64	0.919200	0.644000	0.659900
H411	H41	0.943400	0.616800	0.665800
C651	C65	0.895200	0.629200	0.688200
H421	H42	0.903800	0.592100	0.713000
C661	C66	0.849000	0.716400	0.645900
H431	H43	0.824500	0.741800	0.640400
C671	C67	0.872100	0.734100	0.615900
H441	H44	0.863100	0.770600	0.590900
C681	C68	0.013390	0.602700	0.557580
C691	C69	0.030000	0.597700	0.520800
H451	H45	0.021100	0.634100	0.495800
C701	C70	0.060210	0.537600	0.521800
H461	H46	0.071000	0.533100	0.496600
C711	C71	0.058400	0.491700	0.593100
H471	H47	0.068000	0.455300	0.617900
C721	C72	0.028300	0.549200	0.594600
H481	H48	0.018000	0.552200	0.620200
N131	N13	0.663150	0.038900	0.103390
N141	N14	0.813540	0.494500	0.220870
N151	N15	0.877490	0.065400	0.357430
N161	N16	0.760380	0.815900	0.188140
N171	N17	0.812560	0.827100	0.251110
N181	N18	0.774630	0.958800	0.226980
N191	N19	0.932090	0.031500	0.450670
N201	N20	0.074480	0.485600	0.557670
N211	N21	0.860000	0.664700	0.682450
N221	N22	0.925940	0.787600	0.564540
N231	N23	0.975700	0.736000	0.529130
N241	N24	0.961080	0.652800	0.590360
Zn41	Zn4	0.827280	0.643780	0.728630
Zn51	Zn5	0.917290	0.136240	0.404760
Zn61	Zn6	0.619590	0.103150	0.059050
Br131	Br13	0.272340	0.764320	0.209410
Br141	Br14	0.368940	0.848350	0.300650
Br151	Br15	0.382310	0.255660	0.936780
Br161	Br16	0.469490	0.332220	0.872200
Br171	Br17	0.104450	0.261760	0.593920
Br181	Br18	0.134550	0.400420	0.488170
C731	C73	0.172300	0.547000	0.597300
H491	H49	0.158300	0.577800	0.572500
C741	C74	0.201700	0.593900	0.626000
H501	H50	0.207000	0.654600	0.620600
C751	C75	0.222650	0.548400	0.662540
C761	C76	0.213630	0.457200	0.669000
H511	H51	0.227700	0.424400	0.693100
C771	C77	0.184120	0.416900	0.639600
H521	H52	0.178000	0.356500	0.644600
C781	C78	0.254240	0.593100	0.694120
C791	C79	0.289230	0.718200	0.718000
C801	C80	0.304000	0.584800	0.753940
C811	C81	0.297960	0.819200	0.716500
C821	C82	0.272790	0.879800	0.691200
H531	H53	0.250200	0.859100	0.672500
C831	C83	0.281630	0.973500	0.693900
H541	H54	0.264800	0.014500	0.676500
C841	C84	0.338200	0.946000	0.743300
H551	H55	0.361200	0.968100	0.760200
C851	C85	0.331900	0.854700	0.743200
H561	H56	0.349900	0.816000	0.760500
C861	C86	0.380500	0.526100	0.853900
H571	H57	0.399300	0.556500	0.874700
C871	C87	0.357200	0.575800	0.821300
H581	H58	0.360200	0.638700	0.819600
C881	C88	0.328890	0.531200	0.790580
C891	C89	0.325020	0.436400	0.794800
H591	H59	0.306100	0.404600	0.774900
C901	C90	0.349510	0.391200	0.828600
H601	H60	0.346600	0.328500	0.831600
C911	C91	0.461140	0.525100	0.950710
H611	H61	0.478200	0.511600	0.932400
C921	C92	0.467370	0.603000	0.976600
H621	H62	0.487400	0.642400	0.974500
C931	C93	0.443150	0.621700	0.005820
C941	C94	0.413400	0.560300	0.006700
H631	H63	0.396700	0.570100	0.025800
C951	C95	0.409100	0.486200	0.979500
H641	H64	0.389200	0.445600	0.980700
C961	C96	0.448600	0.705500	0.034820
C971	C97	0.481250	0.833000	0.058790
C981	C98	0.433350	0.786400	0.090740
C991	C99	0.408480	0.802200	0.123100
C1001	C100	0.419200	0.856000	0.159900
H651	H65	0.443400	0.883200	0.165800
C1011	C101	0.395200	0.870800	0.188200
H661	H66	0.403800	0.907900	0.213000
C1021	C102	0.349000	0.783600	0.145900
H671	H67	0.324500	0.758200	0.140400
C1031	C103	0.372100	0.765900	0.115900
H681	H68	0.363100	0.729400	0.090900
C1041	C104	0.513390	0.897300	0.057580
C1051	C105	0.530000	0.902300	0.020800
H691	H69	0.521100	0.865900	0.995800
C1061	C106	0.560210	0.962400	0.021800
H701	H70	0.571000	0.966900	0.996600
C1071	C107	0.558400	0.008300	0.093100
H711	H71	0.568000	0.044700	0.117900
C1081	C108	0.528300	0.950800	0.094600
H721	H72	0.518000	0.947800	0.120200
N251	N25	0.163150	0.461100	0.603390
N261	N26	0.313540	0.005500	0.720870
N271	N27	0.377490	0.434600	0.857430
N281	N28	0.260380	0.684100	0.688140
N291	N29	0.312560	0.672900	0.751110
N301	N30	0.274630	0.541200	0.726980
N311	N31	0.432090	0.468500	0.950670
N321	N32	0.574480	0.014400	0.057670
N331	N33	0.360000	0.835300	0.182450
N341	N34	0.425940	0.712400	0.064540
N351	N35	0.475700	0.764000	0.029130
N361	N36	0.461080	0.847200	0.090360
Zn71	Zn7	0.327280	0.856220	0.228630
Zn81	Zn8	0.417290	0.363760	0.904760
Zn91	Zn9	0.119590	0.396850	0.559050
Br191	Br19	0.772340	0.264320	0.209410
Br201	Br20	0.868940	0.348350	0.300650
Br211	Br21	0.882310	0.755660	0.936780
Br221	Br22	0.969490	0.832220	0.872200
Br231	Br23	0.604450	0.761760	0.593920
Br241	Br24	0.634550	0.900420	0.488170
C1091	C109	0.672300	0.047000	0.597300
H731	H73	0.658300	0.077800	0.572500
C1101	C110	0.701700	0.093900	0.626000
H741	H74	0.707000	0.154600	0.620600
C1111	C111	0.722650	0.048400	0.662540
C1121	C112	0.713630	0.957200	0.669000
H751	H75	0.727700	0.924400	0.693100
C1131	C113	0.684120	0.916900	0.639600
H761	H76	0.678000	0.856500	0.644600
C1141	C114	0.754240	0.093100	0.694120
C1151	C115	0.789230	0.218200	0.718000
C1161	C116	0.804000	0.084800	0.753940
C1171	C117	0.797960	0.319200	0.716500
C1181	C118	0.772790	0.379800	0.691200
H771	H77	0.750200	0.359100	0.672500
C1191	C119	0.781630	0.473500	0.693900
H781	H78	0.764800	0.514500	0.676500
C1201	C120	0.838200	0.446000	0.743300
H791	H79	0.861200	0.468100	0.760200
C1211	C121	0.831900	0.354700	0.743200
H801	H80	0.849900	0.316000	0.760500
C1221	C122	0.880500	0.026100	0.853900
H811	H81	0.899300	0.056500	0.874700
C1231	C123	0.857200	0.075800	0.821300
H821	H82	0.860200	0.138700	0.819600
C1241	C124	0.828890	0.031200	0.790580
C1251	C125	0.825020	0.936400	0.794800
H831	H83	0.806100	0.904600	0.774900
C1261	C126	0.849510	0.891200	0.828600
H841	H84	0.846600	0.828500	0.831600
C1271	C127	0.961140	0.025100	0.950710
H851	H85	0.978200	0.011600	0.932400
C1281	C128	0.967370	0.103000	0.976600
H861	H86	0.987400	0.142400	0.974500
C1291	C129	0.943150	0.121700	0.005820
C1301	C130	0.913400	0.060300	0.006700
H871	H87	0.896700	0.070100	0.025800
C1311	C131	0.909100	0.986200	0.979500
H881	H88	0.889200	0.945600	0.980700
C1321	C132	0.948600	0.205500	0.034820
C1331	C133	0.981250	0.333000	0.058790
C1341	C134	0.933350	0.286400	0.090740
C1351	C135	0.908480	0.302200	0.123100
C1361	C136	0.919200	0.356000	0.159900
H891	H89	0.943400	0.383200	0.165800
C1371	C137	0.895200	0.370800	0.188200
H901	H90	0.903800	0.407900	0.213000
C1381	C138	0.849000	0.283600	0.145900
H911	H91	0.824500	0.258200	0.140400
C1391	C139	0.872100	0.265900	0.115900
H921	H92	0.863100	0.229400	0.090900
C1401	C140	0.013390	0.397300	0.057580
C1411	C141	0.030000	0.402300	0.020800
H931	H93	0.021100	0.365900	0.995800
C1421	C142	0.060210	0.462400	0.021800
H941	H94	0.071000	0.466900	0.996600
C1431	C143	0.058400	0.508300	0.093100
H951	H95	0.068000	0.544700	0.117900
C1441	C144	0.028300	0.450800	0.094600
H961	H96	0.018000	0.447800	0.120200
N371	N37	0.663150	0.961100	0.603390
N381	N38	0.813540	0.505500	0.720870
N391	N39	0.877490	0.934600	0.857430
N401	N40	0.760380	0.184100	0.688140
N411	N41	0.812560	0.172900	0.751110
N421	N42	0.774630	0.041200	0.726980
N431	N43	0.932090	0.968500	0.950670
N441	N44	0.074480	0.514400	0.057670
N451	N45	0.860000	0.335300	0.182450
N461	N46	0.925940	0.212400	0.064540
N471	N47	0.975700	0.264000	0.029130
N481	N48	0.961080	0.347200	0.090360
Zn101	Zn10	0.827280	0.356220	0.228630
Zn111	Zn11	0.917290	0.863760	0.904760
Zn121	Zn12	0.619590	0.896850	0.559050
Br251	Br25	0.727660	0.235680	0.790590
Br261	Br26	0.631060	0.151650	0.699350
Br271	Br27	0.617690	0.744340	0.063220
Br281	Br28	0.530510	0.667780	0.127800
Br291	Br29	0.895550	0.738240	0.406080
Br301	Br30	0.865450	0.599580	0.511830
C1451	C145	0.827700	0.453000	0.402700
H971	H97	0.841700	0.422200	0.427500
C1461	C146	0.798300	0.406100	0.374000
H981	H98	0.793000	0.345400	0.379400
C1471	C147	0.777350	0.451600	0.337460
C1481	C148	0.786370	0.542800	0.331000
H991	H99	0.772300	0.575600	0.306900
C1491	C149	0.815880	0.583100	0.360400
H1001	H100	0.822000	0.643500	0.355400
C1501	C150	0.745760	0.406900	0.305880
C1511	C151	0.710770	0.281800	0.282000
C1521	C152	0.696000	0.415200	0.246060
C1531	C153	0.702040	0.180800	0.283500
C1541	C154	0.727210	0.120200	0.308800
H1011	H101	0.749800	0.140900	0.327500
C1551	C155	0.718370	0.026500	0.306100
H1021	H102	0.735200	0.985500	0.323500
C1561	C156	0.661800	0.054000	0.256700
H1031	H103	0.638800	0.031900	0.239800
C1571	C157	0.668100	0.145300	0.256800
H1041	H104	0.650100	0.184000	0.239500
C1581	C158	0.619500	0.473900	0.146100
H1051	H105	0.600700	0.443500	0.125300
C1591	C159	0.642800	0.424200	0.178700
H1061	H106	0.639800	0.361300	0.180400
C1601	C160	0.671110	0.468800	0.209420
C1611	C161	0.674980	0.563600	0.205200
H1071	H107	0.693900	0.595400	0.225100
C1621	C162	0.650490	0.608800	0.171400
H1081	H108	0.653400	0.671500	0.168400
C1631	C163	0.538860	0.474900	0.049290
H1091	H109	0.521800	0.488400	0.067600
C1641	C164	0.532630	0.397000	0.023400
H1101	H110	0.512600	0.357600	0.025500
C1651	C165	0.556850	0.378300	0.994180
C1661	C166	0.586600	0.439700	0.993300
H1111	H111	0.603300	0.429900	0.974200
C1671	C167	0.590900	0.513800	0.020500
H1121	H112	0.610800	0.554400	0.019300
C1681	C168	0.551400	0.294500	0.965180
C1691	C169	0.518750	0.167000	0.941210
C1701	C170	0.566650	0.213600	0.909260
C1711	C171	0.591520	0.197800	0.876900
C1721	C172	0.580800	0.144000	0.840100
H1131	H113	0.556600	0.116800	0.834200
C1731	C173	0.604800	0.129200	0.811800
H1141	H114	0.596200	0.092100	0.787000
C1741	C174	0.651000	0.216400	0.854100
H1151	H115	0.675500	0.241800	0.859600
C1751	C175	0.627900	0.234100	0.884100
H1161	H116	0.636900	0.270600	0.909100
C1761	C176	0.486610	0.102700	0.942420
C1771	C177	0.470000	0.097700	0.979200
H1171	H117	0.478900	0.134100	0.004200
C1781	C178	0.439790	0.037600	0.978200
H1181	H118	0.429000	0.033100	0.003400
C1791	C179	0.441600	0.991700	0.906900
H1191	H119	0.432000	0.955300	0.882100
C1801	C180	0.471700	0.049200	0.905400
H1201	H120	0.482000	0.052200	0.879800
N491	N49	0.836850	0.538900	0.396610
N501	N50	0.686460	0.994500	0.279130
N511	N51	0.622510	0.565400	0.142570
N521	N52	0.739620	0.315900	0.311860
N531	N53	0.687440	0.327100	0.248890
N541	N54	0.725370	0.458800	0.273020
N551	N55	0.567910	0.531500	0.049330
N561	N56	0.425520	0.985600	0.942330
N571	N57	0.640000	0.164700	0.817550
N581	N58	0.574060	0.287600	0.935460
N591	N59	0.524300	0.236000	0.970870
N601	N60	0.538920	0.152800	0.909640
Zn131	Zn13	0.672720	0.143780	0.771370
Zn141	Zn14	0.582710	0.636240	0.095240
Zn151	Zn15	0.880410	0.603150	0.440950
Br311	Br31	0.227660	0.735680	0.790590
Br321	Br32	0.131060	0.651650	0.699350
Br331	Br33	0.117690	0.244340	0.063220
Br341	Br34	0.030510	0.167780	0.127800
Br351	Br35	0.395550	0.238240	0.406080
Br361	Br36	0.365450	0.099580	0.511830
C1811	C181	0.327700	0.953000	0.402700
H1211	H121	0.341700	0.922200	0.427500
C1821	C182	0.298300	0.906100	0.374000
H1221	H122	0.293000	0.845400	0.379400
C1831	C183	0.277350	0.951600	0.337460
C1841	C184	0.286370	0.042800	0.331000
H1231	H123	0.272300	0.075600	0.306900
C1851	C185	0.315880	0.083100	0.360400
H1241	H124	0.322000	0.143500	0.355400
C1861	C186	0.245760	0.906900	0.305880
C1871	C187	0.210770	0.781800	0.282000
C1881	C188	0.196000	0.915200	0.246060
C1891	C189	0.202040	0.680800	0.283500
C1901	C190	0.227210	0.620200	0.308800
H1251	H125	0.249800	0.640900	0.327500
C1911	C191	0.218370	0.526500	0.306100
H1261	H126	0.235200	0.485500	0.323500
C1921	C192	0.161800	0.554000	0.256700
H1271	H127	0.138800	0.531900	0.239800
C1931	C193	0.168100	0.645300	0.256800
H1281	H128	0.150100	0.684000	0.239500
C1941	C194	0.119500	0.973900	0.146100
H1291	H129	0.100700	0.943500	0.125300
C1951	C195	0.142800	0.924200	0.178700
H1301	H130	0.139800	0.861300	0.180400
C1961	C196	0.171110	0.968800	0.209420
C1971	C197	0.174980	0.063600	0.205200
H1311	H131	0.193900	0.095400	0.225100
C1981	C198	0.150490	0.108800	0.171400
H1321	H132	0.153400	0.171500	0.168400
C1991	C199	0.038860	0.974900	0.049290
H1331	H133	0.021800	0.988400	0.067600
C2001	C200	0.032630	0.897000	0.023400
H1341	H134	0.012600	0.857600	0.025500
C2011	C201	0.056850	0.878300	0.994180
C2021	C202	0.086600	0.939700	0.993300
H1351	H135	0.103300	0.929900	0.974200
C2031	C203	0.090900	0.013800	0.020500
H1361	H136	0.110800	0.054400	0.019300
C2041	C204	0.051400	0.794500	0.965180
C2051	C205	0.018750	0.667000	0.941210
C2061	C206	0.066650	0.713600	0.909260
C2071	C207	0.091520	0.697800	0.876900
C2081	C208	0.080800	0.644000	0.840100
H1371	H137	0.056600	0.616800	0.834200
C2091	C209	0.104800	0.629200	0.811800
H1381	H138	0.096200	0.592100	0.787000
C2101	C210	0.151000	0.716400	0.854100
H1391	H139	0.175500	0.741800	0.859600
C2111	C211	0.127900	0.734100	0.884100
H1401	H140	0.136900	0.770600	0.909100
C2121	C212	0.986610	0.602700	0.942420
C2131	C213	0.970000	0.597700	0.979200
H1411	H141	0.978900	0.634100	0.004200
C2141	C214	0.939790	0.537600	0.978200
H1421	H142	0.929000	0.533100	0.003400
C2151	C215	0.941600	0.491700	0.906900
H1431	H143	0.932000	0.455300	0.882100
C2161	C216	0.971700	0.549200	0.905400
H1441	H144	0.982000	0.552200	0.879800
N611	N61	0.336850	0.038900	0.396610
N621	N62	0.186460	0.494500	0.279130
N631	N63	0.122510	0.065400	0.142570
N641	N64	0.239620	0.815900	0.311860
N651	N65	0.187440	0.827100	0.248890
N661	N66	0.225370	0.958800	0.273020
N671	N67	0.067910	0.031500	0.049330
N681	N68	0.925520	0.485600	0.942330
N691	N69	0.140000	0.664700	0.817550
N701	N70	0.074060	0.787600	0.935460
N711	N71	0.024300	0.736000	0.970870
N721	N72	0.038920	0.652800	0.909640
Zn161	Zn16	0.172720	0.643780	0.771370
Zn171	Zn17	0.082710	0.136240	0.095240
Zn181	Zn18	0.380410	0.103150	0.440950
Br371	Br37	0.727660	0.764320	0.290590
Br381	Br38	0.631060	0.848350	0.199350
Br391	Br39	0.617690	0.255660	0.563220
Br401	Br40	0.530510	0.332220	0.627800
Br411	Br41	0.895550	0.261760	0.906080
Br421	Br42	0.865450	0.400420	0.011830
C2171	C217	0.827700	0.547000	0.902700
H1451	H145	0.841700	0.577800	0.927500
C2181	C218	0.798300	0.593900	0.874000
H1461	H146	0.793000	0.654600	0.879400
C2191	C219	0.777350	0.548400	0.837460
C2201	C220	0.786370	0.457200	0.831000
H1471	H147	0.772300	0.424400	0.806900
C2211	C221	0.815880	0.416900	0.860400
H1481	H148	0.822000	0.356500	0.855400
C2221	C222	0.745760	0.593100	0.805880
C2231	C223	0.710770	0.718200	0.782000
C2241	C224	0.696000	0.584800	0.746060
C2251	C225	0.702040	0.819200	0.783500
C2261	C226	0.727210	0.879800	0.808800
H1491	H149	0.749800	0.859100	0.827500
C2271	C227	0.718370	0.973500	0.806100
H1501	H150	0.735200	0.014500	0.823500
C2281	C228	0.661800	0.946000	0.756700
H1511	H151	0.638800	0.968100	0.739800
C2291	C229	0.668100	0.854700	0.756800
H1521	H152	0.650100	0.816000	0.739500
C2301	C230	0.619500	0.526100	0.646100
H1531	H153	0.600700	0.556500	0.625300
C2311	C231	0.642800	0.575800	0.678700
H1541	H154	0.639800	0.638700	0.680400
C2321	C232	0.671110	0.531200	0.709420
C2331	C233	0.674980	0.436400	0.705200
H1551	H155	0.693900	0.404600	0.725100
C2341	C234	0.650490	0.391200	0.671400
H1561	H156	0.653400	0.328500	0.668400
C2351	C235	0.538860	0.525100	0.549290
H1571	H157	0.521800	0.511600	0.567600
C2361	C236	0.532630	0.603000	0.523400
H1581	H158	0.512600	0.642400	0.525500
C2371	C237	0.556850	0.621700	0.494180
C2381	C238	0.586600	0.560300	0.493300
H1591	H159	0.603300	0.570100	0.474200
C2391	C239	0.590900	0.486200	0.520500
H1601	H160	0.610800	0.445600	0.519300
C2401	C240	0.551400	0.705500	0.465180
C2411	C241	0.518750	0.833000	0.441210
C2421	C242	0.566650	0.786400	0.409260
C2431	C243	0.591520	0.802200	0.376900
C2441	C244	0.580800	0.856000	0.340100
H1611	H161	0.556600	0.883200	0.334200
C2451	C245	0.604800	0.870800	0.311800
H1621	H162	0.596200	0.907900	0.287000
C2461	C246	0.651000	0.783600	0.354100
H1631	H163	0.675500	0.758200	0.359600
C2471	C247	0.627900	0.765900	0.384100
H1641	H164	0.636900	0.729400	0.409100
C2481	C248	0.486610	0.897300	0.442420
C2491	C249	0.470000	0.902300	0.479200
H1651	H165	0.478900	0.865900	0.504200
C2501	C250	0.439790	0.962400	0.478200
H1661	H166	0.429000	0.966900	0.503400
C2511	C251	0.441600	0.008300	0.406900
H1671	H167	0.432000	0.044700	0.382100
C2521	C252	0.471700	0.950800	0.405400
H1681	H168	0.482000	0.947800	0.379800
N731	N73	0.836850	0.461100	0.896610
N741	N74	0.686460	0.005500	0.779130
N751	N75	0.622510	0.434600	0.642570
N761	N76	0.739620	0.684100	0.811860
N771	N77	0.687440	0.672900	0.748890
N781	N78	0.725370	0.541200	0.773020
N791	N79	0.567910	0.468500	0.549330
N801	N80	0.425520	0.014400	0.442330
N811	N81	0.640000	0.835300	0.317550
N821	N82	0.574060	0.712400	0.435460
N831	N83	0.524300	0.764000	0.470870
N841	N84	0.538920	0.847200	0.409640
Zn191	Zn19	0.672720	0.856220	0.271370
Zn201	Zn20	0.582710	0.363760	0.595240
Zn211	Zn21	0.880410	0.396850	0.940950
Br431	Br43	0.227660	0.264320	0.290590
Br441	Br44	0.131060	0.348350	0.199350
Br451	Br45	0.117690	0.755660	0.563220
Br461	Br46	0.030510	0.832220	0.627800
Br471	Br47	0.395550	0.761760	0.906080
Br481	Br48	0.365450	0.900420	0.011830
C2531	C253	0.327700	0.047000	0.902700
H1691	H169	0.341700	0.077800	0.927500
C2541	C254	0.298300	0.093900	0.874000
H1701	H170	0.293000	0.154600	0.879400
C2551	C255	0.277350	0.048400	0.837460
C2561	C256	0.286370	0.957200	0.831000
H1711	H171	0.272300	0.924400	0.806900
C2571	C257	0.315880	0.916900	0.860400
H1721	H172	0.322000	0.856500	0.855400
C2581	C258	0.245760	0.093100	0.805880
C2591	C259	0.210770	0.218200	0.782000
C2601	C260	0.196000	0.084800	0.746060
C2611	C261	0.202040	0.319200	0.783500
C2621	C262	0.227210	0.379800	0.808800
H1731	H173	0.249800	0.359100	0.827500
C2631	C263	0.218370	0.473500	0.806100
H1741	H174	0.235200	0.514500	0.823500
C2641	C264	0.161800	0.446000	0.756700
H1751	H175	0.138800	0.468100	0.739800
C2651	C265	0.168100	0.354700	0.756800
H1761	H176	0.150100	0.316000	0.739500
C2661	C266	0.119500	0.026100	0.646100
H1771	H177	0.100700	0.056500	0.625300
C2671	C267	0.142800	0.075800	0.678700
H1781	H178	0.139800	0.138700	0.680400
C2681	C268	0.171110	0.031200	0.709420
C2691	C269	0.174980	0.936400	0.705200
H1791	H179	0.193900	0.904600	0.725100
C2701	C270	0.150490	0.891200	0.671400
H1801	H180	0.153400	0.828500	0.668400
C2711	C271	0.038860	0.025100	0.549290
H1811	H181	0.021800	0.011600	0.567600
C2721	C272	0.032630	0.103000	0.523400
H1821	H182	0.012600	0.142400	0.525500
C2731	C273	0.056850	0.121700	0.494180
C2741	C274	0.086600	0.060300	0.493300
H1831	H183	0.103300	0.070100	0.474200
C2751	C275	0.090900	0.986200	0.520500
H1841	H184	0.110800	0.945600	0.519300
C2761	C276	0.051400	0.205500	0.465180
C2771	C277	0.018750	0.333000	0.441210
C2781	C278	0.066650	0.286400	0.409260
C2791	C279	0.091520	0.302200	0.376900
C2801	C280	0.080800	0.356000	0.340100
H1851	H185	0.056600	0.383200	0.334200
C2811	C281	0.104800	0.370800	0.311800
H1861	H186	0.096200	0.407900	0.287000
C2821	C282	0.151000	0.283600	0.354100
H1871	H187	0.175500	0.258200	0.359600
C2831	C283	0.127900	0.265900	0.384100
H1881	H188	0.136900	0.229400	0.409100
C2841	C284	0.986610	0.397300	0.442420
C2851	C285	0.970000	0.402300	0.479200
H1891	H189	0.978900	0.365900	0.504200
C2861	C286	0.939790	0.462400	0.478200
H1901	H190	0.929000	0.466900	0.503400
C2871	C287	0.941600	0.508300	0.406900
H1911	H191	0.932000	0.544700	0.382100
C2881	C288	0.971700	0.450800	0.405400
H1921	H192	0.982000	0.447800	0.379800
N851	N85	0.336850	0.961100	0.896610
N861	N86	0.186460	0.505500	0.779130
N871	N87	0.122510	0.934600	0.642570
N881	N88	0.239620	0.184100	0.811860
N891	N89	0.187440	0.172900	0.748890
N901	N90	0.225370	0.041200	0.773020
N911	N91	0.067910	0.968500	0.549330
N921	N92	0.925520	0.514400	0.442330
N931	N93	0.140000	0.335300	0.317550
N941	N94	0.074060	0.212400	0.435460
N951	N95	0.024300	0.264000	0.470870
N961	N96	0.038920	0.347200	0.409640
Zn221	Zn22	0.172720	0.356220	0.271370
Zn231	Zn23	0.082710	0.863760	0.595240
Zn241	Zn24	0.380410	0.896850	0.940950
