data_IYOQIY_freeONLY_PM
_symmetry_space_group_name_H-M	'P1'
_cell_length_a	10.138200
_cell_length_b	12.913900
_cell_length_c	11.734100
_cell_angle_alpha	90.000000
_cell_angle_beta	110.040000
_cell_angle_gamma	90.000000
_symmetry_Int_Tables_number 1

loop_
_symmetry_equiv_pos_as_xyz
'x,y,z'

loop_
_atom_site_label
_atom_site_type_symbol
_atom_site_fract_x
_atom_site_fract_y
_atom_site_fract_z
Cd11	Cd1	0.787410	0.146010	0.227550
O11	O1	0.514000	0.178400	0.198100
O21	O2	0.616300	0.028700	0.194200
O31	O3	0.038600	0.151000	0.252600
O41	O4	0.911800	0.011800	0.187300
N11	N1	0.231500	0.747600	0.926000
N21	N2	0.212600	0.644100	0.912200
N31	N3	0.187200	0.606700	0.005400
N41	N4	0.188300	0.684000	0.082300
C11	C1	0.140000	0.013600	0.174000
C21	C2	0.264900	0.068000	0.192600
H11	H1	0.275700	0.133600	0.227300
C31	C3	0.372300	0.026400	0.160400
C41	C4	0.356700	0.928100	0.108100
H21	H2	0.429100	0.899000	0.087200
C51	C5	0.232400	0.874000	0.087600
C61	C6	0.125200	0.916600	0.121000
H31	H3	0.042600	0.879500	0.107700
C71	C7	0.025500	0.061100	0.207600
C81	C8	0.509100	0.083600	0.184600
C91	C9	0.215700	0.770200	0.031700
Cd21	Cd2	0.212590	0.646010	0.272450
O51	O5	0.486000	0.678400	0.301900
O61	O6	0.383700	0.528700	0.305800
O71	O7	0.961400	0.651000	0.247400
O81	O8	0.088200	0.511800	0.312700
N51	N5	0.768500	0.247600	0.574000
N61	N6	0.787400	0.144100	0.587800
N71	N7	0.812800	0.106700	0.494600
N81	N8	0.811700	0.184000	0.417700
C101	C10	0.860000	0.513600	0.326000
C111	C11	0.735100	0.568000	0.307400
H41	H4	0.724300	0.633600	0.272700
C121	C12	0.627700	0.526400	0.339600
C131	C13	0.643300	0.428100	0.391900
H51	H5	0.570900	0.399000	0.412800
C141	C14	0.767600	0.374000	0.412400
C151	C15	0.874800	0.416600	0.379000
H61	H6	0.957400	0.379500	0.392300
C161	C16	0.974500	0.561100	0.292400
C171	C17	0.490900	0.583600	0.315400
C181	C18	0.784300	0.270200	0.468300
Cd31	Cd3	0.212590	0.853990	0.772450
O91	O9	0.486000	0.821600	0.801900
O101	O10	0.383700	0.971300	0.805800
O111	O11	0.961400	0.849000	0.747400
O121	O12	0.088200	0.988200	0.812700
N91	N9	0.768500	0.252400	0.074000
N101	N10	0.787400	0.355900	0.087800
N111	N11	0.812800	0.393300	0.994600
N121	N12	0.811700	0.316000	0.917700
C191	C19	0.860000	0.986400	0.826000
C201	C20	0.735100	0.932000	0.807400
H71	H7	0.724300	0.866400	0.772700
C211	C21	0.627700	0.973600	0.839600
C221	C22	0.643300	0.071900	0.891900
H81	H8	0.570900	0.101000	0.912800
C231	C23	0.767600	0.126000	0.912400
C241	C24	0.874800	0.083400	0.879000
H91	H9	0.957400	0.120500	0.892300
C251	C25	0.974500	0.938900	0.792400
C261	C26	0.490900	0.916400	0.815400
C271	C27	0.784300	0.229800	0.968300
Cd41	Cd4	0.787410	0.353990	0.727550
O131	O13	0.514000	0.321600	0.698100
O141	O14	0.616300	0.471300	0.694200
O151	O15	0.038600	0.349000	0.752600
O161	O16	0.911800	0.488200	0.687300
N131	N13	0.231500	0.752400	0.426000
N141	N14	0.212600	0.855900	0.412200
N151	N15	0.187200	0.893300	0.505400
N161	N16	0.188300	0.816000	0.582300
C281	C28	0.140000	0.486400	0.674000
C291	C29	0.264900	0.432000	0.692600
H101	H10	0.275700	0.366400	0.727300
C301	C30	0.372300	0.473600	0.660400
C311	C31	0.356700	0.571900	0.608100
H111	H11	0.429100	0.601000	0.587200
C321	C32	0.232400	0.626000	0.587600
C331	C33	0.125200	0.583400	0.621000
H121	H12	0.042600	0.620500	0.607700
C341	C34	0.025500	0.438900	0.707600
C351	C35	0.509100	0.416400	0.684600
C361	C36	0.215700	0.729800	0.531700
