data_IYUCIQ_freeONLY_PM
_symmetry_space_group_name_H-M	'P1'
_cell_length_a	29.162000
_cell_length_b	21.924000
_cell_length_c	14.955000
_cell_angle_alpha	90.000000
_cell_angle_beta	103.380000
_cell_angle_gamma	90.000000
_symmetry_Int_Tables_number 1

loop_
_symmetry_equiv_pos_as_xyz
'x,y,z'

loop_
_atom_site_label
_atom_site_type_symbol
_atom_site_fract_x
_atom_site_fract_y
_atom_site_fract_z
Dy11	Dy1	0.235400	0.752040	0.327450
Dy21	Dy2	0.734020	0.263310	0.905540
O11	O1	0.802200	0.266700	0.841700
O21	O2	0.842000	0.229400	0.750400
O31	O3	0.201800	0.826800	0.884100
O41	O4	0.234200	0.823700	0.031400
O51	O5	0.210400	0.804000	0.450200
O61	O6	0.242200	0.866100	0.558000
O71	O7	0.301100	0.766600	0.449200
O81	O8	0.338900	0.721600	0.576800
O91	O9	0.723900	0.323900	0.713200
O101	O10	0.678200	0.326600	0.814100
O111	O11	0.715200	0.300300	0.273600
O121	O12	0.755800	0.357400	0.200200
N11	N1	0.983900	0.165500	0.135400
N21	N2	0.074000	0.028700	0.014800
N31	N3	0.093600	0.050700	0.333800
N41	N4	0.039700	0.108900	0.233400
N51	N5	0.085200	0.035400	0.175300
N61	N6	0.028100	0.094300	0.070600
N71	N7	0.492200	0.672600	0.343200
N81	N8	0.548500	0.614800	0.301600
N91	N9	0.606800	0.556000	0.264000
N101	N10	0.590000	0.540900	0.410100
N111	N11	0.531300	0.599800	0.449000
N121	N12	0.569700	0.529100	0.550100
C11	C1	0.839100	0.243200	0.830000
C21	C2	0.879100	0.224800	0.910600
C31	C3	0.914200	0.184300	0.895300
H11	H1	0.912900	0.170200	0.836200
C41	C4	0.948900	0.165800	0.964300
H21	H2	0.972300	0.140400	0.952200
C51	C5	0.951000	0.184000	0.054000
C61	C6	0.917900	0.225800	0.070900
H31	H3	0.920400	0.241200	0.129800
C71	C7	0.880600	0.244700	0.997900
H41	H4	0.857200	0.270500	0.009100
C81	C8	0.017800	0.120500	0.143800
C91	C9	0.069800	0.063000	0.244000
C101	C10	0.062000	0.052100	0.093600
C111	C11	0.106700	0.984600	0.011100
C121	C12	0.144000	0.963000	0.081400
H51	H5	0.148500	0.979300	0.140100
C131	C13	0.173200	0.919500	0.065100
H61	H6	0.195700	0.904400	0.114600
C141	C14	0.171800	0.895300	0.977400
C151	C15	0.138000	0.917500	0.908400
H71	H7	0.136000	0.902500	0.849500
C161	C16	0.106300	0.961200	0.920600
H81	H8	0.084300	0.975900	0.869900
C171	C17	0.205600	0.847700	0.967100
C181	C18	0.125100	0.005400	0.359700
C191	C19	0.157600	0.011100	0.445600
H91	H9	0.158600	0.047100	0.478800
C201	C20	0.187400	0.964900	0.480300
H101	H10	0.211100	0.971700	0.532800
C211	C21	0.183300	0.906300	0.438300
C221	C22	0.150700	0.898600	0.356800
H111	H11	0.148800	0.861700	0.325400
C231	C23	0.120500	0.946400	0.321400
H121	H12	0.096200	0.939100	0.270100
C241	C24	0.213700	0.855700	0.485000
C251	C25	0.336900	0.739000	0.498500
C261	C26	0.380700	0.726500	0.461300
C271	C27	0.413600	0.688800	0.509800
H131	H13	0.411400	0.675900	0.567800
C281	C28	0.452700	0.668000	0.472300
H141	H14	0.474500	0.639900	0.503400
C291	C29	0.455900	0.692000	0.388200
C301	C30	0.421700	0.729700	0.340900
H151	H15	0.423800	0.742600	0.282700
C311	C31	0.384100	0.749800	0.374800
H161	H16	0.362200	0.777400	0.342400
C321	C32	0.523300	0.626900	0.367200
C331	C33	0.562500	0.556700	0.467600
C341	C34	0.580900	0.570000	0.330200
C351	C35	0.635600	0.506700	0.266900
C361	C36	0.630100	0.450100	0.304400
H171	H17	0.605200	0.445200	0.332900
C371	C37	0.658800	0.400600	0.302400
H181	H18	0.654300	0.364300	0.331600
C381	C38	0.694700	0.406000	0.255500
C391	C39	0.700100	0.462400	0.214000
H191	H19	0.723200	0.466500	0.180900
C401	C40	0.672200	0.510700	0.221100
H201	H20	0.677600	0.547600	0.194700
C411	C41	0.600700	0.486800	0.593700
C421	C42	0.639300	0.464600	0.564600
H211	H21	0.646500	0.480400	0.511800
C431	C43	0.667000	0.419600	0.613100
H221	H22	0.691900	0.404200	0.590900
C441	C44	0.658900	0.396800	0.693700
C451	C45	0.621500	0.419200	0.722400
H231	H23	0.615400	0.404100	0.776500
C461	C46	0.592900	0.462400	0.676000
H241	H24	0.567600	0.476300	0.698600
C471	C47	0.687200	0.343500	0.741700
C481	C48	0.722000	0.351200	0.241100
Dy31	Dy3	0.764600	0.252040	0.172550
Dy41	Dy4	0.265980	0.763310	0.594460
O131	O13	0.197800	0.766700	0.658300
O141	O14	0.158000	0.729400	0.749600
O151	O15	0.798200	0.326800	0.615900
O161	O16	0.765800	0.323700	0.468600
O171	O17	0.789600	0.304000	0.049800
O181	O18	0.757800	0.366100	0.942000
O191	O19	0.698900	0.266600	0.050800
O201	O20	0.661100	0.221600	0.923200
O211	O21	0.276100	0.823900	0.786800
O221	O22	0.321800	0.826600	0.685900
O231	O23	0.284800	0.800300	0.226400
O241	O24	0.244200	0.857400	0.299800
N131	N13	0.016100	0.665500	0.364600
N141	N14	0.926000	0.528700	0.485200
N151	N15	0.906400	0.550700	0.166200
N161	N16	0.960300	0.608900	0.266600
N171	N17	0.914800	0.535400	0.324700
N181	N18	0.971900	0.594300	0.429400
N191	N19	0.507800	0.172600	0.156800
N201	N20	0.451500	0.114800	0.198400
N211	N21	0.393200	0.056000	0.236000
N221	N22	0.410000	0.040900	0.089900
N231	N23	0.468700	0.099800	0.051000
N241	N24	0.430300	0.029100	0.949900
C491	C49	0.160900	0.743200	0.670000
C501	C50	0.120900	0.724800	0.589400
C511	C51	0.085800	0.684300	0.604700
H251	H25	0.087100	0.670200	0.663800
C521	C52	0.051100	0.665800	0.535700
H261	H26	0.027700	0.640400	0.547800
C531	C53	0.049000	0.684000	0.446000
C541	C54	0.082100	0.725800	0.429100
H271	H27	0.079600	0.741200	0.370200
C551	C55	0.119400	0.744700	0.502100
H281	H28	0.142800	0.770500	0.490900
C561	C56	0.982200	0.620500	0.356200
C571	C57	0.930200	0.563000	0.256000
C581	C58	0.938000	0.552100	0.406400
C591	C59	0.893300	0.484600	0.488900
C601	C60	0.856000	0.463000	0.418600
H291	H29	0.851500	0.479300	0.359900
C611	C61	0.826800	0.419500	0.434900
H301	H30	0.804300	0.404400	0.385400
C621	C62	0.828200	0.395300	0.522600
C631	C63	0.862000	0.417500	0.591600
H311	H31	0.864000	0.402500	0.650500
C641	C64	0.893700	0.461200	0.579400
H321	H32	0.915700	0.475900	0.630100
C651	C65	0.794400	0.347700	0.532900
C661	C66	0.874900	0.505400	0.140300
C671	C67	0.842400	0.511100	0.054400
H331	H33	0.841400	0.547100	0.021200
C681	C68	0.812600	0.464900	0.019700
H341	H34	0.788900	0.471700	0.967200
C691	C69	0.816700	0.406300	0.061700
C701	C70	0.849300	0.398600	0.143200
H351	H35	0.851200	0.361700	0.174600
C711	C71	0.879500	0.446400	0.178600
H361	H36	0.903800	0.439100	0.229900
C721	C72	0.786300	0.355700	0.015000
C731	C73	0.663100	0.239000	0.001500
C741	C74	0.619300	0.226500	0.038700
C751	C75	0.586400	0.188800	0.990200
H371	H37	0.588600	0.175900	0.932200
C761	C76	0.547300	0.168000	0.027700
H381	H38	0.525500	0.139900	0.996600
C771	C77	0.544100	0.192000	0.111800
C781	C78	0.578300	0.229700	0.159100
H391	H39	0.576200	0.242600	0.217300
C791	C79	0.615900	0.249800	0.125200
H401	H40	0.637800	0.277400	0.157600
C801	C80	0.476700	0.126900	0.132800
C811	C81	0.437500	0.056700	0.032400
C821	C82	0.419100	0.070000	0.169800
C831	C83	0.364400	0.006700	0.233100
C841	C84	0.369900	0.950100	0.195600
H411	H41	0.394800	0.945200	0.167100
C851	C85	0.341200	0.900600	0.197600
H421	H42	0.345700	0.864300	0.168400
C861	C86	0.305300	0.906000	0.244500
C871	C87	0.299900	0.962400	0.286000
H431	H43	0.276800	0.966500	0.319100
C881	C88	0.327800	0.010700	0.278900
H441	H44	0.322400	0.047600	0.305300
C891	C89	0.399300	0.986800	0.906300
C901	C90	0.360700	0.964600	0.935400
H451	H45	0.353500	0.980400	0.988200
C911	C91	0.333000	0.919600	0.886900
H461	H46	0.308100	0.904200	0.909100
C921	C92	0.341100	0.896800	0.806300
C931	C93	0.378500	0.919200	0.777600
H471	H47	0.384600	0.904100	0.723500
C941	C94	0.407100	0.962400	0.824000
H481	H48	0.432400	0.976300	0.801400
C951	C95	0.312800	0.843500	0.758300
C961	C96	0.278000	0.851200	0.258900
Dy51	Dy5	0.764600	0.247960	0.672550
Dy61	Dy6	0.265980	0.736690	0.094460
O251	O25	0.197800	0.733300	0.158300
O261	O26	0.158000	0.770600	0.249600
O271	O27	0.798200	0.173200	0.115900
O281	O28	0.765800	0.176300	0.968600
O291	O29	0.789600	0.196000	0.549800
O301	O30	0.757800	0.133900	0.442000
O311	O31	0.698900	0.233400	0.550800
O321	O32	0.661100	0.278400	0.423200
O331	O33	0.276100	0.676100	0.286800
O341	O34	0.321800	0.673400	0.185900
O351	O35	0.284800	0.699700	0.726400
O361	O36	0.244200	0.642600	0.799800
N251	N25	0.016100	0.834500	0.864600
N261	N26	0.926000	0.971300	0.985200
N271	N27	0.906400	0.949300	0.666200
N281	N28	0.960300	0.891100	0.766600
N291	N29	0.914800	0.964600	0.824700
N301	N30	0.971900	0.905700	0.929400
N311	N31	0.507800	0.327400	0.656800
N321	N32	0.451500	0.385200	0.698400
N331	N33	0.393200	0.444000	0.736000
N341	N34	0.410000	0.459100	0.589900
N351	N35	0.468700	0.400200	0.551000
N361	N36	0.430300	0.470900	0.449900
C971	C97	0.160900	0.756800	0.170000
C981	C98	0.120900	0.775200	0.089400
C991	C99	0.085800	0.815700	0.104700
H491	H49	0.087100	0.829800	0.163800
C1001	C100	0.051100	0.834200	0.035700
H501	H50	0.027700	0.859600	0.047800
C1011	C101	0.049000	0.816000	0.946000
C1021	C102	0.082100	0.774200	0.929100
H511	H51	0.079600	0.758800	0.870200
C1031	C103	0.119400	0.755300	0.002100
H521	H52	0.142800	0.729500	0.990900
C1041	C104	0.982200	0.879500	0.856200
C1051	C105	0.930200	0.937000	0.756000
C1061	C106	0.938000	0.947900	0.906400
C1071	C107	0.893300	0.015400	0.988900
C1081	C108	0.856000	0.037000	0.918600
H531	H53	0.851500	0.020700	0.859900
C1091	C109	0.826800	0.080500	0.934900
H541	H54	0.804300	0.095600	0.885400
C1101	C110	0.828200	0.104700	0.022600
C1111	C111	0.862000	0.082500	0.091600
H551	H55	0.864000	0.097500	0.150500
C1121	C112	0.893700	0.038800	0.079400
H561	H56	0.915700	0.024100	0.130100
C1131	C113	0.794400	0.152300	0.032900
C1141	C114	0.874900	0.994600	0.640300
C1151	C115	0.842400	0.988900	0.554400
H571	H57	0.841400	0.952900	0.521200
C1161	C116	0.812600	0.035100	0.519700
H581	H58	0.788900	0.028300	0.467200
C1171	C117	0.816700	0.093700	0.561700
C1181	C118	0.849300	0.101400	0.643200
H591	H59	0.851200	0.138300	0.674600
C1191	C119	0.879500	0.053600	0.678600
H601	H60	0.903800	0.060900	0.729900
C1201	C120	0.786300	0.144300	0.515000
C1211	C121	0.663100	0.261000	0.501500
C1221	C122	0.619300	0.273500	0.538700
C1231	C123	0.586400	0.311200	0.490200
H611	H61	0.588600	0.324100	0.432200
C1241	C124	0.547300	0.332000	0.527700
H621	H62	0.525500	0.360100	0.496600
C1251	C125	0.544100	0.308000	0.611800
C1261	C126	0.578300	0.270300	0.659100
H631	H63	0.576200	0.257400	0.717300
C1271	C127	0.615900	0.250200	0.625200
H641	H64	0.637800	0.222600	0.657600
C1281	C128	0.476700	0.373100	0.632800
C1291	C129	0.437500	0.443300	0.532400
C1301	C130	0.419100	0.430000	0.669800
C1311	C131	0.364400	0.493300	0.733100
C1321	C132	0.369900	0.549900	0.695600
H651	H65	0.394800	0.554800	0.667100
C1331	C133	0.341200	0.599400	0.697600
H661	H66	0.345700	0.635700	0.668400
C1341	C134	0.305300	0.594000	0.744500
C1351	C135	0.299900	0.537600	0.786000
H671	H67	0.276800	0.533500	0.819100
C1361	C136	0.327800	0.489300	0.778900
H681	H68	0.322400	0.452400	0.805300
C1371	C137	0.399300	0.513200	0.406300
C1381	C138	0.360700	0.535400	0.435400
H691	H69	0.353500	0.519600	0.488200
C1391	C139	0.333000	0.580400	0.386900
H701	H70	0.308100	0.595800	0.409100
C1401	C140	0.341100	0.603200	0.306300
C1411	C141	0.378500	0.580800	0.277600
H711	H71	0.384600	0.595900	0.223500
C1421	C142	0.407100	0.537600	0.324000
H721	H72	0.432400	0.523700	0.301400
C1431	C143	0.312800	0.656500	0.258300
C1441	C144	0.278000	0.648800	0.758900
Dy71	Dy7	0.235400	0.747960	0.827450
Dy81	Dy8	0.734020	0.236690	0.405540
O371	O37	0.802200	0.233300	0.341700
O381	O38	0.842000	0.270600	0.250400
O391	O39	0.201800	0.673200	0.384100
O401	O40	0.234200	0.676300	0.531400
O411	O41	0.210400	0.696000	0.950200
O421	O42	0.242200	0.633900	0.058000
O431	O43	0.301100	0.733400	0.949200
O441	O44	0.338900	0.778400	0.076800
O451	O45	0.723900	0.176100	0.213200
O461	O46	0.678200	0.173400	0.314100
O471	O47	0.715200	0.199700	0.773600
O481	O48	0.755800	0.142600	0.700200
N371	N37	0.983900	0.334500	0.635400
N381	N38	0.074000	0.471300	0.514800
N391	N39	0.093600	0.449300	0.833800
N401	N40	0.039700	0.391100	0.733400
N411	N41	0.085200	0.464600	0.675300
N421	N42	0.028100	0.405700	0.570600
N431	N43	0.492200	0.827400	0.843200
N441	N44	0.548500	0.885200	0.801600
N451	N45	0.606800	0.944000	0.764000
N461	N46	0.590000	0.959100	0.910100
N471	N47	0.531300	0.900200	0.949000
N481	N48	0.569700	0.970900	0.050100
C1451	C145	0.839100	0.256800	0.330000
C1461	C146	0.879100	0.275200	0.410600
C1471	C147	0.914200	0.315700	0.395300
H731	H73	0.912900	0.329800	0.336200
C1481	C148	0.948900	0.334200	0.464300
H741	H74	0.972300	0.359600	0.452200
C1491	C149	0.951000	0.316000	0.554000
C1501	C150	0.917900	0.274200	0.570900
H751	H75	0.920400	0.258800	0.629800
C1511	C151	0.880600	0.255300	0.497900
H761	H76	0.857200	0.229500	0.509100
C1521	C152	0.017800	0.379500	0.643800
C1531	C153	0.069800	0.437000	0.744000
C1541	C154	0.062000	0.447900	0.593600
C1551	C155	0.106700	0.515400	0.511100
C1561	C156	0.144000	0.537000	0.581400
H771	H77	0.148500	0.520700	0.640100
C1571	C157	0.173200	0.580500	0.565100
H781	H78	0.195700	0.595600	0.614600
C1581	C158	0.171800	0.604700	0.477400
C1591	C159	0.138000	0.582500	0.408400
H791	H79	0.136000	0.597500	0.349500
C1601	C160	0.106300	0.538800	0.420600
H801	H80	0.084300	0.524100	0.369900
C1611	C161	0.205600	0.652300	0.467100
C1621	C162	0.125100	0.494600	0.859700
C1631	C163	0.157600	0.488900	0.945600
H811	H81	0.158600	0.452900	0.978800
C1641	C164	0.187400	0.535100	0.980300
H821	H82	0.211100	0.528300	0.032800
C1651	C165	0.183300	0.593700	0.938300
C1661	C166	0.150700	0.601400	0.856800
H831	H83	0.148800	0.638300	0.825400
C1671	C167	0.120500	0.553600	0.821400
H841	H84	0.096200	0.560900	0.770100
C1681	C168	0.213700	0.644300	0.985000
C1691	C169	0.336900	0.761000	0.998500
C1701	C170	0.380700	0.773500	0.961300
C1711	C171	0.413600	0.811200	0.009800
H851	H85	0.411400	0.824100	0.067800
C1721	C172	0.452700	0.832000	0.972300
H861	H86	0.474500	0.860100	0.003400
C1731	C173	0.455900	0.808000	0.888200
C1741	C174	0.421700	0.770300	0.840900
H871	H87	0.423800	0.757400	0.782700
C1751	C175	0.384100	0.750200	0.874800
H881	H88	0.362200	0.722600	0.842400
C1761	C176	0.523300	0.873100	0.867200
C1771	C177	0.562500	0.943300	0.967600
C1781	C178	0.580900	0.930000	0.830200
C1791	C179	0.635600	0.993300	0.766900
C1801	C180	0.630100	0.049900	0.804400
H891	H89	0.605200	0.054800	0.832900
C1811	C181	0.658800	0.099400	0.802400
H901	H90	0.654300	0.135700	0.831600
C1821	C182	0.694700	0.094000	0.755500
C1831	C183	0.700100	0.037600	0.714000
H911	H91	0.723200	0.033500	0.680900
C1841	C184	0.672200	0.989300	0.721100
H921	H92	0.677600	0.952400	0.694700
C1851	C185	0.600700	0.013200	0.093700
C1861	C186	0.639300	0.035400	0.064600
H931	H93	0.646500	0.019600	0.011800
C1871	C187	0.667000	0.080400	0.113100
H941	H94	0.691900	0.095800	0.090900
C1881	C188	0.658900	0.103200	0.193700
C1891	C189	0.621500	0.080800	0.222400
H951	H95	0.615400	0.095900	0.276500
C1901	C190	0.592900	0.037600	0.176000
H961	H96	0.567600	0.023700	0.198600
C1911	C191	0.687200	0.156500	0.241700
C1921	C192	0.722000	0.148800	0.741100
