data_IYUHEQ_freeONLY_PM
_symmetry_space_group_name_H-M	'P1'
_cell_length_a	12.365100
_cell_length_b	12.365100
_cell_length_c	37.484900
_cell_angle_alpha	90.000000
_cell_angle_beta	90.000000
_cell_angle_gamma	120.000000
_symmetry_Int_Tables_number 1

loop_
_symmetry_equiv_pos_as_xyz
'x,y,z'

loop_
_atom_site_label
_atom_site_type_symbol
_atom_site_fract_x
_atom_site_fract_y
_atom_site_fract_z
In11	In1	0.550720	0.166620	0.380570
O11	O1	0.596300	0.311300	0.343110
O21	O2	0.390900	0.003300	0.359810
O31	O3	0.397300	0.253300	0.332680
O41	O4	0.257300	0.027500	0.394100
O51	O5	0.736900	0.286700	0.403490
N11	N1	0.515800	0.544300	0.256720
N21	N2	0.123600	0.476200	0.402000
C11	C1	0.123600	0.647400	0.431400
N31	N3	0.113800	0.663900	0.322470
C21	C2	0.203200	0.771800	0.335100
H11	H1	0.285600	0.798500	0.329000
C31	C3	0.480400	0.445100	0.278200
H21	H2	0.399100	0.378500	0.276200
C41	C4	0.557600	0.436600	0.303100
C51	C5	0.056900	0.805100	0.367800
H31	H3	0.036900	0.852500	0.382800
C61	C6	0.507600	0.322400	0.327900
C71	C7	0.995100	0.622400	0.332400
H41	H4	0.932700	0.546500	0.323500
C81	C8	0.633700	0.641700	0.260300
H51	H5	0.660100	0.712200	0.246100
C91	C9	0.678300	0.535400	0.306100
H61	H6	0.733600	0.532400	0.322300
C101	C10	0.715100	0.637500	0.284700
H71	H7	0.795800	0.704900	0.286700
C111	C11	0.282400	0.969800	0.372100
C121	C12	0.962300	0.687500	0.355200
H81	H8	0.879700	0.655300	0.362200
C131	C13	0.995500	0.410200	0.401700
C141	C14	0.177800	0.847900	0.357700
In21	In2	0.833380	0.384100	0.047230
O61	O6	0.688700	0.285000	0.009780
O71	O7	0.996700	0.387600	0.026480
O81	O8	0.746700	0.144000	0.999350
O91	O9	0.972500	0.229800	0.060770
O101	O10	0.713300	0.450200	0.070160
N41	N4	0.455700	0.971500	0.923390
N51	N5	0.523800	0.647400	0.068670
C151	C15	0.352600	0.476200	0.098070
N61	N6	0.336100	0.449900	0.989140
C161	C16	0.228200	0.431400	0.001770
H91	H9	0.201500	0.487100	0.995670
C171	C17	0.554900	0.035300	0.944870
H101	H10	0.621500	0.020600	0.942870
C181	C18	0.563400	0.121000	0.969770
C191	C19	0.194900	0.251800	0.034470
H111	H11	0.147500	0.184400	0.049470
C201	C20	0.677600	0.185200	0.994570
C211	C21	0.377600	0.372700	0.999070
H121	H12	0.453500	0.386200	0.990170
C221	C22	0.358300	0.992000	0.926970
H131	H13	0.287800	0.947900	0.912770
C231	C23	0.464600	0.142900	0.972770
H141	H14	0.467600	0.201200	0.988970
C241	C24	0.362500	0.077600	0.951370
H151	H15	0.295100	0.090900	0.953370
C251	C25	0.030200	0.312600	0.038770
C261	C26	0.312500	0.274800	0.021870
H161	H16	0.344700	0.224400	0.028870
C271	C27	0.589800	0.585300	0.068370
C281	C28	0.152100	0.329900	0.024370
In31	In3	0.615900	0.449280	0.713900
O111	O11	0.715000	0.403700	0.676440
O121	O12	0.612400	0.609100	0.693140
O131	O13	0.856000	0.602700	0.666010
O141	O14	0.770200	0.742700	0.727430
O151	O15	0.549800	0.263100	0.736820
N71	N7	0.028500	0.484200	0.590050
N81	N8	0.352600	0.876400	0.735330
C291	C29	0.523800	0.876400	0.764730
N91	N9	0.550100	0.886200	0.655800
C301	C30	0.568600	0.796800	0.668430
H171	H17	0.512900	0.714400	0.662330
C311	C31	0.964700	0.519600	0.611530
H181	H18	0.979400	0.600900	0.609530
C321	C32	0.879000	0.442400	0.636430
C331	C33	0.748200	0.943100	0.701130
H191	H19	0.815600	0.963100	0.716130
C341	C34	0.814800	0.492400	0.661230
C351	C35	0.627300	0.004900	0.665730
H201	H20	0.613800	0.067300	0.656830
C361	C36	0.008000	0.366300	0.593630
H211	H21	0.052100	0.339900	0.579430
C371	C37	0.857100	0.321700	0.639430
H221	H22	0.798800	0.266400	0.655630
C381	C38	0.922400	0.284900	0.618030
H231	H23	0.909100	0.204200	0.620030
C391	C39	0.687400	0.717600	0.705430
C401	C40	0.725200	0.037700	0.688530
H241	H24	0.775600	0.120300	0.695530
C411	C41	0.414700	0.004500	0.735030
C421	C42	0.670100	0.822200	0.691030
In41	In4	0.449280	0.833380	0.880570
O161	O16	0.403700	0.688700	0.843110
O171	O17	0.609100	0.996700	0.859810
O181	O18	0.602700	0.746700	0.832680
O191	O19	0.742700	0.972500	0.894100
O201	O20	0.263100	0.713300	0.903490
N101	N10	0.484200	0.455700	0.756720
N111	N11	0.876400	0.523800	0.902000
C431	C43	0.876400	0.352600	0.931400
N121	N12	0.886200	0.336100	0.822470
C441	C44	0.796800	0.228200	0.835100
H251	H25	0.714400	0.201500	0.829000
C451	C45	0.519600	0.554900	0.778200
H261	H26	0.600900	0.621500	0.776200
C461	C46	0.442400	0.563400	0.803100
C471	C47	0.943100	0.194900	0.867800
H271	H27	0.963100	0.147500	0.882800
C481	C48	0.492400	0.677600	0.827900
C491	C49	0.004900	0.377600	0.832400
H281	H28	0.067300	0.453500	0.823500
C501	C50	0.366300	0.358300	0.760300
H291	H29	0.339900	0.287800	0.746100
C511	C51	0.321700	0.464600	0.806100
H301	H30	0.266400	0.467600	0.822300
C521	C52	0.284900	0.362500	0.784700
H311	H31	0.204200	0.295100	0.786700
C531	C53	0.717600	0.030200	0.872100
C541	C54	0.037700	0.312500	0.855200
H321	H32	0.120300	0.344700	0.862200
C551	C55	0.004500	0.589800	0.901700
C561	C56	0.822200	0.152100	0.857700
In51	In5	0.166620	0.615900	0.547230
O211	O21	0.311300	0.715000	0.509780
O221	O22	0.003300	0.612400	0.526480
O231	O23	0.253300	0.856000	0.499350
O241	O24	0.027500	0.770200	0.560770
O251	O25	0.286700	0.549800	0.570160
N131	N13	0.544300	0.028500	0.423390
N141	N14	0.476200	0.352600	0.568670
C571	C57	0.647400	0.523800	0.598070
N151	N15	0.663900	0.550100	0.489140
C581	C58	0.771800	0.568600	0.501770
H331	H33	0.798500	0.512900	0.495670
C591	C59	0.445100	0.964700	0.444870
H341	H34	0.378500	0.979400	0.442870
C601	C60	0.436600	0.879000	0.469770
C611	C61	0.805100	0.748200	0.534470
H351	H35	0.852500	0.815600	0.549470
C621	C62	0.322400	0.814800	0.494570
C631	C63	0.622400	0.627300	0.499070
H361	H36	0.546500	0.613800	0.490170
C641	C64	0.641700	0.008000	0.426970
H371	H37	0.712200	0.052100	0.412770
C651	C65	0.535400	0.857100	0.472770
H381	H38	0.532400	0.798800	0.488970
C661	C66	0.637500	0.922400	0.451370
H391	H39	0.704900	0.909100	0.453370
C671	C67	0.969800	0.687400	0.538770
C681	C68	0.687500	0.725200	0.521870
H401	H40	0.655300	0.775600	0.528870
C691	C69	0.410200	0.414700	0.568370
C701	C70	0.847900	0.670100	0.524370
In61	In6	0.384100	0.550720	0.213900
O261	O26	0.285000	0.596300	0.176440
O271	O27	0.387600	0.390900	0.193140
O281	O28	0.144000	0.397300	0.166010
O291	O29	0.229800	0.257300	0.227430
O301	O30	0.450200	0.736900	0.236820
N161	N16	0.971500	0.515800	0.090050
N171	N17	0.647400	0.123600	0.235330
C711	C71	0.476200	0.123600	0.264730
N181	N18	0.449900	0.113800	0.155800
C721	C72	0.431400	0.203200	0.168430
H411	H41	0.487100	0.285600	0.162330
C731	C73	0.035300	0.480400	0.111530
H421	H42	0.020600	0.399100	0.109530
C741	C74	0.121000	0.557600	0.136430
C751	C75	0.251800	0.056900	0.201130
H431	H43	0.184400	0.036900	0.216130
C761	C76	0.185200	0.507600	0.161230
C771	C77	0.372700	0.995100	0.165730
H441	H44	0.386200	0.932700	0.156830
C781	C78	0.992000	0.633700	0.093630
H451	H45	0.947900	0.660100	0.079430
C791	C79	0.142900	0.678300	0.139430
H461	H46	0.201200	0.733600	0.155630
C801	C80	0.077600	0.715100	0.118030
H471	H47	0.090900	0.795800	0.120030
C811	C81	0.312600	0.282400	0.205430
C821	C82	0.274800	0.962300	0.188530
H481	H48	0.224400	0.879700	0.195530
C831	C83	0.585300	0.995500	0.235030
C841	C84	0.329900	0.177800	0.191030
In71	In7	0.166620	0.550720	0.286100
O311	O31	0.311300	0.596300	0.323560
O321	O32	0.003300	0.390900	0.306860
O331	O33	0.253300	0.397300	0.333990
O341	O34	0.027500	0.257300	0.272570
O351	O35	0.286700	0.736900	0.263180
N191	N19	0.544300	0.515800	0.409950
N201	N20	0.663900	0.113800	0.344200
C851	C85	0.771800	0.203200	0.331570
H491	H49	0.798500	0.285600	0.337670
C861	C86	0.445100	0.480400	0.388470
H501	H50	0.378500	0.399100	0.390470
C871	C87	0.436600	0.557600	0.363570
C881	C88	0.805100	0.056900	0.298870
H511	H51	0.852500	0.036900	0.283870
C891	C89	0.322400	0.507600	0.338770
C901	C90	0.622400	0.995100	0.334270
H521	H52	0.546500	0.932700	0.343170
C911	C91	0.641700	0.633700	0.406370
H531	H53	0.712200	0.660100	0.420570
C921	C92	0.535400	0.678300	0.360570
H541	H54	0.532400	0.733600	0.344370
C931	C93	0.637500	0.715100	0.381970
H551	H55	0.704900	0.795800	0.379970
C941	C94	0.969800	0.282400	0.294570
C951	C95	0.687500	0.962300	0.311470
H561	H56	0.655300	0.879700	0.304470
C961	C96	0.410200	0.995500	0.264970
C971	C97	0.847900	0.177800	0.308970
In81	In8	0.384100	0.833380	0.619430
O361	O36	0.285000	0.688700	0.656890
O371	O37	0.387600	0.996700	0.640190
O381	O38	0.144000	0.746700	0.667320
O391	O39	0.229800	0.972500	0.605900
O401	O40	0.450200	0.713300	0.596510
N211	N21	0.971500	0.455700	0.743280
N221	N22	0.449900	0.336100	0.677530
C981	C98	0.431400	0.228200	0.664900
H571	H57	0.487100	0.201500	0.671000
C991	C99	0.035300	0.554900	0.721800
H581	H58	0.020600	0.621500	0.723800
C1001	C100	0.121000	0.563400	0.696900
C1011	C101	0.251800	0.194900	0.632200
H591	H59	0.184400	0.147500	0.617200
C1021	C102	0.185200	0.677600	0.672100
C1031	C103	0.372700	0.377600	0.667600
H601	H60	0.386200	0.453500	0.676500
C1041	C104	0.992000	0.358300	0.739700
H611	H61	0.947900	0.287800	0.753900
C1051	C105	0.142900	0.464600	0.693900
H621	H62	0.201200	0.467600	0.677700
C1061	C106	0.077600	0.362500	0.715300
H631	H63	0.090900	0.295100	0.713300
C1071	C107	0.312600	0.030200	0.627900
C1081	C108	0.274800	0.312500	0.644800
H641	H64	0.224400	0.344700	0.637800
C1091	C109	0.585300	0.589800	0.598300
C1101	C110	0.329900	0.152100	0.642300
In91	In9	0.449280	0.615900	0.952770
O411	O41	0.403700	0.715000	0.990220
O421	O42	0.609100	0.612400	0.973520
O431	O43	0.602700	0.856000	0.000650
O441	O44	0.742700	0.770200	0.939230
O451	O45	0.263100	0.549800	0.929840
N231	N23	0.484200	0.028500	0.076610
N241	N24	0.886200	0.550100	0.010860
C1111	C111	0.796800	0.568600	0.998230
H651	H65	0.714400	0.512900	0.004330
C1121	C112	0.519600	0.964700	0.055130
H661	H66	0.600900	0.979400	0.057130
C1131	C113	0.442400	0.879000	0.030230
C1141	C114	0.943100	0.748200	0.965530
H671	H67	0.963100	0.815600	0.950530
C1151	C115	0.492400	0.814800	0.005430
C1161	C116	0.004900	0.627300	0.000930
H681	H68	0.067300	0.613800	0.009830
C1171	C117	0.366300	0.008000	0.073030
H691	H69	0.339900	0.052100	0.087230
C1181	C118	0.321700	0.857100	0.027230
H701	H70	0.266400	0.798800	0.011030
C1191	C119	0.284900	0.922400	0.048630
H711	H71	0.204200	0.909100	0.046630
C1201	C120	0.717600	0.687400	0.961230
C1211	C121	0.037700	0.725200	0.978130
H721	H72	0.120300	0.775600	0.971130
C1221	C122	0.004500	0.414700	0.931630
C1231	C123	0.822200	0.670100	0.975630
In101	In10	0.833380	0.449280	0.786100
O461	O46	0.688700	0.403700	0.823560
O471	O47	0.996700	0.609100	0.806860
O481	O48	0.746700	0.602700	0.833990
O491	O49	0.972500	0.742700	0.772570
O501	O50	0.713300	0.263100	0.763180
N251	N25	0.455700	0.484200	0.909950
N261	N26	0.336100	0.886200	0.844200
C1241	C124	0.228200	0.796800	0.831570
H731	H73	0.201500	0.714400	0.837670
C1251	C125	0.554900	0.519600	0.888470
H741	H74	0.621500	0.600900	0.890470
C1261	C126	0.563400	0.442400	0.863570
C1271	C127	0.194900	0.943100	0.798870
H751	H75	0.147500	0.963100	0.783870
C1281	C128	0.677600	0.492400	0.838770
C1291	C129	0.377600	0.004900	0.834270
H761	H76	0.453500	0.067300	0.843170
C1301	C130	0.358300	0.366300	0.906370
H771	H77	0.287800	0.339900	0.920570
C1311	C131	0.464600	0.321700	0.860570
H781	H78	0.467600	0.266400	0.844370
C1321	C132	0.362500	0.284900	0.881970
H791	H79	0.295100	0.204200	0.879970
C1331	C133	0.030200	0.717600	0.794570
C1341	C134	0.312500	0.037700	0.811470
H801	H80	0.344700	0.120300	0.804470
C1351	C135	0.589800	0.004500	0.764970
C1361	C136	0.152100	0.822200	0.808970
In111	In11	0.615900	0.166620	0.119430
O511	O51	0.715000	0.311300	0.156890
O521	O52	0.612400	0.003300	0.140190
O531	O53	0.856000	0.253300	0.167320
O541	O54	0.770200	0.027500	0.105900
O551	O55	0.549800	0.286700	0.096510
N271	N27	0.028500	0.544300	0.243280
N281	N28	0.550100	0.663900	0.177530
C1371	C137	0.568600	0.771800	0.164900
H811	H81	0.512900	0.798500	0.171000
C1381	C138	0.964700	0.445100	0.221800
H821	H82	0.979400	0.378500	0.223800
C1391	C139	0.879000	0.436600	0.196900
C1401	C140	0.748200	0.805100	0.132200
H831	H83	0.815600	0.852500	0.117200
C1411	C141	0.814800	0.322400	0.172100
C1421	C142	0.627300	0.622400	0.167600
H841	H84	0.613800	0.546500	0.176500
C1431	C143	0.008000	0.641700	0.239700
H851	H85	0.052100	0.712200	0.253900
C1441	C144	0.857100	0.535400	0.193900
H861	H86	0.798800	0.532400	0.177700
C1451	C145	0.922400	0.637500	0.215300
H871	H87	0.909100	0.704900	0.213300
C1461	C146	0.687400	0.969800	0.127900
C1471	C147	0.725200	0.687500	0.144800
H881	H88	0.775600	0.655300	0.137800
C1481	C148	0.414700	0.410200	0.098300
C1491	C149	0.670100	0.847900	0.142300
In121	In12	0.550720	0.384100	0.452770
O561	O56	0.596300	0.285000	0.490220
O571	O57	0.390900	0.387600	0.473520
O581	O58	0.397300	0.144000	0.500650
O591	O59	0.257300	0.229800	0.439230
O601	O60	0.736900	0.450200	0.429840
N291	N29	0.515800	0.971500	0.576610
N301	N30	0.113800	0.449900	0.510860
C1501	C150	0.203200	0.431400	0.498230
H891	H89	0.285600	0.487100	0.504330
C1511	C151	0.480400	0.035300	0.555130
H901	H90	0.399100	0.020600	0.557130
C1521	C152	0.557600	0.121000	0.530230
C1531	C153	0.056900	0.251800	0.465530
H911	H91	0.036900	0.184400	0.450530
C1541	C154	0.507600	0.185200	0.505430
C1551	C155	0.995100	0.372700	0.500930
H921	H92	0.932700	0.386200	0.509830
C1561	C156	0.633700	0.992000	0.573030
H931	H93	0.660100	0.947900	0.587230
C1571	C157	0.678300	0.142900	0.527230
H941	H94	0.733600	0.201200	0.511030
C1581	C158	0.715100	0.077600	0.548630
H951	H95	0.795800	0.090900	0.546630
C1591	C159	0.282400	0.312600	0.461230
C1601	C160	0.962300	0.274800	0.478130
H961	H96	0.879700	0.224400	0.471130
C1611	C161	0.995500	0.585300	0.431630
C1621	C162	0.177800	0.329900	0.475630
O611	O61	0.475100	0.237550	0.416670
C1631	C163	0.791600	0.395800	0.416670
C1641	C164	0.187600	0.593800	0.416670
C1651	C165	0.930200	0.465100	0.416670
O621	O62	0.762450	0.237550	0.083330
C1661	C166	0.604200	0.395800	0.083330
C1671	C167	0.406200	0.593800	0.083330
C1681	C168	0.534900	0.465100	0.083330
O631	O63	0.762450	0.524900	0.750000
C1691	C169	0.604200	0.208400	0.750000
C1701	C170	0.406200	0.812400	0.750000
C1711	C171	0.534900	0.069800	0.750000
O641	O64	0.524900	0.762450	0.916670
C1721	C172	0.208400	0.604200	0.916670
C1731	C173	0.812400	0.406200	0.916670
C1741	C174	0.069800	0.534900	0.916670
O651	O65	0.237550	0.762450	0.583330
C1751	C175	0.395800	0.604200	0.583330
C1761	C176	0.593800	0.406200	0.583330
C1771	C177	0.465100	0.534900	0.583330
O661	O66	0.237550	0.475100	0.250000
C1781	C178	0.395800	0.791600	0.250000
C1791	C179	0.593800	0.187600	0.250000
C1801	C180	0.465100	0.930200	0.250000
