data_IYUROK_freeONLY_PM
_symmetry_space_group_name_H-M	'P1'
_cell_length_a	12.868000
_cell_length_b	13.351000
_cell_length_c	10.526000
_cell_angle_alpha	90.000000
_cell_angle_beta	104.390000
_cell_angle_gamma	90.000000
_symmetry_Int_Tables_number 1

loop_
_symmetry_equiv_pos_as_xyz
'x,y,z'

loop_
_atom_site_label
_atom_site_type_symbol
_atom_site_fract_x
_atom_site_fract_y
_atom_site_fract_z
O11	O1	0.609400	0.469100	0.239400
O21	O2	0.604300	0.562300	0.416500
N11	N1	0.877700	0.746200	0.254200
N21	N2	0.543700	0.635600	0.956100
N31	N3	0.537200	0.708000	0.022100
N41	N4	0.531200	0.776300	0.084400
C11	C1	0.719200	0.613800	0.287500
C21	C2	0.788100	0.588800	0.212400
H11	H1	0.783700	0.526300	0.172200
C31	C3	0.864600	0.657700	0.197000
H21	H2	0.909200	0.640400	0.143200
C41	C4	0.637400	0.541900	0.316300
C51	C5	0.807400	0.772400	0.323400
H31	H3	0.812300	0.836100	0.360300
C61	C6	0.728500	0.708900	0.341600
H41	H4	0.681300	0.729700	0.390400
O31	O3	0.109400	0.969100	0.239400
O41	O4	0.104300	0.062300	0.416500
N51	N5	0.377700	0.246200	0.254200
N61	N6	0.043700	0.135600	0.956100
N71	N7	0.037200	0.208000	0.022100
N81	N8	0.031200	0.276300	0.084400
C71	C7	0.219200	0.113800	0.287500
C81	C8	0.288100	0.088800	0.212400
H51	H5	0.283700	0.026300	0.172200
C91	C9	0.364600	0.157700	0.197000
H61	H6	0.409200	0.140400	0.143200
C101	C10	0.137400	0.041900	0.316300
C111	C11	0.307400	0.272400	0.323400
H71	H7	0.312300	0.336100	0.360300
C121	C12	0.228500	0.208900	0.341600
H81	H8	0.181300	0.229700	0.390400
O51	O5	0.390600	0.469100	0.260600
O61	O6	0.395700	0.562300	0.083500
N91	N9	0.122300	0.746200	0.245800
N101	N10	0.456300	0.635600	0.543900
N111	N11	0.462800	0.708000	0.477900
N121	N12	0.468800	0.776300	0.415600
C131	C13	0.280800	0.613800	0.212500
C141	C14	0.211900	0.588800	0.287600
H91	H9	0.216300	0.526300	0.327800
C151	C15	0.135400	0.657700	0.303000
H101	H10	0.090800	0.640400	0.356800
C161	C16	0.362600	0.541900	0.183700
C171	C17	0.192600	0.772400	0.176600
H111	H11	0.187700	0.836100	0.139700
C181	C18	0.271500	0.708900	0.158400
H121	H12	0.318700	0.729700	0.109600
O71	O7	0.890600	0.969100	0.260600
O81	O8	0.895700	0.062300	0.083500
N131	N13	0.622300	0.246200	0.245800
N141	N14	0.956300	0.135600	0.543900
N151	N15	0.962800	0.208000	0.477900
N161	N16	0.968800	0.276300	0.415600
C191	C19	0.780800	0.113800	0.212500
C201	C20	0.711900	0.088800	0.287600
H131	H13	0.716300	0.026300	0.327800
C211	C21	0.635400	0.157700	0.303000
H141	H14	0.590800	0.140400	0.356800
C221	C22	0.862600	0.041900	0.183700
C231	C23	0.692600	0.272400	0.176600
H151	H15	0.687700	0.336100	0.139700
C241	C24	0.771500	0.208900	0.158400
H161	H16	0.818700	0.229700	0.109600
O91	O9	0.390600	0.530900	0.760600
O101	O10	0.395700	0.437700	0.583500
N171	N17	0.122300	0.253800	0.745800
N181	N18	0.456300	0.364400	0.043900
N191	N19	0.462800	0.292000	0.977900
N201	N20	0.468800	0.223700	0.915600
C251	C25	0.280800	0.386200	0.712500
C261	C26	0.211900	0.411200	0.787600
H171	H17	0.216300	0.473700	0.827800
C271	C27	0.135400	0.342300	0.803000
H181	H18	0.090800	0.359600	0.856800
C281	C28	0.362600	0.458100	0.683700
C291	C29	0.192600	0.227600	0.676600
H191	H19	0.187700	0.163900	0.639700
C301	C30	0.271500	0.291100	0.658400
H201	H20	0.318700	0.270300	0.609600
O111	O11	0.890600	0.030900	0.760600
O121	O12	0.895700	0.937700	0.583500
N211	N21	0.622300	0.753800	0.745800
N221	N22	0.956300	0.864400	0.043900
N231	N23	0.962800	0.792000	0.977900
N241	N24	0.968800	0.723700	0.915600
C311	C31	0.780800	0.886200	0.712500
C321	C32	0.711900	0.911200	0.787600
H211	H21	0.716300	0.973700	0.827800
C331	C33	0.635400	0.842300	0.803000
H221	H22	0.590800	0.859600	0.856800
C341	C34	0.862600	0.958100	0.683700
C351	C35	0.692600	0.727600	0.676600
H231	H23	0.687700	0.663900	0.639700
C361	C36	0.771500	0.791100	0.658400
H241	H24	0.818700	0.770300	0.609600
O131	O13	0.609400	0.530900	0.739400
O141	O14	0.604300	0.437700	0.916500
N251	N25	0.877700	0.253800	0.754200
N261	N26	0.543700	0.364400	0.456100
N271	N27	0.537200	0.292000	0.522100
N281	N28	0.531200	0.223700	0.584400
C371	C37	0.719200	0.386200	0.787500
C381	C38	0.788100	0.411200	0.712400
H251	H25	0.783700	0.473700	0.672200
C391	C39	0.864600	0.342300	0.697000
H261	H26	0.909200	0.359600	0.643200
C401	C40	0.637400	0.458100	0.816300
C411	C41	0.807400	0.227600	0.823400
H271	H27	0.812300	0.163900	0.860300
C421	C42	0.728500	0.291100	0.841600
H281	H28	0.681300	0.270300	0.890400
O151	O15	0.109400	0.030900	0.739400
O161	O16	0.104300	0.937700	0.916500
N291	N29	0.377700	0.753800	0.754200
N301	N30	0.043700	0.864400	0.456100
N311	N31	0.037200	0.792000	0.522100
N321	N32	0.031200	0.723700	0.584400
C431	C43	0.219200	0.886200	0.787500
C441	C44	0.288100	0.911200	0.712400
H291	H29	0.283700	0.973700	0.672200
C451	C45	0.364600	0.842300	0.697000
H301	H30	0.409200	0.859600	0.643200
C461	C46	0.137400	0.958100	0.816300
C471	C47	0.307400	0.727600	0.823400
H311	H31	0.312300	0.663900	0.860300
C481	C48	0.228500	0.791100	0.841600
H321	H32	0.181300	0.770300	0.890400
Cu11	Cu1	0.500000	0.500000	0.000000
Cu21	Cu2	0.000000	0.000000	0.000000
Cu31	Cu3	0.500000	0.500000	0.500000
Cu41	Cu4	0.000000	0.000000	0.500000
Co11	Co1	0.000000	0.853210	0.250000
Co21	Co2	0.500000	0.353210	0.250000
Co31	Co3	0.000000	0.146790	0.750000
Co41	Co4	0.500000	0.646790	0.750000
