data_IZEFEZ_charged_PM
_symmetry_space_group_name_H-M	'P1'
_cell_length_a	18.792900
_cell_length_b	19.024200
_cell_length_c	26.254700
_cell_angle_alpha	74.825000
_cell_angle_beta	78.090000
_cell_angle_gamma	64.843000
_symmetry_Int_Tables_number 1

loop_
_symmetry_equiv_pos_as_xyz
'x,y,z'

loop_
_atom_site_label
_atom_site_type_symbol
_atom_site_fract_x
_atom_site_fract_y
_atom_site_fract_z
Cd11	Cd1	0.978040	0.401500	0.096700
Cd21	Cd2	0.949870	0.295360	0.257320
Cd31	Cd3	0.934790	0.191940	0.400460
Cd41	Cd4	0.021960	0.598500	0.903300
Cd51	Cd5	0.050130	0.704640	0.742680
Cd61	Cd6	0.065210	0.808060	0.599540
Cd71	Cd7	0.000000	0.000000	0.500000
H11	H1	0.351000	0.598900	0.243100
H21	H2	0.370800	0.552700	0.098600
H31	H3	0.127800	0.653700	0.214300
H41	H4	0.996200	0.667600	0.233300
H51	H5	0.953700	0.592000	0.201200
H61	H6	0.173100	0.490600	0.126800
H71	H7	0.461200	0.607500	0.274000
H81	H8	0.538000	0.605100	0.234500
H91	H9	0.361900	0.935300	0.191500
H101	H10	0.335000	0.734800	0.265600
H111	H11	0.138400	0.017200	0.264200
H121	H12	0.919600	0.019800	0.303800
H131	H13	0.967100	0.890500	0.294200
H141	H14	0.099500	0.824600	0.269200
H151	H15	0.494000	0.931700	0.160000
H161	H16	0.563500	0.850900	0.149400
H171	H17	0.400600	0.011100	0.096700
H181	H18	0.428900	0.954800	0.956900
H191	H19	0.208200	0.179500	0.035000
H201	H20	0.082400	0.341500	0.918700
H211	H21	0.164700	0.267000	0.856800
H221	H22	0.272700	0.152700	0.882600
H231	H23	0.607900	0.780900	0.980800
H241	H24	0.556000	0.840100	0.935200
H251	H25	0.454200	0.810800	0.912200
H261	H26	0.418200	0.612700	0.981800
H271	H27	0.309300	0.828200	0.808900
H281	H28	0.212400	0.859000	0.754600
H291	H29	0.131500	0.788800	0.775100
H301	H30	0.245100	0.657300	0.902800
H311	H31	0.501000	0.512800	0.046600
H321	H32	0.570600	0.525800	0.062600
H331	H33	0.053400	0.398800	0.569200
H341	H34	0.171800	0.523900	0.472200
H351	H35	0.180100	0.467400	0.329800
H361	H36	0.164500	0.419300	0.261200
H371	H37	0.087300	0.345700	0.278100
H381	H38	0.040700	0.368500	0.431400
H391	H39	0.049400	0.457200	0.687700
H401	H40	0.007400	0.419400	0.662600
H411	H41	0.081300	0.280200	0.648100
H421	H42	0.279700	0.138500	0.718200
H431	H43	0.134700	0.076200	0.606100
H441	H44	0.229700	0.844000	0.601900
H451	H45	0.328300	0.823100	0.651100
H461	H46	0.329800	0.929800	0.679100
H471	H47	0.317500	0.189100	0.782000
H481	H48	0.280500	0.281200	0.781700
H491	H49	0.439300	0.131700	0.731300
H501	H50	0.553900	0.263300	0.638600
H511	H51	0.648000	0.969200	0.721200
H521	H52	0.755900	0.847200	0.720700
H531	H53	0.867700	0.841600	0.658700
H541	H54	0.760400	0.076100	0.606400
H551	H55	0.502600	0.404300	0.633800
H561	H56	0.420000	0.447100	0.665300
H571	H57	0.507800	0.395000	0.541000
H581	H58	0.321100	0.537800	0.460900
H591	H59	0.677800	0.340100	0.419700
H601	H60	0.691400	0.338700	0.265300
H611	H61	0.555000	0.386700	0.271400
H621	H62	0.479000	0.420800	0.350500
H631	H63	0.190600	0.614100	0.567200
H641	H64	0.198600	0.618800	0.505200
H651	H65	0.582900	0.593500	0.163400
H661	H66	0.579500	0.740000	0.147500
H671	H67	0.570200	0.747600	0.068400
H681	H68	0.587100	0.622200	0.068600
H691	H69	0.176000	0.534100	0.639700
H701	H70	0.212700	0.377400	0.746600
H711	H71	0.280800	0.379600	0.730700
H721	H72	0.290200	0.466700	0.658200
H731	H73	0.105200	0.197700	0.196700
H741	H74	0.297600	0.131300	0.176600
H751	H75	0.228800	0.114900	0.162500
H761	H76	0.271500	0.163100	0.118500
H771	H77	0.178600	0.334500	0.184900
H781	H78	0.266800	0.271500	0.188300
H791	H79	0.234600	0.313600	0.132300
H801	H80	0.793800	0.239300	0.481400
H811	H81	0.685400	0.275800	0.540800
H821	H82	0.694100	0.221700	0.598200
H831	H83	0.700800	0.304800	0.587300
H841	H84	0.902300	0.158100	0.588000
H851	H85	0.843600	0.225400	0.619300
H861	H86	0.830000	0.146400	0.627000
H871	H87	0.936100	0.450500	0.228800
H881	H88	0.902000	0.451400	0.278700
H891	H89	0.649000	0.401100	0.756900
H901	H90	0.629200	0.447300	0.901400
H911	H91	0.872200	0.346300	0.785700
H921	H92	0.003800	0.332400	0.766700
H931	H93	0.046300	0.408000	0.798800
H941	H94	0.826900	0.509400	0.873200
H951	H95	0.538800	0.392500	0.726000
H961	H96	0.462000	0.394900	0.765500
H971	H97	0.638100	0.064700	0.808500
H981	H98	0.665000	0.265200	0.734400
H991	H99	0.861600	0.982800	0.735800
H1001	H100	0.080400	0.980200	0.696200
H1011	H101	0.032900	0.109500	0.705800
H1021	H102	0.900500	0.175400	0.730800
H1031	H103	0.506000	0.068300	0.840000
H1041	H104	0.436500	0.149100	0.850600
H1051	H105	0.599400	0.988900	0.903300
H1061	H106	0.571100	0.045200	0.043100
H1071	H107	0.791800	0.820500	0.965000
H1081	H108	0.917600	0.658500	0.081300
H1091	H109	0.835300	0.733000	0.143200
H1101	H110	0.727300	0.847300	0.117400
H1111	H111	0.392100	0.219100	0.019200
H1121	H112	0.444000	0.159900	0.064800
H1131	H113	0.545800	0.189200	0.087800
H1141	H114	0.581800	0.387300	0.018200
H1151	H115	0.690700	0.171800	0.191100
H1161	H116	0.787600	0.141000	0.245400
H1171	H117	0.868500	0.211200	0.224900
H1181	H118	0.754900	0.342700	0.097200
H1191	H119	0.499000	0.487200	0.953400
H1201	H120	0.429400	0.474200	0.937400
H1211	H121	0.946600	0.601200	0.430800
H1221	H122	0.828200	0.476100	0.527800
H1231	H123	0.819900	0.532600	0.670200
H1241	H124	0.835500	0.580700	0.738800
H1251	H125	0.912700	0.654300	0.721900
H1261	H126	0.959300	0.631500	0.568600
H1271	H127	0.950600	0.542800	0.312300
H1281	H128	0.992600	0.580600	0.337400
H1291	H129	0.918700	0.719800	0.351900
H1301	H130	0.720300	0.861500	0.281800
H1311	H131	0.865300	0.923800	0.393900
H1321	H132	0.770300	0.156000	0.398100
H1331	H133	0.671700	0.176900	0.348900
H1341	H134	0.670200	0.070200	0.320900
H1351	H135	0.682500	0.810900	0.218000
H1361	H136	0.719500	0.718800	0.218300
H1371	H137	0.560700	0.868300	0.268700
H1381	H138	0.446100	0.736700	0.361400
H1391	H139	0.352000	0.030800	0.278800
H1401	H140	0.244100	0.152800	0.279300
H1411	H141	0.132300	0.158400	0.341300
H1421	H142	0.239600	0.923900	0.393600
H1431	H143	0.497400	0.595700	0.366200
H1441	H144	0.580000	0.552900	0.334700
H1451	H145	0.492200	0.605000	0.459000
H1461	H146	0.678900	0.462200	0.539100
H1471	H147	0.322200	0.659900	0.580300
H1481	H148	0.308600	0.661300	0.734700
H1491	H149	0.445000	0.613300	0.728600
H1501	H150	0.521000	0.579200	0.649500
H1511	H151	0.809400	0.385900	0.432800
H1521	H152	0.801400	0.381200	0.494800
H1531	H153	0.417100	0.406500	0.836600
H1541	H154	0.420500	0.260000	0.852500
H1551	H155	0.429800	0.252400	0.931600
H1561	H156	0.412900	0.377800	0.931400
H1571	H157	0.824000	0.465900	0.360300
H1581	H158	0.787300	0.622600	0.253400
H1591	H159	0.719200	0.620400	0.269300
H1601	H160	0.709800	0.533300	0.341800
H1611	H161	0.894800	0.802300	0.803300
H1621	H162	0.702400	0.868700	0.823400
H1631	H163	0.771200	0.885100	0.837500
H1641	H164	0.728500	0.836900	0.881500
H1651	H165	0.821400	0.665500	0.815100
H1661	H166	0.733200	0.728500	0.811700
H1671	H167	0.765400	0.686400	0.867700
H1681	H168	0.206200	0.760700	0.518600
H1691	H169	0.314600	0.724200	0.459200
H1701	H170	0.305900	0.778300	0.401800
H1711	H171	0.299200	0.695200	0.412700
H1721	H172	0.097700	0.841900	0.412000
H1731	H173	0.156400	0.774600	0.380700
H1741	H174	0.170000	0.853600	0.373000
H1751	H175	0.063900	0.549500	0.771200
H1761	H176	0.098000	0.548600	0.721300
C11	C1	0.497800	0.580300	0.150900
C21	C2	0.454400	0.596200	0.199200
C31	C3	0.380300	0.591400	0.209900
C41	C4	0.348900	0.575600	0.172500
C51	C5	0.392500	0.562400	0.124000
C61	C6	0.468400	0.563200	0.112200
C71	C7	0.163400	0.569300	0.170000
C81	C8	0.110500	0.623000	0.201000
C91	C9	0.031900	0.631300	0.212300
C101	C10	0.006600	0.586700	0.192800
C111	C11	0.058200	0.533400	0.160700
C121	C12	0.137700	0.525400	0.148800
C131	C13	0.029700	0.486200	0.138300
C141	C14	0.480200	0.626300	0.237500
C151	C15	0.493400	0.756700	0.194600
C161	C16	0.460600	0.838200	0.183100
C171	C17	0.383100	0.879700	0.200200
C181	C18	0.338900	0.843700	0.227900
C191	C19	0.367400	0.759900	0.244000
C201	C20	0.448000	0.715400	0.225900
C211	C21	0.130300	0.913200	0.265800
C221	C22	0.103000	0.991900	0.270600
C231	C23	0.024100	0.032100	0.284800
C241	C24	0.973800	0.993100	0.293700
C251	C25	0.001800	0.916400	0.288100
C261	C26	0.080300	0.877200	0.273700
C271	C27	0.991600	0.117100	0.292900
C281	C28	0.506800	0.882900	0.147700
C291	C29	0.527000	0.850000	0.058700
C301	C30	0.488800	0.903100	0.091700
C311	C31	0.426900	0.974500	0.074100
C321	C32	0.404900	0.991200	0.026300
C331	C33	0.444000	0.941300	0.991300
C341	C34	0.509100	0.867100	0.008000
C351	C35	0.251200	0.156300	0.960500
C361	C36	0.199300	0.198400	0.999000
C371	C37	0.135300	0.267600	0.984300
C381	C38	0.124400	0.293600	0.929800
C391	C39	0.174300	0.250000	0.892600
C401	C40	0.238100	0.181900	0.908000
C411	C41	0.080100	0.315300	0.023700
C421	C42	0.553600	0.809900	0.971500
C431	C43	0.533900	0.679500	0.012100
C441	C44	0.519000	0.750000	0.972600
C451	C45	0.465600	0.764600	0.938700
C461	C46	0.427300	0.714600	0.941400
C471	C47	0.443800	0.646500	0.979800
C481	C48	0.497100	0.626700	0.015500
C491	C49	0.285800	0.739100	0.861700
C501	C50	0.276500	0.799900	0.817100
C511	C51	0.218700	0.818300	0.784900
C521	C52	0.170200	0.776800	0.797400
C531	C53	0.178000	0.718500	0.841700
C541	C54	0.237900	0.699000	0.873200
C551	C55	0.124000	0.675200	0.858900
C561	C56	0.514000	0.550200	0.058700
C571	C57	0.126400	0.507000	0.599900
C581	C58	0.086900	0.456300	0.608200
C591	C59	0.079700	0.432900	0.564400
C601	C60	0.109900	0.458400	0.514100
C611	C61	0.150200	0.507400	0.506500
C621	C62	0.158700	0.532300	0.549200
C631	C63	0.113200	0.421900	0.386600
C641	C64	0.149100	0.437500	0.336600
C651	C65	0.139700	0.408800	0.295600
C661	C66	0.093800	0.365000	0.305600
C671	C67	0.057300	0.349500	0.356600
C681	C68	0.066100	0.378200	0.397100
C691	C69	0.008700	0.300600	0.370200
C701	C70	0.058000	0.422500	0.663300
C711	C71	0.178100	0.328300	0.712800
C721	C72	0.118800	0.339900	0.683000
C731	C73	0.121300	0.273900	0.667400
C741	C74	0.180500	0.199800	0.679600
C751	C75	0.239600	0.189000	0.709500
C761	C76	0.239000	0.253200	0.726400
C771	C77	0.231400	0.012400	0.646100
C781	C78	0.173600	0.025100	0.615400
C791	C79	0.173700	0.962300	0.598500
C801	C80	0.230800	0.886800	0.612600
C811	C81	0.289200	0.874200	0.642300
C821	C82	0.289900	0.937700	0.659100
C831	C83	0.109200	0.975600	0.566100
C841	C84	0.302200	0.241700	0.758900
C851	C85	0.377200	0.324400	0.701400
C861	C86	0.374300	0.249400	0.724800
C871	C87	0.440400	0.181700	0.715800
C881	C88	0.506400	0.186400	0.685000
C891	C89	0.508600	0.260500	0.660600
C901	C90	0.444900	0.329400	0.668600
C911	C91	0.694000	0.031900	0.663000
C921	C92	0.692900	0.966300	0.696700
C931	C93	0.757400	0.893000	0.696700
C941	C94	0.823800	0.889700	0.660100
C951	C95	0.823500	0.958100	0.626300
C961	C96	0.758800	0.029200	0.628800
C971	C97	0.893800	0.956500	0.586400
C981	C98	0.447400	0.409900	0.641100
C991	C99	0.329100	0.493300	0.588300
C1001	C100	0.409600	0.444900	0.589000
C1011	C101	0.454100	0.429100	0.541300
C1021	C102	0.420700	0.462900	0.493600
C1031	C103	0.342600	0.513800	0.493500
C1041	C104	0.294500	0.530800	0.540300
C1051	C105	0.571600	0.383200	0.392500
C1061	C106	0.653100	0.351300	0.389200
C1071	C107	0.699100	0.335600	0.342100
C1081	C108	0.661200	0.349600	0.297700
C1091	C109	0.579900	0.379200	0.301200
C1101	C110	0.534500	0.398100	0.348600
C1111	C111	0.787400	0.307400	0.338300
C1121	C112	0.207700	0.582400	0.539600
C1131	C113	0.119900	0.240500	0.192500
C1141	C114	0.253200	0.152700	0.155900
C1151	C115	0.220900	0.292600	0.169100
C1161	C116	0.829000	0.219500	0.507400
C1171	C117	0.712300	0.259000	0.572300
C1181	C118	0.847700	0.184600	0.601800
C1191	C119	0.836600	0.525700	0.020700
C1201	C120	0.828700	0.497900	0.978700
C1211	C121	0.502200	0.419700	0.849100
C1221	C122	0.545600	0.403800	0.800800
C1231	C123	0.619700	0.408600	0.790100
C1241	C124	0.651100	0.424400	0.827500
C1251	C125	0.607500	0.437600	0.876000
C1261	C126	0.531600	0.436800	0.887800
C1271	C127	0.836600	0.430700	0.830000
C1281	C128	0.889500	0.377000	0.799000
C1291	C129	0.968100	0.368700	0.787700
C1301	C130	0.993400	0.413300	0.807200
C1311	C131	0.941800	0.466600	0.839300
C1321	C132	0.862300	0.474600	0.851200
C1331	C133	0.970300	0.513800	0.861700
C1341	C134	0.519800	0.373700	0.762500
C1351	C135	0.506600	0.243300	0.805400
C1361	C136	0.539400	0.161800	0.816900
C1371	C137	0.616900	0.120300	0.799800
C1381	C138	0.661100	0.156300	0.772100
C1391	C139	0.632600	0.240100	0.756000
C1401	C140	0.552000	0.284600	0.774100
C1411	C141	0.869700	0.086800	0.734200
C1421	C142	0.897000	0.008100	0.729400
C1431	C143	0.975900	0.967900	0.715200
C1441	C144	0.026200	0.006900	0.706300
C1451	C145	0.998200	0.083600	0.711900
C1461	C146	0.919700	0.122800	0.726300
C1471	C147	0.008400	0.882900	0.707100
C1481	C148	0.493200	0.117100	0.852300
C1491	C149	0.473000	0.150000	0.941300
C1501	C150	0.511200	0.096900	0.908300
C1511	C151	0.573100	0.025500	0.925900
C1521	C152	0.595100	0.008800	0.973700
C1531	C153	0.556000	0.058700	0.008700
C1541	C154	0.490900	0.132900	0.992000
C1551	C155	0.748800	0.843700	0.039500
C1561	C156	0.800700	0.801600	0.001000
C1571	C157	0.864700	0.732400	0.015700
C1581	C158	0.875600	0.706400	0.070200
C1591	C159	0.825700	0.750000	0.107400
C1601	C160	0.761900	0.818100	0.092000
C1611	C161	0.919900	0.684700	0.976300
C1621	C162	0.446400	0.190100	0.028500
C1631	C163	0.466100	0.320500	0.987900
C1641	C164	0.481000	0.250000	0.027400
C1651	C165	0.534400	0.235400	0.061300
C1661	C166	0.572700	0.285400	0.058600
C1671	C167	0.556200	0.353500	0.020200
C1681	C168	0.502900	0.373300	0.984500
C1691	C169	0.714200	0.260900	0.138300
C1701	C170	0.723500	0.200100	0.182900
C1711	C171	0.781300	0.181700	0.215100
C1721	C172	0.829800	0.223200	0.202600
C1731	C173	0.822000	0.281500	0.158300
C1741	C174	0.762100	0.301000	0.126800
C1751	C175	0.876000	0.324800	0.141100
C1761	C176	0.486000	0.449800	0.941300
C1771	C177	0.873600	0.493000	0.400100
C1781	C178	0.913100	0.543700	0.391800
C1791	C179	0.920300	0.567100	0.435600
C1801	C180	0.890100	0.541600	0.485900
C1811	C181	0.849800	0.492600	0.493500
C1821	C182	0.841300	0.467700	0.450800
C1831	C183	0.886800	0.578100	0.613400
C1841	C184	0.850900	0.562500	0.663400
C1851	C185	0.860300	0.591200	0.704400
C1861	C186	0.906200	0.635000	0.694400
C1871	C187	0.942700	0.650500	0.643400
C1881	C188	0.933900	0.621800	0.602900
C1891	C189	0.991300	0.699400	0.629800
C1901	C190	0.942000	0.577500	0.336700
C1911	C191	0.821900	0.671700	0.287200
C1921	C192	0.881200	0.660100	0.317000
C1931	C193	0.878700	0.726100	0.332600
C1941	C194	0.819500	0.800200	0.320400
C1951	C195	0.760400	0.811000	0.290500
C1961	C196	0.761000	0.746800	0.273600
C1971	C197	0.768600	0.987600	0.353900
C1981	C198	0.826400	0.974900	0.384600
C1991	C199	0.826300	0.037700	0.401500
C2001	C200	0.769200	0.113200	0.387400
C2011	C201	0.710800	0.125800	0.357700
C2021	C202	0.710100	0.062300	0.340900
C2031	C203	0.890800	0.024400	0.433900
C2041	C204	0.697800	0.758300	0.241100
C2051	C205	0.622800	0.675600	0.298600
C2061	C206	0.625700	0.750600	0.275200
C2071	C207	0.559600	0.818300	0.284200
C2081	C208	0.493600	0.813600	0.315000
C2091	C209	0.491400	0.739500	0.339400
C2101	C210	0.555100	0.670600	0.331400
C2111	C211	0.306000	0.968100	0.337000
C2121	C212	0.307100	0.033700	0.303300
C2131	C213	0.242600	0.107000	0.303300
C2141	C214	0.176200	0.110300	0.339900
C2151	C215	0.176500	0.041900	0.373700
C2161	C216	0.241200	0.970800	0.371200
C2171	C217	0.106200	0.043500	0.413600
C2181	C218	0.552600	0.590100	0.358900
C2191	C219	0.670900	0.506700	0.411700
C2201	C220	0.590400	0.555100	0.411000
C2211	C221	0.545900	0.570900	0.458700
C2221	C222	0.579300	0.537100	0.506400
C2231	C223	0.657400	0.486200	0.506500
C2241	C224	0.705500	0.469200	0.459700
C2251	C225	0.428400	0.616800	0.607500
C2261	C226	0.346900	0.648700	0.610800
C2271	C227	0.300900	0.664400	0.657900
C2281	C228	0.338800	0.650400	0.702300
C2291	C229	0.420100	0.620800	0.698800
C2301	C230	0.465500	0.601900	0.651400
C2311	C231	0.212600	0.692600	0.661700
C2321	C232	0.792300	0.417600	0.460400
C2331	C233	0.880100	0.759500	0.807500
C2341	C234	0.746800	0.847300	0.844100
C2351	C235	0.779100	0.707400	0.830900
C2361	C236	0.171000	0.780500	0.492600
C2371	C237	0.287700	0.741000	0.427700
C2381	C238	0.152300	0.815400	0.398200
C2391	C239	0.163400	0.474300	0.979300
C2401	C240	0.171300	0.502100	0.021300
N11	N1	0.244700	0.558700	0.156000
N21	N2	0.269900	0.580500	0.187300
N31	N3	0.250400	0.898300	0.240600
N41	N4	0.215600	0.857500	0.254700
N51	N5	0.332300	0.071300	0.013200
N61	N6	0.323400	0.076600	0.970200
N71	N7	0.369100	0.750200	0.895300
N81	N8	0.347300	0.702500	0.908700
N91	N9	0.125500	0.452900	0.427000
N101	N10	0.100100	0.427900	0.473000
N111	N11	0.177200	0.138600	0.659300
N121	N12	0.235300	0.073500	0.667500
N131	N13	0.571900	0.106100	0.685000
N141	N14	0.628100	0.114200	0.659800
N151	N15	0.461200	0.449000	0.442300
N161	N16	0.531300	0.397500	0.444400
N171	N17	0.194100	0.227900	0.171600
N181	N18	0.798400	0.220700	0.558200
N191	N19	0.755300	0.441300	0.844000
N201	N20	0.730100	0.419500	0.812700
N211	N21	0.749600	0.101700	0.759400
N221	N22	0.784400	0.142500	0.745300
N231	N23	0.667700	0.928700	0.986800
N241	N24	0.676600	0.923400	0.029800
N251	N25	0.630900	0.249800	0.104700
N261	N26	0.652700	0.297500	0.091300
N271	N27	0.874500	0.547100	0.573000
N281	N28	0.899900	0.572100	0.527000
N291	N29	0.822800	0.861400	0.340700
N301	N30	0.764700	0.926500	0.332500
N311	N31	0.428100	0.893900	0.315000
N321	N32	0.371900	0.885800	0.340200
N331	N33	0.538800	0.551000	0.557700
N341	N34	0.468700	0.602500	0.555600
N351	N35	0.805900	0.772100	0.828400
N361	N36	0.201600	0.779300	0.441800
O11	O1	0.571500	0.582300	0.138500
O21	O2	0.570700	0.714200	0.178100
O31	O3	0.586000	0.778600	0.076500
O41	O4	0.583500	0.664200	0.047500
O51	O5	0.963800	0.483700	0.156100
O61	O6	0.072600	0.450700	0.101700
O71	O7	0.009200	0.165800	0.256400
O81	O8	0.947500	0.131400	0.333300
O91	O9	0.077200	0.285000	0.072100
O101	O10	0.034700	0.385100	0.007900
O111	O11	0.122300	0.638000	0.905300
O121	O12	0.081900	0.675700	0.828400
O131	O13	0.130600	0.533200	0.642180
O141	O14	0.174800	0.391300	0.729520
O151	O15	0.316700	0.390800	0.710980
O161	O16	0.281400	0.508800	0.634710
O171	O17	0.000900	0.271800	0.333740
O181	O18	0.980300	0.285100	0.416880
O191	O19	0.064000	0.045400	0.548000
O201	O20	0.104100	0.916300	0.556580
O211	O21	0.943500	0.890600	0.576200
O221	O22	0.897100	0.022500	0.563000
O231	O23	0.816400	0.279800	0.381930
O241	O24	0.824500	0.313100	0.293310
O251	O25	0.070500	0.296500	0.206500
O261	O26	0.898900	0.194600	0.492940
O271	O27	0.911200	0.427600	0.253280
O281	O28	0.891400	0.520600	0.052700
O291	O29	0.428500	0.417700	0.861500
O301	O30	0.429300	0.285800	0.821900
O311	O31	0.414000	0.221400	0.923500
O321	O32	0.416500	0.335800	0.952500
O331	O33	0.036200	0.516300	0.843900
O341	O34	0.927400	0.549300	0.898300
O351	O35	0.990800	0.834200	0.743600
O361	O36	0.052500	0.868600	0.666700
O371	O37	0.922800	0.715000	0.927900
O381	O38	0.965300	0.614900	0.992100
O391	O39	0.877700	0.362000	0.094700
O401	O40	0.918100	0.324300	0.171600
O411	O41	0.869400	0.466800	0.357820
O421	O42	0.825200	0.608700	0.270480
O431	O43	0.683300	0.609200	0.289020
O441	O44	0.718600	0.491200	0.365290
O451	O45	0.999100	0.728200	0.666260
O461	O46	0.019700	0.714900	0.583120
O471	O47	0.936000	0.954600	0.452000
O481	O48	0.895900	0.083700	0.443420
O491	O49	0.056500	0.109400	0.423800
O501	O50	0.102900	0.977500	0.437000
O511	O51	0.183600	0.720200	0.618070
O521	O52	0.175500	0.686900	0.706690
O531	O53	0.929500	0.703500	0.793500
O541	O54	0.101100	0.805400	0.507060
O551	O55	0.088800	0.572400	0.746720
O561	O56	0.108600	0.479400	0.947300
