data_IZEHAX_freeONLY_PM
_symmetry_space_group_name_H-M	'P1'
_cell_length_a	9.345400
_cell_length_b	9.872210
_cell_length_c	12.781700
_cell_angle_alpha	90.000000
_cell_angle_beta	90.000000
_cell_angle_gamma	90.899800
_symmetry_Int_Tables_number 1

loop_
_symmetry_equiv_pos_as_xyz
'x,y,z'

loop_
_atom_site_label
_atom_site_type_symbol
_atom_site_fract_x
_atom_site_fract_y
_atom_site_fract_z
Cd11	Cd1	0.736760	0.987390	0.253820
Cd21	Cd2	0.763240	0.512610	0.753820
Cd31	Cd3	0.263240	0.012610	0.746180
Cd41	Cd4	0.236760	0.487390	0.246180
Cd51	Cd5	0.500000	0.000000	0.500000
Cd61	Cd6	0.000000	0.500000	0.000000
H11	H1	0.364500	0.285500	0.887200
H21	H2	0.475500	0.400400	0.888400
H31	H3	0.384700	0.762200	0.910700
H41	H4	0.493700	0.649000	0.914300
H51	H5	0.135500	0.214500	0.387200
H61	H6	0.024500	0.099600	0.388400
H71	H7	0.115300	0.737800	0.410700
H81	H8	0.006300	0.851000	0.414300
H91	H9	0.635500	0.714500	0.112800
H101	H10	0.524500	0.599600	0.111600
H111	H11	0.615300	0.237800	0.089300
H121	H12	0.506300	0.351000	0.085700
H131	H13	0.864500	0.785500	0.612800
H141	H14	0.975500	0.900400	0.611600
H151	H15	0.884700	0.262200	0.589300
H161	H16	0.993700	0.149000	0.585700
C11	C1	0.490600	0.284200	0.765100
C21	C2	0.497500	0.749200	0.783300
C31	C3	0.009400	0.215800	0.265100
C41	C4	0.002500	0.750800	0.283300
C51	C5	0.509400	0.715800	0.234900
C61	C6	0.502500	0.250800	0.216700
C71	C7	0.990600	0.784200	0.734900
C81	C8	0.997500	0.249200	0.716700
N11	N1	0.602700	0.339900	0.715800
N21	N2	0.622200	0.263000	0.630200
N31	N3	0.526300	0.167500	0.628600
N41	N4	0.439500	0.176700	0.713500
N51	N5	0.437300	0.328600	0.857800
N61	N6	0.603600	0.688100	0.731400
N71	N7	0.614000	0.755000	0.640100
N81	N8	0.519900	0.848900	0.637200
N91	N9	0.443400	0.849200	0.726400
N101	N10	0.453500	0.716300	0.880700
N111	N11	0.897300	0.160100	0.215800
N121	N12	0.877800	0.237000	0.130200
N131	N13	0.973700	0.332500	0.128600
N141	N14	0.060500	0.323300	0.213500
N151	N15	0.062700	0.171400	0.357800
N161	N16	0.896400	0.811900	0.231400
N171	N17	0.886000	0.745000	0.140100
N181	N18	0.980100	0.651100	0.137200
N191	N19	0.056600	0.650800	0.226400
N201	N20	0.046500	0.783700	0.380700
N211	N21	0.397300	0.660100	0.284200
N221	N22	0.377800	0.737000	0.369800
N231	N23	0.473700	0.832500	0.371400
N241	N24	0.560500	0.823300	0.286500
N251	N25	0.562700	0.671400	0.142200
N261	N26	0.396400	0.311900	0.268600
N271	N27	0.386000	0.245000	0.359900
N281	N28	0.480100	0.151100	0.362800
N291	N29	0.556600	0.150800	0.273600
N301	N30	0.546500	0.283700	0.119300
N311	N31	0.102700	0.839900	0.784200
N321	N32	0.122200	0.763000	0.869800
N331	N33	0.026300	0.667500	0.871400
N341	N34	0.939500	0.676700	0.786500
N351	N35	0.937300	0.828600	0.642200
N361	N36	0.103600	0.188100	0.768600
N371	N37	0.114000	0.255000	0.859900
N381	N38	0.019900	0.348900	0.862800
N391	N39	0.943400	0.349200	0.773600
N401	N40	0.953500	0.216300	0.619300
Cl11	Cl1	0.778710	0.999010	0.457280
Cl21	Cl2	0.721290	0.500990	0.957280
Cl31	Cl3	0.221290	0.000990	0.542720
Cl41	Cl4	0.278710	0.499010	0.042720
