data_IZENUY_freeONLY_PM
_symmetry_space_group_name_H-M	'P1'
_cell_length_a	21.872000
_cell_length_b	21.872000
_cell_length_c	21.872000
_cell_angle_alpha	90.000000
_cell_angle_beta	90.000000
_cell_angle_gamma	90.000000
_symmetry_Int_Tables_number 1

loop_
_symmetry_equiv_pos_as_xyz
'x,y,z'

loop_
_atom_site_label
_atom_site_type_symbol
_atom_site_fract_x
_atom_site_fract_y
_atom_site_fract_z
Fe11	Fe1	0.260920	0.679490	0.803470
O11	O1	0.349800	0.665400	0.795600
O21	O2	0.392700	0.749900	0.754700
O31	O3	0.626200	0.763400	0.774100
O41	O4	0.671200	0.680900	0.814300
O51	O5	0.261800	0.613400	0.872700
C11	C1	0.395600	0.696800	0.776200
C21	C2	0.457400	0.669200	0.784800
C31	C3	0.461200	0.606500	0.794400
H11	H1	0.425200	0.583000	0.795000
C41	C4	0.514600	0.579400	0.802700
C51	C5	0.571700	0.612800	0.802800
H21	H2	0.609400	0.593000	0.808700
C61	C6	0.510400	0.702500	0.783100
H31	H3	0.508600	0.744600	0.774600
C71	C7	0.568000	0.674800	0.793800
C81	C8	0.625800	0.707600	0.793900
N11	N1	0.524100	0.512600	0.804900
Fe21	Fe2	0.739080	0.320510	0.803470
O61	O6	0.650200	0.334600	0.795600
O71	O7	0.607300	0.250100	0.754700
O81	O8	0.373800	0.236600	0.774100
O91	O9	0.328800	0.319100	0.814300
O101	O10	0.738200	0.386600	0.872700
C91	C9	0.604400	0.303200	0.776200
C101	C10	0.542600	0.330800	0.784800
C111	C11	0.538800	0.393500	0.794400
H41	H4	0.574800	0.417000	0.795000
C121	C12	0.485400	0.420600	0.802700
C131	C13	0.428300	0.387200	0.802800
H51	H5	0.390600	0.407000	0.808700
C141	C14	0.489600	0.297500	0.783100
H61	H6	0.491400	0.255400	0.774600
C151	C15	0.432000	0.325200	0.793800
C161	C16	0.374200	0.292400	0.793900
N21	N2	0.475900	0.487400	0.804900
Fe31	Fe3	0.739080	0.679490	0.196530
O111	O11	0.650200	0.665400	0.204400
O121	O12	0.607300	0.749900	0.245300
O131	O13	0.373800	0.763400	0.225900
O141	O14	0.328800	0.680900	0.185700
O151	O15	0.738200	0.613400	0.127300
C171	C17	0.604400	0.696800	0.223800
C181	C18	0.542600	0.669200	0.215200
C191	C19	0.538800	0.606500	0.205600
H71	H7	0.574800	0.583000	0.205000
C201	C20	0.485400	0.579400	0.197300
C211	C21	0.428300	0.612800	0.197200
H81	H8	0.390600	0.593000	0.191300
C221	C22	0.489600	0.702500	0.216900
H91	H9	0.491400	0.744600	0.225400
C231	C23	0.432000	0.674800	0.206200
C241	C24	0.374200	0.707600	0.206100
N31	N3	0.475900	0.512600	0.195100
Fe41	Fe4	0.260920	0.320510	0.196530
O161	O16	0.349800	0.334600	0.204400
O171	O17	0.392700	0.250100	0.245300
O181	O18	0.626200	0.236600	0.225900
O191	O19	0.671200	0.319100	0.185700
O201	O20	0.261800	0.386600	0.127300
C251	C25	0.395600	0.303200	0.223800
C261	C26	0.457400	0.330800	0.215200
C271	C27	0.461200	0.393500	0.205600
H101	H10	0.425200	0.417000	0.205000
C281	C28	0.514600	0.420600	0.197300
C291	C29	0.571700	0.387200	0.197200
H111	H11	0.609400	0.407000	0.191300
C301	C30	0.510400	0.297500	0.216900
H121	H12	0.508600	0.255400	0.225400
C311	C31	0.568000	0.325200	0.206200
C321	C32	0.625800	0.292400	0.206100
N41	N4	0.524100	0.487400	0.195100
Fe51	Fe5	0.803470	0.260920	0.679490
O211	O21	0.795600	0.349800	0.665400
O221	O22	0.754700	0.392700	0.749900
O231	O23	0.774100	0.626200	0.763400
O241	O24	0.814300	0.671200	0.680900
O251	O25	0.872700	0.261800	0.613400
C331	C33	0.776200	0.395600	0.696800
C341	C34	0.784800	0.457400	0.669200
C351	C35	0.794400	0.461200	0.606500
H131	H13	0.795000	0.425200	0.583000
C361	C36	0.802700	0.514600	0.579400
C371	C37	0.802800	0.571700	0.612800
H141	H14	0.808700	0.609400	0.593000
C381	C38	0.783100	0.510400	0.702500
H151	H15	0.774600	0.508600	0.744600
C391	C39	0.793800	0.568000	0.674800
C401	C40	0.793900	0.625800	0.707600
N51	N5	0.804900	0.524100	0.512600
Fe61	Fe6	0.803470	0.739080	0.320510
O261	O26	0.795600	0.650200	0.334600
O271	O27	0.754700	0.607300	0.250100
O281	O28	0.774100	0.373800	0.236600
O291	O29	0.814300	0.328800	0.319100
O301	O30	0.872700	0.738200	0.386600
C411	C41	0.776200	0.604400	0.303200
C421	C42	0.784800	0.542600	0.330800
C431	C43	0.794400	0.538800	0.393500
H161	H16	0.795000	0.574800	0.417000
C441	C44	0.802700	0.485400	0.420600
C451	C45	0.802800	0.428300	0.387200
H171	H17	0.808700	0.390600	0.407000
C461	C46	0.783100	0.489600	0.297500
H181	H18	0.774600	0.491400	0.255400
C471	C47	0.793800	0.432000	0.325200
C481	C48	0.793900	0.374200	0.292400
N61	N6	0.804900	0.475900	0.487400
Fe71	Fe7	0.196530	0.739080	0.679490
O311	O31	0.204400	0.650200	0.665400
O321	O32	0.245300	0.607300	0.749900
O331	O33	0.225900	0.373800	0.763400
O341	O34	0.185700	0.328800	0.680900
O351	O35	0.127300	0.738200	0.613400
C491	C49	0.223800	0.604400	0.696800
C501	C50	0.215200	0.542600	0.669200
C511	C51	0.205600	0.538800	0.606500
H191	H19	0.205000	0.574800	0.583000
C521	C52	0.197300	0.485400	0.579400
C531	C53	0.197200	0.428300	0.612800
H201	H20	0.191300	0.390600	0.593000
C541	C54	0.216900	0.489600	0.702500
H211	H21	0.225400	0.491400	0.744600
C551	C55	0.206200	0.432000	0.674800
C561	C56	0.206100	0.374200	0.707600
N71	N7	0.195100	0.475900	0.512600
Fe81	Fe8	0.196530	0.260920	0.320510
O361	O36	0.204400	0.349800	0.334600
O371	O37	0.245300	0.392700	0.250100
O381	O38	0.225900	0.626200	0.236600
O391	O39	0.185700	0.671200	0.319100
O401	O40	0.127300	0.261800	0.386600
C571	C57	0.223800	0.395600	0.303200
C581	C58	0.215200	0.457400	0.330800
C591	C59	0.205600	0.461200	0.393500
H221	H22	0.205000	0.425200	0.417000
C601	C60	0.197300	0.514600	0.420600
C611	C61	0.197200	0.571700	0.387200
H231	H23	0.191300	0.609400	0.407000
C621	C62	0.216900	0.510400	0.297500
H241	H24	0.225400	0.508600	0.255400
C631	C63	0.206200	0.568000	0.325200
C641	C64	0.206100	0.625800	0.292400
N81	N8	0.195100	0.524100	0.487400
Fe91	Fe9	0.679490	0.803470	0.260920
O411	O41	0.665400	0.795600	0.349800
O421	O42	0.749900	0.754700	0.392700
O431	O43	0.763400	0.774100	0.626200
O441	O44	0.680900	0.814300	0.671200
O451	O45	0.613400	0.872700	0.261800
C651	C65	0.696800	0.776200	0.395600
C661	C66	0.669200	0.784800	0.457400
C671	C67	0.606500	0.794400	0.461200
H251	H25	0.583000	0.795000	0.425200
C681	C68	0.579400	0.802700	0.514600
C691	C69	0.612800	0.802800	0.571700
H261	H26	0.593000	0.808700	0.609400
C701	C70	0.702500	0.783100	0.510400
H271	H27	0.744600	0.774600	0.508600
C711	C71	0.674800	0.793800	0.568000
C721	C72	0.707600	0.793900	0.625800
N91	N9	0.512600	0.804900	0.524100
Fe101	Fe10	0.320510	0.803470	0.739080
O461	O46	0.334600	0.795600	0.650200
O471	O47	0.250100	0.754700	0.607300
O481	O48	0.236600	0.774100	0.373800
O491	O49	0.319100	0.814300	0.328800
O501	O50	0.386600	0.872700	0.738200
C731	C73	0.303200	0.776200	0.604400
C741	C74	0.330800	0.784800	0.542600
C751	C75	0.393500	0.794400	0.538800
H281	H28	0.417000	0.795000	0.574800
C761	C76	0.420600	0.802700	0.485400
C771	C77	0.387200	0.802800	0.428300
H291	H29	0.407000	0.808700	0.390600
C781	C78	0.297500	0.783100	0.489600
H301	H30	0.255400	0.774600	0.491400
C791	C79	0.325200	0.793800	0.432000
C801	C80	0.292400	0.793900	0.374200
N101	N10	0.487400	0.804900	0.475900
Fe111	Fe11	0.679490	0.196530	0.739080
O511	O51	0.665400	0.204400	0.650200
O521	O52	0.749900	0.245300	0.607300
O531	O53	0.763400	0.225900	0.373800
O541	O54	0.680900	0.185700	0.328800
O551	O55	0.613400	0.127300	0.738200
C811	C81	0.696800	0.223800	0.604400
C821	C82	0.669200	0.215200	0.542600
C831	C83	0.606500	0.205600	0.538800
H311	H31	0.583000	0.205000	0.574800
C841	C84	0.579400	0.197300	0.485400
C851	C85	0.612800	0.197200	0.428300
H321	H32	0.593000	0.191300	0.390600
C861	C86	0.702500	0.216900	0.489600
H331	H33	0.744600	0.225400	0.491400
C871	C87	0.674800	0.206200	0.432000
C881	C88	0.707600	0.206100	0.374200
N111	N11	0.512600	0.195100	0.475900
Fe121	Fe12	0.320510	0.196530	0.260920
O561	O56	0.334600	0.204400	0.349800
O571	O57	0.250100	0.245300	0.392700
O581	O58	0.236600	0.225900	0.626200
O591	O59	0.319100	0.185700	0.671200
O601	O60	0.386600	0.127300	0.261800
C891	C89	0.303200	0.223800	0.395600
C901	C90	0.330800	0.215200	0.457400
C911	C91	0.393500	0.205600	0.461200
H341	H34	0.417000	0.205000	0.425200
C921	C92	0.420600	0.197300	0.514600
C931	C93	0.387200	0.197200	0.571700
H351	H35	0.407000	0.191300	0.609400
C941	C94	0.297500	0.216900	0.510400
H361	H36	0.255400	0.225400	0.508600
C951	C95	0.325200	0.206200	0.568000
C961	C96	0.292400	0.206100	0.625800
N121	N12	0.487400	0.195100	0.524100
Fe131	Fe13	0.179490	0.760920	0.303470
O611	O61	0.165400	0.849800	0.295600
O621	O62	0.249900	0.892700	0.254700
O631	O63	0.263400	0.126200	0.274100
O641	O64	0.180900	0.171200	0.314300
O651	O65	0.113400	0.761800	0.372700
C971	C97	0.196800	0.895600	0.276200
C981	C98	0.169200	0.957400	0.284800
C991	C99	0.106500	0.961200	0.294400
H371	H37	0.083000	0.925200	0.295000
C1001	C100	0.079400	0.014600	0.302700
C1011	C101	0.112800	0.071700	0.302800
H381	H38	0.093000	0.109400	0.308700
C1021	C102	0.202500	0.010400	0.283100
H391	H39	0.244600	0.008600	0.274600
C1031	C103	0.174800	0.068000	0.293800
C1041	C104	0.207600	0.125800	0.293900
N131	N13	0.012600	0.024100	0.304900
Fe141	Fe14	0.820510	0.239080	0.303470
O661	O66	0.834600	0.150200	0.295600
O671	O67	0.750100	0.107300	0.254700
O681	O68	0.736600	0.873800	0.274100
O691	O69	0.819100	0.828800	0.314300
O701	O70	0.886600	0.238200	0.372700
C1051	C105	0.803200	0.104400	0.276200
C1061	C106	0.830800	0.042600	0.284800
C1071	C107	0.893500	0.038800	0.294400
H401	H40	0.917000	0.074800	0.295000
C1081	C108	0.920600	0.985400	0.302700
C1091	C109	0.887200	0.928300	0.302800
H411	H41	0.907000	0.890600	0.308700
C1101	C110	0.797500	0.989600	0.283100
H421	H42	0.755400	0.991400	0.274600
C1111	C111	0.825200	0.932000	0.293800
C1121	C112	0.792400	0.874200	0.293900
N141	N14	0.987400	0.975900	0.304900
Fe151	Fe15	0.179490	0.239080	0.696530
O711	O71	0.165400	0.150200	0.704400
O721	O72	0.249900	0.107300	0.745300
O731	O73	0.263400	0.873800	0.725900
O741	O74	0.180900	0.828800	0.685700
O751	O75	0.113400	0.238200	0.627300
C1131	C113	0.196800	0.104400	0.723800
C1141	C114	0.169200	0.042600	0.715200
C1151	C115	0.106500	0.038800	0.705600
H431	H43	0.083000	0.074800	0.705000
C1161	C116	0.079400	0.985400	0.697300
C1171	C117	0.112800	0.928300	0.697200
H441	H44	0.093000	0.890600	0.691300
C1181	C118	0.202500	0.989600	0.716900
H451	H45	0.244600	0.991400	0.725400
C1191	C119	0.174800	0.932000	0.706200
C1201	C120	0.207600	0.874200	0.706100
N151	N15	0.012600	0.975900	0.695100
Fe161	Fe16	0.820510	0.760920	0.696530
O761	O76	0.834600	0.849800	0.704400
O771	O77	0.750100	0.892700	0.745300
O781	O78	0.736600	0.126200	0.725900
O791	O79	0.819100	0.171200	0.685700
O801	O80	0.886600	0.761800	0.627300
C1211	C121	0.803200	0.895600	0.723800
C1221	C122	0.830800	0.957400	0.715200
C1231	C123	0.893500	0.961200	0.705600
H461	H46	0.917000	0.925200	0.705000
C1241	C124	0.920600	0.014600	0.697300
C1251	C125	0.887200	0.071700	0.697200
H471	H47	0.907000	0.109400	0.691300
C1261	C126	0.797500	0.010400	0.716900
H481	H48	0.755400	0.008600	0.725400
C1271	C127	0.825200	0.068000	0.706200
C1281	C128	0.792400	0.125800	0.706100
N161	N16	0.987400	0.024100	0.695100
Fe171	Fe17	0.760920	0.303470	0.179490
O811	O81	0.849800	0.295600	0.165400
O821	O82	0.892700	0.254700	0.249900
O831	O83	0.126200	0.274100	0.263400
O841	O84	0.171200	0.314300	0.180900
O851	O85	0.761800	0.372700	0.113400
C1291	C129	0.895600	0.276200	0.196800
C1301	C130	0.957400	0.284800	0.169200
C1311	C131	0.961200	0.294400	0.106500
H491	H49	0.925200	0.295000	0.083000
C1321	C132	0.014600	0.302700	0.079400
C1331	C133	0.071700	0.302800	0.112800
H501	H50	0.109400	0.308700	0.093000
C1341	C134	0.010400	0.283100	0.202500
H511	H51	0.008600	0.274600	0.244600
C1351	C135	0.068000	0.293800	0.174800
C1361	C136	0.125800	0.293900	0.207600
N171	N17	0.024100	0.304900	0.012600
Fe181	Fe18	0.239080	0.303470	0.820510
O861	O86	0.150200	0.295600	0.834600
O871	O87	0.107300	0.254700	0.750100
O881	O88	0.873800	0.274100	0.736600
O891	O89	0.828800	0.314300	0.819100
O901	O90	0.238200	0.372700	0.886600
C1371	C137	0.104400	0.276200	0.803200
C1381	C138	0.042600	0.284800	0.830800
C1391	C139	0.038800	0.294400	0.893500
H521	H52	0.074800	0.295000	0.917000
C1401	C140	0.985400	0.302700	0.920600
C1411	C141	0.928300	0.302800	0.887200
H531	H53	0.890600	0.308700	0.907000
C1421	C142	0.989600	0.283100	0.797500
H541	H54	0.991400	0.274600	0.755400
C1431	C143	0.932000	0.293800	0.825200
C1441	C144	0.874200	0.293900	0.792400
N181	N18	0.975900	0.304900	0.987400
Fe191	Fe19	0.239080	0.696530	0.179490
O911	O91	0.150200	0.704400	0.165400
O921	O92	0.107300	0.745300	0.249900
O931	O93	0.873800	0.725900	0.263400
O941	O94	0.828800	0.685700	0.180900
O951	O95	0.238200	0.627300	0.113400
C1451	C145	0.104400	0.723800	0.196800
C1461	C146	0.042600	0.715200	0.169200
C1471	C147	0.038800	0.705600	0.106500
H551	H55	0.074800	0.705000	0.083000
C1481	C148	0.985400	0.697300	0.079400
C1491	C149	0.928300	0.697200	0.112800
H561	H56	0.890600	0.691300	0.093000
C1501	C150	0.989600	0.716900	0.202500
H571	H57	0.991400	0.725400	0.244600
C1511	C151	0.932000	0.706200	0.174800
C1521	C152	0.874200	0.706100	0.207600
N191	N19	0.975900	0.695100	0.012600
Fe201	Fe20	0.760920	0.696530	0.820510
O961	O96	0.849800	0.704400	0.834600
O971	O97	0.892700	0.745300	0.750100
O981	O98	0.126200	0.725900	0.736600
O991	O99	0.171200	0.685700	0.819100
O1001	O100	0.761800	0.627300	0.886600
C1531	C153	0.895600	0.723800	0.803200
C1541	C154	0.957400	0.715200	0.830800
C1551	C155	0.961200	0.705600	0.893500
H581	H58	0.925200	0.705000	0.917000
C1561	C156	0.014600	0.697300	0.920600
C1571	C157	0.071700	0.697200	0.887200
H591	H59	0.109400	0.691300	0.907000
C1581	C158	0.010400	0.716900	0.797500
H601	H60	0.008600	0.725400	0.755400
C1591	C159	0.068000	0.706200	0.825200
C1601	C160	0.125800	0.706100	0.792400
N201	N20	0.024100	0.695100	0.987400
Fe211	Fe21	0.303470	0.179490	0.760920
O1011	O101	0.295600	0.165400	0.849800
O1021	O102	0.254700	0.249900	0.892700
O1031	O103	0.274100	0.263400	0.126200
O1041	O104	0.314300	0.180900	0.171200
O1051	O105	0.372700	0.113400	0.761800
C1611	C161	0.276200	0.196800	0.895600
C1621	C162	0.284800	0.169200	0.957400
C1631	C163	0.294400	0.106500	0.961200
H611	H61	0.295000	0.083000	0.925200
C1641	C164	0.302700	0.079400	0.014600
C1651	C165	0.302800	0.112800	0.071700
H621	H62	0.308700	0.093000	0.109400
C1661	C166	0.283100	0.202500	0.010400
H631	H63	0.274600	0.244600	0.008600
C1671	C167	0.293800	0.174800	0.068000
C1681	C168	0.293900	0.207600	0.125800
N211	N21	0.304900	0.012600	0.024100
Fe221	Fe22	0.303470	0.820510	0.239080
O1061	O106	0.295600	0.834600	0.150200
O1071	O107	0.254700	0.750100	0.107300
O1081	O108	0.274100	0.736600	0.873800
O1091	O109	0.314300	0.819100	0.828800
O1101	O110	0.372700	0.886600	0.238200
C1691	C169	0.276200	0.803200	0.104400
C1701	C170	0.284800	0.830800	0.042600
C1711	C171	0.294400	0.893500	0.038800
H641	H64	0.295000	0.917000	0.074800
C1721	C172	0.302700	0.920600	0.985400
C1731	C173	0.302800	0.887200	0.928300
H651	H65	0.308700	0.907000	0.890600
C1741	C174	0.283100	0.797500	0.989600
H661	H66	0.274600	0.755400	0.991400
C1751	C175	0.293800	0.825200	0.932000
C1761	C176	0.293900	0.792400	0.874200
N221	N22	0.304900	0.987400	0.975900
Fe231	Fe23	0.696530	0.179490	0.239080
O1111	O111	0.704400	0.165400	0.150200
O1121	O112	0.745300	0.249900	0.107300
O1131	O113	0.725900	0.263400	0.873800
O1141	O114	0.685700	0.180900	0.828800
O1151	O115	0.627300	0.113400	0.238200
C1771	C177	0.723800	0.196800	0.104400
C1781	C178	0.715200	0.169200	0.042600
C1791	C179	0.705600	0.106500	0.038800
H671	H67	0.705000	0.083000	0.074800
C1801	C180	0.697300	0.079400	0.985400
C1811	C181	0.697200	0.112800	0.928300
H681	H68	0.691300	0.093000	0.890600
C1821	C182	0.716900	0.202500	0.989600
H691	H69	0.725400	0.244600	0.991400
C1831	C183	0.706200	0.174800	0.932000
C1841	C184	0.706100	0.207600	0.874200
N231	N23	0.695100	0.012600	0.975900
Fe241	Fe24	0.696530	0.820510	0.760920
O1161	O116	0.704400	0.834600	0.849800
O1171	O117	0.745300	0.750100	0.892700
O1181	O118	0.725900	0.736600	0.126200
O1191	O119	0.685700	0.819100	0.171200
O1201	O120	0.627300	0.886600	0.761800
C1851	C185	0.723800	0.803200	0.895600
C1861	C186	0.715200	0.830800	0.957400
C1871	C187	0.705600	0.893500	0.961200
H701	H70	0.705000	0.917000	0.925200
C1881	C188	0.697300	0.920600	0.014600
C1891	C189	0.697200	0.887200	0.071700
H711	H71	0.691300	0.907000	0.109400
C1901	C190	0.716900	0.797500	0.010400
H721	H72	0.725400	0.755400	0.008600
C1911	C191	0.706200	0.825200	0.068000
C1921	C192	0.706100	0.792400	0.125800
N241	N24	0.695100	0.987400	0.024100
O1211	O121	0.260100	0.739900	0.739900
O1221	O122	0.739900	0.260100	0.739900
O1231	O123	0.739900	0.739900	0.260100
O1241	O124	0.260100	0.260100	0.260100
O1251	O125	0.239900	0.760100	0.239900
O1261	O126	0.760100	0.239900	0.239900
O1271	O127	0.239900	0.239900	0.760100
O1281	O128	0.760100	0.760100	0.760100
