data_IZEVAM_freeONLY_PM
_symmetry_space_group_name_H-M	'P1'
_cell_length_a	9.421800
_cell_length_b	9.421800
_cell_length_c	15.657800
_cell_angle_alpha	90.000000
_cell_angle_beta	90.000000
_cell_angle_gamma	120.000000
_symmetry_Int_Tables_number 1

loop_
_symmetry_equiv_pos_as_xyz
'x,y,z'

loop_
_atom_site_label
_atom_site_type_symbol
_atom_site_fract_x
_atom_site_fract_y
_atom_site_fract_z
H11	H1	0.536000	0.882400	0.058200
H21	H2	0.117600	0.653600	0.058200
H31	H3	0.346400	0.464000	0.058200
H41	H4	0.464000	0.117600	0.558200
H51	H5	0.882400	0.346400	0.558200
H61	H6	0.653600	0.536000	0.558200
H71	H7	0.117600	0.464000	0.058200
H81	H8	0.346400	0.882400	0.058200
H91	H9	0.536000	0.653600	0.058200
H101	H10	0.882400	0.536000	0.558200
H111	H11	0.653600	0.117600	0.558200
H121	H12	0.464000	0.346400	0.558200
Cu11	Cu1	0.548800	0.097600	0.200500
Cl11	Cl1	0.525500	0.051000	0.349600
N11	N1	0.421500	0.843000	0.157200
C11	C1	0.417150	0.834300	0.061100
Cu21	Cu2	0.902400	0.451200	0.200500
Cl21	Cl2	0.949000	0.474500	0.349600
N21	N2	0.157000	0.578500	0.157200
C21	C2	0.165700	0.582850	0.061100
Cu31	Cu3	0.548800	0.451200	0.200500
Cl31	Cl3	0.525500	0.474500	0.349600
N31	N3	0.421500	0.578500	0.157200
C31	C3	0.417150	0.582850	0.061100
Cu41	Cu4	0.451200	0.902400	0.700500
Cl41	Cl4	0.474500	0.949000	0.849600
N41	N4	0.578500	0.157000	0.657200
C41	C4	0.582850	0.165700	0.561100
Cu51	Cu5	0.097600	0.548800	0.700500
Cl51	Cl5	0.051000	0.525500	0.849600
N51	N5	0.843000	0.421500	0.657200
C51	C5	0.834300	0.417150	0.561100
Cu61	Cu6	0.451200	0.548800	0.700500
Cl61	Cl6	0.474500	0.525500	0.849600
N61	N6	0.578500	0.421500	0.657200
C61	C6	0.582850	0.417150	0.561100
Cu71	Cu7	0.666670	0.333330	0.390200
Cu81	Cu8	0.333330	0.666670	0.890200
Cl71	Cl7	0.382800	0.191400	0.142700
Cl81	Cl8	0.808600	0.191400	0.142700
Cl91	Cl9	0.808600	0.617200	0.142700
Cl101	Cl10	0.617200	0.808600	0.642700
Cl111	Cl11	0.191400	0.808600	0.642700
Cl121	Cl12	0.191400	0.382800	0.642700
C71	C7	0.250900	0.749100	0.187400
H131	H13	0.193150	0.806850	0.173700
H141	H14	0.256450	0.743550	0.248500
C81	C8	0.250900	0.501800	0.187400
H151	H15	0.193150	0.386300	0.173700
H161	H16	0.256450	0.512900	0.248500
C91	C9	0.498200	0.749100	0.187400
H171	H17	0.613700	0.806850	0.173700
H181	H18	0.487100	0.743550	0.248500
C101	C10	0.749100	0.250900	0.687400
H191	H19	0.806850	0.193150	0.673700
H201	H20	0.743550	0.256450	0.748500
C111	C11	0.749100	0.498200	0.687400
H211	H21	0.806850	0.613700	0.673700
H221	H22	0.743550	0.487100	0.748500
C121	C12	0.501800	0.250900	0.687400
H231	H23	0.386300	0.193150	0.673700
H241	H24	0.512900	0.256450	0.748500
N71	N7	0.333330	0.666670	0.028000
N81	N8	0.666670	0.333330	0.528000
