data_j_PM
_symmetry_space_group_name_H-M	'P1'
_cell_length_a	23.276000
_cell_length_b	20.665000
_cell_length_c	17.502000
_cell_angle_alpha	90.000000
_cell_angle_beta	126.265000
_cell_angle_gamma	90.000000
_symmetry_Int_Tables_number 1

loop_
_symmetry_equiv_pos_as_xyz
'x,y,z'

loop_
_atom_site_label
_atom_site_type_symbol
_atom_site_fract_x
_atom_site_fract_y
_atom_site_fract_z
Zn11	Zn1	0.143400	0.664580	0.664510
O11	O1	0.474800	0.888100	0.819500
O21	O2	0.589000	0.908500	0.920900
O31	O3	0.183400	0.621600	0.601200
O41	O4	0.277200	0.678800	0.802800
C11	C1	0.405700	0.890500	0.913000
O51	O5	0.190300	0.747500	0.713800
C21	C2	0.427000	0.825800	0.941100
C31	C3	0.511700	0.956300	0.949800
C41	C4	0.554300	0.009800	0.994100
H11	H1	0.591900	0.016100	0.990000
C51	C5	0.455200	0.945600	0.956200
C61	C6	0.254500	0.736700	0.779300
C71	C7	0.375900	0.777000	0.898000
H21	H2	0.390000	0.734400	0.917100
N11	N1	0.142600	0.601100	0.750000
C81	C8	0.526500	0.914500	0.894400
C91	C9	0.305300	0.790000	0.827800
C101	C10	0.335000	0.902100	0.845800
H31	H3	0.319800	0.944700	0.829600
C111	C11	0.500900	0.807800	0.014100
C121	C12	0.284800	0.853200	0.800500
H41	H4	0.237600	0.863100	0.752100
N21	N2	0.179000	0.530200	0.859500
C131	C13	0.107400	0.528700	0.803000
H51	H5	0.078500	0.501100	0.808400
C141	C14	0.085700	0.574500	0.737300
H61	H6	0.038600	0.585900	0.690500
C151	C15	0.238900	0.429400	0.917500
H71	H7	0.258600	0.433800	0.882100
H81	H8	0.193000	0.408100	0.877100
C161	C16	0.198600	0.574100	0.822900
H91	H9	0.245400	0.583700	0.846400
O61	O6	0.521300	0.759200	0.984300
C171	C17	0.287300	0.389000	0.003000
H101	H10	0.335700	0.404900	0.036200
H111	H11	0.273500	0.392200	0.045400
C181	C18	0.229300	0.491600	0.942400
H121	H12	0.274900	0.513800	0.979800
H131	H13	0.212400	0.487100	0.981100
C191	C19	0.284300	0.323300	0.977000
H141	H14	0.297200	0.318700	0.933800
H151	H15	0.237300	0.305100	0.948200
C201	C20	0.389000	0.252000	0.093500
H161	H16	0.403100	0.243700	0.054600
N31	N3	0.338700	0.292400	0.071300
C211	C21	0.338900	0.293600	0.154400
H171	H17	0.310600	0.319300	0.163400
N41	N4	0.418200	0.224100	0.175900
C221	C22	0.387600	0.250700	0.215100
H181	H18	0.398900	0.240600	0.274300
O71	O7	0.544500	0.835700	0.061900
Zn21	Zn2	0.643400	0.164580	0.664510
O81	O8	0.974800	0.388100	0.819500
O91	O9	0.089000	0.408500	0.920900
O101	O10	0.683400	0.121600	0.601200
O111	O11	0.777200	0.178800	0.802800
C231	C23	0.905700	0.390500	0.913000
O121	O12	0.690300	0.247500	0.713800
C241	C24	0.927000	0.325800	0.941100
C251	C25	0.011700	0.456300	0.949800
C261	C26	0.054300	0.509800	0.994100
H191	H19	0.091900	0.516100	0.990000
C271	C27	0.955200	0.445600	0.956200
C281	C28	0.754500	0.236700	0.779300
C291	C29	0.875900	0.277000	0.898000
H201	H20	0.890000	0.234400	0.917100
N51	N5	0.642600	0.101100	0.750000
C301	C30	0.026500	0.414500	0.894400
C311	C31	0.805300	0.290000	0.827800
C321	C32	0.835000	0.402100	0.845800
H211	H21	0.819800	0.444700	0.829600
C331	C33	0.000900	0.307800	0.014100
C341	C34	0.784800	0.353200	0.800500
H221	H22	0.737600	0.363100	0.752100
N61	N6	0.679000	0.030200	0.859500
C351	C35	0.607400	0.028700	0.803000
H231	H23	0.578500	0.001100	0.808400
C361	C36	0.585700	0.074500	0.737300
H241	H24	0.538600	0.085900	0.690500
C371	C37	0.738900	0.929400	0.917500
H251	H25	0.758600	0.933800	0.882100
H261	H26	0.693000	0.908100	0.877100
C381	C38	0.698600	0.074100	0.822900
H271	H27	0.745400	0.083700	0.846400
O131	O13	0.021300	0.259200	0.984300
C391	C39	0.787300	0.889000	0.003000
H281	H28	0.835700	0.904900	0.036200
H291	H29	0.773500	0.892200	0.045400
C401	C40	0.729300	0.991600	0.942400
H301	H30	0.774900	0.013800	0.979800
H311	H31	0.712400	0.987100	0.981100
C411	C41	0.784300	0.823300	0.977000
H321	H32	0.797200	0.818700	0.933800
H331	H33	0.737300	0.805100	0.948200
C421	C42	0.889000	0.752000	0.093500
H341	H34	0.903100	0.743700	0.054600
N71	N7	0.838700	0.792400	0.071300
C431	C43	0.838900	0.793600	0.154400
H351	H35	0.810600	0.819300	0.163400
N81	N8	0.918200	0.724100	0.175900
C441	C44	0.887600	0.750700	0.215100
H361	H36	0.898900	0.740600	0.274300
O141	O14	0.044500	0.335700	0.061900
Zn31	Zn3	0.856600	0.664580	0.835490
O151	O15	0.525200	0.888100	0.680500
O161	O16	0.411000	0.908500	0.579100
O171	O17	0.816600	0.621600	0.898800
O181	O18	0.722800	0.678800	0.697200
C451	C45	0.594300	0.890500	0.587000
O191	O19	0.809700	0.747500	0.786200
C461	C46	0.573000	0.825800	0.558900
C471	C47	0.488300	0.956300	0.550200
C481	C48	0.445700	0.009800	0.505900
H371	H37	0.408100	0.016100	0.510000
C491	C49	0.544800	0.945600	0.543800
C501	C50	0.745500	0.736700	0.720700
C511	C51	0.624100	0.777000	0.602000
H381	H38	0.610000	0.734400	0.582900
N91	N9	0.857400	0.601100	0.750000
C521	C52	0.473500	0.914500	0.605600
C531	C53	0.694700	0.790000	0.672200
C541	C54	0.665000	0.902100	0.654200
H391	H39	0.680200	0.944700	0.670400
C551	C55	0.499100	0.807800	0.485900
C561	C56	0.715200	0.853200	0.699500
H401	H40	0.762400	0.863100	0.747900
N101	N10	0.821000	0.530200	0.640500
C571	C57	0.892600	0.528700	0.697000
H411	H41	0.921500	0.501100	0.691600
C581	C58	0.914300	0.574500	0.762700
H421	H42	0.961400	0.585900	0.809500
C591	C59	0.761100	0.429400	0.582500
H431	H43	0.741400	0.433800	0.617900
H441	H44	0.807000	0.408100	0.622900
C601	C60	0.801400	0.574100	0.677100
H451	H45	0.754600	0.583700	0.653600
O201	O20	0.478700	0.759200	0.515700
C611	C61	0.712700	0.389000	0.497000
H461	H46	0.664300	0.404900	0.463800
H471	H47	0.726500	0.392200	0.454600
C621	C62	0.770700	0.491600	0.557600
H481	H48	0.725100	0.513800	0.520200
H491	H49	0.787600	0.487100	0.518900
C631	C63	0.715700	0.323300	0.523000
H501	H50	0.702800	0.318700	0.566200
H511	H51	0.762700	0.305100	0.551800
C641	C64	0.611000	0.252000	0.406500
H521	H52	0.596900	0.243700	0.445400
N111	N11	0.661300	0.292400	0.428700
C651	C65	0.661100	0.293600	0.345600
H531	H53	0.689400	0.319300	0.336600
N121	N12	0.581800	0.224100	0.324100
C661	C66	0.612400	0.250700	0.284900
H541	H54	0.601100	0.240600	0.225700
O211	O21	0.455500	0.835700	0.438100
Zn41	Zn4	0.356600	0.164580	0.835490
O221	O22	0.025200	0.388100	0.680500
O231	O23	0.911000	0.408500	0.579100
O241	O24	0.316600	0.121600	0.898800
O251	O25	0.222800	0.178800	0.697200
C671	C67	0.094300	0.390500	0.587000
O261	O26	0.309700	0.247500	0.786200
C681	C68	0.073000	0.325800	0.558900
C691	C69	0.988300	0.456300	0.550200
C701	C70	0.945700	0.509800	0.505900
H551	H55	0.908100	0.516100	0.510000
C711	C71	0.044800	0.445600	0.543800
C721	C72	0.245500	0.236700	0.720700
C731	C73	0.124100	0.277000	0.602000
H561	H56	0.110000	0.234400	0.582900
N131	N13	0.357400	0.101100	0.750000
C741	C74	0.973500	0.414500	0.605600
C751	C75	0.194700	0.290000	0.672200
C761	C76	0.165000	0.402100	0.654200
H571	H57	0.180200	0.444700	0.670400
C771	C77	0.999100	0.307800	0.485900
C781	C78	0.215200	0.353200	0.699500
H581	H58	0.262400	0.363100	0.747900
N141	N14	0.321000	0.030200	0.640500
C791	C79	0.392600	0.028700	0.697000
H591	H59	0.421500	0.001100	0.691600
C801	C80	0.414300	0.074500	0.762700
H601	H60	0.461400	0.085900	0.809500
C811	C81	0.261100	0.929400	0.582500
H611	H61	0.241400	0.933800	0.617900
H621	H62	0.307000	0.908100	0.622900
C821	C82	0.301400	0.074100	0.677100
H631	H63	0.254600	0.083700	0.653600
O271	O27	0.978700	0.259200	0.515700
C831	C83	0.212700	0.889000	0.497000
H641	H64	0.164300	0.904900	0.463800
H651	H65	0.226500	0.892200	0.454600
C841	C84	0.270700	0.991600	0.557600
H661	H66	0.225100	0.013800	0.520200
H671	H67	0.287600	0.987100	0.518900
C851	C85	0.215700	0.823300	0.523000
H681	H68	0.202800	0.818700	0.566200
H691	H69	0.262700	0.805100	0.551800
C861	C86	0.111000	0.752000	0.406500
H701	H70	0.096900	0.743700	0.445400
N151	N15	0.161300	0.792400	0.428700
C871	C87	0.161100	0.793600	0.345600
H711	H71	0.189400	0.819300	0.336600
N161	N16	0.081800	0.724100	0.324100
C881	C88	0.112400	0.750700	0.284900
H721	H72	0.101100	0.740600	0.225700
O281	O28	0.955500	0.335700	0.438100
Zn51	Zn5	0.856600	0.335420	0.335490
O291	O29	0.525200	0.111900	0.180500
O301	O30	0.411000	0.091500	0.079100
O311	O31	0.816600	0.378400	0.398800
O321	O32	0.722800	0.321200	0.197200
C891	C89	0.594300	0.109500	0.087000
O331	O33	0.809700	0.252500	0.286200
C901	C90	0.573000	0.174200	0.058900
C911	C91	0.488300	0.043700	0.050200
C921	C92	0.445700	0.990200	0.005900
H731	H73	0.408100	0.983900	0.010000
C931	C93	0.544800	0.054400	0.043800
C941	C94	0.745500	0.263300	0.220700
C951	C95	0.624100	0.223000	0.102000
H741	H74	0.610000	0.265600	0.082900
N171	N17	0.857400	0.398900	0.250000
C961	C96	0.473500	0.085500	0.105600
C971	C97	0.694700	0.210000	0.172200
C981	C98	0.665000	0.097900	0.154200
H751	H75	0.680200	0.055300	0.170400
C991	C99	0.499100	0.192200	0.985900
C1001	C100	0.715200	0.146800	0.199500
H761	H76	0.762400	0.136900	0.247900
N181	N18	0.821000	0.469800	0.140500
C1011	C101	0.892600	0.471300	0.197000
H771	H77	0.921500	0.498900	0.191600
C1021	C102	0.914300	0.425500	0.262700
H781	H78	0.961400	0.414100	0.309500
C1031	C103	0.761100	0.570600	0.082500
H791	H79	0.741400	0.566200	0.117900
H801	H80	0.807000	0.591900	0.122900
C1041	C104	0.801400	0.425900	0.177100
H811	H81	0.754600	0.416300	0.153600
O341	O34	0.478700	0.240800	0.015700
C1051	C105	0.712700	0.611000	0.997000
H821	H82	0.664300	0.595100	0.963800
H831	H83	0.726500	0.607800	0.954600
C1061	C106	0.770700	0.508400	0.057600
H841	H84	0.725100	0.486200	0.020200
H851	H85	0.787600	0.512900	0.018900
C1071	C107	0.715700	0.676700	0.023000
H861	H86	0.702800	0.681300	0.066200
H871	H87	0.762700	0.694900	0.051800
C1081	C108	0.611000	0.748000	0.906500
H881	H88	0.596900	0.756300	0.945400
N191	N19	0.661300	0.707600	0.928700
C1091	C109	0.661100	0.706400	0.845600
H891	H89	0.689400	0.680700	0.836600
N201	N20	0.581800	0.775900	0.824100
C1101	C110	0.612400	0.749300	0.784900
H901	H90	0.601100	0.759400	0.725700
O351	O35	0.455500	0.164300	0.938100
Zn61	Zn6	0.356600	0.835420	0.335490
O361	O36	0.025200	0.611900	0.180500
O371	O37	0.911000	0.591500	0.079100
O381	O38	0.316600	0.878400	0.398800
O391	O39	0.222800	0.821200	0.197200
C1111	C111	0.094300	0.609500	0.087000
O401	O40	0.309700	0.752500	0.286200
C1121	C112	0.073000	0.674200	0.058900
C1131	C113	0.988300	0.543700	0.050200
C1141	C114	0.945700	0.490200	0.005900
H911	H91	0.908100	0.483900	0.010000
C1151	C115	0.044800	0.554400	0.043800
C1161	C116	0.245500	0.763300	0.220700
C1171	C117	0.124100	0.723000	0.102000
H921	H92	0.110000	0.765600	0.082900
N211	N21	0.357400	0.898900	0.250000
C1181	C118	0.973500	0.585500	0.105600
C1191	C119	0.194700	0.710000	0.172200
C1201	C120	0.165000	0.597900	0.154200
H931	H93	0.180200	0.555300	0.170400
C1211	C121	0.999100	0.692200	0.985900
C1221	C122	0.215200	0.646800	0.199500
H941	H94	0.262400	0.636900	0.247900
N221	N22	0.321000	0.969800	0.140500
C1231	C123	0.392600	0.971300	0.197000
H951	H95	0.421500	0.998900	0.191600
C1241	C124	0.414300	0.925500	0.262700
H961	H96	0.461400	0.914100	0.309500
C1251	C125	0.261100	0.070600	0.082500
H971	H97	0.241400	0.066200	0.117900
H981	H98	0.307000	0.091900	0.122900
C1261	C126	0.301400	0.925900	0.177100
H991	H99	0.254600	0.916300	0.153600
O411	O41	0.978700	0.740800	0.015700
C1271	C127	0.212700	0.111000	0.997000
H1001	H100	0.164300	0.095100	0.963800
H1011	H101	0.226500	0.107800	0.954600
C1281	C128	0.270700	0.008400	0.057600
H1021	H102	0.225100	0.986200	0.020200
H1031	H103	0.287600	0.012900	0.018900
C1291	C129	0.215700	0.176700	0.023000
H1041	H104	0.202800	0.181300	0.066200
H1051	H105	0.262700	0.194900	0.051800
C1301	C130	0.111000	0.248000	0.906500
H1061	H106	0.096900	0.256300	0.945400
N231	N23	0.161300	0.207600	0.928700
C1311	C131	0.161100	0.206400	0.845600
H1071	H107	0.189400	0.180700	0.836600
N241	N24	0.081800	0.275900	0.824100
C1321	C132	0.112400	0.249300	0.784900
H1081	H108	0.101100	0.259400	0.725700
O421	O42	0.955500	0.664300	0.938100
Zn71	Zn7	0.143400	0.335420	0.164510
O431	O43	0.474800	0.111900	0.319500
O441	O44	0.589000	0.091500	0.420900
O451	O45	0.183400	0.378400	0.101200
O461	O46	0.277200	0.321200	0.302800
C1331	C133	0.405700	0.109500	0.413000
O471	O47	0.190300	0.252500	0.213800
C1341	C134	0.427000	0.174200	0.441100
C1351	C135	0.511700	0.043700	0.449800
C1361	C136	0.554300	0.990200	0.494100
H1091	H109	0.591900	0.983900	0.490000
C1371	C137	0.455200	0.054400	0.456200
C1381	C138	0.254500	0.263300	0.279300
C1391	C139	0.375900	0.223000	0.398000
H1101	H110	0.390000	0.265600	0.417100
N251	N25	0.142600	0.398900	0.250000
C1401	C140	0.526500	0.085500	0.394400
C1411	C141	0.305300	0.210000	0.327800
C1421	C142	0.335000	0.097900	0.345800
H1111	H111	0.319800	0.055300	0.329600
C1431	C143	0.500900	0.192200	0.514100
C1441	C144	0.284800	0.146800	0.300500
H1121	H112	0.237600	0.136900	0.252100
N261	N26	0.179000	0.469800	0.359500
C1451	C145	0.107400	0.471300	0.303000
H1131	H113	0.078500	0.498900	0.308400
C1461	C146	0.085700	0.425500	0.237300
H1141	H114	0.038600	0.414100	0.190500
C1471	C147	0.238900	0.570600	0.417500
H1151	H115	0.258600	0.566200	0.382100
H1161	H116	0.193000	0.591900	0.377100
C1481	C148	0.198600	0.425900	0.322900
H1171	H117	0.245400	0.416300	0.346400
O481	O48	0.521300	0.240800	0.484300
C1491	C149	0.287300	0.611000	0.503000
H1181	H118	0.335700	0.595100	0.536200
H1191	H119	0.273500	0.607800	0.545400
C1501	C150	0.229300	0.508400	0.442400
H1201	H120	0.274900	0.486200	0.479800
H1211	H121	0.212400	0.512900	0.481100
C1511	C151	0.284300	0.676700	0.477000
H1221	H122	0.297200	0.681300	0.433800
H1231	H123	0.237300	0.694900	0.448200
C1521	C152	0.389000	0.748000	0.593500
H1241	H124	0.403100	0.756300	0.554600
N271	N27	0.338700	0.707600	0.571300
C1531	C153	0.338900	0.706400	0.654400
H1251	H125	0.310600	0.680700	0.663400
N281	N28	0.418200	0.775900	0.675900
C1541	C154	0.387600	0.749300	0.715100
H1261	H126	0.398900	0.759400	0.774300
O491	O49	0.544500	0.164300	0.561900
Zn81	Zn8	0.643400	0.835420	0.164510
O501	O50	0.974800	0.611900	0.319500
O511	O51	0.089000	0.591500	0.420900
O521	O52	0.683400	0.878400	0.101200
O531	O53	0.777200	0.821200	0.302800
C1551	C155	0.905700	0.609500	0.413000
O541	O54	0.690300	0.752500	0.213800
C1561	C156	0.927000	0.674200	0.441100
C1571	C157	0.011700	0.543700	0.449800
C1581	C158	0.054300	0.490200	0.494100
H1271	H127	0.091900	0.483900	0.490000
C1591	C159	0.955200	0.554400	0.456200
C1601	C160	0.754500	0.763300	0.279300
C1611	C161	0.875900	0.723000	0.398000
H1281	H128	0.890000	0.765600	0.417100
N291	N29	0.642600	0.898900	0.250000
C1621	C162	0.026500	0.585500	0.394400
C1631	C163	0.805300	0.710000	0.327800
C1641	C164	0.835000	0.597900	0.345800
H1291	H129	0.819800	0.555300	0.329600
C1651	C165	0.000900	0.692200	0.514100
C1661	C166	0.784800	0.646800	0.300500
H1301	H130	0.737600	0.636900	0.252100
N301	N30	0.679000	0.969800	0.359500
C1671	C167	0.607400	0.971300	0.303000
H1311	H131	0.578500	0.998900	0.308400
C1681	C168	0.585700	0.925500	0.237300
H1321	H132	0.538600	0.914100	0.190500
C1691	C169	0.738900	0.070600	0.417500
H1331	H133	0.758600	0.066200	0.382100
H1341	H134	0.693000	0.091900	0.377100
C1701	C170	0.698600	0.925900	0.322900
H1351	H135	0.745400	0.916300	0.346400
O551	O55	0.021300	0.740800	0.484300
C1711	C171	0.787300	0.111000	0.503000
H1361	H136	0.835700	0.095100	0.536200
H1371	H137	0.773500	0.107800	0.545400
C1721	C172	0.729300	0.008400	0.442400
H1381	H138	0.774900	0.986200	0.479800
H1391	H139	0.712400	0.012900	0.481100
C1731	C173	0.784300	0.176700	0.477000
H1401	H140	0.797200	0.181300	0.433800
H1411	H141	0.737300	0.194900	0.448200
C1741	C174	0.889000	0.248000	0.593500
H1421	H142	0.903100	0.256300	0.554600
N311	N31	0.838700	0.207600	0.571300
C1751	C175	0.838900	0.206400	0.654400
H1431	H143	0.810600	0.180700	0.663400
N321	N32	0.918200	0.275900	0.675900
C1761	C176	0.887600	0.249300	0.715100
H1441	H144	0.898900	0.259400	0.774300
O561	O56	0.044500	0.664300	0.561900
Zn91	Zn9	0.500000	0.837440	0.750000
Zn101	Zn10	0.000000	0.337440	0.750000
Zn111	Zn11	0.500000	0.162560	0.250000
Zn121	Zn12	0.000000	0.662560	0.250000
