data_j_PM
_symmetry_space_group_name_H-M	'P1'
_cell_length_a	12.624500
_cell_length_b	12.624500
_cell_length_c	25.500200
_cell_angle_alpha	90.000000
_cell_angle_beta	90.000000
_cell_angle_gamma	90.000000
_symmetry_Int_Tables_number 1

loop_
_symmetry_equiv_pos_as_xyz
'x,y,z'

loop_
_atom_site_label
_atom_site_type_symbol
_atom_site_fract_x
_atom_site_fract_y
_atom_site_fract_z
Zn11	Zn1	0.540080	0.064620	0.562640
C11	C1	0.605200	0.068300	0.661100
C21	C2	0.709800	0.069600	0.799800
H11	H1	0.682000	0.068800	0.833600
C31	C3	0.682000	0.069900	0.707000
C41	C4	0.641700	0.070400	0.757300
H21	H2	0.568800	0.071300	0.762600
C51	C5	0.497000	0.309500	0.578300
C61	C6	0.542200	0.266100	0.501500
H31	H3	0.563700	0.226600	0.472600
N11	N1	0.472300	0.303300	0.629800
H41	H4	0.455200	0.359600	0.646800
H51	H5	0.473700	0.243100	0.645500
N21	N2	0.524100	0.223500	0.549060
N31	N3	0.526600	0.368800	0.499890
N41	N4	0.497100	0.397800	0.551010
O11	O1	0.510700	0.086400	0.668100
O21	O2	0.644900	0.047000	0.617000
Zn21	Zn2	0.959920	0.435380	0.562640
C71	C7	0.894800	0.431700	0.661100
C81	C8	0.790200	0.430400	0.799800
H61	H6	0.818000	0.431200	0.833600
C91	C9	0.818000	0.430100	0.707000
C101	C10	0.858300	0.429600	0.757300
H71	H7	0.931200	0.428700	0.762600
C111	C11	0.003000	0.190500	0.578300
C121	C12	0.957800	0.233900	0.501500
H81	H8	0.936300	0.273400	0.472600
N51	N5	0.027700	0.196700	0.629800
H91	H9	0.044800	0.140400	0.646800
H101	H10	0.026300	0.256900	0.645500
N61	N6	0.975900	0.276500	0.549060
N71	N7	0.973400	0.131200	0.499890
N81	N8	0.002900	0.102200	0.551010
O31	O3	0.989300	0.413600	0.668100
O41	O4	0.855100	0.453000	0.617000
Zn31	Zn3	0.435380	0.540080	0.562640
C131	C13	0.431700	0.605200	0.661100
C141	C14	0.430400	0.709800	0.799800
H111	H11	0.431200	0.682000	0.833600
C151	C15	0.430100	0.682000	0.707000
C161	C16	0.429600	0.641700	0.757300
H121	H12	0.428700	0.568800	0.762600
C171	C17	0.190500	0.497000	0.578300
C181	C18	0.233900	0.542200	0.501500
H131	H13	0.273400	0.563700	0.472600
N91	N9	0.196700	0.472300	0.629800
H141	H14	0.140400	0.455200	0.646800
H151	H15	0.256900	0.473700	0.645500
N101	N10	0.276500	0.524100	0.549060
N111	N11	0.131200	0.526600	0.499890
N121	N12	0.102200	0.497100	0.551010
O51	O5	0.413600	0.510700	0.668100
O61	O6	0.453000	0.644900	0.617000
Zn41	Zn4	0.064620	0.959920	0.562640
C191	C19	0.068300	0.894800	0.661100
C201	C20	0.069600	0.790200	0.799800
H161	H16	0.068800	0.818000	0.833600
C211	C21	0.069900	0.818000	0.707000
C221	C22	0.070400	0.858300	0.757300
H171	H17	0.071300	0.931200	0.762600
C231	C23	0.309500	0.003000	0.578300
C241	C24	0.266100	0.957800	0.501500
H181	H18	0.226600	0.936300	0.472600
N131	N13	0.303300	0.027700	0.629800
H191	H19	0.359600	0.044800	0.646800
H201	H20	0.243100	0.026300	0.645500
N141	N14	0.223500	0.975900	0.549060
N151	N15	0.368800	0.973400	0.499890
N161	N16	0.397800	0.002900	0.551010
O71	O7	0.086400	0.989300	0.668100
O81	O8	0.047000	0.855100	0.617000
Zn51	Zn5	0.959920	0.064620	0.937360
C251	C25	0.894800	0.068300	0.838900
C261	C26	0.790200	0.069600	0.700200
H211	H21	0.818000	0.068800	0.666400
C271	C27	0.818000	0.069900	0.793000
C281	C28	0.858300	0.070400	0.742700
H221	H22	0.931200	0.071300	0.737400
C291	C29	0.003000	0.309500	0.921700
C301	C30	0.957800	0.266100	0.998500
H231	H23	0.936300	0.226600	0.027400
N171	N17	0.027700	0.303300	0.870200
H241	H24	0.044800	0.359600	0.853200
H251	H25	0.026300	0.243100	0.854500
N181	N18	0.975900	0.223500	0.950940
N191	N19	0.973400	0.368800	0.000110
N201	N20	0.002900	0.397800	0.948990
O91	O9	0.989300	0.086400	0.831900
O101	O10	0.855100	0.047000	0.883000
Zn61	Zn6	0.540080	0.435380	0.937360
C311	C31	0.605200	0.431700	0.838900
C321	C32	0.709800	0.430400	0.700200
H261	H26	0.682000	0.431200	0.666400
C331	C33	0.682000	0.430100	0.793000
C341	C34	0.641700	0.429600	0.742700
H271	H27	0.568800	0.428700	0.737400
C351	C35	0.497000	0.190500	0.921700
C361	C36	0.542200	0.233900	0.998500
H281	H28	0.563700	0.273400	0.027400
N211	N21	0.472300	0.196700	0.870200
H291	H29	0.455200	0.140400	0.853200
H301	H30	0.473700	0.256900	0.854500
N221	N22	0.524100	0.276500	0.950940
N231	N23	0.526600	0.131200	0.000110
N241	N24	0.497100	0.102200	0.948990
O111	O11	0.510700	0.413600	0.831900
O121	O12	0.644900	0.453000	0.883000
Zn71	Zn7	0.064620	0.540080	0.937360
C371	C37	0.068300	0.605200	0.838900
C381	C38	0.069600	0.709800	0.700200
H311	H31	0.068800	0.682000	0.666400
C391	C39	0.069900	0.682000	0.793000
C401	C40	0.070400	0.641700	0.742700
H321	H32	0.071300	0.568800	0.737400
C411	C41	0.309500	0.497000	0.921700
C421	C42	0.266100	0.542200	0.998500
H331	H33	0.226600	0.563700	0.027400
N251	N25	0.303300	0.472300	0.870200
H341	H34	0.359600	0.455200	0.853200
H351	H35	0.243100	0.473700	0.854500
N261	N26	0.223500	0.524100	0.950940
N271	N27	0.368800	0.526600	0.000110
N281	N28	0.397800	0.497100	0.948990
O131	O13	0.086400	0.510700	0.831900
O141	O14	0.047000	0.644900	0.883000
Zn81	Zn8	0.435380	0.959920	0.937360
C431	C43	0.431700	0.894800	0.838900
C441	C44	0.430400	0.790200	0.700200
H361	H36	0.431200	0.818000	0.666400
C451	C45	0.430100	0.818000	0.793000
C461	C46	0.429600	0.858300	0.742700
H371	H37	0.428700	0.931200	0.737400
C471	C47	0.190500	0.003000	0.921700
C481	C48	0.233900	0.957800	0.998500
H381	H38	0.273400	0.936300	0.027400
N291	N29	0.196700	0.027700	0.870200
H391	H39	0.140400	0.044800	0.853200
H401	H40	0.256900	0.026300	0.854500
N301	N30	0.276500	0.975900	0.950940
N311	N31	0.131200	0.973400	0.000110
N321	N32	0.102200	0.002900	0.948990
O151	O15	0.413600	0.989300	0.831900
O161	O16	0.453000	0.855100	0.883000
Zn91	Zn9	0.459920	0.935380	0.437360
C491	C49	0.394800	0.931700	0.338900
C501	C50	0.290200	0.930400	0.200200
H411	H41	0.318000	0.931200	0.166400
C511	C51	0.318000	0.930100	0.293000
C521	C52	0.358300	0.929600	0.242700
H421	H42	0.431200	0.928700	0.237400
C531	C53	0.503000	0.690500	0.421700
C541	C54	0.457800	0.733900	0.498500
H431	H43	0.436300	0.773400	0.527400
N331	N33	0.527700	0.696700	0.370200
H441	H44	0.544800	0.640400	0.353200
H451	H45	0.526300	0.756900	0.354500
N341	N34	0.475900	0.776500	0.450940
N351	N35	0.473400	0.631200	0.500110
N361	N36	0.502900	0.602200	0.448990
O171	O17	0.489300	0.913600	0.331900
O181	O18	0.355100	0.953000	0.383000
Zn101	Zn10	0.040080	0.564620	0.437360
C551	C55	0.105200	0.568300	0.338900
C561	C56	0.209800	0.569600	0.200200
H461	H46	0.182000	0.568800	0.166400
C571	C57	0.182000	0.569900	0.293000
C581	C58	0.141700	0.570400	0.242700
H471	H47	0.068800	0.571300	0.237400
C591	C59	0.997000	0.809500	0.421700
C601	C60	0.042200	0.766100	0.498500
H481	H48	0.063700	0.726600	0.527400
N371	N37	0.972300	0.803300	0.370200
H491	H49	0.955200	0.859600	0.353200
H501	H50	0.973700	0.743100	0.354500
N381	N38	0.024100	0.723500	0.450940
N391	N39	0.026600	0.868800	0.500110
N401	N40	0.997100	0.897800	0.448990
O191	O19	0.010700	0.586400	0.331900
O201	O20	0.144900	0.547000	0.383000
Zn111	Zn11	0.564620	0.459920	0.437360
C611	C61	0.568300	0.394800	0.338900
C621	C62	0.569600	0.290200	0.200200
H511	H51	0.568800	0.318000	0.166400
C631	C63	0.569900	0.318000	0.293000
C641	C64	0.570400	0.358300	0.242700
H521	H52	0.571300	0.431200	0.237400
C651	C65	0.809500	0.503000	0.421700
C661	C66	0.766100	0.457800	0.498500
H531	H53	0.726600	0.436300	0.527400
N411	N41	0.803300	0.527700	0.370200
H541	H54	0.859600	0.544800	0.353200
H551	H55	0.743100	0.526300	0.354500
N421	N42	0.723500	0.475900	0.450940
N431	N43	0.868800	0.473400	0.500110
N441	N44	0.897800	0.502900	0.448990
O211	O21	0.586400	0.489300	0.331900
O221	O22	0.547000	0.355100	0.383000
Zn121	Zn12	0.935380	0.040080	0.437360
C671	C67	0.931700	0.105200	0.338900
C681	C68	0.930400	0.209800	0.200200
H561	H56	0.931200	0.182000	0.166400
C691	C69	0.930100	0.182000	0.293000
C701	C70	0.929600	0.141700	0.242700
H571	H57	0.928700	0.068800	0.237400
C711	C71	0.690500	0.997000	0.421700
C721	C72	0.733900	0.042200	0.498500
H581	H58	0.773400	0.063700	0.527400
N451	N45	0.696700	0.972300	0.370200
H591	H59	0.640400	0.955200	0.353200
H601	H60	0.756900	0.973700	0.354500
N461	N46	0.776500	0.024100	0.450940
N471	N47	0.631200	0.026600	0.500110
N481	N48	0.602200	0.997100	0.448990
O231	O23	0.913600	0.010700	0.331900
O241	O24	0.953000	0.144900	0.383000
Zn131	Zn13	0.040080	0.935380	0.062640
C731	C73	0.105200	0.931700	0.161100
C741	C74	0.209800	0.930400	0.299800
H611	H61	0.182000	0.931200	0.333600
C751	C75	0.182000	0.930100	0.207000
C761	C76	0.141700	0.929600	0.257300
H621	H62	0.068800	0.928700	0.262600
C771	C77	0.997000	0.690500	0.078300
C781	C78	0.042200	0.733900	0.001500
H631	H63	0.063700	0.773400	0.972600
N491	N49	0.972300	0.696700	0.129800
H641	H64	0.955200	0.640400	0.146800
H651	H65	0.973700	0.756900	0.145500
N501	N50	0.024100	0.776500	0.049060
N511	N51	0.026600	0.631200	0.999890
N521	N52	0.997100	0.602200	0.051010
O251	O25	0.010700	0.913600	0.168100
O261	O26	0.144900	0.953000	0.117000
Zn141	Zn14	0.459920	0.564620	0.062640
C791	C79	0.394800	0.568300	0.161100
C801	C80	0.290200	0.569600	0.299800
H661	H66	0.318000	0.568800	0.333600
C811	C81	0.318000	0.569900	0.207000
C821	C82	0.358300	0.570400	0.257300
H671	H67	0.431200	0.571300	0.262600
C831	C83	0.503000	0.809500	0.078300
C841	C84	0.457800	0.766100	0.001500
H681	H68	0.436300	0.726600	0.972600
N531	N53	0.527700	0.803300	0.129800
H691	H69	0.544800	0.859600	0.146800
H701	H70	0.526300	0.743100	0.145500
N541	N54	0.475900	0.723500	0.049060
N551	N55	0.473400	0.868800	0.999890
N561	N56	0.502900	0.897800	0.051010
O271	O27	0.489300	0.586400	0.168100
O281	O28	0.355100	0.547000	0.117000
Zn151	Zn15	0.935380	0.459920	0.062640
C851	C85	0.931700	0.394800	0.161100
C861	C86	0.930400	0.290200	0.299800
H711	H71	0.931200	0.318000	0.333600
C871	C87	0.930100	0.318000	0.207000
C881	C88	0.929600	0.358300	0.257300
H721	H72	0.928700	0.431200	0.262600
C891	C89	0.690500	0.503000	0.078300
C901	C90	0.733900	0.457800	0.001500
H731	H73	0.773400	0.436300	0.972600
N571	N57	0.696700	0.527700	0.129800
H741	H74	0.640400	0.544800	0.146800
H751	H75	0.756900	0.526300	0.145500
N581	N58	0.776500	0.475900	0.049060
N591	N59	0.631200	0.473400	0.999890
N601	N60	0.602200	0.502900	0.051010
O291	O29	0.913600	0.489300	0.168100
O301	O30	0.953000	0.355100	0.117000
Zn161	Zn16	0.564620	0.040080	0.062640
C911	C91	0.568300	0.105200	0.161100
C921	C92	0.569600	0.209800	0.299800
H761	H76	0.568800	0.182000	0.333600
C931	C93	0.569900	0.182000	0.207000
C941	C94	0.570400	0.141700	0.257300
H771	H77	0.571300	0.068800	0.262600
C951	C95	0.809500	0.997000	0.078300
C961	C96	0.766100	0.042200	0.001500
H781	H78	0.726600	0.063700	0.972600
N611	N61	0.803300	0.972300	0.129800
H791	H79	0.859600	0.955200	0.146800
H801	H80	0.743100	0.973700	0.145500
N621	N62	0.723500	0.024100	0.049060
N631	N63	0.868800	0.026600	0.999890
N641	N64	0.897800	0.997100	0.051010
O311	O31	0.586400	0.010700	0.168100
O321	O32	0.547000	0.144900	0.117000
