data_j_PM
_symmetry_space_group_name_H-M	'P1'
_cell_length_a	15.466000
_cell_length_b	8.055700
_cell_length_c	18.445000
_cell_angle_alpha	90.000000
_cell_angle_beta	123.605000
_cell_angle_gamma	90.000000
_symmetry_Int_Tables_number 1

loop_
_symmetry_equiv_pos_as_xyz
'x,y,z'

loop_
_atom_site_label
_atom_site_type_symbol
_atom_site_fract_x
_atom_site_fract_y
_atom_site_fract_z
Cd11	Cd1	0.025710	0.610050	0.865840
Br11	Br1	0.674010	0.793900	0.648210
C11	C1	0.844700	0.968700	0.790200
C21	C2	0.893300	0.057800	0.868200
H11	H1	0.959400	0.100700	0.891400
C31	C3	0.844500	0.083300	0.911500
C41	C4	0.747200	0.013900	0.877800
H21	H2	0.715100	0.026700	0.907700
C51	C5	0.697500	0.926700	0.800900
H31	H3	0.631900	0.882200	0.778400
C61	C6	0.746400	0.905800	0.757200
C71	C7	0.900700	0.948800	0.744100
C81	C8	0.894600	0.188900	0.992400
C91	C9	0.819600	0.399600	0.728700
H41	H4	0.846300	0.372500	0.695800
C101	C10	0.798900	0.495500	0.823300
H51	H5	0.811800	0.551000	0.872600
C111	C11	0.644000	0.264700	0.632100
H61	H6	0.607000	0.192800	0.648400
H71	H7	0.675000	0.195700	0.609300
C121	C12	0.568300	0.384900	0.562400
C131	C13	0.479900	0.435500	0.557500
H81	H8	0.465000	0.391800	0.596000
C141	C14	0.586700	0.449400	0.504100
H91	H9	0.645100	0.415600	0.505600
N11	N1	0.868400	0.489200	0.801500
N21	N2	0.711000	0.417300	0.769800
N31	N3	0.726700	0.355000	0.710100
O11	O1	0.962600	0.832500	0.763900
O21	O2	0.879400	0.058000	0.687800
O31	O3	0.976300	0.268100	0.016530
O41	O4	0.852700	0.193800	0.035300
O51	O5	0.101200	0.390000	0.964300
H101	H10	0.065100	0.369100	0.985100
H111	H11	0.103100	0.304700	0.938200
Cd21	Cd2	0.974290	0.110050	0.634160
Br21	Br2	0.325990	0.293900	0.851790
C151	C15	0.155300	0.468700	0.709800
C161	C16	0.106700	0.557800	0.631800
H121	H12	0.040600	0.600700	0.608600
C171	C17	0.155500	0.583300	0.588500
C181	C18	0.252800	0.513900	0.622200
H131	H13	0.284900	0.526700	0.592300
C191	C19	0.302500	0.426700	0.699100
H141	H14	0.368100	0.382200	0.721600
C201	C20	0.253600	0.405800	0.742800
C211	C21	0.099300	0.448800	0.755900
C221	C22	0.105400	0.688900	0.507600
C231	C23	0.180400	0.899600	0.771300
H151	H15	0.153700	0.872500	0.804200
C241	C24	0.201100	0.995500	0.676700
H161	H16	0.188200	0.051000	0.627400
C251	C25	0.356000	0.764700	0.867900
H171	H17	0.393000	0.692800	0.851600
H181	H18	0.325000	0.695700	0.890700
C261	C26	0.431700	0.884900	0.937600
C271	C27	0.520100	0.935500	0.942500
H191	H19	0.535000	0.891800	0.904000
C281	C28	0.413300	0.949400	0.995900
H201	H20	0.354900	0.915600	0.994400
N41	N4	0.131600	0.989200	0.698500
N51	N5	0.289000	0.917300	0.730200
N61	N6	0.273300	0.855000	0.789900
O61	O6	0.037400	0.332500	0.736100
O71	O7	0.120600	0.558000	0.812200
O81	O8	0.023700	0.768100	0.483470
O91	O9	0.147300	0.693800	0.464700
O101	O10	0.898800	0.890000	0.535700
H211	H21	0.934900	0.869100	0.514900
H221	H22	0.896900	0.804700	0.561800
Cd31	Cd3	0.974290	0.389950	0.134160
Br31	Br3	0.325990	0.206100	0.351790
C291	C29	0.155300	0.031300	0.209800
C301	C30	0.106700	0.942200	0.131800
H231	H23	0.040600	0.899300	0.108600
C311	C31	0.155500	0.916700	0.088500
C321	C32	0.252800	0.986100	0.122200
H241	H24	0.284900	0.973300	0.092300
C331	C33	0.302500	0.073300	0.199100
H251	H25	0.368100	0.117800	0.221600
C341	C34	0.253600	0.094200	0.242800
C351	C35	0.099300	0.051200	0.255900
C361	C36	0.105400	0.811100	0.007600
C371	C37	0.180400	0.600400	0.271300
H261	H26	0.153700	0.627500	0.304200
C381	C38	0.201100	0.504500	0.176700
H271	H27	0.188200	0.449000	0.127400
C391	C39	0.356000	0.735300	0.367900
H281	H28	0.393000	0.807200	0.351600
H291	H29	0.325000	0.804300	0.390700
C401	C40	0.431700	0.615100	0.437600
C411	C41	0.520100	0.564500	0.442500
H301	H30	0.535000	0.608200	0.404000
C421	C42	0.413300	0.550600	0.495900
H311	H31	0.354900	0.584400	0.494400
N71	N7	0.131600	0.510800	0.198500
N81	N8	0.289000	0.582700	0.230200
N91	N9	0.273300	0.645000	0.289900
O111	O11	0.037400	0.167500	0.236100
O121	O12	0.120600	0.942000	0.312200
O131	O13	0.023700	0.731900	0.983470
O141	O14	0.147300	0.806200	0.964700
O151	O15	0.898800	0.610000	0.035700
H321	H32	0.934900	0.630900	0.014900
H331	H33	0.896900	0.695300	0.061800
Cd41	Cd4	0.025710	0.889950	0.365840
Br41	Br4	0.674010	0.706100	0.148210
C431	C43	0.844700	0.531300	0.290200
C441	C44	0.893300	0.442200	0.368200
H341	H34	0.959400	0.399300	0.391400
C451	C45	0.844500	0.416700	0.411500
C461	C46	0.747200	0.486100	0.377800
H351	H35	0.715100	0.473300	0.407700
C471	C47	0.697500	0.573300	0.300900
H361	H36	0.631900	0.617800	0.278400
C481	C48	0.746400	0.594200	0.257200
C491	C49	0.900700	0.551200	0.244100
C501	C50	0.894600	0.311100	0.492400
C511	C51	0.819600	0.100400	0.228700
H371	H37	0.846300	0.127500	0.195800
C521	C52	0.798900	0.004500	0.323300
H381	H38	0.811800	0.949000	0.372600
C531	C53	0.644000	0.235300	0.132100
H391	H39	0.607000	0.307200	0.148400
H401	H40	0.675000	0.304300	0.109300
C541	C54	0.568300	0.115100	0.062400
C551	C55	0.479900	0.064500	0.057500
H411	H41	0.465000	0.108200	0.096000
C561	C56	0.586700	0.050600	0.004100
H421	H42	0.645100	0.084400	0.005600
N101	N10	0.868400	0.010800	0.301500
N111	N11	0.711000	0.082700	0.269800
N121	N12	0.726700	0.145000	0.210100
O161	O16	0.962600	0.667500	0.263900
O171	O17	0.879400	0.442000	0.187800
O181	O18	0.976300	0.231900	0.516530
O191	O19	0.852700	0.306200	0.535300
O201	O20	0.101200	0.110000	0.464300
H431	H43	0.065100	0.130900	0.485100
H441	H44	0.103100	0.195300	0.438200
