data_ja073612tsi20070723_060520_freeONLY_PM
_symmetry_space_group_name_H-M	'P1'
_cell_length_a	12.910000
_cell_length_b	13.180000
_cell_length_c	14.590500
_cell_angle_alpha	116.850000
_cell_angle_beta	113.546000
_cell_angle_gamma	90.000000
_symmetry_Int_Tables_number 1

loop_
_symmetry_equiv_pos_as_xyz
'x,y,z'

loop_
_atom_site_label
_atom_site_type_symbol
_atom_site_fract_x
_atom_site_fract_y
_atom_site_fract_z
Mn11	Mn1	0.750000	0.973700	0.000000
Mn21	Mn2	0.534900	0.280960	0.577320
Mn31	Mn3	0.034900	0.296360	0.577320
Mn41	Mn4	0.965100	0.703640	0.422680
Mn51	Mn5	0.250000	0.026300	0.000000
Mn61	Mn6	0.465100	0.719040	0.422680
Mo11	Mo1	0.650340	0.339740	0.283160
Mo21	Mo2	0.849660	0.056580	0.716840
Mo31	Mo3	0.349660	0.660260	0.716840
Mo41	Mo4	0.150340	0.943420	0.283160
C11	C1	0.122000	0.766300	0.146600
C21	C2	0.893000	0.922600	0.594600
C31	C3	0.393000	0.672000	0.594600
C41	C4	0.789000	0.487100	0.368200
C51	C5	0.980600	0.939700	0.166400
C61	C6	0.019400	0.060300	0.833600
C71	C7	0.063600	0.845700	0.328400
C81	C8	0.192000	0.974500	0.170200
C91	C9	0.378000	0.619700	0.853400
C101	C10	0.211000	0.512900	0.631800
C111	C11	0.107000	0.077400	0.405400
C121	C12	0.563600	0.482700	0.328400
C131	C13	0.705000	0.914200	0.610400
C141	C14	0.711000	0.118900	0.631800
C151	C15	0.205000	0.696200	0.610400
C161	C16	0.308000	0.804300	0.829800
C171	C17	0.692000	0.195700	0.170200
C181	C18	0.436400	0.517300	0.671600
C191	C19	0.808000	0.025500	0.829800
C201	C20	0.519400	0.773300	0.833600
C211	C21	0.607000	0.328000	0.405400
C221	C22	0.622000	0.380300	0.146600
C231	C23	0.878000	0.233700	0.853400
C241	C24	0.289000	0.881100	0.368200
C251	C25	0.480600	0.226700	0.166400
C261	C26	0.936400	0.154300	0.671600
C271	C27	0.795000	0.303800	0.389600
C281	C28	0.295000	0.085800	0.389600
N11	N1	0.710000	0.114400	0.106800
N21	N2	0.609200	0.834700	0.897200
N31	N3	0.891000	0.328200	0.920400
N41	N4	0.390800	0.165300	0.102800
N51	N5	0.210000	0.992400	0.106800
N61	N6	0.978600	0.207400	0.646800
N71	N7	0.890800	0.937500	0.102800
N81	N8	0.625000	0.839600	0.551400
N91	N9	0.417000	0.680000	0.530000
N101	N10	0.583000	0.320000	0.470000
N111	N11	0.290000	0.885600	0.893200
N121	N12	0.109000	0.671800	0.079600
N131	N13	0.790000	0.007600	0.893200
N141	N14	0.478600	0.439400	0.646800
N151	N15	0.641500	0.160600	0.592200
N161	N16	0.109200	0.062500	0.897200
N171	N17	0.917000	0.850000	0.530000
N181	N18	0.875000	0.288200	0.448600
N191	N19	0.521400	0.560600	0.353200
N201	N20	0.021400	0.792600	0.353200
N211	N21	0.391000	0.592200	0.920400
N221	N22	0.858500	0.568400	0.407800
N231	N23	0.125000	0.711800	0.551400
N241	N24	0.083000	0.150000	0.470000
N251	N25	0.358500	0.839400	0.407800
N261	N26	0.609000	0.407800	0.079600
N271	N27	0.141500	0.431600	0.592200
N281	N28	0.375000	0.160400	0.448600
