data_ja074366osi20070816_031204_freeONLY_PM
_symmetry_space_group_name_H-M	'P1'
_cell_length_a	18.248600
_cell_length_b	18.248600
_cell_length_c	18.248600
_cell_angle_alpha	60.000000
_cell_angle_beta	60.000000
_cell_angle_gamma	60.000000
_symmetry_Int_Tables_number 1

loop_
_symmetry_equiv_pos_as_xyz
'x,y,z'

loop_
_atom_site_label
_atom_site_type_symbol
_atom_site_fract_x
_atom_site_fract_y
_atom_site_fract_z
Zn11	Zn1	0.119620	0.293460	0.293460
Zn21	Zn2	0.706540	0.880380	0.706540
Zn31	Zn3	0.293460	0.293460	0.119620
Zn41	Zn4	0.293460	0.293460	0.293460
Zn51	Zn5	0.880380	0.706540	0.706540
Zn61	Zn6	0.293460	0.119620	0.293460
Zn71	Zn7	0.706540	0.706540	0.880380
Zn81	Zn8	0.706540	0.706540	0.706540
H11	H1	0.150600	0.456400	0.456400
H21	H2	0.849400	0.543600	0.063400
H31	H3	0.456400	0.936600	0.456400
H41	H4	0.543600	0.849400	0.063400
H51	H5	0.849400	0.543600	0.543600
H61	H6	0.456400	0.150600	0.936600
H71	H7	0.456400	0.936600	0.150600
H81	H8	0.063400	0.543600	0.543600
H91	H9	0.456400	0.150600	0.456400
H101	H10	0.936600	0.456400	0.456400
H111	H11	0.936600	0.150600	0.456400
H121	H12	0.456400	0.456400	0.150600
H131	H13	0.063400	0.849400	0.543600
H141	H14	0.063400	0.543600	0.849400
H151	H15	0.543600	0.063400	0.849400
H161	H16	0.543600	0.849400	0.543600
H171	H17	0.150600	0.936600	0.456400
H181	H18	0.543600	0.063400	0.543600
H191	H19	0.936600	0.456400	0.150600
H201	H20	0.849400	0.063400	0.543600
H211	H21	0.456400	0.456400	0.936600
H221	H22	0.543600	0.543600	0.063400
H231	H23	0.150600	0.456400	0.936600
H241	H24	0.543600	0.543600	0.849400
C11	C1	0.890300	0.609700	0.609700
C21	C2	0.553900	0.553900	0.946100
C31	C3	0.036500	0.911300	0.526100
C41	C4	0.473900	0.963500	0.088700
C51	C5	0.911300	0.526100	0.036500
C61	C6	0.473900	0.473900	0.088700
C71	C7	0.963500	0.088700	0.473900
C81	C8	0.390300	0.109700	0.390300
C91	C9	0.446100	0.053900	0.446100
C101	C10	0.526100	0.526100	0.036500
C111	C11	0.526100	0.911300	0.036500
C121	C12	0.109700	0.109700	0.390300
C131	C13	0.053900	0.446100	0.446100
C141	C14	0.553900	0.946100	0.553900
C151	C15	0.446100	0.053900	0.053900
C161	C16	0.946100	0.553900	0.553900
C171	C17	0.946100	0.553900	0.946100
C181	C18	0.390300	0.390300	0.109700
C191	C19	0.036500	0.526100	0.526100
C201	C20	0.088700	0.473900	0.963500
C211	C21	0.473900	0.963500	0.473900
C221	C22	0.473900	0.473900	0.963500
C231	C23	0.609700	0.890300	0.609700
C241	C24	0.946100	0.946100	0.553900
C251	C25	0.053900	0.053900	0.446100
C261	C26	0.390300	0.109700	0.109700
C271	C27	0.036500	0.526100	0.911300
C281	C28	0.446100	0.446100	0.053900
C291	C29	0.109700	0.390300	0.390300
C301	C30	0.890300	0.890300	0.609700
C311	C31	0.609700	0.890300	0.890300
C321	C32	0.963500	0.473900	0.473900
C331	C33	0.890300	0.609700	0.890300
C341	C34	0.088700	0.473900	0.473900
C351	C35	0.911300	0.526100	0.526100
C361	C36	0.473900	0.088700	0.473900
C371	C37	0.473900	0.088700	0.963500
C381	C38	0.088700	0.963500	0.473900
C391	C39	0.109700	0.390300	0.109700
C401	C40	0.963500	0.473900	0.088700
C411	C41	0.526100	0.526100	0.911300
C421	C42	0.609700	0.609700	0.890300
C431	C43	0.526100	0.911300	0.526100
C441	C44	0.911300	0.036500	0.526100
C451	C45	0.526100	0.036500	0.911300
C461	C46	0.053900	0.446100	0.053900
C471	C47	0.553900	0.946100	0.946100
C481	C48	0.526100	0.036500	0.526100
O11	O1	0.633800	0.803000	0.929400
O21	O2	0.070600	0.197000	0.366200
O31	O3	0.803000	0.633800	0.633800
O41	O4	0.803000	0.929400	0.633800
O51	O5	0.366200	0.070600	0.197000
O61	O6	0.070600	0.366200	0.197000
O71	O7	0.633800	0.929400	0.633800
O81	O8	0.633800	0.803000	0.633800
O91	O9	0.366200	0.366200	0.197000
O101	O10	0.366200	0.070600	0.366200
O111	O11	0.750000	0.750000	0.750000
O121	O12	0.803000	0.633800	0.929400
O131	O13	0.929400	0.803000	0.633800
O141	O14	0.366200	0.197000	0.366200
O151	O15	0.633800	0.633800	0.803000
O161	O16	0.197000	0.366200	0.070600
O171	O17	0.633800	0.633800	0.929400
O181	O18	0.366200	0.366200	0.070600
O191	O19	0.633800	0.929400	0.803000
O201	O20	0.197000	0.070600	0.366200
O211	O21	0.366200	0.197000	0.070600
O221	O22	0.929400	0.633800	0.803000
O231	O23	0.250000	0.250000	0.250000
O241	O24	0.197000	0.366200	0.366200
O251	O25	0.929400	0.633800	0.633800
O261	O26	0.070600	0.366200	0.366200
