data_ja205976v_si_004_freeONLY_PM
_symmetry_space_group_name_H-M	'P1'
_cell_length_a	6.966600
_cell_length_b	14.914500
_cell_length_c	14.914500
_cell_angle_alpha	62.378000
_cell_angle_beta	81.042600
_cell_angle_gamma	98.957400
_symmetry_Int_Tables_number 1

loop_
_symmetry_equiv_pos_as_xyz
'x,y,z'

loop_
_atom_site_label
_atom_site_type_symbol
_atom_site_fract_x
_atom_site_fract_y
_atom_site_fract_z
Fe11	Fe1	0.795080	0.258650	0.316510
Fe21	Fe2	0.204920	0.741350	0.683490
Fe31	Fe3	0.888410	0.683490	0.575160
Fe41	Fe4	0.111590	0.316510	0.424840
Fe51	Fe5	0.536430	0.424840	0.258650
Fe61	Fe6	0.463570	0.575160	0.741350
H11	H1	0.815900	0.466900	0.545700
H21	H2	0.638400	0.454300	0.012600
H31	H3	0.349000	0.987400	0.466900
H41	H4	0.361600	0.545700	0.987400
H51	H5	0.184100	0.533100	0.454300
H61	H6	0.651000	0.012600	0.533100
C11	C1	0.157500	0.086600	0.448100
C21	C2	0.861500	0.433200	0.100400
C31	C3	0.070900	0.465300	0.086600
C41	C4	0.208300	0.531800	0.990000
C51	C5	0.676500	0.478200	0.531800
C61	C6	0.961900	0.100400	0.466400
C71	C7	0.344400	0.178900	0.388900
C81	C8	0.038100	0.899600	0.533600
C91	C9	0.266700	0.611100	0.567800
C101	C10	0.801700	0.010000	0.521800
C111	C11	0.733300	0.388900	0.432200
C121	C12	0.842500	0.913400	0.551900
C131	C13	0.834500	0.567800	0.821100
C141	C14	0.571700	0.533600	0.566800
C151	C15	0.394400	0.551900	0.534700
C161	C16	0.791700	0.468200	0.010000
C171	C17	0.323500	0.521800	0.468200
C181	C18	0.929100	0.534700	0.913400
C191	C19	0.655600	0.821100	0.611100
C201	C20	0.198300	0.990000	0.478200
C211	C21	0.428300	0.466400	0.433200
C221	C22	0.165500	0.432200	0.178900
C231	C23	0.605600	0.448100	0.465300
C241	C24	0.138500	0.566800	0.899600
O11	O1	0.642400	0.538600	0.843200
O21	O2	0.514400	0.156800	0.381800
O31	O3	0.763400	0.551700	0.229000
O41	O4	0.788300	0.780700	0.448300
O51	O5	0.896200	0.381800	0.461400
O61	O6	0.836200	0.155300	0.260200
O71	O7	0.274900	0.630300	0.802900
O81	O8	0.668200	0.341300	0.386700
O91	O9	0.319100	0.415500	0.844700
O101	O10	0.485600	0.843200	0.618200
O111	O11	0.163800	0.844700	0.739800
O121	O12	0.355400	0.433200	0.369700
O131	O13	0.096400	0.260200	0.584500
O141	O14	0.992400	0.229000	0.219300
O151	O15	0.903600	0.739800	0.415500
O161	O16	0.725100	0.369700	0.197100
O171	O17	0.673100	0.728000	0.658700
O181	O18	0.054900	0.386700	0.272000
O191	O19	0.945100	0.613300	0.728000
O201	O20	0.680900	0.584500	0.155300
O211	O21	0.236600	0.448300	0.771000
O221	O22	0.644600	0.566800	0.630300
O231	O23	0.357600	0.461400	0.156800
O241	O24	0.331800	0.658700	0.613300
O251	O25	0.007600	0.771000	0.780700
O261	O26	0.211700	0.219300	0.551700
O271	O27	0.326900	0.272000	0.341300
O281	O28	0.077800	0.802900	0.566800
O291	O29	0.103800	0.618200	0.538600
O301	O30	0.922200	0.197100	0.433200
