data_ja302380x_si_003_freeONLY_PM
_symmetry_space_group_name_H-M	'P1'
_cell_length_a	10.356200
_cell_length_b	17.897900
_cell_length_c	44.138300
_cell_angle_alpha	90.000000
_cell_angle_beta	90.000000
_cell_angle_gamma	90.000000
_symmetry_Int_Tables_number 1

loop_
_symmetry_equiv_pos_as_xyz
'x,y,z'

loop_
_atom_site_label
_atom_site_type_symbol
_atom_site_fract_x
_atom_site_fract_y
_atom_site_fract_z
Cd11	Cd1	0.742190	0.999620	0.498250
Cd21	Cd2	0.654110	0.003970	0.577890
Cd31	Cd3	0.826340	0.996670	0.417820
Cd41	Cd4	0.757810	0.000380	0.998250
Cd51	Cd5	0.326340	0.503330	0.582180
Cd61	Cd6	0.173660	0.496670	0.082180
Cd71	Cd7	0.345890	0.503970	0.922110
Cd81	Cd8	0.154110	0.496030	0.422110
Cd91	Cd9	0.257810	0.499620	0.001750
Cd101	Cd10	0.242190	0.500380	0.501750
Cd111	Cd11	0.673660	0.003330	0.917820
Cd121	Cd12	0.845890	0.996030	0.077890
Cu11	Cu1	0.527180	0.067230	0.747820
Cu21	Cu2	0.472820	0.567230	0.752180
Cu31	Cu3	0.027180	0.432770	0.252180
Cu41	Cu4	0.972820	0.932770	0.247820
H11	H1	0.640600	0.494200	0.821300
H21	H2	0.027200	0.987900	0.739700
H31	H3	0.997200	0.510600	0.139500
H41	H4	0.769000	0.413700	0.793400
H51	H5	0.977000	0.711700	0.671500
H61	H6	0.634300	0.768100	0.006700
H71	H7	0.990500	0.411000	0.778400
H81	H8	0.813500	0.107900	0.869200
H91	H9	0.488800	0.866100	0.282600
H101	H10	0.373500	0.400600	0.279300
H111	H11	0.881800	0.225200	0.990700
H121	H12	0.509800	0.168700	0.009300
H131	H13	0.778100	0.394400	0.032800
H141	H14	0.745100	0.791500	0.279900
H151	H15	0.012900	0.840800	0.989200
H161	H16	0.497200	0.989400	0.860500
H171	H17	0.016600	0.169900	0.908200
H181	H18	0.859400	0.505800	0.321300
H191	H19	0.737600	0.744700	0.310800
H201	H20	0.115900	0.752900	0.711500
H211	H21	0.686500	0.892100	0.369200
H221	H22	0.462400	0.432100	0.306100
H231	H23	0.901000	0.214700	0.640200
H241	H24	0.644000	0.223100	0.092400
H251	H25	0.401000	0.285300	0.359800
H261	H26	0.140600	0.005800	0.178700
H271	H27	0.756500	0.780800	0.211900
H281	H28	0.738000	0.588500	0.201800
H291	H29	0.873500	0.099400	0.720700
H301	H30	0.472000	0.438600	0.198200
H311	H31	0.126600	0.761900	0.797300
H321	H32	0.359400	0.994200	0.678700
H331	H33	0.104800	0.031500	0.316000
H341	H34	0.467600	0.111900	0.274300
H351	H35	0.028000	0.561400	0.698200
H361	H36	0.510700	0.859700	0.348800
H371	H37	0.256500	0.719200	0.788100
H381	H38	0.002800	0.010600	0.360500
H391	H39	0.023000	0.211700	0.828500
H401	H40	0.537600	0.932100	0.193900
H411	H41	0.353000	0.150900	0.255700
H421	H42	0.972000	0.061400	0.801800
H431	H43	0.252700	0.238400	0.320000
H441	H44	0.406600	0.913400	0.495400
H451	H45	0.245100	0.708500	0.720100
H461	H46	0.379100	0.725400	0.092200
H471	H47	0.618100	0.910900	0.274500
H481	H48	0.512900	0.659200	0.010800
H491	H49	0.983400	0.669900	0.591800
H501	H50	0.829300	0.488500	0.711600
H511	H51	0.221900	0.894400	0.467200
H521	H52	0.670700	0.511500	0.211600
H531	H53	0.405000	0.285200	0.148200
H541	H54	0.523000	0.288300	0.171500
H551	H55	0.502800	0.489400	0.639500
H561	H56	0.093400	0.086600	0.995400
H571	H57	0.009800	0.331300	0.990700
H581	H58	0.647000	0.650900	0.244300
H591	H59	0.384100	0.247100	0.211500
H601	H60	0.731000	0.586300	0.293400
H611	H61	0.520300	0.496200	0.864400
H621	H62	0.195800	0.606300	0.874400
H631	H63	0.134100	0.087200	0.253700
H641	H64	0.011200	0.133900	0.782600
H651	H65	0.879100	0.774600	0.907800
H661	H66	0.243500	0.280800	0.288100
H671	H67	0.120900	0.274600	0.592200
H681	H68	0.304200	0.393700	0.374400
H691	H69	0.365700	0.268100	0.493300
H701	H70	0.754900	0.208500	0.779900
H711	H71	0.626600	0.738100	0.202700
H721	H72	0.519200	0.860800	0.145400
H731	H73	0.760000	0.394300	0.471100
H741	H74	0.762400	0.255300	0.810800
H751	H75	0.989300	0.140300	0.848800
H761	H76	0.262700	0.949700	0.240900
H771	H77	0.134300	0.731900	0.993300
H781	H78	0.595000	0.785200	0.351800
H791	H79	0.865700	0.231900	0.506700
H801	H80	0.626500	0.900600	0.220700
H811	H81	0.926300	0.588000	0.999700
H821	H82	0.695800	0.893700	0.125600
H831	H83	0.905000	0.214800	0.851800
H841	H84	0.003000	0.142500	0.711500
H851	H85	0.095000	0.714800	0.648200
H861	H86	0.962400	0.067900	0.693900
H871	H87	0.010700	0.640300	0.651200
H881	H88	0.662600	0.510000	0.303900
H891	H89	0.599000	0.785300	0.140200
H901	H90	0.490500	0.089000	0.221600
H911	H91	0.144000	0.276900	0.907600
H921	H92	0.634100	0.412800	0.746300
H931	H93	0.231000	0.913700	0.706600
H941	H94	0.747300	0.738400	0.180000
H951	H95	0.480800	0.360800	0.354600
H961	H96	0.528000	0.938600	0.301800
H971	H97	0.881900	0.089100	0.774500
H981	H98	0.032400	0.888100	0.774300
H991	H99	0.752700	0.261600	0.680000
H1001	H100	0.365900	0.912800	0.753700
H1011	H101	0.743500	0.219200	0.711900
H1021	H102	0.509500	0.589000	0.278400
H1031	H103	0.262000	0.088500	0.298200
H1041	H104	0.740000	0.605700	0.971100
H1051	H105	0.511200	0.366100	0.217400
H1061	H106	0.865900	0.587200	0.246300
H1071	H107	0.483400	0.830100	0.408200
H1081	H108	0.313500	0.392100	0.130800
H1091	H109	0.073700	0.088000	0.500300
H1101	H110	0.472800	0.012100	0.239700
H1111	H111	0.604800	0.468500	0.684000
H1121	H112	0.980800	0.139200	0.645400
H1131	H113	0.479700	0.996200	0.635600
H1141	H114	0.853000	0.349100	0.744300
H1151	H115	0.620900	0.225400	0.407800
H1161	H116	0.238000	0.911500	0.798200
H1171	H117	0.987100	0.340800	0.510800
H1181	H118	0.982900	0.712900	0.835900
H1191	H119	0.099000	0.714700	0.859800
H1201	H120	0.019200	0.639200	0.854600
H1211	H121	0.988800	0.633900	0.717400
H1221	H122	0.527200	0.512100	0.260300
H1231	H123	0.118200	0.725200	0.509300
H1241	H124	0.997000	0.642500	0.788500
H1251	H125	0.482900	0.787100	0.164100
H1261	H126	0.262400	0.244700	0.189200
H1271	H127	0.037600	0.567900	0.806100
H1281	H128	0.967600	0.388100	0.725700
H1291	H129	0.979700	0.503800	0.364400
H1301	H130	0.884100	0.252900	0.788500
H1311	H131	0.737300	0.449700	0.259100
H1321	H132	0.009500	0.911000	0.721600
H1331	H133	0.329300	0.011500	0.288400
H1341	H134	0.990200	0.831300	0.509300
H1351	H135	0.489300	0.359700	0.151200
H1361	H136	0.837400	0.490000	0.803900
H1371	H137	0.147000	0.849100	0.755700
H1381	H138	0.615900	0.747100	0.288500
H1391	H139	0.487100	0.159200	0.489200
H1401	H140	0.906600	0.586600	0.504600
H1411	H141	0.532400	0.611900	0.225700
H1421	H142	0.573700	0.412000	0.499700
H1431	H143	0.999600	0.165100	0.588600
H1441	H144	0.118100	0.589100	0.725500
H1451	H145	0.516600	0.330100	0.091800
H1461	H146	0.395200	0.968500	0.816000
H1471	H147	0.762000	0.411500	0.701800
H1481	H148	0.856000	0.776900	0.592400
H1491	H149	0.373400	0.238100	0.297300
H1501	H150	0.020300	0.003800	0.135600
H1511	H151	0.000400	0.665100	0.911400
H1521	H152	0.237600	0.755300	0.689200
H1531	H153	0.017100	0.212900	0.664100
H1541	H154	0.269000	0.086300	0.206600
H1551	H155	0.804200	0.106300	0.625600
H1561	H156	0.254900	0.291500	0.220100
H1571	H157	0.972800	0.487900	0.760300
H1581	H158	0.278100	0.105600	0.967200
H1591	H159	0.500400	0.834900	0.088600
H1601	H160	0.618200	0.774800	0.490700
H1611	H161	0.477000	0.788300	0.328500
H1621	H162	0.503000	0.357500	0.288500
H1631	H163	0.499600	0.334900	0.411400
H1641	H164	0.126500	0.599400	0.779300
H1651	H165	0.381800	0.274800	0.009300
H1661	H166	0.186500	0.607900	0.630800
H1671	H167	0.490200	0.668700	0.490700
H1681	H168	0.873400	0.261900	0.702700
H1691	H169	0.381900	0.410900	0.225500
H1701	H170	0.240000	0.894300	0.028900
H1711	H171	0.895200	0.531500	0.184000
H1721	H172	0.260000	0.105700	0.528900
H1731	H173	0.170700	0.988500	0.788400
H1741	H174	0.593400	0.413400	0.004600
H1751	H175	0.237300	0.050300	0.740900
H1761	H176	0.497000	0.857500	0.211500
H1771	H177	0.426300	0.912000	0.000300
H1781	H178	0.247300	0.761600	0.820000
H1791	H179	0.762700	0.550300	0.759100
H1801	H180	0.162600	0.990000	0.696100
H1811	H181	0.721900	0.605600	0.532800
H1821	H182	0.517100	0.287100	0.335900
H1831	H183	0.337400	0.010000	0.196100
H1841	H184	0.356000	0.723100	0.407600
C11	C1	0.736500	0.089400	0.638400
C21	C2	0.310600	0.039900	0.213940
C31	C3	0.047500	0.474600	0.355990
C41	C4	0.436600	0.518800	0.648450
C51	C5	0.928800	0.441100	0.766370
C61	C6	0.952500	0.974600	0.144010
C71	C7	0.362600	0.345300	0.186800
C81	C8	0.838500	0.551100	0.503560
C91	C9	0.438800	0.394700	0.208980
C101	C10	0.260000	0.611700	0.831300
C111	C11	0.851800	0.161100	0.680220
C121	C12	0.811400	0.224100	0.796600
C131	C13	0.485500	0.017500	0.960550
C141	C14	0.565100	0.811900	0.449340
C151	C15	0.989600	0.799000	0.526400
C161	C16	0.014300	0.203400	0.924910
C171	C17	0.936700	0.819200	0.947620
C181	C18	0.326600	0.960700	0.760900
C191	C19	0.699200	0.767700	0.195030
C201	C20	0.847400	0.920900	0.306430
C211	C21	0.647900	0.510800	0.984910
C221	C22	0.283600	0.004800	0.733460
C231	C23	0.635100	0.108400	0.445160
C241	C24	0.229600	0.937600	0.479580
C251	C25	0.432100	0.733600	0.074930
C261	C26	0.648200	0.838900	0.180220
C271	C27	0.137400	0.654700	0.686800
C281	C28	0.587100	0.184000	0.051020
C291	C29	0.083600	0.740700	0.975680
C301	C30	0.861500	0.913000	0.188180
C311	C31	0.063400	0.481200	0.148450
C321	C32	0.251700	0.392800	0.174240
C331	C33	0.858400	0.552400	0.000710
C341	C34	0.563300	0.180800	0.447620
C351	C35	0.147900	0.989200	0.015090
C361	C36	0.236500	0.410600	0.361600
C371	C37	0.412900	0.684000	0.448980
C381	C38	0.637400	0.845300	0.313200
C391	C39	0.689400	0.539900	0.286060
C401	C40	0.048000	0.000900	0.304590
C411	C41	0.629300	0.510000	0.519380
C421	C42	0.418400	0.311700	0.452120
C431	C43	0.053900	0.684000	0.844750
C441	C44	0.452500	0.525400	0.855990
C451	C45	0.748200	0.088100	0.856380
C461	C46	0.430000	0.386800	0.296190
C471	C47	0.199200	0.732300	0.804970
C481	C48	0.862600	0.154700	0.813200
C491	C49	0.988500	0.305300	0.526840
C501	C50	0.055400	0.466000	0.179610
C511	C51	0.248300	0.607200	0.674240
C521	C52	0.004300	0.701100	0.927230
C531	C53	0.563400	0.018800	0.851550
C541	C54	0.511500	0.694700	0.026840
C551	C55	0.539800	0.044400	0.674350
C561	C56	0.370700	0.010000	0.980620
C571	C57	0.952000	0.500900	0.195410
C581	C58	0.826600	0.539300	0.239100
C591	C59	0.609900	0.602200	0.238240
C601	C60	0.934900	0.188100	0.949340
C611	C61	0.688600	0.775900	0.296600
C621	C62	0.910000	0.766800	0.575510
C631	C63	0.452000	0.999100	0.804590
C641	C64	0.510400	0.201000	0.026400
C651	C65	0.014500	0.982500	0.460550
C661	C66	0.361500	0.587000	0.811820
C671	C67	0.087100	0.316000	0.948980
C681	C68	0.890100	0.397800	0.738240
C691	C69	0.760000	0.888300	0.168700
C701	C70	0.338500	0.948900	0.496440
C711	C71	0.960200	0.955600	0.174350
C721	C72	0.061200	0.605300	0.708980
C731	C73	0.434900	0.311900	0.050660
C741	C74	0.555400	0.034000	0.820390
C751	C75	0.270400	0.062400	0.979580
C761	C76	0.504300	0.798900	0.072770
C771	C77	0.347400	0.579100	0.693570
C781	C78	0.488500	0.194700	0.473160
C791	C79	0.216400	0.995200	0.233460
C801	C80	0.010400	0.299000	0.973600
C811	C81	0.570000	0.886800	0.203810
C821	C82	0.864900	0.891600	0.945160
C831	C83	0.953000	0.182900	0.837730
C841	C84	0.912900	0.816000	0.551020
C851	C85	0.852100	0.489200	0.484910
C861	C86	0.444600	0.534000	0.679610
C871	C87	0.067900	0.266400	0.574930
C881	C88	0.159200	0.389100	0.948210
C891	C89	0.789900	0.441900	0.719330
C901	C90	0.364900	0.608400	0.054840
C911	C91	0.065100	0.688100	0.550660
C921	C92	0.659200	0.110900	0.051790
C931	C93	0.547000	0.817100	0.337730
C941	C94	0.655200	0.878600	0.449130
C951	C95	0.070000	0.613200	0.796190
C961	C96	0.155200	0.621400	0.550870
C971	C97	0.410000	0.733200	0.424490
C981	C98	0.311400	0.275900	0.203400
C991	C99	0.916400	0.240700	0.524320
C1001	C100	0.109900	0.897800	0.761760
C1011	C101	0.071200	0.941100	0.733630
C1021	C102	0.583600	0.759300	0.024320
C1031	C103	0.251800	0.588100	0.643620
C1041	C104	0.453000	0.317100	0.162270
C1051	C105	0.428800	0.058900	0.233630
C1061	C106	0.571200	0.558900	0.266370
C1071	C107	0.800800	0.232300	0.695030
C1081	C108	0.783600	0.495200	0.266540
C1091	C109	0.489600	0.701000	0.473600
C1101	C110	0.423800	0.019600	0.690070
C1111	C111	0.870700	0.490000	0.019380
C1121	C112	0.141600	0.052400	0.499290
C1131	C113	0.930000	0.113200	0.703810
C1141	C114	0.565300	0.764100	0.473660
C1151	C115	0.652600	0.079100	0.806430
C1161	C116	0.240000	0.388300	0.331300
C1171	C117	0.810600	0.460100	0.786060
C1181	C118	0.210100	0.941900	0.780670
C1191	C119	0.436700	0.680800	0.052380
C1201	C120	0.446100	0.316000	0.344750
C1211	C121	0.729600	0.562400	0.520420
C1221	C122	0.938800	0.105300	0.791020
C1231	C123	0.434700	0.264100	0.026340
C1241	C124	0.840800	0.889100	0.551790
C1251	C125	0.039800	0.455600	0.325650
C1261	C126	0.740000	0.111700	0.668700
C1271	C127	0.581600	0.811700	0.047880
C1281	C128	0.467200	0.018600	0.535020
C1291	C129	0.934700	0.235900	0.973660
C1301	C130	0.344800	0.378600	0.050870
C1311	C131	0.747900	0.562900	0.983670
C1321	C132	0.416400	0.259300	0.475680
C1331	C133	0.946100	0.184000	0.655250
C1341	C134	0.548000	0.499100	0.695410
C1351	C135	0.351800	0.338900	0.319780
C1361	C136	0.173400	0.039300	0.260900
C1371	C137	0.148200	0.661100	0.819780
C1381	C138	0.331200	0.377800	0.453840
C1391	C139	0.340800	0.610900	0.448210
C1401	C140	0.918400	0.188300	0.547880
C1411	C141	0.138500	0.413000	0.311820
C1421	C142	0.047000	0.682900	0.662270
C1431	C143	0.661500	0.448900	0.003560
C1441	C144	0.944600	0.966000	0.320390
C1451	C145	0.590000	0.233200	0.075510
C1461	C146	0.065300	0.735900	0.526340
C1471	C147	0.532800	0.518600	0.964980
C1481	C148	0.485700	0.796600	0.424910
C1491	C149	0.751700	0.107200	0.825760
C1501	C150	0.752100	0.437100	0.483670
C1511	C151	0.673400	0.460700	0.739100
C1521	C152	0.168800	0.622200	0.953840
C1531	C153	0.985500	0.482500	0.039450
C1541	C154	0.129300	0.990000	0.480620
C1551	C155	0.553900	0.816000	0.155250
C1561	C156	0.289900	0.058100	0.280670
C1571	C157	0.567900	0.233600	0.425070
C1581	C158	0.263500	0.589400	0.861600
C1591	C159	0.514500	0.517500	0.539450
C1601	C160	0.248200	0.411900	0.143620
C1611	C161	0.967200	0.481400	0.464980
C1621	C162	0.576200	0.519600	0.809930
C1631	C163	0.011500	0.805300	0.973160
C1641	C164	0.252100	0.062900	0.516330
C1651	C165	0.081600	0.688300	0.952120
C1661	C166	0.923800	0.480400	0.309930
C1671	C167	0.352100	0.010800	0.515090
C1681	C168	0.076200	0.980400	0.190070
C1691	C169	0.547500	0.025400	0.644010
C1701	C170	0.710100	0.558100	0.219330
C1711	C171	0.751800	0.911900	0.356380
C1721	C172	0.090000	0.266800	0.924490
C1731	C173	0.668800	0.877800	0.046160
C1741	C174	0.936600	0.981200	0.351550
C1751	C175	0.188600	0.724100	0.703400
C1761	C176	0.032800	0.981400	0.035020
C1771	C177	0.460200	0.544400	0.825650
C1781	C178	0.161500	0.051100	0.996440
C1791	C179	0.716400	0.504800	0.766540
C1801	C180	0.135100	0.391600	0.554840
C1811	C181	0.300800	0.267700	0.304970
C1821	C182	0.748300	0.892800	0.325760
C1831	C183	0.063300	0.319200	0.552380
C1841	C184	0.995700	0.201100	0.572770
C1851	C185	0.390100	0.102200	0.261760
C1861	C186	0.561200	0.894700	0.291020
C1871	C187	0.641600	0.447600	0.500710
C1881	C188	0.770400	0.437600	0.020420
C1891	C189	0.932100	0.766400	0.925070
C1901	C190	0.358400	0.947600	0.999290
C1911	C191	0.514300	0.296600	0.075090
C1921	C192	0.189400	0.960100	0.713940
C1931	C193	0.638500	0.087000	0.688180
C1941	C194	0.844800	0.121400	0.949130
C1951	C195	0.763500	0.910600	0.138400
C1961	C196	0.831200	0.122200	0.546160
C1971	C197	0.985700	0.703400	0.575090
C1981	C198	0.247900	0.937100	0.016330
C1991	C199	0.495700	0.298900	0.427230
C2001	C200	0.152600	0.420900	0.193570
N11	N1	0.903900	0.470000	0.281670
N21	N2	0.644400	0.045600	0.625800
N31	N3	0.157600	0.457000	0.130950
N41	N4	0.842400	0.957000	0.369050
N51	N5	0.096100	0.970000	0.218330
N61	N6	0.429300	0.005700	0.776120
N71	N7	0.070700	0.994300	0.276120
N81	N8	0.144400	0.454400	0.374200
N91	N9	0.355600	0.545600	0.874200
N101	N10	0.403900	0.030000	0.718330
N111	N11	0.570700	0.505700	0.723880
N121	N12	0.596100	0.530000	0.781670
N131	N13	0.855600	0.954400	0.125800
N141	N14	0.342400	0.543000	0.630950
N151	N15	0.657600	0.043000	0.869050
N161	N16	0.929300	0.494300	0.223880
O11	O1	0.703500	0.098400	0.421390
O21	O2	0.084500	0.522300	0.033890
O31	O3	0.140400	0.396400	0.283590
O41	O4	0.618400	0.061300	0.465630
O51	O5	0.359600	0.603600	0.783590
O61	O6	0.141400	0.432900	0.969320
O71	O7	0.685600	0.914200	0.070060
O81	O8	0.415500	0.477700	0.533890
O91	O9	0.535700	0.561900	0.942870
O101	O10	0.641400	0.067100	0.030680
O111	O11	0.771200	0.900100	0.574990
O121	O12	0.859600	0.896400	0.216410
O131	O13	0.118400	0.438700	0.534370
O141	O14	0.213000	0.606700	0.526470
O151	O15	0.287000	0.393300	0.026470
O161	O16	0.829000	0.088200	0.924440
O171	O17	0.228800	0.400100	0.925010
O181	O18	0.780200	0.107400	0.521110
O191	O19	0.329000	0.411800	0.075560
O201	O20	0.381600	0.561300	0.034370
O211	O21	0.814400	0.085800	0.570060
O221	O22	0.671000	0.911800	0.424440
O231	O23	0.065500	0.523000	0.470300
O241	O24	0.203500	0.401600	0.578610
O251	O25	0.964300	0.438100	0.442870
O261	O26	0.934500	0.023000	0.029700
O271	O27	0.858600	0.932900	0.530680
O281	O28	0.479600	0.058900	0.937990
O291	O29	0.271200	0.599900	0.425010
O301	O30	0.584500	0.977700	0.966110
O311	O31	0.979600	0.441100	0.062010
O321	O32	0.796500	0.901600	0.921390
O331	O33	0.713000	0.893300	0.473530
O341	O34	0.280200	0.392600	0.478890
O351	O35	0.719800	0.892600	0.021110
O361	O36	0.185600	0.585800	0.929940
O371	O37	0.847500	0.905400	0.277980
O381	O38	0.728800	0.099900	0.074990
O391	O39	0.219800	0.607400	0.978890
O401	O40	0.434500	0.477000	0.970300
O411	O41	0.520400	0.558900	0.562010
O421	O42	0.314400	0.414200	0.429940
O431	O43	0.640400	0.103600	0.716410
O441	O44	0.020400	0.941100	0.437990
O451	O45	0.296500	0.598400	0.078610
O461	O46	0.171000	0.588200	0.575560
O471	O47	0.358600	0.567100	0.469320
O481	O48	0.035700	0.938100	0.057130
O491	O49	0.347500	0.594600	0.722020
O501	O50	0.464300	0.061900	0.557130
O511	O51	0.787000	0.106700	0.973530
O521	O52	0.152500	0.405400	0.222020
O531	O53	0.881600	0.938700	0.965630
O541	O54	0.565500	0.977000	0.529700
O551	O55	0.652500	0.094600	0.777980
O561	O56	0.915500	0.022300	0.466110
