data_ja302110d_si_001_freeONLY_PM
_symmetry_space_group_name_H-M	'P1'
_cell_length_a	13.234000
_cell_length_b	13.824900
_cell_length_c	22.794700
_cell_angle_alpha	107.643000
_cell_angle_beta	106.875000
_cell_angle_gamma	90.000000
_symmetry_Int_Tables_number 1

loop_
_symmetry_equiv_pos_as_xyz
'x,y,z'

loop_
_atom_site_label
_atom_site_type_symbol
_atom_site_fract_x
_atom_site_fract_y
_atom_site_fract_z
Cd11	Cd1	0.151600	0.500000	0.000000
Cd21	Cd2	0.165820	0.234300	0.966960
Cd31	Cd3	0.198860	0.765700	0.033040
Cd41	Cd4	0.207400	0.000000	0.000000
H11	H1	0.923700	0.990200	0.768400
H21	H2	0.179500	0.869600	0.857400
H31	H3	0.538100	0.430400	0.364400
H41	H4	0.112700	0.267800	0.660600
H51	H5	0.042000	0.265700	0.241800
H61	H6	0.305700	0.259200	0.395600
H71	H7	0.697900	0.605600	0.648200
H81	H8	0.432300	0.753000	0.238600
H91	H9	0.831000	0.517400	0.884000
H101	H10	0.348000	0.783600	0.897800
H111	H11	0.242100	0.483500	0.817800
H121	H12	0.837600	0.597800	0.513600
H131	H13	0.153100	0.574800	0.164000
H141	H14	0.908100	0.446100	0.735200
H151	H15	0.752200	0.388200	0.234000
H161	H16	0.049700	0.394400	0.351800
H171	H17	0.387400	0.781200	0.803600
H181	H18	0.424300	0.516500	0.182200
H191	H19	0.450200	0.216400	0.102200
H201	H20	0.312700	0.444100	0.288400
H211	H21	0.155300	0.009800	0.231600
H221	H22	0.951100	0.754600	0.847200
H231	H23	0.583800	0.218800	0.196400
H241	H24	0.680100	0.497100	0.795200
H251	H25	0.322100	0.130400	0.142600
H261	H26	0.181500	0.166700	0.313400
H271	H27	0.983200	0.417700	0.439200
H281	H28	0.868100	0.833300	0.686600
H291	H29	0.173700	0.569600	0.635600
H301	H30	0.349300	0.769500	0.428200
H311	H31	0.324000	0.402200	0.486400
H321	H32	0.989100	0.425200	0.836000
H331	H33	0.884900	0.502900	0.204800
H341	H34	0.172900	0.553900	0.264800
H351	H35	0.024300	0.555900	0.711600
H361	H36	0.947000	0.482600	0.116000
H371	H37	0.544000	0.582300	0.560800
H381	H38	0.103900	0.245400	0.152800
H391	H39	0.123800	0.712700	0.775600
H401	H40	0.800200	0.734300	0.758200
H411	H41	0.910100	0.740800	0.604400
H421	H42	0.921100	0.230500	0.571800
H431	H43	0.518200	0.611800	0.766000
H441	H44	0.348200	0.287300	0.224400
H451	H45	0.193700	0.247000	0.761400
H461	H46	0.452100	0.732200	0.339400
H471	H47	0.557800	0.518800	0.276200
H481	H48	0.281600	0.481200	0.723800
C11	C1	0.290800	0.665900	0.191800
C21	C2	0.116300	0.862200	0.822800
C31	C3	0.966100	0.405700	0.740600
C41	C4	0.957600	0.386200	0.231600
C51	C5	0.759600	0.408000	0.327600
C61	C6	0.735200	0.549400	0.805800
C71	C7	0.538700	0.588300	0.602400
C81	C8	0.799000	0.394200	0.275600
C91	C9	0.344200	0.702900	0.431600
C101	C10	0.918600	0.674200	0.607800
C111	C11	0.975800	0.397900	0.345600
C121	C12	0.391400	0.700200	0.303800
C131	C13	0.329100	0.508100	0.441200
C141	C14	0.059500	0.297700	0.163400
C151	C15	0.424700	0.366200	0.133400
C161	C16	0.998300	0.662700	0.936400
C171	C17	0.432000	0.592000	0.672400
C181	C18	0.022600	0.309700	0.216200
C191	C19	0.788600	0.430600	0.440400
C201	C20	0.844800	0.406900	0.504800
C211	C21	0.896100	0.702300	0.836600
C221	C22	0.472100	0.277800	0.137600
C231	C23	0.321700	0.410700	0.446200
C241	C24	0.347500	0.690500	0.490200
C251	C25	0.551400	0.279200	0.193400
C261	C26	0.212600	0.954900	0.125000
C271	C27	0.334500	0.722200	0.862400
C281	C28	0.907200	0.389100	0.284600
C291	C29	0.194500	0.066100	0.230200
C301	C30	0.338200	0.631000	0.754800
C311	C31	0.523400	0.605800	0.724400
C321	C32	0.267300	0.241800	0.276600
C331	C33	0.964300	0.933900	0.769800
C341	C34	0.213800	0.606700	0.199600
C351	C35	0.135800	0.287400	0.756200
C361	C36	0.241400	0.573100	0.629400
C371	C37	0.936300	0.411700	0.397600
C381	C38	0.225500	0.594300	0.259400
C391	C39	0.456600	0.456000	0.185000
C401	C40	0.061900	0.337300	0.063600
C411	C41	0.929400	0.450600	0.194200
C421	C42	0.099000	0.334100	0.808200
C431	C43	0.271600	0.544000	0.815000
C441	C44	0.344800	0.369300	0.071400
C451	C45	0.630200	0.602100	0.654400
C461	C46	0.726000	0.613800	0.768400
C471	C47	0.612000	0.426900	0.370600
C481	C48	0.348200	0.569400	0.559600
C491	C49	0.210000	0.159300	0.278800
C501	C50	0.828200	0.416800	0.388600
C511	C51	0.143600	0.307900	0.870400
C521	C52	0.273200	0.692100	0.129600
C531	C53	0.333400	0.618000	0.377600
C541	C54	0.083200	0.769000	0.774200
C551	C55	0.931200	0.840700	0.721200
C561	C56	0.583400	0.369000	0.245200
C571	C57	0.236200	0.055300	0.179400
C581	C58	0.974100	0.661800	0.666600
C591	C59	0.056800	0.944700	0.820600
C601	C60	0.966300	0.438600	0.141600
C611	C61	0.806400	0.690300	0.783800
C621	C62	0.325800	0.520600	0.382400
C631	C63	0.536000	0.457400	0.241000
C641	C64	0.875500	0.589300	0.553800
C651	C65	0.943400	0.479400	0.617600
C661	C66	0.340000	0.593100	0.495200
C671	C67	0.295000	0.542600	0.759000
C681	C68	0.293500	0.137800	0.177200
C691	C69	0.651500	0.413100	0.318600
C701	C70	0.955800	0.382000	0.622400
C711	C71	0.439600	0.583200	0.611400
C721	C72	0.857300	0.309500	0.509800
C731	C73	0.309000	0.231000	0.225800
C741	C74	0.014200	0.393300	0.800400
C751	C75	0.249100	0.564300	0.568600
C761	C76	0.912600	0.297100	0.568400
C771	C77	0.824700	0.561400	0.858400
C781	C78	0.031300	0.362100	0.126000
C791	C79	0.379600	0.712600	0.243800
C801	C80	0.990700	0.758200	0.723400
C811	C81	0.002900	0.358900	0.688600
C821	C82	0.307500	0.338200	0.333400
C831	C83	0.887900	0.491900	0.558800
C841	C84	0.315000	0.435600	0.328600
C851	C85	0.680500	0.435700	0.431400
C861	C86	0.273400	0.630700	0.928600
C871	C87	0.905300	0.637900	0.874000
C881	C88	0.314300	0.641100	0.311400
C891	C89	0.087600	0.299800	0.696200
C901	C90	0.986400	0.564400	0.671400
C911	C91	0.291300	0.633800	0.866600
C921	C92	0.622600	0.610900	0.715400
C931	C93	0.087600	0.045100	0.875000
C941	C94	0.332900	0.586900	0.681400
C951	C95	0.310800	0.325800	0.392200
C961	C96	0.358000	0.720800	0.806600
O11	O1	0.106300	0.347500	0.915200
O21	O2	0.306700	0.719100	0.972200
O31	O3	0.334500	0.280900	0.027800
O41	O4	0.074500	0.883700	0.933600
O51	O5	0.148400	0.882200	0.119800
O61	O6	0.020800	0.586800	0.959600
O71	O7	0.061200	0.413200	0.040400
O81	O8	0.026100	0.759800	0.948800
O91	O9	0.649400	0.433000	0.480800
O101	O10	0.330600	0.761800	0.125000
O111	O11	0.843100	0.218900	0.464600
O121	O12	0.378500	0.781100	0.535400
O131	O13	0.077300	0.240200	0.051200
O141	O14	0.262100	0.935100	0.083000
O151	O15	0.179100	0.064900	0.917000
O161	O16	0.314100	0.898000	0.958600
O171	O17	0.205600	0.238200	0.875000
O181	O18	0.303100	0.449500	0.060600
O191	O19	0.242500	0.550500	0.939400
O201	O20	0.168600	0.567000	0.519200
O211	O21	0.140900	0.116300	0.066400
O221	O22	0.355500	0.102000	0.041400
O231	O23	0.191100	0.652500	0.084800
O241	O24	0.028600	0.117800	0.880200
