data_ja302340b_si_002_freeONLY_PM
_symmetry_space_group_name_H-M	'P1'
_cell_length_a	14.430000
_cell_length_b	21.690200
_cell_length_c	30.645000
_cell_angle_alpha	86.035600
_cell_angle_beta	78.004000
_cell_angle_gamma	70.571000
_symmetry_Int_Tables_number 1

loop_
_symmetry_equiv_pos_as_xyz
'x,y,z'

loop_
_atom_site_label
_atom_site_type_symbol
_atom_site_fract_x
_atom_site_fract_y
_atom_site_fract_z
Cd11	Cd1	0.661010	0.677980	0.500000
Cd21	Cd2	0.476650	0.557920	0.506520
Cd31	Cd3	0.952780	0.094440	0.000000
Cd41	Cd4	0.746520	0.506960	0.500000
Cd51	Cd5	0.965430	0.557920	0.493480
Cd61	Cd6	0.038020	0.923960	0.000000
Cd71	Cd7	0.221910	0.045780	0.994940
Cd81	Cd8	0.732310	0.045780	0.005060
Ni11	Ni1	0.472760	0.707680	0.773230
Ni21	Ni2	0.880440	0.894920	0.271120
Ni31	Ni3	0.699570	0.392260	0.778630
Ni41	Ni4	0.908170	0.392260	0.221370
Ni51	Ni5	0.996860	0.212480	0.721150
Ni61	Ni6	0.790660	0.212480	0.278850
Ni71	Ni7	0.819560	0.707680	0.226770
Ni81	Ni8	0.224640	0.894920	0.728880
H11	H1	0.438300	0.739200	0.245200
H21	H2	0.305900	0.667800	0.672100
H31	H3	0.026300	0.667800	0.327900
H41	H4	0.701000	0.830400	0.340500
H51	H5	0.181100	0.785000	0.353600
H61	H6	0.433000	0.301000	0.962200
H71	H7	0.857100	0.131600	0.732600
H81	H8	0.391500	0.824600	0.377800
H91	H9	0.319300	0.258600	0.737600
H101	H10	0.911100	0.760000	0.527600
H111	H11	0.412200	0.114800	0.793600
H121	H12	0.180900	0.436000	0.096900
H131	H13	0.901000	0.237200	0.109100
H141	H14	0.745200	0.995000	0.808800
H151	H15	0.066100	0.944200	0.381700
H161	H16	0.367300	0.129800	0.105300
H171	H17	0.913600	0.754200	0.578700
H181	H18	0.181500	0.355000	0.241400
H191	H19	0.303800	0.457600	0.260700
H201	H20	0.095400	0.981000	0.886800
H211	H21	0.608400	0.773400	0.953900
H221	H22	0.678900	0.818400	0.621700
H231	H23	0.229600	0.348400	0.283600
H241	H24	0.476100	0.094400	0.113700
H251	H25	0.138700	0.717000	0.174300
H261	H26	0.643900	0.990000	0.189900
H271	H27	0.238600	0.457600	0.739300
H281	H28	0.168400	0.246000	0.229100
H291	H29	0.184900	0.115400	0.251500
H301	H30	0.259800	0.995000	0.191200
H311	H31	0.194600	0.970800	0.133600
H321	H32	0.793600	0.757600	0.707900
H331	H33	0.472100	0.421400	0.928400
H341	H34	0.030900	0.853200	0.458900
H351	H35	0.954900	0.953600	0.722700
H361	H36	0.360000	0.968200	0.738800
H371	H37	0.684100	0.489400	0.622800
H381	H38	0.731100	0.636000	0.781500
H391	H39	0.400900	0.251200	0.446100
H401	H40	0.273300	0.842000	0.241500
H411	H41	0.783900	0.824600	0.622200
H421	H42	0.426300	0.460400	0.793400
H431	H43	0.605900	0.575000	0.240000
H441	H44	0.819100	0.575000	0.760000
H451	H45	0.822500	0.739200	0.754800
H461	H46	0.593200	0.677800	0.922300
H471	H47	0.165600	0.842200	0.239300
H481	H48	0.983200	0.786400	0.159000
H491	H49	0.273100	0.267000	0.139100
H501	H50	0.019800	0.466400	0.776800
H511	H51	0.954300	0.748000	0.278400
H521	H52	0.366100	0.990000	0.810100
H531	H53	0.457000	0.651000	0.666200
H541	H54	0.439400	0.254000	0.924300
H551	H55	0.775200	0.747600	0.394700
H561	H56	0.199300	0.953800	0.278900
H571	H57	0.473000	0.114800	0.206400
H581	H58	0.007900	0.758800	0.442700
H591	H59	0.713400	0.222400	0.686300
H601	H60	0.099400	0.106800	0.196900
H611	H61	0.513800	0.466400	0.223200
H621	H62	0.792700	0.297400	0.662800
H631	H63	0.232900	0.960800	0.833400
H641	H64	0.214900	0.206000	0.268500
H651	H65	0.989800	0.934000	0.355600
H661	H66	0.861000	0.011400	0.744300
H671	H67	0.464100	0.892800	0.267600
H681	H68	0.738700	0.762000	0.841900
H691	H69	0.560600	0.838400	0.694400
H701	H70	0.992200	0.842200	0.760700
H711	H71	0.422100	0.258600	0.262400
H721	H72	0.632900	0.636000	0.218500
H731	H73	0.914400	0.483800	0.706800
H741	H74	0.509400	0.947000	0.053900
H751	H75	0.221500	0.465000	0.199800
H761	H76	0.074100	0.616600	0.289100
H771	H77	0.081600	0.426400	0.123800
H781	H78	0.137200	0.770600	0.787500
H791	H79	0.920000	0.353800	0.725600
H801	H80	0.538500	0.747800	0.251300
H811	H81	0.233300	0.758800	0.557300
H821	H82	0.278300	0.324000	0.552400
H831	H83	0.480500	0.268200	0.466500
H841	H84	0.499300	0.762000	0.158100
H851	H85	0.266000	0.301000	0.037800
H861	H86	0.422000	0.348400	0.716400
H871	H87	0.826500	0.489400	0.377200
H881	H88	0.943000	0.656200	0.674800
H891	H89	0.391400	0.640800	0.277400
H901	H90	0.793800	0.106800	0.803100
H911	H91	0.293700	0.333400	0.139700
H921	H92	0.581700	0.770200	0.181300
H931	H93	0.064200	0.222400	0.313700
H941	H94	0.581000	0.242800	0.946100
H951	H95	0.003400	0.863800	0.563100
H961	H96	0.585600	0.246000	0.770900
H971	H97	0.262800	0.149400	0.708900
H981	H98	0.208300	0.779600	0.998000
H991	H99	0.397700	0.324000	0.447600
H1001	H100	0.537500	0.373600	0.293500
H1011	H101	0.601000	0.838400	0.305600
H1021	H102	0.601800	0.483800	0.293200
H1031	H103	0.365500	0.183600	0.816700
H1041	H104	0.558700	0.093600	0.273400
H1051	H105	0.573500	0.914400	0.309400
H1061	H106	0.230400	0.786400	0.841000
H1071	H107	0.630800	0.665200	0.103200
H1081	H108	0.412500	0.914600	0.819900
H1091	H109	0.762800	0.927200	0.832900
H1101	H110	0.128300	0.729800	0.295700
H1111	H111	0.269900	0.515800	0.715200
H1121	H112	0.979400	0.391000	0.824600
H1131	H113	0.383100	0.436000	0.903100
H1141	H114	0.643100	0.892800	0.732400
H1151	H115	0.472400	0.848200	0.935600
H1161	H116	0.549100	0.122000	0.951600
H1171	H117	0.041600	0.288200	0.286900
H1181	H118	0.846900	0.953800	0.721100
H1191	H119	0.834600	0.970800	0.866400
H1201	H120	0.492000	0.426400	0.876200
H1211	H121	0.729000	0.677800	0.077700
H1221	H122	0.516300	0.615400	0.359400
H1231	H123	0.414300	0.874800	0.404900
H1241	H124	0.605700	0.622400	0.611800
H1251	H125	0.233700	0.140200	0.206300
H1261	H126	0.328900	0.122000	0.048400
H1271	H127	0.088900	0.373600	0.706500
H1281	H128	0.462900	0.587600	0.303600
H1291	H129	0.626100	0.140200	0.793700
H1301	H130	0.851800	0.451400	0.790600
H1311	H131	0.386900	0.072200	0.139700
H1321	H132	0.475000	0.154000	0.298200
H1331	H133	0.247600	0.177000	0.581500
H1341	H134	0.532700	0.626200	0.213500
H1351	H135	0.144300	0.717000	0.825700
H1361	H136	0.250300	0.272000	0.785100
H1371	H137	0.884700	0.842000	0.758500
H1381	H138	0.086100	0.446400	0.701400
H1391	H139	0.522600	0.762000	0.075500
H1401	H140	0.592200	0.850800	0.766900
H1411	H141	0.113300	0.460400	0.206600
H1421	H142	0.841700	0.752400	0.000100
H1431	H143	0.679400	0.848200	0.064400
H1441	H144	0.479400	0.985200	0.225100
H1451	H145	0.249100	0.333200	0.642000
H1461	H146	0.726200	0.353800	0.274400
H1471	H147	0.091500	0.953600	0.277300
H1481	H148	0.306600	0.254000	0.075700
H1491	H149	0.951900	0.853000	0.643400
H1501	H150	0.989700	0.944200	0.618300
H1511	H151	0.505500	0.278600	0.329500
H1521	H152	0.115900	0.853200	0.541100
H1531	H153	0.483300	0.183600	0.396800
H1541	H154	0.417700	0.333200	0.358000
H1551	H155	0.176200	0.242800	0.053900
H1561	H156	0.707000	0.815600	0.510800
H1571	H157	0.095700	0.944200	0.592600
H1581	H158	0.448800	0.757600	0.292100
H1591	H159	0.333100	0.183600	0.603200
H1601	H160	0.631200	0.829600	0.923200
H1611	H161	0.414000	0.261800	0.358600
H1621	H162	0.033900	0.785000	0.646400
H1631	H163	0.713700	0.747800	0.748700
H1641	H164	0.400800	0.656200	0.325200
H1651	H165	0.364300	0.695000	0.017200
H1661	H166	0.123200	0.793800	0.438500
H1671	H167	0.803600	0.361800	0.398300
H1681	H168	0.806300	0.960800	0.166600
H1691	H169	0.629600	0.391000	0.175400
H1701	H170	0.477400	0.815600	0.489200
H1711	H171	0.128900	0.522600	0.222600
H1721	H172	0.479900	0.325200	0.831800
H1731	H173	0.482600	0.403200	0.226900
H1741	H174	0.144000	0.657400	0.700400
H1751	H175	0.788100	0.329200	0.154300
H1761	H176	0.116100	0.362800	0.556100
H1771	H177	0.251300	0.268200	0.533500
H1781	H178	0.967800	0.640800	0.722600
H1791	H179	0.883300	0.782600	0.898600
H1801	H180	0.618100	0.425800	0.327700
H1811	H181	0.521100	0.362800	0.443900
H1821	H182	0.712800	0.666000	0.129400
H1831	H183	0.477200	0.747600	0.605300
H1841	H184	0.446300	0.979200	0.926600
H1851	H185	0.883100	0.850400	0.913400
H1861	H186	0.106500	0.421400	0.071600
H1871	H187	0.771900	0.622400	0.388200
H1881	H188	0.285400	0.365400	0.237200
H1891	H189	0.132800	0.863800	0.436900
H1901	H190	0.530100	0.263400	0.256000
H1911	H191	0.201200	0.637600	0.225000
H1921	H192	0.923600	0.981000	0.113200
H1931	H193	0.467500	0.446400	0.298600
H1941	H194	0.347700	0.093600	0.726600
H1951	H195	0.579100	0.206000	0.731500
H1961	H196	0.502900	0.129800	0.894700
H1971	H197	0.026200	0.843400	0.675900
H1981	H198	0.309300	0.616600	0.710900
H1991	H199	0.428900	0.834400	0.753000
H2001	H200	0.574500	0.979200	0.073400
H2011	H201	0.672900	0.914600	0.180100
H2021	H202	0.551000	0.954800	0.894300
H2031	H203	0.502700	0.818400	0.378300
H2041	H204	0.001700	0.122800	0.879000
H2051	H205	0.062400	0.695000	0.772300
H2061	H206	0.736700	0.834400	0.247000
H2071	H207	0.388500	0.175600	0.230400
H2081	H208	0.114600	0.482200	0.347000
H2091	H209	0.539200	0.829600	0.076800
H2101	H210	0.242600	0.695000	0.227700
H2111	H211	0.841100	0.626200	0.786500
H2121	H212	0.324200	0.261800	0.641400
H2131	H213	0.130400	0.843400	0.324100
H2141	H214	0.313500	0.465000	0.800200
H2151	H215	0.875500	0.122800	0.121000
H2161	H216	0.540900	0.072200	0.860300
H2171	H217	0.956100	0.425800	0.672300
H2181	H218	0.704000	0.665200	0.896800
H2191	H219	0.919200	0.833000	0.804400
H2201	H220	0.077300	0.181400	0.185100
H2211	H221	0.011300	0.131600	0.267400
H2221	H222	0.141900	0.729800	0.704300
H2231	H223	0.336300	0.317400	0.064700
H2241	H224	0.346300	0.317400	0.935300
H2251	H225	0.868300	0.615400	0.640600
H2261	H226	0.347900	0.251200	0.553900
H2271	H227	0.221800	0.851000	0.896700
H2281	H228	0.403200	0.482200	0.653000
H2291	H229	0.450900	0.183600	0.183300
H2301	H230	0.671800	0.968200	0.261200
H2311	H231	0.741300	0.181400	0.814900
H2321	H232	0.650900	0.828600	0.845200
H2331	H233	0.710900	0.874800	0.595100
H2341	H234	0.468600	0.830400	0.659500
H2351	H235	0.046300	0.651600	0.213200
H2361	H236	0.247800	0.833000	0.195600
H2371	H237	0.883000	0.703400	0.555800
H2381	H238	0.586500	0.181000	0.366500
H2391	H239	0.413600	0.703400	0.444200
H2401	H240	0.435900	0.175600	0.769600
H2411	H241	0.215900	0.278600	0.670500
H2421	H242	0.217700	0.798400	0.108900
H2431	H243	0.206500	0.263400	0.744000
H2441	H244	0.927200	0.851000	0.103300
H2451	H245	0.520500	0.828600	0.154800
H2461	H246	0.161200	0.637600	0.775000
H2471	H247	0.012100	0.779600	0.002000
H2481	H248	0.960100	0.944200	0.407400
H2491	H249	0.297100	0.450000	0.689800
H2501	H250	0.699700	0.115400	0.748500
H2511	H251	0.310000	0.927200	0.167100
H2521	H252	0.405900	0.752400	0.999900
H2531	H253	0.670200	0.288200	0.713100
H2541	H254	0.328800	0.936000	0.214500
H2551	H255	0.127600	0.011400	0.255700
H2561	H256	0.422500	0.719800	0.046200
H2571	H257	0.892000	0.651000	0.333800
H2581	H258	0.575400	0.177000	0.418500
H2591	H259	0.477700	0.272000	0.214900
H2601	H260	0.535400	0.985200	0.774900
H2611	H261	0.332200	0.754200	0.421300
H2621	H262	0.114200	0.403200	0.773100
H2631	H263	0.834600	0.361800	0.601700
H2641	H264	0.861800	0.237200	0.890900
H2651	H265	0.328900	0.760000	0.472400
H2661	H266	0.983900	0.798400	0.891100
H2671	H267	0.919000	0.131000	0.826200
H2681	H268	0.644300	0.338400	0.213200
H2691	H269	0.618200	0.773400	0.046100
H2701	H270	0.266500	0.850400	0.086600
H2711	H271	0.302100	0.651600	0.786800
H2721	H272	0.696800	0.451400	0.209400
H2731	H273	0.882700	0.329200	0.845700
H2741	H274	0.797000	0.456600	0.676100
H2751	H275	0.286800	0.121800	0.849800
H2761	H276	0.334100	0.782600	0.101400
H2771	H277	0.371000	0.154000	0.701800
H2781	H278	0.587800	0.149400	0.291100
H2791	H279	0.648100	0.770200	0.818700
H2801	H280	0.297700	0.748000	0.721600
H2811	H281	0.494200	0.954800	0.105700
H2821	H282	0.909900	0.297400	0.337200
H2831	H283	0.017300	0.338400	0.786800
H2841	H284	0.372900	0.333400	0.860300
H2851	H285	0.950000	0.131000	0.173800
H2861	H286	0.715400	0.762000	0.924500
H2871	H287	0.083000	0.793800	0.561500
H2881	H288	0.076200	0.934000	0.644400
H2891	H289	0.940700	0.695000	0.982800
H2901	H290	0.252900	0.450000	0.310200
H2911	H291	0.949500	0.587600	0.696400
H2921	H292	0.557000	0.850800	0.233100
H2931	H293	0.512100	0.914400	0.690600
H2941	H294	0.591400	0.121800	0.150200
H2951	H295	0.459900	0.267000	0.860900
H2961	H296	0.198600	0.657400	0.299600
H2971	H297	0.543600	0.947000	0.946100
H2981	H298	0.092200	0.770600	0.212500
H2991	H299	0.349200	0.365400	0.762800
H3001	H300	0.621200	0.666000	0.870600
H3011	H301	0.195100	0.853000	0.356600
H3021	H302	0.214300	0.515800	0.284800
H3031	H303	0.735200	0.936000	0.785500
H3041	H304	0.348500	0.522600	0.777400
H3051	H305	0.463500	0.355000	0.758600
H3061	H306	0.194900	0.325200	0.168200
H3071	H307	0.857700	0.719800	0.953800
H3081	H308	0.232500	0.181000	0.633500
H3091	H309	0.746400	0.456600	0.323900
H3101	H310	0.429500	0.094400	0.886300
C11	C1	0.968900	0.490200	0.369000
C21	C2	0.647200	0.663600	0.704000
C31	C3	0.105400	0.306800	0.104700
C41	C4	0.984700	0.384600	0.793100
C51	C5	0.241500	0.469200	0.281800
C61	C6	0.792400	0.602200	0.570600
C71	C7	0.841200	0.336200	0.163600
C81	C8	0.675900	0.150200	0.770400
C91	C9	0.149400	0.831400	0.352500
C101	C10	0.486700	0.663200	0.686900
C111	C11	0.486100	0.249200	0.242600
C121	C12	0.400500	0.837000	0.669200
C131	C13	0.225900	0.129000	0.841200
C141	C14	0.086700	0.149600	0.209000
C151	C15	0.579400	0.888000	0.747000
C161	C16	0.897400	0.453600	0.315600
C171	C17	0.728900	0.629200	0.368200
C181	C18	0.050600	0.417800	0.716700
C191	C19	0.633100	0.479400	0.642800
C201	C20	0.204500	0.801000	0.024000
C211	C21	0.264700	0.249200	0.757400
C221	C22	0.592300	0.304800	0.389900
C231	C23	0.135000	0.682600	0.765700
C241	C24	0.521200	0.878000	0.711200
C251	C25	0.745200	0.614800	0.619200
C261	C26	0.058600	0.241200	0.284400
C271	C27	0.541900	0.196200	0.394400
C281	C28	0.337700	0.857200	0.921500
C291	C29	0.536300	0.949600	0.226900
C301	C30	0.408100	0.764000	0.607300
C311	C31	0.261900	0.196200	0.605600
C321	C32	0.436400	0.633600	0.297700
C331	C33	0.279800	0.279400	0.556200
C341	C34	0.348300	0.788200	0.861200
C351	C35	0.497500	0.791000	0.463100
C361	C36	0.070600	0.348000	0.576500
C371	C37	0.524200	0.659800	0.276800
C381	C38	0.711500	0.791000	0.536900
C391	C39	0.575700	0.625000	0.351000
C401	C40	0.587800	0.306800	0.895300
C411	C41	0.088700	0.839600	0.435400
C421	C42	0.737600	0.099000	0.084200
C431	C43	0.283400	0.662600	0.703800
C441	C44	0.813500	0.917000	0.048200
C451	C45	0.996900	0.166400	0.245100
C461	C46	0.946100	0.947400	0.811900
C471	C47	0.783400	0.733000	0.734700
C481	C48	0.900000	0.009000	0.928300
C491	C49	0.055300	0.176600	0.045700
C501	C50	0.480800	0.449200	0.702500
C511	C51	0.734000	0.830000	0.604400
C521	C52	0.783900	0.764200	0.143400
C531	C53	0.279600	0.697800	0.778200
C541	C54	0.464900	0.475000	0.660900
C551	C55	0.046400	0.941000	0.796100
C561	C56	0.649000	0.453600	0.684400
C571	C57	0.300100	0.770000	0.833900
C581	C58	0.189900	0.338000	0.101300
C591	C59	0.923400	0.854600	0.776000
C601	C60	0.827900	0.764000	0.392700
C611	C61	0.022600	0.697800	0.221800
C621	C62	0.882700	0.928200	0.783000
C631	C63	0.877100	0.693600	0.455900
C641	C64	0.762500	0.837000	0.330800
C651	C65	0.291200	0.834800	0.893600
C661	C66	0.367100	0.476000	0.780800
C671	C67	0.727500	0.232000	0.923400
C681	C68	0.436000	0.830000	0.395600
C691	C69	0.667700	0.782000	0.844200
C701	C70	0.882800	0.404800	0.782900
C711	C71	0.429300	0.693600	0.544100
C721	C72	0.805600	0.150600	0.184300
C731	C73	0.019200	0.831400	0.647500
C741	C74	0.060500	0.925400	0.617000
C751	C75	0.630700	0.384600	0.206900
C761	C76	0.612400	0.758200	0.887100
C771	C77	0.063300	0.979000	0.116100
C781	C78	0.417400	0.298800	0.933500
C791	C79	0.847200	0.949200	0.187700
C801	C80	0.680500	0.685000	0.105100
C811	C81	0.888400	0.746400	0.424400
C821	C82	0.043800	0.150600	0.815700
C831	C83	0.560400	0.077200	0.955400
C841	C84	0.040500	0.232000	0.076600
C851	C85	0.806400	0.441600	0.303500
C861	C86	0.592900	0.653600	0.674200
C871	C87	0.531100	0.175800	0.233700
C881	C88	0.994500	0.801000	0.976000
C891	C89	0.371800	0.748400	0.444000
C901	C90	0.419600	0.872800	0.733300
C911	C91	0.407300	0.948000	0.796800
C921	C92	0.091000	0.009000	0.071700
C931	C93	0.571800	0.783200	0.074100
C941	C94	0.891000	0.148000	0.194700
C951	C95	0.605400	0.602200	0.429400
C961	C96	0.131800	0.966400	0.144200
C971	C97	0.715000	0.786600	0.115500
C981	C98	0.713200	0.400000	0.266600
C991	C99	0.148100	0.965200	0.261300
C1001	C100	0.635300	0.150200	0.201800
C1011	C101	0.956700	0.517600	0.415800
C1021	C102	0.289300	0.469200	0.718200
C1031	C103	0.483600	0.733000	0.265300
C1041	C104	0.704000	0.931800	0.240000
C1051	C105	0.365200	0.746400	0.575600
C1061	C106	0.682300	0.283000	0.359400
C1071	C107	0.274700	0.804600	0.089300
C1081	C108	0.514100	0.949600	0.773100
C1091	C109	0.689200	0.663600	0.296000
C1101	C110	0.973400	0.702000	0.269700
C1111	C111	0.715600	0.161000	0.214600
C1121	C112	0.070000	0.449200	0.297500
C1131	C113	0.214500	0.150200	0.798200
C1141	C114	0.145900	0.685400	0.285100
C1151	C115	0.707600	0.872800	0.266700
C1161	C116	0.243200	0.313600	0.140800
C1171	C117	0.017000	0.329600	0.136100
C1181	C118	0.948000	0.437000	0.703300
C1191	C119	0.985600	0.812600	0.387000
C1201	C120	0.057900	0.972600	0.868000
C1211	C121	0.925000	0.830400	0.355300
C1221	C122	0.961000	0.148000	0.805300
C1231	C123	0.645000	0.783200	0.925900
C1241	C124	0.634500	0.685000	0.894900
C1251	C125	0.255100	0.287800	0.643000
C1261	C126	0.874000	0.834800	0.106400
C1271	C127	0.034700	0.283000	0.640600
C1281	C128	0.443200	0.313600	0.859200
C1291	C129	0.221300	0.371400	0.256100
C1301	C130	0.509800	0.974400	0.077200
C1311	C131	0.970000	0.369400	0.573400
C1321	C132	0.579200	0.620400	0.233000
C1331	C133	0.123400	0.161000	0.785400
C1341	C134	0.822600	0.336200	0.836400
C1351	C135	0.161600	0.213600	0.251900
C1361	C136	0.645100	0.129000	0.158800
C1371	C137	0.850100	0.663200	0.313100
C1381	C138	0.756100	0.303400	0.862200
C1391	C139	0.799400	0.226200	0.731500
C1401	C140	0.815300	0.129600	0.141300
C1411	C141	0.440800	0.279400	0.443800
C1421	C142	0.283800	0.298800	0.066500
C1431	C143	0.879800	0.748400	0.556000
C1441	C144	0.110800	0.724400	0.205900
C1451	C145	0.269500	0.917000	0.951800
C1461	C146	0.901800	0.347600	0.603800
C1471	C147	0.457100	0.287800	0.357000
C1481	C148	0.761400	0.304400	0.362600
C1491	C149	0.644700	0.948000	0.203200
C1501	C150	0.201800	0.812600	0.613000
C1511	C151	0.451900	0.764200	0.856600
C1521	C152	0.859500	0.282800	0.331900
C1531	C153	0.753500	0.653600	0.325800
C1541	C154	0.117100	0.258000	0.075000
C1551	C155	0.887500	0.479400	0.357200
C1561	C156	0.156900	0.476000	0.219200
C1571	C157	0.164800	0.724400	0.794100
C1581	C158	0.940500	0.303400	0.137800
C1591	C159	0.771000	0.948600	0.804600
C1601	C160	0.168700	0.685400	0.714900
C1611	C161	0.244600	0.830400	0.644700
C1621	C162	0.539100	0.139800	0.278300
C1631	C163	0.054000	0.662600	0.296200
C1641	C164	0.511600	0.271000	0.396700
C1651	C165	0.441300	0.833200	0.917000
C1661	C166	0.600800	0.878000	0.288800
C1671	C167	0.217400	0.271000	0.603300
C1681	C168	0.498400	0.786600	0.884500
C1691	C169	0.641900	0.629200	0.631800
C1701	C170	0.890300	0.732800	0.974200
C1711	C171	0.173900	0.150200	0.229600
C1721	C172	0.816000	0.659800	0.723200
C1731	C173	0.615000	0.437000	0.296700
C1741	C174	0.712400	0.404800	0.217100
C1751	C175	0.280400	0.948600	0.195400
C1761	C176	0.092500	0.852000	0.610300
C1771	C177	0.640000	0.614800	0.380800
C1781	C178	0.624900	0.258000	0.925000
C1791	C179	0.988700	0.438400	0.285700
C1801	C180	0.168000	0.443800	0.265700
C1811	C181	0.532200	0.421000	0.232700
C1821	C182	0.385500	0.161000	0.788700
C1831	C183	0.581400	0.348000	0.423500
C1841	C184	0.901800	0.966400	0.855800
C1851	C185	0.846200	0.806000	0.358200
C1861	C186	0.805100	0.857200	0.078500
C1871	C187	0.857700	0.282800	0.668100
C1881	C188	0.472100	0.338000	0.898700
C1891	C189	0.163400	0.099000	0.915800
C1901	C190	0.930000	0.633600	0.702300
C1911	C191	0.376900	0.732800	0.025800
C1921	C192	0.102900	0.304800	0.610100
C1931	C193	0.624800	0.213600	0.748100
C1941	C194	0.182400	0.682600	0.234300
C1951	C195	0.046800	0.421000	0.767300
C1961	C196	0.929900	0.770000	0.166100
C1971	C197	0.793200	0.254600	0.892000
C1981	C198	0.934200	0.304400	0.637400
C1991	C199	0.969500	0.972600	0.132000
C2001	C200	0.362400	0.077200	0.044600
C2011	C201	0.324600	0.702000	0.730300
C2021	C202	0.550300	0.782000	0.155800
C2031	C203	0.321100	0.139800	0.721700
C2041	C204	0.453500	0.161000	0.211300
C2051	C205	0.944100	0.953600	0.175900
C2061	C206	0.800400	0.620400	0.767000
C2071	C207	0.763700	0.149600	0.791000
C2081	C208	0.886800	0.400000	0.733400
C2091	C209	0.071700	0.839600	0.564600
C2101	C210	0.060100	0.475000	0.339100
C2111	C211	0.413700	0.088600	0.111800
C2121	C212	0.203600	0.949200	0.812300
C2131	C213	0.974400	0.226200	0.268500
C2141	C214	0.700200	0.241200	0.715600
C2151	C215	0.014100	0.925400	0.383000
C2161	C216	0.453000	0.412600	0.901900
C2171	C217	0.497700	0.088600	0.888200
C2181	C218	0.146200	0.118800	0.871500
C2191	C219	0.836700	0.166400	0.754900
C2201	C220	0.920700	0.804600	0.910700
C2211	C221	0.660600	0.369400	0.426600
C2221	C222	0.540900	0.490200	0.631000
C2231	C223	0.863500	0.788200	0.138800
C2241	C224	0.102300	0.953600	0.824100
C2251	C225	0.407300	0.371400	0.743900
C2261	C226	0.600300	0.649400	0.308600
C2271	C227	0.886700	0.965200	0.738700
C2281	C228	0.629400	0.758200	0.112900
C2291	C229	0.725500	0.833200	0.083000
C2301	C230	0.364200	0.931800	0.760000
C2311	C231	0.222000	0.854600	0.224000
C2321	C232	0.515800	0.974400	0.922800
C2331	C233	0.752000	0.441600	0.696500
C2341	C234	0.930500	0.427800	0.543100
C2351	C235	0.388200	0.443800	0.734300
C2361	C236	0.952200	0.254600	0.108000
C2371	C237	0.967300	0.770600	0.421500
C2381	C238	0.525700	0.517600	0.584200
C2391	C239	0.531600	0.417800	0.283300
C2401	C240	0.735000	0.118800	0.128500
C2411	C241	0.572900	0.438400	0.714300
C2421	C242	0.293100	0.175800	0.766300
C2431	C243	0.262100	0.770600	0.578500
C2441	C244	0.957700	0.979000	0.883900
C2451	C245	0.768100	0.176600	0.954300
C2461	C246	0.347800	0.806000	0.641800
C2471	C247	0.750600	0.347600	0.396200
C2481	C248	0.641700	0.427800	0.456900
C2491	C249	0.750300	0.649400	0.691400
C2501	C250	0.653400	0.329600	0.863900
C2511	C251	0.134400	0.412600	0.098100
C2521	C252	0.106500	0.947400	0.188100
C2531	C253	0.189100	0.928200	0.217000
C2541	C254	0.532600	0.888000	0.253000
C2551	C255	0.799300	0.625000	0.649000
C2561	C256	0.012600	0.941000	0.203900
C2571	C257	0.055100	0.129600	0.858700
C2581	C258	0.055500	0.852000	0.389700
N11	N1	0.777500	0.789000	0.566200
N21	N2	0.929700	0.732000	0.201800
N31	N3	0.256900	0.930200	0.774400
N41	N4	0.774000	0.869400	0.297400
N51	N5	0.356600	0.869400	0.702600
N61	N6	0.338300	0.732000	0.798200
N71	N7	0.879200	0.246000	0.299000
N81	N8	0.426500	0.688200	0.726000
N91	N9	0.812900	0.930200	0.225600
N101	N10	0.818000	0.373000	0.196800
N111	N11	0.432200	0.040200	0.074900
N121	N12	0.935600	0.778400	0.953100
N131	N13	0.874800	0.246000	0.701000
N141	N14	0.780900	0.415400	0.729000
N151	N15	0.885300	0.688200	0.274000
N161	N16	0.286000	0.778400	0.046900
N171	N17	0.803700	0.415400	0.271000
N181	N18	0.934300	0.168600	0.766000
N191	N19	0.527600	0.040200	0.925100
N201	N20	0.897100	0.168600	0.234000
N211	N21	0.809000	0.373000	0.803200
N221	N22	0.433500	0.789000	0.433800
O11	O1	0.247600	0.085600	0.925000
O21	O2	0.602500	0.048200	0.984600
O31	O3	0.537300	0.576400	0.437800
O41	O4	0.389900	0.667800	0.521000
O51	O5	0.862300	0.159600	0.958400
O61	O6	0.840200	0.440200	0.542400
O71	O7	0.664900	0.593600	0.459300
O81	O8	0.716100	0.145000	0.975000
O91	O9	0.942300	0.667800	0.479000
O101	O10	0.012800	0.366400	0.170800
O111	O11	0.127900	0.848200	0.037600
O121	O12	0.034400	0.528400	0.421200
O131	O13	0.620800	0.366400	0.829200
O141	O14	0.327000	0.941800	0.967900
O151	O15	0.813300	0.088000	0.054900
O161	O16	0.947900	0.007400	0.957800
O171	O17	0.995900	0.448000	0.517600
O181	O18	0.709200	0.185000	0.253600
O191	O19	0.510800	0.728200	0.822400
O201	O20	0.600500	0.689600	0.742900
O211	O21	0.719600	0.440200	0.457600
O221	O22	0.761000	0.728200	0.177600
O231	O23	0.873000	0.525800	0.444600
O241	O24	0.556100	0.448000	0.482400
O251	O25	0.525000	0.679000	0.536900
O261	O26	0.731200	0.941800	0.032100
O271	O27	0.662700	0.756200	0.551000
O281	O28	0.186100	0.862200	0.683400
O291	O29	0.601200	0.525800	0.555400
O301	O30	0.349300	0.048200	0.015400
O311	O31	0.066500	0.245800	0.674300
O321	O32	0.978100	0.159600	0.041600
O331	O33	0.741500	0.593600	0.540700
O341	O34	0.951700	0.862200	0.316600
O351	O35	0.886300	0.576400	0.562200
O361	O36	0.105800	0.185000	0.746400
O371	O37	0.098700	0.088000	0.945100
O381	O38	0.087900	0.917600	0.753900
O391	O39	0.186200	0.937800	0.955500
O401	O40	0.687700	0.245800	0.325700
O411	O41	0.579800	0.412600	0.756900
O421	O42	0.811500	0.012200	0.938100
O431	O43	0.796000	0.679000	0.463100
O441	O44	0.007600	0.412600	0.243100
O451	O45	0.044700	0.007400	0.042200
O461	O46	0.176300	0.012200	0.061900
O471	O47	0.994500	0.917600	0.246100
O481	O48	0.023900	0.848200	0.962400
O491	O49	0.666800	0.085600	0.075000
O501	O50	0.138900	0.145000	0.025000
O511	O51	0.581100	0.756200	0.449000
O521	O52	0.876000	0.937800	0.044500
O531	O53	0.709900	0.689600	0.257100
O541	O54	0.437200	0.528400	0.578800
