data_ja406030p_si_005_manual_PM
_symmetry_space_group_name_H-M	'P1'
_cell_length_a	19.277000
_cell_length_b	19.277000
_cell_length_c	36.023000
_cell_angle_alpha	90.000000
_cell_angle_beta	90.000000
_cell_angle_gamma	120.000000
_symmetry_Int_Tables_number 1

loop_
_symmetry_equiv_pos_as_xyz
'x,y,z'

loop_
_atom_site_label
_atom_site_type_symbol
_atom_site_fract_x
_atom_site_fract_y
_atom_site_fract_z
H11	H1	0.141300	0.673900	0.152300
H21	H2	0.897300	0.308300	0.408100
H31	H3	0.555800	0.644300	0.093400
C41	C4	0.846300	0.569000	0.040490
C51	C5	0.143800	0.410200	0.578200
C61	C6	0.507500	0.608300	0.105290
C71	C7	0.868600	0.373800	0.859270
C81	C8	0.098060	0.455500	0.523400
O91	O9	0.406590	0.961270	0.957630
O101	O10	0.202010	0.543100	0.289910
O111	O11	0.113390	0.629860	0.491360
H121	H12	0.326100	0.467400	0.152300
H131	H13	0.691700	0.589000	0.408100
H141	H14	0.355700	0.911500	0.093400
C151	C15	0.431000	0.277300	0.040490
C161	C16	0.589800	0.733600	0.578200
C171	C17	0.391700	0.899200	0.105290
C181	C18	0.626200	0.494800	0.859270
C191	C19	0.544500	0.642560	0.523400
O201	O20	0.038730	0.445320	0.957630
O211	O21	0.456900	0.658910	0.289910
O221	O22	0.370140	0.483530	0.491360
H231	H23	0.532600	0.858700	0.152300
H241	H24	0.411000	0.102700	0.408100
H251	H25	0.088500	0.444200	0.093400
C261	C26	0.722700	0.153700	0.040490
C271	C27	0.266400	0.856200	0.578200
C281	C28	0.100800	0.492500	0.105290
C291	C29	0.505200	0.131400	0.859270
C301	C30	0.357440	0.901940	0.523400
O311	O31	0.554680	0.593410	0.957630
O321	O32	0.341090	0.797990	0.289910
O331	O33	0.516470	0.886610	0.491360
H341	H34	0.858700	0.326100	0.652300
H351	H35	0.102700	0.691700	0.908100
H361	H36	0.444200	0.355700	0.593400
C371	C37	0.153700	0.431000	0.540490
C381	C38	0.856200	0.589800	0.078200
C391	C39	0.492500	0.391700	0.605290
C401	C40	0.131400	0.626200	0.359270
C411	C41	0.901940	0.544500	0.023400
O421	O42	0.593410	0.038730	0.457630
O431	O43	0.797990	0.456900	0.789910
O441	O44	0.886610	0.370140	0.991360
H451	H45	0.673900	0.532600	0.652300
H461	H46	0.308300	0.411000	0.908100
H471	H47	0.644300	0.088500	0.593400
C481	C48	0.569000	0.722700	0.540490
C491	C49	0.410200	0.266400	0.078200
C501	C50	0.608300	0.100800	0.605290
C511	C51	0.373800	0.505200	0.359270
C521	C52	0.455500	0.357440	0.023400
O531	O53	0.961270	0.554680	0.457630
O541	O54	0.543100	0.341090	0.789910
O551	O55	0.629860	0.516470	0.991360
H561	H56	0.467400	0.141300	0.652300
H571	H57	0.589000	0.897300	0.908100
H581	H58	0.911500	0.555800	0.593400
C591	C59	0.277300	0.846300	0.540490
C601	C60	0.733600	0.143800	0.078200
C611	C61	0.899200	0.507500	0.605290
C621	C62	0.494800	0.868600	0.359270
C631	C63	0.642560	0.098060	0.023400
O641	O64	0.445320	0.406590	0.457630
O651	O65	0.658910	0.202010	0.789910
O661	O66	0.483530	0.113390	0.991360
H671	H67	0.673900	0.141300	0.847700
H681	H68	0.308300	0.897300	0.591900
H691	H69	0.644300	0.555800	0.906600
C701	C70	0.569000	0.846300	0.959510
C711	C71	0.410200	0.143800	0.421800
C721	C72	0.608300	0.507500	0.894710
C731	C73	0.373800	0.868600	0.140730
C741	C74	0.455500	0.098060	0.476600
O751	O75	0.961270	0.406590	0.042370
O761	O76	0.543100	0.202010	0.710090
O771	O77	0.629860	0.113390	0.508640
H781	H78	0.467400	0.326100	0.847700
H791	H79	0.589000	0.691700	0.591900
H801	H80	0.911500	0.355700	0.906600
C811	C81	0.277300	0.431000	0.959510
C821	C82	0.733600	0.589800	0.421800
C831	C83	0.899200	0.391700	0.894710
C841	C84	0.494800	0.626200	0.140730
C851	C85	0.642560	0.544500	0.476600
O861	O86	0.445320	0.038730	0.042370
O871	O87	0.658910	0.456900	0.710090
O881	O88	0.483530	0.370140	0.508640
H891	H89	0.858700	0.532600	0.847700
H901	H90	0.102700	0.411000	0.591900
H911	H91	0.444200	0.088500	0.906600
C921	C92	0.153700	0.722700	0.959510
C931	C93	0.856200	0.266400	0.421800
C941	C94	0.492500	0.100800	0.894710
C951	C95	0.131400	0.505200	0.140730
C961	C96	0.901940	0.357440	0.476600
O971	O97	0.593410	0.554680	0.042370
O981	O98	0.797990	0.341090	0.710090
O991	O99	0.886610	0.516470	0.508640
H1001	H100	0.326100	0.858700	0.347700
H1011	H101	0.691700	0.102700	0.091900
H1021	H102	0.355700	0.444200	0.406600
C1031	C103	0.431000	0.153700	0.459510
C1041	C104	0.589800	0.856200	0.921800
C1051	C105	0.391700	0.492500	0.394710
C1061	C106	0.626200	0.131400	0.640730
C1071	C107	0.544500	0.901940	0.976600
O1081	O108	0.038730	0.593410	0.542370
O1091	O109	0.456900	0.797990	0.210090
O1101	O110	0.370140	0.886610	0.008640
H1111	H111	0.532600	0.673900	0.347700
H1121	H112	0.411000	0.308300	0.091900
H1131	H113	0.088500	0.644300	0.406600
C1141	C114	0.722700	0.569000	0.459510
C1151	C115	0.266400	0.410200	0.921800
C1161	C116	0.100800	0.608300	0.394710
C1171	C117	0.505200	0.373800	0.640730
C1181	C118	0.357440	0.455500	0.976600
O1191	O119	0.554680	0.961270	0.542370
O1201	O120	0.341090	0.543100	0.210090
O1211	O121	0.516470	0.629860	0.008640
H1221	H122	0.141300	0.467400	0.347700
H1231	H123	0.897300	0.589000	0.091900
H1241	H124	0.555800	0.911500	0.406600
C1251	C125	0.846300	0.277300	0.459510
C1261	C126	0.143800	0.733600	0.921800
C1271	C127	0.507500	0.899200	0.394710
C1281	C128	0.868600	0.494800	0.640730
C1291	C129	0.098060	0.642560	0.976600
O1301	O130	0.406590	0.445320	0.542370
O1311	O131	0.202010	0.658910	0.210090
O1321	O132	0.113390	0.483530	0.008640
H1331	H133	0.858700	0.326100	0.847700
H1341	H134	0.102700	0.691700	0.591900
H1351	H135	0.444200	0.355700	0.906600
C1361	C136	0.153700	0.431000	0.959510
C1371	C137	0.856200	0.589800	0.421800
C1381	C138	0.492500	0.391700	0.894710
C1391	C139	0.131400	0.626200	0.140730
C1401	C140	0.901940	0.544500	0.476600
O1411	O141	0.593410	0.038730	0.042370
O1421	O142	0.797990	0.456900	0.710090
O1431	O143	0.886610	0.370140	0.508640
H1441	H144	0.673900	0.532600	0.847700
H1451	H145	0.308300	0.411000	0.591900
H1461	H146	0.644300	0.088500	0.906600
C1471	C147	0.569000	0.722700	0.959510
C1481	C148	0.410200	0.266400	0.421800
C1491	C149	0.608300	0.100800	0.894710
C1501	C150	0.373800	0.505200	0.140730
C1511	C151	0.455500	0.357440	0.476600
O1521	O152	0.961270	0.554680	0.042370
O1531	O153	0.543100	0.341090	0.710090
O1541	O154	0.629860	0.516470	0.508640
H1551	H155	0.467400	0.141300	0.847700
H1561	H156	0.589000	0.897300	0.591900
H1571	H157	0.911500	0.555800	0.906600
C1581	C158	0.277300	0.846300	0.959510
C1591	C159	0.733600	0.143800	0.421800
C1601	C160	0.899200	0.507500	0.894710
C1611	C161	0.494800	0.868600	0.140730
C1621	C162	0.642560	0.098060	0.476600
O1631	O163	0.445320	0.406590	0.042370
O1641	O164	0.658910	0.202010	0.710090
O1651	O165	0.483530	0.113390	0.508640
H1661	H166	0.141300	0.673900	0.347700
H1671	H167	0.897300	0.308300	0.091900
H1681	H168	0.555800	0.644300	0.406600
C1691	C169	0.846300	0.569000	0.459510
C1701	C170	0.143800	0.410200	0.921800
C1711	C171	0.507500	0.608300	0.394710
C1721	C172	0.868600	0.373800	0.640730
C1731	C173	0.098060	0.455500	0.976600
O1741	O174	0.406590	0.961270	0.542370
O1751	O175	0.202010	0.543100	0.210090
O1761	O176	0.113390	0.629860	0.008640
H1771	H177	0.326100	0.467400	0.347700
H1781	H178	0.691700	0.589000	0.091900
H1791	H179	0.355700	0.911500	0.406600
C1801	C180	0.431000	0.277300	0.459510
C1811	C181	0.589800	0.733600	0.921800
C1821	C182	0.391700	0.899200	0.394710
C1831	C183	0.626200	0.494800	0.640730
C1841	C184	0.544500	0.642560	0.976600
O1851	O185	0.038730	0.445320	0.542370
O1861	O186	0.456900	0.658910	0.210090
O1871	O187	0.370140	0.483530	0.008640
H1881	H188	0.532600	0.858700	0.347700
H1891	H189	0.411000	0.102700	0.091900
H1901	H190	0.088500	0.444200	0.406600
C1911	C191	0.722700	0.153700	0.459510
C1921	C192	0.266400	0.856200	0.921800
C1931	C193	0.100800	0.492500	0.394710
C1941	C194	0.505200	0.131400	0.640730
C1951	C195	0.357440	0.901940	0.976600
O1961	O196	0.554680	0.593410	0.542370
O1971	O197	0.341090	0.797990	0.210090
O1981	O198	0.516470	0.886610	0.008640
H1991	H199	0.326100	0.858700	0.152300
H2001	H200	0.691700	0.102700	0.408100
H2011	H201	0.355700	0.444200	0.093400
C2021	C202	0.431000	0.153700	0.040490
C2031	C203	0.589800	0.856200	0.578200
C2041	C204	0.391700	0.492500	0.105290
C2051	C205	0.626200	0.131400	0.859270
C2061	C206	0.544500	0.901940	0.523400
O2071	O207	0.038730	0.593410	0.957630
O2081	O208	0.456900	0.797990	0.289910
O2091	O209	0.370140	0.886610	0.491360
H2101	H210	0.532600	0.673900	0.152300
H2111	H211	0.411000	0.308300	0.408100
H2121	H212	0.088500	0.644300	0.093400
C2131	C213	0.722700	0.569000	0.040490
C2141	C214	0.266400	0.410200	0.578200
C2151	C215	0.100800	0.608300	0.105290
C2161	C216	0.505200	0.373800	0.859270
C2171	C217	0.357440	0.455500	0.523400
O2181	O218	0.554680	0.961270	0.957630
O2191	O219	0.341090	0.543100	0.289910
O2201	O220	0.516470	0.629860	0.491360
H2211	H221	0.141300	0.467400	0.152300
H2221	H222	0.897300	0.589000	0.408100
H2231	H223	0.555800	0.911500	0.093400
C2241	C224	0.846300	0.277300	0.040490
C2251	C225	0.143800	0.733600	0.578200
C2261	C226	0.507500	0.899200	0.105290
C2271	C227	0.868600	0.494800	0.859270
C2281	C228	0.098060	0.642560	0.523400
O2291	O229	0.406590	0.445320	0.957630
O2301	O230	0.202010	0.658910	0.289910
O2311	O231	0.113390	0.483530	0.491360
H2321	H232	0.673900	0.141300	0.652300
H2331	H233	0.308300	0.897300	0.908100
H2341	H234	0.644300	0.555800	0.593400
C2351	C235	0.569000	0.846300	0.540490
C2361	C236	0.410200	0.143800	0.078200
C2371	C237	0.608300	0.507500	0.605290
C2381	C238	0.373800	0.868600	0.359270
C2391	C239	0.455500	0.098060	0.023400
O2401	O240	0.961270	0.406590	0.457630
O2411	O241	0.543100	0.202010	0.789910
O2421	O242	0.629860	0.113390	0.991360
H2431	H243	0.467400	0.326100	0.652300
H2441	H244	0.589000	0.691700	0.908100
H2451	H245	0.911500	0.355700	0.593400
C2461	C246	0.277300	0.431000	0.540490
C2471	C247	0.733600	0.589800	0.078200
C2481	C248	0.899200	0.391700	0.605290
C2491	C249	0.494800	0.626200	0.359270
C2501	C250	0.642560	0.544500	0.023400
O2511	O251	0.445320	0.038730	0.457630
O2521	O252	0.658910	0.456900	0.789910
O2531	O253	0.483530	0.370140	0.991360
H2541	H254	0.858700	0.532600	0.652300
H2551	H255	0.102700	0.411000	0.908100
H2561	H256	0.444200	0.088500	0.593400
C2571	C257	0.153700	0.722700	0.540490
C2581	C258	0.856200	0.266400	0.078200
C2591	C259	0.492500	0.100800	0.605290
C2601	C260	0.131400	0.505200	0.359270
C2611	C261	0.901940	0.357440	0.023400
O2621	O262	0.593410	0.554680	0.457630
O2631	O263	0.797990	0.341090	0.789910
O2641	O264	0.886610	0.516470	0.991360
Zn2651	Zn265	0.522980	0.045950	0.534440
N2661	N266	0.543950	0.087900	0.912870
Zn2671	Zn267	0.954050	0.477020	0.534440
N2681	N268	0.912100	0.456050	0.912870
Zn2691	Zn269	0.522980	0.477020	0.534440
N2701	N270	0.543950	0.456050	0.912870
Zn2711	Zn271	0.477020	0.954050	0.034440
N2721	N272	0.456050	0.912100	0.412870
Zn2731	Zn273	0.045950	0.522980	0.034440
N2741	N274	0.087900	0.543950	0.412870
Zn2751	Zn275	0.477020	0.522980	0.034440
N2761	N276	0.456050	0.543950	0.412870
Zn2771	Zn277	0.045950	0.522980	0.465560
N2781	N278	0.087900	0.543950	0.087130
Zn2791	Zn279	0.477020	0.954050	0.465560
N2801	N280	0.456050	0.912100	0.087130
Zn2811	Zn281	0.477020	0.522980	0.465560
N2821	N282	0.456050	0.543950	0.087130
Zn2831	Zn283	0.954050	0.477020	0.965560
N2841	N284	0.912100	0.456050	0.587130
Zn2851	Zn285	0.522980	0.045950	0.965560
N2861	N286	0.543950	0.087900	0.587130
Zn2871	Zn287	0.522980	0.477020	0.965560
N2881	N288	0.543950	0.456050	0.587130
Cr2891	Cr289	0.276080	0.552160	0.250000
Cr2901	Cr290	0.447840	0.723920	0.250000
Cr2911	Cr291	0.276080	0.723920	0.250000
Cr2921	Cr292	0.723920	0.447840	0.750000
Cr2931	Cr293	0.552160	0.276080	0.750000
Cr2941	Cr294	0.723920	0.276080	0.750000
H2951	H295	0.761450	0.238550	0.499300
C2961	C296	0.194300	0.805700	0.904700
C2971	C297	0.774750	0.225250	0.023710
H2981	H298	0.761450	0.522900	0.499300
C2991	C299	0.194300	0.388600	0.904700
C3001	C300	0.774750	0.549500	0.023710
H3011	H301	0.477100	0.238550	0.499300
C3021	C302	0.611400	0.805700	0.904700
C3031	C303	0.450500	0.225250	0.023710
H3041	H304	0.238550	0.761450	0.999300
C3051	C305	0.805700	0.194300	0.404700
C3061	C306	0.225250	0.774750	0.523710
H3071	H307	0.238550	0.477100	0.999300
C3081	C308	0.805700	0.611400	0.404700
C3091	C309	0.225250	0.450500	0.523710
H3101	H310	0.522900	0.761450	0.999300
C3111	C311	0.388600	0.194300	0.404700
C3121	C312	0.549500	0.774750	0.523710
H3131	H313	0.238550	0.761450	0.500700
C3141	C314	0.805700	0.194300	0.095300
C3151	C315	0.225250	0.774750	0.976290
H3161	H316	0.522900	0.761450	0.500700
C3171	C317	0.388600	0.194300	0.095300
C3181	C318	0.549500	0.774750	0.976290
H3191	H319	0.238550	0.477100	0.500700
C3201	C320	0.805700	0.611400	0.095300
C3211	C321	0.225250	0.450500	0.976290
H3221	H322	0.761450	0.238550	0.000700
C3231	C323	0.194300	0.805700	0.595300
C3241	C324	0.774750	0.225250	0.476290
H3251	H325	0.477100	0.238550	0.000700
C3261	C326	0.611400	0.805700	0.595300
C3271	C327	0.450500	0.225250	0.476290
H3281	H328	0.761450	0.522900	0.000700
C3291	C329	0.194300	0.388600	0.595300
C3301	C330	0.774750	0.549500	0.476290
C3311	C331	0.812700	0.406350	0.803620
C3321	C332	0.593650	0.406350	0.803620
C3331	C333	0.593650	0.187300	0.803620
C3341	C334	0.187300	0.593650	0.303620
C3351	C335	0.406350	0.593650	0.303620
C3361	C336	0.406350	0.812700	0.303620
C3371	C337	0.406350	0.812700	0.196380
C3381	C338	0.406350	0.593650	0.196380
C3391	C339	0.187300	0.593650	0.196380
C3401	C340	0.593650	0.187300	0.696380
C3411	C341	0.593650	0.406350	0.696380
C3421	C342	0.812700	0.406350	0.696380
C3431	C343	0.645400	0.822700	0.634000
C3441	C344	0.146800	0.573400	0.158640
C3451	C345	0.177300	0.822700	0.634000
C3461	C346	0.426600	0.573400	0.158640
C3471	C347	0.177300	0.354600	0.634000
C3481	C348	0.426600	0.853200	0.158640
C3491	C349	0.354600	0.177300	0.134000
C3501	C350	0.853200	0.426600	0.658640
C3511	C351	0.822700	0.177300	0.134000
C3521	C352	0.573400	0.426600	0.658640
C3531	C353	0.822700	0.645400	0.134000
C3541	C354	0.573400	0.146800	0.658640
C3551	C355	0.822700	0.645400	0.366000
C3561	C356	0.573400	0.146800	0.841360
C3571	C357	0.822700	0.177300	0.366000
C3581	C358	0.573400	0.426600	0.841360
C3591	C359	0.354600	0.177300	0.366000
C3601	C360	0.853200	0.426600	0.841360
C3611	C361	0.177300	0.354600	0.866000
C3621	C362	0.426600	0.853200	0.341360
C3631	C363	0.177300	0.822700	0.866000
C3641	C364	0.426600	0.573400	0.341360
C3651	C365	0.645400	0.822700	0.866000
C3661	C366	0.146800	0.573400	0.341360
O3671	O367	0.666670	0.333330	0.750000
O3681	O368	0.333330	0.666670	0.250000
H3691	H369	0.700100	0.885390	0.635070
H3701	H370	0.663660	0.776810	0.641940
H3711	H371	0.598190	0.818770	0.654300
H3721	H372	0.146440	0.764520	0.650540
H3731	H373	0.136600	0.849770	0.632600
H3741	H374	0.235980	0.866680	0.648160
H3751	H375	0.163660	0.289860	0.633170
H3761	H376	0.123530	0.356740	0.645790
H3771	H377	0.231830	0.391450	0.652340
H3781	H378	0.336340	0.113150	0.141940
H3791	H379	0.299900	0.185290	0.135070
H3801	H380	0.401810	0.220580	0.154300
H3811	H381	0.876470	0.233220	0.145790
H3821	H382	0.836340	0.126190	0.133170
H3831	H383	0.768170	0.159620	0.152340
H3841	H384	0.863400	0.713160	0.132600
H3851	H385	0.853560	0.618080	0.150540
H3861	H386	0.764020	0.630710	0.148160
H3871	H387	0.777510	0.664710	0.358250
H3881	H388	0.817650	0.597820	0.345630
H3891	H389	0.885820	0.699420	0.364800
H3901	H390	0.790590	0.195780	0.345060
H3911	H391	0.800430	0.110540	0.363000
H3921	H392	0.889960	0.212700	0.360620
H3931	H393	0.355690	0.122830	0.354400
H3941	H394	0.392130	0.231410	0.347530
H3951	H395	0.290220	0.164780	0.366760
H3961	H396	0.199570	0.310110	0.863000
H3971	H397	0.209410	0.405200	0.845060
H3981	H398	0.110040	0.322740	0.860620
H3991	H399	0.182350	0.780180	0.845630
H4001	H400	0.222490	0.887200	0.858250
H4011	H401	0.114180	0.813600	0.864800
H4021	H402	0.607870	0.839280	0.847530
H4031	H403	0.644310	0.767140	0.854400
H4041	H404	0.709780	0.874560	0.866760
