data_ja500618z_si_005_freeONLY_PM
_symmetry_space_group_name_H-M	'P1'
_cell_length_a	8.538900
_cell_length_b	9.051700
_cell_length_c	11.998900
_cell_angle_alpha	90.000000
_cell_angle_beta	90.000000
_cell_angle_gamma	90.000000
_symmetry_Int_Tables_number 1

loop_
_symmetry_equiv_pos_as_xyz
'x,y,z'

loop_
_atom_site_label
_atom_site_type_symbol
_atom_site_fract_x
_atom_site_fract_y
_atom_site_fract_z
Mn11	Mn1	0.249730	0.250000	0.750000
Mn21	Mn2	0.250270	0.250000	0.250000
Mn31	Mn3	0.749730	0.750000	0.750000
Mn41	Mn4	0.750270	0.750000	0.250000
H11	H1	0.418600	0.935600	0.731800
H21	H2	0.581400	0.435600	0.231800
H31	H3	0.250000	0.293100	0.500000
H41	H4	0.918600	0.435600	0.768200
H51	H5	0.418600	0.564400	0.768200
H61	H6	0.750000	0.706900	0.500000
H71	H7	0.750000	0.793100	0.000000
H81	H8	0.250000	0.206900	0.000000
H91	H9	0.081400	0.935600	0.268200
H101	H10	0.581400	0.064400	0.268200
H111	H11	0.918600	0.064400	0.731800
H121	H12	0.081400	0.564400	0.231800
C11	C1	0.981850	0.484620	0.717040
C21	C2	0.481850	0.515380	0.717040
C31	C3	0.518150	0.015380	0.217040
C41	C4	0.518150	0.484620	0.282960
C51	C5	0.750000	0.690300	0.000000
C61	C6	0.018150	0.515380	0.282960
C71	C7	0.018150	0.984620	0.217040
C81	C8	0.481850	0.984620	0.782960
C91	C9	0.250000	0.190300	0.500000
C101	C10	0.981850	0.015380	0.782960
C111	C11	0.750000	0.809700	0.500000
C121	C12	0.250000	0.309700	0.000000
O11	O1	0.596740	0.916220	0.819490
O21	O2	0.403260	0.083780	0.180510
O31	O3	0.744940	0.870330	0.592340
O41	O4	0.556270	0.888120	0.191640
O51	O5	0.096740	0.416220	0.680510
O61	O6	0.755060	0.870330	0.407660
O71	O7	0.443730	0.388120	0.691640
O81	O8	0.255060	0.370330	0.092340
O91	O9	0.744940	0.629670	0.907660
O101	O10	0.244940	0.129670	0.592340
O111	O11	0.096740	0.083780	0.819490
O121	O12	0.056270	0.111880	0.191640
O131	O13	0.255060	0.129670	0.407660
O141	O14	0.903260	0.916220	0.180510
O151	O15	0.403260	0.416220	0.319490
O161	O16	0.943730	0.888120	0.808360
O171	O17	0.443730	0.111880	0.808360
O181	O18	0.755060	0.629670	0.092340
O191	O19	0.244940	0.370330	0.907660
O201	O20	0.056270	0.388120	0.308360
O211	O21	0.556270	0.611880	0.308360
O221	O22	0.943730	0.611880	0.691640
O231	O23	0.596740	0.583780	0.680510
O241	O24	0.903260	0.583780	0.319490
