data_ja507269n_si_003_freeONLY_PM
_symmetry_space_group_name_H-M	'P1'
_cell_length_a	31.134200
_cell_length_b	31.134200
_cell_length_c	16.908900
_cell_angle_alpha	90.000000
_cell_angle_beta	90.000000
_cell_angle_gamma	120.000000
_symmetry_Int_Tables_number 1

loop_
_symmetry_equiv_pos_as_xyz
'x,y,z'

loop_
_atom_site_label
_atom_site_type_symbol
_atom_site_fract_x
_atom_site_fract_y
_atom_site_fract_z
O11	O1	0.253100	0.662850	0.420240
C11	C1	0.183300	0.552250	0.295740
C21	C2	0.147500	0.534350	0.235040
H11	H1	0.196400	0.527850	0.318440
H21	H2	0.133700	0.496850	0.212040
O21	O2	0.337150	0.590250	0.420240
C31	C3	0.447750	0.631050	0.295740
C41	C4	0.465650	0.613150	0.235040
H31	H3	0.472150	0.668550	0.318440
H41	H4	0.503150	0.636850	0.212040
O31	O3	0.409750	0.746900	0.420240
C51	C5	0.368950	0.816700	0.295740
C61	C6	0.386850	0.852500	0.235040
H51	H5	0.331450	0.803600	0.318440
H61	H6	0.363150	0.866300	0.212040
O41	O4	0.746900	0.337150	0.420240
C71	C7	0.816700	0.447750	0.295740
C81	C8	0.852500	0.465650	0.235040
H71	H7	0.803600	0.472150	0.318440
H81	H8	0.866300	0.503150	0.212040
O51	O5	0.662850	0.409750	0.420240
C91	C9	0.552250	0.368950	0.295740
C101	C10	0.534350	0.386850	0.235040
H91	H9	0.527850	0.331450	0.318440
H101	H10	0.496850	0.363150	0.212040
O61	O6	0.590250	0.253100	0.420240
C111	C11	0.631050	0.183300	0.295740
C121	C12	0.613150	0.147500	0.235040
H111	H11	0.668550	0.196400	0.318440
H121	H12	0.636850	0.133700	0.212040
O71	O7	0.662850	0.253100	0.579760
C131	C13	0.552250	0.183300	0.704260
C141	C14	0.534350	0.147500	0.764960
H131	H13	0.527850	0.196400	0.681560
H141	H14	0.496850	0.133700	0.787960
O81	O8	0.590250	0.337150	0.579760
C151	C15	0.631050	0.447750	0.704260
C161	C16	0.613150	0.465650	0.764960
H151	H15	0.668550	0.472150	0.681560
H161	H16	0.636850	0.503150	0.787960
O91	O9	0.746900	0.409750	0.579760
C171	C17	0.816700	0.368950	0.704260
C181	C18	0.852500	0.386850	0.764960
H171	H17	0.803600	0.331450	0.681560
H181	H18	0.866300	0.363150	0.787960
O101	O10	0.337150	0.746900	0.579760
C191	C19	0.447750	0.816700	0.704260
C201	C20	0.465650	0.852500	0.764960
H191	H19	0.472150	0.803600	0.681560
H201	H20	0.503150	0.866300	0.787960
O111	O11	0.409750	0.662850	0.579760
C211	C21	0.368950	0.552250	0.704260
C221	C22	0.386850	0.534350	0.764960
H211	H21	0.331450	0.527850	0.681560
H221	H22	0.363150	0.496850	0.787960
O121	O12	0.253100	0.590250	0.579760
C231	C23	0.183300	0.631050	0.704260
C241	C24	0.147500	0.613150	0.764960
H231	H23	0.196400	0.668550	0.681560
H241	H24	0.133700	0.636850	0.787960
O131	O13	0.746900	0.337150	0.579760
C251	C25	0.816700	0.447750	0.704260
C261	C26	0.852500	0.465650	0.764960
H251	H25	0.803600	0.472150	0.681560
H261	H26	0.866300	0.503150	0.787960
O141	O14	0.662850	0.409750	0.579760
C271	C27	0.552250	0.368950	0.704260
C281	C28	0.534350	0.386850	0.764960
H271	H27	0.527850	0.331450	0.681560
H281	H28	0.496850	0.363150	0.787960
O151	O15	0.590250	0.253100	0.579760
C291	C29	0.631050	0.183300	0.704260
C301	C30	0.613150	0.147500	0.764960
H291	H29	0.668550	0.196400	0.681560
H301	H30	0.636850	0.133700	0.787960
O161	O16	0.253100	0.662850	0.579760
C311	C31	0.183300	0.552250	0.704260
C321	C32	0.147500	0.534350	0.764960
H311	H31	0.196400	0.527850	0.681560
H321	H32	0.133700	0.496850	0.787960
O171	O17	0.337150	0.590250	0.579760
C331	C33	0.447750	0.631050	0.704260
C341	C34	0.465650	0.613150	0.764960
H331	H33	0.472150	0.668550	0.681560
H341	H34	0.503150	0.636850	0.787960
O181	O18	0.409750	0.746900	0.579760
C351	C35	0.368950	0.816700	0.704260
C361	C36	0.386850	0.852500	0.764960
H351	H35	0.331450	0.803600	0.681560
H361	H36	0.363150	0.866300	0.787960
O191	O19	0.337150	0.746900	0.420240
C371	C37	0.447750	0.816700	0.295740
C381	C38	0.465650	0.852500	0.235040
H371	H37	0.472150	0.803600	0.318440
H381	H38	0.503150	0.866300	0.212040
O201	O20	0.409750	0.662850	0.420240
C391	C39	0.368950	0.552250	0.295740
C401	C40	0.386850	0.534350	0.235040
H391	H39	0.331450	0.527850	0.318440
H401	H40	0.363150	0.496850	0.212040
O211	O21	0.253100	0.590250	0.420240
C411	C41	0.183300	0.631050	0.295740
C421	C42	0.147500	0.613150	0.235040
H411	H41	0.196400	0.668550	0.318440
H421	H42	0.133700	0.636850	0.212040
O221	O22	0.662850	0.253100	0.420240
C431	C43	0.552250	0.183300	0.295740
C441	C44	0.534350	0.147500	0.235040
H431	H43	0.527850	0.196400	0.318440
H441	H44	0.496850	0.133700	0.212040
O231	O23	0.590250	0.337150	0.420240
C451	C45	0.631050	0.447750	0.295740
C461	C46	0.613150	0.465650	0.235040
H451	H45	0.668550	0.472150	0.318440
H461	H46	0.636850	0.503150	0.212040
O241	O24	0.746900	0.409750	0.420240
C471	C47	0.816700	0.368950	0.295740
C481	C48	0.852500	0.386850	0.235040
H471	H47	0.803600	0.331450	0.318440
H481	H48	0.866300	0.363150	0.212040
Fe11	Fe1	0.297790	0.702210	0.500000
O251	O25	0.261660	0.738340	0.500000
Fe21	Fe2	0.297790	0.595590	0.500000
O261	O26	0.261660	0.523320	0.500000
Fe31	Fe3	0.404410	0.702210	0.500000
O271	O27	0.476680	0.738340	0.500000
Fe41	Fe4	0.702210	0.297790	0.500000
O281	O28	0.738340	0.261660	0.500000
Fe51	Fe5	0.702210	0.404410	0.500000
O291	O29	0.738340	0.476680	0.500000
Fe61	Fe6	0.595590	0.297790	0.500000
O301	O30	0.523320	0.261660	0.500000
O311	O31	0.333330	0.666670	0.500000
O321	O32	0.666670	0.333330	0.500000
Co11	Co1	0.000000	0.500000	0.000000
Co21	Co2	0.500000	0.500000	0.000000
Co31	Co3	0.500000	0.000000	0.000000
C491	C49	0.238300	0.619150	0.393140
C501	C50	0.201500	0.600750	0.327240
C511	C51	0.129300	0.564650	0.204740
C521	C52	0.089900	0.544950	0.142240
C531	C53	0.103900	0.551950	0.063440
C541	C54	0.153900	0.576950	0.040240
C551	C55	0.040100	0.520050	0.164240
C561	C56	0.025500	0.512750	0.243040
H491	H49	0.187100	0.593550	0.077440
H501	H50	0.048900	0.524450	0.295540
C571	C57	0.380850	0.619150	0.393140
C581	C58	0.399250	0.600750	0.327240
C591	C59	0.435350	0.564650	0.204740
C601	C60	0.455050	0.544950	0.142240
C611	C61	0.448050	0.551950	0.063440
C621	C62	0.423050	0.576950	0.040240
C631	C63	0.479950	0.520050	0.164240
C641	C64	0.487250	0.512750	0.243040
H511	H51	0.406450	0.593550	0.077440
H521	H52	0.475550	0.524450	0.295540
C651	C65	0.380850	0.761700	0.393140
C661	C66	0.399250	0.798500	0.327240
C671	C67	0.435350	0.870700	0.204740
C681	C68	0.455050	0.910100	0.142240
C691	C69	0.448050	0.896100	0.063440
C701	C70	0.423050	0.846100	0.040240
C711	C71	0.479950	0.959900	0.164240
C721	C72	0.487250	0.974500	0.243040
H531	H53	0.406450	0.812900	0.077440
H541	H54	0.475550	0.951100	0.295540
C731	C73	0.761700	0.380850	0.393140
C741	C74	0.798500	0.399250	0.327240
C751	C75	0.870700	0.435350	0.204740
C761	C76	0.910100	0.455050	0.142240
C771	C77	0.896100	0.448050	0.063440
C781	C78	0.846100	0.423050	0.040240
C791	C79	0.959900	0.479950	0.164240
C801	C80	0.974500	0.487250	0.243040
H551	H55	0.812900	0.406450	0.077440
H561	H56	0.951100	0.475550	0.295540
C811	C81	0.619150	0.380850	0.393140
C821	C82	0.600750	0.399250	0.327240
C831	C83	0.564650	0.435350	0.204740
C841	C84	0.544950	0.455050	0.142240
C851	C85	0.551950	0.448050	0.063440
C861	C86	0.576950	0.423050	0.040240
C871	C87	0.520050	0.479950	0.164240
C881	C88	0.512750	0.487250	0.243040
H571	H57	0.593550	0.406450	0.077440
H581	H58	0.524450	0.475550	0.295540
C891	C89	0.619150	0.238300	0.393140
C901	C90	0.600750	0.201500	0.327240
C911	C91	0.564650	0.129300	0.204740
C921	C92	0.544950	0.089900	0.142240
C931	C93	0.551950	0.103900	0.063440
C941	C94	0.576950	0.153900	0.040240
C951	C95	0.520050	0.040100	0.164240
C961	C96	0.512750	0.025500	0.243040
H591	H59	0.593550	0.187100	0.077440
H601	H60	0.524450	0.048900	0.295540
C971	C97	0.619150	0.238300	0.606860
C981	C98	0.600750	0.201500	0.672760
C991	C99	0.564650	0.129300	0.795260
C1001	C100	0.544950	0.089900	0.857760
C1011	C101	0.551950	0.103900	0.936560
C1021	C102	0.576950	0.153900	0.959760
C1031	C103	0.520050	0.040100	0.835760
C1041	C104	0.512750	0.025500	0.756960
H611	H61	0.593550	0.187100	0.922560
H621	H62	0.524450	0.048900	0.704460
C1051	C105	0.619150	0.380850	0.606860
C1061	C106	0.600750	0.399250	0.672760
C1071	C107	0.564650	0.435350	0.795260
C1081	C108	0.544950	0.455050	0.857760
C1091	C109	0.551950	0.448050	0.936560
C1101	C110	0.576950	0.423050	0.959760
C1111	C111	0.520050	0.479950	0.835760
C1121	C112	0.512750	0.487250	0.756960
H631	H63	0.593550	0.406450	0.922560
H641	H64	0.524450	0.475550	0.704460
C1131	C113	0.761700	0.380850	0.606860
C1141	C114	0.798500	0.399250	0.672760
C1151	C115	0.870700	0.435350	0.795260
C1161	C116	0.910100	0.455050	0.857760
C1171	C117	0.896100	0.448050	0.936560
C1181	C118	0.846100	0.423050	0.959760
C1191	C119	0.959900	0.479950	0.835760
C1201	C120	0.974500	0.487250	0.756960
H651	H65	0.812900	0.406450	0.922560
H661	H66	0.951100	0.475550	0.704460
C1211	C121	0.380850	0.761700	0.606860
C1221	C122	0.399250	0.798500	0.672760
C1231	C123	0.435350	0.870700	0.795260
C1241	C124	0.455050	0.910100	0.857760
C1251	C125	0.448050	0.896100	0.936560
C1261	C126	0.423050	0.846100	0.959760
C1271	C127	0.479950	0.959900	0.835760
C1281	C128	0.487250	0.974500	0.756960
H671	H67	0.406450	0.812900	0.922560
H681	H68	0.475550	0.951100	0.704460
C1291	C129	0.380850	0.619150	0.606860
C1301	C130	0.399250	0.600750	0.672760
C1311	C131	0.435350	0.564650	0.795260
C1321	C132	0.455050	0.544950	0.857760
C1331	C133	0.448050	0.551950	0.936560
C1341	C134	0.423050	0.576950	0.959760
C1351	C135	0.479950	0.520050	0.835760
C1361	C136	0.487250	0.512750	0.756960
H691	H69	0.406450	0.593550	0.922560
H701	H70	0.475550	0.524450	0.704460
C1371	C137	0.238300	0.619150	0.606860
C1381	C138	0.201500	0.600750	0.672760
C1391	C139	0.129300	0.564650	0.795260
C1401	C140	0.089900	0.544950	0.857760
C1411	C141	0.103900	0.551950	0.936560
C1421	C142	0.153900	0.576950	0.959760
C1431	C143	0.040100	0.520050	0.835760
C1441	C144	0.025500	0.512750	0.756960
H711	H71	0.187100	0.593550	0.922560
H721	H72	0.048900	0.524450	0.704460
N11	N1	0.072100	0.536050	0.000000
N21	N2	0.463950	0.536050	0.000000
N31	N3	0.463950	0.927900	0.000000
N41	N4	0.927900	0.463950	0.000000
N51	N5	0.536050	0.463950	0.000000
N61	N6	0.536050	0.072100	0.000000
N71	N7	0.000000	0.500000	0.113940
N81	N8	0.500000	0.500000	0.113940
N91	N9	0.500000	0.000000	0.113940
N101	N10	0.500000	0.000000	0.886060
N111	N11	0.500000	0.500000	0.886060
N121	N12	0.000000	0.500000	0.886060
