data_ja500618z_si_007_freeONLY_PM
_symmetry_space_group_name_H-M	'P1'
_cell_length_a	8.553800
_cell_length_b	9.045700
_cell_length_c	12.009600
_cell_angle_alpha	90.000000
_cell_angle_beta	90.000000
_cell_angle_gamma	90.000000
_symmetry_Int_Tables_number 1

loop_
_symmetry_equiv_pos_as_xyz
'x,y,z'

loop_
_atom_site_label
_atom_site_type_symbol
_atom_site_fract_x
_atom_site_fract_y
_atom_site_fract_z
Mn11	Mn1	0.749060	0.750000	0.250000
Mn21	Mn2	0.750940	0.750000	0.750000
Mn31	Mn3	0.250940	0.250000	0.750000
Mn41	Mn4	0.249060	0.250000	0.250000
H11	H1	0.420000	0.935300	0.731400
H21	H2	0.750000	0.793800	0.000000
H31	H3	0.080000	0.935300	0.268600
H41	H4	0.580000	0.064700	0.268600
H51	H5	0.080000	0.564700	0.231400
H61	H6	0.250000	0.206200	0.000000
H71	H7	0.580000	0.435300	0.231400
H81	H8	0.750000	0.706200	0.500000
H91	H9	0.250000	0.293800	0.500000
H101	H10	0.420000	0.564700	0.768600
H111	H11	0.920000	0.064700	0.731400
H121	H12	0.920000	0.435300	0.768600
C11	C1	0.516980	0.484400	0.282540
C21	C2	0.016980	0.515600	0.282540
C31	C3	0.250000	0.191000	0.500000
C41	C4	0.983020	0.484400	0.717460
C51	C5	0.516980	0.015600	0.217460
C61	C6	0.483020	0.515600	0.717460
C71	C7	0.483020	0.984400	0.782540
C81	C8	0.983020	0.015600	0.782540
C91	C9	0.016980	0.984400	0.217460
C101	C10	0.750000	0.691000	0.000000
C111	C11	0.250000	0.309000	0.000000
C121	C12	0.750000	0.809000	0.500000
O11	O1	0.746120	0.869640	0.591960
O21	O2	0.753880	0.630360	0.091960
O31	O3	0.253880	0.369640	0.091960
O41	O4	0.444500	0.388750	0.691940
O51	O5	0.055500	0.388750	0.308060
O61	O6	0.402230	0.083620	0.181300
O71	O7	0.055500	0.111250	0.191940
O81	O8	0.097770	0.416380	0.681300
O91	O9	0.253880	0.130360	0.408040
O101	O10	0.555500	0.888750	0.191940
O111	O11	0.746120	0.630360	0.908040
O121	O12	0.753880	0.869640	0.408040
O131	O13	0.597770	0.583620	0.681300
O141	O14	0.944500	0.611250	0.691940
O151	O15	0.097770	0.083620	0.818700
O161	O16	0.902230	0.916380	0.181300
O171	O17	0.944500	0.888750	0.808060
O181	O18	0.246120	0.369640	0.908040
O191	O19	0.597770	0.916380	0.818700
O201	O20	0.402230	0.416380	0.318700
O211	O21	0.246120	0.130360	0.591960
O221	O22	0.902230	0.583620	0.318700
O231	O23	0.555500	0.611250	0.308060
O241	O24	0.444500	0.111250	0.808060
