data_ja500618z_si_002_freeONLY_PM
_symmetry_space_group_name_H-M	'P1'
_cell_length_a	8.516400
_cell_length_b	9.056200
_cell_length_c	11.977200
_cell_angle_alpha	90.000000
_cell_angle_beta	90.000000
_cell_angle_gamma	90.000000
_symmetry_Int_Tables_number 1

loop_
_symmetry_equiv_pos_as_xyz
'x,y,z'

loop_
_atom_site_label
_atom_site_type_symbol
_atom_site_fract_x
_atom_site_fract_y
_atom_site_fract_z
Mn11	Mn1	0.251860	0.250000	0.250000
Mn21	Mn2	0.751860	0.750000	0.250000
Mn31	Mn3	0.748140	0.750000	0.750000
Mn41	Mn4	0.248140	0.250000	0.750000
H11	H1	0.750000	0.707600	0.500000
H21	H2	0.750000	0.792400	0.000000
H31	H3	0.583500	0.435800	0.232300
H41	H4	0.250000	0.292400	0.500000
H51	H5	0.916500	0.064200	0.732300
H61	H6	0.083500	0.935800	0.267700
H71	H7	0.250000	0.207600	0.000000
H81	H8	0.083500	0.564200	0.232300
H91	H9	0.416500	0.935800	0.732300
H101	H10	0.583500	0.064200	0.267700
H111	H11	0.416500	0.564200	0.767700
H121	H12	0.916500	0.435800	0.767700
C11	C1	0.480140	0.515340	0.716570
C21	C2	0.519860	0.015340	0.216570
C31	C3	0.019860	0.984660	0.216570
C41	C4	0.750000	0.689700	0.000000
C51	C5	0.519860	0.484660	0.283430
C61	C6	0.250000	0.189700	0.500000
C71	C7	0.480140	0.984660	0.783430
C81	C8	0.250000	0.310300	0.000000
C91	C9	0.980140	0.484660	0.716570
C101	C10	0.750000	0.810300	0.500000
C111	C11	0.980140	0.015340	0.783430
C121	C12	0.019860	0.515340	0.283430
O11	O1	0.256450	0.128470	0.407500
O21	O2	0.904520	0.916100	0.179620
O31	O3	0.095480	0.083900	0.820380
O41	O4	0.404520	0.416100	0.320380
O51	O5	0.557300	0.612290	0.308830
O61	O6	0.442700	0.387710	0.691170
O71	O7	0.256450	0.371530	0.092500
O81	O8	0.942700	0.612290	0.691170
O91	O9	0.095480	0.416100	0.679620
O101	O10	0.743550	0.628470	0.907500
O111	O11	0.057300	0.112290	0.191170
O121	O12	0.595480	0.583900	0.679620
O131	O13	0.243550	0.128470	0.592500
O141	O14	0.243550	0.371530	0.907500
O151	O15	0.057300	0.387710	0.308830
O161	O16	0.942700	0.887710	0.808830
O171	O17	0.743550	0.871530	0.592500
O181	O18	0.904520	0.583900	0.320380
O191	O19	0.756450	0.628470	0.092500
O201	O20	0.404520	0.083900	0.179620
O211	O21	0.557300	0.887710	0.191170
O221	O22	0.595480	0.916100	0.820380
O231	O23	0.442700	0.112290	0.808830
O241	O24	0.756450	0.871530	0.407500
