data_ja500618z_si_006_freeONLY_PM
_symmetry_space_group_name_H-M	'P1'
_cell_length_a	8.547100
_cell_length_b	9.049600
_cell_length_c	12.004600
_cell_angle_alpha	90.000000
_cell_angle_beta	90.000000
_cell_angle_gamma	90.000000
_symmetry_Int_Tables_number 1

loop_
_symmetry_equiv_pos_as_xyz
'x,y,z'

loop_
_atom_site_label
_atom_site_type_symbol
_atom_site_fract_x
_atom_site_fract_y
_atom_site_fract_z
Mn11	Mn1	0.749660	0.750000	0.250000
Mn21	Mn2	0.249660	0.250000	0.250000
Mn31	Mn3	0.750340	0.750000	0.750000
Mn41	Mn4	0.250340	0.250000	0.750000
H11	H1	0.919400	0.064700	0.731600
H21	H2	0.080600	0.935300	0.268400
H31	H3	0.250000	0.206400	0.000000
H41	H4	0.580600	0.064700	0.268400
H51	H5	0.419400	0.564700	0.768400
H61	H6	0.580600	0.435300	0.231600
H71	H7	0.750000	0.706400	0.500000
H81	H8	0.919400	0.435300	0.768400
H91	H9	0.080600	0.564700	0.231600
H101	H10	0.250000	0.293600	0.500000
H111	H11	0.750000	0.793600	0.000000
H121	H12	0.419400	0.935300	0.731600
C11	C1	0.250000	0.190900	0.500000
C21	C2	0.517600	0.484320	0.282780
C31	C3	0.482400	0.515680	0.717220
C41	C4	0.750000	0.690900	0.000000
C51	C5	0.017600	0.515680	0.282780
C61	C6	0.750000	0.809100	0.500000
C71	C7	0.517600	0.015680	0.217220
C81	C8	0.017600	0.984320	0.217220
C91	C9	0.982400	0.484320	0.717220
C101	C10	0.482400	0.984320	0.782780
C111	C11	0.982400	0.015680	0.782780
C121	C12	0.250000	0.309100	0.000000
O11	O1	0.245570	0.130000	0.592130
O21	O2	0.097100	0.083730	0.819170
O31	O3	0.444160	0.111700	0.808330
O41	O4	0.902900	0.916270	0.180830
O51	O5	0.944160	0.888300	0.808330
O61	O6	0.097100	0.416270	0.680830
O71	O7	0.055840	0.388300	0.308330
O81	O8	0.745570	0.630000	0.907870
O91	O9	0.245570	0.370000	0.907870
O101	O10	0.597100	0.916270	0.819170
O111	O11	0.055840	0.111700	0.191670
O121	O12	0.754430	0.870000	0.407870
O131	O13	0.902900	0.583730	0.319170
O141	O14	0.555840	0.888300	0.191670
O151	O15	0.745570	0.870000	0.592130
O161	O16	0.597100	0.583730	0.680830
O171	O17	0.254430	0.130000	0.407870
O181	O18	0.402900	0.083730	0.180830
O191	O19	0.944160	0.611700	0.691670
O201	O20	0.254430	0.370000	0.092130
O211	O21	0.402900	0.416270	0.319170
O221	O22	0.444160	0.388300	0.691670
O231	O23	0.754430	0.630000	0.092130
O241	O24	0.555840	0.611700	0.308330
