data_ja500618z_si_003_freeONLY_PM
_symmetry_space_group_name_H-M	'P1'
_cell_length_a	8.522000
_cell_length_b	9.054000
_cell_length_c	11.987700
_cell_angle_alpha	90.000000
_cell_angle_beta	90.000000
_cell_angle_gamma	90.000000
_symmetry_Int_Tables_number 1

loop_
_symmetry_equiv_pos_as_xyz
'x,y,z'

loop_
_atom_site_label
_atom_site_type_symbol
_atom_site_fract_x
_atom_site_fract_y
_atom_site_fract_z
Mn11	Mn1	0.248660	0.250000	0.750000
Mn21	Mn2	0.751340	0.750000	0.250000
Mn31	Mn3	0.251340	0.250000	0.250000
Mn41	Mn4	0.748660	0.750000	0.750000
H11	H1	0.582800	0.064300	0.268000
H21	H2	0.417200	0.564300	0.768000
H31	H3	0.417200	0.935700	0.732000
H41	H4	0.917200	0.064300	0.732000
H51	H5	0.582800	0.435700	0.232000
H61	H6	0.250000	0.207400	0.000000
H71	H7	0.250000	0.292600	0.500000
H81	H8	0.082800	0.935700	0.268000
H91	H9	0.750000	0.792600	0.000000
H101	H10	0.750000	0.707400	0.500000
H111	H11	0.917200	0.435700	0.768000
H121	H12	0.082800	0.564300	0.232000
C11	C1	0.750000	0.689900	0.000000
C21	C2	0.250000	0.310100	0.000000
C31	C3	0.019330	0.984570	0.216790
C41	C4	0.480670	0.515430	0.716790
C51	C5	0.519330	0.015430	0.216790
C61	C6	0.480670	0.984570	0.783210
C71	C7	0.980670	0.484570	0.716790
C81	C8	0.519330	0.484570	0.283210
C91	C9	0.019330	0.515430	0.283210
C101	C10	0.750000	0.810100	0.500000
C111	C11	0.250000	0.189900	0.500000
C121	C12	0.980670	0.015430	0.783210
O11	O1	0.244000	0.371130	0.907610
O21	O2	0.904150	0.583910	0.320090
O31	O3	0.256000	0.128870	0.407610
O41	O4	0.095850	0.083910	0.820090
O51	O5	0.256000	0.371130	0.092390
O61	O6	0.095850	0.416090	0.679910
O71	O7	0.756000	0.628870	0.092390
O81	O8	0.556910	0.612280	0.308680
O91	O9	0.756000	0.871130	0.407610
O101	O10	0.904150	0.916090	0.179910
O111	O11	0.443090	0.112280	0.808680
O121	O12	0.744000	0.871130	0.592390
O131	O13	0.404150	0.416090	0.320090
O141	O14	0.443090	0.387720	0.691320
O151	O15	0.556910	0.887720	0.191320
O161	O16	0.595850	0.583910	0.679910
O171	O17	0.943090	0.887720	0.808680
O181	O18	0.744000	0.628870	0.907610
O191	O19	0.244000	0.128870	0.592390
O201	O20	0.595850	0.916090	0.820090
O211	O21	0.943090	0.612280	0.691320
O221	O22	0.056910	0.387720	0.308680
O231	O23	0.404150	0.083910	0.179910
O241	O24	0.056910	0.112280	0.191320
