data_ja512437u_si_003_freeONLY_PM
_symmetry_space_group_name_H-M	'P1'
_cell_length_a	19.386700
_cell_length_b	19.386700
_cell_length_c	20.826800
_cell_angle_alpha	90.000000
_cell_angle_beta	90.000000
_cell_angle_gamma	120.000000
_symmetry_Int_Tables_number 1

loop_
_symmetry_equiv_pos_as_xyz
'x,y,z'

loop_
_atom_site_label
_atom_site_type_symbol
_atom_site_fract_x
_atom_site_fract_y
_atom_site_fract_z
Co11	Co1	0.287410	0.567520	0.522020
Co21	Co2	0.719890	0.287410	0.688680
Co31	Co3	0.641550	0.273540	0.522770
Co41	Co4	0.432480	0.719890	0.855350
Co51	Co5	0.273540	0.631990	0.356110
Co61	Co6	0.631990	0.358450	0.189440
Co71	Co7	0.358450	0.726460	0.022770
Co81	Co8	0.280110	0.712590	0.188680
Co91	Co9	0.368010	0.641550	0.689440
Co101	Co10	0.567520	0.280110	0.355350
Co111	Co11	0.726460	0.368010	0.856110
Co121	Co12	0.712590	0.432480	0.022020
H11	H1	0.934200	0.151400	0.748200
H21	H2	0.840400	0.193900	0.737400
H31	H3	0.787000	0.351000	0.526330
H41	H4	0.351000	0.403100	0.716030
H51	H5	0.057900	0.316600	0.140530
H61	H6	0.786300	0.668700	0.776530
H71	H7	0.649000	0.596900	0.216030
H81	H8	0.361000	0.592000	0.027330
H91	H9	0.839600	0.174600	0.626870
H101	H10	0.213600	0.483400	0.757700
H111	H11	0.213000	0.649000	0.026330
H121	H12	0.538200	0.882100	0.234130
H131	H13	0.692600	0.731900	0.227730
H141	H14	0.649000	0.436000	0.859670
H151	H15	0.825400	0.665000	0.960200
H161	H16	0.268100	0.960700	0.561070
H171	H17	0.335000	0.160400	0.293530
H181	H18	0.760000	0.385000	0.577130
H191	H19	0.269400	0.469400	0.279730
H201	H20	0.879900	0.080800	0.609870
H211	H21	0.530600	0.800000	0.613070
H221	H22	0.675900	0.934700	0.234930
H231	H23	0.436000	0.787000	0.693000
H241	H24	0.683400	0.741300	0.473870
H251	H25	0.120100	0.919200	0.109870
H261	H26	0.873400	0.654900	0.259800
H271	H27	0.340400	0.886500	0.810300
H281	H28	0.052100	0.649000	0.382700
H291	H29	0.258700	0.942100	0.807200
H301	H30	0.258800	0.324100	0.901600
H311	H31	0.769000	0.361000	0.194000
H321	H32	0.218500	0.873400	0.426470
H331	H33	0.646500	0.840400	0.904070
H341	H34	0.299500	0.033900	0.981670
H351	H35	0.516600	0.730200	0.091030
H361	H36	0.117900	0.656100	0.567470
H371	H37	0.324100	0.065300	0.734930
H381	H38	0.741200	0.675900	0.401600
H391	H39	0.033900	0.734400	0.815000
H401	H40	0.331300	0.117600	0.109870
H411	H41	0.882400	0.213700	0.443200
H421	H42	0.573000	0.348000	0.483330
H431	H43	0.345100	0.218500	0.593130
H441	H44	0.741300	0.057900	0.307200
H451	H45	0.700500	0.966100	0.481670
H461	H46	0.453900	0.340400	0.976970
H471	H47	0.353500	0.159600	0.404070
H481	H48	0.065800	0.848600	0.248200
H491	H49	0.375000	0.760000	0.743800
H501	H50	0.151400	0.217200	0.581530
H511	H51	0.231000	0.639000	0.694000
H521	H52	0.786400	0.516600	0.257700
H531	H53	0.600600	0.663100	0.664630
H541	H54	0.307400	0.268100	0.727730
H551	H55	0.269800	0.786400	0.424370
H561	H56	0.316600	0.258700	0.973870
H571	H57	0.385000	0.625000	0.410470
H581	H58	0.113500	0.453900	0.143630
H591	H59	0.639000	0.408000	0.527330
H601	H60	0.947900	0.351000	0.882700
H611	H61	0.117600	0.786300	0.943200
H621	H62	0.336900	0.937500	0.997970
H631	H63	0.126600	0.345100	0.759800
H641	H64	0.483400	0.269800	0.591030
H651	H65	0.656100	0.538200	0.400800
H661	H66	0.399400	0.336900	0.164630
H671	H67	0.200000	0.730600	0.946400
H681	H68	0.800000	0.269400	0.446400
H691	H69	0.919200	0.799100	0.943200
H701	H70	0.408000	0.769000	0.360670
H711	H71	0.159600	0.806100	0.237400
H721	H72	0.193900	0.353500	0.570730
H731	H73	0.265600	0.299500	0.148330
H741	H74	0.782800	0.934200	0.914870
H751	H75	0.731900	0.039300	0.061070
H761	H76	0.240000	0.615000	0.077130
H771	H77	0.348000	0.775000	0.316670
H781	H78	0.039300	0.307400	0.894400
H791	H79	0.461800	0.117900	0.734130
H801	H80	0.403100	0.052100	0.549370
H811	H81	0.882100	0.343900	0.067470
H821	H82	0.730600	0.530600	0.779730
H831	H83	0.730200	0.213600	0.924370
H841	H84	0.665000	0.839600	0.793530
H851	H85	0.343900	0.461800	0.900800
H861	H86	0.225000	0.573000	0.650000
H871	H87	0.966100	0.265600	0.315000
H881	H88	0.654900	0.781500	0.093130
H891	H89	0.960700	0.692600	0.394400
H901	H90	0.469400	0.200000	0.113070
H911	H91	0.615000	0.375000	0.910470
H921	H92	0.174600	0.335000	0.460200
H931	H93	0.625000	0.240000	0.243800
H941	H94	0.351000	0.564000	0.359670
H951	H95	0.775000	0.427000	0.150000
H961	H96	0.937500	0.600600	0.831300
H971	H97	0.934700	0.258800	0.068270
H981	H98	0.806100	0.646500	0.070730
H991	H99	0.200900	0.120100	0.276530
H1001	H100	0.781500	0.126600	0.926470
H1011	H101	0.886500	0.546100	0.643630
H1021	H102	0.659600	0.113500	0.310300
H1031	H103	0.213700	0.331300	0.276530
H1041	H104	0.663100	0.062500	0.497970
H1051	H105	0.427000	0.652000	0.983330
H1061	H106	0.734400	0.700500	0.648330
H1071	H107	0.596900	0.947900	0.049370
H1081	H108	0.564000	0.213000	0.193000
H1091	H109	0.848600	0.782800	0.081530
H1101	H110	0.546100	0.659600	0.476970
H1111	H111	0.799100	0.879900	0.776530
H1121	H112	0.668700	0.882400	0.609870
H1131	H113	0.160400	0.825400	0.126870
H1141	H114	0.062500	0.399400	0.331300
H1151	H115	0.942100	0.683400	0.640530
H1161	H116	0.217200	0.065800	0.414870
H1171	H117	0.592000	0.231000	0.860670
H1181	H118	0.065300	0.741200	0.568270
H1191	H119	0.652000	0.225000	0.816670
H1201	H120	0.080800	0.200900	0.443200
C11	C1	0.084500	0.994100	0.677830
C21	C2	0.347400	0.246200	0.001870
C31	C3	0.643700	0.893000	0.205930
C41	C4	0.284000	0.285200	0.696030
C51	C5	0.004900	0.775600	0.323100
C61	C6	0.226300	0.438500	0.251530
C71	C7	0.728900	0.008000	0.511570
C81	C8	0.862000	0.300000	0.038670
C91	C9	0.356300	0.107000	0.705930
C101	C10	0.131600	0.309900	0.207130
C111	C11	0.165200	0.924100	0.087770
C121	C12	0.719300	0.185300	0.577870
C131	C13	0.379300	0.253800	0.231930
C141	C14	0.184300	0.321000	0.830700
C151	C15	0.131000	0.233700	0.832600
C161	C16	0.777500	0.548900	0.287100
C171	C17	0.170900	0.368700	0.788100
C181	C18	0.090400	0.084500	0.844500
C191	C19	0.926100	0.910700	0.517170
C201	C20	0.787800	0.226300	0.418200
C211	C21	0.336000	0.119700	0.436270
C221	C22	0.219600	0.207300	0.211930
C231	C23	0.806300	0.857200	0.163330
C241	C24	0.131900	0.320800	0.431000
C251	C25	0.679000	0.863300	0.164030
C261	C26	0.915500	0.005900	0.177830
C271	C27	0.706300	0.065300	0.521570
C281	C28	0.333200	0.769900	0.880100
C291	C29	0.285200	0.001200	0.529370
C301	C30	0.806500	0.643800	0.749030
C311	C31	0.524200	0.719700	0.545870
C321	C32	0.286700	0.486000	0.828800
C331	C33	0.293700	0.934700	0.021570
C341	C34	0.944200	0.309500	0.856100
C351	C35	0.102700	0.869000	0.499270
C361	C36	0.212200	0.773700	0.918200
C371	C37	0.620700	0.746200	0.731930
C381	C38	0.097300	0.222200	0.200930
C391	C39	0.775600	0.770700	0.156430
C401	C40	0.451100	0.228600	0.620430
C411	C41	0.280700	0.814700	0.077870
C421	C42	0.246200	0.898800	0.835200
C431	C43	0.390700	0.116200	0.477370
C441	C44	0.142800	0.949100	0.496670
C451	C45	0.924100	0.758900	0.921100
C461	C46	0.690500	0.634700	0.189430
C471	C47	0.893000	0.249300	0.039270
C481	C48	0.073900	0.089300	0.017170
C491	C49	0.124900	0.902700	0.867600
C501	C50	0.866000	0.820800	0.702530
C511	C51	0.792700	0.012300	0.545270
C521	C52	0.548900	0.771400	0.120430
C531	C53	0.690100	0.821700	0.540470
C541	C54	0.179400	0.702400	0.303700
C551	C55	0.666800	0.230100	0.380100
C561	C56	0.766300	0.897300	0.165930
C571	C57	0.295300	0.866100	0.837700
C581	C58	0.821700	0.131600	0.373800
C591	C59	0.309900	0.178300	0.040470
C601	C60	0.162700	0.806500	0.915700
C611	C61	0.279100	0.271100	0.178230
C621	C62	0.771400	0.222500	0.953770
C631	C63	0.340500	0.573300	0.831700
C641	C64	0.954800	0.134000	0.369200
C651	C65	0.089300	0.015400	0.850500
C661	C66	0.280300	0.804500	0.879200
C671	C67	0.857200	0.050900	0.996670
C681	C68	0.815700	0.679000	0.330700
C691	C69	0.883800	0.274500	0.810700
C701	C70	0.365300	0.055800	0.522770
C711	C71	0.055800	0.690500	0.356100
C721	C72	0.253800	0.874500	0.065270
C731	C73	0.714800	0.998800	0.029370
C741	C74	0.814700	0.534000	0.911200
C751	C75	0.570800	0.704700	0.504370
C761	C76	0.486000	0.199300	0.662130
C771	C77	0.274500	0.390700	0.644030
C781	C78	0.998800	0.284000	0.862700
C791	C79	0.008000	0.279100	0.344900
C801	C80	0.045200	0.866000	0.869200
C811	C81	0.800700	0.286700	0.995470
C821	C82	0.523000	0.820600	0.970370
C831	C83	0.232800	0.659500	0.498370
C841	C84	0.716000	0.714800	0.196030
C851	C85	0.534000	0.719300	0.744530
C861	C86	0.466000	0.280700	0.244530
C871	C87	0.320800	0.188900	0.264330
C881	C88	0.429200	0.295300	0.004370
C891	C89	0.436700	0.666800	0.546770
C901	C90	0.725500	0.609300	0.144030
C911	C91	0.012300	0.219600	0.378600
C921	C92	0.713300	0.514000	0.328800
C931	C93	0.514000	0.800700	0.162130
C941	C94	0.119700	0.783700	0.269600
C951	C95	0.116200	0.725500	0.310700
C961	C96	0.230100	0.563300	0.213430
C971	C97	0.702400	0.523000	0.137030
C981	C98	0.770700	0.995100	0.989770
C991	C99	0.136700	0.815700	0.497370
C1001	C100	0.178300	0.868400	0.873800
C1011	C101	0.746200	0.125500	0.565270
C1021	C102	0.179200	0.045200	0.035870
C1031	C103	0.249300	0.356300	0.872600
C1041	C104	0.195500	0.475800	0.212530
C1051	C105	0.949100	0.806300	0.330000
C1061	C106	0.185300	0.466000	0.411200
C1071	C107	0.125500	0.379300	0.398600
C1081	C108	0.609300	0.883800	0.977370
C1091	C109	0.573300	0.232800	0.665030
C1101	C110	0.216300	0.336000	0.602930
C1111	C111	0.700000	0.562000	0.372000
C1121	C112	0.641000	0.706300	0.688230
C1131	C113	0.015400	0.926100	0.683830
C1141	C114	0.224400	0.229300	0.656430
C1151	C115	0.868100	0.679200	0.931000
C1161	C116	0.631300	0.802200	0.121430
C1171	C117	0.426700	0.767200	0.165030
C1181	C118	0.309500	0.365300	0.689430
C1191	C119	0.005900	0.090400	0.011170
C1201	C120	0.834800	0.075900	0.587770
C1211	C121	0.643800	0.837300	0.582370
C1221	C122	0.652600	0.753800	0.501870
C1231	C123	0.477000	0.179400	0.470370
C1241	C124	0.987700	0.780400	0.878600
C1251	C125	0.811100	0.131900	0.597670
C1261	C126	0.438500	0.212200	0.084870
C1271	C127	0.869000	0.766300	0.332600
C1281	C128	0.561500	0.787800	0.584870
C1291	C129	0.134000	0.179200	0.202530
C1301	C130	0.321000	0.136700	0.664030
C1311	C131	0.902700	0.777800	0.700930
C1321	C132	0.874500	0.620700	0.898600
C1331	C133	0.745100	0.936300	0.942670
C1341	C134	0.222500	0.451100	0.787100
C1351	C135	0.133900	0.429200	0.171030
C1361	C136	0.563300	0.333200	0.046770
C1371	C137	0.837300	0.193500	0.415700
C1381	C138	0.984600	0.073900	0.183830
C1391	C139	0.562000	0.862000	0.205330
C1401	C140	0.769900	0.436700	0.713430
C1411	C141	0.254900	0.063700	0.442670
C1421	C142	0.001200	0.716000	0.362700
C1431	C143	0.207300	0.987700	0.045270
C1441	C144	0.909600	0.915500	0.344500
C1451	C145	0.936300	0.191200	0.776000
C1461	C146	0.802200	0.170900	0.954770
C1471	C147	0.868400	0.690100	0.707130
C1481	C148	0.897300	0.131000	0.999270
C1491	C149	0.065300	0.359000	0.354900
C1501	C150	0.241100	0.165200	0.254430
C1511	C151	0.199300	0.713300	0.495470
C1521	C152	0.659500	0.426700	0.331700
C1531	C153	0.767200	0.340500	0.998370
C1541	C154	0.075900	0.241100	0.421100
C1551	C155	0.780400	0.792700	0.711930
C1561	C156	0.863300	0.184300	0.997370
C1571	C157	0.866100	0.570800	0.671030
C1581	C158	0.777800	0.875100	0.534270
C1591	C159	0.271100	0.992000	0.011570
C1601	C160	0.438000	0.138000	0.705330
C1611	C161	0.229300	0.004900	0.489770
C1621	C162	0.233700	0.102700	0.665930
C1631	C163	0.898800	0.652600	0.668530
C1641	C164	0.679200	0.811100	0.764330
C1651	C165	0.356200	0.162700	0.082370
C1661	C166	0.758900	0.834800	0.754430
C1671	C167	0.808800	0.745100	0.109330
C1681	C168	0.875100	0.097300	0.367600
C1691	C169	0.359000	0.293700	0.188230
C1701	C170	0.829100	0.631300	0.288100
C1711	C171	0.994100	0.909600	0.511170
C1721	C172	0.880300	0.216300	0.769600
C1731	C173	0.719700	0.195500	0.379200
C1741	C174	0.995100	0.224400	0.823100
C1751	C175	0.300000	0.438000	0.872000
C1761	C176	0.773700	0.561500	0.751530
C1771	C177	0.193500	0.356200	0.249030
C1781	C178	0.222200	0.124900	0.034270
C1791	C179	0.704700	0.133900	0.337700
C1801	C180	0.101200	0.347400	0.168530
C1811	C181	0.992000	0.720900	0.844900
C1821	C182	0.910700	0.984600	0.350500
C1831	C183	0.197800	0.829100	0.454770
C1841	C184	0.475800	0.280300	0.045870
C1851	C185	0.783700	0.664000	0.102930
C1861	C186	0.664000	0.880300	0.936270
C1871	C187	0.934700	0.641000	0.854900
C1881	C188	0.634700	0.944200	0.022770
C1891	C189	0.228600	0.777500	0.453770
C1901	C190	0.368700	0.197800	0.621430
C1911	C191	0.050900	0.193700	0.830000
C1921	C192	0.138000	0.700000	0.538670
C1931	C193	0.063700	0.808800	0.276000
C1941	C194	0.191200	0.254900	0.609330
C1951	C195	0.820800	0.954800	0.535870
C1961	C196	0.720900	0.728900	0.678230
C1971	C197	0.297600	0.477000	0.637030
C1981	C198	0.188900	0.868100	0.097670
C1991	C199	0.193700	0.142800	0.663330
C2001	C200	0.820600	0.297600	0.803700
C2011	C201	0.107000	0.750700	0.539270
C2021	C202	0.750700	0.643700	0.372600
C2031	C203	0.804500	0.524200	0.712530
C2041	C204	0.753800	0.101200	0.335200
S11	S1	0.076120	0.076490	0.189420
S21	S2	0.831670	0.824260	0.523050
S31	S3	0.997990	0.821160	0.506810
S41	S4	0.923510	0.999630	0.522760
S51	S5	0.997100	0.910730	0.335730
S61	S6	0.821160	0.823170	0.340140
S71	S7	0.002010	0.178840	0.006810
S81	S8	0.824260	0.992590	0.356380
S91	S9	0.086370	0.997100	0.502400
S101	S10	0.178840	0.176830	0.840140
S111	S11	0.002900	0.089270	0.835730
S121	S12	0.089270	0.086370	0.669060
S131	S13	0.176830	0.997990	0.673470
S141	S14	0.999630	0.076120	0.356090
S151	S15	0.913630	0.002900	0.002400
S161	S16	0.823170	0.002010	0.173470
S171	S17	0.992590	0.168330	0.189710
S181	S18	0.923880	0.923510	0.689420
S191	S19	0.007410	0.831670	0.689710
S201	S20	0.168330	0.175740	0.023050
S211	S21	0.175740	0.007410	0.856380
S221	S22	0.910730	0.913630	0.169060
S231	S23	0.076490	0.000370	0.022760
S241	S24	0.000370	0.923880	0.856090
O11	O1	0.750900	0.388600	0.175600
O21	O2	0.328800	0.812700	0.039670
O31	O3	0.737700	0.507900	0.093230
O41	O4	0.368900	0.610800	0.372170
O51	O5	0.610800	0.241900	0.205500
O61	O6	0.615500	0.210700	0.335900
O71	O7	0.389600	0.603100	0.877500
O81	O8	0.396900	0.786500	0.210830
O91	O9	0.820700	0.348200	0.841200
O101	O10	0.362300	0.750900	0.342270
O111	O11	0.521600	0.749700	0.794730
O121	O12	0.281800	0.662400	0.456570
O131	O13	0.595200	0.384500	0.002570
O141	O14	0.187300	0.516100	0.373000
O151	O15	0.527500	0.179300	0.507870
O161	O16	0.671200	0.187300	0.539670
O171	O17	0.389200	0.758100	0.705500
O181	O18	0.241900	0.631100	0.038830
O191	O19	0.213500	0.610400	0.544170
O201	O20	0.388600	0.637700	0.008930
O211	O21	0.483900	0.671200	0.706330
O221	O22	0.789300	0.404800	0.669230
O231	O23	0.472500	0.820700	0.007870
O241	O24	0.492100	0.229800	0.426570
O251	O25	0.262300	0.492100	0.593230
O261	O26	0.673500	0.280500	0.423900
O271	O27	0.478400	0.250300	0.294730
O281	O28	0.326500	0.719500	0.923900
O291	O29	0.179300	0.651800	0.341200
O301	O30	0.507900	0.770200	0.926570
O311	O31	0.662400	0.380600	0.289900
O321	O32	0.770200	0.262300	0.759900
O331	O33	0.786500	0.389600	0.044170
O341	O34	0.771900	0.521600	0.961400
O351	O35	0.404800	0.615500	0.502570
O361	O36	0.619400	0.281800	0.623230
O371	O37	0.637700	0.249100	0.842270
O381	O38	0.719500	0.393000	0.757230
O391	O39	0.384500	0.789300	0.835900
O401	O40	0.603100	0.213500	0.710830
O411	O41	0.337600	0.619400	0.789900
O421	O42	0.210700	0.595200	0.169230
O431	O43	0.607000	0.326500	0.090570
O441	O44	0.280500	0.607000	0.257230
O451	O45	0.249100	0.611400	0.675600
O461	O46	0.812700	0.483900	0.873000
O471	O47	0.516100	0.328800	0.206330
O481	O48	0.758100	0.368900	0.538830
O491	O49	0.393000	0.673500	0.590570
O501	O50	0.611400	0.362300	0.508930
O511	O51	0.718200	0.337600	0.956570
O521	O52	0.631100	0.389200	0.872170
O531	O53	0.610400	0.396900	0.377500
O541	O54	0.229800	0.737700	0.259900
O551	O55	0.651800	0.472500	0.174530
O561	O56	0.348200	0.527500	0.674530
O571	O57	0.250300	0.771900	0.128070
O581	O58	0.380600	0.718200	0.123230
O591	O59	0.749700	0.228100	0.628070
O601	O60	0.228100	0.478400	0.461400
