data_ja903726m_si_002_freeONLY_PM
_symmetry_space_group_name_H-M	'P1'
_cell_length_a	16.009600
_cell_length_b	16.009300
_cell_length_c	16.009300
_cell_angle_alpha	108.731000
_cell_angle_beta	108.732000
_cell_angle_gamma	110.962000
_symmetry_Int_Tables_number 1

loop_
_symmetry_equiv_pos_as_xyz
'x,y,z'

loop_
_atom_site_label
_atom_site_type_symbol
_atom_site_fract_x
_atom_site_fract_y
_atom_site_fract_z
Si11	Si1	0.291700	0.574000	0.865700
Si21	Si2	0.574000	0.708300	0.282300
Si31	Si3	0.426000	0.291700	0.717700
Si41	Si4	0.574000	0.291700	0.865700
Si51	Si5	0.708300	0.574000	0.282300
Si61	Si6	0.426000	0.708300	0.134300
Si71	Si7	0.291700	0.426000	0.717700
Si81	Si8	0.708300	0.426000	0.134300
C11	C1	0.963200	0.429500	0.392700
C21	C2	0.491300	0.002200	0.913900
C31	C3	0.911700	0.422600	0.913900
C41	C4	0.791700	0.791700	0.388000
C51	C5	0.208300	0.208300	0.612000
C61	C6	0.570500	0.036800	0.607300
C71	C7	0.098400	0.543400	0.000000
C81	C8	0.422600	0.911700	0.913900
C91	C9	0.500000	0.850700	0.350700
C101	C10	0.543400	0.098400	0.000000
C111	C11	0.098400	0.098400	0.555000
C121	C12	0.500000	0.926500	0.426500
C131	C13	0.002200	0.088300	0.510900
C141	C14	0.901600	0.901600	0.445000
C151	C15	0.596300	0.596300	0.388000
C161	C16	0.577400	0.491300	0.489100
C171	C17	0.088300	0.002200	0.510900
C181	C18	0.577400	0.088300	0.086100
C191	C19	0.149300	0.500000	0.649300
C201	C20	0.508700	0.997800	0.086100
C211	C21	0.429500	0.963200	0.392700
C221	C22	0.429500	0.036800	0.466300
C231	C23	0.456600	0.901600	0.000000
C241	C24	0.596300	0.208300	0.000000
C251	C25	0.570500	0.963200	0.533700
C261	C26	0.422600	0.508700	0.510900
C271	C27	0.997800	0.508700	0.086100
C281	C28	0.073500	0.500000	0.573500
C291	C29	0.508700	0.422600	0.510900
C301	C30	0.901600	0.456600	0.000000
C311	C31	0.036800	0.570500	0.607300
C321	C32	0.850700	0.500000	0.350700
C331	C33	0.963200	0.570500	0.533700
C341	C34	0.403700	0.791700	0.000000
C351	C35	0.911700	0.997800	0.489100
C361	C36	0.997800	0.911700	0.489100
C371	C37	0.543400	0.543400	0.445000
C381	C38	0.456600	0.456600	0.555000
C391	C39	0.002200	0.491300	0.913900
C401	C40	0.208300	0.596300	0.000000
C411	C41	0.036800	0.429500	0.466300
C421	C42	0.491300	0.577400	0.489100
C431	C43	0.500000	0.073500	0.573500
C441	C44	0.926500	0.500000	0.426500
C451	C45	0.791700	0.403700	0.000000
C461	C46	0.403700	0.403700	0.612000
C471	C47	0.500000	0.149300	0.649300
C481	C48	0.088300	0.577400	0.086100
O11	O1	0.347300	0.429000	0.629900
O21	O2	0.652700	0.282600	0.081700
O31	O3	0.188900	0.558000	0.746900
O41	O4	0.391600	0.573500	0.818100
O51	O5	0.571000	0.200900	0.918300
O61	O6	0.755400	0.573500	0.181900
O71	O7	0.347300	0.717400	0.918300
O81	O8	0.442000	0.811100	0.253100
O91	O9	0.799100	0.429000	0.081700
O101	O10	0.811100	0.442000	0.253100
O111	O11	0.607400	0.392600	0.000000
O121	O12	0.717400	0.799100	0.370100
O131	O13	0.188900	0.442000	0.630900
O141	O14	0.282600	0.200900	0.629900
O151	O15	0.392600	0.607400	0.000000
O161	O16	0.442000	0.188900	0.630900
O171	O17	0.558000	0.188900	0.746900
O181	O18	0.426500	0.244600	0.818100
O191	O19	0.282600	0.652700	0.081700
O201	O20	0.717400	0.347300	0.918300
O211	O21	0.571000	0.652700	0.370100
O221	O22	0.608400	0.426500	0.181900
O231	O23	0.558000	0.811100	0.369100
O241	O24	0.573500	0.755400	0.181900
O251	O25	0.811100	0.558000	0.369100
O261	O26	0.652700	0.571000	0.370100
O271	O27	0.429000	0.799100	0.081700
O281	O28	0.244600	0.426500	0.818100
O291	O29	0.799100	0.717400	0.370100
O301	O30	0.200900	0.282600	0.629900
O311	O31	0.200900	0.571000	0.918300
O321	O32	0.429000	0.347300	0.629900
O331	O33	0.573500	0.391600	0.818100
O341	O34	0.392600	0.392600	0.785200
O351	O35	0.426500	0.608400	0.181900
O361	O36	0.607400	0.607400	0.214800
