data_jacs_PM
_symmetry_space_group_name_H-M	'P1'
_cell_length_a	22.035400
_cell_length_b	22.035400
_cell_length_c	22.035400
_cell_angle_alpha	90.000000
_cell_angle_beta	90.000000
_cell_angle_gamma	90.000000
_symmetry_Int_Tables_number 1

loop_
_symmetry_equiv_pos_as_xyz
'x,y,z'

loop_
_atom_site_label
_atom_site_type_symbol
_atom_site_fract_x
_atom_site_fract_y
_atom_site_fract_z
Mg11	Mg1	0.178390	0.239580	0.305710
C11	C1	0.982000	0.294100	0.078000
C21	C2	0.930600	0.295800	0.112500
H11	H1	0.893200	0.299500	0.093400
C31	C3	0.932700	0.292000	0.174900
C41	C4	0.988600	0.285200	0.201700
H21	H2	0.991000	0.279600	0.243500
C51	C5	0.042100	0.286600	0.167200
C61	C6	0.040200	0.288300	0.106500
H31	H3	0.075500	0.285800	0.083600
C71	C7	0.873300	0.291800	0.207900
C81	C8	0.103100	0.277900	0.197500
O11	O1	0.111600	0.229900	0.375400
O21	O2	0.827600	0.309900	0.177900
O31	O3	0.873900	0.278500	0.263300
O41	O4	0.148900	0.292300	0.166100
O51	O5	0.105200	0.258600	0.251700
N11	N1	0.976500	0.295900	0.014200
Mg21	Mg2	0.821610	0.760420	0.305710
C91	C9	0.018000	0.705900	0.078000
C101	C10	0.069400	0.704200	0.112500
H41	H4	0.106800	0.700500	0.093400
C111	C11	0.067300	0.708000	0.174900
C121	C12	0.011400	0.714800	0.201700
H51	H5	0.009000	0.720400	0.243500
C131	C13	0.957900	0.713400	0.167200
C141	C14	0.959800	0.711700	0.106500
H61	H6	0.924500	0.714200	0.083600
C151	C15	0.126700	0.708200	0.207900
C161	C16	0.896900	0.722100	0.197500
O61	O6	0.888400	0.770100	0.375400
O71	O7	0.172400	0.690100	0.177900
O81	O8	0.126100	0.721500	0.263300
O91	O9	0.851100	0.707700	0.166100
O101	O10	0.894800	0.741400	0.251700
N21	N2	0.023500	0.704100	0.014200
Mg31	Mg3	0.821610	0.239580	0.694290
C171	C17	0.018000	0.294100	0.922000
C181	C18	0.069400	0.295800	0.887500
H71	H7	0.106800	0.299500	0.906600
C191	C19	0.067300	0.292000	0.825100
C201	C20	0.011400	0.285200	0.798300
H81	H8	0.009000	0.279600	0.756500
C211	C21	0.957900	0.286600	0.832800
C221	C22	0.959800	0.288300	0.893500
H91	H9	0.924500	0.285800	0.916400
C231	C23	0.126700	0.291800	0.792100
C241	C24	0.896900	0.277900	0.802500
O111	O11	0.888400	0.229900	0.624600
O121	O12	0.172400	0.309900	0.822100
O131	O13	0.126100	0.278500	0.736700
O141	O14	0.851100	0.292300	0.833900
O151	O15	0.894800	0.258600	0.748300
N31	N3	0.023500	0.295900	0.985800
Mg41	Mg4	0.178390	0.760420	0.694290
C251	C25	0.982000	0.705900	0.922000
C261	C26	0.930600	0.704200	0.887500
H101	H10	0.893200	0.700500	0.906600
C271	C27	0.932700	0.708000	0.825100
C281	C28	0.988600	0.714800	0.798300
H111	H11	0.991000	0.720400	0.756500
C291	C29	0.042100	0.713400	0.832800
C301	C30	0.040200	0.711700	0.893500
H121	H12	0.075500	0.714200	0.916400
C311	C31	0.873300	0.708200	0.792100
C321	C32	0.103100	0.722100	0.802500
O161	O16	0.111600	0.770100	0.624600
O171	O17	0.827600	0.690100	0.822100
O181	O18	0.873900	0.721500	0.736700
O191	O19	0.148900	0.707700	0.833900
O201	O20	0.105200	0.741400	0.748300
N41	N4	0.976500	0.704100	0.985800
Mg51	Mg5	0.305710	0.178390	0.239580
C331	C33	0.078000	0.982000	0.294100
C341	C34	0.112500	0.930600	0.295800
H131	H13	0.093400	0.893200	0.299500
C351	C35	0.174900	0.932700	0.292000
C361	C36	0.201700	0.988600	0.285200
H141	H14	0.243500	0.991000	0.279600
C371	C37	0.167200	0.042100	0.286600
C381	C38	0.106500	0.040200	0.288300
H151	H15	0.083600	0.075500	0.285800
C391	C39	0.207900	0.873300	0.291800
C401	C40	0.197500	0.103100	0.277900
O211	O21	0.375400	0.111600	0.229900
O221	O22	0.177900	0.827600	0.309900
O231	O23	0.263300	0.873900	0.278500
O241	O24	0.166100	0.148900	0.292300
O251	O25	0.251700	0.105200	0.258600
N51	N5	0.014200	0.976500	0.295900
Mg61	Mg6	0.305710	0.821610	0.760420
C411	C41	0.078000	0.018000	0.705900
C421	C42	0.112500	0.069400	0.704200
H161	H16	0.093400	0.106800	0.700500
C431	C43	0.174900	0.067300	0.708000
C441	C44	0.201700	0.011400	0.714800
H171	H17	0.243500	0.009000	0.720400
C451	C45	0.167200	0.957900	0.713400
C461	C46	0.106500	0.959800	0.711700
H181	H18	0.083600	0.924500	0.714200
C471	C47	0.207900	0.126700	0.708200
C481	C48	0.197500	0.896900	0.722100
O261	O26	0.375400	0.888400	0.770100
O271	O27	0.177900	0.172400	0.690100
O281	O28	0.263300	0.126100	0.721500
O291	O29	0.166100	0.851100	0.707700
O301	O30	0.251700	0.894800	0.741400
N61	N6	0.014200	0.023500	0.704100
Mg71	Mg7	0.694290	0.821610	0.239580
C491	C49	0.922000	0.018000	0.294100
C501	C50	0.887500	0.069400	0.295800
H191	H19	0.906600	0.106800	0.299500
C511	C51	0.825100	0.067300	0.292000
C521	C52	0.798300	0.011400	0.285200
H201	H20	0.756500	0.009000	0.279600
C531	C53	0.832800	0.957900	0.286600
C541	C54	0.893500	0.959800	0.288300
H211	H21	0.916400	0.924500	0.285800
C551	C55	0.792100	0.126700	0.291800
C561	C56	0.802500	0.896900	0.277900
O311	O31	0.624600	0.888400	0.229900
O321	O32	0.822100	0.172400	0.309900
O331	O33	0.736700	0.126100	0.278500
O341	O34	0.833900	0.851100	0.292300
O351	O35	0.748300	0.894800	0.258600
N71	N7	0.985800	0.023500	0.295900
Mg81	Mg8	0.694290	0.178390	0.760420
C571	C57	0.922000	0.982000	0.705900
C581	C58	0.887500	0.930600	0.704200
H221	H22	0.906600	0.893200	0.700500
C591	C59	0.825100	0.932700	0.708000
C601	C60	0.798300	0.988600	0.714800
H231	H23	0.756500	0.991000	0.720400
C611	C61	0.832800	0.042100	0.713400
C621	C62	0.893500	0.040200	0.711700
H241	H24	0.916400	0.075500	0.714200
C631	C63	0.792100	0.873300	0.708200
C641	C64	0.802500	0.103100	0.722100
O361	O36	0.624600	0.111600	0.770100
O371	O37	0.822100	0.827600	0.690100
O381	O38	0.736700	0.873900	0.721500
O391	O39	0.833900	0.148900	0.707700
O401	O40	0.748300	0.105200	0.741400
N81	N8	0.985800	0.976500	0.704100
Mg91	Mg9	0.239580	0.305710	0.178390
C651	C65	0.294100	0.078000	0.982000
C661	C66	0.295800	0.112500	0.930600
H251	H25	0.299500	0.093400	0.893200
C671	C67	0.292000	0.174900	0.932700
C681	C68	0.285200	0.201700	0.988600
H261	H26	0.279600	0.243500	0.991000
C691	C69	0.286600	0.167200	0.042100
C701	C70	0.288300	0.106500	0.040200
H271	H27	0.285800	0.083600	0.075500
C711	C71	0.291800	0.207900	0.873300
C721	C72	0.277900	0.197500	0.103100
O411	O41	0.229900	0.375400	0.111600
O421	O42	0.309900	0.177900	0.827600
O431	O43	0.278500	0.263300	0.873900
O441	O44	0.292300	0.166100	0.148900
O451	O45	0.258600	0.251700	0.105200
N91	N9	0.295900	0.014200	0.976500
Mg101	Mg10	0.760420	0.305710	0.821610
C731	C73	0.705900	0.078000	0.018000
C741	C74	0.704200	0.112500	0.069400
H281	H28	0.700500	0.093400	0.106800
C751	C75	0.708000	0.174900	0.067300
C761	C76	0.714800	0.201700	0.011400
H291	H29	0.720400	0.243500	0.009000
C771	C77	0.713400	0.167200	0.957900
C781	C78	0.711700	0.106500	0.959800
H301	H30	0.714200	0.083600	0.924500
C791	C79	0.708200	0.207900	0.126700
C801	C80	0.722100	0.197500	0.896900
O461	O46	0.770100	0.375400	0.888400
O471	O47	0.690100	0.177900	0.172400
O481	O48	0.721500	0.263300	0.126100
O491	O49	0.707700	0.166100	0.851100
O501	O50	0.741400	0.251700	0.894800
N101	N10	0.704100	0.014200	0.023500
Mg111	Mg11	0.239580	0.694290	0.821610
C811	C81	0.294100	0.922000	0.018000
C821	C82	0.295800	0.887500	0.069400
H311	H31	0.299500	0.906600	0.106800
C831	C83	0.292000	0.825100	0.067300
C841	C84	0.285200	0.798300	0.011400
H321	H32	0.279600	0.756500	0.009000
C851	C85	0.286600	0.832800	0.957900
C861	C86	0.288300	0.893500	0.959800
H331	H33	0.285800	0.916400	0.924500
C871	C87	0.291800	0.792100	0.126700
C881	C88	0.277900	0.802500	0.896900
O511	O51	0.229900	0.624600	0.888400
O521	O52	0.309900	0.822100	0.172400
O531	O53	0.278500	0.736700	0.126100
O541	O54	0.292300	0.833900	0.851100
O551	O55	0.258600	0.748300	0.894800
N111	N11	0.295900	0.985800	0.023500
Mg121	Mg12	0.760420	0.694290	0.178390
C891	C89	0.705900	0.922000	0.982000
C901	C90	0.704200	0.887500	0.930600
H341	H34	0.700500	0.906600	0.893200
C911	C91	0.708000	0.825100	0.932700
C921	C92	0.714800	0.798300	0.988600
H351	H35	0.720400	0.756500	0.991000
C931	C93	0.713400	0.832800	0.042100
C941	C94	0.711700	0.893500	0.040200
H361	H36	0.714200	0.916400	0.075500
C951	C95	0.708200	0.792100	0.873300
C961	C96	0.722100	0.802500	0.103100
O561	O56	0.770100	0.624600	0.111600
O571	O57	0.690100	0.822100	0.827600
O581	O58	0.721500	0.736700	0.873900
O591	O59	0.707700	0.833900	0.148900
O601	O60	0.741400	0.748300	0.105200
N121	N12	0.704100	0.985800	0.976500
Mg131	Mg13	0.739580	0.678390	0.805710
C971	C97	0.794100	0.482000	0.578000
C981	C98	0.795800	0.430600	0.612500
H371	H37	0.799500	0.393200	0.593400
C991	C99	0.792000	0.432700	0.674900
C1001	C100	0.785200	0.488600	0.701700
H381	H38	0.779600	0.491000	0.743500
C1011	C101	0.786600	0.542100	0.667200
C1021	C102	0.788300	0.540200	0.606500
H391	H39	0.785800	0.575500	0.583600
C1031	C103	0.791800	0.373300	0.707900
C1041	C104	0.777900	0.603100	0.697500
O611	O61	0.729900	0.611600	0.875400
O621	O62	0.809900	0.327600	0.677900
O631	O63	0.778500	0.373900	0.763300
O641	O64	0.792300	0.648900	0.666100
O651	O65	0.758600	0.605200	0.751700
N131	N13	0.795900	0.476500	0.514200
Mg141	Mg14	0.260420	0.321610	0.805710
C1051	C105	0.205900	0.518000	0.578000
C1061	C106	0.204200	0.569400	0.612500
H401	H40	0.200500	0.606800	0.593400
C1071	C107	0.208000	0.567300	0.674900
C1081	C108	0.214800	0.511400	0.701700
H411	H41	0.220400	0.509000	0.743500
C1091	C109	0.213400	0.457900	0.667200
C1101	C110	0.211700	0.459800	0.606500
H421	H42	0.214200	0.424500	0.583600
C1111	C111	0.208200	0.626700	0.707900
C1121	C112	0.222100	0.396900	0.697500
O661	O66	0.270100	0.388400	0.875400
O671	O67	0.190100	0.672400	0.677900
O681	O68	0.221500	0.626100	0.763300
O691	O69	0.207700	0.351100	0.666100
O701	O70	0.241400	0.394800	0.751700
N141	N14	0.204100	0.523500	0.514200
Mg151	Mg15	0.739580	0.321610	0.194290
C1131	C113	0.794100	0.518000	0.422000
C1141	C114	0.795800	0.569400	0.387500
H431	H43	0.799500	0.606800	0.406600
C1151	C115	0.792000	0.567300	0.325100
C1161	C116	0.785200	0.511400	0.298300
H441	H44	0.779600	0.509000	0.256500
C1171	C117	0.786600	0.457900	0.332800
C1181	C118	0.788300	0.459800	0.393500
H451	H45	0.785800	0.424500	0.416400
C1191	C119	0.791800	0.626700	0.292100
C1201	C120	0.777900	0.396900	0.302500
O711	O71	0.729900	0.388400	0.124600
O721	O72	0.809900	0.672400	0.322100
O731	O73	0.778500	0.626100	0.236700
O741	O74	0.792300	0.351100	0.333900
O751	O75	0.758600	0.394800	0.248300
N151	N15	0.795900	0.523500	0.485800
Mg161	Mg16	0.260420	0.678390	0.194290
C1211	C121	0.205900	0.482000	0.422000
C1221	C122	0.204200	0.430600	0.387500
H461	H46	0.200500	0.393200	0.406600
C1231	C123	0.208000	0.432700	0.325100
C1241	C124	0.214800	0.488600	0.298300
H471	H47	0.220400	0.491000	0.256500
C1251	C125	0.213400	0.542100	0.332800
C1261	C126	0.211700	0.540200	0.393500
H481	H48	0.214200	0.575500	0.416400
C1271	C127	0.208200	0.373300	0.292100
C1281	C128	0.222100	0.603100	0.302500
O761	O76	0.270100	0.611600	0.124600
O771	O77	0.190100	0.327600	0.322100
O781	O78	0.221500	0.373900	0.236700
O791	O79	0.207700	0.648900	0.333900
O801	O80	0.241400	0.605200	0.248300
N161	N16	0.204100	0.476500	0.485800
Mg171	Mg17	0.678390	0.805710	0.739580
C1291	C129	0.482000	0.578000	0.794100
C1301	C130	0.430600	0.612500	0.795800
H491	H49	0.393200	0.593400	0.799500
C1311	C131	0.432700	0.674900	0.792000
C1321	C132	0.488600	0.701700	0.785200
H501	H50	0.491000	0.743500	0.779600
C1331	C133	0.542100	0.667200	0.786600
C1341	C134	0.540200	0.606500	0.788300
H511	H51	0.575500	0.583600	0.785800
C1351	C135	0.373300	0.707900	0.791800
C1361	C136	0.603100	0.697500	0.777900
O811	O81	0.611600	0.875400	0.729900
O821	O82	0.327600	0.677900	0.809900
O831	O83	0.373900	0.763300	0.778500
O841	O84	0.648900	0.666100	0.792300
O851	O85	0.605200	0.751700	0.758600
N171	N17	0.476500	0.514200	0.795900
Mg181	Mg18	0.321610	0.805710	0.260420
C1371	C137	0.518000	0.578000	0.205900
C1381	C138	0.569400	0.612500	0.204200
H521	H52	0.606800	0.593400	0.200500
C1391	C139	0.567300	0.674900	0.208000
C1401	C140	0.511400	0.701700	0.214800
H531	H53	0.509000	0.743500	0.220400
C1411	C141	0.457900	0.667200	0.213400
C1421	C142	0.459800	0.606500	0.211700
H541	H54	0.424500	0.583600	0.214200
C1431	C143	0.626700	0.707900	0.208200
C1441	C144	0.396900	0.697500	0.222100
O861	O86	0.388400	0.875400	0.270100
O871	O87	0.672400	0.677900	0.190100
O881	O88	0.626100	0.763300	0.221500
O891	O89	0.351100	0.666100	0.207700
O901	O90	0.394800	0.751700	0.241400
N181	N18	0.523500	0.514200	0.204100
Mg191	Mg19	0.321610	0.194290	0.739580
C1451	C145	0.518000	0.422000	0.794100
C1461	C146	0.569400	0.387500	0.795800
H551	H55	0.606800	0.406600	0.799500
C1471	C147	0.567300	0.325100	0.792000
C1481	C148	0.511400	0.298300	0.785200
H561	H56	0.509000	0.256500	0.779600
C1491	C149	0.457900	0.332800	0.786600
C1501	C150	0.459800	0.393500	0.788300
H571	H57	0.424500	0.416400	0.785800
C1511	C151	0.626700	0.292100	0.791800
C1521	C152	0.396900	0.302500	0.777900
O911	O91	0.388400	0.124600	0.729900
O921	O92	0.672400	0.322100	0.809900
O931	O93	0.626100	0.236700	0.778500
O941	O94	0.351100	0.333900	0.792300
O951	O95	0.394800	0.248300	0.758600
N191	N19	0.523500	0.485800	0.795900
Mg201	Mg20	0.678390	0.194290	0.260420
C1531	C153	0.482000	0.422000	0.205900
C1541	C154	0.430600	0.387500	0.204200
H581	H58	0.393200	0.406600	0.200500
C1551	C155	0.432700	0.325100	0.208000
C1561	C156	0.488600	0.298300	0.214800
H591	H59	0.491000	0.256500	0.220400
C1571	C157	0.542100	0.332800	0.213400
C1581	C158	0.540200	0.393500	0.211700
H601	H60	0.575500	0.416400	0.214200
C1591	C159	0.373300	0.292100	0.208200
C1601	C160	0.603100	0.302500	0.222100
O961	O96	0.611600	0.124600	0.270100
O971	O97	0.327600	0.322100	0.190100
O981	O98	0.373900	0.236700	0.221500
O991	O99	0.648900	0.333900	0.207700
O1001	O100	0.605200	0.248300	0.241400
N201	N20	0.476500	0.485800	0.204100
Mg211	Mg21	0.805710	0.739580	0.678390
C1611	C161	0.578000	0.794100	0.482000
C1621	C162	0.612500	0.795800	0.430600
H611	H61	0.593400	0.799500	0.393200
C1631	C163	0.674900	0.792000	0.432700
C1641	C164	0.701700	0.785200	0.488600
H621	H62	0.743500	0.779600	0.491000
C1651	C165	0.667200	0.786600	0.542100
C1661	C166	0.606500	0.788300	0.540200
H631	H63	0.583600	0.785800	0.575500
C1671	C167	0.707900	0.791800	0.373300
C1681	C168	0.697500	0.777900	0.603100
O1011	O101	0.875400	0.729900	0.611600
O1021	O102	0.677900	0.809900	0.327600
O1031	O103	0.763300	0.778500	0.373900
O1041	O104	0.666100	0.792300	0.648900
O1051	O105	0.751700	0.758600	0.605200
N211	N21	0.514200	0.795900	0.476500
Mg221	Mg22	0.805710	0.260420	0.321610
C1691	C169	0.578000	0.205900	0.518000
C1701	C170	0.612500	0.204200	0.569400
H641	H64	0.593400	0.200500	0.606800
C1711	C171	0.674900	0.208000	0.567300
C1721	C172	0.701700	0.214800	0.511400
H651	H65	0.743500	0.220400	0.509000
C1731	C173	0.667200	0.213400	0.457900
C1741	C174	0.606500	0.211700	0.459800
H661	H66	0.583600	0.214200	0.424500
C1751	C175	0.707900	0.208200	0.626700
C1761	C176	0.697500	0.222100	0.396900
O1061	O106	0.875400	0.270100	0.388400
O1071	O107	0.677900	0.190100	0.672400
O1081	O108	0.763300	0.221500	0.626100
O1091	O109	0.666100	0.207700	0.351100
O1101	O110	0.751700	0.241400	0.394800
N221	N22	0.514200	0.204100	0.523500
Mg231	Mg23	0.194290	0.739580	0.321610
C1771	C177	0.422000	0.794100	0.518000
C1781	C178	0.387500	0.795800	0.569400
H671	H67	0.406600	0.799500	0.606800
C1791	C179	0.325100	0.792000	0.567300
C1801	C180	0.298300	0.785200	0.511400
H681	H68	0.256500	0.779600	0.509000
C1811	C181	0.332800	0.786600	0.457900
C1821	C182	0.393500	0.788300	0.459800
H691	H69	0.416400	0.785800	0.424500
C1831	C183	0.292100	0.791800	0.626700
C1841	C184	0.302500	0.777900	0.396900
O1111	O111	0.124600	0.729900	0.388400
O1121	O112	0.322100	0.809900	0.672400
O1131	O113	0.236700	0.778500	0.626100
O1141	O114	0.333900	0.792300	0.351100
O1151	O115	0.248300	0.758600	0.394800
N231	N23	0.485800	0.795900	0.523500
Mg241	Mg24	0.194290	0.260420	0.678390
C1851	C185	0.422000	0.205900	0.482000
C1861	C186	0.387500	0.204200	0.430600
H701	H70	0.406600	0.200500	0.393200
C1871	C187	0.325100	0.208000	0.432700
C1881	C188	0.298300	0.214800	0.488600
H711	H71	0.256500	0.220400	0.491000
C1891	C189	0.332800	0.213400	0.542100
C1901	C190	0.393500	0.211700	0.540200
H721	H72	0.416400	0.214200	0.575500
C1911	C191	0.292100	0.208200	0.373300
C1921	C192	0.302500	0.222100	0.603100
O1161	O116	0.124600	0.270100	0.611600
O1171	O117	0.322100	0.190100	0.327600
O1181	O118	0.236700	0.221500	0.373900
O1191	O119	0.333900	0.207700	0.648900
O1201	O120	0.248300	0.241400	0.605200
N241	N24	0.485800	0.204100	0.476500
O1211	O121	0.241500	0.241500	0.241500
O1221	O122	0.758500	0.758500	0.241500
O1231	O123	0.758500	0.241500	0.758500
O1241	O124	0.241500	0.758500	0.758500
O1251	O125	0.741500	0.741500	0.741500
O1261	O126	0.258500	0.258500	0.741500
O1271	O127	0.741500	0.258500	0.258500
O1281	O128	0.258500	0.741500	0.258500
