data_JASNEX_freeONLY_PM
_symmetry_space_group_name_H-M	'P1'
_cell_length_a	7.753000
_cell_length_b	10.458000
_cell_length_c	11.238600
_cell_angle_alpha	62.272100
_cell_angle_beta	85.333600
_cell_angle_gamma	79.929900
_symmetry_Int_Tables_number 1

loop_
_symmetry_equiv_pos_as_xyz
'x,y,z'

loop_
_atom_site_label
_atom_site_type_symbol
_atom_site_fract_x
_atom_site_fract_y
_atom_site_fract_z
Zn11	Zn1	0.112400	0.600110	0.000000
Zn21	Zn2	0.887600	0.399890	0.000000
H11	H1	0.771600	0.145900	0.426800
H21	H2	0.899700	0.971800	0.620400
H31	H3	0.493400	0.747100	0.722200
H41	H4	0.228400	0.427300	0.426800
H51	H5	0.100300	0.407800	0.620400
H61	H6	0.506600	0.530700	0.722200
H71	H7	0.228400	0.854100	0.573200
H81	H8	0.100300	0.028200	0.379600
H91	H9	0.506600	0.252900	0.277800
H101	H10	0.771600	0.572700	0.573200
H111	H11	0.899700	0.592200	0.379600
H121	H12	0.493400	0.469300	0.277800
H131	H13	0.036100	0.903200	0.000000
H141	H14	0.197300	0.071500	0.000000
H151	H15	0.646200	0.809600	0.000000
H161	H16	0.485100	0.641300	0.000000
H171	H17	0.963900	0.096800	0.000000
H181	H18	0.802700	0.928500	0.000000
H191	H19	0.353800	0.190400	0.000000
H201	H20	0.514900	0.358700	0.000000
C11	C1	0.539300	0.063000	0.453000
C21	C2	0.712400	0.068500	0.485200
C31	C3	0.789200	0.962600	0.599000
C41	C4	0.547600	0.827300	0.662800
C51	C5	0.715000	0.837600	0.689400
C61	C6	0.807000	0.715400	0.809200
C71	C7	0.460700	0.484000	0.453000
C81	C8	0.287600	0.446300	0.485200
C91	C9	0.210800	0.438400	0.599000
C101	C10	0.452400	0.509900	0.662800
C111	C11	0.285000	0.473000	0.689400
C121	C12	0.193000	0.475400	0.809200
C131	C13	0.460700	0.937000	0.547000
C141	C14	0.287600	0.931500	0.514800
C151	C15	0.210800	0.037400	0.401000
C161	C16	0.452400	0.172700	0.337200
C171	C17	0.285000	0.162400	0.310600
C181	C18	0.193000	0.284600	0.190800
C191	C19	0.539300	0.516000	0.547000
C201	C20	0.712400	0.553700	0.514800
C211	C21	0.789200	0.561600	0.401000
C221	C22	0.547600	0.490100	0.337200
C231	C23	0.715000	0.527000	0.310600
C241	C24	0.807000	0.524600	0.190800
C251	C25	0.159200	0.884300	0.000000
C261	C26	0.255300	0.984800	0.000000
C271	C27	0.437300	0.956800	0.000000
C281	C28	0.523100	0.828500	0.000000
C291	C29	0.427000	0.728100	0.000000
C301	C30	0.840800	0.115700	0.000000
C311	C31	0.744700	0.015200	0.000000
C321	C32	0.562700	0.043200	0.000000
C331	C33	0.476900	0.171500	0.000000
C341	C34	0.573000	0.271900	0.000000
N11	N1	0.245000	0.756000	0.000000
N21	N2	0.755000	0.244000	0.000000
O11	O1	0.932900	0.741400	0.853800
O21	O2	0.760800	0.591600	0.859400
O31	O3	0.067100	0.404800	0.853800
O41	O4	0.239200	0.549000	0.859400
O51	O5	0.067100	0.258600	0.146200
O61	O6	0.239200	0.408400	0.140600
O71	O7	0.932900	0.595200	0.146200
O81	O8	0.760800	0.451000	0.140600
