data_JAVNIE_freeONLY_PM
_symmetry_space_group_name_H-M	'P1'
_cell_length_a	12.330500
_cell_length_b	15.506900
_cell_length_c	15.641200
_cell_angle_alpha	90.000000
_cell_angle_beta	90.000000
_cell_angle_gamma	90.000000
_symmetry_Int_Tables_number 1

loop_
_symmetry_equiv_pos_as_xyz
'x,y,z'

loop_
_atom_site_label
_atom_site_type_symbol
_atom_site_fract_x
_atom_site_fract_y
_atom_site_fract_z
Cu11	Cu1	0.000000	0.000000	0.000000
Cu21	Cu2	0.500000	0.500000	0.500000
Cu31	Cu3	0.152510	0.000000	0.192160
Cu41	Cu4	0.847490	0.000000	0.807840
Cu51	Cu5	0.347490	0.500000	0.692160
Cu61	Cu6	0.652510	0.500000	0.307840
H11	H1	0.773700	0.716200	0.097300
H21	H2	0.678600	0.600500	0.150100
H31	H3	0.842400	0.603900	0.358500
H41	H4	0.943300	0.718800	0.311200
H51	H5	0.226300	0.716200	0.902700
H61	H6	0.321400	0.600500	0.849900
H71	H7	0.157600	0.603900	0.641500
H81	H8	0.056700	0.718800	0.688800
H91	H9	0.726300	0.783800	0.597300
H101	H10	0.821400	0.899500	0.650100
H111	H11	0.657600	0.896100	0.858500
H121	H12	0.556700	0.781200	0.811200
H131	H13	0.273700	0.783800	0.402700
H141	H14	0.178600	0.899500	0.349900
H151	H15	0.342400	0.896100	0.141500
H161	H16	0.443300	0.781200	0.188800
H171	H17	0.226300	0.283800	0.902700
H181	H18	0.321400	0.399500	0.849900
H191	H19	0.157600	0.396100	0.641500
H201	H20	0.056700	0.281200	0.688800
H211	H21	0.773700	0.283800	0.097300
H221	H22	0.678600	0.399500	0.150100
H231	H23	0.842400	0.396100	0.358500
H241	H24	0.943300	0.281200	0.311200
H251	H25	0.273700	0.216200	0.402700
H261	H26	0.178600	0.100500	0.349900
H271	H27	0.342400	0.103900	0.141500
H281	H28	0.443300	0.218800	0.188800
H291	H29	0.726300	0.216200	0.597300
H301	H30	0.821400	0.100500	0.650100
H311	H31	0.657600	0.103900	0.858500
H321	H32	0.556700	0.218800	0.811200
C11	C1	0.933500	0.805400	0.166900
C21	C2	0.871600	0.729900	0.198600
C31	C3	0.790200	0.694300	0.151100
C41	C4	0.732400	0.625000	0.183900
C51	C5	0.827700	0.626800	0.304800
C61	C6	0.889400	0.695900	0.276400
C71	C7	0.066500	0.805400	0.833100
C81	C8	0.128400	0.729900	0.801400
C91	C9	0.209800	0.694300	0.848900
C101	C10	0.267600	0.625000	0.816100
C111	C11	0.172300	0.626800	0.695200
C121	C12	0.110600	0.695900	0.723600
C131	C13	0.566500	0.694600	0.666900
C141	C14	0.628400	0.770100	0.698600
C151	C15	0.709800	0.805700	0.651100
C161	C16	0.767600	0.875000	0.683900
C171	C17	0.672300	0.873200	0.804800
C181	C18	0.610600	0.804100	0.776400
C191	C19	0.433500	0.694600	0.333100
C201	C20	0.371600	0.770100	0.301400
C211	C21	0.290200	0.805700	0.348900
C221	C22	0.232400	0.875000	0.316100
C231	C23	0.327700	0.873200	0.195200
C241	C24	0.389400	0.804100	0.223600
C251	C25	0.066500	0.194600	0.833100
C261	C26	0.128400	0.270100	0.801400
C271	C27	0.209800	0.305700	0.848900
C281	C28	0.267600	0.375000	0.816100
C291	C29	0.172300	0.373200	0.695200
C301	C30	0.110600	0.304100	0.723600
C311	C31	0.933500	0.194600	0.166900
C321	C32	0.871600	0.270100	0.198600
C331	C33	0.790200	0.305700	0.151100
C341	C34	0.732400	0.375000	0.183900
C351	C35	0.827700	0.373200	0.304800
C361	C36	0.889400	0.304100	0.276400
C371	C37	0.433500	0.305400	0.333100
C381	C38	0.371600	0.229900	0.301400
C391	C39	0.290200	0.194300	0.348900
C401	C40	0.232400	0.125000	0.316100
C411	C41	0.327700	0.126800	0.195200
C421	C42	0.389400	0.195900	0.223600
C431	C43	0.566500	0.305400	0.666900
C441	C44	0.628400	0.229900	0.698600
C451	C45	0.709800	0.194300	0.651100
C461	C46	0.767600	0.125000	0.683900
C471	C47	0.672300	0.126800	0.804800
C481	C48	0.610600	0.195900	0.776400
N11	N1	0.985200	0.908160	0.091050
N21	N2	0.040000	0.909360	0.163890
N31	N3	0.008700	0.844870	0.213200
N41	N4	0.916400	0.842090	0.091410
N51	N5	0.749700	0.592440	0.259510
N61	N6	0.014800	0.908160	0.908950
N71	N7	0.960000	0.909360	0.836110
N81	N8	0.991300	0.844870	0.786800
N91	N9	0.083600	0.842090	0.908590
N101	N10	0.250300	0.592440	0.740490
N111	N11	0.514800	0.591840	0.591050
N121	N12	0.460000	0.590640	0.663890
N131	N13	0.491300	0.655130	0.713200
N141	N14	0.583600	0.657910	0.591410
N151	N15	0.750300	0.907560	0.759510
N161	N16	0.485200	0.591840	0.408950
N171	N17	0.540000	0.590640	0.336110
N181	N18	0.508700	0.655130	0.286800
N191	N19	0.416400	0.657910	0.408590
N201	N20	0.249700	0.907560	0.240490
N211	N21	0.014800	0.091840	0.908950
N221	N22	0.960000	0.090640	0.836110
N231	N23	0.991300	0.155130	0.786800
N241	N24	0.083600	0.157910	0.908590
N251	N25	0.250300	0.407560	0.740490
N261	N26	0.985200	0.091840	0.091050
N271	N27	0.040000	0.090640	0.163890
N281	N28	0.008700	0.155130	0.213200
N291	N29	0.916400	0.157910	0.091410
N301	N30	0.749700	0.407560	0.259510
N311	N31	0.485200	0.408160	0.408950
N321	N32	0.540000	0.409360	0.336110
N331	N33	0.508700	0.344870	0.286800
N341	N34	0.416400	0.342090	0.408590
N351	N35	0.249700	0.092440	0.240490
N361	N36	0.514800	0.408160	0.591050
N371	N37	0.460000	0.409360	0.663890
N381	N38	0.491300	0.344870	0.713200
N391	N39	0.583600	0.342090	0.591410
N401	N40	0.750300	0.092440	0.759510
Cl11	Cl1	0.216170	0.000000	0.037710
Cl21	Cl2	0.783830	0.000000	0.962290
Cl31	Cl3	0.283830	0.500000	0.537710
Cl41	Cl4	0.716170	0.500000	0.462290
