data_JAVSUV_freeONLY_PM
_symmetry_space_group_name_H-M	'P1'
_cell_length_a	9.089700
_cell_length_b	9.207500
_cell_length_c	9.291400
_cell_angle_alpha	76.546000
_cell_angle_beta	87.299000
_cell_angle_gamma	89.411000
_symmetry_Int_Tables_number 1

loop_
_symmetry_equiv_pos_as_xyz
'x,y,z'

loop_
_atom_site_label
_atom_site_type_symbol
_atom_site_fract_x
_atom_site_fract_y
_atom_site_fract_z
P11	P1	0.313070	0.618690	0.597150
P21	P2	0.882740	0.627920	0.823080
P31	P3	0.146090	0.168290	0.645720
Al11	Al1	0.065520	0.867640	0.587460
Al21	Al2	0.660350	0.625580	0.574310
Al31	Al3	0.118940	0.391200	0.841980
F11	F1	0.105750	0.014150	0.416240
O11	O1	0.238360	0.767950	0.570130
O21	O2	0.998480	0.744500	0.762410
O31	O3	0.151590	0.998880	0.687850
O41	O4	0.747140	0.642900	0.730300
O51	O5	0.032370	0.233510	0.533590
O61	O6	0.945410	0.470480	0.837200
O71	O7	0.118000	0.222810	0.789650
O81	O8	0.249700	0.510270	0.736360
O91	O9	0.475390	0.639100	0.623000
O101	O10	0.303100	0.547900	0.463770
O111	O11	0.299970	0.230460	0.580940
O121	O12	0.825430	0.644300	0.976580
P41	P4	0.686930	0.381310	0.402850
P51	P5	0.117260	0.372080	0.176920
P61	P6	0.853910	0.831710	0.354280
Al41	Al4	0.934480	0.132360	0.412540
Al51	Al5	0.339650	0.374420	0.425690
Al61	Al6	0.881060	0.608800	0.158020
F21	F2	0.894250	0.985850	0.583760
O131	O13	0.761640	0.232050	0.429870
O141	O14	0.001520	0.255500	0.237590
O151	O15	0.848410	0.001120	0.312150
O161	O16	0.252860	0.357100	0.269700
O171	O17	0.967630	0.766490	0.466410
O181	O18	0.054590	0.529520	0.162800
O191	O19	0.882000	0.777190	0.210350
O201	O20	0.750300	0.489730	0.263640
O211	O21	0.524610	0.360900	0.377000
O221	O22	0.696900	0.452100	0.536230
O231	O23	0.700030	0.769540	0.419060
O241	O24	0.174570	0.355700	0.023420
