data_JAVTEG_freeONLY_PM
_symmetry_space_group_name_H-M	'P1'
_cell_length_a	9.162000
_cell_length_b	9.291000
_cell_length_c	16.504000
_cell_angle_alpha	75.038000
_cell_angle_beta	75.244000
_cell_angle_gamma	83.867000
_symmetry_Int_Tables_number 1

loop_
_symmetry_equiv_pos_as_xyz
'x,y,z'

loop_
_atom_site_label
_atom_site_type_symbol
_atom_site_fract_x
_atom_site_fract_y
_atom_site_fract_z
P11	P1	0.665790	0.817870	0.474160
P21	P2	0.312160	0.580070	0.693590
P31	P3	0.135040	0.663640	0.467860
P41	P4	0.021700	0.736600	0.998890
P51	P5	0.146610	0.547500	0.225460
Al11	Al1	0.314060	0.849400	0.534190
Al21	Al2	0.895160	0.611200	0.374860
Al31	Al3	0.666420	0.554600	0.634770
Al41	Al4	0.070200	0.548600	0.859700
O11	O1	0.498800	0.839900	0.474900
O21	O2	0.018300	0.711200	0.416600
O31	O3	0.071300	0.563400	0.554900
O41	O4	0.192200	0.803500	0.480400
O51	O5	0.732100	0.970400	0.455100
O61	O6	0.478400	0.533300	0.687600
O71	O7	0.074000	0.438400	0.193400
O81	O8	0.742300	0.738300	0.404100
O91	O9	0.684300	0.727900	0.564000
O101	O10	0.236900	0.469200	0.668700
O111	O11	0.243400	0.587800	0.787600
O121	O12	0.273300	0.584800	0.419100
O131	O13	0.026100	0.644400	0.271500
O141	O14	0.300900	0.737700	0.637400
O151	O15	0.251600	0.647200	0.149000
O161	O16	0.028900	0.686100	0.917000
O171	O17	0.921300	0.629400	0.075000
O181	O18	0.237000	0.452400	0.287000
O191	O19	0.180900	0.732700	0.011000
O201	O20	0.947900	0.890300	0.987800
P61	P6	0.334210	0.182130	0.525840
P71	P7	0.687840	0.419930	0.306410
P81	P8	0.864960	0.336360	0.532140
P91	P9	0.978300	0.263400	0.001110
P101	P10	0.853390	0.452500	0.774540
Al51	Al5	0.685940	0.150600	0.465810
Al61	Al6	0.104840	0.388800	0.625140
Al71	Al7	0.333580	0.445400	0.365230
Al81	Al8	0.929800	0.451400	0.140300
O211	O21	0.501200	0.160100	0.525100
O221	O22	0.981700	0.288800	0.583400
O231	O23	0.928700	0.436600	0.445100
O241	O24	0.807800	0.196500	0.519600
O251	O25	0.267900	0.029600	0.544900
O261	O26	0.521600	0.466700	0.312400
O271	O27	0.926000	0.561600	0.806600
O281	O28	0.257700	0.261700	0.595900
O291	O29	0.315700	0.272100	0.436000
O301	O30	0.763100	0.530800	0.331300
O311	O31	0.756600	0.412200	0.212400
O321	O32	0.726700	0.415200	0.580900
O331	O33	0.973900	0.355600	0.728500
O341	O34	0.699100	0.262300	0.362600
O351	O35	0.748400	0.352800	0.851000
O361	O36	0.971100	0.313900	0.083000
O371	O37	0.078700	0.370600	0.925000
O381	O38	0.763000	0.547600	0.713000
O391	O39	0.819100	0.267300	0.989000
O401	O40	0.052100	0.109700	0.012200
