data_JEBCOJ_freeONLY_PM
_symmetry_space_group_name_H-M	'P1'
_cell_length_a	13.377000
_cell_length_b	13.377000
_cell_length_c	14.462000
_cell_angle_alpha	90.000000
_cell_angle_beta	90.000000
_cell_angle_gamma	120.000000
_symmetry_Int_Tables_number 1

loop_
_symmetry_equiv_pos_as_xyz
'x,y,z'

loop_
_atom_site_label
_atom_site_type_symbol
_atom_site_fract_x
_atom_site_fract_y
_atom_site_fract_z
Sm11	Sm1	0.666670	0.333340	0.332430
Sm21	Sm2	0.333330	0.666660	0.167570
Sm31	Sm3	0.333330	0.666660	0.667570
Sm41	Sm4	0.666670	0.333340	0.832430
Cu11	Cu1	0.500000	0.000000	0.500000
Cu21	Cu2	0.500000	0.500000	0.500000
Cu31	Cu3	0.000000	0.500000	0.500000
Cu41	Cu4	0.500000	0.000000	0.000000
Cu51	Cu5	0.000000	0.500000	0.000000
Cu61	Cu6	0.500000	0.500000	0.000000
H11	H1	0.960800	0.254500	0.950000
H21	H2	0.862400	0.180900	0.021100
H31	H3	0.806500	0.267200	0.128300
H41	H4	0.914300	0.313600	0.193500
H51	H5	0.023800	0.349800	0.078700
H61	H6	0.293700	0.039200	0.950000
H71	H7	0.318500	0.137600	0.021100
H81	H8	0.460700	0.193500	0.128300
H91	H9	0.399300	0.085700	0.193500
H101	H10	0.326000	0.976200	0.078700
H111	H11	0.745500	0.706300	0.950000
H121	H12	0.819100	0.681500	0.021100
H131	H13	0.732800	0.539300	0.128300
H141	H14	0.686400	0.600700	0.193500
H151	H15	0.650200	0.674000	0.078700
H161	H16	0.706300	0.745500	0.550000
H171	H17	0.681500	0.819100	0.478900
H181	H18	0.539300	0.732800	0.371700
H191	H19	0.600700	0.686400	0.306500
H201	H20	0.674000	0.650200	0.421300
H211	H21	0.254500	0.960800	0.550000
H221	H22	0.180900	0.862400	0.478900
H231	H23	0.267200	0.806500	0.371700
H241	H24	0.313600	0.914300	0.306500
H251	H25	0.349800	0.023800	0.421300
H261	H26	0.039200	0.293700	0.550000
H271	H27	0.137600	0.318500	0.478900
H281	H28	0.193500	0.460700	0.371700
H291	H29	0.085700	0.399300	0.306500
H301	H30	0.976200	0.326000	0.421300
H311	H31	0.039200	0.745500	0.050000
H321	H32	0.137600	0.819100	0.978900
H331	H33	0.193500	0.732800	0.871700
H341	H34	0.085700	0.686400	0.806500
H351	H35	0.976200	0.650200	0.921300
H361	H36	0.706300	0.960800	0.050000
H371	H37	0.681500	0.862400	0.978900
H381	H38	0.539300	0.806500	0.871700
H391	H39	0.600700	0.914300	0.806500
H401	H40	0.674000	0.023800	0.921300
H411	H41	0.254500	0.293700	0.050000
H421	H42	0.180900	0.318500	0.978900
H431	H43	0.267200	0.460700	0.871700
H441	H44	0.313600	0.399300	0.806500
H451	H45	0.349800	0.326000	0.921300
H461	H46	0.293700	0.254500	0.450000
H471	H47	0.318500	0.180900	0.521100
H481	H48	0.460700	0.267200	0.628300
H491	H49	0.399300	0.313600	0.693500
H501	H50	0.326000	0.349800	0.578700
H511	H51	0.745500	0.039200	0.450000
H521	H52	0.819100	0.137600	0.521100
H531	H53	0.732800	0.193500	0.628300
H541	H54	0.686400	0.085700	0.693500
H551	H55	0.650200	0.976200	0.578700
H561	H56	0.960800	0.706300	0.450000
H571	H57	0.862400	0.681500	0.521100
H581	H58	0.806500	0.539300	0.628300
H591	H59	0.914300	0.600700	0.693500
H601	H60	0.023800	0.674000	0.578700
C11	C1	0.730100	0.183800	0.431400
C21	C2	0.745600	0.097900	0.489900
C31	C3	0.875700	0.437800	0.159900
C41	C4	0.883200	0.332000	0.139800
C51	C5	0.453700	0.269900	0.431400
C61	C6	0.352300	0.254400	0.489900
C71	C7	0.562100	0.124300	0.159900
C81	C8	0.448800	0.116800	0.139800
C91	C9	0.816200	0.546300	0.431400
C101	C10	0.902100	0.647700	0.489900
C111	C11	0.562200	0.437900	0.159900
C121	C12	0.668000	0.551200	0.139800
C131	C13	0.546300	0.816200	0.068600
C141	C14	0.647700	0.902100	0.010100
C151	C15	0.437900	0.562200	0.340100
C161	C16	0.551200	0.668000	0.360200
C171	C17	0.183800	0.730100	0.068600
C181	C18	0.097900	0.745600	0.010100
C191	C19	0.437800	0.875700	0.340100
C201	C20	0.332000	0.883200	0.360200
C211	C21	0.269900	0.453700	0.068600
C221	C22	0.254400	0.352300	0.010100
C231	C23	0.124300	0.562100	0.340100
C241	C24	0.116800	0.448800	0.360200
C251	C25	0.269900	0.816200	0.568600
C261	C26	0.254400	0.902100	0.510100
C271	C27	0.124300	0.562200	0.840100
C281	C28	0.116800	0.668000	0.860200
C291	C29	0.546300	0.730100	0.568600
C301	C30	0.647700	0.745600	0.510100
C311	C31	0.437900	0.875700	0.840100
C321	C32	0.551200	0.883200	0.860200
C331	C33	0.183800	0.453700	0.568600
C341	C34	0.097900	0.352300	0.510100
C351	C35	0.437800	0.562100	0.840100
C361	C36	0.332000	0.448800	0.860200
C371	C37	0.453700	0.183800	0.931400
C381	C38	0.352300	0.097900	0.989900
C391	C39	0.562100	0.437800	0.659900
C401	C40	0.448800	0.332000	0.639800
C411	C41	0.816200	0.269900	0.931400
C421	C42	0.902100	0.254400	0.989900
C431	C43	0.562200	0.124300	0.659900
C441	C44	0.668000	0.116800	0.639800
C451	C45	0.730100	0.546300	0.931400
C461	C46	0.745600	0.647700	0.989900
C471	C47	0.875700	0.437900	0.659900
C481	C48	0.883200	0.551200	0.639800
N11	N1	0.652600	0.041900	0.558700
N21	N2	0.389300	0.347400	0.558700
N31	N3	0.958100	0.610700	0.558700
N41	N4	0.610700	0.958100	0.941300
N51	N5	0.041900	0.652600	0.941300
N61	N6	0.347400	0.389300	0.941300
N71	N7	0.347400	0.958100	0.441300
N81	N8	0.610700	0.652600	0.441300
N91	N9	0.041900	0.389300	0.441300
N101	N10	0.389300	0.041900	0.058700
N111	N11	0.958100	0.347400	0.058700
N121	N12	0.652600	0.610700	0.058700
O11	O1	0.639100	0.187900	0.441700
O21	O2	0.754500	0.559500	0.373000
O31	O3	0.597700	0.073700	0.107700
O41	O4	0.817100	0.435800	0.228400
O51	O5	0.548800	0.360900	0.441700
O61	O6	0.805000	0.245500	0.373000
O71	O7	0.476000	0.402300	0.107700
O81	O8	0.618700	0.182900	0.228400
O91	O9	0.812100	0.451200	0.441700
O101	O10	0.440500	0.195000	0.373000
O111	O11	0.926300	0.524000	0.107700
O121	O12	0.564200	0.381300	0.228400
O131	O13	0.451200	0.812100	0.058300
O141	O14	0.195000	0.440500	0.127000
O151	O15	0.524000	0.926300	0.392300
O161	O16	0.381300	0.564200	0.271600
O171	O17	0.187900	0.639100	0.058300
O181	O18	0.559500	0.754500	0.127000
O191	O19	0.073700	0.597700	0.392300
O201	O20	0.435800	0.817100	0.271600
O211	O21	0.360900	0.548800	0.058300
O221	O22	0.245500	0.805000	0.127000
O231	O23	0.402300	0.476000	0.392300
O241	O24	0.182900	0.618700	0.271600
O251	O25	0.360900	0.812100	0.558300
O261	O26	0.245500	0.440500	0.627000
O271	O27	0.402300	0.926300	0.892300
O281	O28	0.182900	0.564200	0.771600
O291	O29	0.451200	0.639100	0.558300
O301	O30	0.195000	0.754500	0.627000
O311	O31	0.524000	0.597700	0.892300
O321	O32	0.381300	0.817100	0.771600
O331	O33	0.187900	0.548800	0.558300
O341	O34	0.559500	0.805000	0.627000
O351	O35	0.073700	0.476000	0.892300
O361	O36	0.435800	0.618700	0.771600
O371	O37	0.548800	0.187900	0.941700
O381	O38	0.805000	0.559500	0.873000
O391	O39	0.476000	0.073700	0.607700
O401	O40	0.618700	0.435800	0.728400
O411	O41	0.812100	0.360900	0.941700
O421	O42	0.440500	0.245500	0.873000
O431	O43	0.926300	0.402300	0.607700
O441	O44	0.564200	0.182900	0.728400
O451	O45	0.639100	0.451200	0.941700
O461	O46	0.754500	0.195000	0.873000
O471	O47	0.597700	0.524000	0.607700
O481	O48	0.817100	0.381300	0.728400
