data_JEDJUY_freeONLY_PM
_symmetry_space_group_name_H-M	'P1'
_cell_length_a	7.119000
_cell_length_b	8.783000
_cell_length_c	15.067000
_cell_angle_alpha	79.610000
_cell_angle_beta	87.520000
_cell_angle_gamma	83.210000
_symmetry_Int_Tables_number 1

loop_
_symmetry_equiv_pos_as_xyz
'x,y,z'

loop_
_atom_site_label
_atom_site_type_symbol
_atom_site_fract_x
_atom_site_fract_y
_atom_site_fract_z
K11	K1	0.013730	0.551820	0.127510
K21	K2	0.986270	0.448180	0.872490
Gd11	Gd1	0.523960	0.390180	0.225090
Gd21	Gd2	0.476040	0.609820	0.774910
H11	H1	0.324600	0.491200	0.486100
H21	H2	0.626600	0.034600	0.854200
H31	H3	0.675400	0.508800	0.513900
H41	H4	0.373400	0.965400	0.145800
C11	C1	0.193600	0.494500	0.491900
C21	C2	0.092100	0.466300	0.421500
C31	C3	0.104400	0.527600	0.570900
C41	C4	0.207800	0.429200	0.340000
C51	C5	0.222000	0.558600	0.644600
C61	C6	0.488000	0.149300	0.946800
C71	C7	0.298600	0.262100	0.070300
C81	C8	0.410300	0.127300	0.035100
C91	C9	0.576200	0.020900	0.912700
C101	C10	0.487700	0.308000	0.891000
C111	C11	0.806400	0.505500	0.508100
C121	C12	0.907900	0.533700	0.578500
C131	C13	0.895600	0.472400	0.429100
C141	C14	0.792200	0.570800	0.660000
C151	C15	0.778000	0.441400	0.355400
C161	C16	0.512000	0.850700	0.053200
C171	C17	0.701400	0.737900	0.929700
C181	C18	0.589700	0.872700	0.964900
C191	C19	0.423800	0.979100	0.087300
C201	C20	0.512300	0.692000	0.109000
O11	O1	0.287700	0.293600	0.342280
O21	O2	0.239100	0.537800	0.276200
O31	O3	0.145900	0.591800	0.716310
O41	O4	0.398000	0.552800	0.630790
O51	O5	0.320000	0.270100	0.152270
O61	O6	0.193200	0.354400	0.017760
O71	O7	0.584400	0.404400	0.914170
O81	O8	0.393800	0.342600	0.818960
O91	O9	0.670400	0.135000	0.277500
O101	O10	0.730800	0.343800	0.097400
O111	O11	0.712300	0.706400	0.657720
O121	O12	0.760900	0.462200	0.723800
O131	O13	0.854100	0.408200	0.283690
O141	O14	0.602000	0.447200	0.369210
O151	O15	0.680000	0.729900	0.847730
O161	O16	0.806800	0.645600	0.982240
O171	O17	0.415600	0.595600	0.085830
O181	O18	0.606200	0.657400	0.181040
O191	O19	0.329600	0.865000	0.722500
O201	O20	0.269200	0.656200	0.902600
