data_JEJKEP_freeONLY_PM
_symmetry_space_group_name_H-M	'P1'
_cell_length_a	9.358200
_cell_length_b	10.953000
_cell_length_c	24.370000
_cell_angle_alpha	90.000000
_cell_angle_beta	90.000000
_cell_angle_gamma	90.000000
_symmetry_Int_Tables_number 1

loop_
_symmetry_equiv_pos_as_xyz
'x,y,z'

loop_
_atom_site_label
_atom_site_type_symbol
_atom_site_fract_x
_atom_site_fract_y
_atom_site_fract_z
Co11	Co1	0.757350	0.270130	0.961620
Co21	Co2	0.742650	0.229870	0.461620
Co31	Co3	0.242650	0.270130	0.538380
Co41	Co4	0.257350	0.229870	0.038380
Co51	Co5	0.242650	0.729870	0.038380
Co61	Co6	0.257350	0.770130	0.538380
Co71	Co7	0.757350	0.729870	0.461620
Co81	Co8	0.742650	0.770130	0.961620
H11	H1	0.615500	0.065400	0.071500
H21	H2	0.849800	0.980000	0.067300
H31	H3	0.838100	0.092100	0.106800
H41	H4	0.900500	0.098300	0.882200
H51	H5	0.003000	0.090400	0.797300
H61	H6	0.912700	0.446800	0.780600
H71	H7	0.816400	0.442900	0.866500
H81	H8	0.884500	0.434600	0.571500
H91	H9	0.650200	0.520000	0.567300
H101	H10	0.661900	0.407900	0.606800
H111	H11	0.599500	0.401700	0.382200
H121	H12	0.497000	0.409600	0.297300
H131	H13	0.587300	0.053200	0.280600
H141	H14	0.683600	0.057100	0.366500
H151	H15	0.384500	0.065400	0.428500
H161	H16	0.150200	0.980000	0.432700
H171	H17	0.161900	0.092100	0.393200
H181	H18	0.099500	0.098300	0.617800
H191	H19	0.997000	0.090400	0.702700
H201	H20	0.087300	0.446800	0.719400
H211	H21	0.183600	0.442900	0.633500
H221	H22	0.115500	0.434600	0.928500
H231	H23	0.349800	0.520000	0.932700
H241	H24	0.338100	0.407900	0.893200
H251	H25	0.400500	0.401700	0.117800
H261	H26	0.503000	0.409600	0.202700
H271	H27	0.412700	0.053200	0.219400
H281	H28	0.316400	0.057100	0.133500
H291	H29	0.384500	0.934600	0.928500
H301	H30	0.150200	0.020000	0.932700
H311	H31	0.161900	0.907900	0.893200
H321	H32	0.099500	0.901700	0.117800
H331	H33	0.997000	0.909600	0.202700
H341	H34	0.087300	0.553200	0.219400
H351	H35	0.183600	0.557100	0.133500
H361	H36	0.115500	0.565400	0.428500
H371	H37	0.349800	0.480000	0.432700
H381	H38	0.338100	0.592100	0.393200
H391	H39	0.400500	0.598300	0.617800
H401	H40	0.503000	0.590400	0.702700
H411	H41	0.412700	0.946800	0.719400
H421	H42	0.316400	0.942900	0.633500
H431	H43	0.615500	0.934600	0.571500
H441	H44	0.849800	0.020000	0.567300
H451	H45	0.838100	0.907900	0.606800
H461	H46	0.900500	0.901700	0.382200
H471	H47	0.003000	0.909600	0.297300
H481	H48	0.912700	0.553200	0.280600
H491	H49	0.816400	0.557100	0.366500
H501	H50	0.884500	0.565400	0.071500
H511	H51	0.650200	0.480000	0.067300
H521	H52	0.661900	0.592100	0.106800
H531	H53	0.599500	0.598300	0.882200
H541	H54	0.497000	0.590400	0.797300
H551	H55	0.587300	0.946800	0.780600
H561	H56	0.683600	0.942900	0.866500
C11	C1	0.664500	0.035900	0.989610
C21	C2	0.687700	0.096100	0.045840
C31	C3	0.835700	0.067700	0.068570
C41	C4	0.958600	0.127700	0.039530
C51	C5	0.903500	0.169300	0.861290
C61	C6	0.964500	0.163200	0.810180
C71	C7	0.967700	0.268700	0.777870
C81	C8	0.911500	0.374200	0.800350
C91	C9	0.853700	0.371000	0.852130
C101	C10	0.835500	0.464100	0.489610
C111	C11	0.812300	0.403900	0.545840
C121	C12	0.664300	0.432300	0.568570
C131	C13	0.541400	0.372300	0.539530
C141	C14	0.596500	0.330700	0.361290
C151	C15	0.535500	0.336800	0.310180
C161	C16	0.532300	0.231300	0.277870
C171	C17	0.588500	0.125800	0.300350
C181	C18	0.646300	0.129000	0.352130
C191	C19	0.335500	0.035900	0.510390
C201	C20	0.312300	0.096100	0.454160
C211	C21	0.164300	0.067700	0.431430
C221	C22	0.041400	0.127700	0.460470
C231	C23	0.096500	0.169300	0.638710
C241	C24	0.035500	0.163200	0.689820
C251	C25	0.032300	0.268700	0.722130
C261	C26	0.088500	0.374200	0.699650
C271	C27	0.146300	0.371000	0.647870
C281	C28	0.164500	0.464100	0.010390
C291	C29	0.187700	0.403900	0.954160
C301	C30	0.335700	0.432300	0.931430
C311	C31	0.458600	0.372300	0.960470
C321	C32	0.403500	0.330700	0.138710
C331	C33	0.464500	0.336800	0.189820
C341	C34	0.467700	0.231300	0.222130
C351	C35	0.411500	0.125800	0.199650
C361	C36	0.353700	0.129000	0.147870
C371	C37	0.335500	0.964100	0.010390
C381	C38	0.312300	0.903900	0.954160
C391	C39	0.164300	0.932300	0.931430
C401	C40	0.041400	0.872300	0.960470
C411	C41	0.096500	0.830700	0.138710
C421	C42	0.035500	0.836800	0.189820
C431	C43	0.032300	0.731300	0.222130
C441	C44	0.088500	0.625800	0.199650
C451	C45	0.146300	0.629000	0.147870
C461	C46	0.164500	0.535900	0.510390
C471	C47	0.187700	0.596100	0.454160
C481	C48	0.335700	0.567700	0.431430
C491	C49	0.458600	0.627700	0.460470
C501	C50	0.403500	0.669300	0.638710
C511	C51	0.464500	0.663200	0.689820
C521	C52	0.467700	0.768700	0.722130
C531	C53	0.411500	0.874200	0.699650
C541	C54	0.353700	0.871000	0.647870
C551	C55	0.664500	0.964100	0.489610
C561	C56	0.687700	0.903900	0.545840
C571	C57	0.835700	0.932300	0.568570
C581	C58	0.958600	0.872300	0.539530
C591	C59	0.903500	0.830700	0.361290
C601	C60	0.964500	0.836800	0.310180
C611	C61	0.967700	0.731300	0.277870
C621	C62	0.911500	0.625800	0.300350
C631	C63	0.853700	0.629000	0.352130
C641	C64	0.835500	0.535900	0.989610
C651	C65	0.812300	0.596100	0.045840
C661	C66	0.664300	0.567700	0.068570
C671	C67	0.541400	0.627700	0.039530
C681	C68	0.596500	0.669300	0.861290
C691	C69	0.535500	0.663200	0.810180
C701	C70	0.532300	0.768700	0.777870
C711	C71	0.588500	0.874200	0.800350
C721	C72	0.646300	0.871000	0.852130
N11	N1	0.848100	0.270900	0.882860
N21	N2	0.651900	0.229100	0.382860
N31	N3	0.151900	0.270900	0.617140
N41	N4	0.348100	0.229100	0.117140
N51	N5	0.151900	0.729100	0.117140
N61	N6	0.348100	0.770900	0.617140
N71	N7	0.848100	0.729100	0.382860
N81	N8	0.651900	0.770900	0.882860
O11	O1	0.665000	0.101600	0.947480
O21	O2	0.646100	0.923060	0.990760
O31	O3	0.675000	0.226120	0.042140
O41	O4	0.938400	0.172350	0.991630
O51	O5	0.076900	0.129200	0.063330
O61	O6	0.835000	0.398400	0.447480
O71	O7	0.853900	0.576940	0.490760
O81	O8	0.825000	0.273880	0.542140
O91	O9	0.561600	0.327650	0.491630
O101	O10	0.423100	0.370800	0.563330
O111	O11	0.335000	0.101600	0.552520
O121	O12	0.353900	0.923060	0.509240
O131	O13	0.325000	0.226120	0.457860
O141	O14	0.061600	0.172350	0.508370
O151	O15	0.923100	0.129200	0.436670
O161	O16	0.165000	0.398400	0.052520
O171	O17	0.146100	0.576940	0.009240
O181	O18	0.175000	0.273880	0.957860
O191	O19	0.438400	0.327650	0.008370
O201	O20	0.576900	0.370800	0.936670
O211	O21	0.335000	0.898400	0.052520
O221	O22	0.353900	0.076940	0.009240
O231	O23	0.325000	0.773880	0.957860
O241	O24	0.061600	0.827650	0.008370
O251	O25	0.923100	0.870800	0.936670
O261	O26	0.165000	0.601600	0.552520
O271	O27	0.146100	0.423060	0.509240
O281	O28	0.175000	0.726120	0.457860
O291	O29	0.438400	0.672350	0.508370
O301	O30	0.576900	0.629200	0.436670
O311	O31	0.665000	0.898400	0.447480
O321	O32	0.646100	0.076940	0.490760
O331	O33	0.675000	0.773880	0.542140
O341	O34	0.938400	0.827650	0.491630
O351	O35	0.076900	0.870800	0.563330
O361	O36	0.835000	0.601600	0.947480
O371	O37	0.853900	0.423060	0.990760
O381	O38	0.825000	0.726120	0.042140
O391	O39	0.561600	0.672350	0.991630
O401	O40	0.423100	0.629200	0.063330
