data_JEMNAR_freeONLY_PM
_symmetry_space_group_name_H-M	'P1'
_cell_length_a	9.354900
_cell_length_b	13.104000
_cell_length_c	10.883000
_cell_angle_alpha	113.080000
_cell_angle_beta	90.000000
_cell_angle_gamma	90.000000
_symmetry_Int_Tables_number 1

loop_
_symmetry_equiv_pos_as_xyz
'x,y,z'

loop_
_atom_site_label
_atom_site_type_symbol
_atom_site_fract_x
_atom_site_fract_y
_atom_site_fract_z
Ni11	Ni1	0.761610	0.574370	0.806660
Ni21	Ni2	0.261610	0.425630	0.693340
Ni31	Ni3	0.238390	0.425630	0.193340
Ni41	Ni4	0.738390	0.574370	0.306660
H11	H1	0.620300	0.353000	0.503000
H21	H2	0.844100	0.282700	0.495000
H31	H3	0.853800	0.361700	0.418600
H41	H4	0.893700	0.731100	0.706900
H51	H5	0.991800	0.904000	0.776600
H61	H6	0.926500	0.936400	0.152000
H71	H7	0.835700	0.759800	0.071800
H81	H8	0.120300	0.647000	0.997000
H91	H9	0.344100	0.717300	0.005000
H101	H10	0.353800	0.638300	0.081400
H111	H11	0.393700	0.268900	0.793100
H121	H12	0.491800	0.096000	0.723400
H131	H13	0.426500	0.063600	0.348000
H141	H14	0.335700	0.240200	0.428200
H151	H15	0.379700	0.647000	0.497000
H161	H16	0.155900	0.717300	0.505000
H171	H17	0.146200	0.638300	0.581400
H181	H18	0.106300	0.268900	0.293100
H191	H19	0.008200	0.096000	0.223400
H201	H20	0.073500	0.063600	0.848000
H211	H21	0.164300	0.240200	0.928200
H221	H22	0.879700	0.353000	0.003000
H231	H23	0.655900	0.282700	0.995000
H241	H24	0.646200	0.361700	0.918600
H251	H25	0.606300	0.731100	0.206900
H261	H26	0.508200	0.904000	0.276600
H271	H27	0.573500	0.936400	0.652000
H281	H28	0.664300	0.759800	0.571800
C11	C1	0.668000	0.518000	0.547800
C21	C2	0.692500	0.405600	0.557300
C31	C3	0.840600	0.359800	0.506000
C41	C4	0.963600	0.420700	0.594500
C51	C5	0.899600	0.773300	0.798200
C61	C6	0.958700	0.877400	0.839100
C71	C7	0.968400	0.942700	0.975300
C81	C8	0.921000	0.896200	0.060300
C91	C9	0.864700	0.790000	0.011400
C101	C10	0.168000	0.482000	0.952200
C111	C11	0.192500	0.594400	0.942700
C121	C12	0.340600	0.640200	0.994000
C131	C13	0.463600	0.579300	0.905500
C141	C14	0.399600	0.226700	0.701800
C151	C15	0.458700	0.122600	0.660900
C161	C16	0.468400	0.057300	0.524700
C171	C17	0.421000	0.103800	0.439700
C181	C18	0.364700	0.210000	0.488600
C191	C19	0.332000	0.482000	0.452200
C201	C20	0.307500	0.594400	0.442700
C211	C21	0.159400	0.640200	0.494000
C221	C22	0.036400	0.579300	0.405500
C231	C23	0.100400	0.226700	0.201800
C241	C24	0.041300	0.122600	0.160900
C251	C25	0.031600	0.057300	0.024700
C261	C26	0.079000	0.103800	0.939700
C271	C27	0.135300	0.210000	0.988600
C281	C28	0.832000	0.518000	0.047800
C291	C29	0.807500	0.405600	0.057300
C301	C30	0.659400	0.359800	0.006000
C311	C31	0.536400	0.420700	0.094500
C321	C32	0.600400	0.773300	0.298200
C331	C33	0.541300	0.877400	0.339100
C341	C34	0.531600	0.942700	0.475300
C351	C35	0.579000	0.896200	0.560300
C361	C36	0.635300	0.790000	0.511400
N11	N1	0.850600	0.729100	0.880600
N21	N2	0.350600	0.270900	0.619400
N31	N3	0.149400	0.270900	0.119400
N41	N4	0.649400	0.729100	0.380600
O11	O1	0.669000	0.603800	0.653800
O21	O2	0.645500	0.513800	0.432600
O31	O3	0.680900	0.414600	0.693300
O41	O4	0.942400	0.515900	0.685600
O51	O5	0.084400	0.374500	0.571200
O61	O6	0.169000	0.396200	0.846200
O71	O7	0.145500	0.486200	0.067400
O81	O8	0.180900	0.585400	0.806700
O91	O9	0.442400	0.484100	0.814400
O101	O10	0.584400	0.625500	0.928800
O111	O11	0.331000	0.396200	0.346200
O121	O12	0.354500	0.486200	0.567400
O131	O13	0.319100	0.585400	0.306700
O141	O14	0.057600	0.484100	0.314400
O151	O15	0.915600	0.625500	0.428800
O161	O16	0.831000	0.603800	0.153800
O171	O17	0.854500	0.513800	0.932600
O181	O18	0.819100	0.414600	0.193300
O191	O19	0.557600	0.515900	0.185600
O201	O20	0.415600	0.374500	0.071200
