data_JEWYAM_charged_PM
_symmetry_space_group_name_H-M	'P1'
_cell_length_a	19.115800
_cell_length_b	19.115800
_cell_length_c	19.115800
_cell_angle_alpha	90.000000
_cell_angle_beta	90.000000
_cell_angle_gamma	90.000000
_symmetry_Int_Tables_number 1

loop_
_symmetry_equiv_pos_as_xyz
'x,y,z'

loop_
_atom_site_label
_atom_site_type_symbol
_atom_site_fract_x
_atom_site_fract_y
_atom_site_fract_z
Mn11	Mn1	0.856900	0.500000	0.000000
Mn21	Mn2	0.143100	0.500000	0.000000
Mn31	Mn3	0.000000	0.856900	0.500000
Mn41	Mn4	0.000000	0.143100	0.500000
Mn51	Mn5	0.500000	0.000000	0.856900
Mn61	Mn6	0.500000	0.000000	0.143100
Mn71	Mn7	0.500000	0.856900	0.000000
Mn81	Mn8	0.500000	0.143100	0.000000
Mn91	Mn9	0.856900	0.000000	0.500000
Mn101	Mn10	0.143100	0.000000	0.500000
Mn111	Mn11	0.000000	0.500000	0.143100
Mn121	Mn12	0.000000	0.500000	0.856900
H11	H1	0.740700	0.740700	0.110300
H21	H2	0.259300	0.259300	0.110300
H31	H3	0.259300	0.740700	0.889700
H41	H4	0.740700	0.259300	0.889700
H51	H5	0.110300	0.740700	0.740700
H61	H6	0.110300	0.259300	0.259300
H71	H7	0.889700	0.259300	0.740700
H81	H8	0.889700	0.740700	0.259300
H91	H9	0.740700	0.110300	0.740700
H101	H10	0.259300	0.110300	0.259300
H111	H11	0.740700	0.889700	0.259300
H121	H12	0.259300	0.889700	0.740700
H131	H13	0.740700	0.740700	0.889700
H141	H14	0.259300	0.259300	0.889700
H151	H15	0.740700	0.259300	0.110300
H161	H16	0.259300	0.740700	0.110300
H171	H17	0.740700	0.110300	0.259300
H181	H18	0.259300	0.110300	0.740700
H191	H19	0.259300	0.889700	0.259300
H201	H20	0.740700	0.889700	0.740700
H211	H21	0.110300	0.740700	0.259300
H221	H22	0.110300	0.259300	0.740700
H231	H23	0.889700	0.740700	0.740700
H241	H24	0.889700	0.259300	0.259300
C11	C1	0.850200	0.667100	0.149800
C21	C2	0.819270	0.730300	0.180730
C31	C3	0.149800	0.332900	0.149800
C41	C4	0.180730	0.269700	0.180730
C51	C5	0.149800	0.667100	0.850200
C61	C6	0.180730	0.730300	0.819270
C71	C7	0.850200	0.332900	0.850200
C81	C8	0.819270	0.269700	0.819270
C91	C9	0.149800	0.850200	0.667100
C101	C10	0.180730	0.819270	0.730300
C111	C11	0.149800	0.149800	0.332900
C121	C12	0.180730	0.180730	0.269700
C131	C13	0.850200	0.149800	0.667100
C141	C14	0.819270	0.180730	0.730300
C151	C15	0.850200	0.850200	0.332900
C161	C16	0.819270	0.819270	0.269700
C171	C17	0.667100	0.149800	0.850200
C181	C18	0.730300	0.180730	0.819270
C191	C19	0.332900	0.149800	0.149800
C201	C20	0.269700	0.180730	0.180730
C211	C21	0.667100	0.850200	0.149800
C221	C22	0.730300	0.819270	0.180730
C231	C23	0.332900	0.850200	0.850200
C241	C24	0.269700	0.819270	0.819270
C251	C25	0.667100	0.850200	0.850200
C261	C26	0.730300	0.819270	0.819270
C271	C27	0.332900	0.149800	0.850200
C281	C28	0.269700	0.180730	0.819270
C291	C29	0.667100	0.149800	0.149800
C301	C30	0.730300	0.180730	0.180730
C311	C31	0.332900	0.850200	0.149800
C321	C32	0.269700	0.819270	0.180730
C331	C33	0.850200	0.149800	0.332900
C341	C34	0.819270	0.180730	0.269700
C351	C35	0.149800	0.149800	0.667100
C361	C36	0.180730	0.180730	0.730300
C371	C37	0.149800	0.850200	0.332900
C381	C38	0.180730	0.819270	0.269700
C391	C39	0.850200	0.850200	0.667100
C401	C40	0.819270	0.819270	0.730300
C411	C41	0.149800	0.667100	0.149800
C421	C42	0.180730	0.730300	0.180730
C431	C43	0.149800	0.332900	0.850200
C441	C44	0.180730	0.269700	0.819270
C451	C45	0.850200	0.667100	0.850200
C461	C46	0.819270	0.730300	0.819270
C471	C47	0.850200	0.332900	0.149800
C481	C48	0.819270	0.269700	0.180730
C491	C49	0.760100	0.760100	0.150500
C501	C50	0.239900	0.239900	0.150500
C511	C51	0.239900	0.760100	0.849500
C521	C52	0.760100	0.239900	0.849500
C531	C53	0.150500	0.760100	0.760100
C541	C54	0.150500	0.239900	0.239900
C551	C55	0.849500	0.239900	0.760100
C561	C56	0.849500	0.760100	0.239900
C571	C57	0.760100	0.150500	0.760100
C581	C58	0.239900	0.150500	0.239900
C591	C59	0.760100	0.849500	0.239900
C601	C60	0.239900	0.849500	0.760100
C611	C61	0.760100	0.760100	0.849500
C621	C62	0.239900	0.239900	0.849500
C631	C63	0.760100	0.239900	0.150500
C641	C64	0.239900	0.760100	0.150500
C651	C65	0.760100	0.150500	0.239900
C661	C66	0.239900	0.150500	0.760100
C671	C67	0.239900	0.849500	0.239900
C681	C68	0.760100	0.849500	0.760100
C691	C69	0.150500	0.760100	0.239900
C701	C70	0.150500	0.239900	0.760100
C711	C71	0.849500	0.760100	0.760100
C721	C72	0.849500	0.239900	0.239900
N11	N1	0.867760	0.580670	0.083360
N21	N2	0.824840	0.634910	0.092740
N31	N3	0.132240	0.419330	0.083360
N41	N4	0.175160	0.365090	0.092740
N51	N5	0.132240	0.580670	0.916640
N61	N6	0.175160	0.634910	0.907260
N71	N7	0.867760	0.419330	0.916640
N81	N8	0.824840	0.365090	0.907260
N91	N9	0.083360	0.867760	0.580670
N101	N10	0.092740	0.824840	0.634910
N111	N11	0.083360	0.132240	0.419330
N121	N12	0.092740	0.175160	0.365090
N131	N13	0.916640	0.132240	0.580670
N141	N14	0.907260	0.175160	0.634910
N151	N15	0.916640	0.867760	0.419330
N161	N16	0.907260	0.824840	0.365090
N171	N17	0.580670	0.083360	0.867760
N181	N18	0.634910	0.092740	0.824840
N191	N19	0.419330	0.083360	0.132240
N201	N20	0.365090	0.092740	0.175160
N211	N21	0.580670	0.916640	0.132240
N221	N22	0.634910	0.907260	0.175160
N231	N23	0.419330	0.916640	0.867760
N241	N24	0.365090	0.907260	0.824840
N251	N25	0.580670	0.867760	0.916640
N261	N26	0.634910	0.824840	0.907260
N271	N27	0.419330	0.132240	0.916640
N281	N28	0.365090	0.175160	0.907260
N291	N29	0.580670	0.132240	0.083360
N301	N30	0.634910	0.175160	0.092740
N311	N31	0.419330	0.867760	0.083360
N321	N32	0.365090	0.824840	0.092740
N331	N33	0.867760	0.083360	0.419330
N341	N34	0.824840	0.092740	0.365090
N351	N35	0.132240	0.083360	0.580670
N361	N36	0.175160	0.092740	0.634910
N371	N37	0.132240	0.916640	0.419330
N381	N38	0.175160	0.907260	0.365090
N391	N39	0.867760	0.916640	0.580670
N401	N40	0.824840	0.907260	0.634910
N411	N41	0.083360	0.580670	0.132240
N421	N42	0.092740	0.634910	0.175160
N431	N43	0.083360	0.419330	0.867760
N441	N44	0.092740	0.365090	0.824840
N451	N45	0.916640	0.580670	0.867760
N461	N46	0.907260	0.634910	0.824840
N471	N47	0.916640	0.419330	0.132240
N481	N48	0.907260	0.365090	0.175160
N491	N49	0.132240	0.419330	0.916640
N501	N50	0.175160	0.365090	0.907260
N511	N51	0.867760	0.580670	0.916640
N521	N52	0.824840	0.634910	0.907260
N531	N53	0.867760	0.419330	0.083360
N541	N54	0.824840	0.365090	0.092740
N551	N55	0.132240	0.580670	0.083360
N561	N56	0.175160	0.634910	0.092740
N571	N57	0.916640	0.132240	0.419330
N581	N58	0.907260	0.175160	0.365090
N591	N59	0.916640	0.867760	0.580670
N601	N60	0.907260	0.824840	0.634910
N611	N61	0.083360	0.867760	0.419330
N621	N62	0.092740	0.824840	0.365090
N631	N63	0.083360	0.132240	0.580670
N641	N64	0.092740	0.175160	0.634910
N651	N65	0.419330	0.916640	0.132240
N661	N66	0.365090	0.907260	0.175160
N671	N67	0.580670	0.916640	0.867760
N681	N68	0.634910	0.907260	0.824840
N691	N69	0.419330	0.083360	0.867760
N701	N70	0.365090	0.092740	0.824840
N711	N71	0.580670	0.083360	0.132240
N721	N72	0.634910	0.092740	0.175160
N731	N73	0.419330	0.132240	0.083360
N741	N74	0.365090	0.175160	0.092740
N751	N75	0.580670	0.867760	0.083360
N761	N76	0.634910	0.824840	0.092740
N771	N77	0.419330	0.867760	0.916640
N781	N78	0.365090	0.824840	0.907260
N791	N79	0.580670	0.132240	0.916640
N801	N80	0.634910	0.175160	0.907260
N811	N81	0.132240	0.916640	0.580670
N821	N82	0.175160	0.907260	0.634910
N831	N83	0.867760	0.916640	0.419330
N841	N84	0.824840	0.907260	0.365090
N851	N85	0.867760	0.083360	0.580670
N861	N86	0.824840	0.092740	0.634910
N871	N87	0.132240	0.083360	0.419330
N881	N88	0.175160	0.092740	0.365090
N891	N89	0.916640	0.419330	0.867760
N901	N90	0.907260	0.365090	0.824840
N911	N91	0.916640	0.580670	0.132240
N921	N92	0.907260	0.634910	0.175160
N931	N93	0.083360	0.419330	0.132240
N941	N94	0.092740	0.365090	0.175160
N951	N95	0.083360	0.580670	0.867760
N961	N96	0.092740	0.634910	0.824840
Cl11	Cl1	0.000000	0.500000	0.000000
Cl21	Cl2	0.000000	0.000000	0.500000
Cl31	Cl3	0.500000	0.000000	0.000000
O11	O1	0.746000	0.500000	0.000000
O21	O2	0.254000	0.500000	0.000000
O31	O3	0.000000	0.746000	0.500000
O41	O4	0.000000	0.254000	0.500000
O51	O5	0.500000	0.000000	0.746000
O61	O6	0.500000	0.000000	0.254000
O71	O7	0.500000	0.746000	0.000000
O81	O8	0.500000	0.254000	0.000000
O91	O9	0.746000	0.000000	0.500000
O101	O10	0.254000	0.000000	0.500000
O111	O11	0.000000	0.500000	0.254000
O121	O12	0.000000	0.500000	0.746000
