data_JEYXOB_freeONLY_PM
_symmetry_space_group_name_H-M	'P1'
_cell_length_a	7.682700
_cell_length_b	7.726900
_cell_length_c	18.092000
_cell_angle_alpha	90.000000
_cell_angle_beta	94.443000
_cell_angle_gamma	90.000000
_symmetry_Int_Tables_number 1

loop_
_symmetry_equiv_pos_as_xyz
'x,y,z'

loop_
_atom_site_label
_atom_site_type_symbol
_atom_site_fract_x
_atom_site_fract_y
_atom_site_fract_z
Fe11	Fe1	0.113720	0.584910	0.361000
Fe21	Fe2	0.776570	0.333460	0.311260
P11	P1	0.940770	0.947200	0.308100
H11	H1	0.831200	0.883200	0.298500
O11	O1	0.059900	0.837400	0.360210
O21	O2	0.278000	0.370400	0.375660
O31	O3	0.902200	0.471400	0.410360
O41	O4	0.019700	0.970700	0.233570
O51	O5	0.816500	0.378500	0.518620
O61	O6	0.339100	0.650400	0.292790
O71	O7	0.896800	0.116600	0.343580
O81	O8	0.547200	0.279200	0.362890
O91	O9	0.605700	0.542900	0.275040
C11	C1	0.425400	0.383100	0.350930
C21	C2	0.917000	0.454700	0.480000
C31	C3	0.459900	0.540300	0.300990
Fe31	Fe3	0.886280	0.084910	0.139000
Fe41	Fe4	0.223430	0.833460	0.188740
P21	P2	0.059230	0.447200	0.191900
H21	H2	0.168800	0.383200	0.201500
O101	O10	0.940100	0.337400	0.139790
O111	O11	0.722000	0.870400	0.124340
O121	O12	0.097800	0.971400	0.089640
O131	O13	0.980300	0.470700	0.266430
O141	O14	0.183500	0.878500	0.981380
O151	O15	0.660900	0.150400	0.207210
O161	O16	0.103200	0.616600	0.156420
O171	O17	0.452800	0.779200	0.137110
O181	O18	0.394300	0.042900	0.224960
C41	C4	0.574600	0.883100	0.149070
C51	C5	0.083000	0.954700	0.020000
C61	C6	0.540100	0.040300	0.199010
Fe51	Fe5	0.886280	0.415090	0.639000
Fe61	Fe6	0.223430	0.666540	0.688740
P31	P3	0.059230	0.052800	0.691900
H31	H3	0.168800	0.116800	0.701500
O191	O19	0.940100	0.162600	0.639790
O201	O20	0.722000	0.629600	0.624340
O211	O21	0.097800	0.528600	0.589640
O221	O22	0.980300	0.029300	0.766430
O231	O23	0.183500	0.621500	0.481380
O241	O24	0.660900	0.349600	0.707210
O251	O25	0.103200	0.883400	0.656420
O261	O26	0.452800	0.720800	0.637110
O271	O27	0.394300	0.457100	0.724960
C71	C7	0.574600	0.616900	0.649070
C81	C8	0.083000	0.545300	0.520000
C91	C9	0.540100	0.459700	0.699010
Fe71	Fe7	0.113720	0.915090	0.861000
Fe81	Fe8	0.776570	0.166540	0.811260
P41	P4	0.940770	0.552800	0.808100
H41	H4	0.831200	0.616800	0.798500
O281	O28	0.059900	0.662600	0.860210
O291	O29	0.278000	0.129600	0.875660
O301	O30	0.902200	0.028600	0.910360
O311	O31	0.019700	0.529300	0.733570
O321	O32	0.816500	0.121500	0.018620
O331	O33	0.339100	0.849600	0.792790
O341	O34	0.896800	0.383400	0.843580
O351	O35	0.547200	0.220800	0.862890
O361	O36	0.605700	0.957100	0.775040
C101	C10	0.425400	0.116900	0.850930
C111	C11	0.917000	0.045300	0.980000
C121	C12	0.459900	0.959700	0.800990
