data_JILWOR_freeONLY_PM
_symmetry_space_group_name_H-M	'P1'
_cell_length_a	18.905600
_cell_length_b	18.905600
_cell_length_c	18.905600
_cell_angle_alpha	90.000000
_cell_angle_beta	90.000000
_cell_angle_gamma	90.000000
_symmetry_Int_Tables_number 1

loop_
_symmetry_equiv_pos_as_xyz
'x,y,z'

loop_
_atom_site_label
_atom_site_type_symbol
_atom_site_fract_x
_atom_site_fract_y
_atom_site_fract_z
P11	P1	0.070810	0.551660	0.667230
Al11	Al1	0.954360	0.431720	0.665970
O11	O1	0.999700	0.514300	0.660200
O21	O2	0.064400	0.621100	0.629500
O31	O3	0.086600	0.566500	0.744500
O41	O4	0.129400	0.507900	0.636700
P21	P2	0.429190	0.948340	0.667230
Al21	Al2	0.545640	0.068280	0.665970
O51	O5	0.500300	0.985700	0.660200
O61	O6	0.435600	0.878900	0.629500
O71	O7	0.413400	0.933500	0.744500
O81	O8	0.370600	0.992100	0.636700
P31	P3	0.429190	0.551660	0.832770
Al31	Al3	0.545640	0.431720	0.834030
O91	O9	0.500300	0.514300	0.839800
O101	O10	0.435600	0.621100	0.870500
O111	O11	0.413400	0.566500	0.755500
O121	O12	0.370600	0.507900	0.863300
P41	P4	0.070810	0.948340	0.832770
Al41	Al4	0.954360	0.068280	0.834030
O131	O13	0.999700	0.985700	0.839800
O141	O14	0.064400	0.878900	0.870500
O151	O15	0.086600	0.933500	0.755500
O161	O16	0.129400	0.992100	0.863300
P51	P5	0.667230	0.070810	0.551660
Al51	Al5	0.665970	0.954360	0.431720
O171	O17	0.660200	0.999700	0.514300
O181	O18	0.629500	0.064400	0.621100
O191	O19	0.744500	0.086600	0.566500
O201	O20	0.636700	0.129400	0.507900
P61	P6	0.667230	0.429190	0.948340
Al61	Al6	0.665970	0.545640	0.068280
O211	O21	0.660200	0.500300	0.985700
O221	O22	0.629500	0.435600	0.878900
O231	O23	0.744500	0.413400	0.933500
O241	O24	0.636700	0.370600	0.992100
P71	P7	0.832770	0.429190	0.551660
Al71	Al7	0.834030	0.545640	0.431720
O251	O25	0.839800	0.500300	0.514300
O261	O26	0.870500	0.435600	0.621100
O271	O27	0.755500	0.413400	0.566500
O281	O28	0.863300	0.370600	0.507900
P81	P8	0.832770	0.070810	0.948340
Al81	Al8	0.834030	0.954360	0.068280
O291	O29	0.839800	0.999700	0.985700
O301	O30	0.870500	0.064400	0.878900
O311	O31	0.755500	0.086600	0.933500
O321	O32	0.863300	0.129400	0.992100
P91	P9	0.551660	0.667230	0.070810
Al91	Al9	0.431720	0.665970	0.954360
O331	O33	0.514300	0.660200	0.999700
O341	O34	0.621100	0.629500	0.064400
O351	O35	0.566500	0.744500	0.086600
O361	O36	0.507900	0.636700	0.129400
P101	P10	0.948340	0.667230	0.429190
Al101	Al10	0.068280	0.665970	0.545640
O371	O37	0.985700	0.660200	0.500300
O381	O38	0.878900	0.629500	0.435600
O391	O39	0.933500	0.744500	0.413400
O401	O40	0.992100	0.636700	0.370600
P111	P11	0.551660	0.832770	0.429190
Al111	Al11	0.431720	0.834030	0.545640
O411	O41	0.514300	0.839800	0.500300
O421	O42	0.621100	0.870500	0.435600
O431	O43	0.566500	0.755500	0.413400
O441	O44	0.507900	0.863300	0.370600
P121	P12	0.948340	0.832770	0.070810
Al121	Al12	0.068280	0.834030	0.954360
O451	O45	0.985700	0.839800	0.999700
O461	O46	0.878900	0.870500	0.064400
O471	O47	0.933500	0.755500	0.086600
O481	O48	0.992100	0.863300	0.129400
P131	P13	0.551660	0.070810	0.832770
Al131	Al13	0.431720	0.954360	0.834030
O491	O49	0.514300	0.999700	0.839800
O501	O50	0.621100	0.064400	0.870500
O511	O51	0.566500	0.086600	0.755500
O521	O52	0.507900	0.129400	0.863300
P141	P14	0.948340	0.429190	0.832770
Al141	Al14	0.068280	0.545640	0.834030
O531	O53	0.985700	0.500300	0.839800
O541	O54	0.878900	0.435600	0.870500
O551	O55	0.933500	0.413400	0.755500
O561	O56	0.992100	0.370600	0.863300
P151	P15	0.551660	0.429190	0.667230
Al151	Al15	0.431720	0.545640	0.665970
O571	O57	0.514300	0.500300	0.660200
O581	O58	0.621100	0.435600	0.629500
O591	O59	0.566500	0.413400	0.744500
O601	O60	0.507900	0.370600	0.636700
P161	P16	0.948340	0.070810	0.667230
Al161	Al16	0.068280	0.954360	0.665970
O611	O61	0.985700	0.999700	0.660200
O621	O62	0.878900	0.064400	0.629500
O631	O63	0.933500	0.086600	0.744500
O641	O64	0.992100	0.129400	0.636700
P171	P17	0.070810	0.667230	0.948340
Al171	Al17	0.954360	0.665970	0.068280
O651	O65	0.999700	0.660200	0.985700
O661	O66	0.064400	0.629500	0.878900
O671	O67	0.086600	0.744500	0.933500
O681	O68	0.129400	0.636700	0.992100
P181	P18	0.429190	0.667230	0.551660
Al181	Al18	0.545640	0.665970	0.431720
O691	O69	0.500300	0.660200	0.514300
O701	O70	0.435600	0.629500	0.621100
O711	O71	0.413400	0.744500	0.566500
O721	O72	0.370600	0.636700	0.507900
P191	P19	0.429190	0.832770	0.948340
Al191	Al19	0.545640	0.834030	0.068280
O731	O73	0.500300	0.839800	0.985700
O741	O74	0.435600	0.870500	0.878900
O751	O75	0.413400	0.755500	0.933500
O761	O76	0.370600	0.863300	0.992100
P201	P20	0.070810	0.832770	0.551660
Al201	Al20	0.954360	0.834030	0.431720
O771	O77	0.999700	0.839800	0.514300
O781	O78	0.064400	0.870500	0.621100
O791	O79	0.086600	0.755500	0.566500
O801	O80	0.129400	0.863300	0.507900
P211	P21	0.667230	0.551660	0.429190
Al211	Al21	0.665970	0.431720	0.545640
O811	O81	0.660200	0.514300	0.500300
O821	O82	0.629500	0.621100	0.435600
O831	O83	0.744500	0.566500	0.413400
O841	O84	0.636700	0.507900	0.370600
P221	P22	0.667230	0.948340	0.070810
Al221	Al22	0.665970	0.068280	0.954360
O851	O85	0.660200	0.985700	0.999700
O861	O86	0.629500	0.878900	0.064400
O871	O87	0.744500	0.933500	0.086600
O881	O88	0.636700	0.992100	0.129400
P231	P23	0.832770	0.551660	0.070810
Al231	Al23	0.834030	0.431720	0.954360
O891	O89	0.839800	0.514300	0.999700
O901	O90	0.870500	0.621100	0.064400
O911	O91	0.755500	0.566500	0.086600
O921	O92	0.863300	0.507900	0.129400
P241	P24	0.832770	0.948340	0.429190
Al241	Al24	0.834030	0.068280	0.545640
O931	O93	0.839800	0.985700	0.500300
O941	O94	0.870500	0.878900	0.435600
O951	O95	0.755500	0.933500	0.413400
O961	O96	0.863300	0.992100	0.370600
P251	P25	0.929190	0.448340	0.332770
Al251	Al25	0.045640	0.568280	0.334030
O971	O97	0.000300	0.485700	0.339800
O981	O98	0.935600	0.378900	0.370500
O991	O99	0.913400	0.433500	0.255500
O1001	O100	0.870600	0.492100	0.363300
P261	P26	0.570810	0.051660	0.332770
Al261	Al26	0.454360	0.931720	0.334030
O1011	O101	0.499700	0.014300	0.339800
O1021	O102	0.564400	0.121100	0.370500
O1031	O103	0.586600	0.066500	0.255500
O1041	O104	0.629400	0.007900	0.363300
P271	P27	0.570810	0.448340	0.167230
Al271	Al27	0.454360	0.568280	0.165970
O1051	O105	0.499700	0.485700	0.160200
O1061	O106	0.564400	0.378900	0.129500
O1071	O107	0.586600	0.433500	0.244500
O1081	O108	0.629400	0.492100	0.136700
P281	P28	0.929190	0.051660	0.167230
Al281	Al28	0.045640	0.931720	0.165970
O1091	O109	0.000300	0.014300	0.160200
O1101	O110	0.935600	0.121100	0.129500
O1111	O111	0.913400	0.066500	0.244500
O1121	O112	0.870600	0.007900	0.136700
P291	P29	0.332770	0.929190	0.448340
Al291	Al29	0.334030	0.045640	0.568280
O1131	O113	0.339800	0.000300	0.485700
O1141	O114	0.370500	0.935600	0.378900
O1151	O115	0.255500	0.913400	0.433500
O1161	O116	0.363300	0.870600	0.492100
P301	P30	0.332770	0.570810	0.051660
Al301	Al30	0.334030	0.454360	0.931720
O1171	O117	0.339800	0.499700	0.014300
O1181	O118	0.370500	0.564400	0.121100
O1191	O119	0.255500	0.586600	0.066500
O1201	O120	0.363300	0.629400	0.007900
P311	P31	0.167230	0.570810	0.448340
Al311	Al31	0.165970	0.454360	0.568280
O1211	O121	0.160200	0.499700	0.485700
O1221	O122	0.129500	0.564400	0.378900
O1231	O123	0.244500	0.586600	0.433500
O1241	O124	0.136700	0.629400	0.492100
P321	P32	0.167230	0.929190	0.051660
Al321	Al32	0.165970	0.045640	0.931720
O1251	O125	0.160200	0.000300	0.014300
O1261	O126	0.129500	0.935600	0.121100
O1271	O127	0.244500	0.913400	0.066500
O1281	O128	0.136700	0.870600	0.007900
P331	P33	0.448340	0.332770	0.929190
Al331	Al33	0.568280	0.334030	0.045640
O1291	O129	0.485700	0.339800	0.000300
O1301	O130	0.378900	0.370500	0.935600
O1311	O131	0.433500	0.255500	0.913400
O1321	O132	0.492100	0.363300	0.870600
P341	P34	0.051660	0.332770	0.570810
Al341	Al34	0.931720	0.334030	0.454360
O1331	O133	0.014300	0.339800	0.499700
O1341	O134	0.121100	0.370500	0.564400
O1351	O135	0.066500	0.255500	0.586600
O1361	O136	0.007900	0.363300	0.629400
P351	P35	0.448340	0.167230	0.570810
Al351	Al35	0.568280	0.165970	0.454360
O1371	O137	0.485700	0.160200	0.499700
O1381	O138	0.378900	0.129500	0.564400
O1391	O139	0.433500	0.244500	0.586600
O1401	O140	0.492100	0.136700	0.629400
P361	P36	0.051660	0.167230	0.929190
Al361	Al36	0.931720	0.165970	0.045640
O1411	O141	0.014300	0.160200	0.000300
O1421	O142	0.121100	0.129500	0.935600
O1431	O143	0.066500	0.244500	0.913400
O1441	O144	0.007900	0.136700	0.870600
P371	P37	0.448340	0.929190	0.167230
Al371	Al37	0.568280	0.045640	0.165970
O1451	O145	0.485700	0.000300	0.160200
O1461	O146	0.378900	0.935600	0.129500
O1471	O147	0.433500	0.913400	0.244500
O1481	O148	0.492100	0.870600	0.136700
P381	P38	0.051660	0.570810	0.167230
Al381	Al38	0.931720	0.454360	0.165970
O1491	O149	0.014300	0.499700	0.160200
O1501	O150	0.121100	0.564400	0.129500
O1511	O151	0.066500	0.586600	0.244500
O1521	O152	0.007900	0.629400	0.136700
P391	P39	0.448340	0.570810	0.332770
Al391	Al39	0.568280	0.454360	0.334030
O1531	O153	0.485700	0.499700	0.339800
O1541	O154	0.378900	0.564400	0.370500
O1551	O155	0.433500	0.586600	0.255500
O1561	O156	0.492100	0.629400	0.363300
P401	P40	0.051660	0.929190	0.332770
Al401	Al40	0.931720	0.045640	0.334030
O1571	O157	0.014300	0.000300	0.339800
O1581	O158	0.121100	0.935600	0.370500
O1591	O159	0.066500	0.913400	0.255500
O1601	O160	0.007900	0.870600	0.363300
P411	P41	0.929190	0.332770	0.051660
Al411	Al41	0.045640	0.334030	0.931720
O1611	O161	0.000300	0.339800	0.014300
O1621	O162	0.935600	0.370500	0.121100
O1631	O163	0.913400	0.255500	0.066500
O1641	O164	0.870600	0.363300	0.007900
P421	P42	0.570810	0.332770	0.448340
Al421	Al42	0.454360	0.334030	0.568280
O1651	O165	0.499700	0.339800	0.485700
O1661	O166	0.564400	0.370500	0.378900
O1671	O167	0.586600	0.255500	0.433500
O1681	O168	0.629400	0.363300	0.492100
P431	P43	0.570810	0.167230	0.051660
Al431	Al43	0.454360	0.165970	0.931720
O1691	O169	0.499700	0.160200	0.014300
O1701	O170	0.564400	0.129500	0.121100
O1711	O171	0.586600	0.244500	0.066500
O1721	O172	0.629400	0.136700	0.007900
P441	P44	0.929190	0.167230	0.448340
Al441	Al44	0.045640	0.165970	0.568280
O1731	O173	0.000300	0.160200	0.485700
O1741	O174	0.935600	0.129500	0.378900
O1751	O175	0.913400	0.244500	0.433500
O1761	O176	0.870600	0.136700	0.492100
P451	P45	0.332770	0.448340	0.570810
Al451	Al45	0.334030	0.568280	0.454360
O1771	O177	0.339800	0.485700	0.499700
O1781	O178	0.370500	0.378900	0.564400
O1791	O179	0.255500	0.433500	0.586600
O1801	O180	0.363300	0.492100	0.629400
P461	P46	0.332770	0.051660	0.929190
Al461	Al46	0.334030	0.931720	0.045640
O1811	O181	0.339800	0.014300	0.000300
O1821	O182	0.370500	0.121100	0.935600
O1831	O183	0.255500	0.066500	0.913400
O1841	O184	0.363300	0.007900	0.870600
P471	P47	0.167230	0.448340	0.929190
Al471	Al47	0.165970	0.568280	0.045640
O1851	O185	0.160200	0.485700	0.000300
O1861	O186	0.129500	0.378900	0.935600
O1871	O187	0.244500	0.433500	0.913400
O1881	O188	0.136700	0.492100	0.870600
P481	P48	0.167230	0.051660	0.570810
Al481	Al48	0.165970	0.931720	0.454360
O1891	O189	0.160200	0.014300	0.499700
O1901	O190	0.129500	0.121100	0.564400
O1911	O191	0.244500	0.066500	0.586600
O1921	O192	0.136700	0.007900	0.629400
