data_JILWIL_freeONLY_PM
_symmetry_space_group_name_H-M	'P1'
_cell_length_a	18.656000
_cell_length_b	18.656000
_cell_length_c	9.378000
_cell_angle_alpha	90.000000
_cell_angle_beta	90.000000
_cell_angle_gamma	90.000000
_symmetry_Int_Tables_number 1

loop_
_symmetry_equiv_pos_as_xyz
'x,y,z'

loop_
_atom_site_label
_atom_site_type_symbol
_atom_site_fract_x
_atom_site_fract_y
_atom_site_fract_z
P11	P1	0.067090	0.833810	0.090380
O11	O1	0.997600	0.842500	0.003800
O21	O2	0.057000	0.870600	0.234400
O31	O3	0.130700	0.866200	0.010000
O41	O4	0.082800	0.755400	0.118600
Al11	Al1	0.954490	0.834220	0.841400
P21	P2	0.834290	0.950850	0.839700
O51	O5	0.872500	0.877100	0.843800
O61	O6	0.842200	0.985700	0.988500
O71	O7	0.754800	0.938500	0.803000
O81	O8	0.866400	0.999300	0.720900
Al21	Al2	0.166540	0.936120	0.914400
P31	P3	0.056130	0.934380	0.663660
O91	O9	0.125100	0.940000	0.751700
O101	O10	0.016200	0.005700	0.676900
O111	O11	0.009800	0.871400	0.711500
O121	O12	0.077800	0.921800	0.507700
Al31	Al3	0.063860	0.948010	0.334500
P41	P4	0.432910	0.666190	0.090380
O131	O13	0.502400	0.657500	0.003800
O141	O14	0.443000	0.629400	0.234400
O151	O15	0.369300	0.633800	0.010000
O161	O16	0.417200	0.744600	0.118600
Al41	Al4	0.545510	0.665780	0.841400
P51	P5	0.665710	0.549150	0.839700
O171	O17	0.627500	0.622900	0.843800
O181	O18	0.657800	0.514300	0.988500
O191	O19	0.745200	0.561500	0.803000
O201	O20	0.633600	0.500700	0.720900
Al51	Al5	0.333460	0.563880	0.914400
P61	P6	0.443870	0.565620	0.663660
O211	O21	0.374900	0.560000	0.751700
O221	O22	0.483800	0.494300	0.676900
O231	O23	0.490200	0.628600	0.711500
O241	O24	0.422200	0.578200	0.507700
Al61	Al6	0.436140	0.551990	0.334500
P71	P7	0.666190	0.067090	0.090380
O251	O25	0.657500	0.997600	0.003800
O261	O26	0.629400	0.057000	0.234400
O271	O27	0.633800	0.130700	0.010000
O281	O28	0.744600	0.082800	0.118600
Al71	Al7	0.665780	0.954490	0.841400
P81	P8	0.549150	0.834290	0.839700
O291	O29	0.622900	0.872500	0.843800
O301	O30	0.514300	0.842200	0.988500
O311	O31	0.561500	0.754800	0.803000
O321	O32	0.500700	0.866400	0.720900
Al81	Al8	0.563880	0.166540	0.914400
P91	P9	0.565620	0.056130	0.663660
O331	O33	0.560000	0.125100	0.751700
O341	O34	0.494300	0.016200	0.676900
O351	O35	0.628600	0.009800	0.711500
O361	O36	0.578200	0.077800	0.507700
Al91	Al9	0.551990	0.063860	0.334500
P101	P10	0.833810	0.432910	0.090380
O371	O37	0.842500	0.502400	0.003800
O381	O38	0.870600	0.443000	0.234400
O391	O39	0.866200	0.369300	0.010000
O401	O40	0.755400	0.417200	0.118600
Al101	Al10	0.834220	0.545510	0.841400
P111	P11	0.950850	0.665710	0.839700
O411	O41	0.877100	0.627500	0.843800
O421	O42	0.985700	0.657800	0.988500
O431	O43	0.938500	0.745200	0.803000
O441	O44	0.999300	0.633600	0.720900
Al111	Al11	0.936120	0.333460	0.914400
P121	P12	0.934380	0.443870	0.663660
O451	O45	0.940000	0.374900	0.751700
O461	O46	0.005700	0.483800	0.676900
O471	O47	0.871400	0.490200	0.711500
O481	O48	0.921800	0.422200	0.507700
Al121	Al12	0.948010	0.436140	0.334500
P131	P13	0.932910	0.166190	0.909620
O491	O49	0.002400	0.157500	0.996200
O501	O50	0.943000	0.129400	0.765600
O511	O51	0.869300	0.133800	0.990000
O521	O52	0.917200	0.244600	0.881400
Al131	Al13	0.045510	0.165780	0.158600
P141	P14	0.165710	0.049150	0.160300
O531	O53	0.127500	0.122900	0.156200
O541	O54	0.157800	0.014300	0.011500
O551	O55	0.245200	0.061500	0.197000
O561	O56	0.133600	0.000700	0.279100
Al141	Al14	0.833460	0.063880	0.085600
P151	P15	0.943870	0.065620	0.336340
O571	O57	0.874900	0.060000	0.248300
O581	O58	0.983800	0.994300	0.323100
O591	O59	0.990200	0.128600	0.288500
O601	O60	0.922200	0.078200	0.492300
Al151	Al15	0.936140	0.051990	0.665500
P161	P16	0.567090	0.333810	0.909620
O611	O61	0.497600	0.342500	0.996200
O621	O62	0.557000	0.370600	0.765600
O631	O63	0.630700	0.366200	0.990000
O641	O64	0.582800	0.255400	0.881400
Al161	Al16	0.454490	0.334220	0.158600
P171	P17	0.334290	0.450850	0.160300
O651	O65	0.372500	0.377100	0.156200
O661	O66	0.342200	0.485700	0.011500
O671	O67	0.254800	0.438500	0.197000
O681	O68	0.366400	0.499300	0.279100
Al171	Al17	0.666540	0.436120	0.085600
P181	P18	0.556130	0.434380	0.336340
O691	O69	0.625100	0.440000	0.248300
O701	O70	0.516200	0.505700	0.323100
O711	O71	0.509800	0.371400	0.288500
O721	O72	0.577800	0.421800	0.492300
Al181	Al18	0.563860	0.448010	0.665500
P191	P19	0.333810	0.932910	0.909620
O731	O73	0.342500	0.002400	0.996200
O741	O74	0.370600	0.943000	0.765600
O751	O75	0.366200	0.869300	0.990000
O761	O76	0.255400	0.917200	0.881400
Al191	Al19	0.334220	0.045510	0.158600
P201	P20	0.450850	0.165710	0.160300
O771	O77	0.377100	0.127500	0.156200
O781	O78	0.485700	0.157800	0.011500
O791	O79	0.438500	0.245200	0.197000
O801	O80	0.499300	0.133600	0.279100
Al201	Al20	0.436120	0.833460	0.085600
P211	P21	0.434380	0.943870	0.336340
O811	O81	0.440000	0.874900	0.248300
O821	O82	0.505700	0.983800	0.323100
O831	O83	0.371400	0.990200	0.288500
O841	O84	0.421800	0.922200	0.492300
Al211	Al21	0.448010	0.936140	0.665500
P221	P22	0.166190	0.567090	0.909620
O851	O85	0.157500	0.497600	0.996200
O861	O86	0.129400	0.557000	0.765600
O871	O87	0.133800	0.630700	0.990000
O881	O88	0.244600	0.582800	0.881400
Al221	Al22	0.165780	0.454490	0.158600
P231	P23	0.049150	0.334290	0.160300
O891	O89	0.122900	0.372500	0.156200
O901	O90	0.014300	0.342200	0.011500
O911	O91	0.061500	0.254800	0.197000
O921	O92	0.000700	0.366400	0.279100
Al231	Al23	0.063880	0.666540	0.085600
P241	P24	0.065620	0.556130	0.336340
O931	O93	0.060000	0.625100	0.248300
O941	O94	0.994300	0.516200	0.323100
O951	O95	0.128600	0.509800	0.288500
O961	O96	0.078200	0.577800	0.492300
Al241	Al24	0.051990	0.563860	0.665500
