data_JITPOS_SL_PM
_symmetry_space_group_name_H-M	'P1'
_cell_length_a	23.145100
_cell_length_b	27.397600
_cell_length_c	10.548200
_cell_angle_alpha	90.000000
_cell_angle_beta	90.000000
_cell_angle_gamma	90.000000
_symmetry_Int_Tables_number 1

loop_
_symmetry_equiv_pos_as_xyz
'x,y,z'

loop_
_atom_site_label
_atom_site_type_symbol
_atom_site_fract_x
_atom_site_fract_y
_atom_site_fract_z
Zn11	Zn1	0.804280	0.958550	0.586790
Zn21	Zn2	0.730620	0.041520	0.437580
Zn31	Zn3	0.770870	0.044110	0.757090
H41	H4	0.704000	0.951000	0.495000
H51	H5	0.043800	0.083100	0.950700
H61	H6	0.982000	0.949000	0.720700
H71	H7	0.812400	0.129900	0.439200
H81	H8	0.847100	0.129000	0.791700
H91	H9	0.947300	0.074300	0.900500
H101	H10	0.891300	0.872100	0.584200
H111	H11	0.644600	0.127800	0.412000
H121	H12	0.641300	0.212200	0.408200
H131	H13	0.720800	0.787300	0.605600
H141	H14	0.814000	0.213300	0.442500
H151	H15	0.680300	0.129000	0.745900
H161	H16	0.894900	0.788500	0.579100
H171	H17	0.722800	0.870400	0.607100
H181	H18	0.848700	0.212300	0.799800
H191	H19	0.677900	0.212600	0.747300
C201	C20	0.135300	0.033400	0.888100
C211	C21	0.955400	0.011600	0.801000
C221	C22	0.052900	0.980700	0.796200
C231	C23	0.807900	0.776300	0.591700
C241	C24	0.072700	0.022700	0.860600
C251	C25	0.763400	0.223200	0.770500
C261	C26	0.727300	0.223400	0.424600
C271	C27	0.892700	0.007500	0.759000
C281	C28	0.031900	0.056300	0.901800
C291	C29	0.994800	0.976500	0.766000
C301	C30	0.777100	0.146700	0.434800
C311	C31	0.812200	0.146000	0.781100
C321	C32	0.974100	0.051000	0.872100
C331	C33	0.856400	0.854700	0.588000
C341	C34	0.679500	0.145200	0.418200
C351	C35	0.677100	0.196300	0.415800
C361	C36	0.756500	0.803500	0.600500
C371	C37	0.778500	0.196900	0.435100
C381	C38	0.715300	0.146200	0.753800
C391	C39	0.858900	0.804300	0.585300
C401	C40	0.758100	0.853600	0.601700
C411	C41	0.813500	0.196200	0.785900
C421	C42	0.713500	0.196400	0.755900
S431	S43	0.099900	0.932320	0.752800
N441	N44	0.764600	0.120600	0.762500
N451	N45	0.806800	0.880400	0.595700
N461	N46	0.728100	0.120100	0.428500
O471	O47	0.791800	0.037930	0.568000
O481	O48	0.756700	0.969090	0.753700
O491	O49	0.860200	0.042530	0.790300
O501	O50	0.148600	0.037270	0.003100
O511	O51	0.168800	0.040660	0.797400
O521	O52	0.879100	0.970170	0.696100
O531	O53	0.738800	0.961600	0.452100
O541	O54	0.064400	0.888500	0.754900
O551	O55	0.120500	0.942800	0.625100
O561	O56	0.145700	0.931600	0.845600
H571	H57	0.786510	0.469090	0.253700
H581	H58	0.835010	0.462070	0.568000
Zn591	Zn59	0.695720	0.041450	0.086790
Zn601	Zn60	0.769380	0.958480	0.937580
Zn611	Zn61	0.729130	0.955890	0.257090
H621	H62	0.796000	0.049000	0.995000
H631	H63	0.456200	0.916900	0.450700
H641	H64	0.518000	0.051000	0.220700
H651	H65	0.687600	0.870100	0.939200
H661	H66	0.652900	0.871000	0.291700
H671	H67	0.552700	0.925700	0.400500
H681	H68	0.608700	0.127900	0.084200
H691	H69	0.855400	0.872200	0.912000
H701	H70	0.858700	0.787800	0.908200
H711	H71	0.779200	0.212700	0.105600
H721	H72	0.686000	0.786700	0.942500
H731	H73	0.819700	0.871000	0.245900
H741	H74	0.605100	0.211500	0.079100
H751	H75	0.777200	0.129600	0.107100
H761	H76	0.651300	0.787700	0.299800
H771	H77	0.822100	0.787400	0.247300
C781	C78	0.364700	0.966600	0.388100
C791	C79	0.544600	0.988400	0.301000
C801	C80	0.447100	0.019300	0.296200
C811	C81	0.692100	0.223700	0.091700
C821	C82	0.427300	0.977300	0.360600
C831	C83	0.736600	0.776800	0.270500
C841	C84	0.772700	0.776600	0.924600
C851	C85	0.607300	0.992500	0.259000
C861	C86	0.468100	0.943700	0.401800
C871	C87	0.505200	0.023500	0.266000
C881	C88	0.722900	0.853300	0.934800
C891	C89	0.687800	0.854000	0.281100
C901	C90	0.525900	0.949000	0.372100
C911	C91	0.643600	0.145300	0.088000
C921	C92	0.820500	0.854800	0.918200
C931	C93	0.822900	0.803700	0.915800
C941	C94	0.743500	0.196500	0.100500
C951	C95	0.721500	0.803100	0.935100
C961	C96	0.784700	0.853800	0.253800
C971	C97	0.641100	0.195700	0.085300
C981	C98	0.741900	0.146400	0.101700
C991	C99	0.686500	0.803800	0.285900
C1001	C100	0.786500	0.803600	0.255900
S1011	S101	0.400100	0.067680	0.252800
N1021	N102	0.735400	0.879400	0.262500
N1031	N103	0.693200	0.119600	0.095700
N1041	N104	0.771900	0.879900	0.928500
O1051	O105	0.708200	0.962070	0.068000
O1061	O106	0.743300	0.030910	0.253700
O1071	O107	0.639800	0.957470	0.290300
O1081	O108	0.351400	0.962730	0.503100
O1091	O109	0.331200	0.959340	0.297400
O1101	O110	0.620900	0.029830	0.196100
O1111	O111	0.761200	0.038400	0.952100
O1121	O112	0.435600	0.111500	0.254900
O1131	O113	0.379500	0.057200	0.125100
O1141	O114	0.354300	0.068400	0.345600
H1151	H115	0.713490	0.530910	0.753700
H1161	H116	0.664990	0.537930	0.068000
Zn1171	Zn117	0.195720	0.458550	0.413210
Zn1181	Zn118	0.269380	0.541520	0.562420
Zn1191	Zn119	0.229130	0.544110	0.242910
H1201	H120	0.296000	0.451000	0.505000
H1211	H121	0.956200	0.583100	0.049300
H1221	H122	0.018000	0.449000	0.279300
H1231	H123	0.187600	0.629900	0.560800
H1241	H124	0.152900	0.629000	0.208300
H1251	H125	0.052700	0.574300	0.099500
H1261	H126	0.108700	0.372100	0.415800
H1271	H127	0.355400	0.627800	0.588000
H1281	H128	0.358700	0.712200	0.591800
H1291	H129	0.279200	0.287300	0.394400
H1301	H130	0.186000	0.713300	0.557500
H1311	H131	0.319700	0.629000	0.254100
H1321	H132	0.105100	0.288500	0.420900
H1331	H133	0.277200	0.370400	0.392900
H1341	H134	0.151300	0.712300	0.200200
H1351	H135	0.322100	0.712600	0.252700
C1361	C136	0.864700	0.533400	0.111900
C1371	C137	0.044600	0.511600	0.199000
C1381	C138	0.947100	0.480700	0.203800
C1391	C139	0.192100	0.276300	0.408300
C1401	C140	0.927300	0.522700	0.139400
C1411	C141	0.236600	0.723200	0.229500
C1421	C142	0.272700	0.723400	0.575400
C1431	C143	0.107300	0.507500	0.241000
C1441	C144	0.968100	0.556300	0.098200
C1451	C145	0.005200	0.476500	0.234000
C1461	C146	0.222900	0.646700	0.565200
C1471	C147	0.187800	0.646000	0.218900
C1481	C148	0.025900	0.551000	0.127900
C1491	C149	0.143600	0.354700	0.412000
C1501	C150	0.320500	0.645200	0.581800
C1511	C151	0.322900	0.696300	0.584200
C1521	C152	0.243500	0.303500	0.399500
C1531	C153	0.221500	0.696900	0.564900
C1541	C154	0.284700	0.646200	0.246200
C1551	C155	0.141100	0.304300	0.414700
C1561	C156	0.241900	0.353600	0.398300
C1571	C157	0.186500	0.696200	0.214100
C1581	C158	0.286500	0.696400	0.244100
S1591	S159	0.900100	0.432320	0.247200
N1601	N160	0.235400	0.620600	0.237500
N1611	N161	0.193200	0.380400	0.404300
N1621	N162	0.271900	0.620100	0.571500
O1631	O163	0.208200	0.537930	0.432000
O1641	O164	0.243300	0.469090	0.246300
O1651	O165	0.139800	0.542530	0.209700
O1661	O166	0.851400	0.537270	0.996900
O1671	O167	0.831200	0.540660	0.202600
O1681	O168	0.120900	0.470170	0.303900
O1691	O169	0.261200	0.461600	0.547900
O1701	O170	0.935600	0.388500	0.245100
O1711	O171	0.879500	0.442800	0.374900
O1721	O172	0.854300	0.431600	0.154400
H1731	H173	0.213490	0.969090	0.746300
H1741	H174	0.164990	0.962070	0.432000
Zn1751	Zn175	0.304280	0.541450	0.913210
Zn1761	Zn176	0.230620	0.458480	0.062420
Zn1771	Zn177	0.270870	0.455890	0.742910
H1781	H178	0.204000	0.549000	0.005000
H1791	H179	0.543800	0.416900	0.549300
H1801	H180	0.482000	0.551000	0.779300
H1811	H181	0.312400	0.370100	0.060800
H1821	H182	0.347100	0.371000	0.708300
H1831	H183	0.447300	0.425700	0.599500
H1841	H184	0.391300	0.627900	0.915800
H1851	H185	0.144600	0.372200	0.088000
H1861	H186	0.141300	0.287800	0.091800
H1871	H187	0.220800	0.712700	0.894400
H1881	H188	0.314000	0.286700	0.057500
H1891	H189	0.180300	0.371000	0.754100
H1901	H190	0.394900	0.711500	0.920900
H1911	H191	0.222800	0.629600	0.892900
H1921	H192	0.348700	0.287700	0.700200
H1931	H193	0.177900	0.287400	0.752700
C1941	C194	0.635300	0.466600	0.611900
C1951	C195	0.455400	0.488400	0.699000
C1961	C196	0.552900	0.519300	0.703800
C1971	C197	0.307900	0.723700	0.908300
C1981	C198	0.572700	0.477300	0.639400
C1991	C199	0.263400	0.276800	0.729500
C2001	C200	0.227300	0.276600	0.075400
C2011	C201	0.392700	0.492500	0.741000
C2021	C202	0.531900	0.443700	0.598200
C2031	C203	0.494800	0.523500	0.734000
C2041	C204	0.277100	0.353300	0.065200
C2051	C205	0.312200	0.354000	0.718900
C2061	C206	0.474100	0.449000	0.627900
C2071	C207	0.356400	0.645300	0.912000
C2081	C208	0.179500	0.354800	0.081800
C2091	C209	0.177100	0.303700	0.084200
C2101	C210	0.256500	0.696500	0.899500
C2111	C211	0.278500	0.303100	0.064900
C2121	C212	0.215300	0.353800	0.746200
C2131	C213	0.358900	0.695700	0.914700
C2141	C214	0.258100	0.646400	0.898300
C2151	C215	0.313500	0.303800	0.714100
C2161	C216	0.213500	0.303600	0.744100
S2171	S217	0.599900	0.567680	0.747200
N2181	N218	0.264600	0.379400	0.737500
N2191	N219	0.306800	0.619600	0.904300
N2201	N220	0.228100	0.379900	0.071500
O2211	O221	0.291800	0.462070	0.932000
O2221	O222	0.256700	0.530910	0.746300
O2231	O223	0.360200	0.457470	0.709700
O2241	O224	0.648600	0.462730	0.496900
O2251	O225	0.668800	0.459340	0.702600
O2261	O226	0.379100	0.529830	0.803900
O2271	O227	0.238800	0.538400	0.047900
O2281	O228	0.564400	0.611500	0.745100
O2291	O229	0.620500	0.557200	0.874900
O2301	O230	0.645700	0.568400	0.654400
H2311	H231	0.286510	0.030910	0.246300
H2321	H232	0.335010	0.037930	0.932000
Zn2331	Zn233	0.195720	0.041450	0.413210
Zn2341	Zn234	0.269380	0.958480	0.562420
Zn2351	Zn235	0.229130	0.955890	0.242910
H2361	H236	0.296000	0.049000	0.505000
H2371	H237	0.956200	0.916900	0.049300
H2381	H238	0.018000	0.051000	0.279300
H2391	H239	0.187600	0.870100	0.560800
H2401	H240	0.152900	0.871000	0.208300
H2411	H241	0.052700	0.925700	0.099500
H2421	H242	0.108700	0.127900	0.415800
H2431	H243	0.355400	0.872200	0.588000
H2441	H244	0.358700	0.787800	0.591800
H2451	H245	0.279200	0.212700	0.394400
H2461	H246	0.186000	0.786700	0.557500
H2471	H247	0.319700	0.871000	0.254100
H2481	H248	0.105100	0.211500	0.420900
H2491	H249	0.277200	0.129600	0.392900
H2501	H250	0.151300	0.787700	0.200200
H2511	H251	0.322100	0.787400	0.252700
C2521	C252	0.864700	0.966600	0.111900
C2531	C253	0.044600	0.988400	0.199000
C2541	C254	0.947100	0.019300	0.203800
C2551	C255	0.192100	0.223700	0.408300
C2561	C256	0.927300	0.977300	0.139400
C2571	C257	0.236600	0.776800	0.229500
C2581	C258	0.272700	0.776600	0.575400
C2591	C259	0.107300	0.992500	0.241000
C2601	C260	0.968100	0.943700	0.098200
C2611	C261	0.005200	0.023500	0.234000
C2621	C262	0.222900	0.853300	0.565200
C2631	C263	0.187800	0.854000	0.218900
C2641	C264	0.025900	0.949000	0.127900
C2651	C265	0.143600	0.145300	0.412000
C2661	C266	0.320500	0.854800	0.581800
C2671	C267	0.322900	0.803700	0.584200
C2681	C268	0.243500	0.196500	0.399500
C2691	C269	0.221500	0.803100	0.564900
C2701	C270	0.284700	0.853800	0.246200
C2711	C271	0.141100	0.195700	0.414700
C2721	C272	0.241900	0.146400	0.398300
C2731	C273	0.186500	0.803800	0.214100
C2741	C274	0.286500	0.803600	0.244100
S2751	S275	0.900100	0.067680	0.247200
N2761	N276	0.235400	0.879400	0.237500
N2771	N277	0.193200	0.119600	0.404300
N2781	N278	0.271900	0.879900	0.571500
O2791	O279	0.208200	0.962070	0.432000
O2801	O280	0.243300	0.030910	0.246300
O2811	O281	0.139800	0.957470	0.209700
O2821	O282	0.851400	0.962730	0.996900
O2831	O283	0.831200	0.959340	0.202600
O2841	O284	0.120900	0.029830	0.303900
O2851	O285	0.261200	0.038400	0.547900
O2861	O286	0.935600	0.111500	0.245100
O2871	O287	0.879500	0.057200	0.374900
O2881	O288	0.854300	0.068400	0.154400
H2891	H289	0.213490	0.530910	0.746300
H2901	H290	0.164990	0.537930	0.432000
Zn2911	Zn291	0.304280	0.958550	0.913210
Zn2921	Zn292	0.230620	0.041520	0.062420
Zn2931	Zn293	0.270870	0.044110	0.742910
H2941	H294	0.204000	0.951000	0.005000
H2951	H295	0.543800	0.083100	0.549300
H2961	H296	0.482000	0.949000	0.779300
H2971	H297	0.312400	0.129900	0.060800
H2981	H298	0.347100	0.129000	0.708300
H2991	H299	0.447300	0.074300	0.599500
H3001	H300	0.391300	0.872100	0.915800
H3011	H301	0.144600	0.127800	0.088000
H3021	H302	0.141300	0.212200	0.091800
H3031	H303	0.220800	0.787300	0.894400
H3041	H304	0.314000	0.213300	0.057500
H3051	H305	0.180300	0.129000	0.754100
H3061	H306	0.394900	0.788500	0.920900
H3071	H307	0.222800	0.870400	0.892900
H3081	H308	0.348700	0.212300	0.700200
H3091	H309	0.177900	0.212600	0.752700
C3101	C310	0.635300	0.033400	0.611900
C3111	C311	0.455400	0.011600	0.699000
C3121	C312	0.552900	0.980700	0.703800
C3131	C313	0.307900	0.776300	0.908300
C3141	C314	0.572700	0.022700	0.639400
C3151	C315	0.263400	0.223200	0.729500
C3161	C316	0.227300	0.223400	0.075400
C3171	C317	0.392700	0.007500	0.741000
C3181	C318	0.531900	0.056300	0.598200
C3191	C319	0.494800	0.976500	0.734000
C3201	C320	0.277100	0.146700	0.065200
C3211	C321	0.312200	0.146000	0.718900
C3221	C322	0.474100	0.051000	0.627900
C3231	C323	0.356400	0.854700	0.912000
C3241	C324	0.179500	0.145200	0.081800
C3251	C325	0.177100	0.196300	0.084200
C3261	C326	0.256500	0.803500	0.899500
C3271	C327	0.278500	0.196900	0.064900
C3281	C328	0.215300	0.146200	0.746200
C3291	C329	0.358900	0.804300	0.914700
C3301	C330	0.258100	0.853600	0.898300
C3311	C331	0.313500	0.196200	0.714100
C3321	C332	0.213500	0.196400	0.744100
S3331	S333	0.599900	0.932320	0.747200
N3341	N334	0.264600	0.120600	0.737500
N3351	N335	0.306800	0.880400	0.904300
N3361	N336	0.228100	0.120100	0.071500
O3371	O337	0.291800	0.037930	0.932000
O3381	O338	0.256700	0.969090	0.746300
O3391	O339	0.360200	0.042530	0.709700
O3401	O340	0.648600	0.037270	0.496900
O3411	O341	0.668800	0.040660	0.702600
O3421	O342	0.379100	0.970170	0.803900
O3431	O343	0.238800	0.961600	0.047900
O3441	O344	0.564400	0.888500	0.745100
O3451	O345	0.620500	0.942800	0.874900
O3461	O346	0.645700	0.931600	0.654400
H3471	H347	0.286510	0.469090	0.246300
H3481	H348	0.335010	0.462070	0.932000
Zn3491	Zn349	0.804280	0.541450	0.586790
Zn3501	Zn350	0.730620	0.458480	0.437580
Zn3511	Zn351	0.770870	0.455890	0.757090
H3521	H352	0.704000	0.549000	0.495000
H3531	H353	0.043800	0.416900	0.950700
H3541	H354	0.982000	0.551000	0.720700
H3551	H355	0.812400	0.370100	0.439200
H3561	H356	0.847100	0.371000	0.791700
H3571	H357	0.947300	0.425700	0.900500
H3581	H358	0.891300	0.627900	0.584200
H3591	H359	0.644600	0.372200	0.412000
H3601	H360	0.641300	0.287800	0.408200
H3611	H361	0.720800	0.712700	0.605600
H3621	H362	0.814000	0.286700	0.442500
H3631	H363	0.680300	0.371000	0.745900
H3641	H364	0.894900	0.711500	0.579100
H3651	H365	0.722800	0.629600	0.607100
H3661	H366	0.848700	0.287700	0.799800
H3671	H367	0.677900	0.287400	0.747300
C3681	C368	0.135300	0.466600	0.888100
C3691	C369	0.955400	0.488400	0.801000
C3701	C370	0.052900	0.519300	0.796200
C3711	C371	0.807900	0.723700	0.591700
C3721	C372	0.072700	0.477300	0.860600
C3731	C373	0.763400	0.276800	0.770500
C3741	C374	0.727300	0.276600	0.424600
C3751	C375	0.892700	0.492500	0.759000
C3761	C376	0.031900	0.443700	0.901800
C3771	C377	0.994800	0.523500	0.766000
C3781	C378	0.777100	0.353300	0.434800
C3791	C379	0.812200	0.354000	0.781100
C3801	C380	0.974100	0.449000	0.872100
C3811	C381	0.856400	0.645300	0.588000
C3821	C382	0.679500	0.354800	0.418200
C3831	C383	0.677100	0.303700	0.415800
C3841	C384	0.756500	0.696500	0.600500
C3851	C385	0.778500	0.303100	0.435100
C3861	C386	0.715300	0.353800	0.753800
C3871	C387	0.858900	0.695700	0.585300
C3881	C388	0.758100	0.646400	0.601700
C3891	C389	0.813500	0.303800	0.785900
C3901	C390	0.713500	0.303600	0.755900
S3911	S391	0.099900	0.567680	0.752800
N3921	N392	0.764600	0.379400	0.762500
N3931	N393	0.806800	0.619600	0.595700
N3941	N394	0.728100	0.379900	0.428500
O3951	O395	0.791800	0.462070	0.568000
O3961	O396	0.756700	0.530910	0.753700
O3971	O397	0.860200	0.457470	0.790300
O3981	O398	0.148600	0.462730	0.003100
O3991	O399	0.168800	0.459340	0.797400
O4001	O400	0.879100	0.529830	0.696100
O4011	O401	0.738800	0.538400	0.452100
O4021	O402	0.064400	0.611500	0.754900
O4031	O403	0.120500	0.557200	0.625100
O4041	O404	0.145700	0.568400	0.845600
H4051	H405	0.786510	0.030910	0.253700
H4061	H406	0.835010	0.037930	0.568000
Zn4071	Zn407	0.695720	0.458550	0.086790
Zn4081	Zn408	0.769380	0.541520	0.937580
Zn4091	Zn409	0.729130	0.544110	0.257090
H4101	H410	0.796000	0.451000	0.995000
H4111	H411	0.456200	0.583100	0.450700
H4121	H412	0.518000	0.449000	0.220700
H4131	H413	0.687600	0.629900	0.939200
H4141	H414	0.652900	0.629000	0.291700
H4151	H415	0.552700	0.574300	0.400500
H4161	H416	0.608700	0.372100	0.084200
H4171	H417	0.855400	0.627800	0.912000
H4181	H418	0.858700	0.712200	0.908200
H4191	H419	0.779200	0.287300	0.105600
H4201	H420	0.686000	0.713300	0.942500
H4211	H421	0.819700	0.629000	0.245900
H4221	H422	0.605100	0.288500	0.079100
H4231	H423	0.777200	0.370400	0.107100
H4241	H424	0.651300	0.712300	0.299800
H4251	H425	0.822100	0.712600	0.247300
C4261	C426	0.364700	0.533400	0.388100
C4271	C427	0.544600	0.511600	0.301000
C4281	C428	0.447100	0.480700	0.296200
C4291	C429	0.692100	0.276300	0.091700
C4301	C430	0.427300	0.522700	0.360600
C4311	C431	0.736600	0.723200	0.270500
C4321	C432	0.772700	0.723400	0.924600
C4331	C433	0.607300	0.507500	0.259000
C4341	C434	0.468100	0.556300	0.401800
C4351	C435	0.505200	0.476500	0.266000
C4361	C436	0.722900	0.646700	0.934800
C4371	C437	0.687800	0.646000	0.281100
C4381	C438	0.525900	0.551000	0.372100
C4391	C439	0.643600	0.354700	0.088000
C4401	C440	0.820500	0.645200	0.918200
C4411	C441	0.822900	0.696300	0.915800
C4421	C442	0.743500	0.303500	0.100500
C4431	C443	0.721500	0.696900	0.935100
C4441	C444	0.784700	0.646200	0.253800
C4451	C445	0.641100	0.304300	0.085300
C4461	C446	0.741900	0.353600	0.101700
C4471	C447	0.686500	0.696200	0.285900
C4481	C448	0.786500	0.696400	0.255900
S4491	S449	0.400100	0.432320	0.252800
N4501	N450	0.735400	0.620600	0.262500
N4511	N451	0.693200	0.380400	0.095700
N4521	N452	0.771900	0.620100	0.928500
O4531	O453	0.708200	0.537930	0.068000
O4541	O454	0.743300	0.469090	0.253700
O4551	O455	0.639800	0.542530	0.290300
O4561	O456	0.351400	0.537270	0.503100
O4571	O457	0.331200	0.540660	0.297400
O4581	O458	0.620900	0.470170	0.196100
O4591	O459	0.761200	0.461600	0.952100
O4601	O460	0.435600	0.388500	0.254900
O4611	O461	0.379500	0.442800	0.125100
O4621	O462	0.354300	0.431600	0.345600
H4631	H463	0.713490	0.969090	0.753700
H4641	H464	0.664990	0.962070	0.068000
