data_JITQEI_freeONLY_PM
_symmetry_space_group_name_H-M	'P1'
_cell_length_a	13.652000
_cell_length_b	13.652000
_cell_length_c	40.648000
_cell_angle_alpha	90.000000
_cell_angle_beta	90.000000
_cell_angle_gamma	120.000000
_symmetry_Int_Tables_number 1

loop_
_symmetry_equiv_pos_as_xyz
'x,y,z'

loop_
_atom_site_label
_atom_site_type_symbol
_atom_site_fract_x
_atom_site_fract_y
_atom_site_fract_z
N11	N1	0.699100	0.258400	0.429000
C11	C1	0.782300	0.248600	0.415400
H11	H1	0.841300	0.310900	0.405000
C21	C2	0.782600	0.147800	0.416200
H21	H2	0.842300	0.143900	0.406500
C31	C3	0.697100	0.053100	0.431000
C41	C4	0.609100	0.064400	0.444600
H31	H3	0.547000	0.003700	0.454500
C51	C5	0.618600	0.169800	0.442500
H41	H4	0.560500	0.177300	0.451900
C61	C6	0.696000	0.946100	0.431700
N21	N2	0.708700	0.558800	0.429100
C71	C7	0.771700	0.640800	0.451300
H51	H5	0.818600	0.628800	0.465300
C81	C8	0.770300	0.739100	0.454300
H61	H6	0.814100	0.792700	0.470000
C91	C9	0.700100	0.756800	0.432600
C101	C10	0.640200	0.677200	0.408900
H71	H7	0.598600	0.690000	0.393100
C111	C11	0.643400	0.577900	0.409200
H81	H8	0.596900	0.521000	0.394600
C121	C12	0.695700	0.858900	0.432500
N31	N3	0.587100	0.305600	0.713200
C131	C13	0.519800	0.330200	0.697000
H91	H9	0.465200	0.337300	0.708700
C141	C14	0.525400	0.346700	0.663000
H101	H10	0.477800	0.367300	0.652500
C151	C15	0.600900	0.332100	0.645800
C161	C16	0.670700	0.306300	0.662500
H111	H11	0.724600	0.296900	0.651200
C171	C17	0.662800	0.293700	0.696200
H121	H12	0.711900	0.276300	0.707200
C181	C18	0.625500	0.363600	0.581400
N41	N4	0.680300	0.396600	0.479000
C191	C19	0.599500	0.411800	0.492800
H131	H13	0.553800	0.427000	0.479200
C201	C20	0.581500	0.405800	0.526500
H141	H14	0.527400	0.420600	0.535400
C211	C21	0.644200	0.377700	0.546700
C221	C22	0.726800	0.363700	0.532000
H151	H15	0.772100	0.345900	0.544900
C231	C23	0.743300	0.375200	0.499300
H161	H16	0.802000	0.367700	0.490400
C241	C24	0.611500	0.348400	0.610900
O11	O1	0.903600	0.506300	0.439200
Cu11	Cu1	0.709420	0.412370	0.429400
N51	N5	0.741600	0.440700	0.762330
C251	C25	0.751400	0.533700	0.748730
H171	H17	0.689100	0.530400	0.738330
C261	C26	0.852200	0.634800	0.749530
H181	H18	0.856100	0.698400	0.739830
C271	C27	0.946900	0.644000	0.764330
C281	C28	0.935600	0.544700	0.777930
H191	H19	0.996300	0.543300	0.787830
C291	C29	0.830200	0.448800	0.775830
H201	H20	0.822700	0.383200	0.785230
C301	C30	0.053900	0.749900	0.765030
N61	N6	0.441200	0.149900	0.762430
C311	C31	0.359200	0.130900	0.784630
H211	H21	0.371200	0.189800	0.798630
C321	C32	0.260900	0.031200	0.787630
H221	H22	0.207300	0.021400	0.803330
C331	C33	0.243200	0.943300	0.765930
C341	C34	0.322800	0.963000	0.742230
H231	H23	0.310000	0.908600	0.726430
C351	C35	0.422100	0.065500	0.742530
H241	H24	0.479000	0.075900	0.727930
C361	C36	0.141100	0.836800	0.765830
N71	N7	0.694400	0.281500	0.046530
C371	C37	0.669800	0.189600	0.030330
H251	H25	0.662700	0.127900	0.042030
C381	C38	0.653300	0.178700	0.996330
H261	H26	0.632700	0.110500	0.985830
C391	C39	0.667900	0.268800	0.979130
C401	C40	0.693700	0.364400	0.995830
H271	H27	0.703100	0.427700	0.984530
C411	C41	0.706300	0.369100	0.029530
H281	H28	0.723700	0.435600	0.040530
C421	C42	0.636400	0.261900	0.914730
N81	N8	0.603400	0.283700	0.812330
C431	C43	0.588200	0.187700	0.826130
H291	H29	0.573000	0.126800	0.812530
C441	C44	0.594200	0.175700	0.859830
H301	H30	0.579400	0.106800	0.868730
C451	C45	0.622300	0.266500	0.880030
C461	C46	0.636300	0.363100	0.865330
H311	H31	0.654100	0.426200	0.878230
C471	C47	0.624800	0.368100	0.832630
H321	H32	0.632300	0.434300	0.823730
C481	C48	0.651600	0.263100	0.944230
O21	O2	0.493700	0.397300	0.772530
Cu21	Cu2	0.587630	0.297050	0.762730
N91	N9	0.559300	0.300900	0.095670
C491	C49	0.466300	0.217700	0.082070
H331	H33	0.469600	0.158700	0.071670
C501	C50	0.365200	0.217400	0.082870
H341	H34	0.301600	0.157700	0.073170
C511	C51	0.356000	0.302900	0.097670
C521	C52	0.455300	0.390900	0.111270
H351	H35	0.456700	0.453000	0.121170
C531	C53	0.551200	0.381400	0.109170
H361	H36	0.616800	0.439500	0.118570
C541	C54	0.250100	0.304000	0.098370
N101	N10	0.850100	0.291300	0.095770
C551	C55	0.869100	0.228300	0.117970
H371	H37	0.810200	0.181400	0.131970
C561	C56	0.968800	0.229700	0.120970
H381	H38	0.978600	0.185900	0.136670
C571	C57	0.056700	0.299900	0.099270
C581	C58	0.037000	0.359800	0.075570
H391	H39	0.091400	0.401400	0.059770
C591	C59	0.934500	0.356600	0.075870
H401	H40	0.924100	0.403100	0.061270
C601	C60	0.163200	0.304300	0.099170
N111	N11	0.718500	0.412900	0.379870
C611	C61	0.810400	0.480200	0.363670
H411	H41	0.872100	0.534800	0.375370
C621	C62	0.821300	0.474600	0.329670
H421	H42	0.889500	0.522200	0.319170
C631	C63	0.731200	0.399100	0.312470
C641	C64	0.635600	0.329300	0.329170
H431	H43	0.572300	0.275400	0.317870
C651	C65	0.630900	0.337200	0.362870
H441	H44	0.564400	0.288100	0.373870
C661	C66	0.738100	0.374500	0.248070
N121	N12	0.716300	0.319700	0.145670
C671	C67	0.812300	0.400500	0.159470
H451	H45	0.873200	0.446200	0.145870
C681	C68	0.824300	0.418500	0.193170
H461	H46	0.893200	0.472600	0.202070
C691	C69	0.733500	0.355800	0.213370
C701	C70	0.636900	0.273200	0.198670
H471	H47	0.573800	0.227900	0.211570
C711	C71	0.631900	0.256700	0.165970
H481	H48	0.565700	0.198000	0.157070
C721	C72	0.736900	0.388500	0.277570
O31	O3	0.602700	0.096400	0.105870
Cu31	Cu3	0.702950	0.290580	0.096070
N131	N13	0.258400	0.699100	0.571000
C731	C73	0.248600	0.782300	0.584600
H491	H49	0.310900	0.841300	0.595000
C741	C74	0.147800	0.782600	0.583800
H501	H50	0.143900	0.842300	0.593500
C751	C75	0.053100	0.697100	0.569000
C761	C76	0.064400	0.609100	0.555400
H511	H51	0.003700	0.547000	0.545500
C771	C77	0.169800	0.618600	0.557500
H521	H52	0.177300	0.560500	0.548100
C781	C78	0.946100	0.696000	0.568300
N141	N14	0.558800	0.708700	0.570900
C791	C79	0.640800	0.771700	0.548700
H531	H53	0.628800	0.818600	0.534700
C801	C80	0.739100	0.770300	0.545700
H541	H54	0.792700	0.814100	0.530000
C811	C81	0.756800	0.700100	0.567400
C821	C82	0.677200	0.640200	0.591100
H551	H55	0.690000	0.598600	0.606900
C831	C83	0.577900	0.643400	0.590800
H561	H56	0.521000	0.596900	0.605400
C841	C84	0.858900	0.695700	0.567500
N151	N15	0.305600	0.587100	0.286800
C851	C85	0.330200	0.519800	0.303000
H571	H57	0.337300	0.465200	0.291300
C861	C86	0.346700	0.525400	0.337000
H581	H58	0.367300	0.477800	0.347500
C871	C87	0.332100	0.600900	0.354200
C881	C88	0.306300	0.670700	0.337500
H591	H59	0.296900	0.724600	0.348800
C891	C89	0.293700	0.662800	0.303800
H601	H60	0.276300	0.711900	0.292800
C901	C90	0.363600	0.625500	0.418600
N161	N16	0.396600	0.680300	0.521000
C911	C91	0.411800	0.599500	0.507200
H611	H61	0.427000	0.553800	0.520800
C921	C92	0.405800	0.581500	0.473500
H621	H62	0.420600	0.527400	0.464600
C931	C93	0.377700	0.644200	0.453300
C941	C94	0.363700	0.726800	0.468000
H631	H63	0.345900	0.772100	0.455100
C951	C95	0.375200	0.743300	0.500700
H641	H64	0.367700	0.802000	0.509600
C961	C96	0.348400	0.611500	0.389100
O41	O4	0.506300	0.903600	0.560800
Cu41	Cu4	0.412370	0.709420	0.570600
N171	N17	0.440700	0.741600	0.237670
C971	C97	0.533700	0.751400	0.251270
H651	H65	0.530400	0.689100	0.261670
C981	C98	0.634800	0.852200	0.250470
H661	H66	0.698400	0.856100	0.260170
C991	C99	0.644000	0.946900	0.235670
C1001	C100	0.544700	0.935600	0.222070
H671	H67	0.543300	0.996300	0.212170
C1011	C101	0.448800	0.830200	0.224170
H681	H68	0.383200	0.822700	0.214770
C1021	C102	0.749900	0.053900	0.234970
N181	N18	0.149900	0.441200	0.237570
C1031	C103	0.130900	0.359200	0.215370
H691	H69	0.189800	0.371200	0.201370
C1041	C104	0.031200	0.260900	0.212370
H701	H70	0.021400	0.207300	0.196670
C1051	C105	0.943300	0.243200	0.234070
C1061	C106	0.963000	0.322800	0.257770
H711	H71	0.908600	0.310000	0.273570
C1071	C107	0.065500	0.422100	0.257470
H721	H72	0.075900	0.479000	0.272070
C1081	C108	0.836800	0.141100	0.234170
N191	N19	0.281500	0.694400	0.953470
C1091	C109	0.189600	0.669800	0.969670
H731	H73	0.127900	0.662700	0.957970
C1101	C110	0.178700	0.653300	0.003670
H741	H74	0.110500	0.632700	0.014170
C1111	C111	0.268800	0.667900	0.020870
C1121	C112	0.364400	0.693700	0.004170
H751	H75	0.427700	0.703100	0.015470
C1131	C113	0.369100	0.706300	0.970470
H761	H76	0.435600	0.723700	0.959470
C1141	C114	0.261900	0.636400	0.085270
N201	N20	0.283700	0.603400	0.187670
C1151	C115	0.187700	0.588200	0.173870
H771	H77	0.126800	0.573000	0.187470
C1161	C116	0.175700	0.594200	0.140170
H781	H78	0.106800	0.579400	0.131270
C1171	C117	0.266500	0.622300	0.119970
C1181	C118	0.363100	0.636300	0.134670
H791	H79	0.426200	0.654100	0.121770
C1191	C119	0.368100	0.624800	0.167370
H801	H80	0.434300	0.632300	0.176270
C1201	C120	0.263100	0.651600	0.055770
O51	O5	0.397300	0.493700	0.227470
Cu51	Cu5	0.297050	0.587630	0.237270
N211	N21	0.300900	0.559300	0.904330
C1211	C121	0.217700	0.466300	0.917930
H811	H81	0.158700	0.469600	0.928330
C1221	C122	0.217400	0.365200	0.917130
H821	H82	0.157700	0.301600	0.926830
C1231	C123	0.302900	0.356000	0.902330
C1241	C124	0.390900	0.455300	0.888730
H831	H83	0.453000	0.456700	0.878830
C1251	C125	0.381400	0.551200	0.890830
H841	H84	0.439500	0.616800	0.881430
C1261	C126	0.304000	0.250100	0.901630
N221	N22	0.291300	0.850100	0.904230
C1271	C127	0.228300	0.869100	0.882030
H851	H85	0.181400	0.810200	0.868030
C1281	C128	0.229700	0.968800	0.879030
H861	H86	0.185900	0.978600	0.863330
C1291	C129	0.299900	0.056700	0.900730
C1301	C130	0.359800	0.037000	0.924430
H871	H87	0.401400	0.091400	0.940230
C1311	C131	0.356600	0.934500	0.924130
H881	H88	0.403100	0.924100	0.938730
C1321	C132	0.304300	0.163200	0.900830
N231	N23	0.412900	0.718500	0.620130
C1331	C133	0.480200	0.810400	0.636330
H891	H89	0.534800	0.872100	0.624630
C1341	C134	0.474600	0.821300	0.670330
H901	H90	0.522200	0.889500	0.680830
C1351	C135	0.399100	0.731200	0.687530
C1361	C136	0.329300	0.635600	0.670830
H911	H91	0.275400	0.572300	0.682130
C1371	C137	0.337200	0.630900	0.637130
H921	H92	0.288100	0.564400	0.626130
C1381	C138	0.374500	0.738100	0.751930
N241	N24	0.319700	0.716300	0.854330
C1391	C139	0.400500	0.812300	0.840530
H931	H93	0.446200	0.873200	0.854130
C1401	C140	0.418500	0.824300	0.806830
H941	H94	0.472600	0.893200	0.797930
C1411	C141	0.355800	0.733500	0.786630
C1421	C142	0.273200	0.636900	0.801330
H951	H95	0.227900	0.573800	0.788430
C1431	C143	0.256700	0.631900	0.834030
H961	H96	0.198000	0.565700	0.842930
C1441	C144	0.388500	0.736900	0.722430
O61	O6	0.096400	0.602700	0.894130
Cu61	Cu6	0.290580	0.702950	0.903930
C1451	C145	0.107200	0.197100	0.011800
H971	H97	0.042700	0.193000	0.020900
C1461	C146	0.204400	0.298000	0.010600
H981	H98	0.204200	0.363400	0.016800
C1471	C147	0.624400	0.678700	0.975200
H991	H99	0.574100	0.662900	0.957900
C1481	C148	0.726800	0.782300	0.977100
H1001	H100	0.740300	0.837600	0.961500
N251	N25	0.958000	0.959800	0.951000
C1491	C149	0.967000	0.050300	0.935500
H1011	H101	0.965100	0.106200	0.948000
C1501	C150	0.979100	0.065300	0.902000
H1021	H102	0.989400	0.131600	0.892400
C1511	C151	0.975800	0.980200	0.882900
C1521	C152	0.962200	0.883300	0.898200
H1031	H103	0.958100	0.823500	0.886100
C1531	C153	0.954900	0.879000	0.932800
H1041	H104	0.947300	0.815100	0.943300
C1541	C154	0.985400	0.993500	0.847500
C1551	C155	0.802900	0.910100	0.345130
H1051	H105	0.807000	0.849700	0.354230
C1561	C156	0.702000	0.906400	0.343930
H1061	H106	0.636600	0.840800	0.350130
C1571	C157	0.321300	0.945700	0.308530
H1071	H107	0.337100	0.911200	0.291230
C1581	C158	0.217700	0.944500	0.310430
H1081	H108	0.162400	0.902700	0.294830
N261	N26	0.040200	0.998200	0.284330
C1591	C159	0.949700	0.916700	0.268830
H1091	H109	0.893800	0.858900	0.281330
C1601	C160	0.934700	0.913800	0.235330
H1101	H110	0.868400	0.857800	0.225730
C1611	C161	0.019800	0.995600	0.216230
C1621	C162	0.116700	0.078900	0.231530
H1111	H111	0.176500	0.134600	0.219430
C1631	C163	0.121000	0.075900	0.266130
H1121	H112	0.184900	0.132200	0.276630
C1641	C164	0.006500	0.991900	0.180830
C1651	C165	0.089900	0.892800	0.678470
H1131	H113	0.150300	0.957300	0.687570
C1661	C166	0.093600	0.795600	0.677270
H1141	H114	0.159200	0.795800	0.683470
C1671	C167	0.054300	0.375600	0.641870
H1151	H115	0.088800	0.425900	0.624570
C1681	C168	0.055500	0.273200	0.643770
H1161	H116	0.097300	0.259700	0.628170
N271	N27	0.001800	0.042000	0.617670
C1691	C169	0.083300	0.033000	0.602170
H1171	H117	0.141100	0.034900	0.614670
C1701	C170	0.086200	0.020900	0.568670
H1181	H118	0.142200	0.010600	0.559070
C1711	C171	0.004400	0.024200	0.549570
C1721	C172	0.921100	0.037800	0.564870
H1191	H119	0.865400	0.041900	0.552770
C1731	C173	0.924100	0.045100	0.599470
H1201	H120	0.867800	0.052700	0.609970
C1741	C174	0.008100	0.014600	0.514170
C1751	C175	0.197100	0.107200	0.988200
H1211	H121	0.193000	0.042700	0.979100
C1761	C176	0.298000	0.204400	0.989400
H1221	H122	0.363400	0.204200	0.983200
C1771	C177	0.678700	0.624400	0.024800
H1231	H123	0.662900	0.574100	0.042100
C1781	C178	0.782300	0.726800	0.022900
H1241	H124	0.837600	0.740300	0.038500
N281	N28	0.959800	0.958000	0.049000
C1791	C179	0.050300	0.967000	0.064500
H1251	H125	0.106200	0.965100	0.052000
C1801	C180	0.065300	0.979100	0.098000
H1261	H126	0.131600	0.989400	0.107600
C1811	C181	0.980200	0.975800	0.117100
C1821	C182	0.883300	0.962200	0.101800
H1271	H127	0.823500	0.958100	0.113900
C1831	C183	0.879000	0.954900	0.067200
H1281	H128	0.815100	0.947300	0.056700
C1841	C184	0.993500	0.985400	0.152500
C1851	C185	0.910100	0.802900	0.654870
H1291	H129	0.849700	0.807000	0.645770
C1861	C186	0.906400	0.702000	0.656070
H1301	H130	0.840800	0.636600	0.649870
C1871	C187	0.945700	0.321300	0.691470
H1311	H131	0.911200	0.337100	0.708770
C1881	C188	0.944500	0.217700	0.689570
H1321	H132	0.902700	0.162400	0.705170
N291	N29	0.998200	0.040200	0.715670
C1891	C189	0.916700	0.949700	0.731170
H1331	H133	0.858900	0.893800	0.718670
C1901	C190	0.913800	0.934700	0.764670
H1341	H134	0.857800	0.868400	0.774270
C1911	C191	0.995600	0.019800	0.783770
C1921	C192	0.078900	0.116700	0.768470
H1351	H135	0.134600	0.176500	0.780570
C1931	C193	0.075900	0.121000	0.733870
H1361	H136	0.132200	0.184900	0.723370
C1941	C194	0.991900	0.006500	0.819170
C1951	C195	0.892800	0.089900	0.321530
H1371	H137	0.957300	0.150300	0.312430
C1961	C196	0.795600	0.093600	0.322730
H1381	H138	0.795800	0.159200	0.316530
C1971	C197	0.375600	0.054300	0.358130
H1391	H139	0.425900	0.088800	0.375430
C1981	C198	0.273200	0.055500	0.356230
H1401	H140	0.259700	0.097300	0.371830
N301	N30	0.042000	0.001800	0.382330
C1991	C199	0.033000	0.083300	0.397830
H1411	H141	0.034900	0.141100	0.385330
C2001	C200	0.020900	0.086200	0.431330
H1421	H142	0.010600	0.142200	0.440930
C2011	C201	0.024200	0.004400	0.450430
C2021	C202	0.037800	0.921100	0.435130
H1431	H143	0.041900	0.865400	0.447230
C2031	C203	0.045100	0.924100	0.400530
H1441	H144	0.052700	0.867800	0.390030
C2041	C204	0.014600	0.008100	0.485830
Cu71	Cu7	0.952510	0.952510	0.000000
N311	N31	0.102600	0.102600	0.000000
C2051	C205	0.304600	0.304600	0.000000
C2061	C206	0.413100	0.413100	0.000000
C2071	C207	0.497100	0.497100	0.000000
C2081	C208	0.601600	0.601600	0.000000
N321	N32	0.805400	0.805400	0.000000
Cu81	Cu8	0.047490	0.000000	0.333330
N331	N33	0.897400	0.000000	0.333330
C2091	C209	0.695400	0.000000	0.333330
C2101	C210	0.586900	0.000000	0.333330
C2111	C211	0.502900	0.000000	0.333330
C2121	C212	0.398400	0.000000	0.333330
N341	N34	0.194600	0.000000	0.333330
Cu91	Cu9	0.000000	0.047490	0.666670
N351	N35	0.000000	0.897400	0.666670
C2131	C213	0.000000	0.695400	0.666670
C2141	C214	0.000000	0.586900	0.666670
C2151	C215	0.000000	0.502900	0.666670
C2161	C216	0.000000	0.398400	0.666670
N361	N36	0.000000	0.194600	0.666670
