data_JIVHIG_freeONLY_PM
_symmetry_space_group_name_H-M	'P1'
_cell_length_a	13.868300
_cell_length_b	16.228100
_cell_length_c	20.491000
_cell_angle_alpha	90.000000
_cell_angle_beta	104.715000
_cell_angle_gamma	90.000000
_symmetry_Int_Tables_number 1

loop_
_symmetry_equiv_pos_as_xyz
'x,y,z'

loop_
_atom_site_label
_atom_site_type_symbol
_atom_site_fract_x
_atom_site_fract_y
_atom_site_fract_z
K11	K1	0.010020	0.397830	0.885170
K21	K2	0.065040	0.371180	0.110150
K31	K3	0.219010	0.481510	0.028230
K41	K4	0.989980	0.897830	0.614830
K51	K5	0.934960	0.871180	0.389850
K61	K6	0.780990	0.981510	0.471770
K71	K7	0.989980	0.602170	0.114830
K81	K8	0.934960	0.628820	0.889850
K91	K9	0.780990	0.518490	0.971770
K101	K10	0.010020	0.102170	0.385170
K111	K11	0.065040	0.128820	0.610150
K121	K12	0.219010	0.018490	0.528230
H11	H1	0.201500	0.081600	0.969000
H21	H2	0.317700	0.121200	0.910600
H31	H3	0.341300	0.260900	0.893400
H41	H4	0.251100	0.359000	0.934500
H51	H5	0.074600	0.210500	0.057300
H61	H6	0.969100	0.131900	0.935300
H71	H7	0.920600	0.161000	0.994500
H81	H8	0.961700	0.228000	0.950900
H91	H9	0.155000	0.083600	0.087400
H101	H10	0.037200	0.075200	0.077500
H111	H11	0.087500	0.042700	0.020200
H121	H12	0.627800	0.389200	0.684100
H131	H13	0.717400	0.443200	0.612300
H141	H14	0.868200	0.511700	0.658500
H151	H15	0.926000	0.526700	0.775000
H161	H16	0.663400	0.430300	0.854700
H171	H17	0.525600	0.344900	0.821900
H181	H18	0.520100	0.413400	0.764800
H191	H19	0.554600	0.321500	0.753500
H201	H20	0.722100	0.270300	0.820800
H211	H21	0.789800	0.329200	0.876700
H221	H22	0.688300	0.292100	0.887800
H231	H23	0.340400	0.641100	0.817500
H241	H24	0.358300	0.756700	0.887500
H251	H25	0.262000	0.769400	0.964400
H261	H26	0.148300	0.667900	0.971100
H271	H27	0.176600	0.469300	0.824100
H281	H28	0.297100	0.414200	0.779300
H291	H29	0.345600	0.448400	0.853600
H301	H30	0.356700	0.499600	0.789200
H311	H31	0.096300	0.551100	0.735700
H321	H32	0.152200	0.478000	0.707800
H331	H33	0.198500	0.568900	0.715500
H341	H34	0.882100	0.225000	0.713400
H351	H35	0.855100	0.317800	0.729000
H361	H36	0.087800	0.208600	0.850100
H371	H37	0.022300	0.159800	0.786000
H381	H38	0.142400	0.300500	0.778700
H391	H39	0.169700	0.208000	0.762900
H401	H40	0.936400	0.315500	0.640900
H411	H41	0.001000	0.366100	0.704200
H421	H42	0.456400	0.367200	0.019600
H431	H43	0.522400	0.429100	0.073900
H441	H44	0.483600	0.572900	0.066100
H451	H45	0.392000	0.605000	0.007100
H461	H46	0.798500	0.581600	0.531000
H471	H47	0.682300	0.621200	0.589400
H481	H48	0.658700	0.760900	0.606600
H491	H49	0.748900	0.859000	0.565500
H501	H50	0.925400	0.710500	0.442700
H511	H51	0.030900	0.631900	0.564700
H521	H52	0.079400	0.661000	0.505500
H531	H53	0.038300	0.728000	0.549100
H541	H54	0.845000	0.583600	0.412600
H551	H55	0.962800	0.575200	0.422500
H561	H56	0.912500	0.542700	0.479800
H571	H57	0.372200	0.889200	0.815900
H581	H58	0.282600	0.943200	0.887700
H591	H59	0.131800	0.011700	0.841500
H601	H60	0.074000	0.026700	0.725000
H611	H61	0.336600	0.930300	0.645300
H621	H62	0.474400	0.844900	0.678100
H631	H63	0.479900	0.913400	0.735200
H641	H64	0.445400	0.821500	0.746500
H651	H65	0.277900	0.770300	0.679200
H661	H66	0.210200	0.829200	0.623300
H671	H67	0.311700	0.792100	0.612200
H681	H68	0.659600	0.141100	0.682500
H691	H69	0.641700	0.256700	0.612500
H701	H70	0.738000	0.269400	0.535600
H711	H71	0.851700	0.167900	0.528900
H721	H72	0.823400	0.969300	0.675900
H731	H73	0.702900	0.914200	0.720700
H741	H74	0.654400	0.948400	0.646400
H751	H75	0.643300	0.999600	0.710800
H761	H76	0.903700	0.051100	0.764300
H771	H77	0.847800	0.978000	0.792200
H781	H78	0.801500	0.068900	0.784500
H791	H79	0.117900	0.725000	0.786600
H801	H80	0.144900	0.817800	0.771000
H811	H81	0.912200	0.708600	0.649900
H821	H82	0.977700	0.659800	0.714000
H831	H83	0.857600	0.800500	0.721300
H841	H84	0.830300	0.708000	0.737100
H851	H85	0.063600	0.815500	0.859100
H861	H86	0.999000	0.866100	0.795800
H871	H87	0.543600	0.867200	0.480400
H881	H88	0.477600	0.929100	0.426100
H891	H89	0.516400	0.072900	0.433900
H901	H90	0.608000	0.105000	0.492900
H911	H91	0.798500	0.918400	0.031000
H921	H92	0.682300	0.878800	0.089400
H931	H93	0.658700	0.739100	0.106600
H941	H94	0.748900	0.641000	0.065500
H951	H95	0.925400	0.789500	0.942700
H961	H96	0.030900	0.868100	0.064700
H971	H97	0.079400	0.839000	0.005500
H981	H98	0.038300	0.772000	0.049100
H991	H99	0.845000	0.916400	0.912600
H1001	H100	0.962800	0.924800	0.922500
H1011	H101	0.912500	0.957300	0.979800
H1021	H102	0.372200	0.610800	0.315900
H1031	H103	0.282600	0.556800	0.387700
H1041	H104	0.131800	0.488300	0.341500
H1051	H105	0.074000	0.473300	0.225000
H1061	H106	0.336600	0.569700	0.145300
H1071	H107	0.474400	0.655100	0.178100
H1081	H108	0.479900	0.586600	0.235200
H1091	H109	0.445400	0.678500	0.246500
H1101	H110	0.277900	0.729700	0.179200
H1111	H111	0.210200	0.670800	0.123300
H1121	H112	0.311700	0.707900	0.112200
H1131	H113	0.659600	0.358900	0.182500
H1141	H114	0.641700	0.243300	0.112500
H1151	H115	0.738000	0.230600	0.035600
H1161	H116	0.851700	0.332100	0.028900
H1171	H117	0.823400	0.530700	0.175900
H1181	H118	0.702900	0.585800	0.220700
H1191	H119	0.654400	0.551600	0.146400
H1201	H120	0.643300	0.500400	0.210800
H1211	H121	0.903700	0.448900	0.264300
H1221	H122	0.847800	0.522000	0.292200
H1231	H123	0.801500	0.431100	0.284500
H1241	H124	0.117900	0.775000	0.286600
H1251	H125	0.144900	0.682200	0.271000
H1261	H126	0.912200	0.791400	0.149900
H1271	H127	0.977700	0.840200	0.214000
H1281	H128	0.857600	0.699500	0.221300
H1291	H129	0.830300	0.792000	0.237100
H1301	H130	0.063600	0.684500	0.359100
H1311	H131	0.999000	0.633900	0.295800
H1321	H132	0.543600	0.632800	0.980400
H1331	H133	0.477600	0.570900	0.926100
H1341	H134	0.516400	0.427100	0.933900
H1351	H135	0.608000	0.395000	0.992900
H1361	H136	0.201500	0.418400	0.469000
H1371	H137	0.317700	0.378800	0.410600
H1381	H138	0.341300	0.239100	0.393400
H1391	H139	0.251100	0.141000	0.434500
H1401	H140	0.074600	0.289500	0.557300
H1411	H141	0.969100	0.368100	0.435300
H1421	H142	0.920600	0.339000	0.494500
H1431	H143	0.961700	0.272000	0.450900
H1441	H144	0.155000	0.416400	0.587400
H1451	H145	0.037200	0.424800	0.577500
H1461	H146	0.087500	0.457300	0.520200
H1471	H147	0.627800	0.110800	0.184100
H1481	H148	0.717400	0.056800	0.112300
H1491	H149	0.868200	0.988300	0.158500
H1501	H150	0.926000	0.973300	0.275000
H1511	H151	0.663400	0.069700	0.354700
H1521	H152	0.525600	0.155100	0.321900
H1531	H153	0.520100	0.086600	0.264800
H1541	H154	0.554600	0.178500	0.253500
H1551	H155	0.722100	0.229700	0.320800
H1561	H156	0.789800	0.170800	0.376700
H1571	H157	0.688300	0.207900	0.387800
H1581	H158	0.340400	0.858900	0.317500
H1591	H159	0.358300	0.743300	0.387500
H1601	H160	0.262000	0.730600	0.464400
H1611	H161	0.148300	0.832100	0.471100
H1621	H162	0.176600	0.030700	0.324100
H1631	H163	0.297100	0.085800	0.279300
H1641	H164	0.345600	0.051600	0.353600
H1651	H165	0.356700	0.000400	0.289200
H1661	H166	0.096300	0.948900	0.235700
H1671	H167	0.152200	0.022000	0.207800
H1681	H168	0.198500	0.931100	0.215500
H1691	H169	0.882100	0.275000	0.213400
H1701	H170	0.855100	0.182200	0.229000
H1711	H171	0.087800	0.291400	0.350100
H1721	H172	0.022300	0.340200	0.286000
H1731	H173	0.142400	0.199500	0.278700
H1741	H174	0.169700	0.292000	0.262900
H1751	H175	0.936400	0.184500	0.140900
H1761	H176	0.001000	0.133900	0.204200
H1771	H177	0.456400	0.132800	0.519600
H1781	H178	0.522400	0.070900	0.573900
H1791	H179	0.483600	0.927100	0.566100
H1801	H180	0.392000	0.895000	0.507100
C11	C1	0.170600	0.280900	0.978410
C21	C2	0.155200	0.195100	0.987450
C31	C3	0.211100	0.138600	0.962200
C41	C4	0.280500	0.161600	0.927300
C51	C5	0.294400	0.244000	0.917400
C61	C6	0.240600	0.302400	0.942190
C71	C7	0.074900	0.169200	0.021100
C81	C8	0.972400	0.172900	0.970900
C91	C9	0.090000	0.085300	0.054500
C101	C10	0.808900	0.470500	0.800400
C111	C11	0.719800	0.426200	0.772200
C121	C12	0.688200	0.417700	0.702900
C131	C13	0.741400	0.449400	0.659800
C141	C14	0.830300	0.490200	0.687300
C151	C15	0.864200	0.499800	0.756800
C161	C16	0.664200	0.388500	0.819000
C171	C17	0.556600	0.365000	0.787000
C181	C18	0.721200	0.313200	0.854300
C191	C19	0.172700	0.591500	0.897640
C201	C20	0.232100	0.584200	0.851200
C211	C21	0.300300	0.646000	0.848600
C221	C22	0.311400	0.715100	0.890500
C231	C23	0.254800	0.722700	0.935700
C241	C24	0.187100	0.662100	0.939200
C251	C25	0.219000	0.508600	0.805900
C261	C26	0.312500	0.463900	0.807100
C271	C27	0.161500	0.528400	0.735100
C281	C28	0.910700	0.278900	0.731040
C291	C29	0.048500	0.214800	0.802760
C301	C30	0.113900	0.246800	0.760650
C311	C31	0.975900	0.310600	0.688310
C321	C32	0.484700	0.423500	0.026100
C331	C33	0.446600	0.564000	0.018500
C341	C34	0.829400	0.780900	0.521590
C351	C35	0.844800	0.695100	0.512550
C361	C36	0.788900	0.638600	0.537800
C371	C37	0.719500	0.661600	0.572700
C381	C38	0.705600	0.744000	0.582600
C391	C39	0.759400	0.802400	0.557810
C401	C40	0.925100	0.669200	0.478900
C411	C41	0.027600	0.672900	0.529100
C421	C42	0.910000	0.585300	0.445500
C431	C43	0.191100	0.970500	0.699600
C441	C44	0.280200	0.926200	0.727800
C451	C45	0.311800	0.917700	0.797100
C461	C46	0.258600	0.949400	0.840200
C471	C47	0.169700	0.990200	0.812700
C481	C48	0.135800	0.999800	0.743200
C491	C49	0.335800	0.888500	0.681000
C501	C50	0.443400	0.865000	0.713000
C511	C51	0.278800	0.813200	0.645700
C521	C52	0.827300	0.091500	0.602360
C531	C53	0.767900	0.084200	0.648800
C541	C54	0.699700	0.146000	0.651400
C551	C55	0.688600	0.215100	0.609500
C561	C56	0.745200	0.222700	0.564300
C571	C57	0.812900	0.162100	0.560800
C581	C58	0.781000	0.008600	0.694100
C591	C59	0.687500	0.963900	0.692900
C601	C60	0.838500	0.028400	0.764900
C611	C61	0.089300	0.778900	0.768960
C621	C62	0.951500	0.714800	0.697240
C631	C63	0.886100	0.746800	0.739350
C641	C64	0.024100	0.810600	0.811690
C651	C65	0.515300	0.923500	0.473900
C661	C66	0.553400	0.064000	0.481500
C671	C67	0.829400	0.719100	0.021590
C681	C68	0.844800	0.804900	0.012550
C691	C69	0.788900	0.861400	0.037800
C701	C70	0.719500	0.838400	0.072700
C711	C71	0.705600	0.756000	0.082600
C721	C72	0.759400	0.697600	0.057810
C731	C73	0.925100	0.830800	0.978900
C741	C74	0.027600	0.827100	0.029100
C751	C75	0.910000	0.914700	0.945500
C761	C76	0.191100	0.529500	0.199600
C771	C77	0.280200	0.573800	0.227800
C781	C78	0.311800	0.582300	0.297100
C791	C79	0.258600	0.550600	0.340200
C801	C80	0.169700	0.509800	0.312700
C811	C81	0.135800	0.500200	0.243200
C821	C82	0.335800	0.611500	0.181000
C831	C83	0.443400	0.635000	0.213000
C841	C84	0.278800	0.686800	0.145700
C851	C85	0.827300	0.408500	0.102360
C861	C86	0.767900	0.415800	0.148800
C871	C87	0.699700	0.354000	0.151400
C881	C88	0.688600	0.284900	0.109500
C891	C89	0.745200	0.277300	0.064300
C901	C90	0.812900	0.337900	0.060800
C911	C91	0.781000	0.491400	0.194100
C921	C92	0.687500	0.536100	0.192900
C931	C93	0.838500	0.471600	0.264900
C941	C94	0.089300	0.721100	0.268960
C951	C95	0.951500	0.785200	0.197240
C961	C96	0.886100	0.753200	0.239350
C971	C97	0.024100	0.689400	0.311690
C981	C98	0.515300	0.576500	0.973900
C991	C99	0.553400	0.436000	0.981500
C1001	C100	0.170600	0.219100	0.478410
C1011	C101	0.155200	0.304900	0.487450
C1021	C102	0.211100	0.361400	0.462200
C1031	C103	0.280500	0.338400	0.427300
C1041	C104	0.294400	0.256000	0.417400
C1051	C105	0.240600	0.197600	0.442190
C1061	C106	0.074900	0.330800	0.521100
C1071	C107	0.972400	0.327100	0.470900
C1081	C108	0.090000	0.414700	0.554500
C1091	C109	0.808900	0.029500	0.300400
C1101	C110	0.719800	0.073800	0.272200
C1111	C111	0.688200	0.082300	0.202900
C1121	C112	0.741400	0.050600	0.159800
C1131	C113	0.830300	0.009800	0.187300
C1141	C114	0.864200	0.000200	0.256800
C1151	C115	0.664200	0.111500	0.319000
C1161	C116	0.556600	0.135000	0.287000
C1171	C117	0.721200	0.186800	0.354300
C1181	C118	0.172700	0.908500	0.397640
C1191	C119	0.232100	0.915800	0.351200
C1201	C120	0.300300	0.854000	0.348600
C1211	C121	0.311400	0.784900	0.390500
C1221	C122	0.254800	0.777300	0.435700
C1231	C123	0.187100	0.837900	0.439200
C1241	C124	0.219000	0.991400	0.305900
C1251	C125	0.312500	0.036100	0.307100
C1261	C126	0.161500	0.971600	0.235100
C1271	C127	0.910700	0.221100	0.231040
C1281	C128	0.048500	0.285200	0.302760
C1291	C129	0.113900	0.253200	0.260650
C1301	C130	0.975900	0.189400	0.188310
C1311	C131	0.484700	0.076500	0.526100
C1321	C132	0.446600	0.936000	0.518500
O11	O1	0.120300	0.337810	0.001870
O21	O2	0.840430	0.483070	0.866220
O31	O3	0.107500	0.534990	0.902280
O41	O4	0.967790	0.269770	0.799900
O51	O5	0.058190	0.256560	0.691700
O61	O6	0.405400	0.482830	0.011070
O71	O7	0.986500	0.480500	0.998900
O81	O8	0.879700	0.837810	0.498130
O91	O9	0.159570	0.983070	0.633780
O101	O10	0.892500	0.034990	0.597720
O111	O11	0.032210	0.769770	0.700100
O121	O12	0.941810	0.756560	0.808300
O131	O13	0.594600	0.982830	0.488930
O141	O14	0.013500	0.980500	0.501100
O151	O15	0.879700	0.662190	0.998130
O161	O16	0.159570	0.516930	0.133780
O171	O17	0.892500	0.465010	0.097720
O181	O18	0.032210	0.730230	0.200100
O191	O19	0.941810	0.743440	0.308300
O201	O20	0.594600	0.517170	0.988930
O211	O21	0.013500	0.519500	0.001100
O221	O22	0.120300	0.162190	0.501870
O231	O23	0.840430	0.016930	0.366220
O241	O24	0.107500	0.965010	0.402280
O251	O25	0.967790	0.230230	0.299900
O261	O26	0.058190	0.243440	0.191700
O271	O27	0.405400	0.017170	0.511070
O281	O28	0.986500	0.019500	0.498900
