data_JIZJOT_freeONLY_PM
_symmetry_space_group_name_H-M	'P1'
_cell_length_a	15.190200
_cell_length_b	17.509600
_cell_length_c	17.509600
_cell_angle_alpha	90.000000
_cell_angle_beta	90.000000
_cell_angle_gamma	90.000000
_symmetry_Int_Tables_number 1

loop_
_symmetry_equiv_pos_as_xyz
'x,y,z'

loop_
_atom_site_label
_atom_site_type_symbol
_atom_site_fract_x
_atom_site_fract_y
_atom_site_fract_z
Co11	Co1	0.967820	0.139650	0.102330
Co21	Co2	0.032180	0.102330	0.860350
Co31	Co3	0.250000	0.149430	0.850570
Co41	Co4	0.532180	0.897670	0.860350
Co51	Co5	0.750000	0.850570	0.850570
Co61	Co6	0.032180	0.897670	0.139650
Co71	Co7	0.967820	0.860350	0.897670
Co81	Co8	0.467820	0.139650	0.897670
Co91	Co9	0.532180	0.102330	0.139650
Co101	Co10	0.467820	0.860350	0.102330
Co111	Co11	0.250000	0.850570	0.149430
Co121	Co12	0.750000	0.149430	0.149430
H11	H1	0.955000	0.663700	0.130300
H21	H2	0.281400	0.767800	0.919800
H31	H3	0.773700	0.109300	0.983100
H41	H4	0.905900	0.964200	0.254500
H51	H5	0.658300	0.013000	0.734800
H61	H6	0.283500	0.861000	0.389600
H71	H7	0.629300	0.616100	0.042400
H81	H8	0.158300	0.987000	0.734800
H91	H9	0.718600	0.919800	0.232200
H101	H10	0.455000	0.663700	0.869700
H111	H11	0.281400	0.232200	0.080200
H121	H12	0.078000	0.117400	0.464800
H131	H13	0.882900	0.714200	0.839000
H141	H14	0.759100	0.003200	0.244300
H151	H15	0.240900	0.755700	0.003200
H161	H16	0.773700	0.890700	0.016900
H171	H17	0.117100	0.161000	0.714200
H181	H18	0.716500	0.389600	0.139000
H191	H19	0.629300	0.383900	0.957600
H201	H20	0.740900	0.244300	0.003200
H211	H21	0.726300	0.983100	0.109300
H221	H22	0.129300	0.383900	0.042400
H231	H23	0.905900	0.035800	0.745500
H241	H24	0.341700	0.734800	0.987000
H251	H25	0.870700	0.957600	0.383900
H261	H26	0.922000	0.464800	0.882600
H271	H27	0.913700	0.583400	0.827400
H281	H28	0.216500	0.389600	0.861000
H291	H29	0.882900	0.285800	0.161000
H301	H30	0.322100	0.116300	0.482100
H311	H31	0.455000	0.336300	0.130300
H321	H32	0.922000	0.535200	0.117400
H331	H33	0.129300	0.616100	0.957600
H341	H34	0.218600	0.919800	0.767800
H351	H35	0.226300	0.983100	0.890700
H361	H36	0.726300	0.016900	0.890700
H371	H37	0.094100	0.254500	0.035800
H381	H38	0.370700	0.042400	0.383900
H391	H39	0.617100	0.839000	0.714200
H401	H40	0.781400	0.232200	0.919800
H411	H41	0.594100	0.254500	0.964200
H421	H42	0.322100	0.883700	0.517900
H431	H43	0.405900	0.964200	0.745500
H441	H44	0.382900	0.285800	0.839000
H451	H45	0.283500	0.139000	0.610400
H461	H46	0.617100	0.161000	0.285800
H471	H47	0.045000	0.869700	0.663700
H481	H48	0.913700	0.416600	0.172600
H491	H49	0.086300	0.172600	0.583400
H501	H50	0.341700	0.265200	0.013000
H511	H51	0.226300	0.016900	0.109300
H521	H52	0.677900	0.482100	0.883700
H531	H53	0.841700	0.734800	0.013000
H541	H54	0.841700	0.265200	0.987000
H551	H55	0.422000	0.464800	0.117400
H561	H56	0.382900	0.714200	0.161000
H571	H57	0.545000	0.130300	0.663700
H581	H58	0.658300	0.987000	0.265200
H591	H59	0.078000	0.882600	0.535200
H601	H60	0.273700	0.890700	0.983100
H611	H61	0.545000	0.869700	0.336300
H621	H62	0.218600	0.080200	0.232200
H631	H63	0.677900	0.517900	0.116300
H641	H64	0.413700	0.583400	0.172600
H651	H65	0.240900	0.244300	0.996800
H661	H66	0.740900	0.755700	0.996800
H671	H67	0.822100	0.883700	0.482100
H681	H68	0.405900	0.035800	0.254500
H691	H69	0.158300	0.013000	0.265200
H701	H70	0.783500	0.139000	0.389600
H711	H71	0.422000	0.535200	0.882600
H721	H72	0.870700	0.042400	0.616100
H731	H73	0.578000	0.882600	0.464800
H741	H74	0.783500	0.861000	0.610400
H751	H75	0.086300	0.827400	0.416600
H761	H76	0.716500	0.610400	0.861000
H771	H77	0.259100	0.003200	0.755700
H781	H78	0.578000	0.117400	0.535200
H791	H79	0.117100	0.839000	0.285800
H801	H80	0.177900	0.482100	0.116300
H811	H81	0.259100	0.996800	0.244300
H821	H82	0.781400	0.767800	0.080200
H831	H83	0.045000	0.130300	0.336300
H841	H84	0.955000	0.336300	0.869700
H851	H85	0.718600	0.080200	0.767800
H861	H86	0.177900	0.517900	0.883700
H871	H87	0.594100	0.745500	0.035800
H881	H88	0.216500	0.610400	0.139000
H891	H89	0.370700	0.957600	0.616100
H901	H90	0.413700	0.416600	0.827400
H911	H91	0.586300	0.827400	0.583400
H921	H92	0.759100	0.996800	0.755700
H931	H93	0.094100	0.745500	0.964200
H941	H94	0.273700	0.109300	0.016900
H951	H95	0.822100	0.116300	0.517900
H961	H96	0.586300	0.172600	0.416600
C11	C1	0.632900	0.480500	0.120700
C21	C2	0.096100	0.049600	0.127800
C31	C3	0.578600	0.365200	0.932000
C41	C4	0.411600	0.132300	0.652300
C51	C5	0.588400	0.652300	0.867700
C61	C6	0.088400	0.347700	0.867700
C71	C7	0.115800	0.265700	0.857900
C81	C8	0.557000	0.712400	0.064400
C91	C9	0.048000	0.855800	0.384500
C101	C10	0.421400	0.068000	0.365200
C111	C11	0.411600	0.867700	0.347700
C121	C12	0.501500	0.627400	0.872100
C131	C13	0.452900	0.115900	0.497100
C141	C14	0.481800	0.449100	0.120000
C151	C15	0.156700	0.403800	0.868100
C161	C16	0.474200	0.108900	0.414300
C171	C17	0.934400	0.694600	0.862700
C181	C18	0.047100	0.502900	0.884100
C191	C19	0.132900	0.519500	0.120700
C201	C20	0.943000	0.935600	0.287600
C211	C21	0.065600	0.862700	0.305400
C221	C22	0.403900	0.127800	0.049600
C231	C23	0.981800	0.449100	0.880000
C241	C24	0.025800	0.585700	0.891100
C251	C25	0.498500	0.127900	0.627400
C261	C26	0.452900	0.884100	0.502900
C271	C27	0.678200	0.002900	0.854400
C281	C28	0.615800	0.734300	0.857900
C291	C29	0.501500	0.372600	0.127900
C301	C30	0.293800	0.229900	0.025400
C311	C31	0.981800	0.550900	0.120000
C321	C32	0.843300	0.868100	0.596200
C331	C33	0.443000	0.935600	0.712400
C341	C34	0.615800	0.265700	0.142100
C351	C35	0.001500	0.627400	0.127900
C361	C36	0.867100	0.120700	0.480500
C371	C37	0.343300	0.131900	0.596200
C381	C38	0.943000	0.064400	0.712400
C391	C39	0.018200	0.120000	0.449100
C401	C40	0.481800	0.550900	0.880000
C411	C41	0.078600	0.634800	0.932000
C421	C42	0.132900	0.480500	0.879300
C431	C43	0.048000	0.144200	0.615500
C441	C44	0.884200	0.857900	0.734300
C451	C45	0.998500	0.872100	0.627400
C461	C46	0.452000	0.615500	0.144200
C471	C47	0.115800	0.734300	0.142100
C481	C48	0.903900	0.127800	0.950400
C491	C49	0.565600	0.862700	0.694600
C501	C50	0.525800	0.585700	0.108900
C511	C51	0.518200	0.120000	0.550900
C521	C52	0.047100	0.497100	0.115900
C531	C53	0.525800	0.414300	0.891100
C541	C54	0.548000	0.855800	0.615500
C551	C55	0.434400	0.694600	0.137300
C561	C56	0.557000	0.287600	0.935600
C571	C57	0.434400	0.305400	0.862700
C581	C58	0.952000	0.615500	0.855800
C591	C59	0.974200	0.891100	0.414300
C601	C60	0.321800	0.145600	0.002900
C611	C61	0.206200	0.974600	0.770100
C621	C62	0.178200	0.997100	0.854400
C631	C63	0.921400	0.068000	0.634800
C641	C64	0.206200	0.025400	0.229900
C651	C65	0.952000	0.384500	0.144200
C661	C66	0.548000	0.144200	0.384500
C671	C67	0.952900	0.115900	0.502900
C681	C68	0.384200	0.857900	0.265700
C691	C69	0.547100	0.502900	0.115900
C701	C70	0.821800	0.145600	0.997100
C711	C71	0.656700	0.596200	0.868100
C721	C72	0.367100	0.879300	0.480500
C731	C73	0.596100	0.049600	0.872200
C741	C74	0.934400	0.305400	0.137300
C751	C75	0.867100	0.879300	0.519500
C761	C76	0.367100	0.120700	0.519500
C771	C77	0.057000	0.287600	0.064400
C781	C78	0.952900	0.884100	0.497100
C791	C79	0.057000	0.712400	0.935600
C801	C80	0.321800	0.854400	0.997100
C811	C81	0.793800	0.770100	0.025400
C821	C82	0.088400	0.652300	0.132300
C831	C83	0.565600	0.137300	0.305400
C841	C84	0.443000	0.064400	0.287600
C851	C85	0.911600	0.867700	0.652300
C861	C86	0.518200	0.880000	0.449100
C871	C87	0.403900	0.872200	0.950400
C881	C88	0.632900	0.519500	0.879300
C891	C89	0.921400	0.932000	0.365200
C901	C90	0.578600	0.634800	0.068000
C911	C91	0.096100	0.950400	0.872200
C921	C92	0.588400	0.347700	0.132300
C931	C93	0.821800	0.854400	0.002900
C941	C94	0.065600	0.137300	0.694600
C951	C95	0.025800	0.414300	0.108900
C961	C96	0.001500	0.372600	0.872100
C971	C97	0.706200	0.025400	0.770100
C981	C98	0.293800	0.770100	0.974600
C991	C99	0.706200	0.974600	0.229900
C1001	C100	0.998500	0.127900	0.372600
C1011	C101	0.596100	0.950400	0.127800
C1021	C102	0.178200	0.002900	0.145600
C1031	C103	0.156700	0.596200	0.131900
C1041	C104	0.903900	0.872200	0.049600
C1051	C105	0.793800	0.229900	0.974600
C1061	C106	0.343300	0.868100	0.403800
C1071	C107	0.974200	0.108900	0.585700
C1081	C108	0.843300	0.131900	0.403800
C1091	C109	0.498500	0.872100	0.372600
C1101	C110	0.018200	0.880000	0.550900
C1111	C111	0.678200	0.997100	0.145600
C1121	C112	0.656700	0.403800	0.131900
C1131	C113	0.078600	0.365200	0.068000
C1141	C114	0.421400	0.932000	0.634800
C1151	C115	0.384200	0.142100	0.734300
C1161	C116	0.452000	0.384500	0.855800
C1171	C117	0.884200	0.142100	0.265700
C1181	C118	0.474200	0.891100	0.585700
C1191	C119	0.911600	0.132300	0.347700
C1201	C120	0.547100	0.497100	0.884100
N11	N1	0.014000	0.900400	0.257300
N21	N2	0.486000	0.742700	0.099600
N31	N3	0.014000	0.099600	0.742700
N41	N4	0.514000	0.900400	0.742700
N51	N5	0.486000	0.257300	0.900400
N61	N6	0.986000	0.742700	0.900400
N71	N7	0.986000	0.257300	0.099600
N81	N8	0.514000	0.099600	0.257300
O11	O1	0.841000	0.138600	0.074900
O21	O2	0.397900	0.880800	0.879500
O31	O3	0.693300	0.749800	0.851500
O41	O4	0.977100	0.877700	0.016700
O51	O5	0.022900	0.983300	0.877700
O61	O6	0.050800	0.218700	0.859600
O71	O7	0.949200	0.140400	0.218700
O81	O8	0.897900	0.880800	0.120500
O91	O9	0.341000	0.138600	0.925100
O101	O10	0.897900	0.119200	0.879500
O111	O11	0.806700	0.851500	0.749800
O121	O12	0.659000	0.074900	0.138600
O131	O13	0.841000	0.861400	0.925100
O141	O14	0.602100	0.879500	0.119200
O151	O15	0.477100	0.877700	0.983300
O161	O16	0.550800	0.781300	0.859600
O171	O17	0.522900	0.016700	0.877700
O181	O18	0.659000	0.925100	0.861400
O191	O19	0.522900	0.983300	0.122300
O201	O20	0.102100	0.879500	0.880800
O211	O21	0.949200	0.859600	0.781300
O221	O22	0.102100	0.120500	0.119200
O231	O23	0.977100	0.122300	0.983300
O241	O24	0.022900	0.016700	0.122300
O251	O25	0.449200	0.140400	0.781300
O261	O26	0.449200	0.859600	0.218700
O271	O27	0.550800	0.218700	0.140400
O281	O28	0.602100	0.120500	0.880800
O291	O29	0.193300	0.749800	0.148500
O301	O30	0.306700	0.148500	0.749800
O311	O31	0.806700	0.148500	0.250200
O321	O32	0.397900	0.119200	0.120500
O331	O33	0.693300	0.250200	0.148500
O341	O34	0.050800	0.781300	0.140400
O351	O35	0.193300	0.250200	0.851500
O361	O36	0.341000	0.861400	0.074900
O371	O37	0.477100	0.122300	0.016700
O381	O38	0.159000	0.074900	0.861400
O391	O39	0.306700	0.851500	0.250200
O401	O40	0.159000	0.925100	0.138600
