data_JIZWIA_freeONLY_PM
_symmetry_space_group_name_H-M	'P1'
_cell_length_a	6.603100
_cell_length_b	18.059900
_cell_length_c	10.857900
_cell_angle_alpha	90.000000
_cell_angle_beta	90.373600
_cell_angle_gamma	90.000000
_symmetry_Int_Tables_number 1

loop_
_symmetry_equiv_pos_as_xyz
'x,y,z'

loop_
_atom_site_label
_atom_site_type_symbol
_atom_site_fract_x
_atom_site_fract_y
_atom_site_fract_z
Al11	Al1	0.236600	0.234600	0.244000
O11	O1	0.989100	0.232100	0.159800
O21	O2	0.835400	0.661100	0.635900
O31	O3	0.323500	0.158400	0.133500
O41	O4	0.161800	0.307900	0.354800
O51	O5	0.681200	0.804800	0.880300
Al21	Al2	0.254600	0.736500	0.755100
O61	O6	0.507500	0.730500	0.683000
O71	O7	0.365100	0.802200	0.873000
O81	O8	0.850200	0.299900	0.365700
O91	O9	0.675400	0.144500	0.166200
O101	O10	0.159400	0.650100	0.657000
C11	C1	0.816050	0.510820	0.534720
C21	C2	0.830510	0.439970	0.459690
C31	C3	0.204230	0.438760	0.479070
C41	C4	0.199480	0.512120	0.550770
C51	C5	0.005810	0.556520	0.531370
C61	C6	0.013230	0.392600	0.491390
C71	C7	0.992970	0.626400	0.606480
C81	C8	0.018340	0.324840	0.410530
C91	C9	0.322100	0.955360	0.946920
C101	C10	0.314360	0.026390	0.024740
C111	C11	0.682660	0.017810	0.066290
C121	C12	0.700910	0.949210	0.986000
C131	C13	0.506070	0.906970	0.973620
C141	C14	0.511980	0.069350	0.028330
C151	C15	0.522850	0.839360	0.893220
C161	C16	0.501680	0.134510	0.114690
Al31	Al3	0.763400	0.734600	0.756000
O111	O11	0.010900	0.732100	0.840200
O121	O12	0.164600	0.161100	0.364100
O131	O13	0.676500	0.658400	0.866500
O141	O14	0.838200	0.807900	0.645200
O151	O15	0.318800	0.304800	0.119700
Al41	Al4	0.745400	0.236500	0.244900
O161	O16	0.492500	0.230500	0.317000
O171	O17	0.634900	0.302200	0.127000
O181	O18	0.149800	0.799900	0.634300
O191	O19	0.324600	0.644500	0.833800
O201	O20	0.840600	0.150100	0.343000
C171	C17	0.183950	0.010820	0.465280
C181	C18	0.169490	0.939970	0.540310
C191	C19	0.795770	0.938760	0.520930
C201	C20	0.800520	0.012120	0.449230
C211	C21	0.994190	0.056520	0.468630
C221	C22	0.986770	0.892600	0.508610
C231	C23	0.007030	0.126400	0.393520
C241	C24	0.981660	0.824840	0.589470
C251	C25	0.677900	0.455360	0.053080
C261	C26	0.685640	0.526390	0.975260
C271	C27	0.317340	0.517810	0.933710
C281	C28	0.299090	0.449210	0.014000
C291	C29	0.493930	0.406970	0.026380
C301	C30	0.488020	0.569350	0.971670
C311	C31	0.477150	0.339360	0.106780
C321	C32	0.498320	0.634510	0.885310
