data_JOCPIB_freeONLY_PM
_symmetry_space_group_name_H-M	'P1'
_cell_length_a	10.001000
_cell_length_b	15.550800
_cell_length_c	15.550800
_cell_angle_alpha	84.065000
_cell_angle_beta	71.242800
_cell_angle_gamma	71.242700
_symmetry_Int_Tables_number 1

loop_
_symmetry_equiv_pos_as_xyz
'x,y,z'

loop_
_atom_site_label
_atom_site_type_symbol
_atom_site_fract_x
_atom_site_fract_y
_atom_site_fract_z
Cu11	Cu1	0.128740	0.261130	0.998590
Cu21	Cu2	0.388460	0.738870	0.001410
Cu31	Cu3	0.377330	0.501410	0.761130
Cu41	Cu4	0.639870	0.498590	0.238870
Cu51	Cu5	0.388460	0.001410	0.738870
Cu61	Cu6	0.128740	0.998590	0.261130
Cu71	Cu7	0.639870	0.238870	0.498590
Cu81	Cu8	0.377330	0.761130	0.501410
H11	H1	0.850100	0.205500	0.015500
H21	H2	0.947100	0.331300	0.859500
H31	H3	0.897800	0.481600	0.307600
H41	H4	0.248600	0.313400	0.141000
H51	H5	0.071100	0.794500	0.984500
H61	H6	0.137900	0.668700	0.140500
H71	H7	0.687000	0.518400	0.692400
H81	H8	0.703000	0.686600	0.859000
H91	H9	0.115600	0.484500	0.705500
H101	H10	0.056600	0.640500	0.831300
H111	H11	0.455400	0.192400	0.981600
H121	H12	0.639600	0.359000	0.813400
H131	H13	0.305600	0.515500	0.294500
H141	H14	0.528400	0.359500	0.168700
H151	H15	0.629400	0.807600	0.018400
H161	H16	0.812000	0.641000	0.186600
H171	H17	0.071100	0.984500	0.794500
H181	H18	0.137900	0.140500	0.668700
H191	H19	0.687000	0.692400	0.518400
H201	H20	0.703000	0.859000	0.686600
H211	H21	0.850100	0.015500	0.205500
H221	H22	0.947100	0.859500	0.331300
H231	H23	0.897800	0.307600	0.481600
H241	H24	0.248600	0.141000	0.313400
H251	H25	0.305600	0.294500	0.515500
H261	H26	0.528400	0.168700	0.359500
H271	H27	0.629400	0.018400	0.807600
H281	H28	0.812000	0.186600	0.641000
H291	H29	0.115600	0.705500	0.484500
H301	H30	0.056600	0.831300	0.640500
H311	H31	0.455400	0.981600	0.192400
H321	H32	0.639600	0.813400	0.359000
C11	C1	0.894320	0.168930	0.056230
C21	C2	0.018040	0.276640	0.836680
C31	C3	0.919490	0.389220	0.128200
C41	C4	0.940860	0.446680	0.255000
C51	C5	0.087700	0.402200	0.228800
C61	C6	0.148500	0.346700	0.156300
C71	C7	0.119480	0.831070	0.943770
C81	C8	0.131360	0.723360	0.163320
C91	C9	0.436910	0.610780	0.871800
C101	C10	0.642540	0.553320	0.745000
C111	C11	0.718700	0.597800	0.771200
C121	C12	0.651500	0.653300	0.843700
C131	C13	0.200550	0.443770	0.668930
C141	C14	0.104720	0.663320	0.776640
C151	C15	0.297690	0.371800	0.889220
C161	C16	0.445860	0.245000	0.946680
C171	C17	0.566500	0.271200	0.902200
C181	C18	0.554800	0.343700	0.846700
C191	C19	0.313250	0.556230	0.331070
C201	C20	0.544680	0.336680	0.223360
C211	C21	0.558710	0.628200	0.110780
C221	C22	0.637540	0.755000	0.053320
C231	C23	0.739900	0.728800	0.097800
C241	C24	0.745200	0.656300	0.153300
C251	C25	0.119480	0.943770	0.831070
C261	C26	0.131360	0.163320	0.723360
C271	C27	0.436910	0.871800	0.610780
C281	C28	0.642540	0.745000	0.553320
C291	C29	0.718700	0.771200	0.597800
C301	C30	0.651500	0.843700	0.653300
C311	C31	0.894320	0.056230	0.168930
C321	C32	0.018040	0.836680	0.276640
C331	C33	0.919490	0.128200	0.389220
C341	C34	0.940860	0.255000	0.446680
C351	C35	0.087700	0.228800	0.402200
C361	C36	0.148500	0.156300	0.346700
C371	C37	0.313250	0.331070	0.556230
C381	C38	0.544680	0.223360	0.336680
C391	C39	0.558710	0.110780	0.628200
C401	C40	0.637540	0.053320	0.755000
C411	C41	0.739900	0.097800	0.728800
C421	C42	0.745200	0.153300	0.656300
C431	C43	0.200550	0.668930	0.443770
C441	C44	0.104720	0.776640	0.663320
C451	C45	0.297690	0.889220	0.371800
C461	C46	0.445860	0.946680	0.245000
C471	C47	0.566500	0.902200	0.271200
C481	C48	0.554800	0.846700	0.343700
C491	C49	0.083400	0.124000	0.124000
C501	C50	0.833600	0.105700	0.105700
C511	C51	0.331400	0.876000	0.876000
C521	C52	0.045000	0.894300	0.894300
C531	C53	0.457400	0.376000	0.624000
C541	C54	0.189300	0.394300	0.605700
C551	C55	0.457400	0.624000	0.376000
C561	C56	0.189300	0.605700	0.394300
C571	C57	0.216500	0.152300	0.847700
C581	C58	0.022500	0.242500	0.757500
C591	C59	0.216500	0.847700	0.152300
C601	C60	0.022500	0.757500	0.242500
C611	C61	0.314200	0.652300	0.652300
C621	C62	0.030000	0.742500	0.742500
C631	C63	0.618800	0.347700	0.347700
C641	C64	0.515000	0.257500	0.257500
N11	N1	0.016260	0.179050	0.065430
N21	N2	0.112530	0.233170	0.880770
N31	N3	0.067580	0.338500	0.106140
N41	N4	0.856730	0.440440	0.204900
N51	N5	0.260740	0.820950	0.934570
N61	N6	0.226470	0.766830	0.119230
N71	N7	0.512220	0.661500	0.893860
N81	N8	0.502070	0.559560	0.795100
N91	N9	0.331690	0.434570	0.679050
N101	N10	0.243300	0.619230	0.733170
N111	N11	0.423720	0.393860	0.838500
N121	N12	0.311630	0.295100	0.940440
N131	N13	0.445310	0.565430	0.320950
N141	N14	0.595700	0.380770	0.266830
N151	N15	0.656080	0.606140	0.161500
N161	N16	0.547170	0.704900	0.059560
N171	N17	0.260740	0.934570	0.820950
N181	N18	0.226470	0.119230	0.766830
N191	N19	0.512220	0.893860	0.661500
N201	N20	0.502070	0.795100	0.559560
N211	N21	0.016260	0.065430	0.179050
N221	N22	0.112530	0.880770	0.233170
N231	N23	0.067580	0.106140	0.338500
N241	N24	0.856730	0.204900	0.440440
N251	N25	0.445310	0.320950	0.565430
N261	N26	0.595700	0.266830	0.380770
N271	N27	0.656080	0.161500	0.606140
N281	N28	0.547170	0.059560	0.704900
N291	N29	0.331690	0.679050	0.434570
N301	N30	0.243300	0.733170	0.619230
N311	N31	0.423720	0.838500	0.393860
N321	N32	0.311630	0.940440	0.295100
O11	O1	0.846460	0.384700	0.078980
O21	O2	0.310140	0.615300	0.921020
O31	O3	0.175440	0.421020	0.884700
O41	O4	0.481160	0.578980	0.115300
O51	O5	0.310140	0.921020	0.615300
O61	O6	0.846460	0.078980	0.384700
O71	O7	0.481160	0.115300	0.578980
O81	O8	0.175440	0.884700	0.421020
O91	O9	0.202490	0.128910	0.128910
O101	O10	0.460310	0.871090	0.871090
O111	O11	0.581400	0.371090	0.628910
O121	O12	0.581400	0.628910	0.371090
O131	O13	0.300900	0.108900	0.891100
O141	O14	0.300900	0.891100	0.108900
O151	O15	0.442000	0.608900	0.608900
O161	O16	0.659800	0.391100	0.391100
F11	F1	0.172000	0.411660	0.277540
F21	F2	0.861200	0.588340	0.722460
F31	F3	0.699540	0.222460	0.911660
F41	F4	0.833660	0.777540	0.088340
F51	F5	0.861200	0.722460	0.588340
F61	F6	0.172000	0.277540	0.411660
F71	F7	0.833660	0.088340	0.777540
F81	F8	0.699540	0.911660	0.222460
F91	F9	0.711400	0.095200	0.095200
F101	F10	0.901800	0.904800	0.904800
F111	F11	0.056600	0.404800	0.595200
F121	F12	0.056600	0.595200	0.404800
F131	F13	0.923500	0.286020	0.713980
F141	F14	0.923500	0.713980	0.286020
F151	F15	0.887480	0.786020	0.786020
F161	F16	0.459520	0.213980	0.213980
