data_JOCWIJ_freeONLY_PM
_symmetry_space_group_name_H-M	'P1'
_cell_length_a	21.137300
_cell_length_b	21.137300
_cell_length_c	21.137300
_cell_angle_alpha	90.000000
_cell_angle_beta	90.000000
_cell_angle_gamma	90.000000
_symmetry_Int_Tables_number 1

loop_
_symmetry_equiv_pos_as_xyz
'x,y,z'

loop_
_atom_site_label
_atom_site_type_symbol
_atom_site_fract_x
_atom_site_fract_y
_atom_site_fract_z
N11	N1	0.131380	0.308900	0.262760
C11	C1	0.082200	0.345400	0.273500
H11	H1	0.069800	0.379500	0.248600
H21	H2	0.992100	0.396300	0.343800
H31	H3	0.142400	0.247500	0.096300
N21	N2	0.631380	0.808900	0.762760
C21	C2	0.582200	0.845400	0.773500
H41	H4	0.569800	0.879500	0.748600
H51	H5	0.492100	0.896300	0.843800
H61	H6	0.642400	0.747500	0.596300
N31	N3	0.868620	0.691100	0.262760
C31	C3	0.917800	0.654600	0.273500
H71	H7	0.930200	0.620500	0.248600
H81	H8	0.007900	0.603700	0.343800
H91	H9	0.857600	0.752500	0.096300
N41	N4	0.368620	0.191100	0.762760
C41	C4	0.417800	0.154600	0.773500
H101	H10	0.430200	0.120500	0.748600
H111	H11	0.507900	0.103700	0.843800
H121	H12	0.357600	0.252500	0.596300
N51	N5	0.868620	0.308900	0.737240
C51	C5	0.917800	0.345400	0.726500
H131	H13	0.930200	0.379500	0.751400
H141	H14	0.007900	0.396300	0.656200
H151	H15	0.857600	0.247500	0.903700
N61	N6	0.368620	0.808900	0.237240
C61	C6	0.417800	0.845400	0.226500
H161	H16	0.430200	0.879500	0.251400
H171	H17	0.507900	0.896300	0.156200
H181	H18	0.357600	0.747500	0.403700
N71	N7	0.131380	0.691100	0.737240
C71	C7	0.082200	0.654600	0.726500
H191	H19	0.069800	0.620500	0.751400
H201	H20	0.992100	0.603700	0.656200
H211	H21	0.142400	0.752500	0.903700
N81	N8	0.631380	0.191100	0.237240
C81	C8	0.582200	0.154600	0.226500
H221	H22	0.569800	0.120500	0.251400
H231	H23	0.492100	0.103700	0.156200
H241	H24	0.642400	0.252500	0.403700
N91	N9	0.262760	0.131380	0.308900
C91	C9	0.273500	0.082200	0.345400
H251	H25	0.248600	0.069800	0.379500
H261	H26	0.343800	0.992100	0.396300
H271	H27	0.096300	0.142400	0.247500
N101	N10	0.762760	0.631380	0.808900
C101	C10	0.773500	0.582200	0.845400
H281	H28	0.748600	0.569800	0.879500
H291	H29	0.843800	0.492100	0.896300
H301	H30	0.596300	0.642400	0.747500
N111	N11	0.262760	0.868620	0.691100
C111	C11	0.273500	0.917800	0.654600
H311	H31	0.248600	0.930200	0.620500
H321	H32	0.343800	0.007900	0.603700
H331	H33	0.096300	0.857600	0.752500
N121	N12	0.762760	0.368620	0.191100
C121	C12	0.773500	0.417800	0.154600
H341	H34	0.748600	0.430200	0.120500
H351	H35	0.843800	0.507900	0.103700
H361	H36	0.596300	0.357600	0.252500
N131	N13	0.737240	0.868620	0.308900
C131	C13	0.726500	0.917800	0.345400
H371	H37	0.751400	0.930200	0.379500
H381	H38	0.656200	0.007900	0.396300
H391	H39	0.903700	0.857600	0.247500
N141	N14	0.237240	0.368620	0.808900
C141	C14	0.226500	0.417800	0.845400
H401	H40	0.251400	0.430200	0.879500
H411	H41	0.156200	0.507900	0.896300
H421	H42	0.403700	0.357600	0.747500
N151	N15	0.737240	0.131380	0.691100
C151	C15	0.726500	0.082200	0.654600
H431	H43	0.751400	0.069800	0.620500
H441	H44	0.656200	0.992100	0.603700
H451	H45	0.903700	0.142400	0.752500
N161	N16	0.237240	0.631380	0.191100
C161	C16	0.226500	0.582200	0.154600
H461	H46	0.251400	0.569800	0.120500
H471	H47	0.156200	0.492100	0.103700
H481	H48	0.403700	0.642400	0.252500
N171	N17	0.308900	0.262760	0.131380
C171	C17	0.345400	0.273500	0.082200
H491	H49	0.379500	0.248600	0.069800
H501	H50	0.396300	0.343800	0.992100
H511	H51	0.247500	0.096300	0.142400
N181	N18	0.808900	0.762760	0.631380
C181	C18	0.845400	0.773500	0.582200
H521	H52	0.879500	0.748600	0.569800
H531	H53	0.896300	0.843800	0.492100
H541	H54	0.747500	0.596300	0.642400
N191	N19	0.691100	0.262760	0.868620
C191	C19	0.654600	0.273500	0.917800
H551	H55	0.620500	0.248600	0.930200
H561	H56	0.603700	0.343800	0.007900
H571	H57	0.752500	0.096300	0.857600
N201	N20	0.191100	0.762760	0.368620
C201	C20	0.154600	0.773500	0.417800
H581	H58	0.120500	0.748600	0.430200
H591	H59	0.103700	0.843800	0.507900
H601	H60	0.252500	0.596300	0.357600
N211	N21	0.308900	0.737240	0.868620
C211	C21	0.345400	0.726500	0.917800
H611	H61	0.379500	0.751400	0.930200
H621	H62	0.396300	0.656200	0.007900
H631	H63	0.247500	0.903700	0.857600
N221	N22	0.808900	0.237240	0.368620
C221	C22	0.845400	0.226500	0.417800
H641	H64	0.879500	0.251400	0.430200
H651	H65	0.896300	0.156200	0.507900
H661	H66	0.747500	0.403700	0.357600
N231	N23	0.691100	0.737240	0.131380
C231	C23	0.654600	0.726500	0.082200
H671	H67	0.620500	0.751400	0.069800
H681	H68	0.603700	0.656200	0.992100
H691	H69	0.752500	0.903700	0.142400
N241	N24	0.191100	0.237240	0.631380
C241	C24	0.154600	0.226500	0.582200
H701	H70	0.120500	0.251400	0.569800
H711	H71	0.103700	0.156200	0.492100
H721	H72	0.252500	0.403700	0.642400
N251	N25	0.308900	0.131380	0.262760
C251	C25	0.345400	0.082200	0.273500
H731	H73	0.379500	0.069800	0.248600
H741	H74	0.396300	0.992100	0.343800
H751	H75	0.247500	0.142400	0.096300
N261	N26	0.808900	0.631380	0.762760
C261	C26	0.845400	0.582200	0.773500
H761	H76	0.879500	0.569800	0.748600
H771	H77	0.896300	0.492100	0.843800
H781	H78	0.747500	0.642400	0.596300
N271	N27	0.691100	0.868620	0.262760
C271	C27	0.654600	0.917800	0.273500
H791	H79	0.620500	0.930200	0.248600
H801	H80	0.603700	0.007900	0.343800
H811	H81	0.752500	0.857600	0.096300
N281	N28	0.191100	0.368620	0.762760
C281	C28	0.154600	0.417800	0.773500
H821	H82	0.120500	0.430200	0.748600
H831	H83	0.103700	0.507900	0.843800
H841	H84	0.252500	0.357600	0.596300
N291	N29	0.308900	0.868620	0.737240
C291	C29	0.345400	0.917800	0.726500
H851	H85	0.379500	0.930200	0.751400
H861	H86	0.396300	0.007900	0.656200
H871	H87	0.247500	0.857600	0.903700
N301	N30	0.808900	0.368620	0.237240
C301	C30	0.845400	0.417800	0.226500
H881	H88	0.879500	0.430200	0.251400
H891	H89	0.896300	0.507900	0.156200
H901	H90	0.747500	0.357600	0.403700
N311	N31	0.691100	0.131380	0.737240
C311	C31	0.654600	0.082200	0.726500
H911	H91	0.620500	0.069800	0.751400
H921	H92	0.603700	0.992100	0.656200
H931	H93	0.752500	0.142400	0.903700
N321	N32	0.191100	0.631380	0.237240
C321	C32	0.154600	0.582200	0.226500
H941	H94	0.120500	0.569800	0.251400
H951	H95	0.103700	0.492100	0.156200
H961	H96	0.252500	0.642400	0.403700
N331	N33	0.131380	0.262760	0.308900
C331	C33	0.082200	0.273500	0.345400
H971	H97	0.069800	0.248600	0.379500
H981	H98	0.992100	0.343800	0.396300
H991	H99	0.142400	0.096300	0.247500
N341	N34	0.631380	0.762760	0.808900
C341	C34	0.582200	0.773500	0.845400
H1001	H100	0.569800	0.748600	0.879500
H1011	H101	0.492100	0.843800	0.896300
H1021	H102	0.642400	0.596300	0.747500
N351	N35	0.868620	0.262760	0.691100
C351	C35	0.917800	0.273500	0.654600
H1031	H103	0.930200	0.248600	0.620500
H1041	H104	0.007900	0.343800	0.603700
H1051	H105	0.857600	0.096300	0.752500
N361	N36	0.368620	0.762760	0.191100
C361	C36	0.417800	0.773500	0.154600
H1061	H106	0.430200	0.748600	0.120500
H1071	H107	0.507900	0.843800	0.103700
H1081	H108	0.357600	0.596300	0.252500
N371	N37	0.868620	0.737240	0.308900
C371	C37	0.917800	0.726500	0.345400
H1091	H109	0.930200	0.751400	0.379500
H1101	H110	0.007900	0.656200	0.396300
H1111	H111	0.857600	0.903700	0.247500
N381	N38	0.368620	0.237240	0.808900
C381	C38	0.417800	0.226500	0.845400
H1121	H112	0.430200	0.251400	0.879500
H1131	H113	0.507900	0.156200	0.896300
H1141	H114	0.357600	0.403700	0.747500
N391	N39	0.131380	0.737240	0.691100
C391	C39	0.082200	0.726500	0.654600
H1151	H115	0.069800	0.751400	0.620500
H1161	H116	0.992100	0.656200	0.603700
H1171	H117	0.142400	0.903700	0.752500
N401	N40	0.631380	0.237240	0.191100
C401	C40	0.582200	0.226500	0.154600
H1181	H118	0.569800	0.251400	0.120500
H1191	H119	0.492100	0.156200	0.103700
H1201	H120	0.642400	0.403700	0.252500
N411	N41	0.262760	0.308900	0.131380
C411	C41	0.273500	0.345400	0.082200
H1211	H121	0.248600	0.379500	0.069800
H1221	H122	0.343800	0.396300	0.992100
H1231	H123	0.096300	0.247500	0.142400
N421	N42	0.762760	0.808900	0.631380
C421	C42	0.773500	0.845400	0.582200
H1241	H124	0.748600	0.879500	0.569800
H1251	H125	0.843800	0.896300	0.492100
H1261	H126	0.596300	0.747500	0.642400
N431	N43	0.262760	0.691100	0.868620
C431	C43	0.273500	0.654600	0.917800
H1271	H127	0.248600	0.620500	0.930200
H1281	H128	0.343800	0.603700	0.007900
H1291	H129	0.096300	0.752500	0.857600
N441	N44	0.762760	0.191100	0.368620
C441	C44	0.773500	0.154600	0.417800
H1301	H130	0.748600	0.120500	0.430200
H1311	H131	0.843800	0.103700	0.507900
H1321	H132	0.596300	0.252500	0.357600
N451	N45	0.737240	0.308900	0.868620
C451	C45	0.726500	0.345400	0.917800
H1331	H133	0.751400	0.379500	0.930200
H1341	H134	0.656200	0.396300	0.007900
H1351	H135	0.903700	0.247500	0.857600
N461	N46	0.237240	0.808900	0.368620
C461	C46	0.226500	0.845400	0.417800
H1361	H136	0.251400	0.879500	0.430200
H1371	H137	0.156200	0.896300	0.507900
H1381	H138	0.403700	0.747500	0.357600
N471	N47	0.737240	0.691100	0.131380
C471	C47	0.726500	0.654600	0.082200
H1391	H139	0.751400	0.620500	0.069800
H1401	H140	0.656200	0.603700	0.992100
H1411	H141	0.903700	0.752500	0.142400
N481	N48	0.237240	0.191100	0.631380
C481	C48	0.226500	0.154600	0.582200
H1421	H142	0.251400	0.120500	0.569800
H1431	H143	0.156200	0.103700	0.492100
H1441	H144	0.403700	0.252500	0.642400
Cu11	Cu1	0.193300	0.306880	0.193300
O11	O1	0.135200	0.239800	0.135200
Cu21	Cu2	0.693300	0.806880	0.693300
O21	O2	0.635200	0.739800	0.635200
Cu31	Cu3	0.806700	0.693120	0.193300
O31	O3	0.864800	0.760200	0.135200
Cu41	Cu4	0.306700	0.193120	0.693300
O41	O4	0.364800	0.260200	0.635200
Cu51	Cu5	0.806700	0.306880	0.806700
O51	O5	0.864800	0.239800	0.864800
Cu61	Cu6	0.306700	0.806880	0.306700
O61	O6	0.364800	0.739800	0.364800
Cu71	Cu7	0.193300	0.693120	0.806700
O71	O7	0.135200	0.760200	0.864800
Cu81	Cu8	0.693300	0.193120	0.306700
O81	O8	0.635200	0.260200	0.364800
Cu91	Cu9	0.193300	0.193300	0.306880
O91	O9	0.135200	0.135200	0.239800
Cu101	Cu10	0.693300	0.693300	0.806880
O101	O10	0.635200	0.635200	0.739800
Cu111	Cu11	0.193300	0.806700	0.693120
O111	O11	0.135200	0.864800	0.760200
Cu121	Cu12	0.693300	0.306700	0.193120
O121	O12	0.635200	0.364800	0.260200
Cu131	Cu13	0.806700	0.806700	0.306880
O131	O13	0.864800	0.864800	0.239800
Cu141	Cu14	0.306700	0.306700	0.806880
O141	O14	0.364800	0.364800	0.739800
Cu151	Cu15	0.806700	0.193300	0.693120
O151	O15	0.864800	0.135200	0.760200
Cu161	Cu16	0.306700	0.693300	0.193120
O161	O16	0.364800	0.635200	0.260200
Cu171	Cu17	0.306880	0.193300	0.193300
O171	O17	0.239800	0.135200	0.135200
Cu181	Cu18	0.806880	0.693300	0.693300
O181	O18	0.739800	0.635200	0.635200
Cu191	Cu19	0.693120	0.193300	0.806700
O191	O19	0.760200	0.135200	0.864800
Cu201	Cu20	0.193120	0.693300	0.306700
O201	O20	0.260200	0.635200	0.364800
Cu211	Cu21	0.306880	0.806700	0.806700
O211	O21	0.239800	0.864800	0.864800
Cu221	Cu22	0.806880	0.306700	0.306700
O221	O22	0.739800	0.364800	0.364800
Cu231	Cu23	0.693120	0.806700	0.193300
O231	O23	0.760200	0.864800	0.135200
Cu241	Cu24	0.193120	0.306700	0.693300
O241	O24	0.260200	0.364800	0.635200
N491	N49	0.053000	0.325540	0.325540
O251	O25	0.940400	0.280350	0.280350
O261	O26	0.884200	0.343330	0.343330
C491	C49	0.993200	0.351500	0.351500
C501	C50	0.935600	0.321700	0.321700
N501	N50	0.553000	0.825540	0.825540
O271	O27	0.440400	0.780350	0.780350
O281	O28	0.384200	0.843330	0.843330
C511	C51	0.493200	0.851500	0.851500
C521	C52	0.435600	0.821700	0.821700
N511	N51	0.947000	0.674460	0.325540
O291	O29	0.059600	0.719650	0.280350
O301	O30	0.115800	0.656670	0.343330
C531	C53	0.006800	0.648500	0.351500
C541	C54	0.064400	0.678300	0.321700
N521	N52	0.447000	0.174460	0.825540
O311	O31	0.559600	0.219650	0.780350
O321	O32	0.615800	0.156670	0.843330
C551	C55	0.506800	0.148500	0.851500
C561	C56	0.564400	0.178300	0.821700
N531	N53	0.947000	0.325540	0.674460
O331	O33	0.059600	0.280350	0.719650
O341	O34	0.115800	0.343330	0.656670
C571	C57	0.006800	0.351500	0.648500
C581	C58	0.064400	0.321700	0.678300
N541	N54	0.447000	0.825540	0.174460
O351	O35	0.559600	0.780350	0.219650
O361	O36	0.615800	0.843330	0.156670
C591	C59	0.506800	0.851500	0.148500
C601	C60	0.564400	0.821700	0.178300
N551	N55	0.053000	0.674460	0.674460
O371	O37	0.940400	0.719650	0.719650
O381	O38	0.884200	0.656670	0.656670
C611	C61	0.993200	0.648500	0.648500
C621	C62	0.935600	0.678300	0.678300
N561	N56	0.553000	0.174460	0.174460
O391	O39	0.440400	0.219650	0.219650
O401	O40	0.384200	0.156670	0.156670
C631	C63	0.493200	0.148500	0.148500
C641	C64	0.435600	0.178300	0.178300
N571	N57	0.325540	0.053000	0.325540
O411	O41	0.280350	0.940400	0.280350
O421	O42	0.343330	0.884200	0.343330
C651	C65	0.351500	0.993200	0.351500
C661	C66	0.321700	0.935600	0.321700
N581	N58	0.825540	0.553000	0.825540
O431	O43	0.780350	0.440400	0.780350
O441	O44	0.843330	0.384200	0.843330
C671	C67	0.851500	0.493200	0.851500
C681	C68	0.821700	0.435600	0.821700
N591	N59	0.325540	0.947000	0.674460
O451	O45	0.280350	0.059600	0.719650
O461	O46	0.343330	0.115800	0.656670
C691	C69	0.351500	0.006800	0.648500
C701	C70	0.321700	0.064400	0.678300
N601	N60	0.825540	0.447000	0.174460
O471	O47	0.780350	0.559600	0.219650
O481	O48	0.843330	0.615800	0.156670
C711	C71	0.851500	0.506800	0.148500
C721	C72	0.821700	0.564400	0.178300
N611	N61	0.674460	0.947000	0.325540
O491	O49	0.719650	0.059600	0.280350
O501	O50	0.656670	0.115800	0.343330
C731	C73	0.648500	0.006800	0.351500
C741	C74	0.678300	0.064400	0.321700
N621	N62	0.174460	0.447000	0.825540
O511	O51	0.219650	0.559600	0.780350
O521	O52	0.156670	0.615800	0.843330
C751	C75	0.148500	0.506800	0.851500
C761	C76	0.178300	0.564400	0.821700
N631	N63	0.674460	0.053000	0.674460
O531	O53	0.719650	0.940400	0.719650
O541	O54	0.656670	0.884200	0.656670
C771	C77	0.648500	0.993200	0.648500
C781	C78	0.678300	0.935600	0.678300
N641	N64	0.174460	0.553000	0.174460
O551	O55	0.219650	0.440400	0.219650
O561	O56	0.156670	0.384200	0.156670
C791	C79	0.148500	0.493200	0.148500
C801	C80	0.178300	0.435600	0.178300
N651	N65	0.325540	0.325540	0.053000
O571	O57	0.280350	0.280350	0.940400
O581	O58	0.343330	0.343330	0.884200
C811	C81	0.351500	0.351500	0.993200
C821	C82	0.321700	0.321700	0.935600
N661	N66	0.825540	0.825540	0.553000
O591	O59	0.780350	0.780350	0.440400
O601	O60	0.843330	0.843330	0.384200
C831	C83	0.851500	0.851500	0.493200
C841	C84	0.821700	0.821700	0.435600
N671	N67	0.674460	0.325540	0.947000
O611	O61	0.719650	0.280350	0.059600
O621	O62	0.656670	0.343330	0.115800
C851	C85	0.648500	0.351500	0.006800
C861	C86	0.678300	0.321700	0.064400
N681	N68	0.174460	0.825540	0.447000
O631	O63	0.219650	0.780350	0.559600
O641	O64	0.156670	0.843330	0.615800
C871	C87	0.148500	0.851500	0.506800
C881	C88	0.178300	0.821700	0.564400
N691	N69	0.325540	0.674460	0.947000
O651	O65	0.280350	0.719650	0.059600
O661	O66	0.343330	0.656670	0.115800
C891	C89	0.351500	0.648500	0.006800
C901	C90	0.321700	0.678300	0.064400
N701	N70	0.825540	0.174460	0.447000
O671	O67	0.780350	0.219650	0.559600
O681	O68	0.843330	0.156670	0.615800
C911	C91	0.851500	0.148500	0.506800
C921	C92	0.821700	0.178300	0.564400
N711	N71	0.674460	0.674460	0.053000
O691	O69	0.719650	0.719650	0.940400
O701	O70	0.656670	0.656670	0.884200
C931	C93	0.648500	0.648500	0.993200
C941	C94	0.678300	0.678300	0.935600
N721	N72	0.174460	0.174460	0.553000
O711	O71	0.219650	0.219650	0.440400
O721	O72	0.156670	0.156670	0.384200
C951	C95	0.148500	0.148500	0.493200
C961	C96	0.178300	0.178300	0.435600
O731	O73	0.243200	0.243200	0.243200
H1451	H145	0.267000	0.267000	0.267000
O741	O74	0.743200	0.743200	0.743200
H1461	H146	0.767000	0.767000	0.767000
O751	O75	0.756800	0.756800	0.243200
H1471	H147	0.733000	0.733000	0.267000
O761	O76	0.256800	0.256800	0.743200
H1481	H148	0.233000	0.233000	0.767000
O771	O77	0.756800	0.243200	0.756800
H1491	H149	0.733000	0.267000	0.733000
O781	O78	0.256800	0.743200	0.256800
H1501	H150	0.233000	0.767000	0.233000
O791	O79	0.243200	0.756800	0.756800
H1511	H151	0.267000	0.733000	0.733000
O801	O80	0.743200	0.256800	0.256800
H1521	H152	0.767000	0.233000	0.233000
