data_JOFKIA_freeONLY_PM
_symmetry_space_group_name_H-M	'P1'
_cell_length_a	8.904200
_cell_length_b	12.805600
_cell_length_c	12.805600
_cell_angle_alpha	65.202200
_cell_angle_beta	76.598100
_cell_angle_gamma	103.402000
_symmetry_Int_Tables_number 1

loop_
_symmetry_equiv_pos_as_xyz
'x,y,z'

loop_
_atom_site_label
_atom_site_type_symbol
_atom_site_fract_x
_atom_site_fract_y
_atom_site_fract_z
Cu11	Cu1	0.738510	0.580440	0.471560
Cu21	Cu2	0.158070	0.948000	0.580440
Cu31	Cu3	0.210070	0.471560	0.948000
Cu41	Cu4	0.261490	0.419560	0.528440
Cu51	Cu5	0.789930	0.528440	0.052000
Cu61	Cu6	0.841930	0.052000	0.419560
H11	H1	0.823400	0.273200	0.445800
H21	H2	0.384000	0.487300	0.162600
H31	H3	0.730800	0.554200	0.719000
H41	H4	0.896700	0.350100	0.487300
H51	H5	0.546600	0.162600	0.350100
H61	H6	0.616000	0.512700	0.837400
H71	H7	0.453400	0.837400	0.649900
H81	H8	0.103300	0.649900	0.512700
H91	H9	0.550200	0.281000	0.273200
H101	H10	0.176600	0.726800	0.554200
H111	H11	0.269200	0.445800	0.281000
H121	H12	0.449800	0.719000	0.726800
C11	C1	0.276200	0.460500	0.721000
C21	C2	0.997200	0.721000	0.818500
C31	C3	0.306500	0.155000	0.597600
C41	C4	0.239900	0.724000	0.754300
C51	C5	0.693500	0.845000	0.402400
C61	C6	0.002800	0.279000	0.181500
C71	C7	0.005800	0.245700	0.478300
C81	C8	0.515900	0.521700	0.724000
C91	C9	0.151500	0.247400	0.155000
C101	C10	0.848500	0.752600	0.845000
C111	C11	0.184300	0.181500	0.539500
C121	C12	0.904100	0.597600	0.247400
C131	C13	0.723800	0.539500	0.279000
C141	C14	0.815700	0.818500	0.460500
C151	C15	0.484100	0.478300	0.276000
C161	C16	0.760100	0.276000	0.245700
C171	C17	0.994200	0.754300	0.521700
C181	C18	0.095900	0.402400	0.752600
N11	N1	0.646740	0.516710	0.206890
N21	N2	0.597840	0.240180	0.316860
N31	N3	0.353260	0.483290	0.793110
N41	N4	0.130030	0.276400	0.516710
N51	N5	0.012060	0.858880	0.525300
N61	N6	0.987940	0.141120	0.474700
N71	N7	0.853630	0.206890	0.276400
N81	N8	0.995550	0.614870	0.899420
N91	N9	0.462640	0.474700	0.384180
N101	N10	0.380680	0.485710	0.614870
N111	N11	0.004450	0.385130	0.100580
N121	N12	0.537360	0.525300	0.615820
N131	N13	0.146370	0.793110	0.723600
N141	N14	0.105030	0.100580	0.514290
N151	N15	0.357660	0.442960	0.240180
N161	N16	0.153180	0.615820	0.858880
N171	N17	0.869970	0.723600	0.483290
N181	N18	0.085300	0.683140	0.557040
N191	N19	0.846820	0.384180	0.141120
N201	N20	0.894970	0.899420	0.485710
N211	N21	0.402160	0.759820	0.683140
N221	N22	0.914700	0.316860	0.442960
N231	N23	0.642340	0.557040	0.759820
N241	N24	0.619320	0.514290	0.385130
O11	O1	0.063650	0.383930	0.667980
O21	O2	0.995460	0.374940	0.852760
O31	O3	0.848220	0.852760	0.772300
O41	O4	0.936350	0.616070	0.332020
O51	O5	0.320280	0.051910	0.616070
O61	O6	0.151780	0.147240	0.227700
O71	O7	0.620520	0.772300	0.374940
O81	O8	0.379480	0.227700	0.625060
O91	O9	0.731630	0.667980	0.948090
O101	O10	0.004540	0.625060	0.147240
O111	O11	0.679720	0.948090	0.383930
O121	O12	0.268370	0.332020	0.051910
