data_JOGHIY_freeONLY_PM
_symmetry_space_group_name_H-M	'P1'
_cell_length_a	10.476000
_cell_length_b	20.205000
_cell_length_c	8.109000
_cell_angle_alpha	90.000000
_cell_angle_beta	102.265000
_cell_angle_gamma	90.000000
_symmetry_Int_Tables_number 1

loop_
_symmetry_equiv_pos_as_xyz
'x,y,z'

loop_
_atom_site_label
_atom_site_type_symbol
_atom_site_fract_x
_atom_site_fract_y
_atom_site_fract_z
C11	C1	0.791900	0.400120	0.050500
H11	H1	0.710800	0.396600	0.079300
C21	C2	0.846500	0.457150	0.053100
H21	H2	0.806100	0.494800	0.083800
C31	C3	0.967800	0.466650	0.003000
C41	C4	0.024200	0.406420	0.955400
H31	H3	0.104400	0.409900	0.924100
C51	C5	0.968500	0.349550	0.959900
H41	H4	0.009000	0.311600	0.931300
C61	C6	0.671100	0.275900	0.356500
H51	H5	0.713700	0.245800	0.436400
N11	N1	0.851100	0.344470	0.006100
O11	O1	0.683400	0.272500	0.212400
O21	O2	0.599200	0.320900	0.398300
O31	O3	0.911500	0.201530	0.150100
C71	C7	0.291900	0.900120	0.050500
H61	H6	0.210800	0.896600	0.079300
C81	C8	0.346500	0.957150	0.053100
H71	H7	0.306100	0.994800	0.083800
C91	C9	0.467800	0.966650	0.003000
C101	C10	0.524200	0.906420	0.955400
H81	H8	0.604400	0.909900	0.924100
C111	C11	0.468500	0.849550	0.959900
H91	H9	0.509000	0.811600	0.931300
C121	C12	0.171100	0.775900	0.356500
H101	H10	0.213700	0.745800	0.436400
N21	N2	0.351100	0.844470	0.006100
O41	O4	0.183400	0.772500	0.212400
O51	O5	0.099200	0.820900	0.398300
O61	O6	0.411500	0.701530	0.150100
C131	C13	0.208100	0.400120	0.449500
H111	H11	0.289200	0.396600	0.420700
C141	C14	0.153500	0.457150	0.446900
H121	H12	0.193900	0.494800	0.416200
C151	C15	0.032200	0.466650	0.497000
C161	C16	0.975800	0.406420	0.544600
H131	H13	0.895600	0.409900	0.575900
C171	C17	0.031500	0.349550	0.540100
H141	H14	0.991000	0.311600	0.568700
C181	C18	0.328900	0.275900	0.143500
H151	H15	0.286300	0.245800	0.063600
N31	N3	0.148900	0.344470	0.493900
O71	O7	0.316600	0.272500	0.287600
O81	O8	0.400800	0.320900	0.101700
O91	O9	0.088500	0.201530	0.349900
C191	C19	0.708100	0.900120	0.449500
H161	H16	0.789200	0.896600	0.420700
C201	C20	0.653500	0.957150	0.446900
H171	H17	0.693900	0.994800	0.416200
C211	C21	0.532200	0.966650	0.497000
C221	C22	0.475800	0.906420	0.544600
H181	H18	0.395600	0.909900	0.575900
C231	C23	0.531500	0.849550	0.540100
H191	H19	0.491000	0.811600	0.568700
C241	C24	0.828900	0.775900	0.143500
H201	H20	0.786300	0.745800	0.063600
N41	N4	0.648900	0.844470	0.493900
O101	O10	0.816600	0.772500	0.287600
O111	O11	0.900800	0.820900	0.101700
O121	O12	0.588500	0.701530	0.349900
C251	C25	0.208100	0.599880	0.949500
H211	H21	0.289200	0.603400	0.920700
C261	C26	0.153500	0.542850	0.946900
H221	H22	0.193900	0.505200	0.916200
C271	C27	0.032200	0.533350	0.997000
C281	C28	0.975800	0.593580	0.044600
H231	H23	0.895600	0.590100	0.075900
C291	C29	0.031500	0.650450	0.040100
H241	H24	0.991000	0.688400	0.068700
C301	C30	0.328900	0.724100	0.643500
H251	H25	0.286300	0.754200	0.563600
N51	N5	0.148900	0.655530	0.993900
O131	O13	0.316600	0.727500	0.787600
O141	O14	0.400800	0.679100	0.601700
O151	O15	0.088500	0.798470	0.849900
C311	C31	0.708100	0.099880	0.949500
H261	H26	0.789200	0.103400	0.920700
C321	C32	0.653500	0.042850	0.946900
H271	H27	0.693900	0.005200	0.916200
C331	C33	0.532200	0.033350	0.997000
C341	C34	0.475800	0.093580	0.044600
H281	H28	0.395600	0.090100	0.075900
C351	C35	0.531500	0.150450	0.040100
H291	H29	0.491000	0.188400	0.068700
C361	C36	0.828900	0.224100	0.643500
H301	H30	0.786300	0.254200	0.563600
N61	N6	0.648900	0.155530	0.993900
O161	O16	0.816600	0.227500	0.787600
O171	O17	0.900800	0.179100	0.601700
O181	O18	0.588500	0.298470	0.849900
C371	C37	0.791900	0.599880	0.550500
H311	H31	0.710800	0.603400	0.579300
C381	C38	0.846500	0.542850	0.553100
H321	H32	0.806100	0.505200	0.583800
C391	C39	0.967800	0.533350	0.503000
C401	C40	0.024200	0.593580	0.455400
H331	H33	0.104400	0.590100	0.424100
C411	C41	0.968500	0.650450	0.459900
H341	H34	0.009000	0.688400	0.431300
C421	C42	0.671100	0.724100	0.856500
H351	H35	0.713700	0.754200	0.936400
N71	N7	0.851100	0.655530	0.506100
O191	O19	0.683400	0.727500	0.712400
O201	O20	0.599200	0.679100	0.898300
O211	O21	0.911500	0.798470	0.650100
C431	C43	0.291900	0.099880	0.550500
H361	H36	0.210800	0.103400	0.579300
C441	C44	0.346500	0.042850	0.553100
H371	H37	0.306100	0.005200	0.583800
C451	C45	0.467800	0.033350	0.503000
C461	C46	0.524200	0.093580	0.455400
H381	H38	0.604400	0.090100	0.424100
C471	C47	0.468500	0.150450	0.459900
H391	H39	0.509000	0.188400	0.431300
C481	C48	0.171100	0.224100	0.856500
H401	H40	0.213700	0.254200	0.936400
N81	N8	0.351100	0.155530	0.506100
O221	O22	0.183400	0.227500	0.712400
O231	O23	0.099200	0.179100	0.898300
O241	O24	0.411500	0.298470	0.650100
C491	C49	0.000000	0.227200	0.250000
H411	H41	0.000000	0.273200	0.250000
C501	C50	0.500000	0.727200	0.250000
H421	H42	0.500000	0.773200	0.250000
C511	C51	0.000000	0.772800	0.750000
H431	H43	0.000000	0.726800	0.750000
C521	C52	0.500000	0.272800	0.750000
H441	H44	0.500000	0.226800	0.750000
Co11	Co1	0.750000	0.250000	0.000000
Co21	Co2	0.250000	0.250000	0.500000
Co31	Co3	0.250000	0.750000	0.000000
Co41	Co4	0.750000	0.750000	0.500000
