data_JOKWOV_freeONLY_PM
_symmetry_space_group_name_H-M	'P1'
_cell_length_a	9.515000
_cell_length_b	12.297000
_cell_length_c	9.461000
_cell_angle_alpha	91.030000
_cell_angle_beta	98.658000
_cell_angle_gamma	93.714000
_symmetry_Int_Tables_number 1

loop_
_symmetry_equiv_pos_as_xyz
'x,y,z'

loop_
_atom_site_label
_atom_site_type_symbol
_atom_site_fract_x
_atom_site_fract_y
_atom_site_fract_z
Zn11	Zn1	0.314300	0.448830	0.093600
Zn21	Zn2	0.904500	0.033070	0.678500
Zn31	Zn3	0.597400	0.147530	0.104400
Zn41	Zn4	0.099000	0.648780	0.585800
P11	P1	0.661900	0.402300	0.161900
P21	P2	0.838800	0.088000	0.353700
P31	P3	0.698900	0.969800	0.889500
P41	P4	0.114200	0.526000	0.294200
O11	O1	0.508700	0.428500	0.154600
O21	O2	0.224200	0.301800	0.078000
O31	O3	0.267300	0.525300	0.262800
O41	O4	0.745200	0.492200	0.090900
O51	O5	0.729700	0.974800	0.736400
O61	O6	0.927600	0.042500	0.243900
O71	O7	0.840100	0.006000	0.475700
O81	O8	0.955100	0.183000	0.753200
O91	O9	0.631600	0.069800	0.932900
O101	O10	0.684000	0.091800	0.282800
O111	O11	0.609200	0.864200	0.907500
O121	O12	0.676500	0.294700	0.083500
O131	O13	0.098000	0.629600	0.378900
O141	O14	0.075200	0.424400	0.368800
O151	O15	0.725200	0.400200	0.319800
O161	O16	0.909500	0.195700	0.416700
O171	O17	0.023000	0.532900	0.143100
O181	O18	0.847700	0.956900	0.984300
H11	H1	0.288000	0.240000	0.090000
H21	H2	0.122000	0.273000	0.070000
H31	H3	0.960000	0.208000	0.857000
H41	H4	0.970000	0.246000	0.691000
H51	H5	0.920000	0.507000	0.140000
H61	H6	0.860000	0.994000	0.082000
Zn51	Zn5	0.685700	0.551170	0.906400
Zn61	Zn6	0.095500	0.966930	0.321500
Zn71	Zn7	0.402600	0.852470	0.895600
Zn81	Zn8	0.901000	0.351220	0.414200
P51	P5	0.338100	0.597700	0.838100
P61	P6	0.161200	0.912000	0.646300
P71	P7	0.301100	0.030200	0.110500
P81	P8	0.885800	0.474000	0.705800
O191	O19	0.491300	0.571500	0.845400
O201	O20	0.775800	0.698200	0.922000
O211	O21	0.732700	0.474700	0.737200
O221	O22	0.254800	0.507800	0.909100
O231	O23	0.270300	0.025200	0.263600
O241	O24	0.072400	0.957500	0.756100
O251	O25	0.159900	0.994000	0.524300
O261	O26	0.044900	0.817000	0.246800
O271	O27	0.368400	0.930200	0.067100
O281	O28	0.316000	0.908200	0.717200
O291	O29	0.390800	0.135800	0.092500
O301	O30	0.323500	0.705300	0.916500
O311	O31	0.902000	0.370400	0.621100
O321	O32	0.924800	0.575600	0.631200
O331	O33	0.274800	0.599800	0.680200
O341	O34	0.090500	0.804300	0.583300
O351	O35	0.977000	0.467100	0.856900
O361	O36	0.152300	0.043100	0.015700
H71	H7	0.712000	0.760000	0.910000
H81	H8	0.878000	0.727000	0.930000
H91	H9	0.040000	0.792000	0.143000
H101	H10	0.030000	0.754000	0.309000
H111	H11	0.080000	0.493000	0.860000
H121	H12	0.140000	0.006000	0.918000
