data_JOKXEM_freeONLY_PM
_symmetry_space_group_name_H-M	'P1'
_cell_length_a	13.987000
_cell_length_b	26.971000
_cell_length_c	7.595000
_cell_angle_alpha	90.000000
_cell_angle_beta	90.000000
_cell_angle_gamma	91.740000
_symmetry_Int_Tables_number 1

loop_
_symmetry_equiv_pos_as_xyz
'x,y,z'

loop_
_atom_site_label
_atom_site_type_symbol
_atom_site_fract_x
_atom_site_fract_y
_atom_site_fract_z
Cd11	Cd1	0.275570	0.135240	0.879100
N11	N1	0.254900	0.079900	0.095800
N21	N2	0.250000	0.921700	0.653600
N31	N3	0.173900	0.800400	0.089200
N41	N4	0.875800	0.832300	0.131200
N51	N5	0.318200	0.193000	0.652100
N61	N6	0.442500	0.125600	0.836300
C11	C1	0.252100	0.049200	0.199200
C21	C2	0.250000	0.048800	0.546100
C31	C3	0.108400	0.781200	0.151500
C41	C4	0.924300	0.801400	0.175300
C51	C5	0.420100	0.189900	0.622000
C61	C6	0.476000	0.159200	0.699000
C71	C7	0.581600	0.158300	0.656000
Cd21	Cd2	0.275570	0.635240	0.379100
N71	N7	0.254900	0.579900	0.595800
N81	N8	0.250000	0.421700	0.153600
N91	N9	0.173900	0.300400	0.589200
N101	N10	0.875800	0.332300	0.631200
N111	N11	0.318200	0.693000	0.152100
N121	N12	0.442500	0.625600	0.336300
C81	C8	0.252100	0.549200	0.699200
C91	C9	0.250000	0.548800	0.046100
C101	C10	0.108400	0.281200	0.651500
C111	C11	0.924300	0.301400	0.675300
C121	C12	0.420100	0.689900	0.122000
C131	C13	0.476000	0.659200	0.199000
C141	C14	0.581600	0.658300	0.156000
Cd31	Cd3	0.224430	0.864760	0.879100
N131	N13	0.245100	0.920100	0.095800
N141	N14	0.250000	0.078300	0.653600
N151	N15	0.326100	0.199600	0.089200
N161	N16	0.624200	0.167700	0.131200
N171	N17	0.181800	0.807000	0.652100
N181	N18	0.057500	0.874400	0.836300
C151	C15	0.247900	0.950800	0.199200
C161	C16	0.250000	0.951200	0.546100
C171	C17	0.391600	0.218800	0.151500
C181	C18	0.575700	0.198600	0.175300
C191	C19	0.079900	0.810100	0.622000
C201	C20	0.024000	0.840800	0.699000
C211	C21	0.918400	0.841700	0.656000
Cd41	Cd4	0.224430	0.364760	0.379100
N191	N19	0.245100	0.420100	0.595800
N201	N20	0.250000	0.578300	0.153600
N211	N21	0.326100	0.699600	0.589200
N221	N22	0.624200	0.667700	0.631200
N231	N23	0.181800	0.307000	0.152100
N241	N24	0.057500	0.374400	0.336300
C221	C22	0.247900	0.450800	0.699200
C231	C23	0.250000	0.451200	0.046100
C241	C24	0.391600	0.718800	0.651500
C251	C25	0.575700	0.698600	0.675300
C261	C26	0.079900	0.310100	0.122000
C271	C27	0.024000	0.340800	0.199000
C281	C28	0.918400	0.341700	0.156000
Cd51	Cd5	0.724430	0.864760	0.120900
N251	N25	0.745100	0.920100	0.904200
N261	N26	0.750000	0.078300	0.346400
N271	N27	0.826100	0.199600	0.910800
N281	N28	0.124200	0.167700	0.868800
N291	N29	0.681800	0.807000	0.347900
N301	N30	0.557500	0.874400	0.163700
C291	C29	0.747900	0.950800	0.800800
C301	C30	0.750000	0.951200	0.453900
C311	C31	0.891600	0.218800	0.848500
C321	C32	0.075700	0.198600	0.824700
C331	C33	0.579900	0.810100	0.378000
C341	C34	0.524000	0.840800	0.301000
C351	C35	0.418400	0.841700	0.344000
Cd61	Cd6	0.724430	0.364760	0.620900
N311	N31	0.745100	0.420100	0.404200
N321	N32	0.750000	0.578300	0.846400
N331	N33	0.826100	0.699600	0.410800
N341	N34	0.124200	0.667700	0.368800
N351	N35	0.681800	0.307000	0.847900
N361	N36	0.557500	0.374400	0.663700
C361	C36	0.747900	0.450800	0.300800
C371	C37	0.750000	0.451200	0.953900
C381	C38	0.891600	0.718800	0.348500
C391	C39	0.075700	0.698600	0.324700
C401	C40	0.579900	0.310100	0.878000
C411	C41	0.524000	0.340800	0.801000
C421	C42	0.418400	0.341700	0.844000
Cd71	Cd7	0.775570	0.135240	0.120900
N371	N37	0.754900	0.079900	0.904200
N381	N38	0.750000	0.921700	0.346400
N391	N39	0.673900	0.800400	0.910800
N401	N40	0.375800	0.832300	0.868800
N411	N41	0.818200	0.193000	0.347900
N421	N42	0.942500	0.125600	0.163700
C431	C43	0.752100	0.049200	0.800800
C441	C44	0.750000	0.048800	0.453900
C451	C45	0.608400	0.781200	0.848500
C461	C46	0.424300	0.801400	0.824700
C471	C47	0.920100	0.189900	0.378000
C481	C48	0.976000	0.159200	0.301000
C491	C49	0.081600	0.158300	0.344000
Cd81	Cd8	0.775570	0.635240	0.620900
N431	N43	0.754900	0.579900	0.404200
N441	N44	0.750000	0.421700	0.846400
N451	N45	0.673900	0.300400	0.410800
N461	N46	0.375800	0.332300	0.368800
N471	N47	0.818200	0.693000	0.847900
N481	N48	0.942500	0.625600	0.663700
C501	C50	0.752100	0.549200	0.300800
C511	C51	0.750000	0.548800	0.953900
C521	C52	0.608400	0.281200	0.348500
C531	C53	0.424300	0.301400	0.324700
C541	C54	0.920100	0.689900	0.878000
C551	C55	0.976000	0.659200	0.801000
C561	C56	0.081600	0.658300	0.844000
Ni11	Ni1	0.250000	0.000000	0.372200
Ni21	Ni2	0.250000	0.500000	0.872200
Ni31	Ni3	0.750000	0.000000	0.627800
Ni41	Ni4	0.750000	0.500000	0.127800
Ni51	Ni5	0.000000	0.750000	0.250000
Ni61	Ni6	0.500000	0.250000	0.250000
Ni71	Ni7	0.000000	0.250000	0.750000
Ni81	Ni8	0.500000	0.750000	0.750000
