data_JOKXAI_freeONLY_PM
_symmetry_space_group_name_H-M	'P1'
_cell_length_a	14.083000
_cell_length_b	27.047000
_cell_length_c	7.616000
_cell_angle_alpha	90.000000
_cell_angle_beta	90.000000
_cell_angle_gamma	90.160000
_symmetry_Int_Tables_number 1

loop_
_symmetry_equiv_pos_as_xyz
'x,y,z'

loop_
_atom_site_label
_atom_site_type_symbol
_atom_site_fract_x
_atom_site_fract_y
_atom_site_fract_z
Cd11	Cd1	0.215970	0.134620	0.126130
N11	N1	0.238600	0.078600	0.913200
N21	N2	0.240800	0.078600	0.355300
N31	N3	0.367200	0.169200	0.133000
N41	N4	0.167500	0.197400	0.911600
N51	N5	0.175800	0.193200	0.348400
N61	N6	0.049300	0.124700	0.168600
C11	C1	0.243700	0.048700	0.807500
C21	C2	0.244500	0.048500	0.461600
C31	C3	0.418800	0.199400	0.176500
C41	C4	0.104500	0.217400	0.847900
C51	C5	0.073900	0.192000	0.371000
C61	C6	0.017100	0.158600	0.304000
C71	C7	0.911200	0.159000	0.338800
Cd21	Cd2	0.215970	0.634620	0.626130
N71	N7	0.238600	0.578600	0.413200
N81	N8	0.240800	0.578600	0.855300
N91	N9	0.367200	0.669200	0.633000
N101	N10	0.167500	0.697400	0.411600
N111	N11	0.175800	0.693200	0.848400
N121	N12	0.049300	0.624700	0.668600
C81	C8	0.243700	0.548700	0.307500
C91	C9	0.244500	0.548500	0.961600
C101	C10	0.418800	0.699400	0.676500
C111	C11	0.104500	0.717400	0.347900
C121	C12	0.073900	0.692000	0.871000
C131	C13	0.017100	0.658600	0.804000
C141	C14	0.911200	0.659000	0.838800
Cd31	Cd3	0.284030	0.865380	0.126130
N131	N13	0.261400	0.921400	0.913200
N141	N14	0.259200	0.921400	0.355300
N151	N15	0.132800	0.830800	0.133000
N161	N16	0.332500	0.802600	0.911600
N171	N17	0.324200	0.806800	0.348400
N181	N18	0.450700	0.875300	0.168600
C151	C15	0.256300	0.951300	0.807500
C161	C16	0.255500	0.951500	0.461600
C171	C17	0.081200	0.800600	0.176500
C181	C18	0.395500	0.782600	0.847900
C191	C19	0.426100	0.808000	0.371000
C201	C20	0.482900	0.841400	0.304000
C211	C21	0.588800	0.841000	0.338800
Cd41	Cd4	0.284030	0.365380	0.626130
N191	N19	0.261400	0.421400	0.413200
N201	N20	0.259200	0.421400	0.855300
N211	N21	0.132800	0.330800	0.633000
N221	N22	0.332500	0.302600	0.411600
N231	N23	0.324200	0.306800	0.848400
N241	N24	0.450700	0.375300	0.668600
C221	C22	0.256300	0.451300	0.307500
C231	C23	0.255500	0.451500	0.961600
C241	C24	0.081200	0.300600	0.676500
C251	C25	0.395500	0.282600	0.347900
C261	C26	0.426100	0.308000	0.871000
C271	C27	0.482900	0.341400	0.804000
C281	C28	0.588800	0.341000	0.838800
Cd51	Cd5	0.784030	0.865380	0.873870
N251	N25	0.761400	0.921400	0.086800
N261	N26	0.759200	0.921400	0.644700
N271	N27	0.632800	0.830800	0.867000
N281	N28	0.832500	0.802600	0.088400
N291	N29	0.824200	0.806800	0.651600
N301	N30	0.950700	0.875300	0.831400
C291	C29	0.756300	0.951300	0.192500
C301	C30	0.755500	0.951500	0.538400
C311	C31	0.581200	0.800600	0.823500
C321	C32	0.895500	0.782600	0.152100
C331	C33	0.926100	0.808000	0.629000
C341	C34	0.982900	0.841400	0.696000
C351	C35	0.088800	0.841000	0.661200
Cd61	Cd6	0.784030	0.365380	0.373870
N311	N31	0.761400	0.421400	0.586800
N321	N32	0.759200	0.421400	0.144700
N331	N33	0.632800	0.330800	0.367000
N341	N34	0.832500	0.302600	0.588400
N351	N35	0.824200	0.306800	0.151600
N361	N36	0.950700	0.375300	0.331400
C361	C36	0.756300	0.451300	0.692500
C371	C37	0.755500	0.451500	0.038400
C381	C38	0.581200	0.300600	0.323500
C391	C39	0.895500	0.282600	0.652100
C401	C40	0.926100	0.308000	0.129000
C411	C41	0.982900	0.341400	0.196000
C421	C42	0.088800	0.341000	0.161200
Cd71	Cd7	0.715970	0.134620	0.873870
N371	N37	0.738600	0.078600	0.086800
N381	N38	0.740800	0.078600	0.644700
N391	N39	0.867200	0.169200	0.867000
N401	N40	0.667500	0.197400	0.088400
N411	N41	0.675800	0.193200	0.651600
N421	N42	0.549300	0.124700	0.831400
C431	C43	0.743700	0.048700	0.192500
C441	C44	0.744500	0.048500	0.538400
C451	C45	0.918800	0.199400	0.823500
C461	C46	0.604500	0.217400	0.152100
C471	C47	0.573900	0.192000	0.629000
C481	C48	0.517100	0.158600	0.696000
C491	C49	0.411200	0.159000	0.661200
Cd81	Cd8	0.715970	0.634620	0.373870
N431	N43	0.738600	0.578600	0.586800
N441	N44	0.740800	0.578600	0.144700
N451	N45	0.867200	0.669200	0.367000
N461	N46	0.667500	0.697400	0.588400
N471	N47	0.675800	0.693200	0.151600
N481	N48	0.549300	0.624700	0.331400
C501	C50	0.743700	0.548700	0.692500
C511	C51	0.744500	0.548500	0.038400
C521	C52	0.918800	0.699400	0.323500
C531	C53	0.604500	0.717400	0.652100
C541	C54	0.573900	0.692000	0.129000
C551	C55	0.517100	0.658600	0.196000
C561	C56	0.411200	0.659000	0.161200
Ni11	Ni1	0.250000	0.000000	0.634700
Ni21	Ni2	0.250000	0.500000	0.134700
Ni31	Ni3	0.750000	0.000000	0.365300
Ni41	Ni4	0.750000	0.500000	0.865300
Ni51	Ni5	0.500000	0.250000	0.250000
Ni61	Ni6	0.000000	0.750000	0.250000
Ni71	Ni7	0.500000	0.750000	0.750000
Ni81	Ni8	0.000000	0.250000	0.750000
