data_JOKXOW_freeONLY_PM
_symmetry_space_group_name_H-M	'P1'
_cell_length_a	14.014000
_cell_length_b	26.963000
_cell_length_c	7.576000
_cell_angle_alpha	90.000000
_cell_angle_beta	90.000000
_cell_angle_gamma	91.740000
_symmetry_Int_Tables_number 1

loop_
_symmetry_equiv_pos_as_xyz
'x,y,z'

loop_
_atom_site_label
_atom_site_type_symbol
_atom_site_fract_x
_atom_site_fract_y
_atom_site_fract_z
Cd11	Cd1	0.274840	0.135430	0.881040
N11	N1	0.254400	0.079600	0.099000
N21	N2	0.248800	0.077900	0.655500
N31	N3	0.325900	0.199800	0.090000
N41	N4	0.123400	0.168000	0.871500
N51	N5	0.441000	0.125700	0.837000
N61	N6	0.317800	0.192600	0.652500
C11	C1	0.252000	0.049200	0.202300
C21	C2	0.249400	0.048600	0.549600
C31	C3	0.391900	0.218800	0.152900
C41	C4	0.075400	0.198300	0.825900
C51	C5	0.473800	0.157000	0.694000
C61	C6	0.419100	0.190800	0.626000
C71	C7	0.579500	0.157400	0.656000
Cd21	Cd2	0.274840	0.635430	0.381040
N71	N7	0.254400	0.579600	0.599000
N81	N8	0.248800	0.577900	0.155500
N91	N9	0.325900	0.699800	0.590000
N101	N10	0.123400	0.668000	0.371500
N111	N11	0.441000	0.625700	0.337000
N121	N12	0.317800	0.692600	0.152500
C81	C8	0.252000	0.549200	0.702300
C91	C9	0.249400	0.548600	0.049600
C101	C10	0.391900	0.718800	0.652900
C111	C11	0.075400	0.698300	0.325900
C121	C12	0.473800	0.657000	0.194000
C131	C13	0.419100	0.690800	0.126000
C141	C14	0.579500	0.657400	0.156000
Cd31	Cd3	0.225160	0.864570	0.881040
N131	N13	0.245600	0.920400	0.099000
N141	N14	0.251200	0.922100	0.655500
N151	N15	0.174100	0.800200	0.090000
N161	N16	0.376600	0.832000	0.871500
N171	N17	0.059000	0.874300	0.837000
N181	N18	0.182200	0.807400	0.652500
C151	C15	0.248000	0.950800	0.202300
C161	C16	0.250600	0.951400	0.549600
C171	C17	0.108100	0.781200	0.152900
C181	C18	0.424600	0.801700	0.825900
C191	C19	0.026200	0.843000	0.694000
C201	C20	0.080900	0.809200	0.626000
C211	C21	0.920500	0.842600	0.656000
Cd41	Cd4	0.225160	0.364570	0.381040
N191	N19	0.245600	0.420400	0.599000
N201	N20	0.251200	0.422100	0.155500
N211	N21	0.174100	0.300200	0.590000
N221	N22	0.376600	0.332000	0.371500
N231	N23	0.059000	0.374300	0.337000
N241	N24	0.182200	0.307400	0.152500
C221	C22	0.248000	0.450800	0.702300
C231	C23	0.250600	0.451400	0.049600
C241	C24	0.108100	0.281200	0.652900
C251	C25	0.424600	0.301700	0.325900
C261	C26	0.026200	0.343000	0.194000
C271	C27	0.080900	0.309200	0.126000
C281	C28	0.920500	0.342600	0.156000
Cd51	Cd5	0.725160	0.864570	0.118960
N251	N25	0.745600	0.920400	0.901000
N261	N26	0.751200	0.922100	0.344500
N271	N27	0.674100	0.800200	0.910000
N281	N28	0.876600	0.832000	0.128500
N291	N29	0.559000	0.874300	0.163000
N301	N30	0.682200	0.807400	0.347500
C291	C29	0.748000	0.950800	0.797700
C301	C30	0.750600	0.951400	0.450400
C311	C31	0.608100	0.781200	0.847100
C321	C32	0.924600	0.801700	0.174100
C331	C33	0.526200	0.843000	0.306000
C341	C34	0.580900	0.809200	0.374000
C351	C35	0.420500	0.842600	0.344000
Cd61	Cd6	0.725160	0.364570	0.618960
N311	N31	0.745600	0.420400	0.401000
N321	N32	0.751200	0.422100	0.844500
N331	N33	0.674100	0.300200	0.410000
N341	N34	0.876600	0.332000	0.628500
N351	N35	0.559000	0.374300	0.663000
N361	N36	0.682200	0.307400	0.847500
C361	C36	0.748000	0.450800	0.297700
C371	C37	0.750600	0.451400	0.950400
C381	C38	0.608100	0.281200	0.347100
C391	C39	0.924600	0.301700	0.674100
C401	C40	0.526200	0.343000	0.806000
C411	C41	0.580900	0.309200	0.874000
C421	C42	0.420500	0.342600	0.844000
Cd71	Cd7	0.774840	0.135430	0.118960
N371	N37	0.754400	0.079600	0.901000
N381	N38	0.748800	0.077900	0.344500
N391	N39	0.825900	0.199800	0.910000
N401	N40	0.623400	0.168000	0.128500
N411	N41	0.941000	0.125700	0.163000
N421	N42	0.817800	0.192600	0.347500
C431	C43	0.752000	0.049200	0.797700
C441	C44	0.749400	0.048600	0.450400
C451	C45	0.891900	0.218800	0.847100
C461	C46	0.575400	0.198300	0.174100
C471	C47	0.973800	0.157000	0.306000
C481	C48	0.919100	0.190800	0.374000
C491	C49	0.079500	0.157400	0.344000
Cd81	Cd8	0.774840	0.635430	0.618960
N431	N43	0.754400	0.579600	0.401000
N441	N44	0.748800	0.577900	0.844500
N451	N45	0.825900	0.699800	0.410000
N461	N46	0.623400	0.668000	0.628500
N471	N47	0.941000	0.625700	0.663000
N481	N48	0.817800	0.692600	0.847500
C501	C50	0.752000	0.549200	0.297700
C511	C51	0.749400	0.548600	0.950400
C521	C52	0.891900	0.718800	0.347100
C531	C53	0.575400	0.698300	0.674100
C541	C54	0.973800	0.657000	0.806000
C551	C55	0.919100	0.690800	0.874000
C561	C56	0.079500	0.657400	0.844000
Ni11	Ni1	0.250000	0.000000	0.374400
Ni21	Ni2	0.250000	0.500000	0.874400
Ni31	Ni3	0.750000	0.000000	0.625600
Ni41	Ni4	0.750000	0.500000	0.125600
Ni51	Ni5	0.500000	0.250000	0.250000
Ni61	Ni6	0.000000	0.750000	0.250000
Ni71	Ni7	0.500000	0.750000	0.750000
Ni81	Ni8	0.000000	0.250000	0.750000
