data_JOKYAJ10_freeONLY_PM
_symmetry_space_group_name_H-M	'P1'
_cell_length_a	14.061000
_cell_length_b	27.192000
_cell_length_c	7.590000
_cell_angle_alpha	90.000000
_cell_angle_beta	90.000000
_cell_angle_gamma	90.000000
_symmetry_Int_Tables_number 1

loop_
_symmetry_equiv_pos_as_xyz
'x,y,z'

loop_
_atom_site_label
_atom_site_type_symbol
_atom_site_fract_x
_atom_site_fract_y
_atom_site_fract_z
Cd11	Cd1	0.214730	0.115920	0.121400
N11	N1	0.240000	0.172000	0.893000
N21	N2	0.247000	0.172500	0.328000
N31	N3	0.160000	0.056700	0.338000
N41	N4	0.361000	0.077000	0.117000
N51	N5	0.172000	0.057000	0.899000
N61	N6	0.051000	0.127200	0.075000
C11	C1	0.243000	0.201800	0.786000
C21	C2	0.252000	0.201300	0.435000
C31	C3	0.101000	0.035600	0.403000
C41	C4	0.414000	0.048600	0.072000
C51	C5	0.073000	0.058000	0.878000
C61	C6	0.016000	0.092000	0.939000
C71	C7	0.910000	0.092600	0.909000
Cd21	Cd2	0.285270	0.884080	0.621400
N71	N7	0.260000	0.828000	0.393000
N81	N8	0.253000	0.827500	0.828000
N91	N9	0.340000	0.943300	0.838000
N101	N10	0.139000	0.923000	0.617000
N111	N11	0.328000	0.943000	0.399000
N121	N12	0.449000	0.872800	0.575000
C81	C8	0.257000	0.798200	0.286000
C91	C9	0.248000	0.798700	0.935000
C101	C10	0.399000	0.964400	0.903000
C111	C11	0.086000	0.951400	0.572000
C121	C12	0.427000	0.942000	0.378000
C131	C13	0.484000	0.908000	0.439000
C141	C14	0.590000	0.907400	0.409000
Cd31	Cd3	0.785270	0.615920	0.878600
N131	N13	0.760000	0.672000	0.107000
N141	N14	0.753000	0.672500	0.672000
N151	N15	0.840000	0.556700	0.662000
N161	N16	0.639000	0.577000	0.883000
N171	N17	0.828000	0.557000	0.101000
N181	N18	0.949000	0.627200	0.925000
C151	C15	0.757000	0.701800	0.214000
C161	C16	0.748000	0.701300	0.565000
C171	C17	0.899000	0.535600	0.597000
C181	C18	0.586000	0.548600	0.928000
C191	C19	0.927000	0.558000	0.122000
C201	C20	0.984000	0.592000	0.061000
C211	C21	0.090000	0.592600	0.091000
Cd41	Cd4	0.714730	0.384080	0.378600
N191	N19	0.740000	0.328000	0.607000
N201	N20	0.747000	0.327500	0.172000
N211	N21	0.660000	0.443300	0.162000
N221	N22	0.861000	0.423000	0.383000
N231	N23	0.672000	0.443000	0.601000
N241	N24	0.551000	0.372800	0.425000
C221	C22	0.743000	0.298200	0.714000
C231	C23	0.752000	0.298700	0.065000
C241	C24	0.601000	0.464400	0.097000
C251	C25	0.914000	0.451400	0.428000
C261	C26	0.573000	0.442000	0.622000
C271	C27	0.516000	0.408000	0.561000
C281	C28	0.410000	0.407400	0.591000
Cd51	Cd5	0.785270	0.884080	0.878600
N251	N25	0.760000	0.828000	0.107000
N261	N26	0.753000	0.827500	0.672000
N271	N27	0.840000	0.943300	0.662000
N281	N28	0.639000	0.923000	0.883000
N291	N29	0.828000	0.943000	0.101000
N301	N30	0.949000	0.872800	0.925000
C291	C29	0.757000	0.798200	0.214000
C301	C30	0.748000	0.798700	0.565000
C311	C31	0.899000	0.964400	0.597000
C321	C32	0.586000	0.951400	0.928000
C331	C33	0.927000	0.942000	0.122000
C341	C34	0.984000	0.908000	0.061000
C351	C35	0.090000	0.907400	0.091000
Cd61	Cd6	0.714730	0.115920	0.378600
N311	N31	0.740000	0.172000	0.607000
N321	N32	0.747000	0.172500	0.172000
N331	N33	0.660000	0.056700	0.162000
N341	N34	0.861000	0.077000	0.383000
N351	N35	0.672000	0.057000	0.601000
N361	N36	0.551000	0.127200	0.425000
C361	C36	0.743000	0.201800	0.714000
C371	C37	0.752000	0.201300	0.065000
C381	C38	0.601000	0.035600	0.097000
C391	C39	0.914000	0.048600	0.428000
C401	C40	0.573000	0.058000	0.622000
C411	C41	0.516000	0.092000	0.561000
C421	C42	0.410000	0.092600	0.591000
Cd71	Cd7	0.214730	0.384080	0.121400
N371	N37	0.240000	0.328000	0.893000
N381	N38	0.247000	0.327500	0.328000
N391	N39	0.160000	0.443300	0.338000
N401	N40	0.361000	0.423000	0.117000
N411	N41	0.172000	0.443000	0.899000
N421	N42	0.051000	0.372800	0.075000
C431	C43	0.243000	0.298200	0.786000
C441	C44	0.252000	0.298700	0.435000
C451	C45	0.101000	0.464400	0.403000
C461	C46	0.414000	0.451400	0.072000
C471	C47	0.073000	0.442000	0.878000
C481	C48	0.016000	0.408000	0.939000
C491	C49	0.910000	0.407400	0.909000
Cd81	Cd8	0.285270	0.615920	0.621400
N431	N43	0.260000	0.672000	0.393000
N441	N44	0.253000	0.672500	0.828000
N451	N45	0.340000	0.556700	0.838000
N461	N46	0.139000	0.577000	0.617000
N471	N47	0.328000	0.557000	0.399000
N481	N48	0.449000	0.627200	0.575000
C501	C50	0.257000	0.701800	0.286000
C511	C51	0.248000	0.701300	0.935000
C521	C52	0.399000	0.535600	0.903000
C531	C53	0.086000	0.548600	0.572000
C541	C54	0.427000	0.558000	0.378000
C551	C55	0.484000	0.592000	0.439000
C561	C56	0.590000	0.592600	0.409000
Ni11	Ni1	0.250100	0.250000	0.610400
C571	C57	0.130000	0.250000	0.560000
Ni21	Ni2	0.249900	0.750000	0.110400
C581	C58	0.370000	0.750000	0.060000
Ni31	Ni3	0.749900	0.750000	0.389600
C591	C59	0.870000	0.750000	0.440000
Ni41	Ni4	0.750100	0.250000	0.889600
C601	C60	0.630000	0.250000	0.940000
Ni51	Ni5	0.000000	0.000000	0.500000
Ni61	Ni6	0.500000	0.000000	0.000000
Ni71	Ni7	0.000000	0.500000	0.500000
Ni81	Ni8	0.500000	0.500000	0.000000
