data_JOKYEN_freeONLY_PM
_symmetry_space_group_name_H-M	'P1'
_cell_length_a	14.183000
_cell_length_b	26.983000
_cell_length_c	7.615000
_cell_angle_alpha	90.000000
_cell_angle_beta	90.000000
_cell_angle_gamma	90.000000
_symmetry_Int_Tables_number 1

loop_
_symmetry_equiv_pos_as_xyz
'x,y,z'

loop_
_atom_site_label
_atom_site_type_symbol
_atom_site_fract_x
_atom_site_fract_y
_atom_site_fract_z
Cd11	Cd1	0.217210	0.114900	0.123330
N11	N1	0.240000	0.171100	0.894000
N21	N2	0.243700	0.171200	0.335000
N31	N3	0.165500	0.053100	0.339000
N41	N4	0.366800	0.079600	0.117000
N51	N5	0.175300	0.056200	0.903000
N61	N6	0.052600	0.126500	0.079000
C11	C1	0.240700	0.200900	0.789000
C21	C2	0.246500	0.201100	0.441000
C31	C3	0.103200	0.033000	0.401000
C41	C4	0.418300	0.050000	0.074000
C51	C5	0.075000	0.057800	0.876000
C61	C6	0.022000	0.094200	0.938000
C71	C7	0.915100	0.092900	0.906000
Cd21	Cd2	0.282790	0.885100	0.623330
N71	N7	0.260000	0.828900	0.394000
N81	N8	0.256300	0.828800	0.835000
N91	N9	0.334500	0.946900	0.839000
N101	N10	0.133200	0.920400	0.617000
N111	N11	0.324700	0.943800	0.403000
N121	N12	0.447400	0.873500	0.579000
C81	C8	0.259300	0.799100	0.289000
C91	C9	0.253500	0.798900	0.941000
C101	C10	0.396800	0.967000	0.901000
C111	C11	0.081700	0.950000	0.574000
C121	C12	0.425000	0.942200	0.376000
C131	C13	0.478000	0.905800	0.438000
C141	C14	0.584900	0.907100	0.406000
Cd31	Cd3	0.782790	0.614900	0.876670
N131	N13	0.760000	0.671100	0.106000
N141	N14	0.756300	0.671200	0.665000
N151	N15	0.834500	0.553100	0.661000
N161	N16	0.633200	0.579600	0.883000
N171	N17	0.824700	0.556200	0.097000
N181	N18	0.947400	0.626500	0.921000
C151	C15	0.759300	0.700900	0.211000
C161	C16	0.753500	0.701100	0.559000
C171	C17	0.896800	0.533000	0.599000
C181	C18	0.581700	0.550000	0.926000
C191	C19	0.925000	0.557800	0.124000
C201	C20	0.978000	0.594200	0.062000
C211	C21	0.084900	0.592900	0.094000
Cd41	Cd4	0.717210	0.385100	0.376670
N191	N19	0.740000	0.328900	0.606000
N201	N20	0.743700	0.328800	0.165000
N211	N21	0.665500	0.446900	0.161000
N221	N22	0.866800	0.420400	0.383000
N231	N23	0.675300	0.443800	0.597000
N241	N24	0.552600	0.373500	0.421000
C221	C22	0.740700	0.299100	0.711000
C231	C23	0.746500	0.298900	0.059000
C241	C24	0.603200	0.467000	0.099000
C251	C25	0.918300	0.450000	0.426000
C261	C26	0.575000	0.442200	0.624000
C271	C27	0.522000	0.405800	0.562000
C281	C28	0.415100	0.407100	0.594000
Cd51	Cd5	0.782790	0.885100	0.876670
N251	N25	0.760000	0.828900	0.106000
N261	N26	0.756300	0.828800	0.665000
N271	N27	0.834500	0.946900	0.661000
N281	N28	0.633200	0.920400	0.883000
N291	N29	0.824700	0.943800	0.097000
N301	N30	0.947400	0.873500	0.921000
C291	C29	0.759300	0.799100	0.211000
C301	C30	0.753500	0.798900	0.559000
C311	C31	0.896800	0.967000	0.599000
C321	C32	0.581700	0.950000	0.926000
C331	C33	0.925000	0.942200	0.124000
C341	C34	0.978000	0.905800	0.062000
C351	C35	0.084900	0.907100	0.094000
Cd61	Cd6	0.717210	0.114900	0.376670
N311	N31	0.740000	0.171100	0.606000
N321	N32	0.743700	0.171200	0.165000
N331	N33	0.665500	0.053100	0.161000
N341	N34	0.866800	0.079600	0.383000
N351	N35	0.675300	0.056200	0.597000
N361	N36	0.552600	0.126500	0.421000
C361	C36	0.740700	0.200900	0.711000
C371	C37	0.746500	0.201100	0.059000
C381	C38	0.603200	0.033000	0.099000
C391	C39	0.918300	0.050000	0.426000
C401	C40	0.575000	0.057800	0.624000
C411	C41	0.522000	0.094200	0.562000
C421	C42	0.415100	0.092900	0.594000
Cd71	Cd7	0.217210	0.385100	0.123330
N371	N37	0.240000	0.328900	0.894000
N381	N38	0.243700	0.328800	0.335000
N391	N39	0.165500	0.446900	0.339000
N401	N40	0.366800	0.420400	0.117000
N411	N41	0.175300	0.443800	0.903000
N421	N42	0.052600	0.373500	0.079000
C431	C43	0.240700	0.299100	0.789000
C441	C44	0.246500	0.298900	0.441000
C451	C45	0.103200	0.467000	0.401000
C461	C46	0.418300	0.450000	0.074000
C471	C47	0.075000	0.442200	0.876000
C481	C48	0.022000	0.405800	0.938000
C491	C49	0.915100	0.407100	0.906000
Cd81	Cd8	0.282790	0.614900	0.623330
N431	N43	0.260000	0.671100	0.394000
N441	N44	0.256300	0.671200	0.835000
N451	N45	0.334500	0.553100	0.839000
N461	N46	0.133200	0.579600	0.617000
N471	N47	0.324700	0.556200	0.403000
N481	N48	0.447400	0.626500	0.579000
C501	C50	0.259300	0.700900	0.289000
C511	C51	0.253500	0.701100	0.941000
C521	C52	0.396800	0.533000	0.901000
C531	C53	0.081700	0.550000	0.574000
C541	C54	0.425000	0.557800	0.376000
C551	C55	0.478000	0.594200	0.438000
C561	C56	0.584900	0.592900	0.406000
Ni11	Ni1	0.245800	0.250000	0.613900
Ni21	Ni2	0.254200	0.750000	0.113900
Ni31	Ni3	0.754200	0.750000	0.386100
Ni41	Ni4	0.745800	0.250000	0.886100
Ni51	Ni5	0.000000	0.000000	0.500000
Ni61	Ni6	0.500000	0.000000	0.000000
Ni71	Ni7	0.000000	0.500000	0.500000
Ni81	Ni8	0.500000	0.500000	0.000000
