data_JOVWOI_freeONLY_PM
_symmetry_space_group_name_H-M	'P1'
_cell_length_a	9.057000
_cell_length_b	12.606000
_cell_length_c	14.623000
_cell_angle_alpha	89.547000
_cell_angle_beta	86.530000
_cell_angle_gamma	72.512000
_symmetry_Int_Tables_number 1

loop_
_symmetry_equiv_pos_as_xyz
'x,y,z'

loop_
_atom_site_label
_atom_site_type_symbol
_atom_site_fract_x
_atom_site_fract_y
_atom_site_fract_z
Fe11	Fe1	0.181190	0.062530	0.239730
Al11	Al1	0.036420	0.805030	0.394300
Al21	Al2	0.046500	0.366350	0.112130
Al31	Al3	0.058900	0.853100	0.120750
Al41	Al4	0.689400	0.190760	0.252220
Al51	Al5	0.062600	0.372230	0.361060
Al61	Al6	0.680500	0.686200	0.262900
P11	P1	0.328800	0.237590	0.218600
P21	P2	0.767300	0.925760	0.270500
P31	P3	0.861800	0.619680	0.433490
P41	P4	0.786300	0.422200	0.216260
P51	P5	0.318500	0.805770	0.256520
P61	P6	0.960800	0.633740	0.104420
P71	P7	0.962300	0.130320	0.098520
P81	P8	0.917300	0.170700	0.402000
O11	O1	0.252800	0.319700	0.143800
O21	O2	0.957700	0.389100	0.245700
O31	O3	0.715900	0.675700	0.382200
O41	O4	0.947800	0.282500	0.404800
O51	O5	0.060500	0.513200	0.123200
O61	O6	0.798400	0.150700	0.143500
O71	O7	0.222800	0.258300	0.306200
O81	O8	0.164200	0.483300	0.303400
O91	O9	0.907700	0.495400	0.413900
O101	O10	0.071000	0.017900	0.133900
O111	O11	0.247600	0.818400	0.164000
O121	O12	0.035700	0.217800	0.126000
O131	O13	0.687800	0.533500	0.254400
O141	O14	0.900000	0.643300	0.009200
O151	O15	0.821200	0.644600	0.535600
O161	O16	0.820000	0.421900	0.110800
O171	O17	0.706300	0.337700	0.246800
O181	O18	0.668700	0.045400	0.267700
O191	O19	0.995100	0.664900	0.398000
O201	O20	0.661200	0.851400	0.266000
O211	O21	0.486600	0.251000	0.233600
O221	O22	0.953500	0.120600	0.995900
O231	O23	0.349000	0.117400	0.187500
O241	O24	0.064600	0.708100	0.114800
O251	O25	0.883000	0.899000	0.188400
O261	O26	0.849300	0.904400	0.360000
O271	O27	0.821300	0.669900	0.172100
O281	O28	0.753700	0.185500	0.370200
O291	O29	0.481400	0.724100	0.243700
O301	O30	0.919500	0.126300	0.501100
O311	O31	0.038500	0.085700	0.342500
O321	O32	0.222200	0.758600	0.324700
O331	O33	0.320300	0.918800	0.288300
Fe21	Fe2	0.963580	0.194970	0.605700
Fe31	Fe3	0.818810	0.937470	0.760270
Al71	Al7	0.953500	0.633650	0.887870
Al81	Al8	0.941100	0.146900	0.879250
Al91	Al9	0.310600	0.809240	0.747780
Al101	Al10	0.937400	0.627770	0.638940
Al111	Al11	0.319500	0.313800	0.737100
P91	P9	0.671200	0.762410	0.781400
P101	P10	0.232700	0.074240	0.729500
P111	P11	0.138200	0.380320	0.566510
P121	P12	0.213700	0.577800	0.783740
P131	P13	0.681500	0.194230	0.743480
P141	P14	0.039200	0.366260	0.895580
P151	P15	0.037700	0.869680	0.901480
P161	P16	0.082700	0.829300	0.598000
O341	O34	0.747200	0.680300	0.856200
O351	O35	0.042300	0.610900	0.754300
O361	O36	0.284100	0.324300	0.617800
O371	O37	0.052200	0.717500	0.595200
O381	O38	0.939500	0.486800	0.876800
O391	O39	0.201600	0.849300	0.856500
O401	O40	0.777200	0.741700	0.693800
O411	O41	0.835800	0.516700	0.696600
O421	O42	0.092300	0.504600	0.586100
O431	O43	0.929000	0.982100	0.866100
O441	O44	0.752400	0.181600	0.836000
O451	O45	0.964300	0.782200	0.874000
O461	O46	0.312200	0.466500	0.745600
O471	O47	0.100000	0.356700	0.990800
O481	O48	0.178800	0.355400	0.464400
O491	O49	0.180000	0.578100	0.889200
O501	O50	0.293700	0.662300	0.753200
O511	O51	0.331300	0.954600	0.732300
O521	O52	0.004900	0.335100	0.602000
O531	O53	0.338800	0.148600	0.734000
O541	O54	0.513400	0.749000	0.766400
O551	O55	0.046500	0.879400	0.004100
O561	O56	0.651000	0.882600	0.812500
O571	O57	0.935400	0.291900	0.885200
O581	O58	0.117000	0.101000	0.811600
O591	O59	0.150700	0.095600	0.640000
O601	O60	0.178700	0.330100	0.827900
O611	O61	0.246300	0.814500	0.629800
O621	O62	0.518600	0.275900	0.756300
O631	O63	0.080500	0.873700	0.498900
O641	O64	0.961500	0.914300	0.657500
O651	O65	0.777800	0.241400	0.675300
O661	O66	0.679700	0.081200	0.711700
