data_jp102463p_si_004_freeONLY_PM
_symmetry_space_group_name_H-M	'P1'
_cell_length_a	6.858700
_cell_length_b	11.203300
_cell_length_c	11.203300
_cell_angle_alpha	76.002200
_cell_angle_beta	72.175500
_cell_angle_gamma	72.175800
_symmetry_Int_Tables_number 1

loop_
_symmetry_equiv_pos_as_xyz
'x,y,z'

loop_
_atom_site_label
_atom_site_type_symbol
_atom_site_fract_x
_atom_site_fract_y
_atom_site_fract_z
Cr11	Cr1	0.000000	0.000000	0.500000
Cr21	Cr2	0.500000	0.000000	0.500000
H11	H1	0.858960	0.388160	0.495340
H21	H2	0.358960	0.995340	0.888160
H31	H3	0.257540	0.388160	0.495340
H41	H4	0.757540	0.995340	0.888160
H51	H5	0.641040	0.004660	0.111840
H61	H6	0.141040	0.611840	0.504660
H71	H7	0.242460	0.004660	0.111840
H81	H8	0.742460	0.611840	0.504660
C11	C1	0.676910	0.437820	0.495580
C21	C2	0.631370	0.240210	0.497050
C31	C3	0.823090	0.004420	0.062180
C41	C4	0.368630	0.759790	0.502950
C51	C5	0.064550	0.996090	0.874810
C61	C6	0.323090	0.562180	0.504420
C71	C7	0.564550	0.374810	0.496090
C81	C8	0.131370	0.997050	0.740210
C91	C9	0.889690	0.995580	0.937820
C101	C10	0.435450	0.625190	0.503910
C111	C11	0.610310	0.562180	0.504420
C121	C12	0.935450	0.003910	0.125190
C131	C13	0.176910	0.995580	0.937820
C141	C14	0.110310	0.004420	0.062180
C151	C15	0.389690	0.437820	0.495580
C161	C16	0.868630	0.002950	0.259790
O11	O1	0.485200	0.823590	0.503530
O21	O2	0.187680	0.823590	0.503530
O31	O3	0.514800	0.176410	0.496470
O41	O4	0.687680	0.003530	0.323590
O51	O5	0.312320	0.996470	0.676410
O61	O6	0.014800	0.996470	0.676410
O71	O7	0.812320	0.176410	0.496470
O81	O8	0.750000	0.968150	0.531850
O91	O9	0.250000	0.031850	0.468150
O101	O10	0.985200	0.003530	0.323590
