data_jp102463p_si_002_freeONLY_PM
_symmetry_space_group_name_H-M	'P1'
_cell_length_a	6.847000
_cell_length_b	11.191200
_cell_length_c	11.191200
_cell_angle_alpha	71.930100
_cell_angle_beta	72.187100
_cell_angle_gamma	72.187100
_symmetry_Int_Tables_number 1

loop_
_symmetry_equiv_pos_as_xyz
'x,y,z'

loop_
_atom_site_label
_atom_site_type_symbol
_atom_site_fract_x
_atom_site_fract_y
_atom_site_fract_z
Cr11	Cr1	0.000000	0.000000	0.500000
Cr21	Cr2	0.500000	0.000000	0.500000
H11	H1	0.746000	0.001000	0.887000
H21	H2	0.754000	0.613000	0.499000
H31	H3	0.866000	0.387000	0.501000
H41	H4	0.366000	0.001000	0.887000
H51	H5	0.254000	0.999000	0.113000
H61	H6	0.134000	0.613000	0.499000
H71	H7	0.634000	0.999000	0.113000
H81	H8	0.246000	0.387000	0.501000
C11	C1	0.431000	0.633000	0.505000
C21	C2	0.642000	0.227000	0.489000
C31	C3	0.135000	0.999000	0.067000
C41	C4	0.701000	0.433000	0.501000
C51	C5	0.358000	0.773000	0.511000
C61	C6	0.142000	0.989000	0.727000
C71	C7	0.299000	0.567000	0.499000
C81	C8	0.201000	0.001000	0.933000
C91	C9	0.865000	0.001000	0.933000
C101	C10	0.931000	0.005000	0.133000
C111	C11	0.799000	0.999000	0.067000
C121	C12	0.069000	0.995000	0.867000
C131	C13	0.569000	0.367000	0.495000
C141	C14	0.858000	0.011000	0.273000
C151	C15	0.635000	0.567000	0.499000
C161	C16	0.365000	0.433000	0.501000
O11	O1	0.819000	0.178000	0.492000
O21	O2	0.681000	0.008000	0.322000
O31	O3	0.319000	0.992000	0.678000
O41	O4	0.489000	0.822000	0.508000
O51	O5	0.250000	0.050000	0.450000
O61	O6	0.011000	0.992000	0.678000
O71	O7	0.989000	0.008000	0.322000
O81	O8	0.181000	0.822000	0.508000
O91	O9	0.511000	0.178000	0.492000
O101	O10	0.750000	0.950000	0.550000
