data_jp2064408_si_002_freeONLY_PM
_symmetry_space_group_name_H-M	'P1'
_cell_length_a	18.700200
_cell_length_b	18.700200
_cell_length_c	18.700200
_cell_angle_alpha	60.000000
_cell_angle_beta	60.000000
_cell_angle_gamma	60.000000
_symmetry_Int_Tables_number 1

loop_
_symmetry_equiv_pos_as_xyz
'x,y,z'

loop_
_atom_site_label
_atom_site_type_symbol
_atom_site_fract_x
_atom_site_fract_y
_atom_site_fract_z
Zn11	Zn1	0.500000	0.500000	0.079600
Zn21	Zn2	0.500000	0.500000	0.920400
Zn31	Zn3	0.500000	0.079600	0.920400
Zn41	Zn4	0.920400	0.500000	0.079600
Zn51	Zn5	0.500000	0.920400	0.079600
Zn61	Zn6	0.920400	0.079600	0.500000
Zn71	Zn7	0.920400	0.500000	0.500000
Zn81	Zn8	0.500000	0.920400	0.500000
Zn91	Zn9	0.079600	0.500000	0.920400
Zn101	Zn10	0.079600	0.920400	0.500000
Zn111	Zn11	0.079600	0.500000	0.500000
Zn121	Zn12	0.500000	0.079600	0.500000
H11	H1	0.988700	0.771100	0.469100
H21	H2	0.011300	0.228900	0.228900
H31	H3	0.988700	0.771100	0.771100
H41	H4	0.011300	0.228900	0.530900
H51	H5	0.771100	0.988700	0.469100
H61	H6	0.469100	0.988700	0.771100
H71	H7	0.228900	0.011300	0.228900
H81	H8	0.771100	0.988700	0.771100
H91	H9	0.771100	0.469100	0.988700
H101	H10	0.228900	0.228900	0.530900
H111	H11	0.771100	0.469100	0.771100
H121	H12	0.530900	0.228900	0.011300
H131	H13	0.771100	0.771100	0.469100
H141	H14	0.988700	0.469100	0.771100
H151	H15	0.228900	0.530900	0.011300
H161	H16	0.771100	0.771100	0.988700
H171	H17	0.011300	0.530900	0.228900
H181	H18	0.469100	0.771100	0.771100
H191	H19	0.530900	0.228900	0.228900
H201	H20	0.469100	0.771100	0.988700
H211	H21	0.228900	0.011300	0.530900
H221	H22	0.228900	0.530900	0.228900
H231	H23	0.530900	0.011300	0.228900
H241	H24	0.228900	0.228900	0.011300
C11	C1	0.069200	0.336200	0.069200
C21	C2	0.470000	0.886400	0.757200
C31	C3	0.470000	0.886400	0.886400
C41	C4	0.525400	0.069200	0.336200
C51	C5	0.113600	0.530000	0.242800
C61	C6	0.069200	0.525400	0.336200
C71	C7	0.929700	0.800300	0.800300
C81	C8	0.199700	0.199700	0.070300
C91	C9	0.930800	0.930800	0.663800
C101	C10	0.530300	0.199700	0.199700
C111	C11	0.800300	0.469700	0.929700
C121	C12	0.663800	0.930800	0.474600
C131	C13	0.800300	0.800300	0.469700
C141	C14	0.469700	0.800300	0.800300
C151	C15	0.757200	0.886400	0.470000
C161	C16	0.069200	0.069200	0.336200
C171	C17	0.199700	0.070300	0.199700
C181	C18	0.886400	0.470000	0.757200
C191	C19	0.069200	0.525400	0.069200
C201	C20	0.469700	0.800300	0.929700
C211	C21	0.886400	0.886400	0.470000
C221	C22	0.113600	0.242800	0.530000
C231	C23	0.757200	0.886400	0.886400
C241	C24	0.336200	0.069200	0.069200
C251	C25	0.757200	0.470000	0.886400
C261	C26	0.242800	0.113600	0.113600
C271	C27	0.525400	0.336200	0.069200
C281	C28	0.886400	0.757200	0.470000
C291	C29	0.199700	0.530300	0.070300
C301	C30	0.470000	0.757200	0.886400
C311	C31	0.113600	0.113600	0.242800
C321	C32	0.070300	0.199700	0.530300
C331	C33	0.663800	0.474600	0.930800
C341	C34	0.886400	0.886400	0.757200
C351	C35	0.800300	0.469700	0.800300
C361	C36	0.069200	0.336200	0.525400
C371	C37	0.800300	0.800300	0.929700
C381	C38	0.113600	0.242800	0.113600
C391	C39	0.530300	0.199700	0.070300
C401	C40	0.199700	0.530300	0.199700
C411	C41	0.800300	0.929700	0.800300
C421	C42	0.336200	0.525400	0.069200
C431	C43	0.242800	0.113600	0.530000
C441	C44	0.929700	0.469700	0.800300
C451	C45	0.929700	0.800300	0.469700
C461	C46	0.930800	0.474600	0.663800
C471	C47	0.070300	0.199700	0.199700
C481	C48	0.474600	0.663800	0.930800
C491	C49	0.530300	0.070300	0.199700
C501	C50	0.530000	0.113600	0.242800
C511	C51	0.199700	0.199700	0.530300
C521	C52	0.800300	0.929700	0.469700
C531	C53	0.199700	0.070300	0.530300
C541	C54	0.113600	0.530000	0.113600
C551	C55	0.930800	0.663800	0.474600
C561	C56	0.930800	0.663800	0.930800
C571	C57	0.469700	0.929700	0.800300
C581	C58	0.069200	0.069200	0.525400
C591	C59	0.930800	0.474600	0.930800
C601	C60	0.336200	0.069200	0.525400
C611	C61	0.113600	0.113600	0.530000
C621	C62	0.886400	0.757200	0.886400
C631	C63	0.930800	0.930800	0.474600
C641	C64	0.070300	0.530300	0.199700
C651	C65	0.525400	0.069200	0.069200
C661	C66	0.886400	0.470000	0.886400
C671	C67	0.474600	0.930800	0.663800
C681	C68	0.474600	0.930800	0.930800
C691	C69	0.530000	0.113600	0.113600
C701	C70	0.663800	0.930800	0.930800
C711	C71	0.530000	0.242800	0.113600
C721	C72	0.242800	0.530000	0.113600
O11	O1	0.477500	0.888300	0.627700
O21	O2	0.477500	0.627700	0.006500
O31	O3	0.993500	0.111700	0.372300
O41	O4	0.627700	0.006500	0.477500
O51	O5	0.993500	0.372300	0.522500
O61	O6	0.810000	0.190000	0.500000
O71	O7	0.372300	0.993500	0.111700
O81	O8	0.500000	0.500000	0.190000
O91	O9	0.477500	0.888300	0.006500
O101	O10	0.888300	0.006500	0.627700
O111	O11	0.006500	0.627700	0.888300
O121	O12	0.372300	0.111700	0.993500
O131	O13	0.190000	0.500000	0.500000
O141	O14	0.627700	0.888300	0.006500
O151	O15	0.111700	0.993500	0.372300
O161	O16	0.522500	0.993500	0.111700
O171	O17	0.888300	0.477500	0.006500
O181	O18	0.111700	0.993500	0.522500
O191	O19	0.372300	0.111700	0.522500
O201	O20	0.522500	0.372300	0.111700
O211	O21	0.500000	0.190000	0.500000
O221	O22	0.522500	0.372300	0.993500
O231	O23	0.888300	0.477500	0.627700
O241	O24	0.627700	0.477500	0.006500
O251	O25	0.810000	0.500000	0.190000
O261	O26	0.993500	0.522500	0.111700
O271	O27	0.993500	0.372300	0.111700
O281	O28	0.477500	0.006500	0.888300
O291	O29	0.477500	0.006500	0.627700
O301	O30	0.993500	0.111700	0.522500
O311	O31	0.500000	0.810000	0.500000
O321	O32	0.006500	0.888300	0.627700
O331	O33	0.006500	0.627700	0.477500
O341	O34	0.993500	0.522500	0.372300
O351	O35	0.111700	0.522500	0.372300
O361	O36	0.627700	0.006500	0.888300
O371	O37	0.810000	0.500000	0.500000
O381	O38	0.006500	0.477500	0.888300
O391	O39	0.006500	0.888300	0.477500
O401	O40	0.500000	0.190000	0.810000
O411	O41	0.006500	0.477500	0.627700
O421	O42	0.372300	0.993500	0.522500
O431	O43	0.888300	0.627700	0.006500
O441	O44	0.500000	0.500000	0.810000
O451	O45	0.111700	0.522500	0.993500
O461	O46	0.111700	0.372300	0.522500
O471	O47	0.522500	0.111700	0.993500
O481	O48	0.111700	0.372300	0.993500
O491	O49	0.500000	0.810000	0.190000
O501	O50	0.888300	0.006500	0.477500
O511	O51	0.522500	0.111700	0.372300
O521	O52	0.627700	0.477500	0.888300
O531	O53	0.888300	0.627700	0.477500
O541	O54	0.190000	0.500000	0.810000
O551	O55	0.477500	0.627700	0.888300
O561	O56	0.522500	0.993500	0.372300
O571	O57	0.190000	0.810000	0.500000
O581	O58	0.372300	0.522500	0.993500
O591	O59	0.627700	0.888300	0.477500
O601	O60	0.372300	0.522500	0.111700
