data_JUFBIX_freeONLY_PM
_symmetry_space_group_name_H-M	'P1'
_cell_length_a	16.279900
_cell_length_b	7.221400
_cell_length_c	24.271600
_cell_angle_alpha	90.000000
_cell_angle_beta	116.419000
_cell_angle_gamma	90.000000
_symmetry_Int_Tables_number 1

loop_
_symmetry_equiv_pos_as_xyz
'x,y,z'

loop_
_atom_site_label
_atom_site_type_symbol
_atom_site_fract_x
_atom_site_fract_y
_atom_site_fract_z
Co11	Co1	0.441460	0.162720	0.984680
F11	F1	0.944830	0.331800	0.888460
F21	F2	0.911900	0.473100	0.803750
F31	F3	0.826430	0.253800	0.806540
F41	F4	0.945660	0.745100	0.888840
F51	F5	0.921510	0.595400	0.956390
F61	F6	0.833140	0.819810	0.907810
O11	O1	0.518800	0.298500	0.951710
O21	O2	0.524860	0.771400	0.573050
O31	O3	0.614770	0.021600	0.597760
O41	O4	0.611420	0.052300	0.981070
N11	N1	0.327340	0.324600	0.963400
N21	N2	0.219710	0.532400	0.916570
C11	C1	0.039930	0.755000	0.779630
C21	C2	0.060640	0.940800	0.795180
C31	C3	0.133430	0.997800	0.849160
H11	H1	0.146300	0.122700	0.858300
C41	C4	0.186270	0.861200	0.888960
H21	H2	0.235700	0.893700	0.925900
C51	C5	0.166040	0.675000	0.874050
C61	C6	0.093960	0.619300	0.819610
H31	H3	0.082100	0.494400	0.810100
C71	C7	0.303340	0.470200	0.926970
H41	H4	0.339600	0.523400	0.910500
C81	C8	0.255880	0.293400	0.977840
H51	H5	0.253700	0.199300	0.003300
C91	C9	0.189310	0.420100	0.949350
H61	H6	0.133800	0.429500	0.951500
C101	C10	0.587650	0.208500	0.955980
C111	C11	0.646350	0.294400	0.929380
C121	C12	0.625060	0.465500	0.900820
H71	H7	0.574400	0.530700	0.898700
C131	C13	0.678990	0.540000	0.875400
H81	H8	0.663600	0.654600	0.855900
C141	C14	0.755230	0.447100	0.878510
C151	C15	0.777750	0.277700	0.908690
H91	H9	0.829800	0.214800	0.912400
C161	C16	0.723570	0.202100	0.933280
H101	H10	0.739000	0.087600	0.952800
C171	C17	0.815080	0.540800	0.851580
C181	C18	0.754990	0.638100	0.789840
C191	C19	0.590650	0.867800	0.609760
C201	C20	0.646340	0.789100	0.673230
C211	C21	0.718550	0.888800	0.717230
H111	H11	0.730700	0.007700	0.708000
C221	C22	0.772860	0.814200	0.774600
H121	H12	0.821700	0.882300	0.803200
C231	C23	0.681950	0.539200	0.745810
H131	H13	0.668700	0.421500	0.755300
C241	C24	0.628820	0.613100	0.688270
H141	H14	0.580800	0.544100	0.659300
C251	C25	0.879410	0.675600	0.901150
C261	C26	0.874970	0.398400	0.837900
Co21	Co2	0.558540	0.162720	0.515320
F71	F7	0.055170	0.331800	0.611540
F81	F8	0.088100	0.473100	0.696250
F91	F9	0.173570	0.253800	0.693460
F101	F10	0.054340	0.745100	0.611160
F111	F11	0.078490	0.595400	0.543610
F121	F12	0.166860	0.819810	0.592190
O51	O5	0.481200	0.298500	0.548290
O61	O6	0.475140	0.771400	0.926950
O71	O7	0.385230	0.021600	0.902240
O81	O8	0.388580	0.052300	0.518930
N31	N3	0.672660	0.324600	0.536600
N41	N4	0.780290	0.532400	0.583430
C271	C27	0.960070	0.755000	0.720370
C281	C28	0.939360	0.940800	0.704820
C291	C29	0.866570	0.997800	0.650840
H151	H15	0.853700	0.122700	0.641700
C301	C30	0.813730	0.861200	0.611040
H161	H16	0.764300	0.893700	0.574100
C311	C31	0.833960	0.675000	0.625950
C321	C32	0.906040	0.619300	0.680390
H171	H17	0.917900	0.494400	0.689900
C331	C33	0.696660	0.470200	0.573030
H181	H18	0.660400	0.523400	0.589500
C341	C34	0.744120	0.293400	0.522160
H191	H19	0.746300	0.199300	0.496700
C351	C35	0.810690	0.420100	0.550650
H201	H20	0.866200	0.429500	0.548500
C361	C36	0.412350	0.208500	0.544020
C371	C37	0.353650	0.294400	0.570620
C381	C38	0.374940	0.465500	0.599180
H211	H21	0.425600	0.530700	0.601300
C391	C39	0.321010	0.540000	0.624600
H221	H22	0.336400	0.654600	0.644100
C401	C40	0.244770	0.447100	0.621490
C411	C41	0.222250	0.277700	0.591310
H231	H23	0.170200	0.214800	0.587600
C421	C42	0.276430	0.202100	0.566720
H241	H24	0.261000	0.087600	0.547200
C431	C43	0.184920	0.540800	0.648420
C441	C44	0.245010	0.638100	0.710160
C451	C45	0.409350	0.867800	0.890240
C461	C46	0.353660	0.789100	0.826770
C471	C47	0.281450	0.888800	0.782770
H251	H25	0.269300	0.007700	0.792000
C481	C48	0.227140	0.814200	0.725400
H261	H26	0.178300	0.882300	0.696800
C491	C49	0.318050	0.539200	0.754190
H271	H27	0.331300	0.421500	0.744700
C501	C50	0.371180	0.613100	0.811730
H281	H28	0.419200	0.544100	0.840700
C511	C51	0.120590	0.675600	0.598850
C521	C52	0.125030	0.398400	0.662100
Co31	Co3	0.558540	0.837280	0.015320
F131	F13	0.055170	0.668200	0.111540
F141	F14	0.088100	0.526900	0.196250
F151	F15	0.173570	0.746200	0.193460
F161	F16	0.054340	0.254900	0.111160
F171	F17	0.078490	0.404600	0.043610
F181	F18	0.166860	0.180190	0.092190
O91	O9	0.481200	0.701500	0.048290
O101	O10	0.475140	0.228600	0.426950
O111	O11	0.385230	0.978400	0.402240
O121	O12	0.388580	0.947700	0.018930
N51	N5	0.672660	0.675400	0.036600
N61	N6	0.780290	0.467600	0.083430
C531	C53	0.960070	0.245000	0.220370
C541	C54	0.939360	0.059200	0.204820
C551	C55	0.866570	0.002200	0.150840
H291	H29	0.853700	0.877300	0.141700
C561	C56	0.813730	0.138800	0.111040
H301	H30	0.764300	0.106300	0.074100
C571	C57	0.833960	0.325000	0.125950
C581	C58	0.906040	0.380700	0.180390
H311	H31	0.917900	0.505600	0.189900
C591	C59	0.696660	0.529800	0.073030
H321	H32	0.660400	0.476600	0.089500
C601	C60	0.744120	0.706600	0.022160
H331	H33	0.746300	0.800700	0.996700
C611	C61	0.810690	0.579900	0.050650
H341	H34	0.866200	0.570500	0.048500
C621	C62	0.412350	0.791500	0.044020
C631	C63	0.353650	0.705600	0.070620
C641	C64	0.374940	0.534500	0.099180
H351	H35	0.425600	0.469300	0.101300
C651	C65	0.321010	0.460000	0.124600
H361	H36	0.336400	0.345400	0.144100
C661	C66	0.244770	0.552900	0.121490
C671	C67	0.222250	0.722300	0.091310
H371	H37	0.170200	0.785200	0.087600
C681	C68	0.276430	0.797900	0.066720
H381	H38	0.261000	0.912400	0.047200
C691	C69	0.184920	0.459200	0.148420
C701	C70	0.245010	0.361900	0.210160
C711	C71	0.409350	0.132200	0.390240
C721	C72	0.353660	0.210900	0.326770
C731	C73	0.281450	0.111200	0.282770
H391	H39	0.269300	0.992300	0.292000
C741	C74	0.227140	0.185800	0.225400
H401	H40	0.178300	0.117700	0.196800
C751	C75	0.318050	0.460800	0.254190
H411	H41	0.331300	0.578500	0.244700
C761	C76	0.371180	0.386900	0.311730
H421	H42	0.419200	0.455900	0.340700
C771	C77	0.120590	0.324400	0.098850
C781	C78	0.125030	0.601600	0.162100
Co41	Co4	0.441460	0.837280	0.484680
F191	F19	0.944830	0.668200	0.388460
F201	F20	0.911900	0.526900	0.303750
F211	F21	0.826430	0.746200	0.306540
F221	F22	0.945660	0.254900	0.388840
F231	F23	0.921510	0.404600	0.456390
F241	F24	0.833140	0.180190	0.407810
O131	O13	0.518800	0.701500	0.451710
O141	O14	0.524860	0.228600	0.073050
O151	O15	0.614770	0.978400	0.097760
O161	O16	0.611420	0.947700	0.481070
N71	N7	0.327340	0.675400	0.463400
N81	N8	0.219710	0.467600	0.416570
C791	C79	0.039930	0.245000	0.279630
C801	C80	0.060640	0.059200	0.295180
C811	C81	0.133430	0.002200	0.349160
H431	H43	0.146300	0.877300	0.358300
C821	C82	0.186270	0.138800	0.388960
H441	H44	0.235700	0.106300	0.425900
C831	C83	0.166040	0.325000	0.374050
C841	C84	0.093960	0.380700	0.319610
H451	H45	0.082100	0.505600	0.310100
C851	C85	0.303340	0.529800	0.426970
H461	H46	0.339600	0.476600	0.410500
C861	C86	0.255880	0.706600	0.477840
H471	H47	0.253700	0.800700	0.503300
C871	C87	0.189310	0.579900	0.449350
H481	H48	0.133800	0.570500	0.451500
C881	C88	0.587650	0.791500	0.455980
C891	C89	0.646350	0.705600	0.429380
C901	C90	0.625060	0.534500	0.400820
H491	H49	0.574400	0.469300	0.398700
C911	C91	0.678990	0.460000	0.375400
H501	H50	0.663600	0.345400	0.355900
C921	C92	0.755230	0.552900	0.378510
C931	C93	0.777750	0.722300	0.408690
H511	H51	0.829800	0.785200	0.412400
C941	C94	0.723570	0.797900	0.433280
H521	H52	0.739000	0.912400	0.452800
C951	C95	0.815080	0.459200	0.351580
C961	C96	0.754990	0.361900	0.289840
C971	C97	0.590650	0.132200	0.109760
C981	C98	0.646340	0.210900	0.173230
C991	C99	0.718550	0.111200	0.217230
H531	H53	0.730700	0.992300	0.208000
C1001	C100	0.772860	0.185800	0.274600
H541	H54	0.821700	0.117700	0.303200
C1011	C101	0.681950	0.460800	0.245810
H551	H55	0.668700	0.578500	0.255300
C1021	C102	0.628820	0.386900	0.188270
H561	H56	0.580800	0.455900	0.159300
C1031	C103	0.879410	0.324400	0.401150
C1041	C104	0.874970	0.601600	0.337900
O171	O17	0.000000	0.057300	0.750000
O181	O18	0.000000	0.942700	0.250000
