data_JUFREJ_freeONLY_PM
_symmetry_space_group_name_H-M	'P1'
_cell_length_a	15.895600
_cell_length_b	15.895600
_cell_length_c	7.602800
_cell_angle_alpha	90.000000
_cell_angle_beta	90.000000
_cell_angle_gamma	120.000000
_symmetry_Int_Tables_number 1

loop_
_symmetry_equiv_pos_as_xyz
'x,y,z'

loop_
_atom_site_label
_atom_site_type_symbol
_atom_site_fract_x
_atom_site_fract_y
_atom_site_fract_z
Gd11	Gd1	0.370210	0.185110	0.255150
N11	N1	0.501200	0.152400	0.401400
C11	C1	0.593400	0.186600	0.350700
H11	H1	0.619500	0.238800	0.273000
N21	N2	0.651300	0.152400	0.401700
C21	C2	0.612400	0.076000	0.511400
C31	C3	0.517900	0.035400	0.570800
H21	H2	0.491600	0.982800	0.647600
C41	C4	0.463600	0.076400	0.510800
C51	C5	0.357000	0.033400	0.558100
O11	O1	0.313270	0.072360	0.492500
O21	O2	0.321370	0.960140	0.655600
C61	C6	0.676300	0.032800	0.557600
O31	O3	0.759410	0.072720	0.492300
O41	O4	0.638880	0.960540	0.655400
O51	O5	0.374500	0.187000	0.923600
N31	N3	0.465700	0.233000	0.913500
O61	O6	0.511050	0.255300	0.061800
O71	O7	0.508300	0.254000	0.774100
O81	O8	0.202750	0.101170	0.172000
H31	H3	0.168700	0.043600	0.212800
H41	H4	0.172500	0.130100	0.207500
Gd21	Gd2	0.814890	0.185100	0.255150
N41	N4	0.847600	0.348800	0.401400
C71	C7	0.813400	0.406800	0.350700
H51	H5	0.761200	0.380700	0.273000
N51	N5	0.847600	0.498900	0.401700
C81	C8	0.924000	0.536400	0.511400
C91	C9	0.964600	0.482500	0.570800
H61	H6	0.017200	0.508800	0.647600
C101	C10	0.923600	0.387200	0.510800
C111	C11	0.966600	0.323600	0.558100
O91	O9	0.927640	0.240910	0.492500
O101	O10	0.039860	0.361230	0.655600
C121	C12	0.967200	0.643500	0.557600
O111	O11	0.927280	0.686690	0.492300
O121	O12	0.039460	0.678340	0.655400
O131	O13	0.813000	0.187500	0.923600
N61	N6	0.767000	0.232700	0.913500
O141	O14	0.744700	0.255750	0.061800
O151	O15	0.746000	0.254300	0.774100
O161	O16	0.898830	0.101580	0.172000
H71	H7	0.956400	0.125100	0.212800
H81	H8	0.869900	0.042400	0.207500
Gd31	Gd3	0.814900	0.629790	0.255150
N71	N7	0.651200	0.498800	0.401400
C131	C13	0.593200	0.406600	0.350700
H91	H9	0.619300	0.380500	0.273000
N81	N8	0.501100	0.348700	0.401700
C141	C14	0.463600	0.387600	0.511400
C151	C15	0.517500	0.482100	0.570800
H101	H10	0.491200	0.508400	0.647600
C161	C16	0.612800	0.536400	0.510800
C171	C17	0.676400	0.643000	0.558100
O171	O17	0.759090	0.686730	0.492500
O181	O18	0.638770	0.678630	0.655600
C181	C18	0.356500	0.323700	0.557600
O191	O19	0.313310	0.240590	0.492300
O201	O20	0.321660	0.361120	0.655400
O211	O21	0.812500	0.625500	0.923600
N91	N9	0.767300	0.534300	0.913500
O221	O22	0.744250	0.488950	0.061800
O231	O23	0.745700	0.491700	0.774100
O241	O24	0.898420	0.797250	0.172000
H111	H11	0.874900	0.831300	0.212800
H121	H12	0.957600	0.827500	0.207500
Gd41	Gd4	0.629790	0.814890	0.755150
N101	N10	0.498800	0.847600	0.901400
C191	C19	0.406600	0.813400	0.850700
H131	H13	0.380500	0.761200	0.773000
N111	N11	0.348700	0.847600	0.901700
C201	C20	0.387600	0.924000	0.011400
C211	C21	0.482100	0.964600	0.070800
H141	H14	0.508400	0.017200	0.147600
C221	C22	0.536400	0.923600	0.010800
C231	C23	0.643000	0.966600	0.058100
O251	O25	0.686730	0.927640	0.992500
O261	O26	0.678630	0.039860	0.155600
C241	C24	0.323700	0.967200	0.057600
O271	O27	0.240590	0.927280	0.992300
O281	O28	0.361120	0.039460	0.155400
O291	O29	0.625500	0.813000	0.423600
N121	N12	0.534300	0.767000	0.413500
O301	O30	0.488950	0.744700	0.561800
O311	O31	0.491700	0.746000	0.274100
O321	O32	0.797250	0.898830	0.672000
H151	H15	0.831300	0.956400	0.712800
H161	H16	0.827500	0.869900	0.707500
Gd51	Gd5	0.185110	0.814900	0.755150
N131	N13	0.152400	0.651200	0.901400
C251	C25	0.186600	0.593200	0.850700
H171	H17	0.238800	0.619300	0.773000
N141	N14	0.152400	0.501100	0.901700
C261	C26	0.076000	0.463600	0.011400
C271	C27	0.035400	0.517500	0.070800
H181	H18	0.982800	0.491200	0.147600
C281	C28	0.076400	0.612800	0.010800
C291	C29	0.033400	0.676400	0.058100
O331	O33	0.072360	0.759090	0.992500
O341	O34	0.960140	0.638770	0.155600
C301	C30	0.032800	0.356500	0.057600
O351	O35	0.072720	0.313310	0.992300
O361	O36	0.960540	0.321660	0.155400
O371	O37	0.187000	0.812500	0.423600
N151	N15	0.233000	0.767300	0.413500
O381	O38	0.255300	0.744250	0.561800
O391	O39	0.254000	0.745700	0.274100
O401	O40	0.101170	0.898420	0.672000
H191	H19	0.043600	0.874900	0.712800
H201	H20	0.130100	0.957600	0.707500
Gd61	Gd6	0.185100	0.370210	0.755150
N161	N16	0.348800	0.501200	0.901400
C311	C31	0.406800	0.593400	0.850700
H211	H21	0.380700	0.619500	0.773000
N171	N17	0.498900	0.651300	0.901700
C321	C32	0.536400	0.612400	0.011400
C331	C33	0.482500	0.517900	0.070800
H221	H22	0.508800	0.491600	0.147600
C341	C34	0.387200	0.463600	0.010800
C351	C35	0.323600	0.357000	0.058100
O411	O41	0.240910	0.313270	0.992500
O421	O42	0.361230	0.321370	0.155600
C361	C36	0.643500	0.676300	0.057600
O431	O43	0.686690	0.759410	0.992300
O441	O44	0.678340	0.638880	0.155400
O451	O45	0.187500	0.374500	0.423600
N181	N18	0.232700	0.465700	0.413500
O461	O46	0.255750	0.511050	0.561800
O471	O47	0.254300	0.508300	0.274100
O481	O48	0.101580	0.202750	0.672000
H231	H23	0.125100	0.168700	0.712800
H241	H24	0.042400	0.172500	0.707500
