data_JUMDEC_freeONLY_PM
_symmetry_space_group_name_H-M	'P1'
_cell_length_a	6.805500
_cell_length_b	13.447500
_cell_length_c	16.180900
_cell_angle_alpha	90.000000
_cell_angle_beta	90.000000
_cell_angle_gamma	90.000000
_symmetry_Int_Tables_number 1

loop_
_symmetry_equiv_pos_as_xyz
'x,y,z'

loop_
_atom_site_label
_atom_site_type_symbol
_atom_site_fract_x
_atom_site_fract_y
_atom_site_fract_z
C11	C1	0.224300	0.609600	0.404300
C21	C2	0.240200	0.534300	0.337900
C31	C3	0.419200	0.511800	0.302100
H11	H1	0.533100	0.541000	0.322500
C41	C4	0.431000	0.448300	0.238100
H21	H2	0.553200	0.433000	0.215800
C51	C5	0.071400	0.489300	0.307100
H31	H3	0.950100	0.502200	0.331200
C61	C6	0.084500	0.425300	0.240500
H41	H4	0.971200	0.395800	0.219800
C71	C7	0.262300	0.404900	0.204700
C81	C8	0.276900	0.344300	0.129500
O11	O1	0.283500	0.189800	0.990000
O21	O2	0.115700	0.312600	0.099600
O31	O3	0.056400	0.632100	0.430200
O41	O4	0.442800	0.328400	0.099100
O51	O5	0.384500	0.647300	0.428600
V11	V1	0.064540	0.235460	0.998520
C91	C9	0.275700	0.390400	0.904300
C101	C10	0.259800	0.465700	0.837900
C111	C11	0.080800	0.488200	0.802100
H51	H5	0.966900	0.459000	0.822500
C121	C12	0.069000	0.551700	0.738100
H61	H6	0.946800	0.567000	0.715800
C131	C13	0.428600	0.510700	0.807100
H71	H7	0.549900	0.497800	0.831200
C141	C14	0.415500	0.574700	0.740500
H81	H8	0.528800	0.604200	0.719800
C151	C15	0.237700	0.595100	0.704700
C161	C16	0.223100	0.655700	0.629500
O61	O6	0.216500	0.810200	0.490000
O71	O7	0.384300	0.687400	0.599600
O81	O8	0.443600	0.367900	0.930200
O91	O9	0.057200	0.671600	0.599100
O101	O10	0.115500	0.352700	0.928600
V21	V2	0.435460	0.764540	0.498520
C171	C17	0.775700	0.109600	0.095700
C181	C18	0.759800	0.034300	0.162100
C191	C19	0.580800	0.011800	0.197900
H91	H9	0.466900	0.041000	0.177500
C201	C20	0.569000	0.948300	0.261900
H101	H10	0.446800	0.933000	0.284200
C211	C21	0.928600	0.989300	0.192900
H111	H11	0.049900	0.002200	0.168800
C221	C22	0.915500	0.925300	0.259500
H121	H12	0.028800	0.895800	0.280200
C231	C23	0.737700	0.904900	0.295300
C241	C24	0.723100	0.844300	0.370500
O111	O11	0.716500	0.689800	0.510000
O121	O12	0.884300	0.812600	0.400400
O131	O13	0.943600	0.132100	0.069800
O141	O14	0.557200	0.828400	0.400900
O151	O15	0.615500	0.147300	0.071400
V31	V3	0.935460	0.735460	0.501480
C251	C25	0.724300	0.890400	0.595700
C261	C26	0.740200	0.965700	0.662100
C271	C27	0.919200	0.988200	0.697900
H131	H13	0.033100	0.959000	0.677500
C281	C28	0.931000	0.051700	0.761900
H141	H14	0.053200	0.067000	0.784200
C291	C29	0.571400	0.010700	0.692900
H151	H15	0.450100	0.997800	0.668800
C301	C30	0.584500	0.074700	0.759500
H161	H16	0.471200	0.104200	0.780200
C311	C31	0.762300	0.095100	0.795300
C321	C32	0.776900	0.155700	0.870500
O161	O16	0.783500	0.310200	0.010000
O171	O17	0.615700	0.187400	0.900400
O181	O18	0.556400	0.867900	0.569800
O191	O19	0.942800	0.171600	0.900900
O201	O20	0.884500	0.852700	0.571400
V41	V4	0.564540	0.264540	0.001480
