data_JUNBOL_freeONLY_PM
_symmetry_space_group_name_H-M	'P1'
_cell_length_a	13.926000
_cell_length_b	16.590000
_cell_length_c	16.181000
_cell_angle_alpha	90.000000
_cell_angle_beta	110.296000
_cell_angle_gamma	90.000000
_symmetry_Int_Tables_number 1

loop_
_symmetry_equiv_pos_as_xyz
'x,y,z'

loop_
_atom_site_label
_atom_site_type_symbol
_atom_site_fract_x
_atom_site_fract_y
_atom_site_fract_z
Cd11	Cd1	0.291520	0.499070	0.142020
Cd21	Cd2	0.418910	0.504160	0.373500
O11	O1	0.268940	0.577610	0.317200
O21	O2	0.166770	0.551850	0.179820
O31	O3	0.839090	0.626770	0.360210
O41	O4	0.697170	0.904430	0.231980
O51	O5	0.544410	0.872430	0.137290
O61	O6	0.476100	0.518470	0.250540
O71	O7	0.389760	0.614000	0.160680
O81	O8	0.346380	0.390600	0.085870
O91	O9	0.179530	0.398580	0.053860
O101	O10	0.490160	0.117800	0.083150
O111	O11	0.392900	0.019910	0.003800
O121	O12	0.035970	0.140840	0.899100
O131	O13	0.934200	0.092000	0.491390
H11	H1	0.904500	0.082100	0.439100
O141	O14	0.779770	0.066900	0.498270
C11	C1	0.181000	0.571380	0.258700
C21	C2	0.098500	0.596200	0.370900
H21	H2	0.162600	0.591200	0.414500
C31	C3	0.014400	0.609800	0.395000
H31	H3	0.021400	0.612800	0.454200
C41	C4	0.920000	0.618700	0.330500
C51	C5	0.909300	0.614800	0.242600
H41	H4	0.845400	0.622400	0.199300
C61	C6	0.993600	0.599700	0.219100
H51	H5	0.986300	0.595900	0.159800
C71	C7	0.090000	0.589900	0.283600
C81	C8	0.745400	0.656800	0.303700
C91	C9	0.737000	0.736900	0.277900
H61	H6	0.794400	0.770100	0.294500
C101	C10	0.641800	0.766900	0.227100
C111	C11	0.557100	0.717000	0.205400
H71	H7	0.493500	0.736800	0.170500
C121	C12	0.565700	0.637500	0.235000
C131	C13	0.661300	0.606900	0.284000
H81	H8	0.668500	0.553600	0.303100
C141	C14	0.628000	0.853600	0.198000
C151	C15	0.471000	0.587200	0.214900
C161	C16	0.257500	0.362100	0.052700
C171	C17	0.244400	0.279100	0.013500
C181	C18	0.146800	0.249300	0.967600
H91	H9	0.089800	0.282300	0.956500
C191	C19	0.135500	0.170400	0.938700
C201	C20	0.219100	0.119200	0.956100
H101	H10	0.210300	0.066100	0.936500
C211	C21	0.316200	0.148700	0.003420
C221	C22	0.328700	0.228700	0.030700
H111	H11	0.394000	0.248600	0.060600
C231	C23	0.405400	0.092300	0.030700
C241	C24	0.999800	0.128600	0.808800
C251	C25	0.897500	0.107800	0.771700
H121	H12	0.857200	0.102900	0.806900
C261	C26	0.856200	0.094700	0.682800
H131	H13	0.787600	0.080300	0.657800
C271	C27	0.914900	0.102500	0.629400
C281	C28	0.017400	0.121700	0.667900
H141	H14	0.058300	0.125400	0.633300
C291	C29	0.059300	0.135600	0.757300
H151	H15	0.128000	0.149700	0.782700
C301	C30	0.869400	0.085700	0.534100
Cd31	Cd3	0.708480	0.999070	0.357980
Cd41	Cd4	0.581090	0.004160	0.126500
O151	O15	0.731060	0.077610	0.182800
O161	O16	0.833230	0.051850	0.320180
O171	O17	0.160910	0.126770	0.139790
O181	O18	0.302830	0.404430	0.268020
O191	O19	0.455590	0.372430	0.362710
O201	O20	0.523900	0.018470	0.249460
O211	O21	0.610240	0.114000	0.339320
O221	O22	0.653620	0.890600	0.414130
O231	O23	0.820470	0.898580	0.446140
O241	O24	0.509840	0.617800	0.416850
O251	O25	0.607100	0.519910	0.496200
O261	O26	0.964030	0.640840	0.600900
O271	O27	0.065800	0.592000	0.008610
H161	H16	0.095500	0.582100	0.060900
O281	O28	0.220230	0.566900	0.001730
C311	C31	0.819000	0.071380	0.241300
C321	C32	0.901500	0.096200	0.129100
H171	H17	0.837400	0.091200	0.085500
C331	C33	0.985600	0.109800	0.105000
H181	H18	0.978600	0.112800	0.045800
C341	C34	0.080000	0.118700	0.169500
C351	C35	0.090700	0.114800	0.257400
H191	H19	0.154600	0.122400	0.300700
C361	C36	0.006400	0.099700	0.280900
H201	H20	0.013700	0.095900	0.340200
C371	C37	0.910000	0.089900	0.216400
C381	C38	0.254600	0.156800	0.196300
C391	C39	0.263000	0.236900	0.222100
H211	H21	0.205600	0.270100	0.205500
C401	C40	0.358200	0.266900	0.272900
C411	C41	0.442900	0.217000	0.294600
H221	H22	0.506500	0.236800	0.329500
C421	C42	0.434300	0.137500	0.265000
C431	C43	0.338700	0.106900	0.216000
H231	H23	0.331500	0.053600	0.196900
C441	C44	0.372000	0.353600	0.302000
C451	C45	0.529000	0.087200	0.285100
C461	C46	0.742500	0.862100	0.447300
C471	C47	0.755600	0.779100	0.486500
C481	C48	0.853200	0.749300	0.532400
H241	H24	0.910200	0.782300	0.543500
C491	C49	0.864500	0.670400	0.561300
C501	C50	0.780900	0.619200	0.543900
H251	H25	0.789700	0.566100	0.563500
C511	C51	0.683800	0.648700	0.496580
C521	C52	0.671300	0.728700	0.469300
H261	H26	0.606000	0.748600	0.439400
C531	C53	0.594600	0.592300	0.469300
C541	C54	0.000200	0.628600	0.691200
C551	C55	0.102500	0.607800	0.728300
H271	H27	0.142800	0.602900	0.693100
C561	C56	0.143800	0.594700	0.817200
H281	H28	0.212400	0.580300	0.842200
C571	C57	0.085100	0.602500	0.870600
C581	C58	0.982600	0.621700	0.832100
H291	H29	0.941700	0.625400	0.866700
C591	C59	0.940700	0.635600	0.742700
H301	H30	0.872000	0.649700	0.717300
C601	C60	0.130600	0.585700	0.965900
Cd51	Cd5	0.708480	0.500930	0.857980
Cd61	Cd6	0.581090	0.495840	0.626500
O291	O29	0.731060	0.422390	0.682800
O301	O30	0.833230	0.448150	0.820180
O311	O31	0.160910	0.373230	0.639790
O321	O32	0.302830	0.095570	0.768020
O331	O33	0.455590	0.127570	0.862710
O341	O34	0.523900	0.481530	0.749460
O351	O35	0.610240	0.386000	0.839320
O361	O36	0.653620	0.609400	0.914130
O371	O37	0.820470	0.601420	0.946140
O381	O38	0.509840	0.882200	0.916850
O391	O39	0.607100	0.980090	0.996200
O401	O40	0.964030	0.859160	0.100900
O411	O41	0.065800	0.908000	0.508610
H311	H31	0.095500	0.917900	0.560900
O421	O42	0.220230	0.933100	0.501730
C611	C61	0.819000	0.428620	0.741300
C621	C62	0.901500	0.403800	0.629100
H321	H32	0.837400	0.408800	0.585500
C631	C63	0.985600	0.390200	0.605000
H331	H33	0.978600	0.387200	0.545800
C641	C64	0.080000	0.381300	0.669500
C651	C65	0.090700	0.385200	0.757400
H341	H34	0.154600	0.377600	0.800700
C661	C66	0.006400	0.400300	0.780900
H351	H35	0.013700	0.404100	0.840200
C671	C67	0.910000	0.410100	0.716400
C681	C68	0.254600	0.343200	0.696300
C691	C69	0.263000	0.263100	0.722100
H361	H36	0.205600	0.229900	0.705500
C701	C70	0.358200	0.233100	0.772900
C711	C71	0.442900	0.283000	0.794600
H371	H37	0.506500	0.263200	0.829500
C721	C72	0.434300	0.362500	0.765000
C731	C73	0.338700	0.393100	0.716000
H381	H38	0.331500	0.446400	0.696900
C741	C74	0.372000	0.146400	0.802000
C751	C75	0.529000	0.412800	0.785100
C761	C76	0.742500	0.637900	0.947300
C771	C77	0.755600	0.720900	0.986500
C781	C78	0.853200	0.750700	0.032400
H391	H39	0.910200	0.717700	0.043500
C791	C79	0.864500	0.829600	0.061300
C801	C80	0.780900	0.880800	0.043900
H401	H40	0.789700	0.933900	0.063500
C811	C81	0.683800	0.851300	0.996580
C821	C82	0.671300	0.771300	0.969300
H411	H41	0.606000	0.751400	0.939400
C831	C83	0.594600	0.907700	0.969300
C841	C84	0.000200	0.871400	0.191200
C851	C85	0.102500	0.892200	0.228300
H421	H42	0.142800	0.897100	0.193100
C861	C86	0.143800	0.905300	0.317200
H431	H43	0.212400	0.919700	0.342200
C871	C87	0.085100	0.897500	0.370600
C881	C88	0.982600	0.878300	0.332100
H441	H44	0.941700	0.874600	0.366700
C891	C89	0.940700	0.864400	0.242700
H451	H45	0.872000	0.850300	0.217300
C901	C90	0.130600	0.914300	0.465900
Cd71	Cd7	0.291520	0.000930	0.642020
Cd81	Cd8	0.418910	0.995840	0.873500
O431	O43	0.268940	0.922390	0.817200
O441	O44	0.166770	0.948150	0.679820
O451	O45	0.839090	0.873230	0.860210
O461	O46	0.697170	0.595570	0.731980
O471	O47	0.544410	0.627570	0.637290
O481	O48	0.476100	0.981530	0.750540
O491	O49	0.389760	0.886000	0.660680
O501	O50	0.346380	0.109400	0.585870
O511	O51	0.179530	0.101420	0.553860
O521	O52	0.490160	0.382200	0.583150
O531	O53	0.392900	0.480090	0.503800
O541	O54	0.035970	0.359160	0.399100
O551	O55	0.934200	0.408000	0.991390
H461	H46	0.904500	0.417900	0.939100
O561	O56	0.779770	0.433100	0.998270
C911	C91	0.181000	0.928620	0.758700
C921	C92	0.098500	0.903800	0.870900
H471	H47	0.162600	0.908800	0.914500
C931	C93	0.014400	0.890200	0.895000
H481	H48	0.021400	0.887200	0.954200
C941	C94	0.920000	0.881300	0.830500
C951	C95	0.909300	0.885200	0.742600
H491	H49	0.845400	0.877600	0.699300
C961	C96	0.993600	0.900300	0.719100
H501	H50	0.986300	0.904100	0.659800
C971	C97	0.090000	0.910100	0.783600
C981	C98	0.745400	0.843200	0.803700
C991	C99	0.737000	0.763100	0.777900
H511	H51	0.794400	0.729900	0.794500
C1001	C100	0.641800	0.733100	0.727100
C1011	C101	0.557100	0.783000	0.705400
H521	H52	0.493500	0.763200	0.670500
C1021	C102	0.565700	0.862500	0.735000
C1031	C103	0.661300	0.893100	0.784000
H531	H53	0.668500	0.946400	0.803100
C1041	C104	0.628000	0.646400	0.698000
C1051	C105	0.471000	0.912800	0.714900
C1061	C106	0.257500	0.137900	0.552700
C1071	C107	0.244400	0.220900	0.513500
C1081	C108	0.146800	0.250700	0.467600
H541	H54	0.089800	0.217700	0.456500
C1091	C109	0.135500	0.329600	0.438700
C1101	C110	0.219100	0.380800	0.456100
H551	H55	0.210300	0.433900	0.436500
C1111	C111	0.316200	0.351300	0.503420
C1121	C112	0.328700	0.271300	0.530700
H561	H56	0.394000	0.251400	0.560600
C1131	C113	0.405400	0.407700	0.530700
C1141	C114	0.999800	0.371400	0.308800
C1151	C115	0.897500	0.392200	0.271700
H571	H57	0.857200	0.397100	0.306900
C1161	C116	0.856200	0.405300	0.182800
H581	H58	0.787600	0.419700	0.157800
C1171	C117	0.914900	0.397500	0.129400
C1181	C118	0.017400	0.378300	0.167900
H591	H59	0.058300	0.374600	0.133300
C1191	C119	0.059300	0.364400	0.257300
H601	H60	0.128000	0.350300	0.282700
C1201	C120	0.869400	0.414300	0.034100
