data_JUPBUT_freeONLY_PM
_symmetry_space_group_name_H-M	'P1'
_cell_length_a	9.630000
_cell_length_b	10.091600
_cell_length_c	11.733500
_cell_angle_alpha	87.958000
_cell_angle_beta	67.638000
_cell_angle_gamma	68.181000
_symmetry_Int_Tables_number 1

loop_
_symmetry_equiv_pos_as_xyz
'x,y,z'

loop_
_atom_site_label
_atom_site_type_symbol
_atom_site_fract_x
_atom_site_fract_y
_atom_site_fract_z
Pr11	Pr1	0.290760	0.962670	0.022450
O11	O1	0.476500	0.172900	0.173000
O21	O2	0.253500	0.142300	0.183600
O31	O3	0.549300	0.279800	0.931200
O41	O4	0.442200	0.121800	0.925000
O51	O5	0.169300	0.798800	0.000000
O61	O6	0.983500	0.861200	0.918200
O71	O7	0.212900	0.012600	0.834600
H11	H1	0.290600	0.022200	0.773700
H21	H2	0.194200	0.942600	0.814900
O81	O8	0.123800	0.917400	0.249600
H31	H3	0.180200	0.903600	0.293000
H41	H4	0.035600	0.990700	0.283300
N11	N1	0.094800	0.347400	0.610700
C11	C1	0.439100	0.247400	0.918200
C21	C2	0.307000	0.363300	0.892400
C31	C3	0.223900	0.325500	0.833800
C41	C4	0.102500	0.431300	0.808500
C51	C5	0.060600	0.576100	0.842000
C61	C6	0.143200	0.613300	0.902800
C71	C7	0.265300	0.507300	0.928700
C81	C8	0.094400	0.769400	0.943100
C91	C9	0.007100	0.389700	0.747700
C101	C10	0.247500	0.338100	0.547100
C111	C11	0.324600	0.289000	0.420500
C121	C12	0.246700	0.247200	0.362400
C131	C13	0.086400	0.260400	0.428700
C141	C14	0.011500	0.312100	0.554600
C151	C15	0.336400	0.180800	0.225800
Pr21	Pr2	0.709240	0.037330	0.977550
O91	O9	0.523500	0.827100	0.827000
O101	O10	0.746500	0.857700	0.816400
O111	O11	0.450700	0.720200	0.068800
O121	O12	0.557800	0.878200	0.075000
O131	O13	0.830700	0.201200	0.000000
O141	O14	0.016500	0.138800	0.081800
O151	O15	0.787100	0.987400	0.165400
H51	H5	0.709400	0.977800	0.226300
H61	H6	0.805800	0.057400	0.185100
O161	O16	0.876200	0.082600	0.750400
H71	H7	0.819800	0.096400	0.707000
H81	H8	0.964400	0.009300	0.716700
N21	N2	0.905200	0.652600	0.389300
C161	C16	0.560900	0.752600	0.081800
C171	C17	0.693000	0.636700	0.107600
C181	C18	0.776100	0.674500	0.166200
C191	C19	0.897500	0.568700	0.191500
C201	C20	0.939400	0.423900	0.158000
C211	C21	0.856800	0.386700	0.097200
C221	C22	0.734700	0.492700	0.071300
C231	C23	0.905600	0.230600	0.056900
C241	C24	0.992900	0.610300	0.252300
C251	C25	0.752500	0.661900	0.452900
C261	C26	0.675400	0.711000	0.579500
C271	C27	0.753300	0.752800	0.637600
C281	C28	0.913600	0.739600	0.571300
C291	C29	0.988500	0.687900	0.445400
C301	C30	0.663600	0.819200	0.774200
