data_JUPNAL_freeONLY_PM
_symmetry_space_group_name_H-M	'P1'
_cell_length_a	18.628000
_cell_length_b	6.874200
_cell_length_c	19.101000
_cell_angle_alpha	90.000000
_cell_angle_beta	118.770000
_cell_angle_gamma	90.000000
_symmetry_Int_Tables_number 1

loop_
_symmetry_equiv_pos_as_xyz
'x,y,z'

loop_
_atom_site_label
_atom_site_type_symbol
_atom_site_fract_x
_atom_site_fract_y
_atom_site_fract_z
O11	O1	0.991560	0.386350	0.396400
O21	O2	0.063420	0.327200	0.333840
O31	O3	0.420180	0.581700	0.601600
O41	O4	0.362870	0.471000	0.477160
O51	O5	0.969170	0.772100	0.442770
H11	H1	0.001600	0.826000	0.435100
H21	H2	0.945100	0.844000	0.456300
O61	O6	0.884590	0.128900	0.281030
H31	H3	0.906800	0.204000	0.314500
H41	H4	0.857000	0.067000	0.292000
O71	O7	0.078000	0.695000	0.241380
H51	H5	0.088000	0.698000	0.206500
H61	H6	0.078800	0.577000	0.255200
N11	N1	0.122750	0.522700	0.524560
C11	C1	0.132990	0.462700	0.462970
C21	C2	0.207890	0.462800	0.465260
H71	H7	0.212500	0.421700	0.421200
C31	C3	0.276600	0.525000	0.534100
C41	C4	0.266210	0.585100	0.597690
H81	H8	0.310800	0.627200	0.644800
C51	C5	0.188750	0.582000	0.590400
H91	H9	0.182400	0.623400	0.633500
C61	C6	0.057230	0.386800	0.391530
C71	C7	0.359960	0.525400	0.537900
O81	O8	0.491560	0.886350	0.396400
O91	O9	0.563420	0.827200	0.333840
O101	O10	0.920180	0.081700	0.601600
O111	O11	0.862870	0.971000	0.477160
O121	O12	0.469170	0.272100	0.442770
H101	H10	0.501600	0.326000	0.435100
H111	H11	0.445100	0.344000	0.456300
O131	O13	0.384590	0.628900	0.281030
H121	H12	0.406800	0.704000	0.314500
H131	H13	0.357000	0.567000	0.292000
O141	O14	0.578000	0.195000	0.241380
H141	H14	0.588000	0.198000	0.206500
H151	H15	0.578800	0.077000	0.255200
N21	N2	0.622750	0.022700	0.524560
C81	C8	0.632990	0.962700	0.462970
C91	C9	0.707890	0.962800	0.465260
H161	H16	0.712500	0.921700	0.421200
C101	C10	0.776600	0.025000	0.534100
C111	C11	0.766210	0.085100	0.597690
H171	H17	0.810800	0.127200	0.644800
C121	C12	0.688750	0.082000	0.590400
H181	H18	0.682400	0.123400	0.633500
C131	C13	0.557230	0.886800	0.391530
C141	C14	0.859960	0.025400	0.537900
O151	O15	0.008440	0.386350	0.103600
O161	O16	0.936580	0.327200	0.166160
O171	O17	0.579820	0.581700	0.898400
O181	O18	0.637130	0.471000	0.022840
O191	O19	0.030830	0.772100	0.057230
H191	H19	0.998400	0.826000	0.064900
H201	H20	0.054900	0.844000	0.043700
O201	O20	0.115410	0.128900	0.218970
H211	H21	0.093200	0.204000	0.185500
H221	H22	0.143000	0.067000	0.208000
O211	O21	0.922000	0.695000	0.258620
H231	H23	0.912000	0.698000	0.293500
H241	H24	0.921200	0.577000	0.244800
N31	N3	0.877250	0.522700	0.975440
C151	C15	0.867010	0.462700	0.037030
C161	C16	0.792110	0.462800	0.034740
H251	H25	0.787500	0.421700	0.078800
C171	C17	0.723400	0.525000	0.965900
C181	C18	0.733790	0.585100	0.902310
H261	H26	0.689200	0.627200	0.855200
C191	C19	0.811250	0.582000	0.909600
H271	H27	0.817600	0.623400	0.866500
C201	C20	0.942770	0.386800	0.108470
C211	C21	0.640040	0.525400	0.962100
O221	O22	0.508440	0.886350	0.103600
O231	O23	0.436580	0.827200	0.166160
O241	O24	0.079820	0.081700	0.898400
O251	O25	0.137130	0.971000	0.022840
O261	O26	0.530830	0.272100	0.057230
H281	H28	0.498400	0.326000	0.064900
H291	H29	0.554900	0.344000	0.043700
O271	O27	0.615410	0.628900	0.218970
H301	H30	0.593200	0.704000	0.185500
H311	H31	0.643000	0.567000	0.208000
O281	O28	0.422000	0.195000	0.258620
H321	H32	0.412000	0.198000	0.293500
H331	H33	0.421200	0.077000	0.244800
N41	N4	0.377250	0.022700	0.975440
C221	C22	0.367010	0.962700	0.037030
C231	C23	0.292110	0.962800	0.034740
H341	H34	0.287500	0.921700	0.078800
C241	C24	0.223400	0.025000	0.965900
C251	C25	0.233790	0.085100	0.902310
H351	H35	0.189200	0.127200	0.855200
C261	C26	0.311250	0.082000	0.909600
H361	H36	0.317600	0.123400	0.866500
C271	C27	0.442770	0.886800	0.108470
C281	C28	0.140040	0.025400	0.962100
O291	O29	0.008440	0.613650	0.603600
O301	O30	0.936580	0.672800	0.666160
O311	O31	0.579820	0.418300	0.398400
O321	O32	0.637130	0.529000	0.522840
O331	O33	0.030830	0.227900	0.557230
H371	H37	0.998400	0.174000	0.564900
H381	H38	0.054900	0.156000	0.543700
O341	O34	0.115410	0.871100	0.718970
H391	H39	0.093200	0.796000	0.685500
H401	H40	0.143000	0.933000	0.708000
O351	O35	0.922000	0.305000	0.758620
H411	H41	0.912000	0.302000	0.793500
H421	H42	0.921200	0.423000	0.744800
N51	N5	0.877250	0.477300	0.475440
C291	C29	0.867010	0.537300	0.537030
C301	C30	0.792110	0.537200	0.534740
H431	H43	0.787500	0.578300	0.578800
C311	C31	0.723400	0.475000	0.465900
C321	C32	0.733790	0.414900	0.402310
H441	H44	0.689200	0.372800	0.355200
C331	C33	0.811250	0.418000	0.409600
H451	H45	0.817600	0.376600	0.366500
C341	C34	0.942770	0.613200	0.608470
C351	C35	0.640040	0.474600	0.462100
O361	O36	0.508440	0.113650	0.603600
O371	O37	0.436580	0.172800	0.666160
O381	O38	0.079820	0.918300	0.398400
O391	O39	0.137130	0.029000	0.522840
O401	O40	0.530830	0.727900	0.557230
H461	H46	0.498400	0.674000	0.564900
H471	H47	0.554900	0.656000	0.543700
O411	O41	0.615410	0.371100	0.718970
H481	H48	0.593200	0.296000	0.685500
H491	H49	0.643000	0.433000	0.708000
O421	O42	0.422000	0.805000	0.758620
H501	H50	0.412000	0.802000	0.793500
H511	H51	0.421200	0.923000	0.744800
N61	N6	0.377250	0.977300	0.475440
C361	C36	0.367010	0.037300	0.537030
C371	C37	0.292110	0.037200	0.534740
H521	H52	0.287500	0.078300	0.578800
C381	C38	0.223400	0.975000	0.465900
C391	C39	0.233790	0.914900	0.402310
H531	H53	0.189200	0.872800	0.355200
C401	C40	0.311250	0.918000	0.409600
H541	H54	0.317600	0.876600	0.366500
C411	C41	0.442770	0.113200	0.608470
C421	C42	0.140040	0.974600	0.462100
O431	O43	0.991560	0.613650	0.896400
O441	O44	0.063420	0.672800	0.833840
O451	O45	0.420180	0.418300	0.101600
O461	O46	0.362870	0.529000	0.977160
O471	O47	0.969170	0.227900	0.942770
H551	H55	0.001600	0.174000	0.935100
H561	H56	0.945100	0.156000	0.956300
O481	O48	0.884590	0.871100	0.781030
H571	H57	0.906800	0.796000	0.814500
H581	H58	0.857000	0.933000	0.792000
O491	O49	0.078000	0.305000	0.741380
H591	H59	0.088000	0.302000	0.706500
H601	H60	0.078800	0.423000	0.755200
N71	N7	0.122750	0.477300	0.024560
C431	C43	0.132990	0.537300	0.962970
C441	C44	0.207890	0.537200	0.965260
H611	H61	0.212500	0.578300	0.921200
C451	C45	0.276600	0.475000	0.034100
C461	C46	0.266210	0.414900	0.097690
H621	H62	0.310800	0.372800	0.144800
C471	C47	0.188750	0.418000	0.090400
H631	H63	0.182400	0.376600	0.133500
C481	C48	0.057230	0.613200	0.891530
C491	C49	0.359960	0.474600	0.037900
O501	O50	0.491560	0.113650	0.896400
O511	O51	0.563420	0.172800	0.833840
O521	O52	0.920180	0.918300	0.101600
O531	O53	0.862870	0.029000	0.977160
O541	O54	0.469170	0.727900	0.942770
H641	H64	0.501600	0.674000	0.935100
H651	H65	0.445100	0.656000	0.956300
O551	O55	0.384590	0.371100	0.781030
H661	H66	0.406800	0.296000	0.814500
H671	H67	0.357000	0.433000	0.792000
O561	O56	0.578000	0.805000	0.741380
H681	H68	0.588000	0.802000	0.706500
H691	H69	0.578800	0.923000	0.755200
N81	N8	0.622750	0.977300	0.024560
C501	C50	0.632990	0.037300	0.962970
C511	C51	0.707890	0.037200	0.965260
H701	H70	0.712500	0.078300	0.921200
C521	C52	0.776600	0.975000	0.034100
C531	C53	0.766210	0.914900	0.097690
H711	H71	0.810800	0.872800	0.144800
C541	C54	0.688750	0.918000	0.090400
H721	H72	0.682400	0.876600	0.133500
C551	C55	0.557230	0.113200	0.891530
C561	C56	0.859960	0.974600	0.037900
Sr11	Sr1	0.000000	0.012640	0.250000
Sr21	Sr2	0.500000	0.512640	0.250000
Sr31	Sr3	0.000000	0.987360	0.750000
Sr41	Sr4	0.500000	0.487360	0.750000
Co11	Co1	0.000000	0.500000	0.500000
Co21	Co2	0.500000	0.000000	0.500000
Co31	Co3	0.000000	0.500000	0.000000
Co41	Co4	0.500000	0.000000	0.000000
