data_JUTCUW_SL_PM
_symmetry_space_group_name_H-M	'P1'
_cell_length_a	8.936400
_cell_length_b	8.936400
_cell_length_c	8.936400
_cell_angle_alpha	60.000000
_cell_angle_beta	60.000000
_cell_angle_gamma	60.000000
_symmetry_Int_Tables_number 1

loop_
_symmetry_equiv_pos_as_xyz
'x,y,z'

loop_
_atom_site_label
_atom_site_type_symbol
_atom_site_fract_x
_atom_site_fract_y
_atom_site_fract_z
Cd11	Cd1	0.875000	0.375000	0.375000
Cd21	Cd2	0.125000	0.625000	0.625000
C11	C1	0.581000	0.473000	0.473000
C21	C2	0.973000	0.081000	0.473000
C31	C3	0.973000	0.473000	0.081000
C41	C4	0.973000	0.473000	0.473000
C51	C5	0.027000	0.919000	0.527000
C61	C6	0.419000	0.527000	0.527000
C71	C7	0.027000	0.527000	0.919000
C81	C8	0.027000	0.527000	0.527000
