data_JUVROJ_freeONLY_PM
_symmetry_space_group_name_H-M	'P1'
_cell_length_a	9.942800
_cell_length_b	10.439400
_cell_length_c	14.577900
_cell_angle_alpha	107.050000
_cell_angle_beta	109.127000
_cell_angle_gamma	90.079000
_symmetry_Int_Tables_number 1

loop_
_symmetry_equiv_pos_as_xyz
'x,y,z'

loop_
_atom_site_label
_atom_site_type_symbol
_atom_site_fract_x
_atom_site_fract_y
_atom_site_fract_z
Cd11	Cd1	0.104280	0.297840	0.201770
O11	O1	0.897400	0.185100	0.069700
O21	O2	0.409300	0.040200	0.791300
O31	O3	0.853100	0.315800	0.201300
O41	O4	0.184000	0.492500	0.337800
O51	O5	0.334800	0.298200	0.189800
C11	C1	0.808500	0.238400	0.114100
O61	O6	0.099100	0.516000	0.185000
C21	C2	0.408600	0.196800	0.047300
C31	C3	0.554300	0.232800	0.103500
H11	H1	0.584800	0.275900	0.173600
C41	C4	0.609200	0.138800	0.949600
H21	H2	0.676800	0.119100	0.917400
C51	C5	0.651900	0.203700	0.054200
O71	O7	0.172100	0.177800	0.051600
C61	C6	0.363800	0.133900	0.943100
H31	H3	0.266500	0.112000	0.905900
O81	O8	0.086000	0.971000	0.149900
C71	C7	0.151600	0.565400	0.279600
O91	O9	0.367200	0.970700	0.574700
C81	C8	0.462500	0.103200	0.893300
C91	C9	0.128600	0.028400	0.242700
C101	C10	0.298300	0.225600	0.100500
O101	O10	0.140800	0.150900	0.285900
C111	C11	0.146300	0.796700	0.265400
H41	H4	0.098800	0.758600	0.195600
C121	C12	0.190800	0.716200	0.327500
C131	C13	0.264800	0.767800	0.429500
H51	H5	0.295100	0.710800	0.469000
C141	C14	0.174200	0.937300	0.309700
C151	C15	0.511100	0.982700	0.740700
H61	H6	0.575500	0.934000	0.780800
H71	H7	0.567800	0.054700	0.736200
C161	C16	0.246200	0.993300	0.414200
H81	H8	0.261900	0.086400	0.443700
C171	C17	0.294900	0.909400	0.474800
C181	C18	0.433000	0.889900	0.636600
H91	H9	0.499000	0.836700	0.609200
H101	H10	0.361100	0.829000	0.638700
Cd21	Cd2	0.895720	0.702160	0.798230
O111	O11	0.102600	0.814900	0.930300
O121	O12	0.590700	0.959800	0.208700
O131	O13	0.146900	0.684200	0.798700
O141	O14	0.816000	0.507500	0.662200
O151	O15	0.665200	0.701800	0.810200
C191	C19	0.191500	0.761600	0.885900
O161	O16	0.900900	0.484000	0.815000
C201	C20	0.591400	0.803200	0.952700
C211	C21	0.445700	0.767200	0.896500
H111	H11	0.415200	0.724100	0.826400
C221	C22	0.390800	0.861200	0.050400
H121	H12	0.323200	0.880900	0.082600
C231	C23	0.348100	0.796300	0.945800
O171	O17	0.827900	0.822200	0.948400
C241	C24	0.636200	0.866100	0.056900
H131	H13	0.733500	0.888000	0.094100
O181	O18	0.914000	0.029000	0.850100
C251	C25	0.848400	0.434600	0.720400
O191	O19	0.632800	0.029300	0.425300
C261	C26	0.537500	0.896800	0.106700
C271	C27	0.871400	0.971600	0.757300
C281	C28	0.701700	0.774400	0.899500
O201	O20	0.859200	0.849100	0.714100
C291	C29	0.853700	0.203300	0.734600
H141	H14	0.901200	0.241400	0.804400
C301	C30	0.809200	0.283800	0.672500
C311	C31	0.735200	0.232200	0.570500
H151	H15	0.704900	0.289200	0.531000
C321	C32	0.825800	0.062700	0.690300
C331	C33	0.488900	0.017300	0.259300
H161	H16	0.424500	0.066000	0.219200
H171	H17	0.432200	0.945300	0.263800
C341	C34	0.753800	0.006700	0.585800
H181	H18	0.738100	0.913600	0.556300
C351	C35	0.705100	0.090600	0.525200
C361	C36	0.567000	0.110100	0.363400
H191	H19	0.501000	0.163300	0.390800
H201	H20	0.638900	0.171000	0.361300
Cd31	Cd3	0.000000	0.000000	0.000000
