data_JUWBIO_freeONLY_PM
_symmetry_space_group_name_H-M	'P1'
_cell_length_a	8.914700
_cell_length_b	9.729700
_cell_length_c	9.517900
_cell_angle_alpha	90.000000
_cell_angle_beta	115.745000
_cell_angle_gamma	90.000000
_symmetry_Int_Tables_number 1

loop_
_symmetry_equiv_pos_as_xyz
'x,y,z'

loop_
_atom_site_label
_atom_site_type_symbol
_atom_site_fract_x
_atom_site_fract_y
_atom_site_fract_z
Zn11	Zn1	0.824630	0.058620	0.063300
O11	O1	0.674500	0.971400	0.173100
O21	O2	0.409400	0.922700	0.108600
N11	N1	0.898300	0.212000	0.223300
N21	N2	0.027400	0.392000	0.364300
N31	N3	0.906900	0.353100	0.408400
C11	C1	0.524100	0.968700	0.081600
C21	C2	0.017700	0.305600	0.253900
H11	H1	0.086200	0.309500	0.203100
C31	C3	0.834700	0.244900	0.323700
H21	H2	0.749200	0.196400	0.332200
Zn21	Zn2	0.175370	0.558620	0.436700
O31	O3	0.325500	0.471400	0.326900
O41	O4	0.590600	0.422700	0.391400
N41	N4	0.101700	0.712000	0.276700
N51	N5	0.972600	0.892000	0.135700
N61	N6	0.093100	0.853100	0.091600
C41	C4	0.475900	0.468700	0.418400
C51	C5	0.982300	0.805600	0.246100
H31	H3	0.913800	0.809500	0.296900
C61	C6	0.165300	0.744900	0.176300
H41	H4	0.250800	0.696400	0.167800
Zn31	Zn3	0.175370	0.941380	0.936700
O51	O5	0.325500	0.028600	0.826900
O61	O6	0.590600	0.077300	0.891400
N71	N7	0.101700	0.788000	0.776700
N81	N8	0.972600	0.608000	0.635700
N91	N9	0.093100	0.646900	0.591600
C71	C7	0.475900	0.031300	0.918400
C81	C8	0.982300	0.694400	0.746100
H51	H5	0.913800	0.690500	0.796900
C91	C9	0.165300	0.755100	0.676300
H61	H6	0.250800	0.803600	0.667800
Zn41	Zn4	0.824630	0.441380	0.563300
O71	O7	0.674500	0.528600	0.673100
O81	O8	0.409400	0.577300	0.608600
N101	N10	0.898300	0.288000	0.723300
N111	N11	0.027400	0.108000	0.864300
N121	N12	0.906900	0.146900	0.908400
C101	C10	0.524100	0.531300	0.581600
C111	C11	0.017700	0.194400	0.753900
H71	H7	0.086200	0.190500	0.703100
C121	C12	0.834700	0.255100	0.823700
H81	H8	0.749200	0.303600	0.832200
