data_JUXZOT_freeONLY_PM
_symmetry_space_group_name_H-M	'P1'
_cell_length_a	24.308000
_cell_length_b	9.364000
_cell_length_c	19.130900
_cell_angle_alpha	90.000000
_cell_angle_beta	125.636000
_cell_angle_gamma	90.000000
_symmetry_Int_Tables_number 1

loop_
_symmetry_equiv_pos_as_xyz
'x,y,z'

loop_
_atom_site_label
_atom_site_type_symbol
_atom_site_fract_x
_atom_site_fract_y
_atom_site_fract_z
O11	O1	0.623150	0.465200	0.372290
O21	O2	0.572860	0.675800	0.340330
O31	O3	0.530890	0.540500	0.663870
O41	O4	0.543530	0.768200	0.702500
C11	C1	0.623790	0.596900	0.383130
C21	C2	0.550900	0.666100	0.666830
C31	C3	0.734950	0.685600	0.426680
H11	H1	0.724600	0.640900	0.376900
C41	C4	0.690110	0.671300	0.448690
C51	C5	0.705200	0.736300	0.524480
C61	C6	0.661340	0.721300	0.555210
C71	C7	0.628440	0.593200	0.546050
H21	H2	0.631200	0.517500	0.516800
C81	C8	0.591800	0.577600	0.579980
H31	H3	0.569600	0.491900	0.572400
C91	C9	0.587550	0.687900	0.625250
C101	C10	0.618820	0.816700	0.632750
H41	H4	0.615100	0.892800	0.661000
C111	C11	0.655490	0.833400	0.598620
H51	H5	0.676400	0.920200	0.604700
O51	O5	0.123150	0.965200	0.372290
O61	O6	0.072860	0.175800	0.340330
O71	O7	0.030890	0.040500	0.663870
O81	O8	0.043530	0.268200	0.702500
C121	C12	0.123790	0.096900	0.383130
C131	C13	0.050900	0.166100	0.666830
C141	C14	0.234950	0.185600	0.426680
H61	H6	0.224600	0.140900	0.376900
C151	C15	0.190110	0.171300	0.448690
C161	C16	0.205200	0.236300	0.524480
C171	C17	0.161340	0.221300	0.555210
C181	C18	0.128440	0.093200	0.546050
H71	H7	0.131200	0.017500	0.516800
C191	C19	0.091800	0.077600	0.579980
H81	H8	0.069600	0.991900	0.572400
C201	C20	0.087550	0.187900	0.625250
C211	C21	0.118820	0.316700	0.632750
H91	H9	0.115100	0.392800	0.661000
C221	C22	0.155490	0.333400	0.598620
H101	H10	0.176400	0.420200	0.604700
O91	O9	0.376850	0.465200	0.127710
O101	O10	0.427140	0.675800	0.159670
O111	O11	0.469110	0.540500	0.836130
O121	O12	0.456470	0.768200	0.797500
C231	C23	0.376210	0.596900	0.116870
C241	C24	0.449100	0.666100	0.833170
C251	C25	0.265050	0.685600	0.073320
H111	H11	0.275400	0.640900	0.123100
C261	C26	0.309890	0.671300	0.051310
C271	C27	0.294800	0.736300	0.975520
C281	C28	0.338660	0.721300	0.944790
C291	C29	0.371560	0.593200	0.953950
H121	H12	0.368800	0.517500	0.983200
C301	C30	0.408200	0.577600	0.920020
H131	H13	0.430400	0.491900	0.927600
C311	C31	0.412450	0.687900	0.874750
C321	C32	0.381180	0.816700	0.867250
H141	H14	0.384900	0.892800	0.839000
C331	C33	0.344510	0.833400	0.901380
H151	H15	0.323600	0.920200	0.895300
O131	O13	0.876850	0.965200	0.127710
O141	O14	0.927140	0.175800	0.159670
O151	O15	0.969110	0.040500	0.836130
O161	O16	0.956470	0.268200	0.797500
C341	C34	0.876210	0.096900	0.116870
C351	C35	0.949100	0.166100	0.833170
C361	C36	0.765050	0.185600	0.073320
H161	H16	0.775400	0.140900	0.123100
C371	C37	0.809890	0.171300	0.051310
C381	C38	0.794800	0.236300	0.975520
C391	C39	0.838660	0.221300	0.944790
C401	C40	0.871560	0.093200	0.953950
H171	H17	0.868800	0.017500	0.983200
C411	C41	0.908200	0.077600	0.920020
H181	H18	0.930400	0.991900	0.927600
C421	C42	0.912450	0.187900	0.874750
C431	C43	0.881180	0.316700	0.867250
H191	H19	0.884900	0.392800	0.839000
C441	C44	0.844510	0.333400	0.901380
H201	H20	0.823600	0.420200	0.895300
O171	O17	0.376850	0.534800	0.627710
O181	O18	0.427140	0.324200	0.659670
O191	O19	0.469110	0.459500	0.336130
O201	O20	0.456470	0.231800	0.297500
C451	C45	0.376210	0.403100	0.616870
C461	C46	0.449100	0.333900	0.333170
C471	C47	0.265050	0.314400	0.573320
H211	H21	0.275400	0.359100	0.623100
C481	C48	0.309890	0.328700	0.551310
C491	C49	0.294800	0.263700	0.475520
C501	C50	0.338660	0.278700	0.444790
C511	C51	0.371560	0.406800	0.453950
H221	H22	0.368800	0.482500	0.483200
C521	C52	0.408200	0.422400	0.420020
H231	H23	0.430400	0.508100	0.427600
C531	C53	0.412450	0.312100	0.374750
C541	C54	0.381180	0.183300	0.367250
H241	H24	0.384900	0.107200	0.339000
C551	C55	0.344510	0.166600	0.401380
H251	H25	0.323600	0.079800	0.395300
O211	O21	0.876850	0.034800	0.627710
O221	O22	0.927140	0.824200	0.659670
O231	O23	0.969110	0.959500	0.336130
O241	O24	0.956470	0.731800	0.297500
C561	C56	0.876210	0.903100	0.616870
C571	C57	0.949100	0.833900	0.333170
C581	C58	0.765050	0.814400	0.573320
H261	H26	0.775400	0.859100	0.623100
C591	C59	0.809890	0.828700	0.551310
C601	C60	0.794800	0.763700	0.475520
C611	C61	0.838660	0.778700	0.444790
C621	C62	0.871560	0.906800	0.453950
H271	H27	0.868800	0.982500	0.483200
C631	C63	0.908200	0.922400	0.420020
H281	H28	0.930400	0.008100	0.427600
C641	C64	0.912450	0.812100	0.374750
C651	C65	0.881180	0.683300	0.367250
H291	H29	0.884900	0.607200	0.339000
C661	C66	0.844510	0.666600	0.401380
H301	H30	0.823600	0.579800	0.395300
O251	O25	0.623150	0.534800	0.872290
O261	O26	0.572860	0.324200	0.840330
O271	O27	0.530890	0.459500	0.163870
O281	O28	0.543530	0.231800	0.202500
C671	C67	0.623790	0.403100	0.883130
C681	C68	0.550900	0.333900	0.166830
C691	C69	0.734950	0.314400	0.926680
H311	H31	0.724600	0.359100	0.876900
C701	C70	0.690110	0.328700	0.948690
C711	C71	0.705200	0.263700	0.024480
C721	C72	0.661340	0.278700	0.055210
C731	C73	0.628440	0.406800	0.046050
H321	H32	0.631200	0.482500	0.016800
C741	C74	0.591800	0.422400	0.079980
H331	H33	0.569600	0.508100	0.072400
C751	C75	0.587550	0.312100	0.125250
C761	C76	0.618820	0.183300	0.132750
H341	H34	0.615100	0.107200	0.161000
C771	C77	0.655490	0.166600	0.098620
H351	H35	0.676400	0.079800	0.104700
O291	O29	0.123150	0.034800	0.872290
O301	O30	0.072860	0.824200	0.840330
O311	O31	0.030890	0.959500	0.163870
O321	O32	0.043530	0.731800	0.202500
C781	C78	0.123790	0.903100	0.883130
C791	C79	0.050900	0.833900	0.166830
C801	C80	0.234950	0.814400	0.926680
H361	H36	0.224600	0.859100	0.876900
C811	C81	0.190110	0.828700	0.948690
C821	C82	0.205200	0.763700	0.024480
C831	C83	0.161340	0.778700	0.055210
C841	C84	0.128440	0.906800	0.046050
H371	H37	0.131200	0.982500	0.016800
C851	C85	0.091800	0.922400	0.079980
H381	H38	0.069600	0.008100	0.072400
C861	C86	0.087550	0.812100	0.125250
C871	C87	0.118820	0.683300	0.132750
H391	H39	0.115100	0.607200	0.161000
C881	C88	0.155490	0.666600	0.098620
H401	H40	0.176400	0.579800	0.104700
Cd11	Cd1	0.500000	0.496560	0.250000
Cd21	Cd2	0.000000	0.996560	0.250000
Cd31	Cd3	0.500000	0.503440	0.750000
Cd41	Cd4	0.000000	0.003440	0.750000
