data_JUZXAD_freeONLY_PM
_symmetry_space_group_name_H-M	'P1'
_cell_length_a	5.506700
_cell_length_b	10.511900
_cell_length_c	28.179400
_cell_angle_alpha	90.000000
_cell_angle_beta	90.000000
_cell_angle_gamma	90.000000
_symmetry_Int_Tables_number 1

loop_
_symmetry_equiv_pos_as_xyz
'x,y,z'

loop_
_atom_site_label
_atom_site_type_symbol
_atom_site_fract_x
_atom_site_fract_y
_atom_site_fract_z
Cu11	Cu1	0.766430	0.519060	0.240510
S11	S1	0.339830	0.710370	0.212550
C11	C1	0.519100	0.405600	0.160750
H11	H1	0.421800	0.374800	0.185200
C21	C2	0.448500	0.383900	0.114760
H21	H2	0.305400	0.340200	0.108300
C31	C3	0.593400	0.427800	0.077920
C41	C4	0.807500	0.489000	0.089310
H31	H3	0.912000	0.516400	0.065500
C51	C5	0.864800	0.509100	0.136280
H41	H4	0.007900	0.551800	0.143600
C61	C6	0.508100	0.404000	0.029650
C71	C7	0.506600	0.394200	0.955180
C81	C8	0.490300	0.371900	0.824440
H51	H5	0.385500	0.339000	0.801600
C91	C9	0.432300	0.356700	0.871220
H61	H6	0.291400	0.313800	0.879900
C101	C10	0.586100	0.405900	0.905520
C111	C11	0.799300	0.463100	0.891410
H71	H7	0.909500	0.493400	0.913700
C121	C12	0.846000	0.474500	0.843410
H81	H8	0.989900	0.513000	0.833800
N11	N1	0.721700	0.469300	0.172090
N21	N2	0.302100	0.356900	0.018350
N31	N3	0.300600	0.350000	0.968850
N41	N4	0.691600	0.432100	0.809930
O11	O1	0.651400	0.431700	0.991540
O21	O2	0.072300	0.420300	0.241850
H91	H9	0.210000	0.451000	0.246700
H101	H10	0.061000	0.357000	0.259600
O31	O3	0.442800	0.598700	0.239860
O41	O4	0.426600	0.827000	0.235200
O51	O5	0.072600	0.699600	0.216870
O61	O6	0.413400	0.702700	0.163330
Cu21	Cu2	0.733570	0.480940	0.740510
S21	S2	0.160170	0.289630	0.712550
C131	C13	0.980900	0.594400	0.660750
H111	H11	0.078200	0.625200	0.685200
C141	C14	0.051500	0.616100	0.614760
H121	H12	0.194600	0.659800	0.608300
C151	C15	0.906600	0.572200	0.577920
C161	C16	0.692500	0.511000	0.589310
H131	H13	0.588000	0.483600	0.565500
C171	C17	0.635200	0.490900	0.636280
H141	H14	0.492100	0.448200	0.643600
C181	C18	0.991900	0.596000	0.529650
C191	C19	0.993400	0.605800	0.455180
C201	C20	0.009700	0.628100	0.324440
H151	H15	0.114500	0.661000	0.301600
C211	C21	0.067700	0.643300	0.371220
H161	H16	0.208600	0.686200	0.379900
C221	C22	0.913900	0.594100	0.405520
C231	C23	0.700700	0.536900	0.391410
H171	H17	0.590500	0.506600	0.413700
C241	C24	0.654000	0.525500	0.343410
H181	H18	0.510100	0.487000	0.333800
N51	N5	0.778300	0.530700	0.672090
N61	N6	0.197900	0.643100	0.518350
N71	N7	0.199400	0.650000	0.468850
N81	N8	0.808400	0.567900	0.309930
O71	O7	0.848600	0.568300	0.491540
O81	O8	0.427700	0.579700	0.741850
H191	H19	0.290000	0.549000	0.746700
H201	H20	0.439000	0.643000	0.759600
O91	O9	0.057200	0.401300	0.739860
O101	O10	0.073400	0.173000	0.735200
O111	O11	0.427400	0.300400	0.716870
O121	O12	0.086600	0.297300	0.663330
Cu31	Cu3	0.233570	0.019060	0.259490
S31	S3	0.660170	0.210370	0.287450
C251	C25	0.480900	0.905600	0.339250
H211	H21	0.578200	0.874800	0.314800
C261	C26	0.551500	0.883900	0.385240
H221	H22	0.694600	0.840200	0.391700
C271	C27	0.406600	0.927800	0.422080
C281	C28	0.192500	0.989000	0.410690
H231	H23	0.088000	0.016400	0.434500
C291	C29	0.135200	0.009100	0.363720
H241	H24	0.992100	0.051800	0.356400
C301	C30	0.491900	0.904000	0.470350
C311	C31	0.493400	0.894200	0.544820
C321	C32	0.509700	0.871900	0.675560
H251	H25	0.614500	0.839000	0.698400
C331	C33	0.567700	0.856700	0.628780
H261	H26	0.708600	0.813800	0.620100
C341	C34	0.413900	0.905900	0.594480
C351	C35	0.200700	0.963100	0.608590
H271	H27	0.090500	0.993400	0.586300
C361	C36	0.154000	0.974500	0.656590
H281	H28	0.010100	0.013000	0.666200
N91	N9	0.278300	0.969300	0.327910
N101	N10	0.697900	0.856900	0.481650
N111	N11	0.699400	0.850000	0.531150
N121	N12	0.308400	0.932100	0.690070
O131	O13	0.348600	0.931700	0.508460
O141	O14	0.927700	0.920300	0.258150
H291	H29	0.790000	0.951000	0.253300
H301	H30	0.939000	0.857000	0.240400
O151	O15	0.557200	0.098700	0.260140
O161	O16	0.573400	0.327000	0.264800
O171	O17	0.927400	0.199600	0.283130
O181	O18	0.586600	0.202700	0.336670
Cu41	Cu4	0.266430	0.980940	0.759490
S41	S4	0.839830	0.789630	0.787450
C371	C37	0.019100	0.094400	0.839250
H311	H31	0.921800	0.125200	0.814800
C381	C38	0.948500	0.116100	0.885240
H321	H32	0.805400	0.159800	0.891700
C391	C39	0.093400	0.072200	0.922080
C401	C40	0.307500	0.011000	0.910690
H331	H33	0.412000	0.983600	0.934500
C411	C41	0.364800	0.990900	0.863720
H341	H34	0.507900	0.948200	0.856400
C421	C42	0.008100	0.096000	0.970350
C431	C43	0.006600	0.105800	0.044820
C441	C44	0.990300	0.128100	0.175560
H351	H35	0.885500	0.161000	0.198400
C451	C45	0.932300	0.143300	0.128780
H361	H36	0.791400	0.186200	0.120100
C461	C46	0.086100	0.094100	0.094480
C471	C47	0.299300	0.036900	0.108590
H371	H37	0.409500	0.006600	0.086300
C481	C48	0.346000	0.025500	0.156590
H381	H38	0.489900	0.987000	0.166200
N131	N13	0.221700	0.030700	0.827910
N141	N14	0.802100	0.143100	0.981650
N151	N15	0.800600	0.150000	0.031150
N161	N16	0.191600	0.067900	0.190070
O191	O19	0.151400	0.068300	0.008460
O201	O20	0.572300	0.079700	0.758150
H391	H39	0.710000	0.049000	0.753300
H401	H40	0.561000	0.143000	0.740400
O211	O21	0.942800	0.901300	0.760140
O221	O22	0.926600	0.673000	0.764800
O231	O23	0.572600	0.800400	0.783130
O241	O24	0.913400	0.797300	0.836670
