data_jz4002345_si_005_freeONLY_PM
_symmetry_space_group_name_H-M	'P1'
_cell_length_a	14.339100
_cell_length_b	14.339100
_cell_length_c	14.339100
_cell_angle_alpha	60.000000
_cell_angle_beta	60.000000
_cell_angle_gamma	60.000000
_symmetry_Int_Tables_number 1

loop_
_symmetry_equiv_pos_as_xyz
'x,y,z'

loop_
_atom_site_label
_atom_site_type_symbol
_atom_site_fract_x
_atom_site_fract_y
_atom_site_fract_z
Ti11	Ti1	0.116930	0.883070	0.116930
Ti21	Ti2	0.883070	0.116930	0.883070
Ti31	Ti3	0.116930	0.116930	0.883070
Ti41	Ti4	0.883070	0.883070	0.116930
Ti51	Ti5	0.883070	0.116930	0.116930
Ti61	Ti6	0.116930	0.883070	0.883070
H11	H1	0.594850	0.843150	0.419170
H21	H2	0.093040	0.720880	0.093040
H31	H3	0.843150	0.419170	0.594850
H41	H4	0.093040	0.093040	0.720880
H51	H5	0.594850	0.142830	0.419170
H61	H6	0.843150	0.142830	0.594850
H71	H7	0.843150	0.419170	0.142830
H81	H8	0.419170	0.142830	0.594850
H91	H9	0.142830	0.419170	0.843150
H101	H10	0.419170	0.843150	0.594850
H111	H11	0.843150	0.594850	0.419170
H121	H12	0.142830	0.843150	0.419170
H131	H13	0.419170	0.843150	0.142830
H141	H14	0.594850	0.419170	0.142830
H151	H15	0.594850	0.142830	0.843150
H161	H16	0.594850	0.419170	0.843150
H171	H17	0.142830	0.594850	0.843150
H181	H18	0.142830	0.843150	0.594850
H191	H19	0.419170	0.142830	0.843150
H201	H20	0.720880	0.093040	0.093040
H211	H21	0.594850	0.843150	0.142830
H221	H22	0.142830	0.419170	0.594850
H231	H23	0.142830	0.594850	0.419170
H241	H24	0.843150	0.142830	0.419170
H251	H25	0.843150	0.594850	0.142830
H261	H26	0.419170	0.594850	0.142830
H271	H27	0.093040	0.093040	0.093040
H281	H28	0.419170	0.594850	0.843150
C11	C1	0.555610	0.458730	0.077650
C21	C2	0.705460	0.995880	0.302780
C31	C3	0.077650	0.555610	0.458730
C41	C4	0.458730	0.555610	0.908010
C51	C5	0.077650	0.458730	0.908010
C61	C6	0.458730	0.077650	0.908010
C71	C7	0.993320	0.603900	0.993320
C81	C8	0.993320	0.993320	0.603900
C91	C9	0.603900	0.993320	0.409460
C101	C10	0.995880	0.302780	0.705460
C111	C11	0.458730	0.908010	0.555610
C121	C12	0.908010	0.077650	0.555610
C131	C13	0.077650	0.908010	0.458730
C141	C14	0.993320	0.603900	0.409460
C151	C15	0.555610	0.077650	0.458730
C161	C16	0.302780	0.995880	0.705460
C171	C17	0.705460	0.302780	0.995880
C181	C18	0.077650	0.555610	0.908010
C191	C19	0.409460	0.993320	0.603900
C201	C20	0.458730	0.908010	0.077650
C211	C21	0.077650	0.458730	0.555610
C221	C22	0.908010	0.555610	0.458730
C231	C23	0.458730	0.077650	0.555610
C241	C24	0.993320	0.409460	0.603900
C251	C25	0.302780	0.995880	0.995880
C261	C26	0.409460	0.993320	0.993320
C271	C27	0.555610	0.458730	0.908010
C281	C28	0.555610	0.077650	0.908010
C291	C29	0.302780	0.705460	0.995880
C301	C30	0.995880	0.705460	0.995880
C311	C31	0.908010	0.555610	0.077650
C321	C32	0.077650	0.908010	0.555610
C331	C33	0.993320	0.409460	0.993320
C341	C34	0.603900	0.409460	0.993320
C351	C35	0.555610	0.908010	0.077650
C361	C36	0.995880	0.995880	0.302780
C371	C37	0.908010	0.077650	0.458730
C381	C38	0.458730	0.555610	0.077650
C391	C39	0.995880	0.302780	0.995880
C401	C40	0.555610	0.908010	0.458730
C411	C41	0.908010	0.458730	0.555610
C421	C42	0.995880	0.705460	0.302780
C431	C43	0.908010	0.458730	0.077650
C441	C44	0.409460	0.603900	0.993320
C451	C45	0.705460	0.995880	0.995880
C461	C46	0.995880	0.995880	0.705460
C471	C47	0.993320	0.993320	0.409460
C481	C48	0.603900	0.993320	0.993320
O11	O1	0.077200	0.261120	0.743700
O21	O2	0.917980	0.077200	0.261120
O31	O3	0.743700	0.917980	0.261120
O41	O4	0.077200	0.743700	0.261120
O51	O5	0.077200	0.917980	0.743700
O61	O6	0.917980	0.261120	0.077200
O71	O7	0.951070	0.146790	0.951070
O81	O8	0.917980	0.743700	0.261120
O91	O9	0.261120	0.917980	0.743700
O101	O10	0.146790	0.951070	0.951070
O111	O11	0.917980	0.743700	0.077200
O121	O12	0.261120	0.743700	0.917980
O131	O13	0.743700	0.077200	0.261120
O141	O14	0.804070	0.065310	0.065310
O151	O15	0.261120	0.743700	0.077200
O161	O16	0.077200	0.743700	0.917980
O171	O17	0.917980	0.261120	0.743700
O181	O18	0.261120	0.077200	0.743700
O191	O19	0.261120	0.077200	0.917980
O201	O20	0.261120	0.917980	0.077200
O211	O21	0.917980	0.077200	0.743700
O221	O22	0.743700	0.077200	0.917980
O231	O23	0.077200	0.261120	0.917980
O241	O24	0.065310	0.804070	0.065310
O251	O25	0.951070	0.951070	0.146790
O261	O26	0.065310	0.065310	0.804070
O271	O27	0.065310	0.065310	0.065310
O281	O28	0.077200	0.917980	0.261120
O291	O29	0.743700	0.261120	0.077200
O301	O30	0.743700	0.917980	0.077200
O311	O31	0.951070	0.951070	0.951070
O321	O32	0.743700	0.261120	0.917980
