data_KAHPUE_freeONLY_PM
_symmetry_space_group_name_H-M	'P1'
_cell_length_a	11.470000
_cell_length_b	7.782000
_cell_length_c	6.945000
_cell_angle_alpha	90.000000
_cell_angle_beta	105.290000
_cell_angle_gamma	90.000000
_symmetry_Int_Tables_number 1

loop_
_symmetry_equiv_pos_as_xyz
'x,y,z'

loop_
_atom_site_label
_atom_site_type_symbol
_atom_site_fract_x
_atom_site_fract_y
_atom_site_fract_z
N11	N1	0.944200	0.219900	0.190700
C11	C1	0.963500	0.329000	0.307100
N21	N2	0.055800	0.219900	0.809300
C21	C2	0.036500	0.329000	0.692900
N31	N3	0.055800	0.780100	0.809300
C31	C3	0.036500	0.671000	0.692900
N41	N4	0.944200	0.780100	0.190700
C41	C4	0.963500	0.671000	0.307100
Cd11	Cd1	0.000000	0.000000	0.000000
Ni11	Ni1	0.000000	0.500000	0.500000
N51	N5	0.190100	0.000000	0.214800
C51	C5	0.207800	0.000000	0.431900
C61	C6	0.337800	0.000000	0.549900
C71	C7	0.356700	0.000000	0.774100
C81	C8	0.487800	0.000000	0.889300
N61	N6	0.809900	0.000000	0.785200
C91	C9	0.792200	0.000000	0.568100
C101	C10	0.662200	0.000000	0.450100
C111	C11	0.643300	0.000000	0.225900
C121	C12	0.512200	0.000000	0.110700
