data_KAKCEH_freeONLY_PM
_symmetry_space_group_name_H-M	'P1'
_cell_length_a	7.299300
_cell_length_b	19.361500
_cell_length_c	26.098400
_cell_angle_alpha	90.000000
_cell_angle_beta	90.000000
_cell_angle_gamma	90.000000
_symmetry_Int_Tables_number 1

loop_
_symmetry_equiv_pos_as_xyz
'x,y,z'

loop_
_atom_site_label
_atom_site_type_symbol
_atom_site_fract_x
_atom_site_fract_y
_atom_site_fract_z
Ba11	Ba1	0.127950	0.692390	0.989820
O11	O1	0.551300	0.128900	0.405700
O21	O2	0.670200	0.232000	0.418900
O31	O3	0.003800	0.826300	0.996800
O41	O4	0.276700	0.816200	0.032700
O51	O5	0.176000	0.665300	0.094200
H11	H1	0.127900	0.695800	0.123500
H21	H2	0.245700	0.623900	0.109400
O61	O6	0.073600	0.550700	0.003600
O71	O7	0.926500	0.501000	0.939300
C11	C1	0.646000	0.180800	0.391300
C21	C2	0.714300	0.181900	0.337500
C31	C3	0.798300	0.239100	0.318200
H31	H3	0.815600	0.277200	0.339300
C41	C4	0.859100	0.241700	0.267500
H41	H4	0.918800	0.281000	0.255600
C51	C5	0.831600	0.186300	0.234600
C61	C6	0.739800	0.127900	0.253800
H51	H5	0.721800	0.089900	0.232500
C71	C7	0.676400	0.125500	0.303200
H61	H6	0.609100	0.087700	0.314400
C81	C8	0.003500	0.499600	0.984800
C91	C9	0.989600	0.433100	0.013000
C101	C10	0.930100	0.372000	0.990000
H71	H7	0.893900	0.372400	0.955800
C111	C11	0.924400	0.311600	0.017000
H81	H8	0.889600	0.271100	0.000600
C121	C12	0.970800	0.309800	0.069900
C131	C13	0.027900	0.371400	0.092400
H91	H9	0.059200	0.371700	0.127000
C141	C14	0.039300	0.432200	0.064500
H101	H10	0.080100	0.472400	0.080200
C151	C15	0.954300	0.245600	0.100400
C161	C16	0.001900	0.183000	0.077800
H111	H11	0.029600	0.181400	0.043000
C171	C17	0.008300	0.122200	0.107100
C181	C18	0.954400	0.125600	0.158000
H121	H12	0.953600	0.085300	0.177400
C191	C19	0.901900	0.187100	0.180900
C201	C20	0.903800	0.247000	0.151100
H131	H13	0.870100	0.288800	0.165900
C211	C21	0.054300	0.054800	0.082900
C221	C22	0.158000	0.005500	0.110500
H141	H14	0.205400	0.017000	0.142500
C231	C23	0.189500	0.940600	0.090400
H151	H15	0.260700	0.909000	0.108400
C241	C24	0.019900	0.971200	0.016100
H161	H16	0.972600	0.959600	0.984100
C251	C25	0.992300	0.037100	0.034800
H171	H17	0.931500	0.069700	0.014900
C261	C26	0.115000	0.922400	0.043200
C271	C27	0.133900	0.850200	0.023900
Ba21	Ba2	0.872050	0.307610	0.489820
O81	O8	0.448700	0.871100	0.905700
O91	O9	0.329800	0.768000	0.918900
O101	O10	0.996200	0.173700	0.496800
O111	O11	0.723300	0.183800	0.532700
O121	O12	0.824000	0.334700	0.594200
H181	H18	0.872100	0.304200	0.623500
H191	H19	0.754300	0.376100	0.609400
O131	O13	0.926400	0.449300	0.503600
O141	O14	0.073500	0.499000	0.439300
C281	C28	0.354000	0.819200	0.891300
C291	C29	0.285700	0.818100	0.837500
C301	C30	0.201700	0.760900	0.818200
H201	H20	0.184400	0.722800	0.839300
C311	C31	0.140900	0.758300	0.767500
H211	H21	0.081200	0.719000	0.755600
C321	C32	0.168400	0.813700	0.734600
C331	C33	0.260200	0.872100	0.753800
H221	H22	0.278200	0.910100	0.732500
C341	C34	0.323600	0.874500	0.803200
H231	H23	0.390900	0.912300	0.814400
C351	C35	0.996500	0.500400	0.484800
C361	C36	0.010400	0.566900	0.513000
C371	C37	0.069900	0.628000	0.490000
H241	H24	0.106100	0.627600	0.455800
C381	C38	0.075600	0.688400	0.517000
H251	H25	0.110400	0.728900	0.500600
C391	C39	0.029200	0.690200	0.569900
C401	C40	0.972100	0.628600	0.592400
H261	H26	0.940800	0.628300	0.627000
C411	C41	0.960700	0.567800	0.564500
H271	H27	0.919900	0.527600	0.580200
C421	C42	0.045700	0.754400	0.600400
C431	C43	0.998100	0.817000	0.577800
H281	H28	0.970400	0.818600	0.543000
C441	C44	0.991700	0.877800	0.607100
C451	C45	0.045600	0.874400	0.658000
H291	H29	0.046400	0.914700	0.677400
C461	C46	0.098100	0.812900	0.680900
C471	C47	0.096200	0.753000	0.651100
H301	H30	0.129900	0.711200	0.665900
C481	C48	0.945700	0.945200	0.582900
C491	C49	0.842000	0.994500	0.610500
H311	H31	0.794600	0.983000	0.642500
C501	C50	0.810500	0.059400	0.590400
H321	H32	0.739300	0.091000	0.608400
C511	C51	0.980100	0.028800	0.516100
H331	H33	0.027400	0.040400	0.484100
C521	C52	0.007700	0.962900	0.534800
H341	H34	0.068500	0.930300	0.514900
C531	C53	0.885000	0.077600	0.543200
C541	C54	0.866100	0.149800	0.523900
Ba31	Ba3	0.627950	0.807610	0.989820
O151	O15	0.051300	0.371100	0.405700
O161	O16	0.170200	0.268000	0.418900
O171	O17	0.503800	0.673700	0.996800
O181	O18	0.776700	0.683800	0.032700
O191	O19	0.676000	0.834700	0.094200
H351	H35	0.627900	0.804200	0.123500
H361	H36	0.745700	0.876100	0.109400
O201	O20	0.573600	0.949300	0.003600
O211	O21	0.426500	0.999000	0.939300
C551	C55	0.146000	0.319200	0.391300
C561	C56	0.214300	0.318100	0.337500
C571	C57	0.298300	0.260900	0.318200
H371	H37	0.315600	0.222800	0.339300
C581	C58	0.359100	0.258300	0.267500
H381	H38	0.418800	0.219000	0.255600
C591	C59	0.331600	0.313700	0.234600
C601	C60	0.239800	0.372100	0.253800
H391	H39	0.221800	0.410100	0.232500
C611	C61	0.176400	0.374500	0.303200
H401	H40	0.109100	0.412300	0.314400
C621	C62	0.503500	0.000400	0.984800
C631	C63	0.489600	0.066900	0.013000
C641	C64	0.430100	0.128000	0.990000
H411	H41	0.393900	0.127600	0.955800
C651	C65	0.424400	0.188400	0.017000
H421	H42	0.389600	0.228900	0.000600
C661	C66	0.470800	0.190200	0.069900
C671	C67	0.527900	0.128600	0.092400
H431	H43	0.559200	0.128300	0.127000
C681	C68	0.539300	0.067800	0.064500
H441	H44	0.580100	0.027600	0.080200
C691	C69	0.454300	0.254400	0.100400
C701	C70	0.501900	0.317000	0.077800
H451	H45	0.529600	0.318600	0.043000
C711	C71	0.508300	0.377800	0.107100
C721	C72	0.454400	0.374400	0.158000
H461	H46	0.453600	0.414700	0.177400
C731	C73	0.401900	0.312900	0.180900
C741	C74	0.403800	0.253000	0.151100
H471	H47	0.370100	0.211200	0.165900
C751	C75	0.554300	0.445200	0.082900
C761	C76	0.658000	0.494500	0.110500
H481	H48	0.705400	0.483000	0.142500
C771	C77	0.689500	0.559400	0.090400
H491	H49	0.760700	0.591000	0.108400
C781	C78	0.519900	0.528800	0.016100
H501	H50	0.472600	0.540400	0.984100
C791	C79	0.492300	0.462900	0.034800
H511	H51	0.431500	0.430300	0.014900
C801	C80	0.615000	0.577600	0.043200
C811	C81	0.633900	0.649800	0.023900
Ba41	Ba4	0.372050	0.192390	0.489820
O221	O22	0.948700	0.628900	0.905700
O231	O23	0.829800	0.732000	0.918900
O241	O24	0.496200	0.326300	0.496800
O251	O25	0.223300	0.316200	0.532700
O261	O26	0.324000	0.165300	0.594200
H521	H52	0.372100	0.195800	0.623500
H531	H53	0.254300	0.123900	0.609400
O271	O27	0.426400	0.050700	0.503600
O281	O28	0.573500	0.001000	0.439300
C821	C82	0.854000	0.680800	0.891300
C831	C83	0.785700	0.681900	0.837500
C841	C84	0.701700	0.739100	0.818200
H541	H54	0.684400	0.777200	0.839300
C851	C85	0.640900	0.741700	0.767500
H551	H55	0.581200	0.781000	0.755600
C861	C86	0.668400	0.686300	0.734600
C871	C87	0.760200	0.627900	0.753800
H561	H56	0.778200	0.589900	0.732500
C881	C88	0.823600	0.625500	0.803200
H571	H57	0.890900	0.587700	0.814400
C891	C89	0.496500	0.999600	0.484800
C901	C90	0.510400	0.933100	0.513000
C911	C91	0.569900	0.872000	0.490000
H581	H58	0.606100	0.872400	0.455800
C921	C92	0.575600	0.811600	0.517000
H591	H59	0.610400	0.771100	0.500600
C931	C93	0.529200	0.809800	0.569900
C941	C94	0.472100	0.871400	0.592400
H601	H60	0.440800	0.871700	0.627000
C951	C95	0.460700	0.932200	0.564500
H611	H61	0.419900	0.972400	0.580200
C961	C96	0.545700	0.745600	0.600400
C971	C97	0.498100	0.683000	0.577800
H621	H62	0.470400	0.681400	0.543000
C981	C98	0.491700	0.622200	0.607100
C991	C99	0.545600	0.625600	0.658000
H631	H63	0.546400	0.585300	0.677400
C1001	C100	0.598100	0.687100	0.680900
C1011	C101	0.596200	0.747000	0.651100
H641	H64	0.629900	0.788800	0.665900
C1021	C102	0.445700	0.554800	0.582900
C1031	C103	0.342000	0.505500	0.610500
H651	H65	0.294600	0.517000	0.642500
C1041	C104	0.310500	0.440600	0.590400
H661	H66	0.239300	0.409000	0.608400
C1051	C105	0.480100	0.471200	0.516100
H671	H67	0.527400	0.459600	0.484100
C1061	C106	0.507700	0.537100	0.534800
H681	H68	0.568500	0.569700	0.514900
C1071	C107	0.385000	0.422400	0.543200
C1081	C108	0.366100	0.350200	0.523900
