data_KANDIO_freeONLY_PM
_symmetry_space_group_name_H-M	'P1'
_cell_length_a	10.885000
_cell_length_b	10.930000
_cell_length_c	18.518000
_cell_angle_alpha	87.420000
_cell_angle_beta	84.990000
_cell_angle_gamma	70.570000
_symmetry_Int_Tables_number 1

loop_
_symmetry_equiv_pos_as_xyz
'x,y,z'

loop_
_atom_site_label
_atom_site_type_symbol
_atom_site_fract_x
_atom_site_fract_y
_atom_site_fract_z
Zn11	Zn1	0.343320	0.241760	0.576920
Zn21	Zn2	0.318580	0.238090	0.739630
H11	H1	0.760100	0.210300	0.551700
H21	H2	0.959500	0.243500	0.557300
H31	H3	0.909200	0.249800	0.774600
H41	H4	0.711500	0.214100	0.769100
H51	H5	0.360600	0.633200	0.544900
H61	H6	0.366500	0.843500	0.546000
H71	H7	0.321500	0.839400	0.764900
H81	H8	0.309000	0.628800	0.763000
H91	H9	0.350100	0.069500	0.453800
H101	H10	0.338600	0.075400	0.331800
H111	H11	0.304400	0.454700	0.330600
H121	H12	0.316700	0.437600	0.453700
H131	H13	0.447900	0.087000	0.217800
H141	H14	0.442100	0.084600	0.094500
H151	H15	0.506000	0.161400	0.980900
H161	H16	0.501800	0.153000	0.856800
H171	H17	0.128900	0.346900	0.866000
H181	H18	0.121900	0.363600	0.989900
C11	C1	0.713800	0.212400	0.659900
C21	C2	0.789100	0.219000	0.596300
C31	C3	0.909000	0.238800	0.599800
C41	C4	0.953200	0.251400	0.665800
C51	C5	0.879400	0.242300	0.730000
C61	C6	0.760500	0.221700	0.726500
C71	C7	0.580300	0.198700	0.657000
C81	C8	0.084600	0.270800	0.669100
C91	C9	0.332000	0.612500	0.654300
C101	C10	0.351200	0.675300	0.588700
C111	C11	0.355800	0.800900	0.589400
C121	C12	0.344700	0.863400	0.655000
C131	C13	0.327900	0.798800	0.721000
C141	C14	0.321000	0.671900	0.719900
C151	C15	0.320900	0.477400	0.653600
C161	C16	0.349200	0.000500	0.655600
C171	C17	0.340700	0.147500	0.428800
C181	C18	0.334700	0.150200	0.355300
C191	C19	0.322600	0.264800	0.315100
C201	C20	0.314300	0.375600	0.354400
C211	C21	0.321000	0.364500	0.428400
C221	C22	0.320100	0.267300	0.234900
C231	C23	0.394600	0.159800	0.194300
C241	C24	0.391400	0.158400	0.119600
C251	C25	0.314100	0.265300	0.081000
C261	C26	0.240400	0.372900	0.121600
C271	C27	0.244900	0.375900	0.196100
C281	C28	0.311000	0.259900	0.001100
C291	C29	0.427900	0.198300	0.959100
C301	C30	0.424100	0.193700	0.884200
C311	C31	0.204900	0.308000	0.889400
C321	C32	0.200000	0.317900	0.964400
N11	N1	0.333800	0.251700	0.466900
N21	N2	0.314900	0.244500	0.849500
O11	O1	0.539500	0.197500	0.595700
O21	O2	0.517200	0.194800	0.717700
O31	O3	0.123600	0.274000	0.731300
O41	O4	0.145400	0.281600	0.609200
O51	O5	0.330900	0.427500	0.592200
O61	O6	0.304800	0.424700	0.713500
O71	O7	0.342200	0.050100	0.716200
O81	O8	0.358800	0.052700	0.594200
F11	F1	0.167400	0.484600	0.230900
F21	F2	0.164300	0.483800	0.088900
Zn31	Zn3	0.656680	0.758240	0.423080
Zn41	Zn4	0.681420	0.761910	0.260370
H191	H19	0.239900	0.789700	0.448300
H201	H20	0.040500	0.756500	0.442700
H211	H21	0.090800	0.750200	0.225400
H221	H22	0.288500	0.785900	0.230900
H231	H23	0.639400	0.366800	0.455100
H241	H24	0.633500	0.156500	0.454000
H251	H25	0.678500	0.160600	0.235100
H261	H26	0.691000	0.371200	0.237000
H271	H27	0.649900	0.930500	0.546200
H281	H28	0.661400	0.924600	0.668200
H291	H29	0.695600	0.545300	0.669400
H301	H30	0.683300	0.562400	0.546300
H311	H31	0.552100	0.913000	0.782200
H321	H32	0.557900	0.915400	0.905500
H331	H33	0.494000	0.838600	0.019100
H341	H34	0.498200	0.847000	0.143200
H351	H35	0.871100	0.653100	0.134000
H361	H36	0.878100	0.636400	0.010100
C331	C33	0.286200	0.787600	0.340100
C341	C34	0.210900	0.781000	0.403700
C351	C35	0.091000	0.761200	0.400200
C361	C36	0.046800	0.748600	0.334200
C371	C37	0.120600	0.757700	0.270000
C381	C38	0.239500	0.778300	0.273500
C391	C39	0.419700	0.801300	0.343000
C401	C40	0.915400	0.729200	0.330900
C411	C41	0.668000	0.387500	0.345700
C421	C42	0.648800	0.324700	0.411300
C431	C43	0.644200	0.199100	0.410600
C441	C44	0.655300	0.136600	0.345000
C451	C45	0.672100	0.201200	0.279000
C461	C46	0.679000	0.328100	0.280100
C471	C47	0.679100	0.522600	0.346400
C481	C48	0.650800	0.999500	0.344400
C491	C49	0.659300	0.852500	0.571200
C501	C50	0.665300	0.849800	0.644700
C511	C51	0.677400	0.735200	0.684900
C521	C52	0.685700	0.624400	0.645600
C531	C53	0.679000	0.635500	0.571600
C541	C54	0.679900	0.732700	0.765100
C551	C55	0.605400	0.840200	0.805700
C561	C56	0.608600	0.841600	0.880400
C571	C57	0.685900	0.734700	0.919000
C581	C58	0.759600	0.627100	0.878400
C591	C59	0.755100	0.624100	0.803900
C601	C60	0.689000	0.740100	0.998900
C611	C61	0.572100	0.801700	0.040900
C621	C62	0.575900	0.806300	0.115800
C631	C63	0.795100	0.692000	0.110600
C641	C64	0.800000	0.682100	0.035600
N31	N3	0.666200	0.748300	0.533100
N41	N4	0.685100	0.755500	0.150500
O91	O9	0.460500	0.802500	0.404300
O101	O10	0.482800	0.805200	0.282300
O111	O11	0.876400	0.726000	0.268700
O121	O12	0.854600	0.718400	0.390800
O131	O13	0.669100	0.572500	0.407800
O141	O14	0.695200	0.575300	0.286500
O151	O15	0.657800	0.949900	0.283800
O161	O16	0.641200	0.947300	0.405800
F31	F3	0.832600	0.515400	0.769100
F41	F4	0.835700	0.516200	0.911100
