data_KARLUM_freeONLY_PM
_symmetry_space_group_name_H-M	'P1'
_cell_length_a	24.666100
_cell_length_b	24.666100
_cell_length_c	24.666100
_cell_angle_alpha	109.471000
_cell_angle_beta	109.471000
_cell_angle_gamma	109.471000
_symmetry_Int_Tables_number 1

loop_
_symmetry_equiv_pos_as_xyz
'x,y,z'

loop_
_atom_site_label
_atom_site_type_symbol
_atom_site_fract_x
_atom_site_fract_y
_atom_site_fract_z
Ni11	Ni1	0.406820	0.080100	0.089570
Ni21	Ni2	0.990530	0.317250	0.910430
Ni31	Ni3	0.009470	0.919900	0.326720
Ni41	Ni4	0.593180	0.682750	0.673280
Ni51	Ni5	0.326720	0.009470	0.919900
Ni61	Ni6	0.673280	0.593180	0.682750
Ni71	Ni7	0.089570	0.406820	0.080100
Ni81	Ni8	0.910430	0.990530	0.317250
Ni91	Ni9	0.317250	0.910430	0.990530
Ni101	Ni10	0.080100	0.089570	0.406820
Ni111	Ni11	0.682750	0.673280	0.593180
Ni121	Ni12	0.919900	0.326720	0.009470
H11	H1	0.854400	0.081100	0.340700
H21	H2	0.754700	0.080600	0.299100
H31	H3	0.662100	0.883100	0.180200
H41	H4	0.761000	0.886700	0.223700
H51	H5	0.659500	0.066300	0.279800
H61	H6	0.563500	0.071200	0.227300
H71	H7	0.489500	0.894800	0.066900
H81	H8	0.586400	0.891400	0.119600
H91	H9	0.313100	0.080100	0.209000
H101	H10	0.287100	0.131000	0.293900
H111	H11	0.224800	0.879900	0.102100
H121	H12	0.740400	0.513700	0.659300
H131	H13	0.781500	0.455600	0.700900
H141	H14	0.702900	0.481900	0.819800
H151	H15	0.663000	0.537300	0.776300
H161	H16	0.786500	0.379700	0.720200
H171	H17	0.843900	0.336200	0.772700
H181	H18	0.827900	0.422600	0.933100
H191	H19	0.771800	0.466800	0.880400
H201	H20	0.871100	0.104100	0.791000
H211	H21	0.837100	0.993200	0.706100
H221	H22	0.777800	0.122700	0.897900
H231	H23	0.259600	0.918900	0.773300
H241	H24	0.218500	0.919400	0.674100
H251	H25	0.297100	0.116900	0.779000
H261	H26	0.337000	0.113300	0.874300
H271	H27	0.213500	0.933700	0.593200
H281	H28	0.156100	0.928800	0.492300
H291	H29	0.172100	0.105200	0.594700
H301	H30	0.228200	0.108600	0.695000
H311	H31	0.128900	0.919900	0.233000
H321	H32	0.162900	0.869000	0.156100
H331	H33	0.222200	0.120100	0.344900
H341	H34	0.145600	0.486300	0.226700
H351	H35	0.245300	0.544400	0.325900
H361	H36	0.337900	0.518100	0.221000
H371	H37	0.239000	0.462700	0.125700
H381	H38	0.340500	0.620300	0.406800
H391	H39	0.436500	0.663800	0.507700
H401	H40	0.510500	0.577400	0.405300
H411	H41	0.413600	0.533200	0.305000
H421	H42	0.686900	0.895900	0.767000
H431	H43	0.712900	0.006800	0.843900
H441	H44	0.775200	0.877300	0.655100
H451	H45	0.773300	0.259600	0.918900
H461	H46	0.674100	0.218500	0.919400
H471	H47	0.779000	0.297100	0.116900
H481	H48	0.874300	0.337000	0.113300
H491	H49	0.593200	0.213500	0.933700
H501	H50	0.492300	0.156100	0.928800
H511	H51	0.594700	0.172100	0.105200
H521	H52	0.695000	0.228200	0.108600
H531	H53	0.233000	0.128900	0.919900
H541	H54	0.156100	0.162900	0.869000
H551	H55	0.344900	0.222200	0.120100
H561	H56	0.226700	0.145600	0.486300
H571	H57	0.325900	0.245300	0.544400
H581	H58	0.221000	0.337900	0.518100
H591	H59	0.125700	0.239000	0.462700
H601	H60	0.406800	0.340500	0.620300
H611	H61	0.507700	0.436500	0.663800
H621	H62	0.405300	0.510500	0.577400
H631	H63	0.305000	0.413600	0.533200
H641	H64	0.767000	0.686900	0.895900
H651	H65	0.843900	0.712900	0.006800
H661	H66	0.655100	0.775200	0.877300
H671	H67	0.340700	0.854400	0.081100
H681	H68	0.299100	0.754700	0.080600
H691	H69	0.180200	0.662100	0.883100
H701	H70	0.223700	0.761000	0.886700
H711	H71	0.279800	0.659500	0.066300
H721	H72	0.227300	0.563500	0.071200
H731	H73	0.066900	0.489500	0.894800
H741	H74	0.119600	0.586400	0.891400
H751	H75	0.209000	0.313100	0.080100
H761	H76	0.293900	0.287100	0.131000
H771	H77	0.102100	0.224800	0.879900
H781	H78	0.659300	0.740400	0.513700
H791	H79	0.700900	0.781500	0.455600
H801	H80	0.819800	0.702900	0.481900
H811	H81	0.776300	0.663000	0.537300
H821	H82	0.720200	0.786500	0.379700
H831	H83	0.772700	0.843900	0.336200
H841	H84	0.933100	0.827900	0.422600
H851	H85	0.880400	0.771800	0.466800
H861	H86	0.791000	0.871100	0.104100
H871	H87	0.706100	0.837100	0.993200
H881	H88	0.897900	0.777800	0.122700
H891	H89	0.513700	0.659300	0.740400
H901	H90	0.455600	0.700900	0.781500
H911	H91	0.481900	0.819800	0.702900
H921	H92	0.537300	0.776300	0.663000
H931	H93	0.379700	0.720200	0.786500
H941	H94	0.336200	0.772700	0.843900
H951	H95	0.422600	0.933100	0.827900
H961	H96	0.466800	0.880400	0.771800
H971	H97	0.104100	0.791000	0.871100
H981	H98	0.993200	0.706100	0.837100
H991	H99	0.122700	0.897900	0.777800
H1001	H100	0.081100	0.340700	0.854400
H1011	H101	0.080600	0.299100	0.754700
H1021	H102	0.883100	0.180200	0.662100
H1031	H103	0.886700	0.223700	0.761000
H1041	H104	0.066300	0.279800	0.659500
H1051	H105	0.071200	0.227300	0.563500
H1061	H106	0.894800	0.066900	0.489500
H1071	H107	0.891400	0.119600	0.586400
H1081	H108	0.080100	0.209000	0.313100
H1091	H109	0.131000	0.293900	0.287100
H1101	H110	0.879900	0.102100	0.224800
H1111	H111	0.486300	0.226700	0.145600
H1121	H112	0.544400	0.325900	0.245300
H1131	H113	0.518100	0.221000	0.337900
H1141	H114	0.462700	0.125700	0.239000
H1151	H115	0.620300	0.406800	0.340500
H1161	H116	0.663800	0.507700	0.436500
H1171	H117	0.577400	0.405300	0.510500
H1181	H118	0.533200	0.305000	0.413600
H1191	H119	0.895900	0.767000	0.686900
H1201	H120	0.006800	0.843900	0.712900
H1211	H121	0.877300	0.655100	0.775200
H1221	H122	0.918900	0.773300	0.259600
H1231	H123	0.919400	0.674100	0.218500
H1241	H124	0.116900	0.779000	0.297100
H1251	H125	0.113300	0.874300	0.337000
H1261	H126	0.933700	0.593200	0.213500
H1271	H127	0.928800	0.492300	0.156100
H1281	H128	0.105200	0.594700	0.172100
H1291	H129	0.108600	0.695000	0.228200
H1301	H130	0.919900	0.233000	0.128900
H1311	H131	0.869000	0.156100	0.162900
H1321	H132	0.120100	0.344900	0.222200
C11	C1	0.814760	0.040400	0.307120
C21	C2	0.755630	0.040370	0.282940
C31	C3	0.696960	0.980360	0.234240
C41	C4	0.701200	0.924610	0.213290
C51	C5	0.760280	0.927180	0.238780
C61	C6	0.632420	0.979850	0.205230
C71	C7	0.625170	0.031420	0.236190
C81	C8	0.567650	0.034490	0.204940
C91	C9	0.517490	0.983880	0.142010
C101	C10	0.524180	0.930160	0.110140
C111	C11	0.581780	0.927910	0.141490
C121	C12	0.457190	0.987010	0.104960
C131	C13	0.307790	0.989210	0.109100
C141	C14	0.272860	0.981840	0.148560
C151	C15	0.281740	0.037370	0.197490
C161	C16	0.245080	0.031900	0.230840
C171	C17	0.254310	0.088160	0.280630
C181	C18	0.229200	0.918320	0.133920
C191	C19	0.733280	0.507640	0.692880
C201	C20	0.757430	0.472690	0.717060
C211	C21	0.746120	0.462720	0.765760
C221	C22	0.711320	0.487910	0.786710
C231	C23	0.688400	0.521500	0.761220
C241	C24	0.774620	0.427190	0.794770
C251	C25	0.795230	0.388980	0.763810
C261	C26	0.829550	0.362710	0.795060
C271	C27	0.841870	0.375480	0.857990
C281	C28	0.820020	0.414040	0.889860
C291	C29	0.786420	0.440290	0.858510
C301	C30	0.882050	0.352230	0.895040
C311	C31	0.880110	0.198690	0.890900
C321	C32	0.833280	0.124300	0.851440
C331	C33	0.839880	0.084250	0.802510
C341	C34	0.801060	0.014240	0.769160
C351	C35	0.807530	0.973680	0.719370
C361	C36	0.784400	0.095280	0.866080
C371	C37	0.266720	0.959600	0.774360
C381	C38	0.242570	0.959630	0.715260
C391	C39	0.253880	0.019640	0.716600
C401	C40	0.288680	0.075390	0.776590
C411	C41	0.311600	0.072820	0.833100
C421	C42	0.225380	0.020150	0.652570
C431	C43	0.204770	0.968580	0.593750
C441	C44	0.170450	0.965510	0.533160
C451	C45	0.158130	0.016120	0.533610
C461	C46	0.179980	0.069840	0.594020
C471	C47	0.213580	0.072090	0.653870
C481	C48	0.117950	0.012990	0.470180
C491	C49	0.119890	0.010790	0.318580
C501	C50	0.166720	0.018160	0.291020
C511	C51	0.160120	0.962630	0.244370
C521	C52	0.198940	0.968100	0.213180
C531	C53	0.192470	0.911840	0.166150
C541	C54	0.215600	0.081680	0.310880
C551	C55	0.185240	0.492360	0.225640
C561	C56	0.244370	0.527310	0.284740
C571	C57	0.303040	0.537280	0.283400
C581	C58	0.298800	0.512090	0.223410
C591	C59	0.239720	0.478500	0.166900
C601	C60	0.367580	0.572810	0.347430
C611	C61	0.374830	0.611020	0.406250
C621	C62	0.432350	0.637290	0.466840
C631	C63	0.482510	0.624520	0.466390
C641	C64	0.475820	0.585960	0.405980
C651	C65	0.418220	0.559710	0.346130
C661	C66	0.542810	0.647770	0.529820
C671	C67	0.692210	0.801310	0.681420
C681	C68	0.727140	0.875700	0.708980
C691	C69	0.718260	0.915750	0.755630
C701	C70	0.754920	0.985760	0.786820
C711	C71	0.745690	0.026320	0.833850
C721	C72	0.770800	0.904720	0.689120
C731	C73	0.774360	0.266720	0.959600
C741	C74	0.715260	0.242570	0.959630
C751	C75	0.716600	0.253880	0.019640
C761	C76	0.776590	0.288680	0.075390
C771	C77	0.833100	0.311600	0.072820
C781	C78	0.652570	0.225380	0.020150
C791	C79	0.593750	0.204770	0.968580
C801	C80	0.533160	0.170450	0.965510
C811	C81	0.533610	0.158130	0.016120
C821	C82	0.594020	0.179980	0.069840
C831	C83	0.653870	0.213580	0.072090
C841	C84	0.470180	0.117950	0.012990
C851	C85	0.318580	0.119890	0.010790
C861	C86	0.291020	0.166720	0.018160
C871	C87	0.244370	0.160120	0.962630
C881	C88	0.213180	0.198940	0.968100
C891	C89	0.166150	0.192470	0.911840
C901	C90	0.310880	0.215600	0.081680
C911	C91	0.225640	0.185240	0.492360
C921	C92	0.284740	0.244370	0.527310
C931	C93	0.283400	0.303040	0.537280
C941	C94	0.223410	0.298800	0.512090
C951	C95	0.166900	0.239720	0.478500
C961	C96	0.347430	0.367580	0.572810
C971	C97	0.406250	0.374830	0.611020
C981	C98	0.466840	0.432350	0.637290
C991	C99	0.466390	0.482510	0.624520
C1001	C100	0.405980	0.475820	0.585960
C1011	C101	0.346130	0.418220	0.559710
C1021	C102	0.529820	0.542810	0.647770
C1031	C103	0.681420	0.692210	0.801310
C1041	C104	0.708980	0.727140	0.875700
C1051	C105	0.755630	0.718260	0.915750
C1061	C106	0.786820	0.754920	0.985760
C1071	C107	0.833850	0.745690	0.026320
C1081	C108	0.689120	0.770800	0.904720
C1091	C109	0.307120	0.814760	0.040400
C1101	C110	0.282940	0.755630	0.040370
C1111	C111	0.234240	0.696960	0.980360
C1121	C112	0.213290	0.701200	0.924610
C1131	C113	0.238780	0.760280	0.927180
C1141	C114	0.205230	0.632420	0.979850
C1151	C115	0.236190	0.625170	0.031420
C1161	C116	0.204940	0.567650	0.034490
C1171	C117	0.142010	0.517490	0.983880
C1181	C118	0.110140	0.524180	0.930160
C1191	C119	0.141490	0.581780	0.927910
C1201	C120	0.104960	0.457190	0.987010
C1211	C121	0.109100	0.307790	0.989210
C1221	C122	0.148560	0.272860	0.981840
C1231	C123	0.197490	0.281740	0.037370
C1241	C124	0.230840	0.245080	0.031900
C1251	C125	0.280630	0.254310	0.088160
C1261	C126	0.133920	0.229200	0.918320
C1271	C127	0.692880	0.733280	0.507640
C1281	C128	0.717060	0.757430	0.472690
C1291	C129	0.765760	0.746120	0.462720
C1301	C130	0.786710	0.711320	0.487910
C1311	C131	0.761220	0.688400	0.521500
C1321	C132	0.794770	0.774620	0.427190
C1331	C133	0.763810	0.795230	0.388980
C1341	C134	0.795060	0.829550	0.362710
C1351	C135	0.857990	0.841870	0.375480
C1361	C136	0.889860	0.820020	0.414040
C1371	C137	0.858510	0.786420	0.440290
C1381	C138	0.895040	0.882050	0.352230
C1391	C139	0.890900	0.880110	0.198690
C1401	C140	0.851440	0.833280	0.124300
C1411	C141	0.802510	0.839880	0.084250
C1421	C142	0.769160	0.801060	0.014240
C1431	C143	0.719370	0.807530	0.973680
C1441	C144	0.866080	0.784400	0.095280
C1451	C145	0.507640	0.692880	0.733280
C1461	C146	0.472690	0.717060	0.757430
C1471	C147	0.462720	0.765760	0.746120
C1481	C148	0.487910	0.786710	0.711320
C1491	C149	0.521500	0.761220	0.688400
C1501	C150	0.427190	0.794770	0.774620
C1511	C151	0.388980	0.763810	0.795230
C1521	C152	0.362710	0.795060	0.829550
C1531	C153	0.375480	0.857990	0.841870
C1541	C154	0.414040	0.889860	0.820020
C1551	C155	0.440290	0.858510	0.786420
C1561	C156	0.352230	0.895040	0.882050
C1571	C157	0.198690	0.890900	0.880110
C1581	C158	0.124300	0.851440	0.833280
C1591	C159	0.084250	0.802510	0.839880
C1601	C160	0.014240	0.769160	0.801060
C1611	C161	0.973680	0.719370	0.807530
C1621	C162	0.095280	0.866080	0.784400
C1631	C163	0.040400	0.307120	0.814760
C1641	C164	0.040370	0.282940	0.755630
C1651	C165	0.980360	0.234240	0.696960
C1661	C166	0.924610	0.213290	0.701200
C1671	C167	0.927180	0.238780	0.760280
C1681	C168	0.979850	0.205230	0.632420
C1691	C169	0.031420	0.236190	0.625170
C1701	C170	0.034490	0.204940	0.567650
C1711	C171	0.983880	0.142010	0.517490
C1721	C172	0.930160	0.110140	0.524180
C1731	C173	0.927910	0.141490	0.581780
C1741	C174	0.987010	0.104960	0.457190
C1751	C175	0.989210	0.109100	0.307790
C1761	C176	0.981840	0.148560	0.272860
C1771	C177	0.037370	0.197490	0.281740
C1781	C178	0.031900	0.230840	0.245080
C1791	C179	0.088160	0.280630	0.254310
C1801	C180	0.918320	0.133920	0.229200
C1811	C181	0.492360	0.225640	0.185240
C1821	C182	0.527310	0.284740	0.244370
C1831	C183	0.537280	0.283400	0.303040
C1841	C184	0.512090	0.223410	0.298800
C1851	C185	0.478500	0.166900	0.239720
C1861	C186	0.572810	0.347430	0.367580
C1871	C187	0.611020	0.406250	0.374830
C1881	C188	0.637290	0.466840	0.432350
C1891	C189	0.624520	0.466390	0.482510
C1901	C190	0.585960	0.405980	0.475820
C1911	C191	0.559710	0.346130	0.418220
C1921	C192	0.647770	0.529820	0.542810
C1931	C193	0.801310	0.681420	0.692210
C1941	C194	0.875700	0.708980	0.727140
C1951	C195	0.915750	0.755630	0.718260
C1961	C196	0.985760	0.786820	0.754920
C1971	C197	0.026320	0.833850	0.745690
C1981	C198	0.904720	0.689120	0.770800
C1991	C199	0.959600	0.774360	0.266720
C2001	C200	0.959630	0.715260	0.242570
C2011	C201	0.019640	0.716600	0.253880
C2021	C202	0.075390	0.776590	0.288680
C2031	C203	0.072820	0.833100	0.311600
C2041	C204	0.020150	0.652570	0.225380
C2051	C205	0.968580	0.593750	0.204770
C2061	C206	0.965510	0.533160	0.170450
C2071	C207	0.016120	0.533610	0.158130
C2081	C208	0.069840	0.594020	0.179980
C2091	C209	0.072090	0.653870	0.213580
C2101	C210	0.012990	0.470180	0.117950
C2111	C211	0.010790	0.318580	0.119890
C2121	C212	0.018160	0.291020	0.166720
C2131	C213	0.962630	0.244370	0.160120
C2141	C214	0.968100	0.213180	0.198940
C2151	C215	0.911840	0.166150	0.192470
C2161	C216	0.081680	0.310880	0.215600
N11	N1	0.817830	0.983600	0.284130
N21	N2	0.699470	0.533700	0.715870
N31	N3	0.300530	0.016400	0.834230
N41	N4	0.182170	0.466300	0.165770
N51	N5	0.834230	0.300530	0.016400
N61	N6	0.165770	0.182170	0.466300
N71	N7	0.284130	0.817830	0.983600
N81	N8	0.715870	0.699470	0.533700
N91	N9	0.533700	0.715870	0.699470
N101	N10	0.983600	0.284130	0.817830
N111	N11	0.466300	0.165770	0.182170
N121	N12	0.016400	0.834230	0.300530
O11	O1	0.459590	0.040210	0.128960
O21	O2	0.411080	0.934780	0.052460
O31	O3	0.341920	0.046190	0.121370
O41	O4	0.296840	0.936790	0.067050
O51	O5	0.911250	0.330630	0.871040
O61	O6	0.882320	0.358620	0.947540
O71	O7	0.924820	0.220550	0.878630
O81	O8	0.869740	0.229790	0.932950
O91	O9	0.088750	0.959790	0.419380
O101	O10	0.117680	0.065220	0.476300
O111	O11	0.075180	0.953810	0.295730
O121	O12	0.130260	0.063210	0.360050
O131	O13	0.540410	0.669370	0.580620
O141	O14	0.588920	0.641380	0.523700
O151	O15	0.658080	0.779450	0.704270
O161	O16	0.703160	0.770210	0.639950
O171	O17	0.419380	0.088750	0.959790
O181	O18	0.476300	0.117680	0.065220
O191	O19	0.295730	0.075180	0.953810
O201	O20	0.360050	0.130260	0.063210
O211	O21	0.580620	0.540410	0.669370
O221	O22	0.523700	0.588920	0.641380
O231	O23	0.704270	0.658080	0.779450
O241	O24	0.639950	0.703160	0.770210
O251	O25	0.128960	0.459590	0.040210
O261	O26	0.052460	0.411080	0.934780
O271	O27	0.121370	0.341920	0.046190
O281	O28	0.067050	0.296840	0.936790
O291	O29	0.871040	0.911250	0.330630
O301	O30	0.947540	0.882320	0.358620
O311	O31	0.878630	0.924820	0.220550
O321	O32	0.932950	0.869740	0.229790
O331	O33	0.330630	0.871040	0.911250
O341	O34	0.358620	0.947540	0.882320
O351	O35	0.220550	0.878630	0.924820
O361	O36	0.229790	0.932950	0.869740
O371	O37	0.040210	0.128960	0.459590
O381	O38	0.934780	0.052460	0.411080
O391	O39	0.046190	0.121370	0.341920
O401	O40	0.936790	0.067050	0.296840
O411	O41	0.669370	0.580620	0.540410
O421	O42	0.641380	0.523700	0.588920
O431	O43	0.779450	0.704270	0.658080
O441	O44	0.770210	0.639950	0.703160
O451	O45	0.959790	0.419380	0.088750
O461	O46	0.065220	0.476300	0.117680
O471	O47	0.953810	0.295730	0.075180
O481	O48	0.063210	0.360050	0.130260
O491	O49	0.348780	0.000000	0.000000
O501	O50	0.000000	0.348780	0.000000
O511	O51	0.000000	0.000000	0.348780
O521	O52	0.651220	0.651220	0.651220
