data_KAVTUY_freeONLY_PM
_symmetry_space_group_name_H-M	'P1'
_cell_length_a	4.821800
_cell_length_b	18.295000
_cell_length_c	19.891100
_cell_angle_alpha	90.000000
_cell_angle_beta	90.000000
_cell_angle_gamma	95.077000
_symmetry_Int_Tables_number 1

loop_
_symmetry_equiv_pos_as_xyz
'x,y,z'

loop_
_atom_site_label
_atom_site_type_symbol
_atom_site_fract_x
_atom_site_fract_y
_atom_site_fract_z
Cu11	Cu1	0.977980	0.797600	0.296440
Cu21	Cu2	0.420340	0.748740	0.157410
Cu31	Cu3	0.892700	0.703500	0.030000
Cu41	Cu4	0.522020	0.702400	0.796440
Cu51	Cu5	0.079660	0.751260	0.657410
Cu61	Cu6	0.607300	0.796500	0.530000
Cu71	Cu7	0.022020	0.202400	0.703560
Cu81	Cu8	0.579660	0.251260	0.842590
Cu91	Cu9	0.107300	0.296500	0.970000
Cu101	Cu10	0.477980	0.297600	0.203560
Cu111	Cu11	0.920340	0.248740	0.342590
Cu121	Cu12	0.392700	0.203500	0.470000
P11	P1	0.922900	0.651530	0.174600
P21	P2	0.072400	0.731600	0.442780
P31	P3	0.423900	0.346790	0.352780
P41	P4	0.577100	0.848470	0.674600
P51	P5	0.427600	0.768400	0.942780
P61	P6	0.076100	0.153210	0.852780
P71	P7	0.077100	0.348470	0.825400
P81	P8	0.927600	0.268400	0.557220
P91	P9	0.576100	0.653210	0.647220
P101	P10	0.422900	0.151530	0.325400
P111	P11	0.572400	0.231600	0.057220
P121	P12	0.923900	0.846790	0.147220
H11	H1	0.619500	0.694800	0.281000
H21	H2	0.489400	0.732900	0.329300
H31	H3	0.365300	0.898700	0.258100
H41	H4	0.403500	0.879100	0.323800
H51	H5	0.196300	0.625000	0.317900
H61	H6	0.703400	0.529700	0.459600
H71	H7	0.558500	0.481000	0.267100
H81	H8	0.865300	0.526000	0.181900
H91	H9	0.169300	0.554300	0.202600
H101	H10	0.321300	0.630000	0.445600
H111	H11	0.064500	0.618600	0.493800
H121	H12	0.197000	0.449900	0.372100
H131	H13	0.369900	0.431600	0.435700
H141	H14	0.880500	0.805200	0.781000
H151	H15	0.010600	0.767100	0.829300
H161	H16	0.134700	0.601300	0.758100
H171	H17	0.096500	0.620900	0.823800
H181	H18	0.303700	0.875000	0.817900
H191	H19	0.796600	0.970300	0.959600
H201	H20	0.941500	0.019000	0.767100
H211	H21	0.634700	0.974000	0.681900
H221	H22	0.330700	0.945700	0.702600
H231	H23	0.178700	0.870000	0.945600
H241	H24	0.435500	0.881400	0.993800
H251	H25	0.303000	0.050100	0.872100
H261	H26	0.130100	0.068400	0.935700
H271	H27	0.380500	0.305200	0.719000
H281	H28	0.510600	0.267100	0.670700
H291	H29	0.634700	0.101300	0.741900
H301	H30	0.596500	0.120900	0.676200
H311	H31	0.803700	0.375000	0.682100
H321	H32	0.296600	0.470300	0.540400
H331	H33	0.441500	0.519000	0.732900
H341	H34	0.134700	0.474000	0.818100
H351	H35	0.830700	0.445700	0.797400
H361	H36	0.678700	0.370000	0.554400
H371	H37	0.935500	0.381400	0.506200
H381	H38	0.803000	0.550100	0.627900
H391	H39	0.630100	0.568400	0.564300
H401	H40	0.119500	0.194800	0.219000
H411	H41	0.989400	0.232900	0.170700
H421	H42	0.865300	0.398700	0.241900
H431	H43	0.903500	0.379100	0.176200
H441	H44	0.696300	0.125000	0.182100
H451	H45	0.203400	0.029700	0.040400
H461	H46	0.058500	0.981000	0.232900
H471	H47	0.365300	0.026000	0.318100
H481	H48	0.669300	0.054300	0.297400
H491	H49	0.821300	0.130000	0.054400
H501	H50	0.564500	0.118600	0.006200
H511	H51	0.697000	0.949900	0.127900
H521	H52	0.869900	0.931600	0.064300
C11	C1	0.896600	0.553800	0.281200
C21	C2	0.043200	0.593300	0.330200
C31	C3	0.970100	0.587500	0.397400
C41	C4	0.750700	0.536000	0.414500
C51	C5	0.601700	0.494200	0.367100
C61	C6	0.667300	0.505600	0.300100
C71	C7	0.974900	0.563000	0.207900
C81	C8	0.123800	0.635600	0.449500
C91	C9	0.375500	0.435200	0.387000
C101	C10	0.603400	0.946200	0.781200
C111	C11	0.456800	0.906700	0.830200
C121	C12	0.529900	0.912500	0.897400
C131	C13	0.749300	0.964000	0.914500
C141	C14	0.898300	0.005800	0.867100
C151	C15	0.832700	0.994400	0.800100
C161	C16	0.525100	0.937000	0.707900
C171	C17	0.376200	0.864400	0.949500
C181	C18	0.124500	0.064800	0.887000
C191	C19	0.103400	0.446200	0.718800
C201	C20	0.956800	0.406700	0.669800
C211	C21	0.029900	0.412500	0.602600
C221	C22	0.249300	0.464000	0.585500
C231	C23	0.398300	0.505800	0.632900
C241	C24	0.332700	0.494400	0.699900
C251	C25	0.025100	0.437000	0.792100
C261	C26	0.876200	0.364400	0.550500
C271	C27	0.624500	0.564800	0.613000
C281	C28	0.396600	0.053800	0.218800
C291	C29	0.543200	0.093300	0.169800
C301	C30	0.470100	0.087500	0.102600
C311	C31	0.250700	0.036000	0.085500
C321	C32	0.101700	0.994200	0.132900
C331	C33	0.167300	0.005600	0.199900
C341	C34	0.474900	0.063000	0.292100
C351	C35	0.623800	0.135600	0.050500
C361	C36	0.875500	0.935200	0.113000
O11	O1	0.109900	0.709200	0.213280
O21	O2	0.616100	0.663300	0.183260
O31	O3	0.012700	0.652400	0.101300
O41	O4	0.164400	0.757000	0.372530
O51	O5	0.766200	0.743300	0.454120
O61	O6	0.246800	0.772400	0.497100
O71	O7	0.312500	0.343660	0.280940
O81	O8	0.239300	0.289330	0.395030
O91	O9	0.730900	0.334850	0.359780
O101	O10	0.644400	0.728860	0.309960
O111	O11	0.304500	0.869580	0.289030
O121	O12	0.560400	0.628600	0.035900
O131	O13	0.390100	0.790800	0.713280
O141	O14	0.883900	0.836700	0.683260
O151	O15	0.487300	0.847600	0.601300
O161	O16	0.335600	0.743000	0.872530
O171	O17	0.733800	0.756700	0.954120
O181	O18	0.253200	0.727600	0.997100
O191	O19	0.187500	0.156340	0.780940
O201	O20	0.260700	0.210670	0.895030
O211	O21	0.769100	0.165150	0.859780
O221	O22	0.855600	0.771140	0.809960
O231	O23	0.195500	0.630420	0.789030
O241	O24	0.939600	0.871400	0.535900
O251	O25	0.890100	0.290800	0.786720
O261	O26	0.383900	0.336700	0.816740
O271	O27	0.987300	0.347600	0.898700
O281	O28	0.835600	0.243000	0.627470
O291	O29	0.233800	0.256700	0.545880
O301	O30	0.753200	0.227600	0.502900
O311	O31	0.687500	0.656340	0.719060
O321	O32	0.760700	0.710670	0.604970
O331	O33	0.269100	0.665150	0.640220
O341	O34	0.355600	0.271140	0.690040
O351	O35	0.695500	0.130420	0.710970
O361	O36	0.439600	0.371400	0.964100
O371	O37	0.609900	0.209200	0.286720
O381	O38	0.116100	0.163300	0.316740
O391	O39	0.512700	0.152400	0.398700
O401	O40	0.664400	0.257000	0.127470
O411	O41	0.266200	0.243300	0.045880
O421	O42	0.746800	0.272400	0.002900
O431	O43	0.812500	0.843660	0.219060
O441	O44	0.739300	0.789330	0.104970
O451	O45	0.230900	0.834850	0.140220
O461	O46	0.144400	0.228860	0.190040
O471	O47	0.804500	0.369580	0.210970
O481	O48	0.060400	0.128600	0.464100
