data_KAVTEI_freeONLY_PM
_symmetry_space_group_name_H-M	'P1'
_cell_length_a	32.207000
_cell_length_b	13.378000
_cell_length_c	15.871000
_cell_angle_alpha	90.000000
_cell_angle_beta	91.050000
_cell_angle_gamma	90.000000
_symmetry_Int_Tables_number 1

loop_
_symmetry_equiv_pos_as_xyz
'x,y,z'

loop_
_atom_site_label
_atom_site_type_symbol
_atom_site_fract_x
_atom_site_fract_y
_atom_site_fract_z
Cd11	Cd1	0.606010	0.695080	0.235570
O11	O1	0.558870	0.770500	0.342300
O21	O2	0.626260	0.801500	0.346700
O31	O3	0.531080	0.116500	0.667200
O41	O4	0.596810	0.168000	0.654100
O51	O5	0.590670	0.586700	0.123000
O61	O6	0.535440	0.647100	0.185200
N11	N1	0.616990	0.556600	0.321500
N21	N2	0.824230	0.198900	0.301700
C11	C1	0.584040	0.890000	0.443400
C21	C2	0.616200	0.954500	0.466700
H11	H1	0.642200	0.949600	0.439500
C31	C3	0.610850	0.025100	0.528300
H21	H2	0.632900	0.069700	0.542200
C41	C4	0.573330	0.032000	0.570800
C51	C5	0.542080	0.964900	0.550200
H31	H3	0.516900	0.966700	0.580400
C61	C6	0.546700	0.894000	0.485400
H41	H4	0.524600	0.849800	0.470700
C71	C7	0.590200	0.816100	0.373000
C81	C8	0.566610	0.113000	0.636400
C91	C9	0.524970	0.547800	0.060900
C101	C10	0.542180	0.483100	0.004000
H51	H5	0.571300	0.471200	0.006800
C111	C11	0.481800	0.565800	0.057900
H61	H6	0.469300	0.609900	0.096800
C121	C12	0.551590	0.597100	0.126300
C131	C13	0.643600	0.559000	0.387900
H71	H7	0.656400	0.620700	0.402700
C141	C14	0.653200	0.474100	0.435800
H81	H8	0.672900	0.478300	0.480900
C151	C15	0.634000	0.384200	0.418000
C161	C16	0.605700	0.383300	0.352500
H91	H9	0.590700	0.324000	0.339300
C171	C17	0.599100	0.470100	0.305200
H101	H10	0.580400	0.466400	0.258300
C181	C18	0.805300	0.287000	0.303800
H111	H11	0.820900	0.346000	0.293400
C191	C19	0.763900	0.294800	0.320700
H121	H12	0.750800	0.358400	0.318500
C201	C20	0.740600	0.210400	0.341300
C211	C21	0.761800	0.120100	0.342500
H131	H13	0.748000	0.059800	0.356700
C221	C22	0.802700	0.119500	0.323000
H141	H14	0.816800	0.057100	0.324900
C231	C23	0.644200	0.290300	0.467100
H151	H15	0.625100	0.236000	0.449100
H161	H16	0.640200	0.302500	0.527900
C241	C24	0.689400	0.257800	0.452600
H171	H17	0.708200	0.315100	0.463100
H181	H18	0.697100	0.204000	0.492800
C251	C25	0.694700	0.220500	0.363100
H191	H19	0.681100	0.267800	0.323300
H201	H20	0.681000	0.154800	0.356600
Cd21	Cd2	0.106010	0.195080	0.235570
O71	O7	0.058870	0.270500	0.342300
O81	O8	0.126260	0.301500	0.346700
O91	O9	0.031080	0.616500	0.667200
O101	O10	0.096810	0.668000	0.654100
O111	O11	0.090670	0.086700	0.123000
O121	O12	0.035440	0.147100	0.185200
N31	N3	0.116990	0.056600	0.321500
N41	N4	0.324230	0.698900	0.301700
C261	C26	0.084040	0.390000	0.443400
C271	C27	0.116200	0.454500	0.466700
H211	H21	0.142200	0.449600	0.439500
C281	C28	0.110850	0.525100	0.528300
H221	H22	0.132900	0.569700	0.542200
C291	C29	0.073330	0.532000	0.570800
C301	C30	0.042080	0.464900	0.550200
H231	H23	0.016900	0.466700	0.580400
C311	C31	0.046700	0.394000	0.485400
H241	H24	0.024600	0.349800	0.470700
C321	C32	0.090200	0.316100	0.373000
C331	C33	0.066610	0.613000	0.636400
C341	C34	0.024970	0.047800	0.060900
C351	C35	0.042180	0.983100	0.004000
H251	H25	0.071300	0.971200	0.006800
C361	C36	0.981800	0.065800	0.057900
H261	H26	0.969300	0.109900	0.096800
C371	C37	0.051590	0.097100	0.126300
C381	C38	0.143600	0.059000	0.387900
H271	H27	0.156400	0.120700	0.402700
C391	C39	0.153200	0.974100	0.435800
H281	H28	0.172900	0.978300	0.480900
C401	C40	0.134000	0.884200	0.418000
C411	C41	0.105700	0.883300	0.352500
H291	H29	0.090700	0.824000	0.339300
C421	C42	0.099100	0.970100	0.305200
H301	H30	0.080400	0.966400	0.258300
C431	C43	0.305300	0.787000	0.303800
H311	H31	0.320900	0.846000	0.293400
C441	C44	0.263900	0.794800	0.320700
H321	H32	0.250800	0.858400	0.318500
C451	C45	0.240600	0.710400	0.341300
C461	C46	0.261800	0.620100	0.342500
H331	H33	0.248000	0.559800	0.356700
C471	C47	0.302700	0.619500	0.323000
H341	H34	0.316800	0.557100	0.324900
C481	C48	0.144200	0.790300	0.467100
H351	H35	0.125100	0.736000	0.449100
H361	H36	0.140200	0.802500	0.527900
C491	C49	0.189400	0.757800	0.452600
H371	H37	0.208200	0.815100	0.463100
H381	H38	0.197100	0.704000	0.492800
C501	C50	0.194700	0.720500	0.363100
H391	H39	0.181100	0.767800	0.323300
H401	H40	0.181000	0.654800	0.356600
Cd31	Cd3	0.393990	0.695080	0.264430
O131	O13	0.441130	0.770500	0.157700
O141	O14	0.373740	0.801500	0.153300
O151	O15	0.468920	0.116500	0.832800
O161	O16	0.403190	0.168000	0.845900
O171	O17	0.409330	0.586700	0.377000
O181	O18	0.464560	0.647100	0.314800
N51	N5	0.383010	0.556600	0.178500
N61	N6	0.175770	0.198900	0.198300
C511	C51	0.415960	0.890000	0.056600
C521	C52	0.383800	0.954500	0.033300
H411	H41	0.357800	0.949600	0.060500
C531	C53	0.389150	0.025100	0.971700
H421	H42	0.367100	0.069700	0.957800
C541	C54	0.426670	0.032000	0.929200
C551	C55	0.457920	0.964900	0.949800
H431	H43	0.483100	0.966700	0.919600
C561	C56	0.453300	0.894000	0.014600
H441	H44	0.475400	0.849800	0.029300
C571	C57	0.409800	0.816100	0.127000
C581	C58	0.433390	0.113000	0.863600
C591	C59	0.475030	0.547800	0.439100
C601	C60	0.457820	0.483100	0.496000
H451	H45	0.428700	0.471200	0.493200
C611	C61	0.518200	0.565800	0.442100
H461	H46	0.530700	0.609900	0.403200
C621	C62	0.448410	0.597100	0.373700
C631	C63	0.356400	0.559000	0.112100
H471	H47	0.343600	0.620700	0.097300
C641	C64	0.346800	0.474100	0.064200
H481	H48	0.327100	0.478300	0.019100
C651	C65	0.366000	0.384200	0.082000
C661	C66	0.394300	0.383300	0.147500
H491	H49	0.409300	0.324000	0.160700
C671	C67	0.400900	0.470100	0.194800
H501	H50	0.419600	0.466400	0.241700
C681	C68	0.194700	0.287000	0.196200
H511	H51	0.179100	0.346000	0.206600
C691	C69	0.236100	0.294800	0.179300
H521	H52	0.249200	0.358400	0.181500
C701	C70	0.259400	0.210400	0.158700
C711	C71	0.238200	0.120100	0.157500
H531	H53	0.252000	0.059800	0.143300
C721	C72	0.197300	0.119500	0.177000
H541	H54	0.183200	0.057100	0.175100
C731	C73	0.355800	0.290300	0.032900
H551	H55	0.374900	0.236000	0.050900
H561	H56	0.359800	0.302500	0.972100
C741	C74	0.310600	0.257800	0.047400
H571	H57	0.291800	0.315100	0.036900
H581	H58	0.302900	0.204000	0.007200
C751	C75	0.305300	0.220500	0.136900
H591	H59	0.318900	0.267800	0.176700
H601	H60	0.319000	0.154800	0.143400
Cd41	Cd4	0.893990	0.195080	0.264430
O191	O19	0.941130	0.270500	0.157700
O201	O20	0.873740	0.301500	0.153300
O211	O21	0.968920	0.616500	0.832800
O221	O22	0.903190	0.668000	0.845900
O231	O23	0.909330	0.086700	0.377000
O241	O24	0.964560	0.147100	0.314800
N71	N7	0.883010	0.056600	0.178500
N81	N8	0.675770	0.698900	0.198300
C761	C76	0.915960	0.390000	0.056600
C771	C77	0.883800	0.454500	0.033300
H611	H61	0.857800	0.449600	0.060500
C781	C78	0.889150	0.525100	0.971700
H621	H62	0.867100	0.569700	0.957800
C791	C79	0.926670	0.532000	0.929200
C801	C80	0.957920	0.464900	0.949800
H631	H63	0.983100	0.466700	0.919600
C811	C81	0.953300	0.394000	0.014600
H641	H64	0.975400	0.349800	0.029300
C821	C82	0.909800	0.316100	0.127000
C831	C83	0.933390	0.613000	0.863600
C841	C84	0.975030	0.047800	0.439100
C851	C85	0.957820	0.983100	0.496000
H651	H65	0.928700	0.971200	0.493200
C861	C86	0.018200	0.065800	0.442100
H661	H66	0.030700	0.109900	0.403200
C871	C87	0.948410	0.097100	0.373700
C881	C88	0.856400	0.059000	0.112100
H671	H67	0.843600	0.120700	0.097300
C891	C89	0.846800	0.974100	0.064200
H681	H68	0.827100	0.978300	0.019100
C901	C90	0.866000	0.884200	0.082000
C911	C91	0.894300	0.883300	0.147500
H691	H69	0.909300	0.824000	0.160700
C921	C92	0.900900	0.970100	0.194800
H701	H70	0.919600	0.966400	0.241700
C931	C93	0.694700	0.787000	0.196200
H711	H71	0.679100	0.846000	0.206600
C941	C94	0.736100	0.794800	0.179300
H721	H72	0.749200	0.858400	0.181500
C951	C95	0.759400	0.710400	0.158700
C961	C96	0.738200	0.620100	0.157500
H731	H73	0.752000	0.559800	0.143300
C971	C97	0.697300	0.619500	0.177000
H741	H74	0.683200	0.557100	0.175100
C981	C98	0.855800	0.790300	0.032900
H751	H75	0.874900	0.736000	0.050900
H761	H76	0.859800	0.802500	0.972100
C991	C99	0.810600	0.757800	0.047400
H771	H77	0.791800	0.815100	0.036900
H781	H78	0.802900	0.704000	0.007200
C1001	C100	0.805300	0.720500	0.136900
H791	H79	0.818900	0.767800	0.176700
H801	H80	0.819000	0.654800	0.143400
Cd51	Cd5	0.393990	0.304920	0.764430
O251	O25	0.441130	0.229500	0.657700
O261	O26	0.373740	0.198500	0.653300
O271	O27	0.468920	0.883500	0.332800
O281	O28	0.403190	0.832000	0.345900
O291	O29	0.409330	0.413300	0.877000
O301	O30	0.464560	0.352900	0.814800
N91	N9	0.383010	0.443400	0.678500
N101	N10	0.175770	0.801100	0.698300
C1011	C101	0.415960	0.110000	0.556600
C1021	C102	0.383800	0.045500	0.533300
H811	H81	0.357800	0.050400	0.560500
C1031	C103	0.389150	0.974900	0.471700
H821	H82	0.367100	0.930300	0.457800
C1041	C104	0.426670	0.968000	0.429200
C1051	C105	0.457920	0.035100	0.449800
H831	H83	0.483100	0.033300	0.419600
C1061	C106	0.453300	0.106000	0.514600
H841	H84	0.475400	0.150200	0.529300
C1071	C107	0.409800	0.183900	0.627000
C1081	C108	0.433390	0.887000	0.363600
C1091	C109	0.475030	0.452200	0.939100
C1101	C110	0.457820	0.516900	0.996000
H851	H85	0.428700	0.528800	0.993200
C1111	C111	0.518200	0.434200	0.942100
H861	H86	0.530700	0.390100	0.903200
C1121	C112	0.448410	0.402900	0.873700
C1131	C113	0.356400	0.441000	0.612100
H871	H87	0.343600	0.379300	0.597300
C1141	C114	0.346800	0.525900	0.564200
H881	H88	0.327100	0.521700	0.519100
C1151	C115	0.366000	0.615800	0.582000
C1161	C116	0.394300	0.616700	0.647500
H891	H89	0.409300	0.676000	0.660700
C1171	C117	0.400900	0.529900	0.694800
H901	H90	0.419600	0.533600	0.741700
C1181	C118	0.194700	0.713000	0.696200
H911	H91	0.179100	0.654000	0.706600
C1191	C119	0.236100	0.705200	0.679300
H921	H92	0.249200	0.641600	0.681500
C1201	C120	0.259400	0.789600	0.658700
C1211	C121	0.238200	0.879900	0.657500
H931	H93	0.252000	0.940200	0.643300
C1221	C122	0.197300	0.880500	0.677000
H941	H94	0.183200	0.942900	0.675100
C1231	C123	0.355800	0.709700	0.532900
H951	H95	0.374900	0.764000	0.550900
H961	H96	0.359800	0.697500	0.472100
C1241	C124	0.310600	0.742200	0.547400
H971	H97	0.291800	0.684900	0.536900
H981	H98	0.302900	0.796000	0.507200
C1251	C125	0.305300	0.779500	0.636900
H991	H99	0.318900	0.732200	0.676700
H1001	H100	0.319000	0.845200	0.643400
Cd61	Cd6	0.893990	0.804920	0.764430
O311	O31	0.941130	0.729500	0.657700
O321	O32	0.873740	0.698500	0.653300
O331	O33	0.968920	0.383500	0.332800
O341	O34	0.903190	0.332000	0.345900
O351	O35	0.909330	0.913300	0.877000
O361	O36	0.964560	0.852900	0.814800
N111	N11	0.883010	0.943400	0.678500
N121	N12	0.675770	0.301100	0.698300
C1261	C126	0.915960	0.610000	0.556600
C1271	C127	0.883800	0.545500	0.533300
H1011	H101	0.857800	0.550400	0.560500
C1281	C128	0.889150	0.474900	0.471700
H1021	H102	0.867100	0.430300	0.457800
C1291	C129	0.926670	0.468000	0.429200
C1301	C130	0.957920	0.535100	0.449800
H1031	H103	0.983100	0.533300	0.419600
C1311	C131	0.953300	0.606000	0.514600
H1041	H104	0.975400	0.650200	0.529300
C1321	C132	0.909800	0.683900	0.627000
C1331	C133	0.933390	0.387000	0.363600
C1341	C134	0.975030	0.952200	0.939100
C1351	C135	0.957820	0.016900	0.996000
H1051	H105	0.928700	0.028800	0.993200
C1361	C136	0.018200	0.934200	0.942100
H1061	H106	0.030700	0.890100	0.903200
C1371	C137	0.948410	0.902900	0.873700
C1381	C138	0.856400	0.941000	0.612100
H1071	H107	0.843600	0.879300	0.597300
C1391	C139	0.846800	0.025900	0.564200
H1081	H108	0.827100	0.021700	0.519100
C1401	C140	0.866000	0.115800	0.582000
C1411	C141	0.894300	0.116700	0.647500
H1091	H109	0.909300	0.176000	0.660700
C1421	C142	0.900900	0.029900	0.694800
H1101	H110	0.919600	0.033600	0.741700
C1431	C143	0.694700	0.213000	0.696200
H1111	H111	0.679100	0.154000	0.706600
C1441	C144	0.736100	0.205200	0.679300
H1121	H112	0.749200	0.141600	0.681500
C1451	C145	0.759400	0.289600	0.658700
C1461	C146	0.738200	0.379900	0.657500
H1131	H113	0.752000	0.440200	0.643300
C1471	C147	0.697300	0.380500	0.677000
H1141	H114	0.683200	0.442900	0.675100
C1481	C148	0.855800	0.209700	0.532900
H1151	H115	0.874900	0.264000	0.550900
H1161	H116	0.859800	0.197500	0.472100
C1491	C149	0.810600	0.242200	0.547400
H1171	H117	0.791800	0.184900	0.536900
H1181	H118	0.802900	0.296000	0.507200
C1501	C150	0.805300	0.279500	0.636900
H1191	H119	0.818900	0.232200	0.676700
H1201	H120	0.819000	0.345200	0.643400
Cd71	Cd7	0.606010	0.304920	0.735570
O371	O37	0.558870	0.229500	0.842300
O381	O38	0.626260	0.198500	0.846700
O391	O39	0.531080	0.883500	0.167200
O401	O40	0.596810	0.832000	0.154100
O411	O41	0.590670	0.413300	0.623000
O421	O42	0.535440	0.352900	0.685200
N131	N13	0.616990	0.443400	0.821500
N141	N14	0.824230	0.801100	0.801700
C1511	C151	0.584040	0.110000	0.943400
C1521	C152	0.616200	0.045500	0.966700
H1211	H121	0.642200	0.050400	0.939500
C1531	C153	0.610850	0.974900	0.028300
H1221	H122	0.632900	0.930300	0.042200
C1541	C154	0.573330	0.968000	0.070800
C1551	C155	0.542080	0.035100	0.050200
H1231	H123	0.516900	0.033300	0.080400
C1561	C156	0.546700	0.106000	0.985400
H1241	H124	0.524600	0.150200	0.970700
C1571	C157	0.590200	0.183900	0.873000
C1581	C158	0.566610	0.887000	0.136400
C1591	C159	0.524970	0.452200	0.560900
C1601	C160	0.542180	0.516900	0.504000
H1251	H125	0.571300	0.528800	0.506800
C1611	C161	0.481800	0.434200	0.557900
H1261	H126	0.469300	0.390100	0.596800
C1621	C162	0.551590	0.402900	0.626300
C1631	C163	0.643600	0.441000	0.887900
H1271	H127	0.656400	0.379300	0.902700
C1641	C164	0.653200	0.525900	0.935800
H1281	H128	0.672900	0.521700	0.980900
C1651	C165	0.634000	0.615800	0.918000
C1661	C166	0.605700	0.616700	0.852500
H1291	H129	0.590700	0.676000	0.839300
C1671	C167	0.599100	0.529900	0.805200
H1301	H130	0.580400	0.533600	0.758300
C1681	C168	0.805300	0.713000	0.803800
H1311	H131	0.820900	0.654000	0.793400
C1691	C169	0.763900	0.705200	0.820700
H1321	H132	0.750800	0.641600	0.818500
C1701	C170	0.740600	0.789600	0.841300
C1711	C171	0.761800	0.879900	0.842500
H1331	H133	0.748000	0.940200	0.856700
C1721	C172	0.802700	0.880500	0.823000
H1341	H134	0.816800	0.942900	0.824900
C1731	C173	0.644200	0.709700	0.967100
H1351	H135	0.625100	0.764000	0.949100
H1361	H136	0.640200	0.697500	0.027900
C1741	C174	0.689400	0.742200	0.952600
H1371	H137	0.708200	0.684900	0.963100
H1381	H138	0.697100	0.796000	0.992800
C1751	C175	0.694700	0.779500	0.863100
H1391	H139	0.681100	0.732200	0.823300
H1401	H140	0.681000	0.845200	0.856600
Cd81	Cd8	0.106010	0.804920	0.735570
O431	O43	0.058870	0.729500	0.842300
O441	O44	0.126260	0.698500	0.846700
O451	O45	0.031080	0.383500	0.167200
O461	O46	0.096810	0.332000	0.154100
O471	O47	0.090670	0.913300	0.623000
O481	O48	0.035440	0.852900	0.685200
N151	N15	0.116990	0.943400	0.821500
N161	N16	0.324230	0.301100	0.801700
C1761	C176	0.084040	0.610000	0.943400
C1771	C177	0.116200	0.545500	0.966700
H1411	H141	0.142200	0.550400	0.939500
C1781	C178	0.110850	0.474900	0.028300
H1421	H142	0.132900	0.430300	0.042200
C1791	C179	0.073330	0.468000	0.070800
C1801	C180	0.042080	0.535100	0.050200
H1431	H143	0.016900	0.533300	0.080400
C1811	C181	0.046700	0.606000	0.985400
H1441	H144	0.024600	0.650200	0.970700
C1821	C182	0.090200	0.683900	0.873000
C1831	C183	0.066610	0.387000	0.136400
C1841	C184	0.024970	0.952200	0.560900
C1851	C185	0.042180	0.016900	0.504000
H1451	H145	0.071300	0.028800	0.506800
C1861	C186	0.981800	0.934200	0.557900
H1461	H146	0.969300	0.890100	0.596800
C1871	C187	0.051590	0.902900	0.626300
C1881	C188	0.143600	0.941000	0.887900
H1471	H147	0.156400	0.879300	0.902700
C1891	C189	0.153200	0.025900	0.935800
H1481	H148	0.172900	0.021700	0.980900
C1901	C190	0.134000	0.115800	0.918000
C1911	C191	0.105700	0.116700	0.852500
H1491	H149	0.090700	0.176000	0.839300
C1921	C192	0.099100	0.029900	0.805200
H1501	H150	0.080400	0.033600	0.758300
C1931	C193	0.305300	0.213000	0.803800
H1511	H151	0.320900	0.154000	0.793400
C1941	C194	0.263900	0.205200	0.820700
H1521	H152	0.250800	0.141600	0.818500
C1951	C195	0.240600	0.289600	0.841300
C1961	C196	0.261800	0.379900	0.842500
H1531	H153	0.248000	0.440200	0.856700
C1971	C197	0.302700	0.380500	0.823000
H1541	H154	0.316800	0.442900	0.824900
C1981	C198	0.144200	0.209700	0.967100
H1551	H155	0.125100	0.264000	0.949100
H1561	H156	0.140200	0.197500	0.027900
C1991	C199	0.189400	0.242200	0.952600
H1571	H157	0.208200	0.184900	0.963100
H1581	H158	0.197100	0.296000	0.992800
C2001	C200	0.194700	0.279500	0.863100
H1591	H159	0.181100	0.232200	0.823300
H1601	H160	0.181000	0.345200	0.856600
Cd91	Cd9	0.500000	0.774970	0.250000
Cd101	Cd10	0.000000	0.274970	0.250000
Cd111	Cd11	0.500000	0.225030	0.750000
Cd121	Cd12	0.000000	0.725030	0.750000
