data_KECRAL11_freeONLY_PM
_symmetry_space_group_name_H-M	'P1'
_cell_length_a	8.548000
_cell_length_b	21.092000
_cell_length_c	8.695000
_cell_angle_alpha	90.000000
_cell_angle_beta	90.000000
_cell_angle_gamma	90.000000
_symmetry_Int_Tables_number 1

loop_
_symmetry_equiv_pos_as_xyz
'x,y,z'

loop_
_atom_site_label
_atom_site_type_symbol
_atom_site_fract_x
_atom_site_fract_y
_atom_site_fract_z
Cd11	Cd1	0.000000	0.000000	0.000000
Cd21	Cd2	0.500000	0.500000	0.000000
Cd31	Cd3	0.000000	0.833970	0.500000
Cd41	Cd4	0.500000	0.333970	0.500000
Cd51	Cd5	0.000000	0.166030	0.500000
Cd61	Cd6	0.500000	0.666030	0.500000
N11	N1	0.000000	0.923900	0.187600
C11	C1	0.000000	0.891600	0.289500
N21	N2	0.500000	0.423900	0.187600
C21	C2	0.500000	0.391600	0.289500
N31	N3	0.000000	0.076100	0.187600
C31	C3	0.000000	0.108400	0.289500
N41	N4	0.500000	0.576100	0.187600
C41	C4	0.500000	0.608400	0.289500
N51	N5	0.000000	0.923900	0.812400
C51	C5	0.000000	0.891600	0.710500
N61	N6	0.500000	0.423900	0.812400
C61	C6	0.500000	0.391600	0.710500
N71	N7	0.000000	0.076100	0.812400
C71	C7	0.000000	0.108400	0.710500
N81	N8	0.500000	0.576100	0.812400
C81	C8	0.500000	0.608400	0.710500
N91	N9	0.785000	0.772500	0.500000
C91	C9	0.822000	0.759800	0.500000
N101	N10	0.285000	0.272500	0.500000
C101	C10	0.322000	0.259800	0.500000
N111	N11	0.215000	0.227500	0.500000
C111	C11	0.178000	0.240200	0.500000
N121	N12	0.715000	0.727500	0.500000
C121	C12	0.678000	0.740200	0.500000
N131	N13	0.215000	0.772500	0.500000
C131	C13	0.178000	0.759800	0.500000
N141	N14	0.715000	0.272500	0.500000
C141	C14	0.678000	0.259800	0.500000
N151	N15	0.785000	0.227500	0.500000
C151	C15	0.822000	0.240200	0.500000
N161	N16	0.285000	0.727500	0.500000
C161	C16	0.322000	0.740200	0.500000
O11	O1	0.272300	0.000000	0.963800
O21	O2	0.772300	0.500000	0.963800
O31	O3	0.727700	0.000000	0.963800
O41	O4	0.227700	0.500000	0.963800
O51	O5	0.727700	0.000000	0.036200
O61	O6	0.227700	0.500000	0.036200
O71	O7	0.272300	0.000000	0.036200
O81	O8	0.772300	0.500000	0.036200
