data_KECRAL_freeONLY_PM
_symmetry_space_group_name_H-M	'P1'
_cell_length_a	8.695000
_cell_length_b	8.548000
_cell_length_c	21.092000
_cell_angle_alpha	90.000000
_cell_angle_beta	90.000000
_cell_angle_gamma	90.000000
_symmetry_Int_Tables_number 1

loop_
_symmetry_equiv_pos_as_xyz
'x,y,z'

loop_
_atom_site_label
_atom_site_type_symbol
_atom_site_fract_x
_atom_site_fract_y
_atom_site_fract_z
Cd11	Cd1	0.000000	0.000000	0.000000
Cd21	Cd2	0.000000	0.500000	0.500000
Cd31	Cd3	0.500000	0.000000	0.835200
Cd41	Cd4	0.500000	0.000000	0.167500
Cd51	Cd5	0.500000	0.500000	0.335200
Cd61	Cd6	0.500000	0.500000	0.667500
C11	C1	0.294200	0.000000	0.892600
N11	N1	0.189500	0.000000	0.925200
C21	C2	0.172900	0.000000	0.074200
N21	N2	0.274500	0.000000	0.108200
C31	C3	0.294200	0.500000	0.392600
N31	N3	0.189500	0.500000	0.425200
C41	C4	0.172900	0.500000	0.574200
N41	N4	0.274500	0.500000	0.608200
C51	C5	0.705800	0.000000	0.892600
N51	N5	0.810500	0.000000	0.925200
C61	C6	0.827100	0.000000	0.074200
N61	N6	0.725500	0.000000	0.108200
C71	C7	0.705800	0.500000	0.392600
N71	N7	0.810500	0.500000	0.425200
C81	C8	0.827100	0.500000	0.574200
N81	N8	0.725500	0.500000	0.608200
C91	C9	0.500000	0.794000	0.775100
N91	N9	0.500000	0.696200	0.738200
C101	C10	0.500000	0.294000	0.275100
N101	N10	0.500000	0.196200	0.238200
C111	C11	0.500000	0.206000	0.775100
N111	N11	0.500000	0.303800	0.738200
C121	C12	0.500000	0.706000	0.275100
N121	N12	0.500000	0.803800	0.238200
O11	O1	0.000000	0.727600	0.003800
O21	O2	0.000000	0.227600	0.503800
O31	O3	0.000000	0.272400	0.003800
O41	O4	0.000000	0.772400	0.503800
