data_KEDJAG03_freeONLY_PM
_symmetry_space_group_name_H-M	'P1'
_cell_length_a	8.829400
_cell_length_b	33.771900
_cell_length_c	8.805200
_cell_angle_alpha	90.000000
_cell_angle_beta	107.901000
_cell_angle_gamma	90.000000
_symmetry_Int_Tables_number 1

loop_
_symmetry_equiv_pos_as_xyz
'x,y,z'

loop_
_atom_site_label
_atom_site_type_symbol
_atom_site_fract_x
_atom_site_fract_y
_atom_site_fract_z
Cu11	Cu1	0.746960	0.204060	0.497620
Cu21	Cu2	0.742450	0.045690	0.502130
O11	O1	0.886550	0.155320	0.623260
O21	O2	0.857200	0.090440	0.631370
O31	O3	0.618200	0.159750	0.375070
O41	O4	0.615660	0.094300	0.356580
O51	O5	0.619710	0.208030	0.660860
O61	O6	0.598600	0.249700	0.847100
O71	O7	0.874580	0.246210	0.638210
O81	O8	0.863570	0.287580	0.829790
O91	O9	0.910690	0.040120	0.381130
O101	O10	0.092000	0.998240	0.350850
O111	O11	0.575500	0.040310	0.622380
O121	O12	0.382420	0.998510	0.626040
C11	C1	0.818700	0.123920	0.572300
C21	C2	0.669900	0.126010	0.420300
C31	C3	0.814500	0.259190	0.738900
C41	C4	0.664700	0.237310	0.752000
C51	C5	0.002300	0.010860	0.422400
C61	C6	0.488000	0.011400	0.571900
Cu31	Cu3	0.253040	0.704060	0.002380
Cu41	Cu4	0.257550	0.545690	0.997870
O131	O13	0.113450	0.655320	0.876740
O141	O14	0.142800	0.590440	0.868630
O151	O15	0.381800	0.659750	0.124930
O161	O16	0.384340	0.594300	0.143420
O171	O17	0.380290	0.708030	0.839140
O181	O18	0.401400	0.749700	0.652900
O191	O19	0.125420	0.746210	0.861790
O201	O20	0.136430	0.787580	0.670210
O211	O21	0.089310	0.540120	0.118870
O221	O22	0.908000	0.498240	0.149150
O231	O23	0.424500	0.540310	0.877620
O241	O24	0.617580	0.498510	0.873960
C71	C7	0.181300	0.623920	0.927700
C81	C8	0.330100	0.626010	0.079700
C91	C9	0.185500	0.759190	0.761100
C101	C10	0.335300	0.737310	0.748000
C111	C11	0.997700	0.510860	0.077600
C121	C12	0.512000	0.511400	0.928100
Cu51	Cu5	0.253040	0.795940	0.502380
Cu61	Cu6	0.257550	0.954310	0.497870
O251	O25	0.113450	0.844680	0.376740
O261	O26	0.142800	0.909560	0.368630
O271	O27	0.381800	0.840250	0.624930
O281	O28	0.384340	0.905700	0.643420
O291	O29	0.380290	0.791970	0.339140
O301	O30	0.401400	0.750300	0.152900
O311	O31	0.125420	0.753790	0.361790
O321	O32	0.136430	0.712420	0.170210
O331	O33	0.089310	0.959880	0.618870
O341	O34	0.908000	0.001760	0.649150
O351	O35	0.424500	0.959690	0.377620
O361	O36	0.617580	0.001490	0.373960
C131	C13	0.181300	0.876080	0.427700
C141	C14	0.330100	0.873990	0.579700
C151	C15	0.185500	0.740810	0.261100
C161	C16	0.335300	0.762690	0.248000
C171	C17	0.997700	0.989140	0.577600
C181	C18	0.512000	0.988600	0.428100
Cu71	Cu7	0.746960	0.295940	0.997620
Cu81	Cu8	0.742450	0.454310	0.002130
O371	O37	0.886550	0.344680	0.123260
O381	O38	0.857200	0.409560	0.131370
O391	O39	0.618200	0.340250	0.875070
O401	O40	0.615660	0.405700	0.856580
O411	O41	0.619710	0.291970	0.160860
O421	O42	0.598600	0.250300	0.347100
O431	O43	0.874580	0.253790	0.138210
O441	O44	0.863570	0.212420	0.329790
O451	O45	0.910690	0.459880	0.881130
O461	O46	0.092000	0.501760	0.850850
O471	O47	0.575500	0.459690	0.122380
O481	O48	0.382420	0.501490	0.126040
C191	C19	0.818700	0.376080	0.072300
C201	C20	0.669900	0.373990	0.920300
C211	C21	0.814500	0.240810	0.238900
C221	C22	0.664700	0.262690	0.252000
C231	C23	0.002300	0.489140	0.922400
C241	C24	0.488000	0.488600	0.071900
