data_KEDJAG06_freeONLY_PM
_symmetry_space_group_name_H-M	'P1'
_cell_length_a	8.692600
_cell_length_b	34.156400
_cell_length_c	8.595600
_cell_angle_alpha	90.000000
_cell_angle_beta	107.603000
_cell_angle_gamma	90.000000
_symmetry_Int_Tables_number 1

loop_
_symmetry_equiv_pos_as_xyz
'x,y,z'

loop_
_atom_site_label
_atom_site_type_symbol
_atom_site_fract_x
_atom_site_fract_y
_atom_site_fract_z
Cu11	Cu1	0.748410	0.203440	0.478990
Cu21	Cu2	0.737670	0.045530	0.498290
O11	O1	0.895980	0.153530	0.609620
O21	O2	0.847430	0.090040	0.628370
O31	O3	0.620620	0.160020	0.357090
O41	O4	0.611340	0.095080	0.336190
O51	O5	0.623250	0.205760	0.639850
O61	O6	0.585530	0.248130	0.821800
O71	O7	0.873580	0.246330	0.613160
O81	O8	0.857480	0.287560	0.807970
O91	O9	0.905510	0.040940	0.385510
O101	O10	0.088210	0.000210	0.342070
O111	O11	0.569450	0.042370	0.612340
O121	O12	0.377930	0.000190	0.627800
C11	C1	0.817700	0.123170	0.561500
C21	C2	0.669300	0.125920	0.404000
C31	C3	0.810200	0.258630	0.717200
C41	C4	0.659100	0.236040	0.729900
C51	C5	0.999800	0.011420	0.421300
C61	C6	0.484700	0.012310	0.569000
Cu31	Cu3	0.251590	0.703440	0.021010
Cu41	Cu4	0.262330	0.545530	0.001710
O131	O13	0.104020	0.653530	0.890380
O141	O14	0.152570	0.590040	0.871630
O151	O15	0.379380	0.660020	0.142910
O161	O16	0.388660	0.595080	0.163810
O171	O17	0.376750	0.705760	0.860150
O181	O18	0.414470	0.748130	0.678200
O191	O19	0.126420	0.746330	0.886840
O201	O20	0.142520	0.787560	0.692030
O211	O21	0.094490	0.540940	0.114490
O221	O22	0.911790	0.500210	0.157930
O231	O23	0.430550	0.542370	0.887660
O241	O24	0.622070	0.500190	0.872200
C71	C7	0.182300	0.623170	0.938500
C81	C8	0.330700	0.625920	0.096000
C91	C9	0.189800	0.758630	0.782800
C101	C10	0.340900	0.736040	0.770100
C111	C11	0.000200	0.511420	0.078700
C121	C12	0.515300	0.512310	0.931000
Cu51	Cu5	0.251590	0.796560	0.521010
Cu61	Cu6	0.262330	0.954470	0.501710
O251	O25	0.104020	0.846470	0.390380
O261	O26	0.152570	0.909960	0.371630
O271	O27	0.379380	0.839980	0.642910
O281	O28	0.388660	0.904920	0.663810
O291	O29	0.376750	0.794240	0.360150
O301	O30	0.414470	0.751870	0.178200
O311	O31	0.126420	0.753670	0.386840
O321	O32	0.142520	0.712440	0.192030
O331	O33	0.094490	0.959060	0.614490
O341	O34	0.911790	0.999790	0.657930
O351	O35	0.430550	0.957630	0.387660
O361	O36	0.622070	0.999810	0.372200
C131	C13	0.182300	0.876830	0.438500
C141	C14	0.330700	0.874080	0.596000
C151	C15	0.189800	0.741370	0.282800
C161	C16	0.340900	0.763960	0.270100
C171	C17	0.000200	0.988580	0.578700
C181	C18	0.515300	0.987690	0.431000
Cu71	Cu7	0.748410	0.296560	0.978990
Cu81	Cu8	0.737670	0.454470	0.998290
O371	O37	0.895980	0.346470	0.109620
O381	O38	0.847430	0.409960	0.128370
O391	O39	0.620620	0.339980	0.857090
O401	O40	0.611340	0.404920	0.836190
O411	O41	0.623250	0.294240	0.139850
O421	O42	0.585530	0.251870	0.321800
O431	O43	0.873580	0.253670	0.113160
O441	O44	0.857480	0.212440	0.307970
O451	O45	0.905510	0.459060	0.885510
O461	O46	0.088210	0.499790	0.842070
O471	O47	0.569450	0.457630	0.112340
O481	O48	0.377930	0.499810	0.127800
C191	C19	0.817700	0.376830	0.061500
C201	C20	0.669300	0.374080	0.904000
C211	C21	0.810200	0.241370	0.217200
C221	C22	0.659100	0.263960	0.229900
C231	C23	0.999800	0.488580	0.921300
C241	C24	0.484700	0.487690	0.069000
