data_KEDJAG_freeONLY_PM
_symmetry_space_group_name_H-M	'P1'
_cell_length_a	8.698700
_cell_length_b	34.140800
_cell_length_c	8.608100
_cell_angle_alpha	90.000000
_cell_angle_beta	107.578000
_cell_angle_gamma	90.000000
_symmetry_Int_Tables_number 1

loop_
_symmetry_equiv_pos_as_xyz
'x,y,z'

loop_
_atom_site_label
_atom_site_type_symbol
_atom_site_fract_x
_atom_site_fract_y
_atom_site_fract_z
Cu11	Cu1	0.748640	0.203470	0.480790
Cu21	Cu2	0.737850	0.045530	0.498300
O11	O1	0.895670	0.153500	0.610590
O21	O2	0.848180	0.089950	0.628290
O31	O3	0.620750	0.160100	0.358840
O41	O4	0.611470	0.095160	0.337530
O51	O5	0.623590	0.205810	0.641850
O61	O6	0.586640	0.248100	0.824340
O71	O7	0.874100	0.246250	0.615300
O81	O8	0.857910	0.287520	0.809760
O91	O9	0.905890	0.040800	0.385070
O101	O10	0.088510	0.000160	0.342650
O111	O11	0.569710	0.042220	0.612690
O121	O12	0.378480	0.000030	0.627780
C11	C1	0.817800	0.123230	0.562200
C21	C2	0.669500	0.125950	0.405300
C31	C3	0.810400	0.258630	0.719300
C41	C4	0.660000	0.236160	0.732300
C51	C5	0.999900	0.011360	0.421100
C61	C6	0.484900	0.012260	0.569500
Cu31	Cu3	0.251360	0.703470	0.019210
Cu41	Cu4	0.262150	0.545530	0.001700
O131	O13	0.104330	0.653500	0.889410
O141	O14	0.151820	0.589950	0.871710
O151	O15	0.379250	0.660100	0.141160
O161	O16	0.388530	0.595160	0.162470
O171	O17	0.376410	0.705810	0.858150
O181	O18	0.413360	0.748100	0.675660
O191	O19	0.125900	0.746250	0.884700
O201	O20	0.142090	0.787520	0.690240
O211	O21	0.094110	0.540800	0.114930
O221	O22	0.911490	0.500160	0.157350
O231	O23	0.430290	0.542220	0.887310
O241	O24	0.621520	0.500030	0.872220
C71	C7	0.182200	0.623230	0.937800
C81	C8	0.330500	0.625950	0.094700
C91	C9	0.189600	0.758630	0.780700
C101	C10	0.340000	0.736160	0.767700
C111	C11	0.000100	0.511360	0.078900
C121	C12	0.515100	0.512260	0.930500
Cu51	Cu5	0.251360	0.796530	0.519210
Cu61	Cu6	0.262150	0.954470	0.501700
O251	O25	0.104330	0.846500	0.389410
O261	O26	0.151820	0.910050	0.371710
O271	O27	0.379250	0.839900	0.641160
O281	O28	0.388530	0.904840	0.662470
O291	O29	0.376410	0.794190	0.358150
O301	O30	0.413360	0.751900	0.175660
O311	O31	0.125900	0.753750	0.384700
O321	O32	0.142090	0.712480	0.190240
O331	O33	0.094110	0.959200	0.614930
O341	O34	0.911490	0.999840	0.657350
O351	O35	0.430290	0.957780	0.387310
O361	O36	0.621520	0.999970	0.372220
C131	C13	0.182200	0.876770	0.437800
C141	C14	0.330500	0.874050	0.594700
C151	C15	0.189600	0.741370	0.280700
C161	C16	0.340000	0.763840	0.267700
C171	C17	0.000100	0.988640	0.578900
C181	C18	0.515100	0.987740	0.430500
Cu71	Cu7	0.748640	0.296530	0.980790
Cu81	Cu8	0.737850	0.454470	0.998300
O371	O37	0.895670	0.346500	0.110590
O381	O38	0.848180	0.410050	0.128290
O391	O39	0.620750	0.339900	0.858840
O401	O40	0.611470	0.404840	0.837530
O411	O41	0.623590	0.294190	0.141850
O421	O42	0.586640	0.251900	0.324340
O431	O43	0.874100	0.253750	0.115300
O441	O44	0.857910	0.212480	0.309760
O451	O45	0.905890	0.459200	0.885070
O461	O46	0.088510	0.499840	0.842650
O471	O47	0.569710	0.457780	0.112690
O481	O48	0.378480	0.499970	0.127780
C191	C19	0.817800	0.376770	0.062200
C201	C20	0.669500	0.374050	0.905300
C211	C21	0.810400	0.241370	0.219300
C221	C22	0.660000	0.263840	0.232300
C231	C23	0.999900	0.488640	0.921100
C241	C24	0.484900	0.487740	0.069500
