data_KEDJAG10_freeONLY_PM
_symmetry_space_group_name_H-M	'P1'
_cell_length_a	8.715600
_cell_length_b	34.081300
_cell_length_c	8.636000
_cell_angle_alpha	90.000000
_cell_angle_beta	107.632000
_cell_angle_gamma	90.000000
_symmetry_Int_Tables_number 1

loop_
_symmetry_equiv_pos_as_xyz
'x,y,z'

loop_
_atom_site_label
_atom_site_type_symbol
_atom_site_fract_x
_atom_site_fract_y
_atom_site_fract_z
Cu11	Cu1	0.749520	0.203510	0.482860
Cu21	Cu2	0.738610	0.045600	0.498620
O11	O1	0.895280	0.153720	0.612200
O21	O2	0.850030	0.090020	0.628420
O31	O3	0.621650	0.160080	0.360710
O41	O4	0.612230	0.095110	0.340250
O51	O5	0.623900	0.206120	0.644420
O61	O6	0.589570	0.248320	0.827350
O71	O7	0.875400	0.246140	0.618140
O81	O8	0.860210	0.287500	0.812390
O91	O9	0.906530	0.040660	0.384040
O101	O10	0.089040	0.999780	0.344080
O111	O11	0.570370	0.041960	0.613980
O121	O12	0.379250	0.999760	0.627800
C11	C1	0.818700	0.123300	0.563500
C21	C2	0.669900	0.125990	0.407200
C31	C3	0.812200	0.258660	0.721800
C41	C4	0.662000	0.236340	0.734700
C51	C5	0.000600	0.011270	0.421300
C61	C6	0.485100	0.012090	0.569900
Cu31	Cu3	0.250480	0.703510	0.017140
Cu41	Cu4	0.261390	0.545600	0.001380
O131	O13	0.104720	0.653720	0.887800
O141	O14	0.149970	0.590020	0.871580
O151	O15	0.378350	0.660080	0.139290
O161	O16	0.387770	0.595110	0.159750
O171	O17	0.376100	0.706120	0.855580
O181	O18	0.410430	0.748320	0.672650
O191	O19	0.124600	0.746140	0.881860
O201	O20	0.139790	0.787500	0.687610
O211	O21	0.093470	0.540660	0.115960
O221	O22	0.910960	0.499780	0.155920
O231	O23	0.429630	0.541960	0.886020
O241	O24	0.620750	0.499760	0.872200
C71	C7	0.181300	0.623300	0.936500
C81	C8	0.330100	0.625990	0.092800
C91	C9	0.187800	0.758660	0.778200
C101	C10	0.338000	0.736340	0.765300
C111	C11	0.999400	0.511270	0.078700
C121	C12	0.514900	0.512090	0.930100
Cu51	Cu5	0.250480	0.796490	0.517140
Cu61	Cu6	0.261390	0.954400	0.501380
O251	O25	0.104720	0.846280	0.387800
O261	O26	0.149970	0.909980	0.371580
O271	O27	0.378350	0.839920	0.639290
O281	O28	0.387770	0.904890	0.659750
O291	O29	0.376100	0.793880	0.355580
O301	O30	0.410430	0.751680	0.172650
O311	O31	0.124600	0.753860	0.381860
O321	O32	0.139790	0.712500	0.187610
O331	O33	0.093470	0.959340	0.615960
O341	O34	0.910960	0.000220	0.655920
O351	O35	0.429630	0.958040	0.386020
O361	O36	0.620750	0.000240	0.372200
C131	C13	0.181300	0.876700	0.436500
C141	C14	0.330100	0.874010	0.592800
C151	C15	0.187800	0.741340	0.278200
C161	C16	0.338000	0.763660	0.265300
C171	C17	0.999400	0.988730	0.578700
C181	C18	0.514900	0.987910	0.430100
Cu71	Cu7	0.749520	0.296490	0.982860
Cu81	Cu8	0.738610	0.454400	0.998620
O371	O37	0.895280	0.346280	0.112200
O381	O38	0.850030	0.409980	0.128420
O391	O39	0.621650	0.339920	0.860710
O401	O40	0.612230	0.404890	0.840250
O411	O41	0.623900	0.293880	0.144420
O421	O42	0.589570	0.251680	0.327350
O431	O43	0.875400	0.253860	0.118140
O441	O44	0.860210	0.212500	0.312390
O451	O45	0.906530	0.459340	0.884040
O461	O46	0.089040	0.500220	0.844080
O471	O47	0.570370	0.458040	0.113980
O481	O48	0.379250	0.500240	0.127800
C191	C19	0.818700	0.376700	0.063500
C201	C20	0.669900	0.374010	0.907200
C211	C21	0.812200	0.241340	0.221800
C221	C22	0.662000	0.263660	0.234700
C231	C23	0.000600	0.488730	0.921300
C241	C24	0.485100	0.487910	0.069900
