data_KEDNOY_freeONLY_PM
_symmetry_space_group_name_H-M	'P1'
_cell_length_a	14.056300
_cell_length_b	14.056300
_cell_length_c	14.056300
_cell_angle_alpha	90.000000
_cell_angle_beta	90.000000
_cell_angle_gamma	90.000000
_symmetry_Int_Tables_number 1

loop_
_symmetry_equiv_pos_as_xyz
'x,y,z'

loop_
_atom_site_label
_atom_site_type_symbol
_atom_site_fract_x
_atom_site_fract_y
_atom_site_fract_z
O11	O1	0.764050	0.272060	0.362470
O21	O2	0.902840	0.277240	0.234520
C11	C1	0.799400	0.266100	0.526300
H11	H1	0.837300	0.311900	0.562500
H21	H2	0.808800	0.202200	0.552500
H31	H3	0.731900	0.283200	0.530500
C21	C2	0.829900	0.267410	0.424360
C31	C3	0.926900	0.263600	0.399310
C41	C4	0.959290	0.269730	0.304300
C51	C5	0.063200	0.267800	0.281300
H41	H4	0.100100	0.268500	0.340400
H51	H5	0.079600	0.323700	0.243000
H61	H6	0.078000	0.209900	0.245300
C61	C6	0.994900	0.262600	0.474500
N11	N1	0.047340	0.263400	0.536840
O31	O3	0.735950	0.727940	0.862470
O41	O4	0.597160	0.722760	0.734520
C71	C7	0.700600	0.733900	0.026300
H71	H7	0.662700	0.688100	0.062500
H81	H8	0.691200	0.797800	0.052500
H91	H9	0.768100	0.716800	0.030500
C81	C8	0.670100	0.732590	0.924360
C91	C9	0.573100	0.736400	0.899310
C101	C10	0.540710	0.730270	0.804300
C111	C11	0.436800	0.732200	0.781300
H101	H10	0.399900	0.731500	0.840400
H111	H11	0.420400	0.676300	0.743000
H121	H12	0.422000	0.790100	0.745300
C121	C12	0.505100	0.737400	0.974500
N21	N2	0.452660	0.736600	0.036840
O51	O5	0.235950	0.772060	0.137530
O61	O6	0.097160	0.777240	0.265480
C131	C13	0.200600	0.766100	0.973700
H131	H13	0.162700	0.811900	0.937500
H141	H14	0.191200	0.702200	0.947500
H151	H15	0.268100	0.783200	0.969500
C141	C14	0.170100	0.767410	0.075640
C151	C15	0.073100	0.763600	0.100690
C161	C16	0.040710	0.769730	0.195700
C171	C17	0.936800	0.767800	0.218700
H161	H16	0.899900	0.768500	0.159600
H171	H17	0.920400	0.823700	0.257000
H181	H18	0.922000	0.709900	0.254700
C181	C18	0.005100	0.762600	0.025500
N31	N3	0.952660	0.763400	0.963160
O71	O7	0.264050	0.227940	0.637530
O81	O8	0.402840	0.222760	0.765480
C191	C19	0.299400	0.233900	0.473700
H191	H19	0.337300	0.188100	0.437500
H201	H20	0.308800	0.297800	0.447500
H211	H21	0.231900	0.216800	0.469500
C201	C20	0.329900	0.232590	0.575640
C211	C21	0.426900	0.236400	0.600690
C221	C22	0.459290	0.230270	0.695700
C231	C23	0.563200	0.232200	0.718700
H221	H22	0.600100	0.231500	0.659600
H231	H23	0.579600	0.176300	0.757000
H241	H24	0.578000	0.290100	0.754700
C241	C24	0.494900	0.237400	0.525500
N41	N4	0.547340	0.236600	0.463160
O91	O9	0.362470	0.764050	0.272060
O101	O10	0.234520	0.902840	0.277240
C251	C25	0.526300	0.799400	0.266100
H251	H25	0.562500	0.837300	0.311900
H261	H26	0.552500	0.808800	0.202200
H271	H27	0.530500	0.731900	0.283200
C261	C26	0.424360	0.829900	0.267410
C271	C27	0.399310	0.926900	0.263600
C281	C28	0.304300	0.959290	0.269730
C291	C29	0.281300	0.063200	0.267800
H281	H28	0.340400	0.100100	0.268500
H291	H29	0.243000	0.079600	0.323700
H301	H30	0.245300	0.078000	0.209900
C301	C30	0.474500	0.994900	0.262600
N51	N5	0.536840	0.047340	0.263400
O111	O11	0.862470	0.735950	0.727940
O121	O12	0.734520	0.597160	0.722760
C311	C31	0.026300	0.700600	0.733900
H311	H31	0.062500	0.662700	0.688100
H321	H32	0.052500	0.691200	0.797800
H331	H33	0.030500	0.768100	0.716800
C321	C32	0.924360	0.670100	0.732590
C331	C33	0.899310	0.573100	0.736400
C341	C34	0.804300	0.540710	0.730270
C351	C35	0.781300	0.436800	0.732200
H341	H34	0.840400	0.399900	0.731500
H351	H35	0.743000	0.420400	0.676300
H361	H36	0.745300	0.422000	0.790100
C361	C36	0.974500	0.505100	0.737400
N61	N6	0.036840	0.452660	0.736600
O131	O13	0.137530	0.235950	0.772060
O141	O14	0.265480	0.097160	0.777240
C371	C37	0.973700	0.200600	0.766100
H371	H37	0.937500	0.162700	0.811900
H381	H38	0.947500	0.191200	0.702200
H391	H39	0.969500	0.268100	0.783200
C381	C38	0.075640	0.170100	0.767410
C391	C39	0.100690	0.073100	0.763600
C401	C40	0.195700	0.040710	0.769730
C411	C41	0.218700	0.936800	0.767800
H401	H40	0.159600	0.899900	0.768500
H411	H41	0.257000	0.920400	0.823700
H421	H42	0.254700	0.922000	0.709900
C421	C42	0.025500	0.005100	0.762600
N71	N7	0.963160	0.952660	0.763400
O151	O15	0.637530	0.264050	0.227940
O161	O16	0.765480	0.402840	0.222760
C431	C43	0.473700	0.299400	0.233900
H431	H43	0.437500	0.337300	0.188100
H441	H44	0.447500	0.308800	0.297800
H451	H45	0.469500	0.231900	0.216800
C441	C44	0.575640	0.329900	0.232590
C451	C45	0.600690	0.426900	0.236400
C461	C46	0.695700	0.459290	0.230270
C471	C47	0.718700	0.563200	0.232200
H461	H46	0.659600	0.600100	0.231500
H471	H47	0.757000	0.579600	0.176300
H481	H48	0.754700	0.578000	0.290100
C481	C48	0.525500	0.494900	0.237400
N81	N8	0.463160	0.547340	0.236600
O171	O17	0.272060	0.362470	0.764050
O181	O18	0.277240	0.234520	0.902840
C491	C49	0.266100	0.526300	0.799400
H491	H49	0.311900	0.562500	0.837300
H501	H50	0.202200	0.552500	0.808800
H511	H51	0.283200	0.530500	0.731900
C501	C50	0.267410	0.424360	0.829900
C511	C51	0.263600	0.399310	0.926900
C521	C52	0.269730	0.304300	0.959290
C531	C53	0.267800	0.281300	0.063200
H521	H52	0.268500	0.340400	0.100100
H531	H53	0.323700	0.243000	0.079600
H541	H54	0.209900	0.245300	0.078000
C541	C54	0.262600	0.474500	0.994900
N91	N9	0.263400	0.536840	0.047340
O191	O19	0.727940	0.862470	0.735950
O201	O20	0.722760	0.734520	0.597160
C551	C55	0.733900	0.026300	0.700600
H551	H55	0.688100	0.062500	0.662700
H561	H56	0.797800	0.052500	0.691200
H571	H57	0.716800	0.030500	0.768100
C561	C56	0.732590	0.924360	0.670100
C571	C57	0.736400	0.899310	0.573100
C581	C58	0.730270	0.804300	0.540710
C591	C59	0.732200	0.781300	0.436800
H581	H58	0.731500	0.840400	0.399900
H591	H59	0.676300	0.743000	0.420400
H601	H60	0.790100	0.745300	0.422000
C601	C60	0.737400	0.974500	0.505100
N101	N10	0.736600	0.036840	0.452660
O211	O21	0.772060	0.137530	0.235950
O221	O22	0.777240	0.265480	0.097160
C611	C61	0.766100	0.973700	0.200600
H611	H61	0.811900	0.937500	0.162700
H621	H62	0.702200	0.947500	0.191200
H631	H63	0.783200	0.969500	0.268100
C621	C62	0.767410	0.075640	0.170100
C631	C63	0.763600	0.100690	0.073100
C641	C64	0.769730	0.195700	0.040710
C651	C65	0.767800	0.218700	0.936800
H641	H64	0.768500	0.159600	0.899900
H651	H65	0.823700	0.257000	0.920400
H661	H66	0.709900	0.254700	0.922000
C661	C66	0.762600	0.025500	0.005100
N111	N11	0.763400	0.963160	0.952660
O231	O23	0.227940	0.637530	0.264050
O241	O24	0.222760	0.765480	0.402840
C671	C67	0.233900	0.473700	0.299400
H671	H67	0.188100	0.437500	0.337300
H681	H68	0.297800	0.447500	0.308800
H691	H69	0.216800	0.469500	0.231900
C681	C68	0.232590	0.575640	0.329900
C691	C69	0.236400	0.600690	0.426900
C701	C70	0.230270	0.695700	0.459290
C711	C71	0.232200	0.718700	0.563200
H701	H70	0.231500	0.659600	0.600100
H711	H71	0.176300	0.757000	0.579600
H721	H72	0.290100	0.754700	0.578000
C721	C72	0.237400	0.525500	0.494900
N121	N12	0.236600	0.463160	0.547340
Ag11	Ag1	0.125900	0.374100	0.625900
Ag21	Ag2	0.374100	0.625900	0.125900
Ag31	Ag3	0.874100	0.874100	0.874100
Ag41	Ag4	0.625900	0.125900	0.374100
Al11	Al1	0.770640	0.270640	0.229360
Al21	Al2	0.729360	0.729360	0.729360
Al31	Al3	0.229360	0.770640	0.270640
Al41	Al4	0.270640	0.229360	0.770640
