data_KESBOA_freeONLY_PM
_symmetry_space_group_name_H-M	'P1'
_cell_length_a	26.813000
_cell_length_b	12.603500
_cell_length_c	33.472000
_cell_angle_alpha	90.000000
_cell_angle_beta	90.000000
_cell_angle_gamma	90.000000
_symmetry_Int_Tables_number 1

loop_
_symmetry_equiv_pos_as_xyz
'x,y,z'

loop_
_atom_site_label
_atom_site_type_symbol
_atom_site_fract_x
_atom_site_fract_y
_atom_site_fract_z
Ag11	Ag1	0.279990	0.757960	0.637550
Fe11	Fe1	0.431920	0.514440	0.385270
C11	C1	0.344500	0.648700	0.372750
H11	H1	0.348800	0.647200	0.344600
C21	C2	0.306900	0.708000	0.392990
H21	H2	0.281300	0.749600	0.381100
C31	C3	0.314700	0.693400	0.432410
H31	H3	0.296500	0.725300	0.453600
C41	C4	0.355390	0.621200	0.436540
C51	C5	0.376120	0.580500	0.471810
C61	C6	0.415160	0.507800	0.473690
C71	C7	0.432600	0.453500	0.508090
H41	H4	0.421400	0.463800	0.534700
C81	C8	0.468100	0.384000	0.495920
H51	H5	0.486100	0.335400	0.512100
C91	C9	0.472850	0.398400	0.454290
H61	H6	0.496000	0.361100	0.438000
C101	C10	0.353770	0.618900	0.509630
C111	C11	0.381130	0.682900	0.535250
H71	H7	0.414800	0.699700	0.529200
C121	C12	0.359270	0.722400	0.569740
H81	H8	0.378300	0.767100	0.586700
C131	C13	0.286300	0.637100	0.555340
H91	H9	0.253100	0.619400	0.562800
C141	C14	0.304300	0.597800	0.520620
H101	H10	0.283600	0.556100	0.503800
C151	C15	0.449770	0.355400	0.813480
H111	H11	0.470300	0.307300	0.827800
C161	C16	0.439200	0.347700	0.772320
H121	H12	0.450600	0.294500	0.754400
C171	C17	0.409500	0.431400	0.763360
H131	H13	0.396700	0.448000	0.737600
C181	C18	0.400700	0.490200	0.798920
C191	C19	0.371930	0.580000	0.804360
C201	C20	0.364880	0.634100	0.840010
C211	C21	0.334140	0.723400	0.847360
H141	H14	0.314000	0.759100	0.828300
C221	C22	0.338700	0.749000	0.886820
H151	H15	0.322900	0.805900	0.900500
C231	C23	0.371590	0.673400	0.902990
H161	H16	0.381300	0.671600	0.930300
C241	C24	0.346310	0.621300	0.767750
C251	C25	0.312330	0.563300	0.746790
H171	H17	0.302800	0.495000	0.756100
C261	C26	0.291540	0.602900	0.712040
H181	H18	0.268000	0.560900	0.697900
C271	C27	0.335700	0.754700	0.718720
H191	H19	0.343900	0.823200	0.708900
C281	C28	0.358000	0.722300	0.753380
H201	H20	0.380700	0.767000	0.767200
C291	C29	0.989100	0.172500	0.643130
H211	H21	0.960200	0.216100	0.643900
C301	C30	0.036830	0.206200	0.654360
H221	H22	0.045900	0.275000	0.663500
C311	C31	0.067630	0.122100	0.649720
H231	H23	0.102400	0.120800	0.655200
C321	C32	0.038740	0.036400	0.635300
C331	C33	0.054920	0.934900	0.625340
C341	C34	0.024920	0.856000	0.609420
C351	C35	0.041000	0.753100	0.597730
H241	H24	0.074100	0.726300	0.599100
C361	C36	0.999700	0.699700	0.584060
H251	H25	0.998400	0.629100	0.574200
C371	C37	0.959500	0.771900	0.587780
H261	H26	0.926200	0.756000	0.580300
C381	C38	0.108260	0.908900	0.632290
C391	C39	0.121990	0.839500	0.662140
H271	H27	0.097700	0.812100	0.680000
C401	C40	0.171550	0.810000	0.665890
H281	H28	0.180200	0.761500	0.686500
C411	C41	0.194400	0.917000	0.615170
H291	H29	0.219800	0.946000	0.598700
C421	C42	0.145900	0.951800	0.609410
H301	H30	0.138700	0.004500	0.590000
N11	N1	0.372600	0.595800	0.398540
N21	N2	0.440880	0.471000	0.440590
N31	N3	0.312710	0.699800	0.579800
N41	N4	0.426830	0.440200	0.829720
N51	N5	0.387370	0.605900	0.876020
N61	N6	0.303430	0.697300	0.697920
N71	N7	0.989130	0.071200	0.631230
N81	N8	0.973650	0.863600	0.602830
N91	N9	0.207410	0.845600	0.642430
Co11	Co1	0.431920	0.485560	0.885270
Ag21	Ag2	0.779990	0.742040	0.362450
Fe21	Fe2	0.931920	0.985560	0.614730
C431	C43	0.844500	0.851300	0.627250
H311	H31	0.848800	0.852800	0.655400
C441	C44	0.806900	0.792000	0.607010
H321	H32	0.781300	0.750400	0.618900
C451	C45	0.814700	0.806600	0.567590
H331	H33	0.796500	0.774700	0.546400
C461	C46	0.855390	0.878800	0.563460
C471	C47	0.876120	0.919500	0.528190
C481	C48	0.915160	0.992200	0.526310
C491	C49	0.932600	0.046500	0.491910
H341	H34	0.921400	0.036200	0.465300
C501	C50	0.968100	0.116000	0.504080
H351	H35	0.986100	0.164600	0.487900
C511	C51	0.972850	0.101600	0.545710
H361	H36	0.996000	0.138900	0.562000
C521	C52	0.853770	0.881100	0.490370
C531	C53	0.881130	0.817100	0.464750
H371	H37	0.914800	0.800300	0.470800
C541	C54	0.859270	0.777600	0.430260
H381	H38	0.878300	0.732900	0.413300
C551	C55	0.786300	0.862900	0.444660
H391	H39	0.753100	0.880600	0.437200
C561	C56	0.804300	0.902200	0.479380
H401	H40	0.783600	0.943900	0.496200
C571	C57	0.949770	0.144600	0.186520
H411	H41	0.970300	0.192700	0.172200
C581	C58	0.939200	0.152300	0.227680
H421	H42	0.950600	0.205500	0.245600
C591	C59	0.909500	0.068600	0.236640
H431	H43	0.896700	0.052000	0.262400
C601	C60	0.900700	0.009800	0.201080
C611	C61	0.871930	0.920000	0.195640
C621	C62	0.864880	0.865900	0.159990
C631	C63	0.834140	0.776600	0.152640
H441	H44	0.814000	0.740900	0.171700
C641	C64	0.838700	0.751000	0.113180
H451	H45	0.822900	0.694100	0.099500
C651	C65	0.871590	0.826600	0.097010
H461	H46	0.881300	0.828400	0.069700
C661	C66	0.846310	0.878700	0.232250
C671	C67	0.812330	0.936700	0.253210
H471	H47	0.802800	0.005000	0.243900
C681	C68	0.791540	0.897100	0.287960
H481	H48	0.768000	0.939100	0.302100
C691	C69	0.835700	0.745300	0.281280
H491	H49	0.843900	0.676800	0.291100
C701	C70	0.858000	0.777700	0.246620
H501	H50	0.880700	0.733000	0.232800
C711	C71	0.489100	0.327500	0.356870
H511	H51	0.460200	0.283900	0.356100
C721	C72	0.536830	0.293800	0.345640
H521	H52	0.545900	0.225000	0.336500
C731	C73	0.567630	0.377900	0.350280
H531	H53	0.602400	0.379200	0.344800
C741	C74	0.538740	0.463600	0.364700
C751	C75	0.554920	0.565100	0.374660
C761	C76	0.524920	0.644000	0.390580
C771	C77	0.541000	0.746900	0.402270
H541	H54	0.574100	0.773700	0.400900
C781	C78	0.499700	0.800300	0.415940
H551	H55	0.498400	0.870900	0.425800
C791	C79	0.459500	0.728100	0.412220
H561	H56	0.426200	0.744000	0.419700
C801	C80	0.608260	0.591100	0.367710
C811	C81	0.621990	0.660500	0.337860
H571	H57	0.597700	0.687900	0.320000
C821	C82	0.671550	0.690000	0.334110
H581	H58	0.680200	0.738500	0.313500
C831	C83	0.694400	0.583000	0.384830
H591	H59	0.719800	0.554000	0.401300
C841	C84	0.645900	0.548200	0.390590
H601	H60	0.638700	0.495500	0.410000
N101	N10	0.872600	0.904200	0.601460
N111	N11	0.940880	0.029000	0.559410
N121	N12	0.812710	0.800200	0.420200
N131	N13	0.926830	0.059800	0.170280
N141	N14	0.887370	0.894100	0.123980
N151	N15	0.803430	0.802700	0.302080
N161	N16	0.489130	0.428800	0.368770
N171	N17	0.473650	0.636400	0.397170
N181	N18	0.707410	0.654400	0.357570
Co21	Co2	0.931920	0.014440	0.114730
Ag31	Ag3	0.779990	0.257960	0.862450
C851	C85	0.844500	0.148700	0.127250
H611	H61	0.848800	0.147200	0.155400
C861	C86	0.806900	0.208000	0.107010
H621	H62	0.781300	0.249600	0.118900
C871	C87	0.814700	0.193400	0.067590
H631	H63	0.796500	0.225300	0.046400
C881	C88	0.855390	0.121200	0.063460
C891	C89	0.876120	0.080500	0.028190
C901	C90	0.915160	0.007800	0.026310
C911	C91	0.932600	0.953500	0.991910
H641	H64	0.921400	0.963800	0.965300
C921	C92	0.968100	0.884000	0.004080
H651	H65	0.986100	0.835400	0.987900
C931	C93	0.972850	0.898400	0.045710
H661	H66	0.996000	0.861100	0.062000
C941	C94	0.853770	0.118900	0.990370
C951	C95	0.881130	0.182900	0.964750
H671	H67	0.914800	0.199700	0.970800
C961	C96	0.859270	0.222400	0.930260
H681	H68	0.878300	0.267100	0.913300
C971	C97	0.786300	0.137100	0.944660
H691	H69	0.753100	0.119400	0.937200
C981	C98	0.804300	0.097800	0.979380
H701	H70	0.783600	0.056100	0.996200
C991	C99	0.949770	0.855400	0.686520
H711	H71	0.970300	0.807300	0.672200
C1001	C100	0.939200	0.847700	0.727680
H721	H72	0.950600	0.794500	0.745600
C1011	C101	0.909500	0.931400	0.736640
H731	H73	0.896700	0.948000	0.762400
C1021	C102	0.900700	0.990200	0.701080
C1031	C103	0.871930	0.080000	0.695640
C1041	C104	0.864880	0.134100	0.659990
C1051	C105	0.834140	0.223400	0.652640
H741	H74	0.814000	0.259100	0.671700
C1061	C106	0.838700	0.249000	0.613180
H751	H75	0.822900	0.305900	0.599500
C1071	C107	0.871590	0.173400	0.597010
H761	H76	0.881300	0.171600	0.569700
C1081	C108	0.846310	0.121300	0.732250
C1091	C109	0.812330	0.063300	0.753210
H771	H77	0.802800	0.995000	0.743900
C1101	C110	0.791540	0.102900	0.787960
H781	H78	0.768000	0.060900	0.802100
C1111	C111	0.835700	0.254700	0.781280
H791	H79	0.843900	0.323200	0.791100
C1121	C112	0.858000	0.222300	0.746620
H801	H80	0.880700	0.267000	0.732800
C1131	C113	0.489100	0.672500	0.856870
H811	H81	0.460200	0.716100	0.856100
C1141	C114	0.536830	0.706200	0.845640
H821	H82	0.545900	0.775000	0.836500
C1151	C115	0.567630	0.622100	0.850280
H831	H83	0.602400	0.620800	0.844800
C1161	C116	0.538740	0.536400	0.864700
C1171	C117	0.554920	0.434900	0.874660
C1181	C118	0.524920	0.356000	0.890580
C1191	C119	0.541000	0.253100	0.902270
H841	H84	0.574100	0.226300	0.900900
C1201	C120	0.499700	0.199700	0.915940
H851	H85	0.498400	0.129100	0.925800
C1211	C121	0.459500	0.271900	0.912220
H861	H86	0.426200	0.256000	0.919700
C1221	C122	0.608260	0.408900	0.867710
C1231	C123	0.621990	0.339500	0.837860
H871	H87	0.597700	0.312100	0.820000
C1241	C124	0.671550	0.310000	0.834110
H881	H88	0.680200	0.261500	0.813500
C1251	C125	0.694400	0.417000	0.884830
H891	H89	0.719800	0.446000	0.901300
C1261	C126	0.645900	0.451800	0.890590
H901	H90	0.638700	0.504500	0.910000
N191	N19	0.872600	0.095800	0.101460
N201	N20	0.940880	0.971000	0.059410
N211	N21	0.812710	0.199800	0.920200
N221	N22	0.926830	0.940200	0.670280
N231	N23	0.887370	0.105900	0.623980
N241	N24	0.803430	0.197300	0.802080
N251	N25	0.489130	0.571200	0.868770
N261	N26	0.473650	0.363600	0.897170
N271	N27	0.707410	0.345600	0.857570
Ag41	Ag4	0.279990	0.242040	0.137550
C1271	C127	0.344500	0.351300	0.872750
H911	H91	0.348800	0.352800	0.844600
C1281	C128	0.306900	0.292000	0.892990
H921	H92	0.281300	0.250400	0.881100
C1291	C129	0.314700	0.306600	0.932410
H931	H93	0.296500	0.274700	0.953600
C1301	C130	0.355390	0.378800	0.936540
C1311	C131	0.376120	0.419500	0.971810
C1321	C132	0.415160	0.492200	0.973690
C1331	C133	0.432600	0.546500	0.008090
H941	H94	0.421400	0.536200	0.034700
C1341	C134	0.468100	0.616000	0.995920
H951	H95	0.486100	0.664600	0.012100
C1351	C135	0.472850	0.601600	0.954290
H961	H96	0.496000	0.638900	0.938000
C1361	C136	0.353770	0.381100	0.009630
C1371	C137	0.381130	0.317100	0.035250
H971	H97	0.414800	0.300300	0.029200
C1381	C138	0.359270	0.277600	0.069740
H981	H98	0.378300	0.232900	0.086700
C1391	C139	0.286300	0.362900	0.055340
H991	H99	0.253100	0.380600	0.062800
C1401	C140	0.304300	0.402200	0.020620
H1001	H100	0.283600	0.443900	0.003800
C1411	C141	0.449770	0.644600	0.313480
H1011	H101	0.470300	0.692700	0.327800
C1421	C142	0.439200	0.652300	0.272320
H1021	H102	0.450600	0.705500	0.254400
C1431	C143	0.409500	0.568600	0.263360
H1031	H103	0.396700	0.552000	0.237600
C1441	C144	0.400700	0.509800	0.298920
C1451	C145	0.371930	0.420000	0.304360
C1461	C146	0.364880	0.365900	0.340010
C1471	C147	0.334140	0.276600	0.347360
H1041	H104	0.314000	0.240900	0.328300
C1481	C148	0.338700	0.251000	0.386820
H1051	H105	0.322900	0.194100	0.400500
C1491	C149	0.371590	0.326600	0.402990
H1061	H106	0.381300	0.328400	0.430300
C1501	C150	0.346310	0.378700	0.267750
C1511	C151	0.312330	0.436700	0.246790
H1071	H107	0.302800	0.505000	0.256100
C1521	C152	0.291540	0.397100	0.212040
H1081	H108	0.268000	0.439100	0.197900
C1531	C153	0.335700	0.245300	0.218720
H1091	H109	0.343900	0.176800	0.208900
C1541	C154	0.358000	0.277700	0.253380
H1101	H110	0.380700	0.233000	0.267200
C1551	C155	0.989100	0.827500	0.143130
H1111	H111	0.960200	0.783900	0.143900
C1561	C156	0.036830	0.793800	0.154360
H1121	H112	0.045900	0.725000	0.163500
C1571	C157	0.067630	0.877900	0.149720
H1131	H113	0.102400	0.879200	0.155200
C1581	C158	0.038740	0.963600	0.135300
C1591	C159	0.054920	0.065100	0.125340
C1601	C160	0.024920	0.144000	0.109420
C1611	C161	0.041000	0.246900	0.097730
H1141	H114	0.074100	0.273700	0.099100
C1621	C162	0.999700	0.300300	0.084060
H1151	H115	0.998400	0.370900	0.074200
C1631	C163	0.959500	0.228100	0.087780
H1161	H116	0.926200	0.244000	0.080300
C1641	C164	0.108260	0.091100	0.132290
C1651	C165	0.121990	0.160500	0.162140
H1171	H117	0.097700	0.187900	0.180000
C1661	C166	0.171550	0.190000	0.165890
H1181	H118	0.180200	0.238500	0.186500
C1671	C167	0.194400	0.083000	0.115170
H1191	H119	0.219800	0.054000	0.098700
C1681	C168	0.145900	0.048200	0.109410
H1201	H120	0.138700	0.995500	0.090000
N281	N28	0.372600	0.404200	0.898540
N291	N29	0.440880	0.529000	0.940590
N301	N30	0.312710	0.300200	0.079800
N311	N31	0.426830	0.559800	0.329720
N321	N32	0.387370	0.394100	0.376020
N331	N33	0.303430	0.302700	0.197920
N341	N34	0.989130	0.928800	0.131230
N351	N35	0.973650	0.136400	0.102830
N361	N36	0.207410	0.154400	0.142430
Ag51	Ag5	0.220010	0.742040	0.137550
Fe31	Fe3	0.068080	0.985560	0.885270
C1691	C169	0.155500	0.851300	0.872750
H1211	H121	0.151200	0.852800	0.844600
C1701	C170	0.193100	0.792000	0.892990
H1221	H122	0.218700	0.750400	0.881100
C1711	C171	0.185300	0.806600	0.932410
H1231	H123	0.203500	0.774700	0.953600
C1721	C172	0.144610	0.878800	0.936540
C1731	C173	0.123880	0.919500	0.971810
C1741	C174	0.084840	0.992200	0.973690
C1751	C175	0.067400	0.046500	0.008090
H1241	H124	0.078600	0.036200	0.034700
C1761	C176	0.031900	0.116000	0.995920
H1251	H125	0.013900	0.164600	0.012100
C1771	C177	0.027150	0.101600	0.954290
H1261	H126	0.004000	0.138900	0.938000
C1781	C178	0.146230	0.881100	0.009630
C1791	C179	0.118870	0.817100	0.035250
H1271	H127	0.085200	0.800300	0.029200
C1801	C180	0.140730	0.777600	0.069740
H1281	H128	0.121700	0.732900	0.086700
C1811	C181	0.213700	0.862900	0.055340
H1291	H129	0.246900	0.880600	0.062800
C1821	C182	0.195700	0.902200	0.020620
H1301	H130	0.216400	0.943900	0.003800
C1831	C183	0.050230	0.144600	0.313480
H1311	H131	0.029700	0.192700	0.327800
C1841	C184	0.060800	0.152300	0.272320
H1321	H132	0.049400	0.205500	0.254400
C1851	C185	0.090500	0.068600	0.263360
H1331	H133	0.103300	0.052000	0.237600
C1861	C186	0.099300	0.009800	0.298920
C1871	C187	0.128070	0.920000	0.304360
C1881	C188	0.135120	0.865900	0.340010
C1891	C189	0.165860	0.776600	0.347360
H1341	H134	0.186000	0.740900	0.328300
C1901	C190	0.161300	0.751000	0.386820
H1351	H135	0.177100	0.694100	0.400500
C1911	C191	0.128410	0.826600	0.402990
H1361	H136	0.118700	0.828400	0.430300
C1921	C192	0.153690	0.878700	0.267750
C1931	C193	0.187670	0.936700	0.246790
H1371	H137	0.197200	0.005000	0.256100
C1941	C194	0.208460	0.897100	0.212040
H1381	H138	0.232000	0.939100	0.197900
C1951	C195	0.164300	0.745300	0.218720
H1391	H139	0.156100	0.676800	0.208900
C1961	C196	0.142000	0.777700	0.253380
H1401	H140	0.119300	0.733000	0.267200
C1971	C197	0.510900	0.327500	0.143130
H1411	H141	0.539800	0.283900	0.143900
C1981	C198	0.463170	0.293800	0.154360
H1421	H142	0.454100	0.225000	0.163500
C1991	C199	0.432370	0.377900	0.149720
H1431	H143	0.397600	0.379200	0.155200
C2001	C200	0.461260	0.463600	0.135300
C2011	C201	0.445080	0.565100	0.125340
C2021	C202	0.475080	0.644000	0.109420
C2031	C203	0.459000	0.746900	0.097730
H1441	H144	0.425900	0.773700	0.099100
C2041	C204	0.500300	0.800300	0.084060
H1451	H145	0.501600	0.870900	0.074200
C2051	C205	0.540500	0.728100	0.087780
H1461	H146	0.573800	0.744000	0.080300
C2061	C206	0.391740	0.591100	0.132290
C2071	C207	0.378010	0.660500	0.162140
H1471	H147	0.402300	0.687900	0.180000
C2081	C208	0.328450	0.690000	0.165890
H1481	H148	0.319800	0.738500	0.186500
C2091	C209	0.305600	0.583000	0.115170
H1491	H149	0.280200	0.554000	0.098700
C2101	C210	0.354100	0.548200	0.109410
H1501	H150	0.361300	0.495500	0.090000
N371	N37	0.127400	0.904200	0.898540
N381	N38	0.059120	0.029000	0.940590
N391	N39	0.187290	0.800200	0.079800
N401	N40	0.073170	0.059800	0.329720
N411	N41	0.112630	0.894100	0.376020
N421	N42	0.196570	0.802700	0.197920
N431	N43	0.510870	0.428800	0.131230
N441	N44	0.526350	0.636400	0.102830
N451	N45	0.292590	0.654400	0.142430
Co31	Co3	0.068080	0.014440	0.385270
Ag61	Ag6	0.720010	0.757960	0.862450
Fe41	Fe4	0.568080	0.514440	0.114730
C2111	C211	0.655500	0.648700	0.127250
H1511	H151	0.651200	0.647200	0.155400
C2121	C212	0.693100	0.708000	0.107010
H1521	H152	0.718700	0.749600	0.118900
C2131	C213	0.685300	0.693400	0.067590
H1531	H153	0.703500	0.725300	0.046400
C2141	C214	0.644610	0.621200	0.063460
C2151	C215	0.623880	0.580500	0.028190
C2161	C216	0.584840	0.507800	0.026310
C2171	C217	0.567400	0.453500	0.991910
H1541	H154	0.578600	0.463800	0.965300
C2181	C218	0.531900	0.384000	0.004080
H1551	H155	0.513900	0.335400	0.987900
C2191	C219	0.527150	0.398400	0.045710
H1561	H156	0.504000	0.361100	0.062000
C2201	C220	0.646230	0.618900	0.990370
C2211	C221	0.618870	0.682900	0.964750
H1571	H157	0.585200	0.699700	0.970800
C2221	C222	0.640730	0.722400	0.930260
H1581	H158	0.621700	0.767100	0.913300
C2231	C223	0.713700	0.637100	0.944660
H1591	H159	0.746900	0.619400	0.937200
C2241	C224	0.695700	0.597800	0.979380
H1601	H160	0.716400	0.556100	0.996200
C2251	C225	0.550230	0.355400	0.686520
H1611	H161	0.529700	0.307300	0.672200
C2261	C226	0.560800	0.347700	0.727680
H1621	H162	0.549400	0.294500	0.745600
C2271	C227	0.590500	0.431400	0.736640
H1631	H163	0.603300	0.448000	0.762400
C2281	C228	0.599300	0.490200	0.701080
C2291	C229	0.628070	0.580000	0.695640
C2301	C230	0.635120	0.634100	0.659990
C2311	C231	0.665860	0.723400	0.652640
H1641	H164	0.686000	0.759100	0.671700
C2321	C232	0.661300	0.749000	0.613180
H1651	H165	0.677100	0.805900	0.599500
C2331	C233	0.628410	0.673400	0.597010
H1661	H166	0.618700	0.671600	0.569700
C2341	C234	0.653690	0.621300	0.732250
C2351	C235	0.687670	0.563300	0.753210
H1671	H167	0.697200	0.495000	0.743900
C2361	C236	0.708460	0.602900	0.787960
H1681	H168	0.732000	0.560900	0.802100
C2371	C237	0.664300	0.754700	0.781280
H1691	H169	0.656100	0.823200	0.791100
C2381	C238	0.642000	0.722300	0.746620
H1701	H170	0.619300	0.767000	0.732800
C2391	C239	0.010900	0.172500	0.856870
H1711	H171	0.039800	0.216100	0.856100
C2401	C240	0.963170	0.206200	0.845640
H1721	H172	0.954100	0.275000	0.836500
C2411	C241	0.932370	0.122100	0.850280
H1731	H173	0.897600	0.120800	0.844800
C2421	C242	0.961260	0.036400	0.864700
C2431	C243	0.945080	0.934900	0.874660
C2441	C244	0.975080	0.856000	0.890580
C2451	C245	0.959000	0.753100	0.902270
H1741	H174	0.925900	0.726300	0.900900
C2461	C246	0.000300	0.699700	0.915940
H1751	H175	0.001600	0.629100	0.925800
C2471	C247	0.040500	0.771900	0.912220
H1761	H176	0.073800	0.756000	0.919700
C2481	C248	0.891740	0.908900	0.867710
C2491	C249	0.878010	0.839500	0.837860
H1771	H177	0.902300	0.812100	0.820000
C2501	C250	0.828450	0.810000	0.834110
H1781	H178	0.819800	0.761500	0.813500
C2511	C251	0.805600	0.917000	0.884830
H1791	H179	0.780200	0.946000	0.901300
C2521	C252	0.854100	0.951800	0.890590
H1801	H180	0.861300	0.004500	0.910000
N461	N46	0.627400	0.595800	0.101460
N471	N47	0.559120	0.471000	0.059410
N481	N48	0.687290	0.699800	0.920200
N491	N49	0.573170	0.440200	0.670280
N501	N50	0.612630	0.605900	0.623980
N511	N51	0.696570	0.697300	0.802080
N521	N52	0.010870	0.071200	0.868770
N531	N53	0.026350	0.863600	0.897170
N541	N54	0.792590	0.845600	0.857570
Co41	Co4	0.568080	0.485560	0.614730
Ag71	Ag7	0.720010	0.242040	0.362450
C2531	C253	0.655500	0.351300	0.627250
H1811	H181	0.651200	0.352800	0.655400
C2541	C254	0.693100	0.292000	0.607010
H1821	H182	0.718700	0.250400	0.618900
C2551	C255	0.685300	0.306600	0.567590
H1831	H183	0.703500	0.274700	0.546400
C2561	C256	0.644610	0.378800	0.563460
C2571	C257	0.623880	0.419500	0.528190
C2581	C258	0.584840	0.492200	0.526310
C2591	C259	0.567400	0.546500	0.491910
H1841	H184	0.578600	0.536200	0.465300
C2601	C260	0.531900	0.616000	0.504080
H1851	H185	0.513900	0.664600	0.487900
C2611	C261	0.527150	0.601600	0.545710
H1861	H186	0.504000	0.638900	0.562000
C2621	C262	0.646230	0.381100	0.490370
C2631	C263	0.618870	0.317100	0.464750
H1871	H187	0.585200	0.300300	0.470800
C2641	C264	0.640730	0.277600	0.430260
H1881	H188	0.621700	0.232900	0.413300
C2651	C265	0.713700	0.362900	0.444660
H1891	H189	0.746900	0.380600	0.437200
C2661	C266	0.695700	0.402200	0.479380
H1901	H190	0.716400	0.443900	0.496200
C2671	C267	0.550230	0.644600	0.186520
H1911	H191	0.529700	0.692700	0.172200
C2681	C268	0.560800	0.652300	0.227680
H1921	H192	0.549400	0.705500	0.245600
C2691	C269	0.590500	0.568600	0.236640
H1931	H193	0.603300	0.552000	0.262400
C2701	C270	0.599300	0.509800	0.201080
C2711	C271	0.628070	0.420000	0.195640
C2721	C272	0.635120	0.365900	0.159990
C2731	C273	0.665860	0.276600	0.152640
H1941	H194	0.686000	0.240900	0.171700
C2741	C274	0.661300	0.251000	0.113180
H1951	H195	0.677100	0.194100	0.099500
C2751	C275	0.628410	0.326600	0.097010
H1961	H196	0.618700	0.328400	0.069700
C2761	C276	0.653690	0.378700	0.232250
C2771	C277	0.687670	0.436700	0.253210
H1971	H197	0.697200	0.505000	0.243900
C2781	C278	0.708460	0.397100	0.287960
H1981	H198	0.732000	0.439100	0.302100
C2791	C279	0.664300	0.245300	0.281280
H1991	H199	0.656100	0.176800	0.291100
C2801	C280	0.642000	0.277700	0.246620
H2001	H200	0.619300	0.233000	0.232800
C2811	C281	0.010900	0.827500	0.356870
H2011	H201	0.039800	0.783900	0.356100
C2821	C282	0.963170	0.793800	0.345640
H2021	H202	0.954100	0.725000	0.336500
C2831	C283	0.932370	0.877900	0.350280
H2031	H203	0.897600	0.879200	0.344800
C2841	C284	0.961260	0.963600	0.364700
C2851	C285	0.945080	0.065100	0.374660
C2861	C286	0.975080	0.144000	0.390580
C2871	C287	0.959000	0.246900	0.402270
H2041	H204	0.925900	0.273700	0.400900
C2881	C288	0.000300	0.300300	0.415940
H2051	H205	0.001600	0.370900	0.425800
C2891	C289	0.040500	0.228100	0.412220
H2061	H206	0.073800	0.244000	0.419700
C2901	C290	0.891740	0.091100	0.367710
C2911	C291	0.878010	0.160500	0.337860
H2071	H207	0.902300	0.187900	0.320000
C2921	C292	0.828450	0.190000	0.334110
H2081	H208	0.819800	0.238500	0.313500
C2931	C293	0.805600	0.083000	0.384830
H2091	H209	0.780200	0.054000	0.401300
C2941	C294	0.854100	0.048200	0.390590
H2101	H210	0.861300	0.995500	0.410000
N551	N55	0.627400	0.404200	0.601460
N561	N56	0.559120	0.529000	0.559410
N571	N57	0.687290	0.300200	0.420200
N581	N58	0.573170	0.559800	0.170280
N591	N59	0.612630	0.394100	0.123980
N601	N60	0.696570	0.302700	0.302080
N611	N61	0.010870	0.928800	0.368770
N621	N62	0.026350	0.136400	0.397170
N631	N63	0.792590	0.154400	0.357570
Ag81	Ag8	0.220010	0.257960	0.637550
C2951	C295	0.155500	0.148700	0.372750
H2111	H211	0.151200	0.147200	0.344600
C2961	C296	0.193100	0.208000	0.392990
H2121	H212	0.218700	0.249600	0.381100
C2971	C297	0.185300	0.193400	0.432410
H2131	H213	0.203500	0.225300	0.453600
C2981	C298	0.144610	0.121200	0.436540
C2991	C299	0.123880	0.080500	0.471810
C3001	C300	0.084840	0.007800	0.473690
C3011	C301	0.067400	0.953500	0.508090
H2141	H214	0.078600	0.963800	0.534700
C3021	C302	0.031900	0.884000	0.495920
H2151	H215	0.013900	0.835400	0.512100
C3031	C303	0.027150	0.898400	0.454290
H2161	H216	0.004000	0.861100	0.438000
C3041	C304	0.146230	0.118900	0.509630
C3051	C305	0.118870	0.182900	0.535250
H2171	H217	0.085200	0.199700	0.529200
C3061	C306	0.140730	0.222400	0.569740
H2181	H218	0.121700	0.267100	0.586700
C3071	C307	0.213700	0.137100	0.555340
H2191	H219	0.246900	0.119400	0.562800
C3081	C308	0.195700	0.097800	0.520620
H2201	H220	0.216400	0.056100	0.503800
C3091	C309	0.050230	0.855400	0.813480
H2211	H221	0.029700	0.807300	0.827800
C3101	C310	0.060800	0.847700	0.772320
H2221	H222	0.049400	0.794500	0.754400
C3111	C311	0.090500	0.931400	0.763360
H2231	H223	0.103300	0.948000	0.737600
C3121	C312	0.099300	0.990200	0.798920
C3131	C313	0.128070	0.080000	0.804360
C3141	C314	0.135120	0.134100	0.840010
C3151	C315	0.165860	0.223400	0.847360
H2241	H224	0.186000	0.259100	0.828300
C3161	C316	0.161300	0.249000	0.886820
H2251	H225	0.177100	0.305900	0.900500
C3171	C317	0.128410	0.173400	0.902990
H2261	H226	0.118700	0.171600	0.930300
C3181	C318	0.153690	0.121300	0.767750
C3191	C319	0.187670	0.063300	0.746790
H2271	H227	0.197200	0.995000	0.756100
C3201	C320	0.208460	0.102900	0.712040
H2281	H228	0.232000	0.060900	0.697900
C3211	C321	0.164300	0.254700	0.718720
H2291	H229	0.156100	0.323200	0.708900
C3221	C322	0.142000	0.222300	0.753380
H2301	H230	0.119300	0.267000	0.767200
C3231	C323	0.510900	0.672500	0.643130
H2311	H231	0.539800	0.716100	0.643900
C3241	C324	0.463170	0.706200	0.654360
H2321	H232	0.454100	0.775000	0.663500
C3251	C325	0.432370	0.622100	0.649720
H2331	H233	0.397600	0.620800	0.655200
C3261	C326	0.461260	0.536400	0.635300
C3271	C327	0.445080	0.434900	0.625340
C3281	C328	0.475080	0.356000	0.609420
C3291	C329	0.459000	0.253100	0.597730
H2341	H234	0.425900	0.226300	0.599100
C3301	C330	0.500300	0.199700	0.584060
H2351	H235	0.501600	0.129100	0.574200
C3311	C331	0.540500	0.271900	0.587780
H2361	H236	0.573800	0.256000	0.580300
C3321	C332	0.391740	0.408900	0.632290
C3331	C333	0.378010	0.339500	0.662140
H2371	H237	0.402300	0.312100	0.680000
C3341	C334	0.328450	0.310000	0.665890
H2381	H238	0.319800	0.261500	0.686500
C3351	C335	0.305600	0.417000	0.615170
H2391	H239	0.280200	0.446000	0.598700
C3361	C336	0.354100	0.451800	0.609410
H2401	H240	0.361300	0.504500	0.590000
N641	N64	0.127400	0.095800	0.398540
N651	N65	0.059120	0.971000	0.440590
N661	N66	0.187290	0.199800	0.579800
N671	N67	0.073170	0.940200	0.829720
N681	N68	0.112630	0.105900	0.876020
N691	N69	0.196570	0.197300	0.697920
N701	N70	0.510870	0.571200	0.631230
N711	N71	0.526350	0.363600	0.602830
N721	N72	0.292590	0.345600	0.642430
