data_KESBUG_freeONLY_PM
_symmetry_space_group_name_H-M	'P1'
_cell_length_a	26.939000
_cell_length_b	12.335000
_cell_length_c	33.458000
_cell_angle_alpha	90.000000
_cell_angle_beta	90.000000
_cell_angle_gamma	90.000000
_symmetry_Int_Tables_number 1

loop_
_symmetry_equiv_pos_as_xyz
'x,y,z'

loop_
_atom_site_label
_atom_site_type_symbol
_atom_site_fract_x
_atom_site_fract_y
_atom_site_fract_z
Ag11	Ag1	0.778890	0.261240	0.639870
Fe11	Fe1	0.431230	0.477440	0.613770
C11	C1	0.488300	0.664900	0.644190
H11	H1	0.460000	0.710700	0.644000
C21	C2	0.535400	0.697600	0.658200
H21	H2	0.544100	0.766100	0.669100
C31	C3	0.565200	0.611900	0.653000
H31	H3	0.599600	0.609100	0.659200
C41	C4	0.536700	0.526000	0.636760
C51	C5	0.552500	0.421000	0.625790
C61	C6	0.523900	0.343000	0.608730
C71	C7	0.539100	0.236900	0.596100
H41	H4	0.571500	0.206900	0.597900
C81	C8	0.497000	0.186700	0.580800
H51	H5	0.494800	0.115300	0.570300
C91	C9	0.459100	0.261300	0.583900
H61	H6	0.426200	0.247100	0.575100
C101	C10	0.605800	0.394800	0.633400
C111	C11	0.619200	0.317600	0.660720
H71	H7	0.594700	0.282200	0.676400
C121	C12	0.667800	0.291900	0.665280
H81	H8	0.676200	0.238400	0.684600
C131	C13	0.691300	0.415800	0.619000
H91	H9	0.716900	0.452500	0.605000
C141	C14	0.644100	0.446900	0.611900
H101	H10	0.636800	0.502200	0.593000
C151	C15	0.970800	0.898100	0.454320
H111	H11	0.993300	0.859000	0.437900
C161	C16	0.966100	0.885200	0.495900
H121	H12	0.984200	0.835800	0.512100
C171	C17	0.931800	0.954700	0.508500
H131	H13	0.921300	0.965500	0.535300
C181	C18	0.913900	0.009100	0.474500
C191	C19	0.873300	0.086300	0.472100
C201	C20	0.853800	0.125500	0.437700
C211	C21	0.811500	0.196700	0.433700
H141	H14	0.792400	0.227400	0.454800
C221	C22	0.804400	0.211100	0.393800
H151	H15	0.778700	0.251500	0.381400
C231	C23	0.843100	0.153700	0.374300
H161	H16	0.847800	0.151800	0.346200
C241	C24	0.851500	0.120300	0.510640
C251	C25	0.880700	0.187600	0.537500
H171	H17	0.914200	0.205400	0.531400
C261	C26	0.858800	0.225000	0.572200
H181	H18	0.878300	0.266900	0.590100
C271	C27	0.785700	0.137600	0.557500
H191	H19	0.753000	0.117900	0.565100
C281	C28	0.804120	0.096000	0.522600
H201	H20	0.784000	0.050000	0.506600
C291	C29	0.868300	0.167500	0.901000
H211	H21	0.875400	0.165900	0.928800
C301	C30	0.837000	0.243100	0.882800
H221	H22	0.818700	0.299500	0.895300
C311	C31	0.838500	0.218000	0.842600
H231	H23	0.820800	0.253900	0.821900
C321	C32	0.871100	0.129400	0.837800
C331	C33	0.881300	0.073900	0.802300
C341	C34	0.908000	0.980100	0.799200
C351	C35	0.916100	0.918400	0.763600
H241	H24	0.905300	0.935900	0.737300
C361	C36	0.942700	0.828400	0.775100
H251	H25	0.955200	0.772900	0.758200
C371	C37	0.947900	0.834700	0.816700
H261	H26	0.964100	0.781300	0.832500
C381	C38	0.858500	0.120900	0.764500
C391	C39	0.821500	0.059600	0.743600
H271	H27	0.811400	0.990200	0.752800
C401	C40	0.801100	0.104500	0.709600
H281	H28	0.775600	0.066100	0.696000
C411	C41	0.850100	0.258300	0.714800
H291	H29	0.859300	0.326900	0.704200
C421	C42	0.872500	0.221100	0.750200
H301	H30	0.896600	0.263600	0.763800
N11	N1	0.488020	0.563000	0.631230
N21	N2	0.472870	0.355700	0.600280
N31	N3	0.704800	0.337200	0.644320
N41	N4	0.939120	0.973500	0.441430
N51	N5	0.871470	0.103700	0.400120
N61	N6	0.811140	0.205000	0.581920
N71	N7	0.887140	0.097200	0.874320
N81	N8	0.928020	0.921400	0.831210
N91	N9	0.815400	0.197400	0.695560
Co11	Co1	0.931230	0.022560	0.386230
Ag21	Ag2	0.278890	0.238760	0.360130
C431	C43	0.988300	0.835100	0.355810
H311	H31	0.960000	0.789300	0.356000
C441	C44	0.035400	0.802400	0.341800
H321	H32	0.044100	0.733900	0.330900
C451	C45	0.065200	0.888100	0.347000
H331	H33	0.099600	0.890900	0.340800
C461	C46	0.036700	0.974000	0.363240
C471	C47	0.052500	0.079000	0.374210
C481	C48	0.023900	0.157000	0.391270
C491	C49	0.039100	0.263100	0.403900
H341	H34	0.071500	0.293100	0.402100
C501	C50	0.997000	0.313300	0.419200
H351	H35	0.994800	0.384700	0.429700
C511	C51	0.959100	0.238700	0.416100
H361	H36	0.926200	0.252900	0.424900
C521	C52	0.105800	0.105200	0.366600
C531	C53	0.119200	0.182400	0.339280
H371	H37	0.094700	0.217800	0.323600
C541	C54	0.167800	0.208100	0.334720
H381	H38	0.176200	0.261600	0.315400
C551	C55	0.191300	0.084200	0.381000
H391	H39	0.216900	0.047500	0.395000
C561	C56	0.144100	0.053100	0.388100
H401	H40	0.136800	0.997800	0.407000
C571	C57	0.470800	0.601900	0.545680
H411	H41	0.493300	0.641000	0.562100
C581	C58	0.466100	0.614800	0.504100
H421	H42	0.484200	0.664200	0.487900
C591	C59	0.431800	0.545300	0.491500
H431	H43	0.421300	0.534500	0.464700
C601	C60	0.413900	0.490900	0.525500
C611	C61	0.373300	0.413700	0.527900
C621	C62	0.353800	0.374500	0.562300
C631	C63	0.311500	0.303300	0.566300
H441	H44	0.292400	0.272600	0.545200
C641	C64	0.304400	0.288900	0.606200
H451	H45	0.278700	0.248500	0.618600
C651	C65	0.343100	0.346300	0.625700
H461	H46	0.347800	0.348200	0.653800
C661	C66	0.351500	0.379700	0.489360
C671	C67	0.380700	0.312400	0.462500
H471	H47	0.414200	0.294600	0.468600
C681	C68	0.358800	0.275000	0.427800
H481	H48	0.378300	0.233100	0.409900
C691	C69	0.285700	0.362400	0.442500
H491	H49	0.253000	0.382100	0.434900
C701	C70	0.304120	0.404000	0.477400
H501	H50	0.284000	0.450000	0.493400
C711	C71	0.368300	0.332500	0.099000
H511	H51	0.375400	0.334100	0.071200
C721	C72	0.337000	0.256900	0.117200
H521	H52	0.318700	0.200500	0.104700
C731	C73	0.338500	0.282000	0.157400
H531	H53	0.320800	0.246100	0.178100
C741	C74	0.371100	0.370600	0.162200
C751	C75	0.381300	0.426100	0.197700
C761	C76	0.408000	0.519900	0.200800
C771	C77	0.416100	0.581600	0.236400
H541	H54	0.405300	0.564100	0.262700
C781	C78	0.442700	0.671600	0.224900
H551	H55	0.455200	0.727100	0.241800
C791	C79	0.447900	0.665300	0.183300
H561	H56	0.464100	0.718700	0.167500
C801	C80	0.358500	0.379100	0.235500
C811	C81	0.321500	0.440400	0.256400
H571	H57	0.311400	0.509800	0.247200
C821	C82	0.301100	0.395500	0.290400
H581	H58	0.275600	0.433900	0.304000
C831	C83	0.350100	0.241700	0.285200
H591	H59	0.359300	0.173100	0.295800
C841	C84	0.372500	0.278900	0.249800
H601	H60	0.396600	0.236400	0.236200
N101	N10	0.988020	0.937000	0.368770
N111	N11	0.972870	0.144300	0.399720
N121	N12	0.204800	0.162800	0.355680
N131	N13	0.439120	0.526500	0.558570
N141	N14	0.371470	0.396300	0.599880
N151	N15	0.311140	0.295000	0.418080
N161	N16	0.387140	0.402800	0.125680
N171	N17	0.428020	0.578600	0.168790
N181	N18	0.315400	0.302600	0.304440
Ag31	Ag3	0.278890	0.761240	0.860130
Fe21	Fe2	0.931230	0.977440	0.886230
C851	C85	0.988300	0.164900	0.855810
H611	H61	0.960000	0.210700	0.856000
C861	C86	0.035400	0.197600	0.841800
H621	H62	0.044100	0.266100	0.830900
C871	C87	0.065200	0.111900	0.847000
H631	H63	0.099600	0.109100	0.840800
C881	C88	0.036700	0.026000	0.863240
C891	C89	0.052500	0.921000	0.874210
C901	C90	0.023900	0.843000	0.891270
C911	C91	0.039100	0.736900	0.903900
H641	H64	0.071500	0.706900	0.902100
C921	C92	0.997000	0.686700	0.919200
H651	H65	0.994800	0.615300	0.929700
C931	C93	0.959100	0.761300	0.916100
H661	H66	0.926200	0.747100	0.924900
C941	C94	0.105800	0.894800	0.866600
C951	C95	0.119200	0.817600	0.839280
H671	H67	0.094700	0.782200	0.823600
C961	C96	0.167800	0.791900	0.834720
H681	H68	0.176200	0.738400	0.815400
C971	C97	0.191300	0.915800	0.881000
H691	H69	0.216900	0.952500	0.895000
C981	C98	0.144100	0.946900	0.888100
H701	H70	0.136800	0.002200	0.907000
C991	C99	0.470800	0.398100	0.045680
H711	H71	0.493300	0.359000	0.062100
C1001	C100	0.466100	0.385200	0.004100
H721	H72	0.484200	0.335800	0.987900
C1011	C101	0.431800	0.454700	0.991500
H731	H73	0.421300	0.465500	0.964700
C1021	C102	0.413900	0.509100	0.025500
C1031	C103	0.373300	0.586300	0.027900
C1041	C104	0.353800	0.625500	0.062300
C1051	C105	0.311500	0.696700	0.066300
H741	H74	0.292400	0.727400	0.045200
C1061	C106	0.304400	0.711100	0.106200
H751	H75	0.278700	0.751500	0.118600
C1071	C107	0.343100	0.653700	0.125700
H761	H76	0.347800	0.651800	0.153800
C1081	C108	0.351500	0.620300	0.989360
C1091	C109	0.380700	0.687600	0.962500
H771	H77	0.414200	0.705400	0.968600
C1101	C110	0.358800	0.725000	0.927800
H781	H78	0.378300	0.766900	0.909900
C1111	C111	0.285700	0.637600	0.942500
H791	H79	0.253000	0.617900	0.934900
C1121	C112	0.304120	0.596000	0.977400
H801	H80	0.284000	0.550000	0.993400
C1131	C113	0.368300	0.667500	0.599000
H811	H81	0.375400	0.665900	0.571200
C1141	C114	0.337000	0.743100	0.617200
H821	H82	0.318700	0.799500	0.604700
C1151	C115	0.338500	0.718000	0.657400
H831	H83	0.320800	0.753900	0.678100
C1161	C116	0.371100	0.629400	0.662200
C1171	C117	0.381300	0.573900	0.697700
C1181	C118	0.408000	0.480100	0.700800
C1191	C119	0.416100	0.418400	0.736400
H841	H84	0.405300	0.435900	0.762700
C1201	C120	0.442700	0.328400	0.724900
H851	H85	0.455200	0.272900	0.741800
C1211	C121	0.447900	0.334700	0.683300
H861	H86	0.464100	0.281300	0.667500
C1221	C122	0.358500	0.620900	0.735500
C1231	C123	0.321500	0.559600	0.756400
H871	H87	0.311400	0.490200	0.747200
C1241	C124	0.301100	0.604500	0.790400
H881	H88	0.275600	0.566100	0.804000
C1251	C125	0.350100	0.758300	0.785200
H891	H89	0.359300	0.826900	0.795800
C1261	C126	0.372500	0.721100	0.749800
H901	H90	0.396600	0.763600	0.736200
N191	N19	0.988020	0.063000	0.868770
N201	N20	0.972870	0.855700	0.899720
N211	N21	0.204800	0.837200	0.855680
N221	N22	0.439120	0.473500	0.058570
N231	N23	0.371470	0.603700	0.099880
N241	N24	0.311140	0.705000	0.918080
N251	N25	0.387140	0.597200	0.625680
N261	N26	0.428020	0.421400	0.668790
N271	N27	0.315400	0.697400	0.804440
Co21	Co2	0.431230	0.522560	0.113770
Ag41	Ag4	0.778890	0.738760	0.139870
C1271	C127	0.488300	0.335100	0.144190
H911	H91	0.460000	0.289300	0.144000
C1281	C128	0.535400	0.302400	0.158200
H921	H92	0.544100	0.233900	0.169100
C1291	C129	0.565200	0.388100	0.153000
H931	H93	0.599600	0.390900	0.159200
C1301	C130	0.536700	0.474000	0.136760
C1311	C131	0.552500	0.579000	0.125790
C1321	C132	0.523900	0.657000	0.108730
C1331	C133	0.539100	0.763100	0.096100
H941	H94	0.571500	0.793100	0.097900
C1341	C134	0.497000	0.813300	0.080800
H951	H95	0.494800	0.884700	0.070300
C1351	C135	0.459100	0.738700	0.083900
H961	H96	0.426200	0.752900	0.075100
C1361	C136	0.605800	0.605200	0.133400
C1371	C137	0.619200	0.682400	0.160720
H971	H97	0.594700	0.717800	0.176400
C1381	C138	0.667800	0.708100	0.165280
H981	H98	0.676200	0.761600	0.184600
C1391	C139	0.691300	0.584200	0.119000
H991	H99	0.716900	0.547500	0.105000
C1401	C140	0.644100	0.553100	0.111900
H1001	H100	0.636800	0.497800	0.093000
C1411	C141	0.970800	0.101900	0.954320
H1011	H101	0.993300	0.141000	0.937900
C1421	C142	0.966100	0.114800	0.995900
H1021	H102	0.984200	0.164200	0.012100
C1431	C143	0.931800	0.045300	0.008500
H1031	H103	0.921300	0.034500	0.035300
C1441	C144	0.913900	0.990900	0.974500
C1451	C145	0.873300	0.913700	0.972100
C1461	C146	0.853800	0.874500	0.937700
C1471	C147	0.811500	0.803300	0.933700
H1041	H104	0.792400	0.772600	0.954800
C1481	C148	0.804400	0.788900	0.893800
H1051	H105	0.778700	0.748500	0.881400
C1491	C149	0.843100	0.846300	0.874300
H1061	H106	0.847800	0.848200	0.846200
C1501	C150	0.851500	0.879700	0.010640
C1511	C151	0.880700	0.812400	0.037500
H1071	H107	0.914200	0.794600	0.031400
C1521	C152	0.858800	0.775000	0.072200
H1081	H108	0.878300	0.733100	0.090100
C1531	C153	0.785700	0.862400	0.057500
H1091	H109	0.753000	0.882100	0.065100
C1541	C154	0.804120	0.904000	0.022600
H1101	H110	0.784000	0.950000	0.006600
C1551	C155	0.868300	0.832500	0.401000
H1111	H111	0.875400	0.834100	0.428800
C1561	C156	0.837000	0.756900	0.382800
H1121	H112	0.818700	0.700500	0.395300
C1571	C157	0.838500	0.782000	0.342600
H1131	H113	0.820800	0.746100	0.321900
C1581	C158	0.871100	0.870600	0.337800
C1591	C159	0.881300	0.926100	0.302300
C1601	C160	0.908000	0.019900	0.299200
C1611	C161	0.916100	0.081600	0.263600
H1141	H114	0.905300	0.064100	0.237300
C1621	C162	0.942700	0.171600	0.275100
H1151	H115	0.955200	0.227100	0.258200
C1631	C163	0.947900	0.165300	0.316700
H1161	H116	0.964100	0.218700	0.332500
C1641	C164	0.858500	0.879100	0.264500
C1651	C165	0.821500	0.940400	0.243600
H1171	H117	0.811400	0.009800	0.252800
C1661	C166	0.801100	0.895500	0.209600
H1181	H118	0.775600	0.933900	0.196000
C1671	C167	0.850100	0.741700	0.214800
H1191	H119	0.859300	0.673100	0.204200
C1681	C168	0.872500	0.778900	0.250200
H1201	H120	0.896600	0.736400	0.263800
N281	N28	0.488020	0.437000	0.131230
N291	N29	0.472870	0.644300	0.100280
N301	N30	0.704800	0.662800	0.144320
N311	N31	0.939120	0.026500	0.941430
N321	N32	0.871470	0.896300	0.900120
N331	N33	0.811140	0.795000	0.081920
N341	N34	0.887140	0.902800	0.374320
N351	N35	0.928020	0.078600	0.331210
N361	N36	0.815400	0.802600	0.195560
Ag51	Ag5	0.721110	0.238760	0.139870
Fe31	Fe3	0.068770	0.022560	0.113770
C1691	C169	0.011700	0.835100	0.144190
H1211	H121	0.040000	0.789300	0.144000
C1701	C170	0.964600	0.802400	0.158200
H1221	H122	0.955900	0.733900	0.169100
C1711	C171	0.934800	0.888100	0.153000
H1231	H123	0.900400	0.890900	0.159200
C1721	C172	0.963300	0.974000	0.136760
C1731	C173	0.947500	0.079000	0.125790
C1741	C174	0.976100	0.157000	0.108730
C1751	C175	0.960900	0.263100	0.096100
H1241	H124	0.928500	0.293100	0.097900
C1761	C176	0.003000	0.313300	0.080800
H1251	H125	0.005200	0.384700	0.070300
C1771	C177	0.040900	0.238700	0.083900
H1261	H126	0.073800	0.252900	0.075100
C1781	C178	0.894200	0.105200	0.133400
C1791	C179	0.880800	0.182400	0.160720
H1271	H127	0.905300	0.217800	0.176400
C1801	C180	0.832200	0.208100	0.165280
H1281	H128	0.823800	0.261600	0.184600
C1811	C181	0.808700	0.084200	0.119000
H1291	H129	0.783100	0.047500	0.105000
C1821	C182	0.855900	0.053100	0.111900
H1301	H130	0.863200	0.997800	0.093000
C1831	C183	0.529200	0.601900	0.954320
H1311	H131	0.506700	0.641000	0.937900
C1841	C184	0.533900	0.614800	0.995900
H1321	H132	0.515800	0.664200	0.012100
C1851	C185	0.568200	0.545300	0.008500
H1331	H133	0.578700	0.534500	0.035300
C1861	C186	0.586100	0.490900	0.974500
C1871	C187	0.626700	0.413700	0.972100
C1881	C188	0.646200	0.374500	0.937700
C1891	C189	0.688500	0.303300	0.933700
H1341	H134	0.707600	0.272600	0.954800
C1901	C190	0.695600	0.288900	0.893800
H1351	H135	0.721300	0.248500	0.881400
C1911	C191	0.656900	0.346300	0.874300
H1361	H136	0.652200	0.348200	0.846200
C1921	C192	0.648500	0.379700	0.010640
C1931	C193	0.619300	0.312400	0.037500
H1371	H137	0.585800	0.294600	0.031400
C1941	C194	0.641200	0.275000	0.072200
H1381	H138	0.621700	0.233100	0.090100
C1951	C195	0.714300	0.362400	0.057500
H1391	H139	0.747000	0.382100	0.065100
C1961	C196	0.695880	0.404000	0.022600
H1401	H140	0.716000	0.450000	0.006600
C1971	C197	0.631700	0.332500	0.401000
H1411	H141	0.624600	0.334100	0.428800
C1981	C198	0.663000	0.256900	0.382800
H1421	H142	0.681300	0.200500	0.395300
C1991	C199	0.661500	0.282000	0.342600
H1431	H143	0.679200	0.246100	0.321900
C2001	C200	0.628900	0.370600	0.337800
C2011	C201	0.618700	0.426100	0.302300
C2021	C202	0.592000	0.519900	0.299200
C2031	C203	0.583900	0.581600	0.263600
H1441	H144	0.594700	0.564100	0.237300
C2041	C204	0.557300	0.671600	0.275100
H1451	H145	0.544800	0.727100	0.258200
C2051	C205	0.552100	0.665300	0.316700
H1461	H146	0.535900	0.718700	0.332500
C2061	C206	0.641500	0.379100	0.264500
C2071	C207	0.678500	0.440400	0.243600
H1471	H147	0.688600	0.509800	0.252800
C2081	C208	0.698900	0.395500	0.209600
H1481	H148	0.724400	0.433900	0.196000
C2091	C209	0.649900	0.241700	0.214800
H1491	H149	0.640700	0.173100	0.204200
C2101	C210	0.627500	0.278900	0.250200
H1501	H150	0.603400	0.236400	0.263800
N371	N37	0.011980	0.937000	0.131230
N381	N38	0.027130	0.144300	0.100280
N391	N39	0.795200	0.162800	0.144320
N401	N40	0.560880	0.526500	0.941430
N411	N41	0.628530	0.396300	0.900120
N421	N42	0.688860	0.295000	0.081920
N431	N43	0.612860	0.402800	0.374320
N441	N44	0.571980	0.578600	0.331210
N451	N45	0.684600	0.302600	0.195560
Co31	Co3	0.568770	0.477440	0.886230
Ag61	Ag6	0.221110	0.261240	0.860130
C2111	C211	0.511700	0.664900	0.855810
H1511	H151	0.540000	0.710700	0.856000
C2121	C212	0.464600	0.697600	0.841800
H1521	H152	0.455900	0.766100	0.830900
C2131	C213	0.434800	0.611900	0.847000
H1531	H153	0.400400	0.609100	0.840800
C2141	C214	0.463300	0.526000	0.863240
C2151	C215	0.447500	0.421000	0.874210
C2161	C216	0.476100	0.343000	0.891270
C2171	C217	0.460900	0.236900	0.903900
H1541	H154	0.428500	0.206900	0.902100
C2181	C218	0.503000	0.186700	0.919200
H1551	H155	0.505200	0.115300	0.929700
C2191	C219	0.540900	0.261300	0.916100
H1561	H156	0.573800	0.247100	0.924900
C2201	C220	0.394200	0.394800	0.866600
C2211	C221	0.380800	0.317600	0.839280
H1571	H157	0.405300	0.282200	0.823600
C2221	C222	0.332200	0.291900	0.834720
H1581	H158	0.323800	0.238400	0.815400
C2231	C223	0.308700	0.415800	0.881000
H1591	H159	0.283100	0.452500	0.895000
C2241	C224	0.355900	0.446900	0.888100
H1601	H160	0.363200	0.502200	0.907000
C2251	C225	0.029200	0.898100	0.045680
H1611	H161	0.006700	0.859000	0.062100
C2261	C226	0.033900	0.885200	0.004100
H1621	H162	0.015800	0.835800	0.987900
C2271	C227	0.068200	0.954700	0.991500
H1631	H163	0.078700	0.965500	0.964700
C2281	C228	0.086100	0.009100	0.025500
C2291	C229	0.126700	0.086300	0.027900
C2301	C230	0.146200	0.125500	0.062300
C2311	C231	0.188500	0.196700	0.066300
H1641	H164	0.207600	0.227400	0.045200
C2321	C232	0.195600	0.211100	0.106200
H1651	H165	0.221300	0.251500	0.118600
C2331	C233	0.156900	0.153700	0.125700
H1661	H166	0.152200	0.151800	0.153800
C2341	C234	0.148500	0.120300	0.989360
C2351	C235	0.119300	0.187600	0.962500
H1671	H167	0.085800	0.205400	0.968600
C2361	C236	0.141200	0.225000	0.927800
H1681	H168	0.121700	0.266900	0.909900
C2371	C237	0.214300	0.137600	0.942500
H1691	H169	0.247000	0.117900	0.934900
C2381	C238	0.195880	0.096000	0.977400
H1701	H170	0.216000	0.050000	0.993400
C2391	C239	0.131700	0.167500	0.599000
H1711	H171	0.124600	0.165900	0.571200
C2401	C240	0.163000	0.243100	0.617200
H1721	H172	0.181300	0.299500	0.604700
C2411	C241	0.161500	0.218000	0.657400
H1731	H173	0.179200	0.253900	0.678100
C2421	C242	0.128900	0.129400	0.662200
C2431	C243	0.118700	0.073900	0.697700
C2441	C244	0.092000	0.980100	0.700800
C2451	C245	0.083900	0.918400	0.736400
H1741	H174	0.094700	0.935900	0.762700
C2461	C246	0.057300	0.828400	0.724900
H1751	H175	0.044800	0.772900	0.741800
C2471	C247	0.052100	0.834700	0.683300
H1761	H176	0.035900	0.781300	0.667500
C2481	C248	0.141500	0.120900	0.735500
C2491	C249	0.178500	0.059600	0.756400
H1771	H177	0.188600	0.990200	0.747200
C2501	C250	0.198900	0.104500	0.790400
H1781	H178	0.224400	0.066100	0.804000
C2511	C251	0.149900	0.258300	0.785200
H1791	H179	0.140700	0.326900	0.795800
C2521	C252	0.127500	0.221100	0.749800
H1801	H180	0.103400	0.263600	0.736200
N461	N46	0.511980	0.563000	0.868770
N471	N47	0.527130	0.355700	0.899720
N481	N48	0.295200	0.337200	0.855680
N491	N49	0.060880	0.973500	0.058570
N501	N50	0.128530	0.103700	0.099880
N511	N51	0.188860	0.205000	0.918080
N521	N52	0.112860	0.097200	0.625680
N531	N53	0.071980	0.921400	0.668790
N541	N54	0.184600	0.197400	0.804440
Ag71	Ag7	0.221110	0.738760	0.360130
Fe41	Fe4	0.568770	0.522560	0.386230
C2531	C253	0.511700	0.335100	0.355810
H1811	H181	0.540000	0.289300	0.356000
C2541	C254	0.464600	0.302400	0.341800
H1821	H182	0.455900	0.233900	0.330900
C2551	C255	0.434800	0.388100	0.347000
H1831	H183	0.400400	0.390900	0.340800
C2561	C256	0.463300	0.474000	0.363240
C2571	C257	0.447500	0.579000	0.374210
C2581	C258	0.476100	0.657000	0.391270
C2591	C259	0.460900	0.763100	0.403900
H1841	H184	0.428500	0.793100	0.402100
C2601	C260	0.503000	0.813300	0.419200
H1851	H185	0.505200	0.884700	0.429700
C2611	C261	0.540900	0.738700	0.416100
H1861	H186	0.573800	0.752900	0.424900
C2621	C262	0.394200	0.605200	0.366600
C2631	C263	0.380800	0.682400	0.339280
H1871	H187	0.405300	0.717800	0.323600
C2641	C264	0.332200	0.708100	0.334720
H1881	H188	0.323800	0.761600	0.315400
C2651	C265	0.308700	0.584200	0.381000
H1891	H189	0.283100	0.547500	0.395000
C2661	C266	0.355900	0.553100	0.388100
H1901	H190	0.363200	0.497800	0.407000
C2671	C267	0.029200	0.101900	0.545680
H1911	H191	0.006700	0.141000	0.562100
C2681	C268	0.033900	0.114800	0.504100
H1921	H192	0.015800	0.164200	0.487900
C2691	C269	0.068200	0.045300	0.491500
H1931	H193	0.078700	0.034500	0.464700
C2701	C270	0.086100	0.990900	0.525500
C2711	C271	0.126700	0.913700	0.527900
C2721	C272	0.146200	0.874500	0.562300
C2731	C273	0.188500	0.803300	0.566300
H1941	H194	0.207600	0.772600	0.545200
C2741	C274	0.195600	0.788900	0.606200
H1951	H195	0.221300	0.748500	0.618600
C2751	C275	0.156900	0.846300	0.625700
H1961	H196	0.152200	0.848200	0.653800
C2761	C276	0.148500	0.879700	0.489360
C2771	C277	0.119300	0.812400	0.462500
H1971	H197	0.085800	0.794600	0.468600
C2781	C278	0.141200	0.775000	0.427800
H1981	H198	0.121700	0.733100	0.409900
C2791	C279	0.214300	0.862400	0.442500
H1991	H199	0.247000	0.882100	0.434900
C2801	C280	0.195880	0.904000	0.477400
H2001	H200	0.216000	0.950000	0.493400
C2811	C281	0.131700	0.832500	0.099000
H2011	H201	0.124600	0.834100	0.071200
C2821	C282	0.163000	0.756900	0.117200
H2021	H202	0.181300	0.700500	0.104700
C2831	C283	0.161500	0.782000	0.157400
H2031	H203	0.179200	0.746100	0.178100
C2841	C284	0.128900	0.870600	0.162200
C2851	C285	0.118700	0.926100	0.197700
C2861	C286	0.092000	0.019900	0.200800
C2871	C287	0.083900	0.081600	0.236400
H2041	H204	0.094700	0.064100	0.262700
C2881	C288	0.057300	0.171600	0.224900
H2051	H205	0.044800	0.227100	0.241800
C2891	C289	0.052100	0.165300	0.183300
H2061	H206	0.035900	0.218700	0.167500
C2901	C290	0.141500	0.879100	0.235500
C2911	C291	0.178500	0.940400	0.256400
H2071	H207	0.188600	0.009800	0.247200
C2921	C292	0.198900	0.895500	0.290400
H2081	H208	0.224400	0.933900	0.304000
C2931	C293	0.149900	0.741700	0.285200
H2091	H209	0.140700	0.673100	0.295800
C2941	C294	0.127500	0.778900	0.249800
H2101	H210	0.103400	0.736400	0.236200
N551	N55	0.511980	0.437000	0.368770
N561	N56	0.527130	0.644300	0.399720
N571	N57	0.295200	0.662800	0.355680
N581	N58	0.060880	0.026500	0.558570
N591	N59	0.128530	0.896300	0.599880
N601	N60	0.188860	0.795000	0.418080
N611	N61	0.112860	0.902800	0.125680
N621	N62	0.071980	0.078600	0.168790
N631	N63	0.184600	0.802600	0.304440
Co41	Co4	0.068770	0.977440	0.613770
Ag81	Ag8	0.721110	0.761240	0.639870
C2951	C295	0.011700	0.164900	0.644190
H2111	H211	0.040000	0.210700	0.644000
C2961	C296	0.964600	0.197600	0.658200
H2121	H212	0.955900	0.266100	0.669100
C2971	C297	0.934800	0.111900	0.653000
H2131	H213	0.900400	0.109100	0.659200
C2981	C298	0.963300	0.026000	0.636760
C2991	C299	0.947500	0.921000	0.625790
C3001	C300	0.976100	0.843000	0.608730
C3011	C301	0.960900	0.736900	0.596100
H2141	H214	0.928500	0.706900	0.597900
C3021	C302	0.003000	0.686700	0.580800
H2151	H215	0.005200	0.615300	0.570300
C3031	C303	0.040900	0.761300	0.583900
H2161	H216	0.073800	0.747100	0.575100
C3041	C304	0.894200	0.894800	0.633400
C3051	C305	0.880800	0.817600	0.660720
H2171	H217	0.905300	0.782200	0.676400
C3061	C306	0.832200	0.791900	0.665280
H2181	H218	0.823800	0.738400	0.684600
C3071	C307	0.808700	0.915800	0.619000
H2191	H219	0.783100	0.952500	0.605000
C3081	C308	0.855900	0.946900	0.611900
H2201	H220	0.863200	0.002200	0.593000
C3091	C309	0.529200	0.398100	0.454320
H2211	H221	0.506700	0.359000	0.437900
C3101	C310	0.533900	0.385200	0.495900
H2221	H222	0.515800	0.335800	0.512100
C3111	C311	0.568200	0.454700	0.508500
H2231	H223	0.578700	0.465500	0.535300
C3121	C312	0.586100	0.509100	0.474500
C3131	C313	0.626700	0.586300	0.472100
C3141	C314	0.646200	0.625500	0.437700
C3151	C315	0.688500	0.696700	0.433700
H2241	H224	0.707600	0.727400	0.454800
C3161	C316	0.695600	0.711100	0.393800
H2251	H225	0.721300	0.751500	0.381400
C3171	C317	0.656900	0.653700	0.374300
H2261	H226	0.652200	0.651800	0.346200
C3181	C318	0.648500	0.620300	0.510640
C3191	C319	0.619300	0.687600	0.537500
H2271	H227	0.585800	0.705400	0.531400
C3201	C320	0.641200	0.725000	0.572200
H2281	H228	0.621700	0.766900	0.590100
C3211	C321	0.714300	0.637600	0.557500
H2291	H229	0.747000	0.617900	0.565100
C3221	C322	0.695880	0.596000	0.522600
H2301	H230	0.716000	0.550000	0.506600
C3231	C323	0.631700	0.667500	0.901000
H2311	H231	0.624600	0.665900	0.928800
C3241	C324	0.663000	0.743100	0.882800
H2321	H232	0.681300	0.799500	0.895300
C3251	C325	0.661500	0.718000	0.842600
H2331	H233	0.679200	0.753900	0.821900
C3261	C326	0.628900	0.629400	0.837800
C3271	C327	0.618700	0.573900	0.802300
C3281	C328	0.592000	0.480100	0.799200
C3291	C329	0.583900	0.418400	0.763600
H2341	H234	0.594700	0.435900	0.737300
C3301	C330	0.557300	0.328400	0.775100
H2351	H235	0.544800	0.272900	0.758200
C3311	C331	0.552100	0.334700	0.816700
H2361	H236	0.535900	0.281300	0.832500
C3321	C332	0.641500	0.620900	0.764500
C3331	C333	0.678500	0.559600	0.743600
H2371	H237	0.688600	0.490200	0.752800
C3341	C334	0.698900	0.604500	0.709600
H2381	H238	0.724400	0.566100	0.696000
C3351	C335	0.649900	0.758300	0.714800
H2391	H239	0.640700	0.826900	0.704200
C3361	C336	0.627500	0.721100	0.750200
H2401	H240	0.603400	0.763600	0.763800
N641	N64	0.011980	0.063000	0.631230
N651	N65	0.027130	0.855700	0.600280
N661	N66	0.795200	0.837200	0.644320
N671	N67	0.560880	0.473500	0.441430
N681	N68	0.628530	0.603700	0.400120
N691	N69	0.688860	0.705000	0.581920
N701	N70	0.612860	0.597200	0.874320
N711	N71	0.571980	0.421400	0.831210
N721	N72	0.684600	0.697400	0.695560
