data_KETSEI_freeONLY_PM
_symmetry_space_group_name_H-M	'P1'
_cell_length_a	7.918010
_cell_length_b	8.441900
_cell_length_c	19.617000
_cell_angle_alpha	87.816500
_cell_angle_beta	85.340000
_cell_angle_gamma	62.032500
_symmetry_Int_Tables_number 1

loop_
_symmetry_equiv_pos_as_xyz
'x,y,z'

loop_
_atom_site_label
_atom_site_type_symbol
_atom_site_fract_x
_atom_site_fract_y
_atom_site_fract_z
Dy11	Dy1	0.794370	0.925500	0.487560
Dy21	Dy2	0.280130	0.925500	0.012440
Dy31	Dy3	0.205630	0.074500	0.512440
Dy41	Dy4	0.719870	0.074500	0.987560
H11	H1	0.246800	0.532600	0.321900
H21	H2	0.056900	0.550000	0.296000
H31	H3	0.184300	0.806800	0.265000
H41	H4	0.676000	0.530000	0.462100
H51	H5	0.849900	0.441600	0.407600
H61	H6	0.639900	0.454800	0.326500
H71	H7	0.466200	0.546600	0.381100
H81	H8	0.507500	0.757000	0.302800
H91	H9	0.698600	0.710200	0.336600
H101	H10	0.656000	0.726800	0.567100
H111	H11	0.838700	0.598400	0.556600
H121	H12	0.220600	0.532600	0.178100
H131	H13	0.393100	0.550000	0.204000
H141	H14	0.008900	0.806800	0.235000
H151	H15	0.794000	0.530000	0.037900
H161	H16	0.708500	0.441600	0.092400
H171	H17	0.905300	0.454800	0.173500
H181	H18	0.987200	0.546600	0.118900
H191	H19	0.735500	0.757000	0.197200
H201	H20	0.591200	0.710200	0.163400
H211	H21	0.617200	0.726800	0.932900
H221	H22	0.562900	0.598400	0.943400
H231	H23	0.753200	0.467400	0.678100
H241	H24	0.943100	0.450000	0.704000
H251	H25	0.815700	0.193200	0.735000
H261	H26	0.324000	0.470000	0.537900
H271	H27	0.150100	0.558400	0.592400
H281	H28	0.360100	0.545200	0.673500
H291	H29	0.533800	0.453400	0.618900
H301	H30	0.492500	0.243000	0.697200
H311	H31	0.301400	0.289800	0.663400
H321	H32	0.344000	0.273200	0.432900
H331	H33	0.161300	0.401600	0.443400
H341	H34	0.779400	0.467400	0.821900
H351	H35	0.606900	0.450000	0.796000
H361	H36	0.991100	0.193200	0.765000
H371	H37	0.206000	0.470000	0.962100
H381	H38	0.291500	0.558400	0.907600
H391	H39	0.094700	0.545200	0.826500
H401	H40	0.012800	0.453400	0.881100
H411	H41	0.264500	0.243000	0.802800
H421	H42	0.408800	0.289800	0.836600
H431	H43	0.382800	0.273200	0.067100
H441	H44	0.437100	0.401600	0.056600
C11	C1	0.008200	0.725200	0.372500
C21	C2	0.118700	0.617800	0.310100
C31	C3	0.752900	0.269000	0.444400
C41	C4	0.725900	0.450800	0.422700
C51	C5	0.591600	0.534000	0.365900
C61	C6	0.572200	0.718600	0.344900
C71	C7	0.460500	0.853400	0.400100
C81	C8	0.266600	0.725200	0.127500
C91	C9	0.263500	0.617800	0.189900
C101	C10	0.978100	0.269000	0.055600
C111	C11	0.823300	0.450800	0.077300
C121	C12	0.874400	0.534000	0.134100
C131	C13	0.709200	0.718600	0.155100
C141	C14	0.686100	0.853400	0.099900
C151	C15	0.991800	0.274800	0.627500
C161	C16	0.881300	0.382200	0.689900
C171	C17	0.247100	0.731000	0.555600
C181	C18	0.274100	0.549200	0.577300
C191	C19	0.408400	0.466000	0.634100
C201	C20	0.427800	0.281400	0.655100
C211	C21	0.539500	0.146600	0.599900
C221	C22	0.733400	0.274800	0.872500
C231	C23	0.736500	0.382200	0.810100
C241	C24	0.021900	0.731000	0.944400
C251	C25	0.176700	0.549200	0.922700
C261	C26	0.125600	0.466000	0.865900
C271	C27	0.290800	0.281400	0.844900
C281	C28	0.313900	0.146600	0.900100
C291	C29	0.134600	0.730800	0.250000
C301	C30	0.865400	0.269200	0.750000
O11	O1	0.909200	0.892600	0.369610
O21	O2	0.011000	0.644800	0.429020
O31	O3	0.909600	0.155600	0.466980
O41	O4	0.619400	0.226200	0.441920
O51	O5	0.284900	0.907000	0.409090
O61	O6	0.541300	0.910200	0.439240
O71	O7	0.762300	0.711600	0.560200
O81	O8	0.198200	0.892600	0.130390
O91	O9	0.344200	0.644800	0.070980
O101	O10	0.934800	0.155600	0.033020
O111	O11	0.154400	0.226200	0.058080
O121	O12	0.808100	0.907000	0.090910
O131	O13	0.548500	0.910200	0.060760
O141	O14	0.526100	0.711600	0.939800
O151	O15	0.090800	0.107400	0.630390
O161	O16	0.989000	0.355200	0.570980
O171	O17	0.090400	0.844400	0.533020
O181	O18	0.380600	0.773800	0.558080
O191	O19	0.715100	0.093000	0.590910
O201	O20	0.458700	0.089800	0.560760
O211	O21	0.237700	0.288400	0.439800
O221	O22	0.801800	0.107400	0.869610
O231	O23	0.655800	0.355200	0.929020
O241	O24	0.065200	0.844400	0.966980
O251	O25	0.845600	0.773800	0.941920
O261	O26	0.191900	0.093000	0.909090
O271	O27	0.451500	0.089800	0.939240
O281	O28	0.473900	0.288400	0.060200
