data_KEVWUF_freeONLY_PM
_symmetry_space_group_name_H-M	'P1'
_cell_length_a	15.646000
_cell_length_b	17.276200
_cell_length_c	17.886100
_cell_angle_alpha	77.901900
_cell_angle_beta	64.063200
_cell_angle_gamma	63.075300
_symmetry_Int_Tables_number 1

loop_
_symmetry_equiv_pos_as_xyz
'x,y,z'

loop_
_atom_site_label
_atom_site_type_symbol
_atom_site_fract_x
_atom_site_fract_y
_atom_site_fract_z
La11	La1	0.527140	0.049980	0.171320
La21	La2	0.201920	0.324280	0.013380
La31	La3	0.748440	0.450020	0.328680
La41	La4	0.539580	0.175720	0.486620
La51	La5	0.472860	0.950020	0.828680
La61	La6	0.798080	0.675720	0.986620
La71	La7	0.251560	0.549980	0.671320
La81	La8	0.460420	0.824280	0.513380
H11	H1	0.194700	0.008200	0.432000
H21	H2	0.061800	0.128600	0.403800
H31	H3	0.104100	0.205200	0.280600
H41	H4	0.875500	0.220500	0.144700
H51	H5	0.951400	0.101400	0.060400
H61	H6	0.124400	0.060400	0.962800
H71	H7	0.634900	0.491800	0.068000
H81	H8	0.594200	0.371400	0.096200
H91	H9	0.589900	0.294800	0.219400
H101	H10	0.240700	0.279500	0.355300
H111	H11	0.113200	0.398600	0.439600
H121	H12	0.147600	0.439600	0.537200
H131	H13	0.805300	0.991800	0.568000
H141	H14	0.938200	0.871400	0.596200
H151	H15	0.895900	0.794800	0.719400
H161	H16	0.124500	0.779500	0.855300
H171	H17	0.048600	0.898600	0.939600
H181	H18	0.875600	0.939600	0.037200
H191	H19	0.365100	0.508200	0.932000
H201	H20	0.405800	0.628600	0.903800
H211	H21	0.410100	0.705200	0.780600
H221	H22	0.759300	0.720500	0.644700
H231	H23	0.886800	0.601400	0.560400
H241	H24	0.852400	0.560400	0.462800
C11	C1	0.403200	0.955000	0.345600
C21	C2	0.311400	0.021600	0.328400
C31	C3	0.210000	0.041400	0.383800
C41	C4	0.130900	0.112200	0.366400
C51	C5	0.155800	0.157600	0.293400
C61	C6	0.258200	0.131800	0.239600
C71	C7	0.292900	0.171900	0.154900
C81	C8	0.960400	0.326300	0.145300
C91	C9	0.001100	0.249900	0.093900
C101	C10	0.943300	0.204000	0.104800
C111	C11	0.988900	0.132800	0.054800
C121	C12	0.091700	0.108700	0.995900
C131	C13	0.143100	0.159900	0.988500
C141	C14	0.254000	0.138400	0.931000
C151	C15	0.703800	0.545000	0.154400
C161	C16	0.661400	0.478400	0.171600
C171	C17	0.635200	0.458600	0.116200
C181	C18	0.609500	0.387800	0.133600
C191	C19	0.606800	0.342400	0.206600
C201	C20	0.629600	0.368200	0.260400
C211	C21	0.619700	0.328100	0.345100
C221	C22	0.432000	0.173700	0.354700
C231	C23	0.344900	0.250100	0.406100
C241	C24	0.252100	0.296000	0.395200
C251	C25	0.176500	0.367200	0.445200
C261	C26	0.196300	0.391300	0.504100
C271	C27	0.291500	0.340100	0.511500
C281	C28	0.323400	0.361600	0.569000
C291	C29	0.596800	0.045000	0.654400
C301	C30	0.688600	0.978400	0.671600
C311	C31	0.790000	0.958600	0.616200
C321	C32	0.869100	0.887800	0.633600
C331	C33	0.844200	0.842400	0.706600
C341	C34	0.741800	0.868200	0.760400
C351	C35	0.707100	0.828100	0.845100
C361	C36	0.039600	0.673700	0.854700
C371	C37	0.998900	0.750100	0.906100
C381	C38	0.056700	0.796000	0.895200
C391	C39	0.011100	0.867200	0.945200
C401	C40	0.908300	0.891300	0.004100
C411	C41	0.856900	0.840100	0.011500
C421	C42	0.746000	0.861600	0.069000
C431	C43	0.296200	0.455000	0.845600
C441	C44	0.338600	0.521600	0.828400
C451	C45	0.364800	0.541400	0.883800
C461	C46	0.390500	0.612200	0.866400
C471	C47	0.393200	0.657600	0.793400
C481	C48	0.370400	0.631800	0.739600
C491	C49	0.380300	0.671900	0.654900
C501	C50	0.568000	0.826300	0.645300
C511	C51	0.655100	0.749900	0.593900
C521	C52	0.747900	0.704000	0.604800
C531	C53	0.823500	0.632800	0.554800
C541	C54	0.803700	0.608700	0.495900
C551	C55	0.708500	0.659900	0.488500
C561	C56	0.676600	0.638400	0.431000
N11	N1	0.335100	0.066800	0.256800
N21	N2	0.098100	0.230200	0.035800
N31	N3	0.658700	0.433200	0.243200
N41	N4	0.364100	0.269800	0.464200
N51	N5	0.664900	0.933200	0.743200
N61	N6	0.901900	0.769800	0.964200
N71	N7	0.341300	0.566800	0.756800
N81	N8	0.635900	0.730200	0.535800
O11	O1	0.491900	0.952100	0.295300
O21	O2	0.386200	0.908400	0.409400
O31	O3	0.390400	0.150200	0.116800
O41	O4	0.226900	0.222100	0.127900
O51	O5	0.017300	0.367200	0.125800
O61	O6	0.875600	0.343900	0.205900
O71	O7	0.301200	0.070900	0.888300
O81	O8	0.294800	0.186900	0.930300
O91	O9	0.217400	0.397600	0.114000
O101	O10	0.397200	0.258600	0.984800
O111	O11	0.085200	0.487400	0.020600
O121	O12	0.131600	0.370600	0.894400
O131	O13	0.598100	0.053100	0.007900
O141	O14	0.544200	0.196300	0.125900
O151	O15	0.647900	0.037700	0.236100
O161	O16	0.496300	0.931100	0.122700
O171	O17	0.739300	0.547900	0.204700
O181	O18	0.704000	0.591600	0.090600
O191	O19	0.657400	0.349800	0.383200
O201	O20	0.576900	0.277900	0.372100
O211	O21	0.510300	0.132800	0.374200
O221	O22	0.425400	0.156100	0.294100
O231	O23	0.260400	0.429100	0.611700
O241	O24	0.412000	0.313100	0.569700
O251	O25	0.729000	0.102400	0.386000
O261	O26	0.640600	0.241400	0.515200
O271	O27	0.593200	0.012600	0.479400
O281	O28	0.396600	0.129400	0.605600
O291	O29	0.659100	0.446900	0.492100
O301	O30	0.866400	0.303700	0.374100
O311	O31	0.921700	0.462300	0.263900
O321	O32	0.550100	0.568900	0.377300
O331	O33	0.508100	0.047900	0.704700
O341	O34	0.613800	0.091600	0.590600
O351	O35	0.609600	0.849800	0.883200
O361	O36	0.773100	0.777900	0.872100
O371	O37	0.982700	0.632800	0.874200
O381	O38	0.124400	0.656100	0.794100
O391	O39	0.698800	0.929100	0.111700
O401	O40	0.705200	0.813100	0.069700
O411	O41	0.782600	0.602400	0.886000
O421	O42	0.602800	0.741400	0.015200
O431	O43	0.914800	0.512600	0.979400
O441	O44	0.868400	0.629400	0.105600
O451	O45	0.401900	0.946900	0.992100
O461	O46	0.455800	0.803700	0.874100
O471	O47	0.352100	0.962300	0.763900
O481	O48	0.503700	0.068900	0.877300
O491	O49	0.260700	0.452100	0.795300
O501	O50	0.296000	0.408400	0.909400
O511	O51	0.342600	0.650200	0.616800
O521	O52	0.423100	0.722100	0.627900
O531	O53	0.489700	0.867200	0.625800
O541	O54	0.574600	0.843900	0.705900
O551	O55	0.739600	0.570900	0.388300
O561	O56	0.588000	0.686900	0.430300
O571	O57	0.271000	0.897600	0.614000
O581	O58	0.359400	0.758600	0.484800
O591	O59	0.406800	0.987400	0.520600
O601	O60	0.603400	0.870600	0.394400
O611	O61	0.340900	0.553100	0.507900
O621	O62	0.133600	0.696300	0.625900
O631	O63	0.078300	0.537700	0.736100
O641	O64	0.449900	0.431100	0.622700
