data_KEXKEF_freeONLY_PM
_symmetry_space_group_name_H-M	'P1'
_cell_length_a	7.277600
_cell_length_b	7.277600
_cell_length_c	26.931000
_cell_angle_alpha	90.000000
_cell_angle_beta	90.000000
_cell_angle_gamma	90.489900
_symmetry_Int_Tables_number 1

loop_
_symmetry_equiv_pos_as_xyz
'x,y,z'

loop_
_atom_site_label
_atom_site_type_symbol
_atom_site_fract_x
_atom_site_fract_y
_atom_site_fract_z
Zn11	Zn1	0.039710	0.687850	0.720950
Zn21	Zn2	0.687850	0.039710	0.279050
Zn31	Zn3	0.187850	0.539710	0.220950
Zn41	Zn4	0.539710	0.187850	0.779050
H11	H1	0.783600	0.786400	0.775200
H21	H2	0.778500	0.592500	0.774300
H31	H3	0.322600	0.686200	0.859500
H41	H4	0.115700	0.685500	0.839200
H51	H5	0.665300	0.685700	0.637200
H61	H6	0.454200	0.662000	0.700200
H71	H7	0.044900	0.731500	0.607700
H81	H8	0.243900	0.755900	0.541500
H91	H9	0.596200	0.867400	0.523200
H101	H10	0.740700	0.744900	0.552900
H111	H11	0.474400	0.604600	0.483900
H121	H12	0.786400	0.783600	0.224800
H131	H13	0.592500	0.778500	0.225700
H141	H14	0.686200	0.322600	0.140500
H151	H15	0.685500	0.115700	0.160800
H161	H16	0.685700	0.665300	0.362800
H171	H17	0.662000	0.454200	0.299800
H181	H18	0.731500	0.044900	0.392300
H191	H19	0.755900	0.243900	0.458500
H201	H20	0.867400	0.596200	0.476800
H211	H21	0.744900	0.740700	0.447100
H221	H22	0.604600	0.474400	0.516100
H231	H23	0.286400	0.283600	0.275200
H241	H24	0.092500	0.278500	0.274300
H251	H25	0.186200	0.822600	0.359500
H261	H26	0.185500	0.615700	0.339200
H271	H27	0.185700	0.165300	0.137200
H281	H28	0.162000	0.954200	0.200200
H291	H29	0.231500	0.544900	0.107700
H301	H30	0.255900	0.743900	0.041500
H311	H31	0.367400	0.096200	0.023200
H321	H32	0.244900	0.240700	0.052900
H331	H33	0.104600	0.974400	0.983900
H341	H34	0.283600	0.286400	0.724800
H351	H35	0.278500	0.092500	0.725700
H361	H36	0.822600	0.186200	0.640500
H371	H37	0.615700	0.185500	0.660800
H381	H38	0.165300	0.185700	0.862800
H391	H39	0.954200	0.162000	0.799800
H401	H40	0.544900	0.231500	0.892300
H411	H41	0.743900	0.255900	0.958500
H421	H42	0.096200	0.367400	0.976800
H431	H43	0.240700	0.244900	0.947100
H441	H44	0.974400	0.104600	0.016100
C11	C1	0.286400	0.860800	0.799870
C21	C2	0.246500	0.686700	0.829010
C31	C3	0.286100	0.514300	0.798800
C41	C4	0.538000	0.696400	0.630070
C51	C5	0.410600	0.682600	0.667480
C61	C6	0.173100	0.722700	0.613760
C71	C7	0.291100	0.737700	0.574060
C81	C8	0.478800	0.726200	0.581650
C91	C9	0.614500	0.746500	0.539250
C101	C10	0.860800	0.286400	0.200130
C111	C11	0.686700	0.246500	0.170990
C121	C12	0.514300	0.286100	0.201200
C131	C13	0.696400	0.538000	0.369930
C141	C14	0.682600	0.410600	0.332520
C151	C15	0.722700	0.173100	0.386240
C161	C16	0.737700	0.291100	0.425940
C171	C17	0.726200	0.478800	0.418350
C181	C18	0.746500	0.614500	0.460750
C191	C19	0.360800	0.786400	0.299870
C201	C20	0.186700	0.746500	0.329010
C211	C21	0.014300	0.786100	0.298800
C221	C22	0.196400	0.038000	0.130070
C231	C23	0.182600	0.910600	0.167480
C241	C24	0.222700	0.673100	0.113760
C251	C25	0.237700	0.791100	0.074060
C261	C26	0.226200	0.978800	0.081650
C271	C27	0.246500	0.114500	0.039250
C281	C28	0.786400	0.360800	0.700130
C291	C29	0.746500	0.186700	0.670990
C301	C30	0.786100	0.014300	0.701200
C311	C31	0.038000	0.196400	0.869930
C321	C32	0.910600	0.182600	0.832520
C331	C33	0.673100	0.222700	0.886240
C341	C34	0.791100	0.237700	0.925940
C351	C35	0.978800	0.226200	0.918350
C361	C36	0.114500	0.246500	0.960750
C371	C37	0.596200	0.596200	0.500000
C381	C38	0.096200	0.096200	0.000000
N11	N1	0.229700	0.696300	0.660890
N21	N2	0.696300	0.229700	0.339110
N31	N3	0.196300	0.729700	0.160890
N41	N4	0.729700	0.196300	0.839110
O11	O1	0.198700	0.884500	0.759070
O21	O2	0.403000	0.971400	0.816650
O31	O3	0.198970	0.491030	0.758330
O41	O4	0.403350	0.405750	0.815310
O51	O5	0.845970	0.687970	0.779900
O61	O6	0.884500	0.198700	0.240930
O71	O7	0.971400	0.403000	0.183350
O81	O8	0.491030	0.198970	0.241670
O91	O9	0.405750	0.403350	0.184690
O101	O10	0.687970	0.845970	0.220100
O111	O11	0.384500	0.698700	0.259070
O121	O12	0.471400	0.903000	0.316650
O131	O13	0.991030	0.698970	0.258330
O141	O14	0.905750	0.903350	0.315310
O151	O15	0.187970	0.345970	0.279900
O161	O16	0.698700	0.384500	0.740930
O171	O17	0.903000	0.471400	0.683350
O181	O18	0.698970	0.991030	0.741670
O191	O19	0.903350	0.905750	0.684690
O201	O20	0.345970	0.187970	0.720100
