data_KEXPOU_freeONLY_PM
_symmetry_space_group_name_H-M	'P1'
_cell_length_a	7.249000
_cell_length_b	7.419000
_cell_length_c	23.930000
_cell_angle_alpha	90.000000
_cell_angle_beta	90.000000
_cell_angle_gamma	90.370000
_symmetry_Int_Tables_number 1

loop_
_symmetry_equiv_pos_as_xyz
'x,y,z'

loop_
_atom_site_label
_atom_site_type_symbol
_atom_site_fract_x
_atom_site_fract_y
_atom_site_fract_z
Zn11	Zn1	0.428560	0.422950	0.781960
Zn21	Zn2	0.071440	0.077050	0.281960
Zn31	Zn3	0.571440	0.577050	0.218040
Zn41	Zn4	0.928560	0.922950	0.718040
H11	H1	0.522000	0.171000	0.724000
H21	H2	0.336000	0.170000	0.725800
H31	H3	0.427100	0.502900	0.649000
H41	H4	0.429800	0.706700	0.626800
H51	H5	0.380100	0.608900	0.984900
H61	H6	0.392300	0.419500	0.908600
H71	H7	0.451700	0.830900	0.806500
H81	H8	0.441600	0.032900	0.879900
H91	H9	0.335300	0.081200	0.979700
H101	H10	0.339000	0.913800	0.021800
H111	H11	0.978000	0.329000	0.224000
H121	H12	0.164000	0.330000	0.225800
H131	H13	0.072900	0.997100	0.149000
H141	H14	0.070200	0.793300	0.126800
H151	H15	0.119900	0.891100	0.484900
H161	H16	0.107700	0.080500	0.408600
H171	H17	0.048300	0.669100	0.306500
H181	H18	0.058400	0.467100	0.379900
H191	H19	0.164700	0.418800	0.479700
H201	H20	0.161000	0.586200	0.521800
H211	H21	0.478000	0.829000	0.276000
H221	H22	0.664000	0.830000	0.274200
H231	H23	0.572900	0.497100	0.351000
H241	H24	0.570200	0.293300	0.373200
H251	H25	0.619900	0.391100	0.015100
H261	H26	0.607700	0.580500	0.091400
H271	H27	0.548300	0.169100	0.193500
H281	H28	0.558400	0.967100	0.120100
H291	H29	0.664700	0.918800	0.020300
H301	H30	0.661000	0.086200	0.978200
H311	H31	0.022000	0.671000	0.776000
H321	H32	0.836000	0.670000	0.774200
H331	H33	0.927100	0.002900	0.851000
H341	H34	0.929800	0.206700	0.873200
H351	H35	0.880100	0.108900	0.515100
H361	H36	0.892300	0.919500	0.591400
H371	H37	0.951700	0.330900	0.693500
H381	H38	0.941600	0.532900	0.620100
H391	H39	0.835300	0.581200	0.520300
H401	H40	0.839000	0.413800	0.478200
C11	C1	0.601500	0.668600	0.695110
C21	C2	0.428400	0.630800	0.660810
C31	C3	0.254800	0.670200	0.694640
C41	C4	0.395400	0.658300	0.948500
C51	C5	0.402800	0.545800	0.902710
C61	C6	0.437400	0.785400	0.843330
C71	C7	0.431400	0.907200	0.887000
C81	C8	0.410200	0.844400	0.941530
C91	C9	0.405100	0.972300	0.990420
C101	C10	0.898500	0.831400	0.195110
C111	C11	0.071600	0.869200	0.160810
C121	C12	0.245200	0.829800	0.194640
C131	C13	0.104600	0.841700	0.448500
C141	C14	0.097200	0.954200	0.402710
C151	C15	0.062600	0.714600	0.343330
C161	C16	0.068600	0.592800	0.387000
C171	C17	0.089800	0.655600	0.441530
C181	C18	0.094900	0.527700	0.490420
C191	C19	0.398500	0.331400	0.304890
C201	C20	0.571600	0.369200	0.339190
C211	C21	0.745200	0.329800	0.305360
C221	C22	0.604600	0.341700	0.051500
C231	C23	0.597200	0.454200	0.097290
C241	C24	0.562600	0.214600	0.156670
C251	C25	0.568600	0.092800	0.113000
C261	C26	0.589800	0.155600	0.058470
C271	C27	0.594900	0.027700	0.009580
C281	C28	0.101500	0.168600	0.804890
C291	C29	0.928400	0.130800	0.839190
C301	C30	0.754800	0.170200	0.805360
C311	C31	0.895400	0.158300	0.551500
C321	C32	0.902800	0.045800	0.597290
C331	C33	0.937400	0.285400	0.656670
C341	C34	0.931400	0.407200	0.613000
C351	C35	0.910200	0.344400	0.558470
C361	C36	0.905100	0.472300	0.509580
N11	N1	0.424000	0.606200	0.850300
N21	N2	0.076000	0.893800	0.350300
N31	N3	0.576000	0.393800	0.149700
N41	N4	0.924000	0.106200	0.649700
O11	O1	0.625500	0.582000	0.739800
O21	O2	0.712300	0.785800	0.676740
O31	O3	0.230400	0.582900	0.739750
O41	O4	0.145900	0.786000	0.675930
O51	O5	0.429400	0.231300	0.716730
O61	O6	0.874500	0.918000	0.239800
O71	O7	0.787700	0.714200	0.176740
O81	O8	0.269600	0.917100	0.239750
O91	O9	0.354100	0.714000	0.175930
O101	O10	0.070600	0.268700	0.216730
O111	O11	0.374500	0.418000	0.260200
O121	O12	0.287700	0.214200	0.323260
O131	O13	0.769600	0.417100	0.260250
O141	O14	0.854100	0.214000	0.324070
O151	O15	0.570600	0.768700	0.283270
O161	O16	0.125500	0.082000	0.760200
O171	O17	0.212300	0.285800	0.823260
O181	O18	0.730400	0.082900	0.760250
O191	O19	0.645900	0.286000	0.824070
O201	O20	0.929400	0.731300	0.783270
