data_KIDXUR_freeONLY_PM
_symmetry_space_group_name_H-M	'P1'
_cell_length_a	9.701200
_cell_length_b	12.442000
_cell_length_c	17.218000
_cell_angle_alpha	89.830000
_cell_angle_beta	75.010000
_cell_angle_gamma	73.330000
_symmetry_Int_Tables_number 1

loop_
_symmetry_equiv_pos_as_xyz
'x,y,z'

loop_
_atom_site_label
_atom_site_type_symbol
_atom_site_fract_x
_atom_site_fract_y
_atom_site_fract_z
Zn11	Zn1	0.351640	0.192910	0.183700
Zn21	Zn2	0.960830	0.886840	0.193380
Na11	Na1	0.233350	0.444510	0.274290
O11	O1	0.086000	0.822900	0.006360
O21	O2	0.037900	0.745800	0.123000
O31	O3	0.419800	0.235200	0.030990
O41	O4	0.294200	0.345200	0.142910
O51	O5	0.390000	0.459500	0.751370
O61	O6	0.484200	0.614900	0.770030
O71	O7	0.628600	0.424100	0.783010
O81	O8	0.206400	0.044000	0.634700
O91	O9	0.012500	0.173200	0.708330
O101	O10	0.247200	0.254400	0.296190
O111	O11	0.336200	0.082700	0.334500
O121	O12	0.777800	0.527200	0.459980
O131	O13	0.718800	0.517200	0.603320
O141	O14	0.647900	0.397500	0.521000
O151	O15	0.979700	0.527900	0.308700
S11	S1	0.480990	0.502470	0.792330
S21	S2	0.755160	0.457160	0.526220
C11	C1	0.666100	0.088200	0.090900
H11	H1	0.646800	0.125400	0.044900
C21	C2	0.638900	0.032900	0.207600
H21	H2	0.596200	0.022500	0.262200
C31	C3	0.170100	0.028400	0.197700
H31	H3	0.180000	0.010400	0.250000
C41	C4	0.188400	0.099100	0.086400
H41	H4	0.214700	0.142500	0.042600
C51	C5	0.384500	0.516500	0.895400
C61	C6	0.285200	0.619800	0.929800
H51	H5	0.271100	0.683000	0.898400
C71	C7	0.206900	0.629700	0.010400
C81	C8	0.229100	0.536200	0.055500
H61	H6	0.176600	0.543100	0.110900
C91	C9	0.328500	0.431800	0.019800
C101	C10	0.407300	0.422100	0.939500
H71	H7	0.475800	0.352200	0.914900
C111	C11	0.101800	0.742500	0.048900
C121	C12	0.350700	0.330000	0.066500
C131	C13	0.925400	0.347400	0.515500
C141	C14	0.949700	0.289100	0.581300
H81	H8	0.882000	0.312900	0.633100
C151	C15	0.074600	0.194500	0.571300
C161	C16	0.173100	0.159700	0.495500
H91	H9	0.256200	0.094100	0.488400
C171	C17	0.150100	0.220700	0.430200
C181	C18	0.025300	0.316100	0.440800
H101	H10	0.010000	0.358900	0.396400
C191	C19	0.102400	0.129700	0.642300
C201	C20	0.253300	0.181700	0.348300
N11	N1	0.563900	0.100700	0.161550
N21	N2	0.797300	0.018300	0.091740
N31	N3	0.778900	0.982600	0.167630
N41	N4	0.230500	0.100900	0.154490
N51	N5	0.094800	0.984500	0.158980
N61	N6	0.106700	0.030800	0.086490
Zn31	Zn3	0.648360	0.807090	0.816300
Zn41	Zn4	0.039170	0.113160	0.806620
Na21	Na2	0.766650	0.555490	0.725710
O161	O16	0.914000	0.177100	0.993640
O171	O17	0.962100	0.254200	0.877000
O181	O18	0.580200	0.764800	0.969010
O191	O19	0.705800	0.654800	0.857090
O201	O20	0.610000	0.540500	0.248630
O211	O21	0.515800	0.385100	0.229970
O221	O22	0.371400	0.575900	0.216990
O231	O23	0.793600	0.956000	0.365300
O241	O24	0.987500	0.826800	0.291670
O251	O25	0.752800	0.745600	0.703810
O261	O26	0.663800	0.917300	0.665500
O271	O27	0.222200	0.472800	0.540020
O281	O28	0.281200	0.482800	0.396680
O291	O29	0.352100	0.602500	0.479000
O301	O30	0.020300	0.472100	0.691300
S31	S3	0.519010	0.497530	0.207670
S41	S4	0.244840	0.542840	0.473780
C211	C21	0.333900	0.911800	0.909100
H111	H11	0.353200	0.874600	0.955100
C221	C22	0.361100	0.967100	0.792400
H121	H12	0.403800	0.977500	0.737800
C231	C23	0.829900	0.971600	0.802300
H131	H13	0.820000	0.989600	0.750000
C241	C24	0.811600	0.900900	0.913600
H141	H14	0.785300	0.857500	0.957400
C251	C25	0.615500	0.483500	0.104600
C261	C26	0.714800	0.380200	0.070200
H151	H15	0.728900	0.317000	0.101600
C271	C27	0.793100	0.370300	0.989600
C281	C28	0.770900	0.463800	0.944500
H161	H16	0.823400	0.456900	0.889100
C291	C29	0.671500	0.568200	0.980200
C301	C30	0.592700	0.577900	0.060500
H171	H17	0.524200	0.647800	0.085100
C311	C31	0.898200	0.257500	0.951100
C321	C32	0.649300	0.670000	0.933500
C331	C33	0.074600	0.652600	0.484500
C341	C34	0.050300	0.710900	0.418700
H181	H18	0.118000	0.687100	0.366900
C351	C35	0.925400	0.805500	0.428700
C361	C36	0.826900	0.840300	0.504500
H191	H19	0.743800	0.905900	0.511600
C371	C37	0.849900	0.779300	0.569800
C381	C38	0.974700	0.683900	0.559200
H201	H20	0.990000	0.641100	0.603600
C391	C39	0.897600	0.870300	0.357700
C401	C40	0.746700	0.818300	0.651700
N71	N7	0.436100	0.899300	0.838450
N81	N8	0.202700	0.981700	0.908260
N91	N9	0.221100	0.017400	0.832370
N101	N10	0.769500	0.899100	0.845510
N111	N11	0.905200	0.015500	0.841020
N121	N12	0.893300	0.969200	0.913510
Zn51	Zn5	0.000000	0.000000	0.000000
