data_KIFJIT_charged_PM
_symmetry_space_group_name_H-M	'P1'
_cell_length_a	7.663400
_cell_length_b	9.682500
_cell_length_c	27.110500
_cell_angle_alpha	90.000000
_cell_angle_beta	90.000000
_cell_angle_gamma	90.000000
_symmetry_Int_Tables_number 1

loop_
_symmetry_equiv_pos_as_xyz
'x,y,z'

loop_
_atom_site_label
_atom_site_type_symbol
_atom_site_fract_x
_atom_site_fract_y
_atom_site_fract_z
Fe11	Fe1	0.500000	0.500000	0.943650
Fe21	Fe2	0.500000	0.500000	0.556350
Fe31	Fe3	0.500000	0.500000	0.056350
Fe41	Fe4	0.500000	0.500000	0.443650
Ag11	Ag1	0.000000	0.000000	0.750000
Ag21	Ag2	0.000000	0.000000	0.250000
H11	H1	0.038000	0.629800	0.877500
H21	H2	0.006000	0.787100	0.893100
H31	H3	0.031100	0.671300	0.934600
H41	H4	0.692100	0.216200	0.024000
H51	H5	0.464700	0.814600	0.798000
H61	H6	0.295200	0.732100	0.815900
H71	H7	0.348100	0.874100	0.842100
H81	H8	0.962000	0.370200	0.877500
H91	H9	0.994000	0.212900	0.893100
H101	H10	0.968900	0.328700	0.934600
H111	H11	0.307900	0.783800	0.024000
H121	H12	0.535300	0.185400	0.798000
H131	H13	0.704800	0.267900	0.815900
H141	H14	0.651900	0.125900	0.842100
H151	H15	0.962000	0.629800	0.622500
H161	H16	0.994000	0.787100	0.606900
H171	H17	0.968900	0.671300	0.565400
H181	H18	0.307900	0.216200	0.476000
H191	H19	0.535300	0.814600	0.702000
H201	H20	0.704800	0.732100	0.684100
H211	H21	0.651900	0.874100	0.657900
H221	H22	0.038000	0.370200	0.622500
H231	H23	0.006000	0.212900	0.606900
H241	H24	0.031100	0.328700	0.565400
H251	H25	0.692100	0.783800	0.476000
H261	H26	0.464700	0.185400	0.702000
H271	H27	0.295200	0.267900	0.684100
H281	H28	0.348100	0.125900	0.657900
H291	H29	0.962000	0.370200	0.122500
H301	H30	0.994000	0.212900	0.106900
H311	H31	0.968900	0.328700	0.065400
H321	H32	0.307900	0.783800	0.976000
H331	H33	0.535300	0.185400	0.202000
H341	H34	0.704800	0.267900	0.184100
H351	H35	0.651900	0.125900	0.157900
H361	H36	0.038000	0.629800	0.122500
H371	H37	0.006000	0.787100	0.106900
H381	H38	0.031100	0.671300	0.065400
H391	H39	0.692100	0.216200	0.976000
H401	H40	0.464700	0.814600	0.202000
H411	H41	0.295200	0.732100	0.184100
H421	H42	0.348100	0.874100	0.157900
H431	H43	0.038000	0.370200	0.377500
H441	H44	0.006000	0.212900	0.393100
H451	H45	0.031100	0.328700	0.434600
H461	H46	0.692100	0.783800	0.524000
H471	H47	0.464700	0.185400	0.298000
H481	H48	0.295200	0.267900	0.315900
H491	H49	0.348100	0.125900	0.342100
H501	H50	0.962000	0.629800	0.377500
H511	H51	0.994000	0.787100	0.393100
H521	H52	0.968900	0.671300	0.434600
H531	H53	0.307900	0.216200	0.524000
H541	H54	0.535300	0.814600	0.298000
H551	H55	0.704800	0.732100	0.315900
H561	H56	0.651900	0.874100	0.342100
C11	C1	0.983000	0.690600	0.901900
C21	C2	0.792000	0.665900	0.902300
C31	C3	0.684400	0.724600	0.865200
C41	C4	0.503200	0.710700	0.863500
C51	C5	0.393100	0.789900	0.826600
C61	C6	0.767100	0.807600	0.829100
C71	C7	0.017000	0.309400	0.901900
C81	C8	0.208000	0.334100	0.902300
C91	C9	0.315600	0.275400	0.865200
C101	C10	0.496800	0.289300	0.863500
C111	C11	0.606900	0.210100	0.826600
C121	C12	0.232900	0.192400	0.829100
C131	C13	0.017000	0.690600	0.598100
C141	C14	0.208000	0.665900	0.597700
C151	C15	0.315600	0.724600	0.634800
C161	C16	0.496800	0.710700	0.636500
C171	C17	0.606900	0.789900	0.673400
C181	C18	0.232900	0.807600	0.670900
C191	C19	0.983000	0.309400	0.598100
C201	C20	0.792000	0.334100	0.597700
C211	C21	0.684400	0.275400	0.634800
C221	C22	0.503200	0.289300	0.636500
C231	C23	0.393100	0.210100	0.673400
C241	C24	0.767100	0.192400	0.670900
C251	C25	0.017000	0.309400	0.098100
C261	C26	0.208000	0.334100	0.097700
C271	C27	0.315600	0.275400	0.134800
C281	C28	0.496800	0.289300	0.136500
C291	C29	0.606900	0.210100	0.173400
C301	C30	0.232900	0.192400	0.170900
C311	C31	0.983000	0.690600	0.098100
C321	C32	0.792000	0.665900	0.097700
C331	C33	0.684400	0.724600	0.134800
C341	C34	0.503200	0.710700	0.136500
C351	C35	0.393100	0.789900	0.173400
C361	C36	0.767100	0.807600	0.170900
C371	C37	0.983000	0.309400	0.401900
C381	C38	0.792000	0.334100	0.402300
C391	C39	0.684400	0.275400	0.365200
C401	C40	0.503200	0.289300	0.363500
C411	C41	0.393100	0.210100	0.326600
C421	C42	0.767100	0.192400	0.329100
C431	C43	0.017000	0.690600	0.401900
C441	C44	0.208000	0.665900	0.402300
C451	C45	0.315600	0.724600	0.365200
C461	C46	0.496800	0.710700	0.363500
C471	C47	0.606900	0.789900	0.326600
C481	C48	0.232900	0.807600	0.329100
C491	C49	0.601000	0.239900	0.000000
C501	C50	0.399000	0.760100	0.000000
C511	C51	0.399000	0.239900	0.500000
C521	C52	0.601000	0.760100	0.500000
N11	N1	0.834500	0.871300	0.798400
N21	N2	0.165500	0.128700	0.798400
N31	N3	0.165500	0.871300	0.701600
N41	N4	0.834500	0.128700	0.701600
N51	N5	0.165500	0.128700	0.201600
N61	N6	0.834500	0.871300	0.201600
N71	N7	0.834500	0.128700	0.298400
N81	N8	0.165500	0.871300	0.298400
O11	O1	0.734700	0.588600	0.935630
O21	O2	0.417700	0.637200	0.892810
O31	O3	0.265300	0.411400	0.935630
O41	O4	0.582300	0.362800	0.892810
O51	O5	0.265300	0.588600	0.564370
O61	O6	0.582300	0.637200	0.607190
O71	O7	0.734700	0.411400	0.564370
O81	O8	0.417700	0.362800	0.607190
O91	O9	0.265300	0.411400	0.064370
O101	O10	0.582300	0.362800	0.107190
O111	O11	0.734700	0.588600	0.064370
O121	O12	0.417700	0.637200	0.107190
O131	O13	0.734700	0.411400	0.435630
O141	O14	0.417700	0.362800	0.392810
O151	O15	0.265300	0.588600	0.435630
O161	O16	0.582300	0.637200	0.392810
O171	O17	0.574800	0.386500	0.000000
O181	O18	0.425200	0.613500	0.000000
O191	O19	0.425200	0.386500	0.500000
O201	O20	0.574800	0.613500	0.500000
