data_KIKDUF_freeONLY_PM
_symmetry_space_group_name_H-M	'P1'
_cell_length_a	15.893000
_cell_length_b	11.889200
_cell_length_c	16.792900
_cell_angle_alpha	90.000000
_cell_angle_beta	91.161000
_cell_angle_gamma	90.000000
_symmetry_Int_Tables_number 1

loop_
_symmetry_equiv_pos_as_xyz
'x,y,z'

loop_
_atom_site_label
_atom_site_type_symbol
_atom_site_fract_x
_atom_site_fract_y
_atom_site_fract_z
F11	F1	0.143710	0.470430	0.011900
F21	F2	0.264780	0.468770	0.099080
N11	N1	0.984790	0.655200	0.082240
N21	N2	0.912130	0.714820	0.084340
H11	H1	0.871300	0.708100	0.049400
N31	N3	0.024930	0.897760	0.385320
N41	N4	0.090270	0.936080	0.342300
H21	H2	0.129800	0.979500	0.361500
C11	C1	0.114200	0.640200	0.165220
H31	H3	0.110100	0.558800	0.163400
H41	H4	0.132000	0.663600	0.218300
H51	H5	0.155000	0.665500	0.126900
C21	C2	0.030430	0.690390	0.145330
C31	C3	0.986660	0.773270	0.187360
C41	C4	0.910540	0.785500	0.146670
C51	C5	0.836070	0.858600	0.161810
H61	H6	0.812600	0.885200	0.111500
H71	H7	0.853400	0.922400	0.194200
H81	H8	0.793900	0.815700	0.189600
C61	C6	0.901880	0.773800	0.360340
H91	H9	0.912700	0.738400	0.411600
H101	H10	0.886900	0.716800	0.321300
H111	H11	0.855900	0.826900	0.364900
C71	C7	0.979230	0.834560	0.334570
C81	C8	0.015770	0.833440	0.259040
C91	C9	0.087190	0.899500	0.266930
C101	C10	0.152970	0.932200	0.209080
H121	H12	0.179200	0.002100	0.226100
H131	H13	0.127200	0.942200	0.156700
H141	H14	0.195300	0.873600	0.206800
F31	F3	0.643710	0.970430	0.511900
F41	F4	0.764780	0.968770	0.599080
N51	N5	0.484790	0.155200	0.582240
N61	N6	0.412130	0.214820	0.584340
H151	H15	0.371300	0.208100	0.549400
N71	N7	0.524930	0.397760	0.885320
N81	N8	0.590270	0.436080	0.842300
H161	H16	0.629800	0.479500	0.861500
C111	C11	0.614200	0.140200	0.665220
H171	H17	0.610100	0.058800	0.663400
H181	H18	0.632000	0.163600	0.718300
H191	H19	0.655000	0.165500	0.626900
C121	C12	0.530430	0.190390	0.645330
C131	C13	0.486660	0.273270	0.687360
C141	C14	0.410540	0.285500	0.646670
C151	C15	0.336070	0.358600	0.661810
H201	H20	0.312600	0.385200	0.611500
H211	H21	0.353400	0.422400	0.694200
H221	H22	0.293900	0.315700	0.689600
C161	C16	0.401880	0.273800	0.860340
H231	H23	0.412700	0.238400	0.911600
H241	H24	0.386900	0.216800	0.821300
H251	H25	0.355900	0.326900	0.864900
C171	C17	0.479230	0.334560	0.834570
C181	C18	0.515770	0.333440	0.759040
C191	C19	0.587190	0.399500	0.766930
C201	C20	0.652970	0.432200	0.709080
H261	H26	0.679200	0.502100	0.726100
H271	H27	0.627200	0.442200	0.656700
H281	H28	0.695300	0.373600	0.706800
F51	F5	0.356290	0.470430	0.988100
F61	F6	0.235220	0.468770	0.900920
N91	N9	0.515210	0.655200	0.917760
N101	N10	0.587870	0.714820	0.915660
H291	H29	0.628700	0.708100	0.950600
N111	N11	0.475070	0.897760	0.614680
N121	N12	0.409730	0.936080	0.657700
H301	H30	0.370200	0.979500	0.638500
C211	C21	0.385800	0.640200	0.834780
H311	H31	0.389900	0.558800	0.836600
H321	H32	0.368000	0.663600	0.781700
H331	H33	0.345000	0.665500	0.873100
C221	C22	0.469570	0.690390	0.854670
C231	C23	0.513340	0.773270	0.812640
C241	C24	0.589460	0.785500	0.853330
C251	C25	0.663930	0.858600	0.838190
H341	H34	0.687400	0.885200	0.888500
H351	H35	0.646600	0.922400	0.805800
H361	H36	0.706100	0.815700	0.810400
C261	C26	0.598120	0.773800	0.639660
H371	H37	0.587300	0.738400	0.588400
H381	H38	0.613100	0.716800	0.678700
H391	H39	0.644100	0.826900	0.635100
C271	C27	0.520770	0.834560	0.665430
C281	C28	0.484230	0.833440	0.740960
C291	C29	0.412810	0.899500	0.733070
C301	C30	0.347030	0.932200	0.790920
H401	H40	0.320800	0.002100	0.773900
H411	H41	0.372800	0.942200	0.843300
H421	H42	0.304700	0.873600	0.793200
F71	F7	0.856290	0.970430	0.488100
F81	F8	0.735220	0.968770	0.400920
N131	N13	0.015210	0.155200	0.417760
N141	N14	0.087870	0.214820	0.415660
H431	H43	0.128700	0.208100	0.450600
N151	N15	0.975070	0.397760	0.114680
N161	N16	0.909730	0.436080	0.157700
H441	H44	0.870200	0.479500	0.138500
C311	C31	0.885800	0.140200	0.334780
H451	H45	0.889900	0.058800	0.336600
H461	H46	0.868000	0.163600	0.281700
H471	H47	0.845000	0.165500	0.373100
C321	C32	0.969570	0.190390	0.354670
C331	C33	0.013340	0.273270	0.312640
C341	C34	0.089460	0.285500	0.353330
C351	C35	0.163930	0.358600	0.338190
H481	H48	0.187400	0.385200	0.388500
H491	H49	0.146600	0.422400	0.305800
H501	H50	0.206100	0.315700	0.310400
C361	C36	0.098120	0.273800	0.139660
H511	H51	0.087300	0.238400	0.088400
H521	H52	0.113100	0.216800	0.178700
H531	H53	0.144100	0.326900	0.135100
C371	C37	0.020770	0.334560	0.165430
C381	C38	0.984230	0.333440	0.240960
C391	C39	0.912810	0.399500	0.233070
C401	C40	0.847030	0.432200	0.290920
H541	H54	0.820800	0.502100	0.273900
H551	H55	0.872800	0.442200	0.343300
H561	H56	0.804700	0.373600	0.293200
F91	F9	0.856290	0.529570	0.988100
F101	F10	0.735220	0.531230	0.900920
N171	N17	0.015210	0.344800	0.917760
N181	N18	0.087870	0.285180	0.915660
H571	H57	0.128700	0.291900	0.950600
N191	N19	0.975070	0.102240	0.614680
N201	N20	0.909730	0.063920	0.657700
H581	H58	0.870200	0.020500	0.638500
C411	C41	0.885800	0.359800	0.834780
H591	H59	0.889900	0.441200	0.836600
H601	H60	0.868000	0.336400	0.781700
H611	H61	0.845000	0.334500	0.873100
C421	C42	0.969570	0.309610	0.854670
C431	C43	0.013340	0.226730	0.812640
C441	C44	0.089460	0.214500	0.853330
C451	C45	0.163930	0.141400	0.838190
H621	H62	0.187400	0.114800	0.888500
H631	H63	0.146600	0.077600	0.805800
H641	H64	0.206100	0.184300	0.810400
C461	C46	0.098120	0.226200	0.639660
H651	H65	0.087300	0.261600	0.588400
H661	H66	0.113100	0.283200	0.678700
H671	H67	0.144100	0.173100	0.635100
C471	C47	0.020770	0.165440	0.665430
C481	C48	0.984230	0.166560	0.740960
C491	C49	0.912810	0.100500	0.733070
C501	C50	0.847030	0.067800	0.790920
H681	H68	0.820800	0.997900	0.773900
H691	H69	0.872800	0.057800	0.843300
H701	H70	0.804700	0.126400	0.793200
F111	F11	0.356290	0.029570	0.488100
F121	F12	0.235220	0.031230	0.400920
N211	N21	0.515210	0.844800	0.417760
N221	N22	0.587870	0.785180	0.415660
H711	H71	0.628700	0.791900	0.450600
N231	N23	0.475070	0.602240	0.114680
N241	N24	0.409730	0.563920	0.157700
H721	H72	0.370200	0.520500	0.138500
C511	C51	0.385800	0.859800	0.334780
H731	H73	0.389900	0.941200	0.336600
H741	H74	0.368000	0.836400	0.281700
H751	H75	0.345000	0.834500	0.373100
C521	C52	0.469570	0.809610	0.354670
C531	C53	0.513340	0.726730	0.312640
C541	C54	0.589460	0.714500	0.353330
C551	C55	0.663930	0.641400	0.338190
H761	H76	0.687400	0.614800	0.388500
H771	H77	0.646600	0.577600	0.305800
H781	H78	0.706100	0.684300	0.310400
C561	C56	0.598120	0.726200	0.139660
H791	H79	0.587300	0.761600	0.088400
H801	H80	0.613100	0.783200	0.178700
H811	H81	0.644100	0.673100	0.135100
C571	C57	0.520770	0.665440	0.165430
C581	C58	0.484230	0.666560	0.240960
C591	C59	0.412810	0.600500	0.233070
C601	C60	0.347030	0.567800	0.290920
H821	H82	0.320800	0.497900	0.273900
H831	H83	0.372800	0.557800	0.343300
H841	H84	0.304700	0.626400	0.293200
F131	F13	0.643710	0.529570	0.011900
F141	F14	0.764780	0.531230	0.099080
N251	N25	0.484790	0.344800	0.082240
N261	N26	0.412130	0.285180	0.084340
H851	H85	0.371300	0.291900	0.049400
N271	N27	0.524930	0.102240	0.385320
N281	N28	0.590270	0.063920	0.342300
H861	H86	0.629800	0.020500	0.361500
C611	C61	0.614200	0.359800	0.165220
H871	H87	0.610100	0.441200	0.163400
H881	H88	0.632000	0.336400	0.218300
H891	H89	0.655000	0.334500	0.126900
C621	C62	0.530430	0.309610	0.145330
C631	C63	0.486660	0.226730	0.187360
C641	C64	0.410540	0.214500	0.146670
C651	C65	0.336070	0.141400	0.161810
H901	H90	0.312600	0.114800	0.111500
H911	H91	0.353400	0.077600	0.194200
H921	H92	0.293900	0.184300	0.189600
C661	C66	0.401880	0.226200	0.360340
H931	H93	0.412700	0.261600	0.411600
H941	H94	0.386900	0.283200	0.321300
H951	H95	0.355900	0.173100	0.364900
C671	C67	0.479230	0.165440	0.334570
C681	C68	0.515770	0.166560	0.259040
C691	C69	0.587190	0.100500	0.266930
C701	C70	0.652970	0.067800	0.209080
H961	H96	0.679200	0.997900	0.226100
H971	H97	0.627200	0.057800	0.156700
H981	H98	0.695300	0.126400	0.206800
F151	F15	0.143710	0.029570	0.511900
F161	F16	0.264780	0.031230	0.599080
N291	N29	0.984790	0.844800	0.582240
N301	N30	0.912130	0.785180	0.584340
H991	H99	0.871300	0.791900	0.549400
N311	N31	0.024930	0.602240	0.885320
N321	N32	0.090270	0.563920	0.842300
H1001	H100	0.129800	0.520500	0.861500
C711	C71	0.114200	0.859800	0.665220
H1011	H101	0.110100	0.941200	0.663400
H1021	H102	0.132000	0.836400	0.718300
H1031	H103	0.155000	0.834500	0.626900
C721	C72	0.030430	0.809610	0.645330
C731	C73	0.986660	0.726730	0.687360
C741	C74	0.910540	0.714500	0.646670
C751	C75	0.836070	0.641400	0.661810
H1041	H104	0.812600	0.614800	0.611500
H1051	H105	0.853400	0.577600	0.694200
H1061	H106	0.793900	0.684300	0.689600
C761	C76	0.901880	0.726200	0.860340
H1071	H107	0.912700	0.761600	0.911600
H1081	H108	0.886900	0.783200	0.821300
H1091	H109	0.855900	0.673100	0.864900
C771	C77	0.979230	0.665440	0.834570
C781	C78	0.015770	0.666560	0.759040
C791	C79	0.087190	0.600500	0.766930
C801	C80	0.152970	0.567800	0.709080
H1101	H110	0.179200	0.497900	0.726100
H1111	H111	0.127200	0.557800	0.656700
H1121	H112	0.195300	0.626400	0.706800
Cd11	Cd1	0.000000	0.500000	0.000000
Cd21	Cd2	0.500000	0.000000	0.500000
Cd31	Cd3	0.500000	0.500000	0.000000
Cd41	Cd4	0.000000	0.000000	0.500000
Si11	Si1	0.250000	0.472390	0.000000
F171	F17	0.250000	0.329950	0.000000
F181	F18	0.250000	0.610940	0.000000
Si21	Si2	0.750000	0.972390	0.500000
F191	F19	0.750000	0.829950	0.500000
F201	F20	0.750000	0.110940	0.500000
Si31	Si3	0.750000	0.527610	0.000000
F211	F21	0.750000	0.670050	0.000000
F221	F22	0.750000	0.389060	0.000000
Si41	Si4	0.250000	0.027610	0.500000
F231	F23	0.250000	0.170050	0.500000
F241	F24	0.250000	0.889060	0.500000
