data_KIKDAL_freeONLY_PM
_symmetry_space_group_name_H-M	'P1'
_cell_length_a	25.791000
_cell_length_b	25.791000
_cell_length_c	11.128400
_cell_angle_alpha	90.000000
_cell_angle_beta	90.000000
_cell_angle_gamma	120.000000
_symmetry_Int_Tables_number 1

loop_
_symmetry_equiv_pos_as_xyz
'x,y,z'

loop_
_atom_site_label
_atom_site_type_symbol
_atom_site_fract_x
_atom_site_fract_y
_atom_site_fract_z
S11	S1	0.673500	0.194790	0.875240
N11	N1	0.455820	0.057830	0.091000
N21	N2	0.472930	0.114770	0.056460
H11	H1	0.495800	0.132300	0.994800
N31	N3	0.352130	0.137180	0.475860
N41	N4	0.304510	0.089070	0.424720
H21	H2	0.268200	0.072600	0.452800
N51	N5	0.565400	0.090320	0.922120
C11	C1	0.422050	0.048850	0.189000
C21	C2	0.417150	0.099880	0.215400
C31	C3	0.450590	0.141300	0.128000
C41	C4	0.460830	0.202320	0.103600
H31	H3	0.497200	0.231700	0.143500
H41	H4	0.427200	0.205500	0.133600
H51	H5	0.464800	0.209700	0.017700
C51	C5	0.396380	0.991360	0.256600
H61	H6	0.368500	0.958800	0.205500
H71	H7	0.375500	0.993600	0.327200
H81	H8	0.428400	0.984200	0.281100
C61	C6	0.319640	0.069700	0.326000
C71	C7	0.380710	0.106120	0.310700
C81	C8	0.399000	0.148160	0.406300
C91	C9	0.460300	0.198360	0.432100
H91	H9	0.463400	0.235800	0.406700
H101	H10	0.489400	0.192100	0.388600
H111	H11	0.468100	0.199900	0.517600
C101	C10	0.274260	0.018600	0.253700
H121	H12	0.261100	0.981600	0.297600
H131	H13	0.291900	0.016800	0.177900
H141	H14	0.240300	0.024100	0.238500
C111	C11	0.610630	0.133730	0.903100
S21	S2	0.340170	0.528120	0.208570
N61	N6	0.122490	0.391160	0.424330
N71	N7	0.139600	0.448100	0.389790
H151	H15	0.162470	0.465630	0.328130
N81	N8	0.018800	0.470510	0.809190
N91	N9	0.971180	0.422400	0.758050
H161	H16	0.934870	0.405930	0.786130
N101	N10	0.232070	0.423650	0.255450
C121	C12	0.088720	0.382180	0.522330
C131	C13	0.083820	0.433210	0.548730
C141	C14	0.117260	0.474630	0.461330
C151	C15	0.127500	0.535650	0.436930
H171	H17	0.163870	0.565030	0.476830
H181	H18	0.093870	0.538830	0.466930
H191	H19	0.131470	0.543030	0.351030
C161	C16	0.063050	0.324690	0.589930
H201	H20	0.035170	0.292130	0.538830
H211	H21	0.042170	0.326930	0.660530
H221	H22	0.095070	0.317530	0.614430
C171	C17	0.986310	0.403030	0.659330
C181	C18	0.047380	0.439450	0.644030
C191	C19	0.065670	0.481490	0.739630
C201	C20	0.126970	0.531690	0.765430
H231	H23	0.130070	0.569130	0.740030
H241	H24	0.156070	0.525430	0.721930
H251	H25	0.134770	0.533230	0.850930
C211	C21	0.940930	0.351930	0.587030
H261	H26	0.927770	0.314930	0.630930
H271	H27	0.958570	0.350130	0.511230
H281	H28	0.906970	0.357430	0.571830
C221	C22	0.277300	0.467060	0.236430
S31	S3	0.006830	0.861460	0.541910
N111	N11	0.789150	0.724500	0.757670
N121	N12	0.806260	0.781440	0.723130
H291	H29	0.829130	0.798970	0.661470
N131	N13	0.685460	0.803850	0.142530
N141	N14	0.637840	0.755740	0.091390
H301	H30	0.601530	0.739270	0.119470
N151	N15	0.898730	0.756990	0.588790
C231	C23	0.755380	0.715520	0.855670
C241	C24	0.750480	0.766550	0.882070
C251	C25	0.783920	0.807970	0.794670
C261	C26	0.794160	0.868990	0.770270
H311	H31	0.830530	0.898370	0.810170
H321	H32	0.760530	0.872170	0.800270
H331	H33	0.798130	0.876370	0.684370
C271	C27	0.729710	0.658030	0.923270
H341	H34	0.701830	0.625470	0.872170
H351	H35	0.708830	0.660270	0.993870
H361	H36	0.761730	0.650870	0.947770
C281	C28	0.652970	0.736370	0.992670
C291	C29	0.714040	0.772790	0.977370
C301	C30	0.732330	0.814830	0.072970
C311	C31	0.793630	0.865030	0.098770
H371	H37	0.796730	0.902470	0.073370
H381	H38	0.822730	0.858770	0.055270
H391	H39	0.801430	0.866570	0.184270
C321	C32	0.607590	0.685270	0.920370
H401	H40	0.594430	0.648270	0.964270
H411	H41	0.625230	0.683470	0.844570
H421	H42	0.573630	0.690770	0.905170
C331	C33	0.943960	0.800400	0.569770
S41	S4	0.805210	0.478710	0.875240
N161	N16	0.942170	0.397990	0.091000
N171	N17	0.885230	0.358160	0.056460
H431	H43	0.867700	0.363500	0.994800
N181	N18	0.862820	0.214950	0.475860
N191	N19	0.910930	0.215440	0.424720
H441	H44	0.927400	0.195600	0.452800
N201	N20	0.909680	0.475080	0.922120
C341	C34	0.951150	0.373200	0.189000
C351	C35	0.900120	0.317270	0.215400
C361	C36	0.858700	0.309290	0.128000
C371	C37	0.797680	0.258510	0.103600
H451	H45	0.768300	0.265500	0.143500
H461	H46	0.794500	0.221700	0.133600
H471	H47	0.790300	0.255100	0.017700
C381	C38	0.008640	0.405020	0.256600
H481	H48	0.041200	0.409700	0.205500
H491	H49	0.006400	0.381900	0.327200
H501	H50	0.015800	0.444200	0.281100
C391	C39	0.930300	0.249940	0.326000
C401	C40	0.893880	0.274590	0.310700
C411	C41	0.851840	0.250840	0.406300
C421	C42	0.801640	0.261940	0.432100
H511	H51	0.764200	0.227600	0.406700
H521	H52	0.807900	0.297300	0.388600
H531	H53	0.800100	0.268200	0.517600
C431	C43	0.981400	0.255660	0.253700
H541	H54	0.018400	0.279500	0.297600
H551	H55	0.983200	0.275100	0.177900
H561	H56	0.975900	0.216200	0.238500
C441	C44	0.866270	0.476900	0.903100
S51	S5	0.471880	0.812040	0.208570
N211	N21	0.608840	0.731320	0.424330
N221	N22	0.551900	0.691490	0.389790
H571	H57	0.534370	0.696830	0.328130
N231	N23	0.529490	0.548280	0.809190
N241	N24	0.577600	0.548770	0.758050
H581	H58	0.594070	0.528930	0.786130
N251	N25	0.576350	0.808410	0.255450
C451	C45	0.617820	0.706530	0.522330
C461	C46	0.566790	0.650600	0.548730
C471	C47	0.525370	0.642620	0.461330
C481	C48	0.464350	0.591840	0.436930
H591	H59	0.434970	0.598830	0.476830
H601	H60	0.461170	0.555030	0.466930
H611	H61	0.456970	0.588430	0.351030
C491	C49	0.675310	0.738350	0.589930
H621	H62	0.707870	0.743030	0.538830
H631	H63	0.673070	0.715230	0.660530
H641	H64	0.682470	0.777530	0.614430
C501	C50	0.596970	0.583270	0.659330
C511	C51	0.560550	0.607920	0.644030
C521	C52	0.518510	0.584170	0.739630
C531	C53	0.468310	0.595270	0.765430
H651	H65	0.430870	0.560930	0.740030
H661	H66	0.474570	0.630630	0.721930
H671	H67	0.466770	0.601530	0.850930
C541	C54	0.648070	0.588990	0.587030
H681	H68	0.685070	0.612830	0.630930
H691	H69	0.649870	0.608430	0.511230
H701	H70	0.642570	0.549530	0.571830
C551	C55	0.532940	0.810230	0.236430
S61	S6	0.138540	0.145380	0.541910
N261	N26	0.275500	0.064660	0.757670
N271	N27	0.218560	0.024830	0.723130
H711	H71	0.201030	0.030170	0.661470
N281	N28	0.196150	0.881620	0.142530
N291	N29	0.244260	0.882110	0.091390
H721	H72	0.260730	0.862270	0.119470
N301	N30	0.243010	0.141750	0.588790
C561	C56	0.284480	0.039870	0.855670
C571	C57	0.233450	0.983940	0.882070
C581	C58	0.192030	0.975960	0.794670
C591	C59	0.131010	0.925180	0.770270
H731	H73	0.101630	0.932170	0.810170
H741	H74	0.127830	0.888370	0.800270
H751	H75	0.123630	0.921770	0.684370
C601	C60	0.341970	0.071690	0.923270
H761	H76	0.374530	0.076370	0.872170
H771	H77	0.339730	0.048570	0.993870
H781	H78	0.349130	0.110870	0.947770
C611	C61	0.263630	0.916610	0.992670
C621	C62	0.227210	0.941260	0.977370
C631	C63	0.185170	0.917510	0.072970
C641	C64	0.134970	0.928610	0.098770
H791	H79	0.097530	0.894270	0.073370
H801	H80	0.141230	0.963970	0.055270
H811	H81	0.133430	0.934870	0.184270
C651	C65	0.314730	0.922330	0.920370
H821	H82	0.351730	0.946170	0.964270
H831	H83	0.316530	0.941770	0.844570
H841	H84	0.309230	0.882870	0.905170
C661	C66	0.199600	0.143570	0.569770
S71	S7	0.521290	0.326500	0.875240
N311	N31	0.602010	0.544180	0.091000
N321	N32	0.641840	0.527070	0.056460
H851	H85	0.636500	0.504200	0.994800
N331	N33	0.785050	0.647870	0.475860
N341	N34	0.784560	0.695490	0.424720
H861	H86	0.804400	0.731800	0.452800
N351	N35	0.524920	0.434600	0.922120
C671	C67	0.626800	0.577950	0.189000
C681	C68	0.682730	0.582850	0.215400
C691	C69	0.690710	0.549410	0.128000
C701	C70	0.741490	0.539170	0.103600
H871	H87	0.734500	0.502800	0.143500
H881	H88	0.778300	0.572800	0.133600
H891	H89	0.744900	0.535200	0.017700
C711	C71	0.594980	0.603620	0.256600
H901	H90	0.590300	0.631500	0.205500
H911	H91	0.618100	0.624500	0.327200
H921	H92	0.555800	0.571600	0.281100
C721	C72	0.750060	0.680360	0.326000
C731	C73	0.725410	0.619290	0.310700
C741	C74	0.749160	0.601000	0.406300
C751	C75	0.738060	0.539700	0.432100
H931	H93	0.772400	0.536600	0.406700
H941	H94	0.702700	0.510600	0.388600
H951	H95	0.731800	0.531900	0.517600
C761	C76	0.744340	0.725740	0.253700
H961	H96	0.720500	0.738900	0.297600
H971	H97	0.724900	0.708100	0.177900
H981	H98	0.783800	0.759700	0.238500
C771	C77	0.523100	0.389370	0.903100
S81	S8	0.187960	0.659830	0.208570
N361	N36	0.268680	0.877510	0.424330
N371	N37	0.308510	0.860400	0.389790
H991	H99	0.303170	0.837530	0.328130
N381	N38	0.451720	0.981200	0.809190
N391	N39	0.451230	0.028820	0.758050
H1001	H100	0.471070	0.065130	0.786130
N401	N40	0.191590	0.767930	0.255450
C781	C78	0.293470	0.911280	0.522330
C791	C79	0.349400	0.916180	0.548730
C801	C80	0.357380	0.882740	0.461330
C811	C81	0.408160	0.872500	0.436930
H1011	H101	0.401170	0.836130	0.476830
H1021	H102	0.444970	0.906130	0.466930
H1031	H103	0.411570	0.868530	0.351030
C821	C82	0.261650	0.936950	0.589930
H1041	H104	0.256970	0.964830	0.538830
H1051	H105	0.284770	0.957830	0.660530
H1061	H106	0.222470	0.904930	0.614430
C831	C83	0.416730	0.013690	0.659330
C841	C84	0.392080	0.952620	0.644030
C851	C85	0.415830	0.934330	0.739630
C861	C86	0.404730	0.873030	0.765430
H1071	H107	0.439070	0.869930	0.740030
H1081	H108	0.369370	0.843930	0.721930
H1091	H109	0.398470	0.865230	0.850930
C871	C87	0.411010	0.059070	0.587030
H1101	H110	0.387170	0.072230	0.630930
H1111	H111	0.391570	0.041430	0.511230
H1121	H112	0.450470	0.093030	0.571830
C881	C88	0.189770	0.722700	0.236430
S91	S9	0.854620	0.993170	0.541910
N411	N41	0.935340	0.210850	0.757670
N421	N42	0.975170	0.193740	0.723130
H1131	H113	0.969830	0.170870	0.661470
N431	N43	0.118380	0.314540	0.142530
N441	N44	0.117890	0.362160	0.091390
H1141	H114	0.137730	0.398470	0.119470
N451	N45	0.858250	0.101270	0.588790
C891	C89	0.960130	0.244620	0.855670
C901	C90	0.016060	0.249520	0.882070
C911	C91	0.024040	0.216080	0.794670
C921	C92	0.074820	0.205840	0.770270
H1151	H115	0.067830	0.169470	0.810170
H1161	H116	0.111630	0.239470	0.800270
H1171	H117	0.078230	0.201870	0.684370
C931	C93	0.928310	0.270290	0.923270
H1181	H118	0.923630	0.298170	0.872170
H1191	H119	0.951430	0.291170	0.993870
H1201	H120	0.889130	0.238270	0.947770
C941	C94	0.083390	0.347030	0.992670
C951	C95	0.058740	0.285960	0.977370
C961	C96	0.082490	0.267670	0.072970
C971	C97	0.071390	0.206370	0.098770
H1211	H121	0.105730	0.203270	0.073370
H1221	H122	0.036030	0.177270	0.055270
H1231	H123	0.065130	0.198570	0.184270
C981	C98	0.077670	0.392410	0.920370
H1241	H124	0.053830	0.405570	0.964270
H1251	H125	0.058230	0.374770	0.844570
H1261	H126	0.117130	0.426370	0.905170
C991	C99	0.856430	0.056040	0.569770
S101	S10	0.326500	0.805210	0.124760
N461	N46	0.544180	0.942170	0.909000
N471	N47	0.527070	0.885230	0.943540
H1271	H127	0.504200	0.867700	0.005200
N481	N48	0.647870	0.862820	0.524140
N491	N49	0.695490	0.910930	0.575280
H1281	H128	0.731800	0.927400	0.547200
N501	N50	0.434600	0.909680	0.077880
C1001	C100	0.577950	0.951150	0.811000
C1011	C101	0.582850	0.900120	0.784600
C1021	C102	0.549410	0.858700	0.872000
C1031	C103	0.539170	0.797680	0.896400
H1291	H129	0.502800	0.768300	0.856500
H1301	H130	0.572800	0.794500	0.866400
H1311	H131	0.535200	0.790300	0.982300
C1041	C104	0.603620	0.008640	0.743400
H1321	H132	0.631500	0.041200	0.794500
H1331	H133	0.624500	0.006400	0.672800
H1341	H134	0.571600	0.015800	0.718900
C1051	C105	0.680360	0.930300	0.674000
C1061	C106	0.619290	0.893880	0.689300
C1071	C107	0.601000	0.851840	0.593700
C1081	C108	0.539700	0.801640	0.567900
H1351	H135	0.536600	0.764200	0.593300
H1361	H136	0.510600	0.807900	0.611400
H1371	H137	0.531900	0.800100	0.482400
C1091	C109	0.725740	0.981400	0.746300
H1381	H138	0.738900	0.018400	0.702400
H1391	H139	0.708100	0.983200	0.822100
H1401	H140	0.759700	0.975900	0.761500
C1101	C110	0.389370	0.866270	0.096900
S111	S11	0.993170	0.138540	0.458090
N511	N51	0.210850	0.275500	0.242330
N521	N52	0.193740	0.218560	0.276870
H1411	H141	0.170870	0.201030	0.338530
N531	N53	0.314540	0.196150	0.857470
N541	N54	0.362160	0.244260	0.908610
H1421	H142	0.398470	0.260730	0.880530
N551	N55	0.101270	0.243010	0.411210
C1111	C111	0.244620	0.284480	0.144330
C1121	C112	0.249520	0.233450	0.117930
C1131	C113	0.216080	0.192030	0.205330
C1141	C114	0.205840	0.131010	0.229730
H1431	H143	0.169470	0.101630	0.189830
H1441	H144	0.239470	0.127830	0.199730
H1451	H145	0.201870	0.123630	0.315630
C1151	C115	0.270290	0.341970	0.076730
H1461	H146	0.298170	0.374530	0.127830
H1471	H147	0.291170	0.339730	0.006130
H1481	H148	0.238270	0.349130	0.052230
C1161	C116	0.347030	0.263630	0.007330
C1171	C117	0.285960	0.227210	0.022630
C1181	C118	0.267670	0.185170	0.927030
C1191	C119	0.206370	0.134970	0.901230
H1491	H149	0.203270	0.097530	0.926630
H1501	H150	0.177270	0.141230	0.944730
H1511	H151	0.198570	0.133430	0.815730
C1201	C120	0.392410	0.314730	0.079630
H1521	H152	0.405570	0.351730	0.035730
H1531	H153	0.374770	0.316530	0.155430
H1541	H154	0.426370	0.309230	0.094830
C1211	C121	0.056040	0.199600	0.430230
S121	S12	0.659830	0.471880	0.791430
N561	N56	0.877510	0.608840	0.575670
N571	N57	0.860400	0.551900	0.610210
H1551	H155	0.837530	0.534370	0.671870
N581	N58	0.981200	0.529490	0.190810
N591	N59	0.028820	0.577600	0.241950
H1561	H156	0.065130	0.594070	0.213870
N601	N60	0.767930	0.576350	0.744550
C1221	C122	0.911280	0.617820	0.477670
C1231	C123	0.916180	0.566790	0.451270
C1241	C124	0.882740	0.525370	0.538670
C1251	C125	0.872500	0.464350	0.563070
H1571	H157	0.836130	0.434970	0.523170
H1581	H158	0.906130	0.461170	0.533070
H1591	H159	0.868530	0.456970	0.648970
C1261	C126	0.936950	0.675310	0.410070
H1601	H160	0.964830	0.707870	0.461170
H1611	H161	0.957830	0.673070	0.339470
H1621	H162	0.904930	0.682470	0.385570
C1271	C127	0.013690	0.596970	0.340670
C1281	C128	0.952620	0.560550	0.355970
C1291	C129	0.934330	0.518510	0.260370
C1301	C130	0.873030	0.468310	0.234570
H1631	H163	0.869930	0.430870	0.259970
H1641	H164	0.843930	0.474570	0.278070
H1651	H165	0.865230	0.466770	0.149070
C1311	C131	0.059070	0.648070	0.412970
H1661	H166	0.072230	0.685070	0.369070
H1671	H167	0.041430	0.649870	0.488770
H1681	H168	0.093030	0.642570	0.428170
C1321	C132	0.722700	0.532940	0.763570
S131	S13	0.194790	0.521290	0.124760
N611	N61	0.057830	0.602010	0.909000
N621	N62	0.114770	0.641840	0.943540
H1691	H169	0.132300	0.636500	0.005200
N631	N63	0.137180	0.785050	0.524140
N641	N64	0.089070	0.784560	0.575280
H1701	H170	0.072600	0.804400	0.547200
N651	N65	0.090320	0.524920	0.077880
C1331	C133	0.048850	0.626800	0.811000
C1341	C134	0.099880	0.682730	0.784600
C1351	C135	0.141300	0.690710	0.872000
C1361	C136	0.202320	0.741490	0.896400
H1711	H171	0.231700	0.734500	0.856500
H1721	H172	0.205500	0.778300	0.866400
H1731	H173	0.209700	0.744900	0.982300
C1371	C137	0.991360	0.594980	0.743400
H1741	H174	0.958800	0.590300	0.794500
H1751	H175	0.993600	0.618100	0.672800
H1761	H176	0.984200	0.555800	0.718900
C1381	C138	0.069700	0.750060	0.674000
C1391	C139	0.106120	0.725410	0.689300
C1401	C140	0.148160	0.749160	0.593700
C1411	C141	0.198360	0.738060	0.567900
H1771	H177	0.235800	0.772400	0.593300
H1781	H178	0.192100	0.702700	0.611400
H1791	H179	0.199900	0.731800	0.482400
C1421	C142	0.018600	0.744340	0.746300
H1801	H180	0.981600	0.720500	0.702400
H1811	H181	0.016800	0.724900	0.822100
H1821	H182	0.024100	0.783800	0.761500
C1431	C143	0.133730	0.523100	0.096900
S141	S14	0.861460	0.854620	0.458090
N661	N66	0.724500	0.935340	0.242330
N671	N67	0.781440	0.975170	0.276870
H1831	H183	0.798970	0.969830	0.338530
N681	N68	0.803850	0.118380	0.857470
N691	N69	0.755740	0.117890	0.908610
H1841	H184	0.739270	0.137730	0.880530
N701	N70	0.756990	0.858250	0.411210
C1441	C144	0.715520	0.960130	0.144330
C1451	C145	0.766550	0.016060	0.117930
C1461	C146	0.807970	0.024040	0.205330
C1471	C147	0.868990	0.074820	0.229730
H1851	H185	0.898370	0.067830	0.189830
H1861	H186	0.872170	0.111630	0.199730
H1871	H187	0.876370	0.078230	0.315630
C1481	C148	0.658030	0.928310	0.076730
H1881	H188	0.625470	0.923630	0.127830
H1891	H189	0.660270	0.951430	0.006130
H1901	H190	0.650870	0.889130	0.052230
C1491	C149	0.736370	0.083390	0.007330
C1501	C150	0.772790	0.058740	0.022630
C1511	C151	0.814830	0.082490	0.927030
C1521	C152	0.865030	0.071390	0.901230
H1911	H191	0.902470	0.105730	0.926630
H1921	H192	0.858770	0.036030	0.944730
H1931	H193	0.866570	0.065130	0.815730
C1531	C153	0.685270	0.077670	0.079630
H1941	H194	0.648270	0.053830	0.035730
H1951	H195	0.683470	0.058230	0.155430
H1961	H196	0.690770	0.117130	0.094830
C1541	C154	0.800400	0.856430	0.430230
S151	S15	0.528120	0.187960	0.791430
N711	N71	0.391160	0.268680	0.575670
N721	N72	0.448100	0.308510	0.610210
H1971	H197	0.465630	0.303170	0.671870
N731	N73	0.470510	0.451720	0.190810
N741	N74	0.422400	0.451230	0.241950
H1981	H198	0.405930	0.471070	0.213870
N751	N75	0.423650	0.191590	0.744550
C1551	C155	0.382180	0.293470	0.477670
C1561	C156	0.433210	0.349400	0.451270
C1571	C157	0.474630	0.357380	0.538670
C1581	C158	0.535650	0.408160	0.563070
H1991	H199	0.565030	0.401170	0.523170
H2001	H200	0.538830	0.444970	0.533070
H2011	H201	0.543030	0.411570	0.648970
C1591	C159	0.324690	0.261650	0.410070
H2021	H202	0.292130	0.256970	0.461170
H2031	H203	0.326930	0.284770	0.339470
H2041	H204	0.317530	0.222470	0.385570
C1601	C160	0.403030	0.416730	0.340670
C1611	C161	0.439450	0.392080	0.355970
C1621	C162	0.481490	0.415830	0.260370
C1631	C163	0.531690	0.404730	0.234570
H2051	H205	0.569130	0.439070	0.259970
H2061	H206	0.525430	0.369370	0.278070
H2071	H207	0.533230	0.398470	0.149070
C1641	C164	0.351930	0.411010	0.412970
H2081	H208	0.314930	0.387170	0.369070
H2091	H209	0.350130	0.391570	0.488770
H2101	H210	0.357430	0.450470	0.428170
C1651	C165	0.467060	0.189770	0.763570
S161	S16	0.478710	0.673500	0.124760
N761	N76	0.397990	0.455820	0.909000
N771	N77	0.358160	0.472930	0.943540
H2111	H211	0.363500	0.495800	0.005200
N781	N78	0.214950	0.352130	0.524140
N791	N79	0.215440	0.304510	0.575280
H2121	H212	0.195600	0.268200	0.547200
N801	N80	0.475080	0.565400	0.077880
C1661	C166	0.373200	0.422050	0.811000
C1671	C167	0.317270	0.417150	0.784600
C1681	C168	0.309290	0.450590	0.872000
C1691	C169	0.258510	0.460830	0.896400
H2131	H213	0.265500	0.497200	0.856500
H2141	H214	0.221700	0.427200	0.866400
H2151	H215	0.255100	0.464800	0.982300
C1701	C170	0.405020	0.396380	0.743400
H2161	H216	0.409700	0.368500	0.794500
H2171	H217	0.381900	0.375500	0.672800
H2181	H218	0.444200	0.428400	0.718900
C1711	C171	0.249940	0.319640	0.674000
C1721	C172	0.274590	0.380710	0.689300
C1731	C173	0.250840	0.399000	0.593700
C1741	C174	0.261940	0.460300	0.567900
H2191	H219	0.227600	0.463400	0.593300
H2201	H220	0.297300	0.489400	0.611400
H2211	H221	0.268200	0.468100	0.482400
C1751	C175	0.255660	0.274260	0.746300
H2221	H222	0.279500	0.261100	0.702400
H2231	H223	0.275100	0.291900	0.822100
H2241	H224	0.216200	0.240300	0.761500
C1761	C176	0.476900	0.610630	0.096900
S171	S17	0.145380	0.006830	0.458090
N811	N81	0.064660	0.789150	0.242330
N821	N82	0.024830	0.806260	0.276870
H2251	H225	0.030170	0.829130	0.338530
N831	N83	0.881620	0.685460	0.857470
N841	N84	0.882110	0.637840	0.908610
H2261	H226	0.862270	0.601530	0.880530
N851	N85	0.141750	0.898730	0.411210
C1771	C177	0.039870	0.755380	0.144330
C1781	C178	0.983940	0.750480	0.117930
C1791	C179	0.975960	0.783920	0.205330
C1801	C180	0.925180	0.794160	0.229730
H2271	H227	0.932170	0.830530	0.189830
H2281	H228	0.888370	0.760530	0.199730
H2291	H229	0.921770	0.798130	0.315630
C1811	C181	0.071690	0.729710	0.076730
H2301	H230	0.076370	0.701830	0.127830
H2311	H231	0.048570	0.708830	0.006130
H2321	H232	0.110870	0.761730	0.052230
C1821	C182	0.916610	0.652970	0.007330
C1831	C183	0.941260	0.714040	0.022630
C1841	C184	0.917510	0.732330	0.927030
C1851	C185	0.928610	0.793630	0.901230
H2331	H233	0.894270	0.796730	0.926630
H2341	H234	0.963970	0.822730	0.944730
H2351	H235	0.934870	0.801430	0.815730
C1861	C186	0.922330	0.607590	0.079630
H2361	H236	0.946170	0.594430	0.035730
H2371	H237	0.941770	0.625230	0.155430
H2381	H238	0.882870	0.573630	0.094830
C1871	C187	0.143570	0.943960	0.430230
S181	S18	0.812040	0.340170	0.791430
N861	N86	0.731320	0.122490	0.575670
N871	N87	0.691490	0.139600	0.610210
H2391	H239	0.696830	0.162470	0.671870
N881	N88	0.548280	0.018800	0.190810
N891	N89	0.548770	0.971180	0.241950
H2401	H240	0.528930	0.934870	0.213870
N901	N90	0.808410	0.232070	0.744550
C1881	C188	0.706530	0.088720	0.477670
C1891	C189	0.650600	0.083820	0.451270
C1901	C190	0.642620	0.117260	0.538670
C1911	C191	0.591840	0.127500	0.563070
H2411	H241	0.598830	0.163870	0.523170
H2421	H242	0.555030	0.093870	0.533070
H2431	H243	0.588430	0.131470	0.648970
C1921	C192	0.738350	0.063050	0.410070
H2441	H244	0.743030	0.035170	0.461170
H2451	H245	0.715230	0.042170	0.339470
H2461	H246	0.777530	0.095070	0.385570
C1931	C193	0.583270	0.986310	0.340670
C1941	C194	0.607920	0.047380	0.355970
C1951	C195	0.584170	0.065670	0.260370
C1961	C196	0.595270	0.126970	0.234570
H2471	H247	0.560930	0.130070	0.259970
H2481	H248	0.630630	0.156070	0.278070
H2491	H249	0.601530	0.134770	0.149070
C1971	C197	0.588990	0.940930	0.412970
H2501	H250	0.612830	0.927770	0.369070
H2511	H251	0.608430	0.958570	0.488770
H2521	H252	0.549530	0.906970	0.428170
C1981	C198	0.810230	0.277300	0.763570
Cd11	Cd1	0.500000	0.000000	0.000000
Cd21	Cd2	0.166670	0.333330	0.333330
Cd31	Cd3	0.833330	0.666670	0.666670
Cd41	Cd4	0.000000	0.500000	0.000000
Cd51	Cd5	0.666670	0.833330	0.333330
Cd61	Cd6	0.333330	0.166670	0.666670
Cd71	Cd7	0.500000	0.500000	0.000000
Cd81	Cd8	0.166670	0.833330	0.333330
Cd91	Cd9	0.833330	0.166670	0.666670
