data_KINLAW_freeONLY_PM
_symmetry_space_group_name_H-M	'P1'
_cell_length_a	8.733000
_cell_length_b	16.283000
_cell_length_c	22.980000
_cell_angle_alpha	90.000000
_cell_angle_beta	90.000000
_cell_angle_gamma	90.000000
_symmetry_Int_Tables_number 1

loop_
_symmetry_equiv_pos_as_xyz
'x,y,z'

loop_
_atom_site_label
_atom_site_type_symbol
_atom_site_fract_x
_atom_site_fract_y
_atom_site_fract_z
Co11	Co1	0.728870	0.750000	0.750000
Co21	Co2	0.771130	0.750000	0.250000
Co31	Co3	0.271130	0.250000	0.250000
Co41	Co4	0.228870	0.250000	0.750000
H11	H1	0.610200	0.569500	0.689500
H21	H2	0.426500	0.480300	0.740200
H31	H3	0.469000	0.690700	0.828800
H41	H4	0.220600	0.663800	0.863900
H51	H5	0.075300	0.623700	0.944100
H61	H6	0.191300	0.387900	0.914800
H71	H7	0.345000	0.428000	0.836800
H81	H8	0.136500	0.589600	0.660500
H91	H9	0.880100	0.742400	0.561800
H101	H10	0.889800	0.569500	0.310500
H111	H11	0.073500	0.480300	0.259800
H121	H12	0.031000	0.690700	0.171200
H131	H13	0.279400	0.663800	0.136100
H141	H14	0.424700	0.623700	0.055900
H151	H15	0.308700	0.387900	0.085200
H161	H16	0.155000	0.428000	0.163200
H171	H17	0.363500	0.589600	0.339500
H181	H18	0.619900	0.742400	0.438200
H191	H19	0.889800	0.930500	0.189500
H201	H20	0.073500	0.019700	0.240200
H211	H21	0.031000	0.809300	0.328800
H221	H22	0.279400	0.836200	0.363900
H231	H23	0.424700	0.876300	0.444100
H241	H24	0.308700	0.112100	0.414800
H251	H25	0.155000	0.072000	0.336800
H261	H26	0.363500	0.910400	0.160500
H271	H27	0.619900	0.757600	0.061800
H281	H28	0.610200	0.930500	0.810500
H291	H29	0.426500	0.019700	0.759800
H301	H30	0.469000	0.809300	0.671200
H311	H31	0.220600	0.836200	0.636100
H321	H32	0.075300	0.876300	0.555900
H331	H33	0.191300	0.112100	0.585200
H341	H34	0.345000	0.072000	0.663200
H351	H35	0.136500	0.910400	0.839500
H361	H36	0.880100	0.757600	0.938200
H371	H37	0.389800	0.430500	0.310500
H381	H38	0.573500	0.519700	0.259800
H391	H39	0.531000	0.309300	0.171200
H401	H40	0.779400	0.336200	0.136100
H411	H41	0.924700	0.376300	0.055900
H421	H42	0.808700	0.612100	0.085200
H431	H43	0.655000	0.572000	0.163200
H441	H44	0.863500	0.410400	0.339500
H451	H45	0.119900	0.257600	0.438200
H461	H46	0.110200	0.430500	0.689500
H471	H47	0.926500	0.519700	0.740200
H481	H48	0.969000	0.309300	0.828800
H491	H49	0.720600	0.336200	0.863900
H501	H50	0.575300	0.376300	0.944100
H511	H51	0.691300	0.612100	0.914800
H521	H52	0.845000	0.572000	0.836800
H531	H53	0.636500	0.410400	0.660500
H541	H54	0.380100	0.257600	0.561800
H551	H55	0.110200	0.069500	0.810500
H561	H56	0.926500	0.980300	0.759800
H571	H57	0.969000	0.190700	0.671200
H581	H58	0.720600	0.163800	0.636100
H591	H59	0.575300	0.123700	0.555900
H601	H60	0.691300	0.887900	0.585200
H611	H61	0.845000	0.928000	0.663200
H621	H62	0.636500	0.089600	0.839500
H631	H63	0.380100	0.242400	0.938200
H641	H64	0.389800	0.069500	0.189500
H651	H65	0.573500	0.980300	0.240200
H661	H66	0.531000	0.190700	0.328800
H671	H67	0.779400	0.163800	0.363900
H681	H68	0.924700	0.123700	0.444100
H691	H69	0.808700	0.887900	0.414800
H701	H70	0.655000	0.928000	0.336800
H711	H71	0.863500	0.089600	0.160500
H721	H72	0.119900	0.242400	0.061800
C11	C1	0.558200	0.582600	0.724600
C21	C2	0.456600	0.533900	0.751800
C31	C3	0.481300	0.649200	0.800200
C41	C4	0.301000	0.550100	0.844300
C51	C5	0.217400	0.607700	0.875000
C61	C6	0.129100	0.583700	0.922000
C71	C7	0.119000	0.502000	0.936700
C81	C8	0.199000	0.444400	0.904900
C91	C9	0.290200	0.468000	0.858600
C101	C10	0.897300	0.692400	0.671400
C111	C11	0.995200	0.671700	0.619900
C121	C12	0.117500	0.616900	0.624700
C131	C13	0.211400	0.602700	0.576900
C141	C14	0.192500	0.643200	0.524600
C151	C15	0.063000	0.692300	0.520600
C161	C16	0.966300	0.707500	0.566700
C171	C17	0.941800	0.582600	0.275400
C181	C18	0.043400	0.533900	0.248200
C191	C19	0.018700	0.649200	0.199800
C201	C20	0.199000	0.550100	0.155700
C211	C21	0.282600	0.607700	0.125000
C221	C22	0.370900	0.583700	0.078000
C231	C23	0.381000	0.502000	0.063300
C241	C24	0.301000	0.444400	0.095100
C251	C25	0.209800	0.468000	0.141400
C261	C26	0.602700	0.692400	0.328600
C271	C27	0.504800	0.671700	0.380100
C281	C28	0.382500	0.616900	0.375300
C291	C29	0.288600	0.602700	0.423100
C301	C30	0.307500	0.643200	0.475400
C311	C31	0.437000	0.692300	0.479400
C321	C32	0.533700	0.707500	0.433300
C331	C33	0.941800	0.917400	0.224600
C341	C34	0.043400	0.966100	0.251800
C351	C35	0.018700	0.850800	0.300200
C361	C36	0.199000	0.949900	0.344300
C371	C37	0.282600	0.892300	0.375000
C381	C38	0.370900	0.916300	0.422000
C391	C39	0.381000	0.998000	0.436700
C401	C40	0.301000	0.055600	0.404900
C411	C41	0.209800	0.032000	0.358600
C421	C42	0.602700	0.807600	0.171400
C431	C43	0.504800	0.828300	0.119900
C441	C44	0.382500	0.883100	0.124700
C451	C45	0.288600	0.897300	0.076900
C461	C46	0.307500	0.856800	0.024600
C471	C47	0.437000	0.807700	0.020600
C481	C48	0.533700	0.792500	0.066700
C491	C49	0.558200	0.917400	0.775400
C501	C50	0.456600	0.966100	0.748200
C511	C51	0.481300	0.850800	0.699800
C521	C52	0.301000	0.949900	0.655700
C531	C53	0.217400	0.892300	0.625000
C541	C54	0.129100	0.916300	0.578000
C551	C55	0.119000	0.998000	0.563300
C561	C56	0.199000	0.055600	0.595100
C571	C57	0.290200	0.032000	0.641400
C581	C58	0.897300	0.807600	0.828600
C591	C59	0.995200	0.828300	0.880100
C601	C60	0.117500	0.883100	0.875300
C611	C61	0.211400	0.897300	0.923100
C621	C62	0.192500	0.856800	0.975400
C631	C63	0.063000	0.807700	0.979400
C641	C64	0.966300	0.792500	0.933300
C651	C65	0.441800	0.417400	0.275400
C661	C66	0.543400	0.466100	0.248200
C671	C67	0.518700	0.350800	0.199800
C681	C68	0.699000	0.449900	0.155700
C691	C69	0.782600	0.392300	0.125000
C701	C70	0.870900	0.416300	0.078000
C711	C71	0.881000	0.498000	0.063300
C721	C72	0.801000	0.555600	0.095100
C731	C73	0.709800	0.532000	0.141400
C741	C74	0.102700	0.307600	0.328600
C751	C75	0.004800	0.328300	0.380100
C761	C76	0.882500	0.383100	0.375300
C771	C77	0.788600	0.397300	0.423100
C781	C78	0.807500	0.356800	0.475400
C791	C79	0.937000	0.307700	0.479400
C801	C80	0.033700	0.292500	0.433300
C811	C81	0.058200	0.417400	0.724600
C821	C82	0.956600	0.466100	0.751800
C831	C83	0.981300	0.350800	0.800200
C841	C84	0.801000	0.449900	0.844300
C851	C85	0.717400	0.392300	0.875000
C861	C86	0.629100	0.416300	0.922000
C871	C87	0.619000	0.498000	0.936700
C881	C88	0.699000	0.555600	0.904900
C891	C89	0.790200	0.532000	0.858600
C901	C90	0.397300	0.307600	0.671400
C911	C91	0.495200	0.328300	0.619900
C921	C92	0.617500	0.383100	0.624700
C931	C93	0.711400	0.397300	0.576900
C941	C94	0.692500	0.356800	0.524600
C951	C95	0.563000	0.307700	0.520600
C961	C96	0.466300	0.292500	0.566700
C971	C97	0.058200	0.082600	0.775400
C981	C98	0.956600	0.033900	0.748200
C991	C99	0.981300	0.149200	0.699800
C1001	C100	0.801000	0.050100	0.655700
C1011	C101	0.717400	0.107700	0.625000
C1021	C102	0.629100	0.083700	0.578000
C1031	C103	0.619000	0.002000	0.563300
C1041	C104	0.699000	0.944400	0.595100
C1051	C105	0.790200	0.968000	0.641400
C1061	C106	0.397300	0.192400	0.828600
C1071	C107	0.495200	0.171700	0.880100
C1081	C108	0.617500	0.116900	0.875300
C1091	C109	0.711400	0.102700	0.923100
C1101	C110	0.692500	0.143200	0.975400
C1111	C111	0.563000	0.192300	0.979400
C1121	C112	0.466300	0.207500	0.933300
C1131	C113	0.441800	0.082600	0.224600
C1141	C114	0.543400	0.033900	0.251800
C1151	C115	0.518700	0.149200	0.300200
C1161	C116	0.699000	0.050100	0.344300
C1171	C117	0.782600	0.107700	0.375000
C1181	C118	0.870900	0.083700	0.422000
C1191	C119	0.881000	0.002000	0.436700
C1201	C120	0.801000	0.944400	0.404900
C1211	C121	0.709800	0.968000	0.358600
C1221	C122	0.102700	0.192400	0.171400
C1231	C123	0.004800	0.171700	0.119900
C1241	C124	0.882500	0.116900	0.124700
C1251	C125	0.788600	0.102700	0.076900
C1261	C126	0.807500	0.143200	0.024600
C1271	C127	0.937000	0.192300	0.020600
C1281	C128	0.033700	0.207500	0.066700
N11	N1	0.575400	0.655000	0.756000
N21	N2	0.403600	0.577100	0.800200
N31	N3	0.033100	0.472500	0.985300
N41	N4	0.017100	0.747400	0.477100
N51	N5	0.924600	0.655000	0.244000
N61	N6	0.096400	0.577100	0.199800
N71	N7	0.466900	0.472500	0.014700
N81	N8	0.482900	0.747400	0.522900
N91	N9	0.924600	0.845000	0.256000
N101	N10	0.096400	0.922900	0.300200
N111	N11	0.466900	0.027500	0.485300
N121	N12	0.482900	0.752600	0.977100
N131	N13	0.575400	0.845000	0.744000
N141	N14	0.403600	0.922900	0.699800
N151	N15	0.033100	0.027500	0.514700
N161	N16	0.017100	0.752600	0.022900
N171	N17	0.424600	0.345000	0.244000
N181	N18	0.596400	0.422900	0.199800
N191	N19	0.966900	0.527500	0.014700
N201	N20	0.982900	0.252600	0.522900
N211	N21	0.075400	0.345000	0.756000
N221	N22	0.903600	0.422900	0.800200
N231	N23	0.533100	0.527500	0.985300
N241	N24	0.517100	0.252600	0.477100
N251	N25	0.075400	0.155000	0.744000
N261	N26	0.903600	0.077100	0.699800
N271	N27	0.533100	0.972500	0.514700
N281	N28	0.517100	0.247400	0.022900
N291	N29	0.424600	0.155000	0.256000
N301	N30	0.596400	0.077100	0.300200
N311	N31	0.966900	0.972500	0.485300
N321	N32	0.982900	0.247400	0.977100
O11	O1	0.791700	0.745700	0.663800
O21	O2	0.922000	0.661300	0.719390
O31	O3	0.884700	0.757900	0.461600
O41	O4	0.112400	0.766100	0.440900
O51	O5	0.708300	0.745700	0.336200
O61	O6	0.578000	0.661300	0.280610
O71	O7	0.615300	0.757900	0.538400
O81	O8	0.387600	0.766100	0.559100
O91	O9	0.708300	0.754300	0.163800
O101	O10	0.578000	0.838700	0.219390
O111	O11	0.615300	0.742100	0.961600
O121	O12	0.387600	0.733900	0.940900
O131	O13	0.791700	0.754300	0.836200
O141	O14	0.922000	0.838700	0.780610
O151	O15	0.884700	0.742100	0.038400
O161	O16	0.112400	0.733900	0.059100
O171	O17	0.208300	0.254300	0.336200
O181	O18	0.078000	0.338700	0.280610
O191	O19	0.115300	0.242100	0.538400
O201	O20	0.887600	0.233900	0.559100
O211	O21	0.291700	0.254300	0.663800
O221	O22	0.422000	0.338700	0.719390
O231	O23	0.384700	0.242100	0.461600
O241	O24	0.612400	0.233900	0.440900
O251	O25	0.291700	0.245700	0.836200
O261	O26	0.422000	0.161300	0.780610
O271	O27	0.384700	0.257900	0.038400
O281	O28	0.612400	0.266100	0.059100
O291	O29	0.208300	0.245700	0.163800
O301	O30	0.078000	0.161300	0.219390
O311	O31	0.115300	0.257900	0.961600
O321	O32	0.887600	0.266100	0.940900
