data_KINPUU_freeONLY_PM
_symmetry_space_group_name_H-M	'P1'
_cell_length_a	9.026400
_cell_length_b	15.103000
_cell_length_c	15.535300
_cell_angle_alpha	119.084000
_cell_angle_beta	104.844000
_cell_angle_gamma	90.000000
_symmetry_Int_Tables_number 1

loop_
_symmetry_equiv_pos_as_xyz
'x,y,z'

loop_
_atom_site_label
_atom_site_type_symbol
_atom_site_fract_x
_atom_site_fract_y
_atom_site_fract_z
Co11	Co1	0.484610	0.249160	0.582000
Co21	Co2	0.515390	0.667160	0.418000
H11	H1	0.644500	0.043300	0.470200
H21	H2	0.603900	0.939000	0.286200
H31	H3	0.318600	0.142600	0.340600
H41	H4	0.754800	0.242400	0.460600
H51	H5	0.932000	0.389800	0.512000
H61	H6	0.643100	0.477800	0.678800
H71	H7	0.409700	0.087000	0.646400
H81	H8	0.999100	0.170500	0.665000
H91	H9	0.121000	0.258800	0.596000
H101	H10	0.308200	0.124100	0.178400
H111	H11	0.179500	0.056400	0.004400
H121	H12	0.293200	0.780400	0.945000
H131	H13	0.408000	0.845000	0.120000
H141	H14	0.388000	0.948700	0.845400
H151	H15	0.413600	0.044300	0.768600
H161	H16	0.950400	0.023500	0.673600
H171	H17	0.924700	0.927900	0.750400
H181	H18	0.092400	0.737500	0.658000
H191	H19	0.957300	0.578200	0.563400
H201	H20	0.842100	0.609700	0.806400
H211	H21	0.969400	0.774000	0.901400
H221	H22	0.852500	0.231200	0.827000
H231	H23	0.878100	0.344000	0.852200
H241	H24	0.849000	0.340000	0.989600
H251	H25	0.709200	0.386000	0.949600
H261	H26	0.560700	0.215000	0.851600
H271	H27	0.697000	0.180500	0.909800
H281	H28	0.618600	0.362400	0.057000
H291	H29	0.618600	0.258700	0.057800
H301	H30	0.355500	0.573100	0.529800
H311	H31	0.396100	0.652800	0.713800
H321	H32	0.681400	0.802000	0.659400
H331	H33	0.245200	0.781800	0.539400
H341	H34	0.068000	0.877800	0.488000
H351	H35	0.356900	0.799000	0.321200
H361	H36	0.590300	0.440600	0.353600
H371	H37	0.000900	0.505500	0.335000
H381	H38	0.879000	0.662800	0.404000
H391	H39	0.691800	0.945700	0.821600
H401	H40	0.820500	0.052000	0.995600
H411	H41	0.706800	0.835400	0.055000
H421	H42	0.592000	0.725000	0.880000
H431	H43	0.612000	0.103300	0.154600
H441	H44	0.586400	0.275700	0.231400
H451	H45	0.049600	0.349900	0.326400
H461	H46	0.075300	0.177500	0.249600
H471	H47	0.907600	0.079500	0.342000
H481	H48	0.042700	0.014800	0.436600
H491	H49	0.157900	0.803300	0.193600
H501	H50	0.030600	0.872600	0.098600
H511	H51	0.147500	0.404200	0.173000
H521	H52	0.121900	0.491800	0.147800
H531	H53	0.151000	0.350400	0.010400
H541	H54	0.290800	0.436400	0.050400
H551	H55	0.439300	0.363400	0.148400
H561	H56	0.303000	0.270700	0.090200
H571	H57	0.381400	0.305400	0.943000
H581	H58	0.381400	0.200900	0.942200
C11	C1	0.573600	0.051400	0.420200
C21	C2	0.551300	0.992800	0.318800
C31	C3	0.397100	0.105710	0.350620
C41	C4	0.754700	0.308700	0.512200
C51	C5	0.852600	0.389300	0.540000
C61	C6	0.693800	0.436700	0.631400
C71	C7	0.322700	0.119300	0.642200
C81	C8	0.095500	0.164200	0.653200
C91	C9	0.164800	0.212800	0.615000
C101	C10	0.696200	0.263800	0.743200
C111	C11	0.368600	0.987750	0.165500
C121	C12	0.301600	0.054780	0.131960
C131	C13	0.225700	0.013850	0.027500
C141	C14	0.217800	0.911740	0.958080
C151	C15	0.291700	0.848430	0.992060
C161	C16	0.363300	0.887940	0.096880
C171	C17	0.153800	0.928890	0.805580
C181	C18	0.300200	0.963700	0.811000
C191	C19	0.315600	0.021000	0.765000
C201	C20	0.184500	0.043410	0.713420
C211	C21	0.038100	0.008500	0.708000
C221	C22	0.022700	0.951200	0.754000
C231	C23	0.054000	0.773110	0.793620
C241	C24	0.043700	0.711900	0.689000
C251	C25	0.964300	0.616500	0.633000
C261	C26	0.892800	0.573900	0.675800
C271	C27	0.894300	0.635140	0.776680
C281	C28	0.972000	0.733370	0.833940
C291	C29	0.800000	0.289800	0.837600
C301	C30	0.757600	0.324600	0.932800
C311	C31	0.645000	0.238100	0.914400
C321	C32	0.580700	0.289500	0.015800
C331	C33	0.426400	0.631200	0.579800
C341	C34	0.448700	0.674000	0.681200
C351	C35	0.602900	0.755090	0.649380
C361	C36	0.245300	0.796500	0.487800
C371	C37	0.147400	0.849300	0.460000
C381	C38	0.306200	0.805300	0.368600
C391	C39	0.677300	0.477100	0.357800
C401	C40	0.904500	0.511000	0.346800
C411	C41	0.835200	0.597800	0.385000
C421	C42	0.303800	0.520600	0.256800
C431	C43	0.631400	0.822250	0.834500
C441	C44	0.698400	0.922820	0.868040
C451	C45	0.774300	0.986350	0.972500
C461	C46	0.782200	0.953660	0.041920
C471	C47	0.708300	0.856370	0.007940
C481	C48	0.636700	0.791060	0.903120
C491	C49	0.846200	0.123310	0.194420
C501	C50	0.699800	0.152700	0.189000
C511	C51	0.684400	0.256000	0.235000
C521	C52	0.815500	0.329990	0.286580
C531	C53	0.961900	0.300500	0.292000
C541	C54	0.977300	0.197200	0.246000
C551	C55	0.946000	0.979490	0.206380
C561	C56	0.956300	0.022900	0.311000
C571	C57	0.035700	0.983500	0.367000
C581	C58	0.107200	0.898100	0.324200
C591	C59	0.105700	0.858460	0.223320
C601	C60	0.028000	0.899430	0.166060
C611	C61	0.200000	0.452200	0.162400
C621	C62	0.242400	0.391800	0.067200
C631	C63	0.355000	0.323700	0.085600
C641	C64	0.419300	0.273700	0.984200
N11	N1	0.479000	0.124540	0.440880
N21	N2	0.436200	0.027700	0.272800
N31	N3	0.652800	0.336050	0.569700
N41	N4	0.815600	0.471760	0.617520
N51	N5	0.306400	0.184000	0.608800
N61	N6	0.200400	0.104680	0.670160
N71	N7	0.138100	0.872290	0.852980
N81	N8	0.521000	0.683660	0.559120
N91	N9	0.563800	0.754900	0.727200
N101	N10	0.347200	0.766350	0.430300
N111	N11	0.184400	0.854240	0.382480
N121	N12	0.693600	0.575200	0.391200
N131	N13	0.799600	0.434520	0.329840
N141	N14	0.861900	0.019310	0.147020
O11	O1	0.606200	0.327060	0.742120
O21	O2	0.681800	0.180190	0.663380
O31	O3	0.393800	0.584940	0.257880
O41	O4	0.318200	0.516810	0.336620
