data_KINQAB_freeONLY_PM
_symmetry_space_group_name_H-M	'P1'
_cell_length_a	9.071700
_cell_length_b	14.939900
_cell_length_c	15.642800
_cell_angle_alpha	118.524000
_cell_angle_beta	105.209000
_cell_angle_gamma	90.000000
_symmetry_Int_Tables_number 1

loop_
_symmetry_equiv_pos_as_xyz
'x,y,z'

loop_
_atom_site_label
_atom_site_type_symbol
_atom_site_fract_x
_atom_site_fract_y
_atom_site_fract_z
Ni11	Ni1	0.501660	0.758210	0.425420
Ni21	Ni2	0.498340	0.332790	0.574580
H11	H1	0.349000	0.959700	0.539400
H21	H2	0.410400	0.068500	0.721800
H31	H3	0.667600	0.844500	0.663600
H41	H4	0.232800	0.762700	0.533800
H51	H5	0.049300	0.610700	0.478400
H61	H6	0.341400	0.533800	0.318600
H71	H7	0.578500	0.917900	0.354400
H81	H8	0.993000	0.838700	0.359600
H91	H9	0.866500	0.749900	0.423400
H101	H10	0.693800	0.869700	0.824800
H111	H11	0.825400	0.936000	0.997000
H121	H12	0.712400	0.214900	0.056800
H131	H13	0.591400	0.151400	0.883600
H141	H14	0.614900	0.040200	0.146600
H151	H15	0.584300	0.950800	0.229400
H161	H16	0.045100	0.988400	0.346600
H171	H17	0.075700	0.077700	0.263600
H181	H18	0.887400	0.262700	0.335200
H191	H19	0.023200	0.430200	0.432600
H201	H20	0.156200	0.389000	0.191000
H211	H21	0.048300	0.219500	0.105600
H221	H22	0.108000	0.664800	0.152800
H231	H23	0.156000	0.777400	0.177200
H241	H24	0.173500	0.646800	0.009800
H251	H25	0.311300	0.612200	0.067200
H261	H26	0.312300	0.817100	0.106200
H271	H27	0.453300	0.774000	0.150000
H281	H28	0.373900	0.761000	0.959000
H291	H29	0.370600	0.648800	0.942200
H301	H30	0.651000	0.420300	0.460600
H311	H31	0.589600	0.346700	0.278200
H321	H32	0.332400	0.180900	0.336400
H331	H33	0.767200	0.228900	0.466200
H341	H34	0.950700	0.132300	0.521600
H351	H35	0.658600	0.215200	0.681400
H361	H36	0.421500	0.563500	0.645600
H371	H37	0.007000	0.479100	0.640400
H381	H38	0.133500	0.326500	0.576600
H391	H39	0.306200	0.044900	0.175200
H401	H40	0.174600	0.939000	0.003000
H411	H41	0.287600	0.158100	0.943200
H421	H42	0.408600	0.267800	0.116400
H431	H43	0.385100	0.893600	0.853400
H441	H44	0.415700	0.721400	0.770600
H451	H45	0.954900	0.641800	0.653400
H461	H46	0.924300	0.814100	0.736400
H471	H47	0.112600	0.927500	0.664800
H481	H48	0.976800	0.997600	0.567400
H491	H49	0.843800	0.198000	0.809000
H501	H50	0.951700	0.113900	0.894400
H511	H51	0.892000	0.512000	0.847200
H521	H52	0.844000	0.600200	0.822800
H531	H53	0.826500	0.637000	0.990200
H541	H54	0.688700	0.545000	0.932800
H551	H55	0.687700	0.710900	0.893800
H561	H56	0.546700	0.624000	0.850000
H571	H57	0.626100	0.802000	0.041000
H581	H58	0.629400	0.706600	0.057800
C11	C1	0.422900	0.951450	0.588100
C21	C2	0.454200	0.010460	0.687720
C31	C3	0.597600	0.887300	0.655400
C41	C4	0.231800	0.696300	0.482600
C51	C5	0.129900	0.612000	0.452400
C61	C6	0.290700	0.571930	0.366060
C71	C7	0.665900	0.887520	0.365040
C81	C8	0.894300	0.843660	0.366720
C91	C9	0.824400	0.795900	0.403000
C101	C10	0.320800	0.731310	0.260820
C111	C11	0.633800	0.006600	0.838200
C121	C12	0.701100	0.939250	0.870900
C131	C13	0.779000	0.979260	0.974120
C141	C14	0.788000	0.083620	0.043640
C151	C15	0.713100	0.146580	0.010160
C161	C16	0.638200	0.108060	0.906320
C171	C17	0.848300	0.067850	0.196940
C181	C18	0.701100	0.029830	0.186680
C191	C19	0.682800	0.976250	0.236300
C201	C20	0.811700	0.960700	0.296200
C211	C21	0.958900	0.998730	0.306460
C221	C22	0.977200	0.052320	0.256840
C231	C23	0.945400	0.224170	0.205940
C241	C24	0.942500	0.287930	0.306860
C251	C25	0.022200	0.389300	0.365200
C261	C26	0.098000	0.426670	0.321540
C271	C27	0.105100	0.363230	0.220860
C281	C28	0.035100	0.263220	0.168840
C291	C29	0.193600	0.713100	0.166000
C301	C30	0.257000	0.669600	0.072400
C311	C31	0.364000	0.756900	0.092000
C321	C32	0.415000	0.720100	0.990200
C331	C33	0.577100	0.363350	0.411900
C341	C34	0.545800	0.322740	0.312280
C351	C35	0.402400	0.231900	0.344600
C361	C36	0.768200	0.213700	0.517400
C371	C37	0.870100	0.159600	0.547600
C381	C38	0.709300	0.205870	0.633940
C391	C39	0.334100	0.522480	0.634960
C401	C40	0.105700	0.476940	0.633280
C411	C41	0.175600	0.392900	0.597000
C421	C42	0.679200	0.470490	0.739180
C431	C43	0.366200	0.168400	0.161800
C441	C44	0.298900	0.068350	0.129100
C451	C45	0.221000	0.005140	0.025880
C461	C46	0.212000	0.039980	0.956360
C471	C47	0.286900	0.136420	0.989840
C481	C48	0.361800	0.201740	0.093680
C491	C49	0.151700	0.870910	0.803060
C501	C50	0.298900	0.843150	0.813320
C511	C51	0.317200	0.739950	0.763700
C521	C52	0.188300	0.664500	0.703800
C531	C53	0.041100	0.692270	0.693540
C541	C54	0.022800	0.795480	0.743160
C551	C55	0.054600	0.018230	0.794060
C561	C56	0.057500	0.981070	0.693140
C571	C57	0.977800	0.024100	0.634800
C581	C58	0.902000	0.105130	0.678460
C591	C59	0.894900	0.142370	0.779140
C601	C60	0.964900	0.094380	0.831160
C611	C61	0.806400	0.547100	0.834000
C621	C62	0.743000	0.597200	0.927600
C631	C63	0.636000	0.664900	0.908000
C641	C64	0.585000	0.729900	0.009800
N11	N1	0.517700	0.875050	0.566900
N21	N2	0.567400	0.967580	0.731960
N31	N3	0.328200	0.668730	0.427660
N41	N4	0.168800	0.531030	0.377660
N51	N5	0.680700	0.825220	0.405040
N61	N6	0.792900	0.900170	0.342740
N71	N7	0.867500	0.124230	0.147860
N81	N8	0.697800	0.604540	0.429480
N91	N9	0.482300	0.308150	0.433100
N101	N10	0.432600	0.235620	0.268040
N111	N11	0.671800	0.241070	0.572340
N121	N12	0.831200	0.153370	0.622340
N131	N13	0.319300	0.420180	0.594960
N141	N14	0.207100	0.557430	0.657260
N151	N15	0.132500	0.976370	0.852140
N161	N16	0.302200	0.175060	0.570520
O11	O1	0.407000	0.666590	0.258980
O21	O2	0.333000	0.811720	0.343040
O31	O3	0.656000	0.686470	0.483740
O41	O4	0.663900	0.572920	0.335840
O51	O5	0.780900	0.559970	0.467140
O61	O6	0.593000	0.407610	0.741020
O71	O7	0.667000	0.468680	0.656960
O81	O8	0.344000	0.202730	0.516260
O91	O9	0.336100	0.237080	0.664160
O101	O10	0.219100	0.092830	0.532860
