data_KIPJUQ_freeONLY_PM
_symmetry_space_group_name_H-M	'P1'
_cell_length_a	8.072200
_cell_length_b	21.224700
_cell_length_c	22.789900
_cell_angle_alpha	82.622000
_cell_angle_beta	82.404000
_cell_angle_gamma	80.079000
_symmetry_Int_Tables_number 1

loop_
_symmetry_equiv_pos_as_xyz
'x,y,z'

loop_
_atom_site_label
_atom_site_type_symbol
_atom_site_fract_x
_atom_site_fract_y
_atom_site_fract_z
Er11	Er1	0.197640	0.575460	0.715770
Er21	Er2	0.613480	0.528900	0.566900
Er31	Er3	0.535610	0.750950	0.904280
Er41	Er4	0.760400	0.906390	0.963610
O11	O1	0.204100	0.465640	0.704240
O21	O2	0.430800	0.498920	0.656580
O31	O3	0.435800	0.462300	0.541720
O41	O4	0.307200	0.391530	0.510700
O51	O5	0.350200	0.192760	0.023020
O61	O6	0.522800	0.262000	0.988320
O71	O7	0.055700	0.168990	0.986350
O81	O8	0.953000	0.273210	0.978380
O91	O9	0.388000	0.644300	0.686100
O101	O10	0.621400	0.602910	0.630730
O111	O11	0.501000	0.730110	0.812970
O121	O12	0.627300	0.639280	0.776040
O131	O13	0.142400	0.606900	0.621020
O141	O14	0.371200	0.603370	0.552930
O151	O15	0.251200	0.578800	0.397810
O161	O16	0.174500	0.539230	0.489850
O171	O17	0.441000	0.857630	0.879080
O181	O18	0.490400	0.931870	0.933520
O191	O19	0.389000	0.078580	0.939630
O201	O20	0.165100	0.030210	0.965140
O211	O21	0.763500	0.784490	0.843530
O221	O22	0.839800	0.869070	0.876060
O231	O23	0.067700	0.667020	0.753210
O241	O24	0.080200	0.698320	0.842090
O251	O25	0.415000	0.549480	0.778760
H11	H1	0.484300	0.583300	0.781300
H21	H2	0.495500	0.521700	0.771800
O261	O26	0.097100	0.527250	0.812140
H31	H3	0.984500	0.541600	0.814000
H41	H4	0.117100	0.557200	0.834400
O271	O27	0.909500	0.569020	0.715860
H51	H5	0.828700	0.591300	0.731000
H61	H6	0.880100	0.531900	0.710100
O281	O28	0.898300	0.537340	0.584070
H71	H7	0.894000	0.571300	0.607400
H81	H8	0.950700	0.532400	0.552800
O291	O29	0.242600	0.756490	0.914890
H91	H9	0.175500	0.744800	0.947400
H101	H10	0.212900	0.737200	0.888800
O301	O30	0.788500	0.682320	0.921570
H111	H11	0.889000	0.697600	0.911300
H121	H12	0.808500	0.652300	0.948700
O311	O31	0.488600	0.642870	0.930130
H131	H13	0.566000	0.608400	0.942000
H141	H14	0.410800	0.621600	0.930500
O321	O32	0.030900	0.934040	0.931730
H151	H15	0.064300	0.971400	0.935100
H161	H16	0.090700	0.909300	0.900600
O331	O33	0.718900	0.013080	0.918720
H171	H17	0.615100	0.015000	0.914400
H181	H18	0.724800	0.053300	0.919700
F11	F1	0.843300	0.249060	0.713400
F21	F2	0.826600	0.198680	0.801640
F31	F3	0.732300	0.300130	0.787940
F41	F4	0.714300	0.142470	0.704560
F51	F5	0.444700	0.146900	0.727590
F61	F6	0.611200	0.120070	0.795660
F71	F7	0.566600	0.804070	0.489860
F81	F8	0.537400	0.890670	0.531740
F91	F9	0.695300	0.881350	0.448520
F101	F10	0.990600	0.888230	0.482980
F111	F11	0.819000	0.928430	0.553920
F121	F12	0.028500	0.854720	0.573990
F131	F13	0.376300	0.035430	0.648580
F141	F14	0.463400	0.934980	0.668570
F151	F15	0.302800	0.967610	0.598610
F161	F16	0.043100	0.072880	0.650790
F171	F17	0.886400	0.020470	0.716470
F181	F18	0.969800	0.986180	0.630960
C11	C1	0.566000	0.231510	0.756220
C21	C2	0.508800	0.276540	0.702120
C31	C3	0.449600	0.341390	0.709150
H191	H19	0.438500	0.355100	0.746800
C41	C4	0.407300	0.385670	0.661140
C51	C5	0.415100	0.364410	0.604700
C61	C6	0.467800	0.299860	0.598600
H201	H20	0.470100	0.285500	0.561600
C71	C7	0.517200	0.256170	0.645520
H211	H21	0.555900	0.213300	0.639700
C81	C8	0.345500	0.454430	0.673170
C91	C9	0.379800	0.408470	0.549950
C101	C10	0.437800	0.239330	0.811790
C111	C11	0.484800	0.233080	0.869610
H221	H22	0.598300	0.229800	0.875000
C121	C12	0.363500	0.231670	0.918900
C131	C13	0.193700	0.235680	0.911960
C141	C14	0.144700	0.246340	0.854540
H231	H23	0.030400	0.252500	0.849300
C151	C15	0.265500	0.247750	0.805130
H241	H24	0.231300	0.254400	0.767100
C161	C16	0.417300	0.227620	0.979170
C171	C17	0.058600	0.226600	0.963360
C181	C18	0.742100	0.245500	0.764970
C191	C19	0.585000	0.159230	0.745810
C201	C20	0.802200	0.820880	0.536310
C211	C21	0.727300	0.794770	0.598860
C221	C22	0.663900	0.737330	0.603490
H251	H25	0.661600	0.718500	0.569000
C231	C23	0.603700	0.706980	0.658190
C241	C24	0.608900	0.735630	0.710420
C251	C25	0.664800	0.793520	0.705290
H261	H26	0.662200	0.813300	0.739600
C261	C26	0.725800	0.824320	0.650730
H271	H27	0.764500	0.863400	0.648800
C271	C27	0.532200	0.646010	0.658780
C281	C28	0.575300	0.698980	0.771000
C291	C29	0.916900	0.764420	0.508180
C301	C30	0.017800	0.721290	0.545710
H281	H28	0.021400	0.730200	0.584400
C311	C31	0.112800	0.665390	0.526010
C321	C32	0.106800	0.651490	0.468170
C331	C33	0.016700	0.696350	0.429410
H291	H29	0.019200	0.688500	0.390100
C341	C34	0.923000	0.752800	0.448440
H301	H30	0.864700	0.782700	0.421900
C351	C35	0.218200	0.621240	0.569610
C361	C36	0.181200	0.586820	0.450260
C371	C37	0.649000	0.850120	0.500800
C381	C38	0.909700	0.873960	0.537110
C391	C39	0.174000	0.972200	0.699200
C401	C40	0.215300	0.995730	0.756650
C411	C41	0.310400	0.951290	0.794440
H311	H31	0.351500	0.910400	0.783100
C421	C42	0.345600	0.966150	0.848590
C431	C43	0.283900	0.028540	0.864850
C441	C44	0.193400	0.073860	0.826360
H321	H32	0.154900	0.115200	0.836800
C451	C45	0.160200	0.057610	0.772320
H331	H33	0.100900	0.088300	0.746600
C461	C46	0.433600	0.914640	0.889640
C471	C47	0.284100	0.045900	0.926830
C481	C48	0.135500	0.902970	0.715280
C491	C49	0.021000	0.892570	0.765390
H341	H34	0.965300	0.927700	0.784600
C501	C50	0.986900	0.831590	0.787680
C511	C51	0.071200	0.778010	0.758880
C521	C52	0.176800	0.788630	0.706470
H351	H35	0.226400	0.754000	0.685600
C531	C53	0.210200	0.850210	0.684400
H361	H36	0.281600	0.856200	0.649300
C541	C54	0.855700	0.826410	0.839890
C551	C55	0.070300	0.709180	0.786570
C561	C56	0.329900	0.977610	0.652930
C571	C57	0.018400	0.013600	0.673920
Er51	Er5	0.802360	0.424540	0.284230
Er61	Er6	0.386520	0.471100	0.433100
Er71	Er7	0.464390	0.249050	0.095720
Er81	Er8	0.239600	0.093610	0.036390
O341	O34	0.795900	0.534360	0.295760
O351	O35	0.569200	0.501080	0.343420
O361	O36	0.564200	0.537700	0.458280
O371	O37	0.692800	0.608470	0.489300
O381	O38	0.649800	0.807240	0.976980
O391	O39	0.477200	0.738000	0.011680
O401	O40	0.944300	0.831010	0.013650
O411	O41	0.047000	0.726790	0.021620
O421	O42	0.612000	0.355700	0.313900
O431	O43	0.378600	0.397090	0.369270
O441	O44	0.499000	0.269890	0.187030
O451	O45	0.372700	0.360720	0.223960
O461	O46	0.857600	0.393100	0.378980
O471	O47	0.628800	0.396630	0.447070
O481	O48	0.748800	0.421200	0.602190
O491	O49	0.825500	0.460770	0.510150
O501	O50	0.559000	0.142370	0.120920
O511	O51	0.509600	0.068130	0.066480
O521	O52	0.611000	0.921420	0.060370
O531	O53	0.834900	0.969790	0.034860
O541	O54	0.236500	0.215510	0.156470
O551	O55	0.160200	0.130930	0.123940
O561	O56	0.932300	0.332980	0.246790
O571	O57	0.919800	0.301680	0.157910
O581	O58	0.585000	0.450520	0.221240
H371	H37	0.515700	0.416700	0.218700
H381	H38	0.504500	0.478300	0.228200
O591	O59	0.902900	0.472750	0.187860
H391	H39	0.015500	0.458400	0.186000
H401	H40	0.882900	0.442800	0.165600
O601	O60	0.090500	0.430980	0.284140
H411	H41	0.171300	0.408700	0.269000
H421	H42	0.119900	0.468100	0.289900
O611	O61	0.101700	0.462660	0.415930
H431	H43	0.106000	0.428700	0.392600
H441	H44	0.049300	0.467600	0.447200
O621	O62	0.757400	0.243510	0.085110
H451	H45	0.824500	0.255200	0.052600
H461	H46	0.787100	0.262800	0.111200
O631	O63	0.211500	0.317680	0.078430
H471	H47	0.111000	0.302400	0.088700
H481	H48	0.191500	0.347700	0.051300
O641	O64	0.511400	0.357130	0.069870
H491	H49	0.434000	0.391600	0.058000
H501	H50	0.589200	0.378400	0.069500
O651	O65	0.969100	0.065960	0.068270
H511	H51	0.935700	0.028600	0.064900
H521	H52	0.909300	0.090700	0.099400
O661	O66	0.281100	0.986920	0.081280
H531	H53	0.384900	0.985000	0.085600
H541	H54	0.275200	0.946700	0.080300
F191	F19	0.156700	0.750940	0.286600
F201	F20	0.173400	0.801320	0.198360
F211	F21	0.267700	0.699870	0.212060
F221	F22	0.285700	0.857530	0.295440
F231	F23	0.555300	0.853100	0.272410
F241	F24	0.388800	0.879930	0.204340
F251	F25	0.433400	0.195930	0.510140
F261	F26	0.462600	0.109330	0.468260
F271	F27	0.304700	0.118650	0.551480
F281	F28	0.009400	0.111770	0.517020
F291	F29	0.181000	0.071570	0.446080
F301	F30	0.971500	0.145280	0.426010
F311	F31	0.623700	0.964570	0.351420
F321	F32	0.536600	0.065020	0.331430
F331	F33	0.697200	0.032390	0.401390
F341	F34	0.956900	0.927120	0.349210
F351	F35	0.113600	0.979530	0.283530
F361	F36	0.030200	0.013820	0.369040
C581	C58	0.434000	0.768490	0.243780
C591	C59	0.491200	0.723460	0.297880
C601	C60	0.550400	0.658610	0.290850
H551	H55	0.561500	0.644900	0.253200
C611	C61	0.592700	0.614330	0.338860
C621	C62	0.584900	0.635590	0.395300
C631	C63	0.532200	0.700140	0.401400
H561	H56	0.529900	0.714500	0.438400
C641	C64	0.482800	0.743830	0.354480
H571	H57	0.444100	0.786700	0.360300
C651	C65	0.654500	0.545570	0.326830
C661	C66	0.620200	0.591530	0.450050
C671	C67	0.562200	0.760670	0.188210
C681	C68	0.515200	0.766920	0.130390
H581	H58	0.401700	0.770200	0.125000
C691	C69	0.636500	0.768330	0.081100
C701	C70	0.806300	0.764320	0.088040
C711	C71	0.855300	0.753660	0.145460
H591	H59	0.969600	0.747500	0.150700
C721	C72	0.734500	0.752250	0.194870
H601	H60	0.768700	0.745600	0.232900
C731	C73	0.582700	0.772380	0.020830
C741	C74	0.941400	0.773400	0.036640
C751	C75	0.257900	0.754500	0.235030
C761	C76	0.415000	0.840770	0.254190
C771	C77	0.197800	0.179120	0.463690
C781	C78	0.272700	0.205230	0.401140
C791	C79	0.336100	0.262670	0.396510
H611	H61	0.338400	0.281500	0.431000
C801	C80	0.396300	0.293020	0.341810
C811	C81	0.391100	0.264370	0.289580
C821	C82	0.335200	0.206480	0.294710
H621	H62	0.337800	0.186700	0.260400
C831	C83	0.274200	0.175680	0.349270
H631	H63	0.235500	0.136600	0.351200
C841	C84	0.467800	0.353990	0.341220
C851	C85	0.424700	0.301020	0.229000
C861	C86	0.083100	0.235580	0.491820
C871	C87	0.982200	0.278710	0.454290
H641	H64	0.978600	0.269800	0.415600
C881	C88	0.887200	0.334610	0.473990
C891	C89	0.893200	0.348510	0.531830
C901	C90	0.983300	0.303650	0.570590
H651	H65	0.980800	0.311500	0.609900
C911	C91	0.077000	0.247200	0.551560
H661	H66	0.135300	0.217300	0.578100
C921	C92	0.781800	0.378760	0.430390
C931	C93	0.818800	0.413180	0.549740
C941	C94	0.351000	0.149880	0.499200
C951	C95	0.090300	0.126040	0.462890
C961	C96	0.826000	0.027800	0.300800
C971	C97	0.784700	0.004270	0.243350
C981	C98	0.689600	0.048710	0.205560
H671	H67	0.648500	0.089600	0.216900
C991	C99	0.654400	0.033850	0.151410
C1001	C100	0.716100	0.971460	0.135150
C1011	C101	0.806600	0.926140	0.173640
H681	H68	0.845100	0.884800	0.163200
C1021	C102	0.839800	0.942390	0.227680
H691	H69	0.899100	0.911700	0.253400
C1031	C103	0.566400	0.085360	0.110360
C1041	C104	0.715900	0.954100	0.073170
C1051	C105	0.864500	0.097030	0.284720
C1061	C106	0.979000	0.107430	0.234610
H701	H70	0.034700	0.072300	0.215400
C1071	C107	0.013100	0.168410	0.212320
C1081	C108	0.928800	0.221990	0.241120
C1091	C109	0.823200	0.211370	0.293530
H711	H71	0.773600	0.246000	0.314400
C1101	C110	0.789800	0.149790	0.315600
H721	H72	0.718400	0.143800	0.350700
C1111	C111	0.144300	0.173590	0.160110
C1121	C112	0.929700	0.290820	0.213430
C1131	C113	0.670100	0.022390	0.347070
C1141	C114	0.981600	0.986400	0.326080
