data_KIPKAX_freeONLY_PM
_symmetry_space_group_name_H-M	'P1'
_cell_length_a	8.065900
_cell_length_b	21.262100
_cell_length_c	22.718200
_cell_angle_alpha	82.919000
_cell_angle_beta	82.369000
_cell_angle_gamma	80.025000
_symmetry_Int_Tables_number 1

loop_
_symmetry_equiv_pos_as_xyz
'x,y,z'

loop_
_atom_site_label
_atom_site_type_symbol
_atom_site_fract_x
_atom_site_fract_y
_atom_site_fract_z
Yb11	Yb1	0.802410	0.422910	0.284410
Yb21	Yb2	0.387140	0.470820	0.433050
Yb31	Yb3	0.462760	0.246930	0.096100
Yb41	Yb4	0.239530	0.092790	0.037100
Yb51	Yb5	0.197590	0.577090	0.715590
Yb61	Yb6	0.612860	0.529180	0.566950
Yb71	Yb7	0.537240	0.753070	0.903910
Yb81	Yb8	0.760470	0.907210	0.962900
H11	H1	0.516000	0.415300	0.219700
H21	H2	0.504800	0.476900	0.229200
H31	H3	0.013900	0.454500	0.185400
H41	H4	0.881300	0.438900	0.165000
H51	H5	0.168700	0.407500	0.269800
H61	H6	0.117300	0.466800	0.290700
H71	H7	0.107500	0.428500	0.392700
H81	H8	0.050800	0.467400	0.447300
H91	H9	0.818400	0.252700	0.052500
H101	H10	0.780900	0.260300	0.111100
H111	H11	0.112600	0.298800	0.088600
H121	H12	0.193100	0.344100	0.051200
H131	H13	0.432200	0.388600	0.059000
H141	H14	0.587500	0.375400	0.070500
H151	H15	0.384300	0.985600	0.085000
H161	H16	0.274500	0.947300	0.079700
H171	H17	0.564100	0.644200	0.252600
H181	H18	0.538900	0.712900	0.438800
H191	H19	0.447300	0.784600	0.361200
H201	H20	0.402400	0.771300	0.125100
H211	H21	0.971100	0.747200	0.149900
H221	H22	0.768600	0.746100	0.232100
H231	H23	0.340200	0.282100	0.431100
H241	H24	0.338000	0.185300	0.260200
H251	H25	0.235600	0.137800	0.351500
H261	H26	0.977600	0.270400	0.415600
H271	H27	0.979400	0.313800	0.610400
H281	H28	0.133600	0.219000	0.578200
H291	H29	0.646700	0.089000	0.217700
H301	H30	0.847400	0.885300	0.162800
H311	H31	0.896600	0.911300	0.253200
H321	H32	0.038600	0.071500	0.216200
H331	H33	0.775400	0.244600	0.315800
H341	H34	0.718600	0.143200	0.351600
H351	H35	0.484000	0.584700	0.780300
H361	H36	0.495200	0.523100	0.770800
H371	H37	0.986100	0.545500	0.814600
H381	H38	0.118700	0.561100	0.835000
H391	H39	0.831300	0.592500	0.730200
H401	H40	0.882700	0.533200	0.709300
H411	H41	0.892500	0.571500	0.607300
H421	H42	0.949200	0.532600	0.552700
H431	H43	0.181600	0.747300	0.947500
H441	H44	0.219100	0.739700	0.888900
H451	H45	0.887400	0.701200	0.911400
H461	H46	0.806900	0.655900	0.948800
H471	H47	0.567800	0.611400	0.941000
H481	H48	0.412500	0.624600	0.929500
H491	H49	0.615700	0.014400	0.915000
H501	H50	0.725500	0.052700	0.920300
H511	H51	0.435900	0.355800	0.747400
H521	H52	0.461100	0.287100	0.561200
H531	H53	0.552700	0.215400	0.638800
H541	H54	0.597600	0.228700	0.874900
H551	H55	0.028900	0.252800	0.850100
H561	H56	0.231400	0.253900	0.767900
H571	H57	0.659800	0.717900	0.568900
H581	H58	0.662000	0.814700	0.739800
H591	H59	0.764400	0.862200	0.648500
H601	H60	0.022400	0.729600	0.584400
H611	H61	0.020600	0.686200	0.389600
H621	H62	0.866400	0.781000	0.421800
H631	H63	0.353300	0.911000	0.782300
H641	H64	0.152600	0.114700	0.837200
H651	H65	0.103400	0.088700	0.746800
H661	H66	0.961400	0.928500	0.783800
H671	H67	0.224600	0.755400	0.684200
H681	H68	0.281400	0.856800	0.648400
C11	C1	0.436500	0.767200	0.244100
C21	C2	0.496600	0.722600	0.297300
C31	C3	0.553300	0.657800	0.290500
C41	C4	0.594400	0.612600	0.338300
C51	C5	0.587400	0.633400	0.395100
C61	C6	0.537900	0.698500	0.401800
C71	C7	0.487600	0.742000	0.354800
C81	C8	0.654400	0.544500	0.325800
C91	C9	0.620300	0.589700	0.449400
C101	C10	0.565900	0.760800	0.187700
C111	C11	0.516300	0.768100	0.130100
C121	C12	0.638000	0.770500	0.080000
C131	C13	0.809200	0.766300	0.086800
C141	C14	0.856900	0.754300	0.144400
C151	C15	0.734500	0.752800	0.194000
C161	C16	0.584400	0.774600	0.019800
C171	C17	0.943100	0.775500	0.035400
C181	C18	0.261800	0.752500	0.235300
C191	C19	0.417400	0.839300	0.255100
C201	C20	0.197600	0.180100	0.463500
C211	C21	0.273300	0.205500	0.401300
C221	C22	0.337100	0.263000	0.396600
C231	C23	0.395600	0.292200	0.342200
C241	C24	0.392700	0.263300	0.290000
C251	C25	0.335800	0.205400	0.294500
C261	C26	0.275300	0.176700	0.349300
C271	C27	0.468400	0.353600	0.341500
C281	C28	0.425200	0.300800	0.229700
C291	C29	0.081900	0.236400	0.492000
C301	C30	0.981100	0.279600	0.454400
C311	C31	0.886500	0.335700	0.473600
C321	C32	0.889900	0.350200	0.531700
C331	C33	0.981300	0.305600	0.571000
C341	C34	0.075300	0.248700	0.551500
C351	C35	0.780300	0.378900	0.430700
C361	C36	0.816500	0.414400	0.549800
C371	C37	0.350000	0.151900	0.499500
C381	C38	0.090300	0.126900	0.463600
C391	C39	0.825400	0.027300	0.300900
C401	C40	0.784600	0.003900	0.243600
C411	C41	0.688600	0.048200	0.206200
C421	C42	0.654400	0.032600	0.152200
C431	C43	0.715000	0.971700	0.134400
C441	C44	0.807200	0.926500	0.173600
C451	C45	0.838600	0.942200	0.227400
C461	C46	0.565600	0.084800	0.111000
C471	C47	0.716000	0.953800	0.072900
C481	C48	0.864500	0.096700	0.285600
C491	C49	0.981500	0.106600	0.235300
C501	C50	0.013800	0.167200	0.213600
C511	C51	0.927500	0.220300	0.243200
C521	C52	0.824400	0.209900	0.294700
C531	C53	0.790500	0.149000	0.316500
C541	C54	0.146800	0.171600	0.160300
C551	C55	0.928700	0.289800	0.213100
C561	C56	0.669800	0.021700	0.347900
C571	C57	0.984100	0.985700	0.326100
C581	C58	0.563500	0.232800	0.755900
C591	C59	0.503400	0.277400	0.702700
C601	C60	0.446700	0.342200	0.709500
C611	C61	0.405600	0.387400	0.661700
C621	C62	0.412600	0.366600	0.604900
C631	C63	0.462100	0.301500	0.598200
C641	C64	0.512400	0.258000	0.645200
C651	C65	0.345600	0.455500	0.674200
C661	C66	0.379700	0.410300	0.550600
C671	C67	0.434100	0.239200	0.812300
C681	C68	0.483700	0.231900	0.869900
C691	C69	0.362000	0.229500	0.920000
C701	C70	0.190800	0.233700	0.913200
C711	C71	0.143100	0.245700	0.855600
C721	C72	0.265500	0.247200	0.806000
C731	C73	0.415600	0.225400	0.980200
C741	C74	0.056900	0.224500	0.964600
C751	C75	0.738200	0.247500	0.764700
C761	C76	0.582600	0.160700	0.744900
C771	C77	0.802400	0.819900	0.536500
C781	C78	0.726700	0.794500	0.598700
C791	C79	0.662900	0.737000	0.603400
C801	C80	0.604400	0.707800	0.657800
C811	C81	0.607300	0.736700	0.710000
C821	C82	0.664200	0.794600	0.705500
C831	C83	0.724700	0.823300	0.650700
C841	C84	0.531600	0.646400	0.658500
C851	C85	0.574800	0.699200	0.770300
C861	C86	0.918100	0.763600	0.508000
C871	C87	0.018900	0.720400	0.545600
C881	C88	0.113500	0.664300	0.526400
C891	C89	0.110100	0.649800	0.468300
C901	C90	0.018700	0.694400	0.429000
C911	C91	0.924700	0.751300	0.448500
C921	C92	0.219700	0.621100	0.569300
C931	C93	0.183500	0.585600	0.450200
C941	C94	0.650000	0.848100	0.500500
C951	C95	0.909700	0.873100	0.536400
C961	C96	0.174600	0.972700	0.699100
C971	C97	0.215400	0.996100	0.756400
C981	C98	0.311400	0.951800	0.793800
C991	C99	0.345600	0.967400	0.847800
C1001	C100	0.285000	0.028300	0.865600
C1011	C101	0.192800	0.073500	0.826400
C1021	C102	0.161400	0.057800	0.772600
C1031	C103	0.434400	0.915200	0.889000
C1041	C104	0.284000	0.046200	0.927100
C1051	C105	0.135500	0.903300	0.714400
C1061	C106	0.018500	0.893400	0.764700
C1071	C107	0.986200	0.832800	0.786400
C1081	C108	0.072500	0.779700	0.756800
C1091	C109	0.175600	0.790100	0.705300
C1101	C110	0.209500	0.851000	0.683500
C1111	C111	0.853200	0.828400	0.839700
C1121	C112	0.071300	0.710200	0.786900
C1131	C113	0.330200	0.978300	0.652100
C1141	C114	0.015900	0.014300	0.673900
O11	O1	0.793300	0.531700	0.294000
O21	O2	0.568100	0.500100	0.343660
O31	O3	0.562300	0.537100	0.457800
O41	O4	0.692500	0.607000	0.489030
O51	O5	0.648900	0.809300	0.976190
O61	O6	0.479000	0.740200	0.010200
O71	O7	0.942100	0.832800	0.010900
O81	O8	0.052100	0.729000	0.021400
O91	O9	0.614100	0.355100	0.314350
O101	O10	0.379600	0.397200	0.370000
O111	O11	0.498600	0.269200	0.186000
O121	O12	0.373300	0.360200	0.224400
O131	O13	0.857100	0.392800	0.378580
O141	O14	0.627300	0.397400	0.446530
O151	O15	0.746900	0.422500	0.602360
O161	O16	0.823900	0.461600	0.510000
O171	O17	0.557400	0.141500	0.121800
O181	O18	0.506900	0.067500	0.066700
O191	O19	0.610200	0.921900	0.059100
O201	O20	0.836100	0.969100	0.034100
O211	O21	0.238100	0.214200	0.156900
O221	O22	0.161800	0.129400	0.124800
O231	O23	0.930000	0.331700	0.247400
O241	O24	0.917900	0.298700	0.158400
O251	O25	0.585300	0.449100	0.222200
O261	O26	0.901300	0.468900	0.187300
O271	O27	0.087900	0.429700	0.284900
O281	O28	0.103200	0.462500	0.416000
O291	O29	0.751300	0.241000	0.085000
O301	O30	0.213100	0.314000	0.078300
O311	O31	0.509700	0.354100	0.070900
O321	O32	0.969300	0.065800	0.069500
O331	O33	0.280500	0.987500	0.080700
O341	O34	0.206700	0.468300	0.706000
O351	O35	0.431900	0.499900	0.656340
O361	O36	0.437700	0.462900	0.542200
O371	O37	0.307500	0.393000	0.510970
O381	O38	0.351100	0.190700	0.023810
O391	O39	0.521000	0.259800	0.989800
O401	O40	0.057900	0.167200	0.989100
O411	O41	0.947900	0.271000	0.978600
O421	O42	0.385900	0.644900	0.685650
O431	O43	0.620400	0.602800	0.630000
O441	O44	0.501400	0.730800	0.814000
O451	O45	0.626700	0.639800	0.775600
O461	O46	0.142900	0.607200	0.621420
O471	O47	0.372700	0.602600	0.553470
O481	O48	0.253100	0.577500	0.397640
O491	O49	0.176100	0.538400	0.490000
O501	O50	0.442600	0.858500	0.878200
O511	O51	0.493100	0.932500	0.933300
O521	O52	0.389800	0.078100	0.940900
O531	O53	0.163900	0.030900	0.965900
O541	O54	0.761900	0.785800	0.843100
O551	O55	0.838200	0.870600	0.875200
O561	O56	0.070000	0.668300	0.752600
O571	O57	0.082100	0.701300	0.841600
O581	O58	0.414700	0.550900	0.777800
O591	O59	0.098700	0.531100	0.812700
O601	O60	0.912100	0.570300	0.715100
O611	O61	0.896800	0.537500	0.584000
O621	O62	0.248700	0.759000	0.915000
O631	O63	0.786900	0.686000	0.921700
O641	O64	0.490300	0.645900	0.929100
O651	O65	0.030700	0.934200	0.930500
O661	O66	0.719500	0.012500	0.919300
F11	F1	0.160800	0.747500	0.286600
F21	F2	0.176300	0.799500	0.198840
F31	F3	0.272600	0.698400	0.210370
F41	F4	0.286300	0.855600	0.296770
F51	F5	0.555800	0.852300	0.273870
F61	F6	0.387100	0.878400	0.206000
F71	F7	0.431900	0.196970	0.510790
F81	F8	0.462400	0.109900	0.469000
F91	F9	0.302000	0.120300	0.552120
F101	F10	0.007600	0.113300	0.517270
F111	F11	0.180400	0.072420	0.446810
F121	F12	0.972300	0.145770	0.425940
F131	F13	0.623200	0.964090	0.351890
F141	F14	0.536900	0.064290	0.332420
F151	F15	0.696900	0.031800	0.402260
F161	F16	0.955300	0.926280	0.349710
F171	F17	0.114800	0.978140	0.283610
F181	F18	0.031400	0.012500	0.369500
F191	F19	0.839200	0.252500	0.713400
F201	F20	0.823700	0.200500	0.801160
F211	F21	0.727400	0.301600	0.789630
F221	F22	0.713700	0.144400	0.703230
F231	F23	0.444200	0.147700	0.726130
F241	F24	0.612900	0.121600	0.794000
F251	F25	0.568100	0.803030	0.489210
F261	F26	0.537600	0.890100	0.531000
F271	F27	0.698000	0.879700	0.447880
F281	F28	0.992400	0.886700	0.482730
F291	F29	0.819600	0.927580	0.553190
F301	F30	0.027700	0.854230	0.574060
F311	F31	0.376800	0.035910	0.648110
F321	F32	0.463100	0.935710	0.667580
F331	F33	0.303100	0.968200	0.597740
F341	F34	0.044700	0.073720	0.650290
F351	F35	0.885200	0.021860	0.716390
F361	F36	0.968600	0.987500	0.630500
