data_KIRFIA_freeONLY_PM
_symmetry_space_group_name_H-M	'P1'
_cell_length_a	14.297000
_cell_length_b	10.472000
_cell_length_c	18.539000
_cell_angle_alpha	90.000000
_cell_angle_beta	114.068000
_cell_angle_gamma	90.000000
_symmetry_Int_Tables_number 1

loop_
_symmetry_equiv_pos_as_xyz
'x,y,z'

loop_
_atom_site_label
_atom_site_type_symbol
_atom_site_fract_x
_atom_site_fract_y
_atom_site_fract_z
Cu11	Cu1	0.420070	0.373950	0.091310
O11	O1	0.373300	0.247200	0.002700
O21	O2	0.269300	0.350800	0.079600
O31	O3	0.560400	0.396000	0.079200
O41	O4	0.383700	0.526400	0.006900
O51	O5	0.462900	0.489400	0.184500
O61	O6	0.473200	0.234200	0.183900
C11	C1	0.280000	0.219000	0.977100
C21	C2	0.550900	0.462600	0.020200
Cu21	Cu2	0.920070	0.873950	0.091310
O71	O7	0.873300	0.747200	0.002700
O81	O8	0.769300	0.850800	0.079600
O91	O9	0.060400	0.896000	0.079200
O101	O10	0.883700	0.026400	0.006900
O111	O11	0.962900	0.989400	0.184500
O121	O12	0.973200	0.734200	0.183900
C31	C3	0.780000	0.719000	0.977100
C41	C4	0.050900	0.962600	0.020200
Cu31	Cu3	0.579930	0.373950	0.408690
O131	O13	0.626700	0.247200	0.497300
O141	O14	0.730700	0.350800	0.420400
O151	O15	0.439600	0.396000	0.420800
O161	O16	0.616300	0.526400	0.493100
O171	O17	0.537100	0.489400	0.315500
O181	O18	0.526800	0.234200	0.316100
C51	C5	0.720000	0.219000	0.522900
C61	C6	0.449100	0.462600	0.479800
Cu41	Cu4	0.079930	0.873950	0.408690
O191	O19	0.126700	0.747200	0.497300
O201	O20	0.230700	0.850800	0.420400
O211	O21	0.939600	0.896000	0.420800
O221	O22	0.116300	0.026400	0.493100
O231	O23	0.037100	0.989400	0.315500
O241	O24	0.026800	0.734200	0.316100
C71	C7	0.220000	0.719000	0.522900
C81	C8	0.949100	0.962600	0.479800
Cu51	Cu5	0.579930	0.626050	0.908690
O251	O25	0.626700	0.752800	0.997300
O261	O26	0.730700	0.649200	0.920400
O271	O27	0.439600	0.604000	0.920800
O281	O28	0.616300	0.473600	0.993100
O291	O29	0.537100	0.510600	0.815500
O301	O30	0.526800	0.765800	0.816100
C91	C9	0.720000	0.781000	0.022900
C101	C10	0.449100	0.537400	0.979800
Cu61	Cu6	0.079930	0.126050	0.908690
O311	O31	0.126700	0.252800	0.997300
O321	O32	0.230700	0.149200	0.920400
O331	O33	0.939600	0.104000	0.920800
O341	O34	0.116300	0.973600	0.993100
O351	O35	0.037100	0.010600	0.815500
O361	O36	0.026800	0.265800	0.816100
C111	C11	0.220000	0.281000	0.022900
C121	C12	0.949100	0.037400	0.979800
Cu71	Cu7	0.420070	0.626050	0.591310
O371	O37	0.373300	0.752800	0.502700
O381	O38	0.269300	0.649200	0.579600
O391	O39	0.560400	0.604000	0.579200
O401	O40	0.383700	0.473600	0.506900
O411	O41	0.462900	0.510600	0.684500
O421	O42	0.473200	0.765800	0.683900
C131	C13	0.280000	0.781000	0.477100
C141	C14	0.550900	0.537400	0.520200
Cu81	Cu8	0.920070	0.126050	0.591310
O431	O43	0.873300	0.252800	0.502700
O441	O44	0.769300	0.149200	0.579600
O451	O45	0.060400	0.104000	0.579200
O461	O46	0.883700	0.973600	0.506900
O471	O47	0.962900	0.010600	0.684500
O481	O48	0.973200	0.265800	0.683900
C151	C15	0.780000	0.281000	0.477100
C161	C16	0.050900	0.037400	0.520200
C171	C17	0.500000	0.433500	0.250000
C181	C18	0.500000	0.287200	0.250000
C191	C19	0.000000	0.933500	0.250000
C201	C20	0.000000	0.787200	0.250000
C211	C21	0.500000	0.566500	0.750000
C221	C22	0.500000	0.712800	0.750000
C231	C23	0.000000	0.066500	0.750000
C241	C24	0.000000	0.212800	0.750000
