data_KISVEO_freeONLY_PM
_symmetry_space_group_name_H-M	'P1'
_cell_length_a	28.023000
_cell_length_b	28.023000
_cell_length_c	19.684000
_cell_angle_alpha	90.000000
_cell_angle_beta	90.000000
_cell_angle_gamma	90.000000
_symmetry_Int_Tables_number 1

loop_
_symmetry_equiv_pos_as_xyz
'x,y,z'

loop_
_atom_site_label
_atom_site_type_symbol
_atom_site_fract_x
_atom_site_fract_y
_atom_site_fract_z
U11	U1	0.000390	0.371440	0.216810
U21	U2	0.809170	0.331370	0.804570
U31	U3	0.707310	0.565520	0.837560
S11	S1	0.899920	0.420540	0.132900
S21	S2	0.774300	0.456350	0.826590
S31	S3	0.925960	0.271130	0.175290
S41	S4	0.807970	0.219810	0.707940
O11	O1	0.008000	0.458100	0.206400
O21	O2	0.728500	0.482200	0.822800
O31	O3	0.892500	0.448000	0.070600
O41	O4	0.764800	0.404900	0.833500
O51	O5	0.947300	0.397800	0.127900
O61	O6	0.818000	0.355000	0.723100
O71	O7	0.802300	0.251100	0.767500
O81	O8	0.802200	0.464800	0.764300
O91	O9	0.912300	0.248300	0.112600
O101	O10	0.941100	0.234700	0.225100
O111	O11	0.953200	0.372400	0.275100
O121	O12	0.801800	0.473700	0.885000
O131	O13	0.649300	0.551900	0.809100
O141	O14	0.856200	0.199300	0.709800
O151	O15	0.899100	0.451200	0.192100
O161	O16	0.046800	0.369700	0.156600
O171	O17	0.799000	0.308900	0.887000
O181	O18	0.966600	0.303400	0.162300
O191	O19	0.764600	0.578100	0.866400
O201	O20	0.773900	0.180000	0.717500
O211	O21	0.887200	0.298800	0.205200
O221	O22	0.863300	0.383900	0.137700
O231	O23	0.798900	0.244400	0.646200
O241	O24	0.674900	0.620300	0.923200
O251	O25	0.685300	0.524100	0.060300
U41	U4	0.500390	0.871440	0.716810
U51	U5	0.309170	0.831370	0.304570
U61	U6	0.207310	0.065520	0.337560
S51	S5	0.399920	0.920540	0.632900
S61	S6	0.274300	0.956350	0.326590
S71	S7	0.425960	0.771130	0.675290
S81	S8	0.307970	0.719810	0.207940
O261	O26	0.508000	0.958100	0.706400
O271	O27	0.228500	0.982200	0.322800
O281	O28	0.392500	0.948000	0.570600
O291	O29	0.264800	0.904900	0.333500
O301	O30	0.447300	0.897800	0.627900
O311	O31	0.318000	0.855000	0.223100
O321	O32	0.302300	0.751100	0.267500
O331	O33	0.302200	0.964800	0.264300
O341	O34	0.412300	0.748300	0.612600
O351	O35	0.441100	0.734700	0.725100
O361	O36	0.453200	0.872400	0.775100
O371	O37	0.301800	0.973700	0.385000
O381	O38	0.149300	0.051900	0.309100
O391	O39	0.356200	0.699300	0.209800
O401	O40	0.399100	0.951200	0.692100
O411	O41	0.546800	0.869700	0.656600
O421	O42	0.299000	0.808900	0.387000
O431	O43	0.466600	0.803400	0.662300
O441	O44	0.264600	0.078100	0.366400
O451	O45	0.273900	0.680000	0.217500
O461	O46	0.387200	0.798800	0.705200
O471	O47	0.363300	0.883900	0.637700
O481	O48	0.298900	0.744400	0.146200
O491	O49	0.174900	0.120300	0.423200
O501	O50	0.185300	0.024100	0.560300
U71	U7	0.999610	0.628560	0.216810
U81	U8	0.190830	0.668630	0.804570
U91	U9	0.292690	0.434480	0.837560
S91	S9	0.100080	0.579460	0.132900
S101	S10	0.225700	0.543650	0.826590
S111	S11	0.074040	0.728870	0.175290
S121	S12	0.192030	0.780190	0.707940
O511	O51	0.992000	0.541900	0.206400
O521	O52	0.271500	0.517800	0.822800
O531	O53	0.107500	0.552000	0.070600
O541	O54	0.235200	0.595100	0.833500
O551	O55	0.052700	0.602200	0.127900
O561	O56	0.182000	0.645000	0.723100
O571	O57	0.197700	0.748900	0.767500
O581	O58	0.197800	0.535200	0.764300
O591	O59	0.087700	0.751700	0.112600
O601	O60	0.058900	0.765300	0.225100
O611	O61	0.046800	0.627600	0.275100
O621	O62	0.198200	0.526300	0.885000
O631	O63	0.350700	0.448100	0.809100
O641	O64	0.143800	0.800700	0.709800
O651	O65	0.100900	0.548800	0.192100
O661	O66	0.953200	0.630300	0.156600
O671	O67	0.201000	0.691100	0.887000
O681	O68	0.033400	0.696600	0.162300
O691	O69	0.235400	0.421900	0.866400
O701	O70	0.226100	0.820000	0.717500
O711	O71	0.112800	0.701200	0.205200
O721	O72	0.136700	0.616100	0.137700
O731	O73	0.201100	0.755600	0.646200
O741	O74	0.325100	0.379700	0.923200
O751	O75	0.314700	0.475900	0.060300
U101	U10	0.499610	0.128560	0.716810
U111	U11	0.690830	0.168630	0.304570
U121	U12	0.792690	0.934480	0.337560
S131	S13	0.600080	0.079460	0.632900
S141	S14	0.725700	0.043650	0.326590
S151	S15	0.574040	0.228870	0.675290
S161	S16	0.692030	0.280190	0.207940
O761	O76	0.492000	0.041900	0.706400
O771	O77	0.771500	0.017800	0.322800
O781	O78	0.607500	0.052000	0.570600
O791	O79	0.735200	0.095100	0.333500
O801	O80	0.552700	0.102200	0.627900
O811	O81	0.682000	0.145000	0.223100
O821	O82	0.697700	0.248900	0.267500
O831	O83	0.697800	0.035200	0.264300
O841	O84	0.587700	0.251700	0.612600
O851	O85	0.558900	0.265300	0.725100
O861	O86	0.546800	0.127600	0.775100
O871	O87	0.698200	0.026300	0.385000
O881	O88	0.850700	0.948100	0.309100
O891	O89	0.643800	0.300700	0.209800
O901	O90	0.600900	0.048800	0.692100
O911	O91	0.453200	0.130300	0.656600
O921	O92	0.701000	0.191100	0.387000
O931	O93	0.533400	0.196600	0.662300
O941	O94	0.735400	0.921900	0.366400
O951	O95	0.726100	0.320000	0.217500
O961	O96	0.612800	0.201200	0.705200
O971	O97	0.636700	0.116100	0.637700
O981	O98	0.701100	0.255600	0.146200
O991	O99	0.825100	0.879700	0.423200
O1001	O100	0.814700	0.975900	0.560300
U131	U13	0.628560	0.000390	0.216810
U141	U14	0.668630	0.809170	0.804570
U151	U15	0.434480	0.707310	0.837560
S171	S17	0.579460	0.899920	0.132900
S181	S18	0.543650	0.774300	0.826590
S191	S19	0.728870	0.925960	0.175290
S201	S20	0.780190	0.807970	0.707940
O1011	O101	0.541900	0.008000	0.206400
O1021	O102	0.517800	0.728500	0.822800
O1031	O103	0.552000	0.892500	0.070600
O1041	O104	0.595100	0.764800	0.833500
O1051	O105	0.602200	0.947300	0.127900
O1061	O106	0.645000	0.818000	0.723100
O1071	O107	0.748900	0.802300	0.767500
O1081	O108	0.535200	0.802200	0.764300
O1091	O109	0.751700	0.912300	0.112600
O1101	O110	0.765300	0.941100	0.225100
O1111	O111	0.627600	0.953200	0.275100
O1121	O112	0.526300	0.801800	0.885000
O1131	O113	0.448100	0.649300	0.809100
O1141	O114	0.800700	0.856200	0.709800
O1151	O115	0.548800	0.899100	0.192100
O1161	O116	0.630300	0.046800	0.156600
O1171	O117	0.691100	0.799000	0.887000
O1181	O118	0.696600	0.966600	0.162300
O1191	O119	0.421900	0.764600	0.866400
O1201	O120	0.820000	0.773900	0.717500
O1211	O121	0.701200	0.887200	0.205200
O1221	O122	0.616100	0.863300	0.137700
O1231	O123	0.755600	0.798900	0.646200
O1241	O124	0.379700	0.674900	0.923200
O1251	O125	0.475900	0.685300	0.060300
U161	U16	0.128560	0.500390	0.716810
U171	U17	0.168630	0.309170	0.304570
U181	U18	0.934480	0.207310	0.337560
S211	S21	0.079460	0.399920	0.632900
S221	S22	0.043650	0.274300	0.326590
S231	S23	0.228870	0.425960	0.675290
S241	S24	0.280190	0.307970	0.207940
O1261	O126	0.041900	0.508000	0.706400
O1271	O127	0.017800	0.228500	0.322800
O1281	O128	0.052000	0.392500	0.570600
O1291	O129	0.095100	0.264800	0.333500
O1301	O130	0.102200	0.447300	0.627900
O1311	O131	0.145000	0.318000	0.223100
O1321	O132	0.248900	0.302300	0.267500
O1331	O133	0.035200	0.302200	0.264300
O1341	O134	0.251700	0.412300	0.612600
O1351	O135	0.265300	0.441100	0.725100
O1361	O136	0.127600	0.453200	0.775100
O1371	O137	0.026300	0.301800	0.385000
O1381	O138	0.948100	0.149300	0.309100
O1391	O139	0.300700	0.356200	0.209800
O1401	O140	0.048800	0.399100	0.692100
O1411	O141	0.130300	0.546800	0.656600
O1421	O142	0.191100	0.299000	0.387000
O1431	O143	0.196600	0.466600	0.662300
O1441	O144	0.921900	0.264600	0.366400
O1451	O145	0.320000	0.273900	0.217500
O1461	O146	0.201200	0.387200	0.705200
O1471	O147	0.116100	0.363300	0.637700
O1481	O148	0.255600	0.298900	0.146200
O1491	O149	0.879700	0.174900	0.423200
O1501	O150	0.975900	0.185300	0.560300
U191	U19	0.371440	0.999610	0.216810
U201	U20	0.331370	0.190830	0.804570
U211	U21	0.565520	0.292690	0.837560
S251	S25	0.420540	0.100080	0.132900
S261	S26	0.456350	0.225700	0.826590
S271	S27	0.271130	0.074040	0.175290
S281	S28	0.219810	0.192030	0.707940
O1511	O151	0.458100	0.992000	0.206400
O1521	O152	0.482200	0.271500	0.822800
O1531	O153	0.448000	0.107500	0.070600
O1541	O154	0.404900	0.235200	0.833500
O1551	O155	0.397800	0.052700	0.127900
O1561	O156	0.355000	0.182000	0.723100
O1571	O157	0.251100	0.197700	0.767500
O1581	O158	0.464800	0.197800	0.764300
O1591	O159	0.248300	0.087700	0.112600
O1601	O160	0.234700	0.058900	0.225100
O1611	O161	0.372400	0.046800	0.275100
O1621	O162	0.473700	0.198200	0.885000
O1631	O163	0.551900	0.350700	0.809100
O1641	O164	0.199300	0.143800	0.709800
O1651	O165	0.451200	0.100900	0.192100
O1661	O166	0.369700	0.953200	0.156600
O1671	O167	0.308900	0.201000	0.887000
O1681	O168	0.303400	0.033400	0.162300
O1691	O169	0.578100	0.235400	0.866400
O1701	O170	0.180000	0.226100	0.717500
O1711	O171	0.298800	0.112800	0.205200
O1721	O172	0.383900	0.136700	0.137700
O1731	O173	0.244400	0.201100	0.646200
O1741	O174	0.620300	0.325100	0.923200
O1751	O175	0.524100	0.314700	0.060300
U221	U22	0.871440	0.499610	0.716810
U231	U23	0.831370	0.690830	0.304570
U241	U24	0.065520	0.792690	0.337560
S291	S29	0.920540	0.600080	0.632900
S301	S30	0.956350	0.725700	0.326590
S311	S31	0.771130	0.574040	0.675290
S321	S32	0.719810	0.692030	0.207940
O1761	O176	0.958100	0.492000	0.706400
O1771	O177	0.982200	0.771500	0.322800
O1781	O178	0.948000	0.607500	0.570600
O1791	O179	0.904900	0.735200	0.333500
O1801	O180	0.897800	0.552700	0.627900
O1811	O181	0.855000	0.682000	0.223100
O1821	O182	0.751100	0.697700	0.267500
O1831	O183	0.964800	0.697800	0.264300
O1841	O184	0.748300	0.587700	0.612600
O1851	O185	0.734700	0.558900	0.725100
O1861	O186	0.872400	0.546800	0.775100
O1871	O187	0.973700	0.698200	0.385000
O1881	O188	0.051900	0.850700	0.309100
O1891	O189	0.699300	0.643800	0.209800
O1901	O190	0.951200	0.600900	0.692100
O1911	O191	0.869700	0.453200	0.656600
O1921	O192	0.808900	0.701000	0.387000
O1931	O193	0.803400	0.533400	0.662300
O1941	O194	0.078100	0.735400	0.366400
O1951	O195	0.680000	0.726100	0.217500
O1961	O196	0.798800	0.612800	0.705200
O1971	O197	0.883900	0.636700	0.637700
O1981	O198	0.744400	0.701100	0.146200
O1991	O199	0.120300	0.825100	0.423200
O2001	O200	0.024100	0.814700	0.560300
U251	U25	0.999610	0.628560	0.783190
U261	U26	0.190830	0.668630	0.195430
U271	U27	0.292690	0.434480	0.162440
S331	S33	0.100080	0.579460	0.867100
S341	S34	0.225700	0.543650	0.173410
S351	S35	0.074040	0.728870	0.824710
S361	S36	0.192030	0.780190	0.292060
O2011	O201	0.992000	0.541900	0.793600
O2021	O202	0.271500	0.517800	0.177200
O2031	O203	0.107500	0.552000	0.929400
O2041	O204	0.235200	0.595100	0.166500
O2051	O205	0.052700	0.602200	0.872100
O2061	O206	0.182000	0.645000	0.276900
O2071	O207	0.197700	0.748900	0.232500
O2081	O208	0.197800	0.535200	0.235700
O2091	O209	0.087700	0.751700	0.887400
O2101	O210	0.058900	0.765300	0.774900
O2111	O211	0.046800	0.627600	0.724900
O2121	O212	0.198200	0.526300	0.115000
O2131	O213	0.350700	0.448100	0.190900
O2141	O214	0.143800	0.800700	0.290200
O2151	O215	0.100900	0.548800	0.807900
O2161	O216	0.953200	0.630300	0.843400
O2171	O217	0.201000	0.691100	0.113000
O2181	O218	0.033400	0.696600	0.837700
O2191	O219	0.235400	0.421900	0.133600
O2201	O220	0.226100	0.820000	0.282500
O2211	O221	0.112800	0.701200	0.794800
O2221	O222	0.136700	0.616100	0.862300
O2231	O223	0.201100	0.755600	0.353800
O2241	O224	0.325100	0.379700	0.076800
O2251	O225	0.314700	0.475900	0.939700
U281	U28	0.499610	0.128560	0.283190
U291	U29	0.690830	0.168630	0.695430
U301	U30	0.792690	0.934480	0.662440
S371	S37	0.600080	0.079460	0.367100
S381	S38	0.725700	0.043650	0.673410
S391	S39	0.574040	0.228870	0.324710
S401	S40	0.692030	0.280190	0.792060
O2261	O226	0.492000	0.041900	0.293600
O2271	O227	0.771500	0.017800	0.677200
O2281	O228	0.607500	0.052000	0.429400
O2291	O229	0.735200	0.095100	0.666500
O2301	O230	0.552700	0.102200	0.372100
O2311	O231	0.682000	0.145000	0.776900
O2321	O232	0.697700	0.248900	0.732500
O2331	O233	0.697800	0.035200	0.735700
O2341	O234	0.587700	0.251700	0.387400
O2351	O235	0.558900	0.265300	0.274900
O2361	O236	0.546800	0.127600	0.224900
O2371	O237	0.698200	0.026300	0.615000
O2381	O238	0.850700	0.948100	0.690900
O2391	O239	0.643800	0.300700	0.790200
O2401	O240	0.600900	0.048800	0.307900
O2411	O241	0.453200	0.130300	0.343400
O2421	O242	0.701000	0.191100	0.613000
O2431	O243	0.533400	0.196600	0.337700
O2441	O244	0.735400	0.921900	0.633600
O2451	O245	0.726100	0.320000	0.782500
O2461	O246	0.612800	0.201200	0.294800
O2471	O247	0.636700	0.116100	0.362300
O2481	O248	0.701100	0.255600	0.853800
O2491	O249	0.825100	0.879700	0.576800
O2501	O250	0.814700	0.975900	0.439700
U311	U31	0.000390	0.371440	0.783190
U321	U32	0.809170	0.331370	0.195430
U331	U33	0.707310	0.565520	0.162440
S411	S41	0.899920	0.420540	0.867100
S421	S42	0.774300	0.456350	0.173410
S431	S43	0.925960	0.271130	0.824710
S441	S44	0.807970	0.219810	0.292060
O2511	O251	0.008000	0.458100	0.793600
O2521	O252	0.728500	0.482200	0.177200
O2531	O253	0.892500	0.448000	0.929400
O2541	O254	0.764800	0.404900	0.166500
O2551	O255	0.947300	0.397800	0.872100
O2561	O256	0.818000	0.355000	0.276900
O2571	O257	0.802300	0.251100	0.232500
O2581	O258	0.802200	0.464800	0.235700
O2591	O259	0.912300	0.248300	0.887400
O2601	O260	0.941100	0.234700	0.774900
O2611	O261	0.953200	0.372400	0.724900
O2621	O262	0.801800	0.473700	0.115000
O2631	O263	0.649300	0.551900	0.190900
O2641	O264	0.856200	0.199300	0.290200
O2651	O265	0.899100	0.451200	0.807900
O2661	O266	0.046800	0.369700	0.843400
O2671	O267	0.799000	0.308900	0.113000
O2681	O268	0.966600	0.303400	0.837700
O2691	O269	0.764600	0.578100	0.133600
O2701	O270	0.773900	0.180000	0.282500
O2711	O271	0.887200	0.298800	0.794800
O2721	O272	0.863300	0.383900	0.862300
O2731	O273	0.798900	0.244400	0.353800
O2741	O274	0.674900	0.620300	0.076800
O2751	O275	0.685300	0.524100	0.939700
U341	U34	0.500390	0.871440	0.283190
U351	U35	0.309170	0.831370	0.695430
U361	U36	0.207310	0.065520	0.662440
S451	S45	0.399920	0.920540	0.367100
S461	S46	0.274300	0.956350	0.673410
S471	S47	0.425960	0.771130	0.324710
S481	S48	0.307970	0.719810	0.792060
O2761	O276	0.508000	0.958100	0.293600
O2771	O277	0.228500	0.982200	0.677200
O2781	O278	0.392500	0.948000	0.429400
O2791	O279	0.264800	0.904900	0.666500
O2801	O280	0.447300	0.897800	0.372100
O2811	O281	0.318000	0.855000	0.776900
O2821	O282	0.302300	0.751100	0.732500
O2831	O283	0.302200	0.964800	0.735700
O2841	O284	0.412300	0.748300	0.387400
O2851	O285	0.441100	0.734700	0.274900
O2861	O286	0.453200	0.872400	0.224900
O2871	O287	0.301800	0.973700	0.615000
O2881	O288	0.149300	0.051900	0.690900
O2891	O289	0.356200	0.699300	0.790200
O2901	O290	0.399100	0.951200	0.307900
O2911	O291	0.546800	0.869700	0.343400
O2921	O292	0.299000	0.808900	0.613000
O2931	O293	0.466600	0.803400	0.337700
O2941	O294	0.264600	0.078100	0.633600
O2951	O295	0.273900	0.680000	0.782500
O2961	O296	0.387200	0.798800	0.294800
O2971	O297	0.363300	0.883900	0.362300
O2981	O298	0.298900	0.744400	0.853800
O2991	O299	0.174900	0.120300	0.576800
O3001	O300	0.185300	0.024100	0.439700
U371	U37	0.371440	0.999610	0.783190
U381	U38	0.331370	0.190830	0.195430
U391	U39	0.565520	0.292690	0.162440
S491	S49	0.420540	0.100080	0.867100
S501	S50	0.456350	0.225700	0.173410
S511	S51	0.271130	0.074040	0.824710
S521	S52	0.219810	0.192030	0.292060
O3011	O301	0.458100	0.992000	0.793600
O3021	O302	0.482200	0.271500	0.177200
O3031	O303	0.448000	0.107500	0.929400
O3041	O304	0.404900	0.235200	0.166500
O3051	O305	0.397800	0.052700	0.872100
O3061	O306	0.355000	0.182000	0.276900
O3071	O307	0.251100	0.197700	0.232500
O3081	O308	0.464800	0.197800	0.235700
O3091	O309	0.248300	0.087700	0.887400
O3101	O310	0.234700	0.058900	0.774900
O3111	O311	0.372400	0.046800	0.724900
O3121	O312	0.473700	0.198200	0.115000
O3131	O313	0.551900	0.350700	0.190900
O3141	O314	0.199300	0.143800	0.290200
O3151	O315	0.451200	0.100900	0.807900
O3161	O316	0.369700	0.953200	0.843400
O3171	O317	0.308900	0.201000	0.113000
O3181	O318	0.303400	0.033400	0.837700
O3191	O319	0.578100	0.235400	0.133600
O3201	O320	0.180000	0.226100	0.282500
O3211	O321	0.298800	0.112800	0.794800
O3221	O322	0.383900	0.136700	0.862300
O3231	O323	0.244400	0.201100	0.353800
O3241	O324	0.620300	0.325100	0.076800
O3251	O325	0.524100	0.314700	0.939700
U401	U40	0.871440	0.499610	0.283190
U411	U41	0.831370	0.690830	0.695430
U421	U42	0.065520	0.792690	0.662440
S531	S53	0.920540	0.600080	0.367100
S541	S54	0.956350	0.725700	0.673410
S551	S55	0.771130	0.574040	0.324710
S561	S56	0.719810	0.692030	0.792060
O3261	O326	0.958100	0.492000	0.293600
O3271	O327	0.982200	0.771500	0.677200
O3281	O328	0.948000	0.607500	0.429400
O3291	O329	0.904900	0.735200	0.666500
O3301	O330	0.897800	0.552700	0.372100
O3311	O331	0.855000	0.682000	0.776900
O3321	O332	0.751100	0.697700	0.732500
O3331	O333	0.964800	0.697800	0.735700
O3341	O334	0.748300	0.587700	0.387400
O3351	O335	0.734700	0.558900	0.274900
O3361	O336	0.872400	0.546800	0.224900
O3371	O337	0.973700	0.698200	0.615000
O3381	O338	0.051900	0.850700	0.690900
O3391	O339	0.699300	0.643800	0.790200
O3401	O340	0.951200	0.600900	0.307900
O3411	O341	0.869700	0.453200	0.343400
O3421	O342	0.808900	0.701000	0.613000
O3431	O343	0.803400	0.533400	0.337700
O3441	O344	0.078100	0.735400	0.633600
O3451	O345	0.680000	0.726100	0.782500
O3461	O346	0.798800	0.612800	0.294800
O3471	O347	0.883900	0.636700	0.362300
O3481	O348	0.744400	0.701100	0.853800
O3491	O349	0.120300	0.825100	0.576800
O3501	O350	0.024100	0.814700	0.439700
U431	U43	0.628560	0.000390	0.783190
U441	U44	0.668630	0.809170	0.195430
U451	U45	0.434480	0.707310	0.162440
S571	S57	0.579460	0.899920	0.867100
S581	S58	0.543650	0.774300	0.173410
S591	S59	0.728870	0.925960	0.824710
S601	S60	0.780190	0.807970	0.292060
O3511	O351	0.541900	0.008000	0.793600
O3521	O352	0.517800	0.728500	0.177200
O3531	O353	0.552000	0.892500	0.929400
O3541	O354	0.595100	0.764800	0.166500
O3551	O355	0.602200	0.947300	0.872100
O3561	O356	0.645000	0.818000	0.276900
O3571	O357	0.748900	0.802300	0.232500
O3581	O358	0.535200	0.802200	0.235700
O3591	O359	0.751700	0.912300	0.887400
O3601	O360	0.765300	0.941100	0.774900
O3611	O361	0.627600	0.953200	0.724900
O3621	O362	0.526300	0.801800	0.115000
O3631	O363	0.448100	0.649300	0.190900
O3641	O364	0.800700	0.856200	0.290200
O3651	O365	0.548800	0.899100	0.807900
O3661	O366	0.630300	0.046800	0.843400
O3671	O367	0.691100	0.799000	0.113000
O3681	O368	0.696600	0.966600	0.837700
O3691	O369	0.421900	0.764600	0.133600
O3701	O370	0.820000	0.773900	0.282500
O3711	O371	0.701200	0.887200	0.794800
O3721	O372	0.616100	0.863300	0.862300
O3731	O373	0.755600	0.798900	0.353800
O3741	O374	0.379700	0.674900	0.076800
O3751	O375	0.475900	0.685300	0.939700
U461	U46	0.128560	0.500390	0.283190
U471	U47	0.168630	0.309170	0.695430
U481	U48	0.934480	0.207310	0.662440
S611	S61	0.079460	0.399920	0.367100
S621	S62	0.043650	0.274300	0.673410
S631	S63	0.228870	0.425960	0.324710
S641	S64	0.280190	0.307970	0.792060
O3761	O376	0.041900	0.508000	0.293600
O3771	O377	0.017800	0.228500	0.677200
O3781	O378	0.052000	0.392500	0.429400
O3791	O379	0.095100	0.264800	0.666500
O3801	O380	0.102200	0.447300	0.372100
O3811	O381	0.145000	0.318000	0.776900
O3821	O382	0.248900	0.302300	0.732500
O3831	O383	0.035200	0.302200	0.735700
O3841	O384	0.251700	0.412300	0.387400
O3851	O385	0.265300	0.441100	0.274900
O3861	O386	0.127600	0.453200	0.224900
O3871	O387	0.026300	0.301800	0.615000
O3881	O388	0.948100	0.149300	0.690900
O3891	O389	0.300700	0.356200	0.790200
O3901	O390	0.048800	0.399100	0.307900
O3911	O391	0.130300	0.546800	0.343400
O3921	O392	0.191100	0.299000	0.613000
O3931	O393	0.196600	0.466600	0.337700
O3941	O394	0.921900	0.264600	0.633600
O3951	O395	0.320000	0.273900	0.782500
O3961	O396	0.201200	0.387200	0.294800
O3971	O397	0.116100	0.363300	0.362300
O3981	O398	0.255600	0.298900	0.853800
O3991	O399	0.879700	0.174900	0.576800
O4001	O400	0.975900	0.185300	0.439700
U491	U49	0.823970	0.464950	0.000000
S651	S65	0.697190	0.498990	0.000000
O4011	O401	0.808000	0.403700	0.000000
O4021	O402	0.840400	0.524900	0.000000
O4031	O403	0.744700	0.486900	0.000000
O4041	O404	0.664900	0.460500	0.000000
U501	U50	0.323970	0.964950	0.500000
S661	S66	0.197190	0.998990	0.500000
O4051	O405	0.308000	0.903700	0.500000
O4061	O406	0.340400	0.024900	0.500000
O4071	O407	0.244700	0.986900	0.500000
O4081	O408	0.164900	0.960500	0.500000
U511	U51	0.176030	0.535050	0.000000
S671	S67	0.302810	0.501010	0.000000
O4091	O409	0.192000	0.596300	0.000000
O4101	O410	0.159600	0.475100	0.000000
O4111	O411	0.255300	0.513100	0.000000
O4121	O412	0.335100	0.539500	0.000000
U521	U52	0.676030	0.035050	0.500000
S681	S68	0.802810	0.001010	0.500000
O4131	O413	0.692000	0.096300	0.500000
O4141	O414	0.659600	0.975100	0.500000
O4151	O415	0.755300	0.013100	0.500000
O4161	O416	0.835100	0.039500	0.500000
U531	U53	0.535050	0.823970	0.000000
S691	S69	0.501010	0.697190	0.000000
O4171	O417	0.596300	0.808000	0.000000
O4181	O418	0.475100	0.840400	0.000000
O4191	O419	0.513100	0.744700	0.000000
O4201	O420	0.539500	0.664900	0.000000
U541	U54	0.035050	0.323970	0.500000
S701	S70	0.001010	0.197190	0.500000
O4211	O421	0.096300	0.308000	0.500000
O4221	O422	0.975100	0.340400	0.500000
O4231	O423	0.013100	0.244700	0.500000
O4241	O424	0.039500	0.164900	0.500000
U551	U55	0.464950	0.176030	0.000000
S711	S71	0.498990	0.302810	0.000000
O4251	O425	0.403700	0.192000	0.000000
O4261	O426	0.524900	0.159600	0.000000
O4271	O427	0.486900	0.255300	0.000000
O4281	O428	0.460500	0.335100	0.000000
U561	U56	0.964950	0.676030	0.500000
S721	S72	0.998990	0.802810	0.500000
O4291	O429	0.903700	0.692000	0.500000
O4301	O430	0.024900	0.659600	0.500000
O4311	O431	0.986900	0.755300	0.500000
O4321	O432	0.960500	0.835100	0.500000
S731	S73	0.000000	0.500000	0.250000
S741	S74	0.500000	0.000000	0.250000
S751	S75	0.000000	0.500000	0.750000
S761	S76	0.500000	0.000000	0.750000
