data_KIXKOS_ion_b_PM
_symmetry_space_group_name_H-M	'P1'
_cell_length_a	29.853700
_cell_length_b	29.853700
_cell_length_c	29.853700
_cell_angle_alpha	32.936500
_cell_angle_beta	32.936500
_cell_angle_gamma	32.936500
_symmetry_Int_Tables_number 1

loop_
_symmetry_equiv_pos_as_xyz
'x,y,z'

loop_
_atom_site_label
_atom_site_type_symbol
_atom_site_fract_x
_atom_site_fract_y
_atom_site_fract_z
Co11	Co1	0.348990	0.279990	0.548110
Co21	Co2	0.257880	0.248040	0.563830
O31	O3	0.295380	0.336380	0.486980
O51	O5	0.167640	0.257640	0.677740
O61	O6	0.242250	0.252350	0.682850
O71	O7	0.930840	0.253940	0.075440
O81	O8	0.075730	0.215530	0.997130
C91	C9	0.176710	0.252010	0.716510
C101	C10	0.100430	0.244030	0.811330
C111	C11	0.020420	0.237120	0.950420
C121	C12	0.093510	0.245510	0.862010
H131	H13	0.137600	0.252100	0.837100
C141	C14	0.010560	0.235660	0.008960
C151	C15	0.034820	0.233120	0.850020
H161	H16	0.039000	0.232200	0.816100
C171	C17	0.963900	0.223200	0.938000
H181	H18	0.921200	0.213900	0.964200
C191	C19	0.956060	0.227360	0.986260
H201	H20	0.906200	0.223700	0.044700
O211	O21	0.839180	0.460480	0.559880
O221	O22	0.877760	0.394460	0.649960
O231	O23	0.233940	0.422340	0.378340
O241	O24	0.178940	0.320840	0.520140
C251	C25	0.892650	0.431850	0.572150
C261	C26	0.976850	0.445250	0.490450
C271	C27	0.114470	0.428070	0.426470
C281	C28	0.039200	0.410400	0.501800
H291	H29	0.030600	0.374300	0.561200
C301	C30	0.180820	0.387820	0.442520
C311	C31	0.989200	0.498800	0.402500
H321	H32	0.947300	0.522500	0.394300
C331	C33	0.065020	0.517020	0.326220
H341	H34	0.074100	0.552700	0.266700
C351	C35	0.126730	0.482130	0.338730
H361	H36	0.176700	0.495200	0.287600
Co371	Co37	0.548110	0.348990	0.279990
Co381	Co38	0.563830	0.257880	0.248040
O391	O39	0.486980	0.295380	0.336380
O411	O41	0.677740	0.167640	0.257640
O421	O42	0.682850	0.242250	0.252350
O431	O43	0.075440	0.930840	0.253940
O441	O44	0.997130	0.075730	0.215530
C451	C45	0.716510	0.176710	0.252010
C461	C46	0.811330	0.100430	0.244030
C471	C47	0.950420	0.020420	0.237120
C481	C48	0.862010	0.093510	0.245510
H491	H49	0.837100	0.137600	0.252100
C501	C50	0.008960	0.010560	0.235660
C511	C51	0.850020	0.034820	0.233120
H521	H52	0.816100	0.039000	0.232200
C531	C53	0.938000	0.963900	0.223200
H541	H54	0.964200	0.921200	0.213900
C551	C55	0.986260	0.956060	0.227360
H561	H56	0.044700	0.906200	0.223700
O571	O57	0.559880	0.839180	0.460480
O581	O58	0.649960	0.877760	0.394460
O591	O59	0.378340	0.233940	0.422340
O601	O60	0.520140	0.178940	0.320840
C611	C61	0.572150	0.892650	0.431850
C621	C62	0.490450	0.976850	0.445250
C631	C63	0.426470	0.114470	0.428070
C641	C64	0.501800	0.039200	0.410400
H651	H65	0.561200	0.030600	0.374300
C661	C66	0.442520	0.180820	0.387820
C671	C67	0.402500	0.989200	0.498800
H681	H68	0.394300	0.947300	0.522500
C691	C69	0.326220	0.065020	0.517020
H701	H70	0.266700	0.074100	0.552700
C711	C71	0.338730	0.126730	0.482130
H721	H72	0.287600	0.176700	0.495200
Co731	Co73	0.279990	0.548110	0.348990
Co741	Co74	0.248040	0.563830	0.257880
O751	O75	0.336380	0.486980	0.295380
O771	O77	0.257640	0.677740	0.167640
O781	O78	0.252350	0.682850	0.242250
O791	O79	0.253940	0.075440	0.930840
O801	O80	0.215530	0.997130	0.075730
C811	C81	0.252010	0.716510	0.176710
C821	C82	0.244030	0.811330	0.100430
C831	C83	0.237120	0.950420	0.020420
C841	C84	0.245510	0.862010	0.093510
H851	H85	0.252100	0.837100	0.137600
C861	C86	0.235660	0.008960	0.010560
C871	C87	0.233120	0.850020	0.034820
H881	H88	0.232200	0.816100	0.039000
C891	C89	0.223200	0.938000	0.963900
H901	H90	0.213900	0.964200	0.921200
C911	C91	0.227360	0.986260	0.956060
H921	H92	0.223700	0.044700	0.906200
O931	O93	0.460480	0.559880	0.839180
O941	O94	0.394460	0.649960	0.877760
O951	O95	0.422340	0.378340	0.233940
O961	O96	0.320840	0.520140	0.178940
C971	C97	0.431850	0.572150	0.892650
C981	C98	0.445250	0.490450	0.976850
C991	C99	0.428070	0.426470	0.114470
C1001	C100	0.410400	0.501800	0.039200
H1011	H101	0.374300	0.561200	0.030600
C1021	C102	0.387820	0.442520	0.180820
C1031	C103	0.498800	0.402500	0.989200
H1041	H104	0.522500	0.394300	0.947300
C1051	C105	0.517020	0.326220	0.065020
H1061	H106	0.552700	0.266700	0.074100
C1071	C107	0.482130	0.338730	0.126730
H1081	H108	0.495200	0.287600	0.176700
Co1091	Co109	0.220010	0.151010	0.951890
Co1101	Co110	0.251960	0.242120	0.936170
O1111	O111	0.163620	0.204620	0.013020
O1131	O113	0.242360	0.332360	0.822260
O1141	O114	0.247650	0.257750	0.817150
O1151	O115	0.246060	0.569160	0.424560
O1161	O116	0.284470	0.424270	0.502870
C1171	C117	0.247990	0.323290	0.783490
C1181	C118	0.255970	0.399570	0.688670
C1191	C119	0.262880	0.479580	0.549580
C1201	C120	0.254490	0.406490	0.637990
H1211	H121	0.247900	0.362400	0.662900
C1221	C122	0.264340	0.489440	0.491040
C1231	C123	0.266880	0.465180	0.649980
H1241	H124	0.267800	0.461000	0.683900
C1251	C125	0.276800	0.536100	0.562000
H1261	H126	0.286100	0.578800	0.535800
C1271	C127	0.272640	0.543940	0.513740
H1281	H128	0.276300	0.593800	0.455300
O1291	O129	0.039520	0.660820	0.940120
O1301	O130	0.105540	0.622240	0.850040
O1311	O131	0.077660	0.266060	0.121660
O1321	O132	0.179160	0.321060	0.979860
C1331	C133	0.068150	0.607350	0.927850
C1341	C134	0.054750	0.523150	0.009550
C1351	C135	0.071930	0.385530	0.073530
C1361	C136	0.089600	0.460800	0.998200
H1371	H137	0.125700	0.469400	0.938800
C1381	C138	0.112180	0.319180	0.057480
C1391	C139	0.001200	0.510800	0.097500
H1401	H140	0.977500	0.552700	0.105700
C1411	C141	0.982980	0.434980	0.173780
H1421	H142	0.947300	0.425900	0.233300
C1431	C143	0.017870	0.373270	0.161270
H1441	H144	0.004800	0.323300	0.212400
Co1451	Co145	0.151010	0.951890	0.220010
Co1461	Co146	0.242120	0.936170	0.251960
O1471	O147	0.204620	0.013020	0.163620
O1491	O149	0.332360	0.822260	0.242360
O1501	O150	0.257750	0.817150	0.247650
O1511	O151	0.569160	0.424560	0.246060
O1521	O152	0.424270	0.502870	0.284470
C1531	C153	0.323290	0.783490	0.247990
C1541	C154	0.399570	0.688670	0.255970
C1551	C155	0.479580	0.549580	0.262880
C1561	C156	0.406490	0.637990	0.254490
H1571	H157	0.362400	0.662900	0.247900
C1581	C158	0.489440	0.491040	0.264340
C1591	C159	0.465180	0.649980	0.266880
H1601	H160	0.461000	0.683900	0.267800
C1611	C161	0.536100	0.562000	0.276800
H1621	H162	0.578800	0.535800	0.286100
C1631	C163	0.543940	0.513740	0.272640
H1641	H164	0.593800	0.455300	0.276300
O1651	O165	0.660820	0.940120	0.039520
O1661	O166	0.622240	0.850040	0.105540
O1671	O167	0.266060	0.121660	0.077660
O1681	O168	0.321060	0.979860	0.179160
C1691	C169	0.607350	0.927850	0.068150
C1701	C170	0.523150	0.009550	0.054750
C1711	C171	0.385530	0.073530	0.071930
C1721	C172	0.460800	0.998200	0.089600
H1731	H173	0.469400	0.938800	0.125700
C1741	C174	0.319180	0.057480	0.112180
C1751	C175	0.510800	0.097500	0.001200
H1761	H176	0.552700	0.105700	0.977500
C1771	C177	0.434980	0.173780	0.982980
H1781	H178	0.425900	0.233300	0.947300
C1791	C179	0.373270	0.161270	0.017870
H1801	H180	0.323300	0.212400	0.004800
Co1811	Co181	0.951890	0.220010	0.151010
Co1821	Co182	0.936170	0.251960	0.242120
O1831	O183	0.013020	0.163620	0.204620
O1851	O185	0.822260	0.242360	0.332360
O1861	O186	0.817150	0.247650	0.257750
O1871	O187	0.424560	0.246060	0.569160
O1881	O188	0.502870	0.284470	0.424270
C1891	C189	0.783490	0.247990	0.323290
C1901	C190	0.688670	0.255970	0.399570
C1911	C191	0.549580	0.262880	0.479580
C1921	C192	0.637990	0.254490	0.406490
H1931	H193	0.662900	0.247900	0.362400
C1941	C194	0.491040	0.264340	0.489440
C1951	C195	0.649980	0.266880	0.465180
H1961	H196	0.683900	0.267800	0.461000
C1971	C197	0.562000	0.276800	0.536100
H1981	H198	0.535800	0.286100	0.578800
C1991	C199	0.513740	0.272640	0.543940
H2001	H200	0.455300	0.276300	0.593800
O2011	O201	0.940120	0.039520	0.660820
O2021	O202	0.850040	0.105540	0.622240
O2031	O203	0.121660	0.077660	0.266060
O2041	O204	0.979860	0.179160	0.321060
C2051	C205	0.927850	0.068150	0.607350
C2061	C206	0.009550	0.054750	0.523150
C2071	C207	0.073530	0.071930	0.385530
C2081	C208	0.998200	0.089600	0.460800
H2091	H209	0.938800	0.125700	0.469400
C2101	C210	0.057480	0.112180	0.319180
C2111	C211	0.097500	0.001200	0.510800
H2121	H212	0.105700	0.977500	0.552700
C2131	C213	0.173780	0.982980	0.434980
H2141	H214	0.233300	0.947300	0.425900
C2151	C215	0.161270	0.017870	0.373270
H2161	H216	0.212400	0.004800	0.323300
Co2171	Co217	0.651010	0.720010	0.451890
Co2181	Co218	0.742120	0.751960	0.436170
O2191	O219	0.704620	0.663620	0.513020
O2211	O221	0.832360	0.742360	0.322260
O2221	O222	0.757750	0.747650	0.317150
O2231	O223	0.069160	0.746060	0.924560
O2241	O224	0.924270	0.784470	0.002870
C2251	C225	0.823290	0.747990	0.283490
C2261	C226	0.899570	0.755970	0.188670
C2271	C227	0.979580	0.762880	0.049580
C2281	C228	0.906490	0.754490	0.137990
H2291	H229	0.862400	0.747900	0.162900
C2301	C230	0.989440	0.764340	0.991040
C2311	C231	0.965180	0.766880	0.149980
H2321	H232	0.961000	0.767800	0.183900
C2331	C233	0.036100	0.776800	0.062000
H2341	H234	0.078800	0.786100	0.035800
C2351	C235	0.043940	0.772640	0.013740
H2361	H236	0.093800	0.776300	0.955300
O2371	O237	0.160820	0.539520	0.440120
O2381	O238	0.122240	0.605540	0.350040
O2391	O239	0.766060	0.577660	0.621660
O2401	O240	0.821060	0.679160	0.479860
C2411	C241	0.107350	0.568150	0.427850
C2421	C242	0.023150	0.554750	0.509550
C2431	C243	0.885530	0.571930	0.573530
C2441	C244	0.960800	0.589600	0.498200
H2451	H245	0.969400	0.625700	0.438800
C2461	C246	0.819180	0.612180	0.557480
C2471	C247	0.010800	0.501200	0.597500
H2481	H248	0.052700	0.477500	0.605700
C2491	C249	0.934980	0.482980	0.673780
H2501	H250	0.925900	0.447300	0.733300
C2511	C251	0.873270	0.517870	0.661270
H2521	H252	0.823300	0.504800	0.712400
Co2531	Co253	0.451890	0.651010	0.720010
Co2541	Co254	0.436170	0.742120	0.751960
O2551	O255	0.513020	0.704620	0.663620
O2571	O257	0.322260	0.832360	0.742360
O2581	O258	0.317150	0.757750	0.747650
O2591	O259	0.924560	0.069160	0.746060
O2601	O260	0.002870	0.924270	0.784470
C2611	C261	0.283490	0.823290	0.747990
C2621	C262	0.188670	0.899570	0.755970
C2631	C263	0.049580	0.979580	0.762880
C2641	C264	0.137990	0.906490	0.754490
H2651	H265	0.162900	0.862400	0.747900
C2661	C266	0.991040	0.989440	0.764340
C2671	C267	0.149980	0.965180	0.766880
H2681	H268	0.183900	0.961000	0.767800
C2691	C269	0.062000	0.036100	0.776800
H2701	H270	0.035800	0.078800	0.786100
C2711	C271	0.013740	0.043940	0.772640
H2721	H272	0.955300	0.093800	0.776300
O2731	O273	0.440120	0.160820	0.539520
O2741	O274	0.350040	0.122240	0.605540
O2751	O275	0.621660	0.766060	0.577660
O2761	O276	0.479860	0.821060	0.679160
C2771	C277	0.427850	0.107350	0.568150
C2781	C278	0.509550	0.023150	0.554750
C2791	C279	0.573530	0.885530	0.571930
C2801	C280	0.498200	0.960800	0.589600
H2811	H281	0.438800	0.969400	0.625700
C2821	C282	0.557480	0.819180	0.612180
C2831	C283	0.597500	0.010800	0.501200
H2841	H284	0.605700	0.052700	0.477500
C2851	C285	0.673780	0.934980	0.482980
H2861	H286	0.733300	0.925900	0.447300
C2871	C287	0.661270	0.873270	0.517870
H2881	H288	0.712400	0.823300	0.504800
Co2891	Co289	0.720010	0.451890	0.651010
Co2901	Co290	0.751960	0.436170	0.742120
O2911	O291	0.663620	0.513020	0.704620
O2931	O293	0.742360	0.322260	0.832360
O2941	O294	0.747650	0.317150	0.757750
O2951	O295	0.746060	0.924560	0.069160
O2961	O296	0.784470	0.002870	0.924270
C2971	C297	0.747990	0.283490	0.823290
C2981	C298	0.755970	0.188670	0.899570
C2991	C299	0.762880	0.049580	0.979580
C3001	C300	0.754490	0.137990	0.906490
H3011	H301	0.747900	0.162900	0.862400
C3021	C302	0.764340	0.991040	0.989440
C3031	C303	0.766880	0.149980	0.965180
H3041	H304	0.767800	0.183900	0.961000
C3051	C305	0.776800	0.062000	0.036100
H3061	H306	0.786100	0.035800	0.078800
C3071	C307	0.772640	0.013740	0.043940
H3081	H308	0.776300	0.955300	0.093800
O3091	O309	0.539520	0.440120	0.160820
O3101	O310	0.605540	0.350040	0.122240
O3111	O311	0.577660	0.621660	0.766060
O3121	O312	0.679160	0.479860	0.821060
C3131	C313	0.568150	0.427850	0.107350
C3141	C314	0.554750	0.509550	0.023150
C3151	C315	0.571930	0.573530	0.885530
C3161	C316	0.589600	0.498200	0.960800
H3171	H317	0.625700	0.438800	0.969400
C3181	C318	0.612180	0.557480	0.819180
C3191	C319	0.501200	0.597500	0.010800
H3201	H320	0.477500	0.605700	0.052700
C3211	C321	0.482980	0.673780	0.934980
H3221	H322	0.447300	0.733300	0.925900
C3231	C323	0.517870	0.661270	0.873270
H3241	H324	0.504800	0.712400	0.823300
Co3251	Co325	0.779990	0.848990	0.048110
Co3261	Co326	0.748040	0.757880	0.063830
O3271	O327	0.836380	0.795380	0.986980
O3291	O329	0.757640	0.667640	0.177740
O3301	O330	0.752350	0.742250	0.182850
O3311	O331	0.753940	0.430840	0.575440
O3321	O332	0.715530	0.575730	0.497130
C3331	C333	0.752010	0.676710	0.216510
C3341	C334	0.744030	0.600430	0.311330
C3351	C335	0.737120	0.520420	0.450420
C3361	C336	0.745510	0.593510	0.362010
H3371	H337	0.752100	0.637600	0.337100
C3381	C338	0.735660	0.510560	0.508960
C3391	C339	0.733120	0.534820	0.350020
H3401	H340	0.732200	0.539000	0.316100
C3411	C341	0.723200	0.463900	0.438000
H3421	H342	0.713900	0.421200	0.464200
C3431	C343	0.727360	0.456060	0.486260
H3441	H344	0.723700	0.406200	0.544700
O3451	O345	0.960480	0.339180	0.059880
O3461	O346	0.894460	0.377760	0.149960
O3471	O347	0.922340	0.733940	0.878340
O3481	O348	0.820840	0.678940	0.020140
C3491	C349	0.931850	0.392650	0.072150
C3501	C350	0.945250	0.476850	0.990450
C3511	C351	0.928070	0.614470	0.926470
C3521	C352	0.910400	0.539200	0.001800
H3531	H353	0.874300	0.530600	0.061200
C3541	C354	0.887820	0.680820	0.942520
C3551	C355	0.998800	0.489200	0.902500
H3561	H356	0.022500	0.447300	0.894300
C3571	C357	0.017020	0.565020	0.826220
H3581	H358	0.052700	0.574100	0.766700
C3591	C359	0.982130	0.626730	0.838730
H3601	H360	0.995200	0.676700	0.787600
Co3611	Co361	0.848990	0.048110	0.779990
Co3621	Co362	0.757880	0.063830	0.748040
O3631	O363	0.795380	0.986980	0.836380
O3651	O365	0.667640	0.177740	0.757640
O3661	O366	0.742250	0.182850	0.752350
O3671	O367	0.430840	0.575440	0.753940
O3681	O368	0.575730	0.497130	0.715530
C3691	C369	0.676710	0.216510	0.752010
C3701	C370	0.600430	0.311330	0.744030
C3711	C371	0.520420	0.450420	0.737120
C3721	C372	0.593510	0.362010	0.745510
H3731	H373	0.637600	0.337100	0.752100
C3741	C374	0.510560	0.508960	0.735660
C3751	C375	0.534820	0.350020	0.733120
H3761	H376	0.539000	0.316100	0.732200
C3771	C377	0.463900	0.438000	0.723200
H3781	H378	0.421200	0.464200	0.713900
C3791	C379	0.456060	0.486260	0.727360
H3801	H380	0.406200	0.544700	0.723700
O3811	O381	0.339180	0.059880	0.960480
O3821	O382	0.377760	0.149960	0.894460
O3831	O383	0.733940	0.878340	0.922340
O3841	O384	0.678940	0.020140	0.820840
C3851	C385	0.392650	0.072150	0.931850
C3861	C386	0.476850	0.990450	0.945250
C3871	C387	0.614470	0.926470	0.928070
C3881	C388	0.539200	0.001800	0.910400
H3891	H389	0.530600	0.061200	0.874300
C3901	C390	0.680820	0.942520	0.887820
C3911	C391	0.489200	0.902500	0.998800
H3921	H392	0.447300	0.894300	0.022500
C3931	C393	0.565020	0.826220	0.017020
H3941	H394	0.574100	0.766700	0.052700
C3951	C395	0.626730	0.838730	0.982130
H3961	H396	0.676700	0.787600	0.995200
Co3971	Co397	0.048110	0.779990	0.848990
Co3981	Co398	0.063830	0.748040	0.757880
O3991	O399	0.986980	0.836380	0.795380
O4011	O401	0.177740	0.757640	0.667640
O4021	O402	0.182850	0.752350	0.742250
O4031	O403	0.575440	0.753940	0.430840
O4041	O404	0.497130	0.715530	0.575730
C4051	C405	0.216510	0.752010	0.676710
C4061	C406	0.311330	0.744030	0.600430
C4071	C407	0.450420	0.737120	0.520420
C4081	C408	0.362010	0.745510	0.593510
H4091	H409	0.337100	0.752100	0.637600
C4101	C410	0.508960	0.735660	0.510560
C4111	C411	0.350020	0.733120	0.534820
H4121	H412	0.316100	0.732200	0.539000
C4131	C413	0.438000	0.723200	0.463900
H4141	H414	0.464200	0.713900	0.421200
C4151	C415	0.486260	0.727360	0.456060
H4161	H416	0.544700	0.723700	0.406200
O4171	O417	0.059880	0.960480	0.339180
O4181	O418	0.149960	0.894460	0.377760
O4191	O419	0.878340	0.922340	0.733940
O4201	O420	0.020140	0.820840	0.678940
C4211	C421	0.072150	0.931850	0.392650
C4221	C422	0.990450	0.945250	0.476850
C4231	C423	0.926470	0.928070	0.614470
C4241	C424	0.001800	0.910400	0.539200
H4251	H425	0.061200	0.874300	0.530600
C4261	C426	0.942520	0.887820	0.680820
C4271	C427	0.902500	0.998800	0.489200
H4281	H428	0.894300	0.022500	0.447300
C4291	C429	0.826220	0.017020	0.565020
H4301	H430	0.766700	0.052700	0.574100
C4311	C431	0.838730	0.982130	0.626730
H4321	H432	0.787600	0.995200	0.676700
Co4331	Co433	0.359570	0.359570	0.359570
Co4341	Co434	0.140430	0.140430	0.140430
Co4351	Co435	0.640430	0.640430	0.640430
Co4361	Co436	0.859570	0.859570	0.859570
K4371	K437	0.349530	0.150470	0.750000
K4381	K438	0.750000	0.349530	0.150470
K4391	K439	0.150470	0.750000	0.349530
K4401	K440	0.650470	0.849530	0.250000
K4411	K441	0.250000	0.650470	0.849530
K4421	K442	0.849530	0.250000	0.650470
