data_KIYQEQ_freeONLY_PM
_symmetry_space_group_name_H-M	'P1'
_cell_length_a	14.623500
_cell_length_b	12.285600
_cell_length_c	14.135500
_cell_angle_alpha	90.000000
_cell_angle_beta	106.068000
_cell_angle_gamma	90.000000
_symmetry_Int_Tables_number 1

loop_
_symmetry_equiv_pos_as_xyz
'x,y,z'

loop_
_atom_site_label
_atom_site_type_symbol
_atom_site_fract_x
_atom_site_fract_y
_atom_site_fract_z
Zn11	Zn1	0.341100	0.977500	0.646700
O11	O1	0.246500	0.098100	0.664700
O21	O2	0.172800	0.249600	0.611100
O31	O3	0.472800	0.246900	0.290900
O41	O4	0.538700	0.109700	0.385700
N11	N1	0.347000	0.096700	0.539800
C11	C1	0.295400	0.187500	0.542200
C21	C2	0.296400	0.275500	0.483200
H11	H1	0.257600	0.335400	0.483500
C31	C3	0.356100	0.273300	0.423600
H21	H2	0.360400	0.334100	0.385900
C41	C4	0.408900	0.183700	0.418900
C51	C5	0.398500	0.093600	0.475000
H31	H3	0.428500	0.028900	0.467100
C61	C6	0.477100	0.182000	0.358000
C71	C7	0.233500	0.182100	0.610300
Zn21	Zn2	0.422800	0.755900	0.799700
O51	O5	0.407900	0.925300	0.786200
O61	O6	0.477300	0.086500	0.823500
O71	O7	0.829400	0.790500	0.175700
O81	O8	0.749100	0.638900	0.109700
N21	N2	0.542900	0.814300	0.911000
C81	C8	0.551400	0.923400	0.912100
C91	C9	0.620800	0.974000	0.980600
H41	H4	0.621400	0.049700	0.982100
C101	C10	0.688800	0.920400	0.046500
H51	H5	0.737200	0.957500	0.091600
C111	C11	0.685300	0.806800	0.045800
C121	C12	0.611700	0.756100	0.977500
H61	H6	0.608600	0.680500	0.976500
C131	C13	0.761900	0.743800	0.115200
C141	C14	0.473600	0.986000	0.835900
O91	O9	0.479100	0.591400	0.840000
N31	N3	0.463400	0.413900	0.814700
C151	C15	0.414700	0.319200	0.759100
H71	H7	0.447600	0.253800	0.786200
H81	H8	0.414400	0.325900	0.691300
H91	H9	0.350400	0.316200	0.763500
C161	C16	0.434100	0.513500	0.793900
H101	H10	0.378700	0.526300	0.743800
C171	C17	0.552200	0.393400	0.889400
H111	H11	0.603700	0.426200	0.869900
H121	H12	0.562500	0.316300	0.896800
H131	H13	0.549100	0.424000	0.950900
Zn31	Zn3	0.158900	0.477500	0.853300
O101	O10	0.253500	0.598100	0.835300
O111	O11	0.327200	0.749600	0.888900
O121	O12	0.027200	0.746900	0.209100
O131	O13	0.961300	0.609700	0.114300
N41	N4	0.153000	0.596700	0.960200
C181	C18	0.204600	0.687500	0.957800
C191	C19	0.203600	0.775500	0.016800
H141	H14	0.242400	0.835400	0.016500
C201	C20	0.143900	0.773300	0.076400
H151	H15	0.139600	0.834100	0.114100
C211	C21	0.091100	0.683700	0.081100
C221	C22	0.101500	0.593600	0.025000
H161	H16	0.071500	0.528900	0.032900
C231	C23	0.022900	0.682000	0.142000
C241	C24	0.266500	0.682100	0.889700
Zn41	Zn4	0.077200	0.255900	0.700300
O141	O14	0.092100	0.425300	0.713800
O151	O15	0.022700	0.586500	0.676500
O161	O16	0.670600	0.290500	0.324300
O171	O17	0.750900	0.138900	0.390300
N51	N5	0.957100	0.314300	0.589000
C251	C25	0.948600	0.423400	0.587900
C261	C26	0.879200	0.474000	0.519400
H171	H17	0.878600	0.549700	0.517900
C271	C27	0.811200	0.420400	0.453500
H181	H18	0.762800	0.457500	0.408400
C281	C28	0.814700	0.306800	0.454200
C291	C29	0.888300	0.256100	0.522500
H191	H19	0.891400	0.180500	0.523500
C301	C30	0.738100	0.243800	0.384800
C311	C31	0.026400	0.486000	0.664100
O181	O18	0.020900	0.091400	0.660000
N61	N6	0.036600	0.913900	0.685300
C321	C32	0.085300	0.819200	0.740900
H201	H20	0.052400	0.753800	0.713800
H211	H21	0.085600	0.825900	0.808700
H221	H22	0.149600	0.816200	0.736500
C331	C33	0.065900	0.013500	0.706100
H231	H23	0.121300	0.026300	0.756200
C341	C34	0.947800	0.893400	0.610600
H241	H24	0.896300	0.926200	0.630100
H251	H25	0.937500	0.816300	0.603200
H261	H26	0.950900	0.924000	0.549100
Zn51	Zn5	0.658900	0.022500	0.353300
O191	O19	0.753500	0.901900	0.335300
O201	O20	0.827200	0.750400	0.388900
O211	O21	0.527200	0.753100	0.709100
O221	O22	0.461300	0.890300	0.614300
N71	N7	0.653000	0.903300	0.460200
C351	C35	0.704600	0.812500	0.457800
C361	C36	0.703600	0.724500	0.516800
H271	H27	0.742400	0.664600	0.516500
C371	C37	0.643900	0.726700	0.576400
H281	H28	0.639600	0.665900	0.614100
C381	C38	0.591100	0.816300	0.581100
C391	C39	0.601500	0.906400	0.525000
H291	H29	0.571500	0.971100	0.532900
C401	C40	0.522900	0.818000	0.642000
C411	C41	0.766500	0.817900	0.389700
Zn61	Zn6	0.577200	0.244100	0.200300
O231	O23	0.592100	0.074700	0.213800
O241	O24	0.522700	0.913500	0.176500
O251	O25	0.170600	0.209500	0.824300
O261	O26	0.250900	0.361100	0.890300
N81	N8	0.457100	0.185700	0.089000
C421	C42	0.448600	0.076600	0.087900
C431	C43	0.379200	0.026000	0.019400
H301	H30	0.378600	0.950300	0.017900
C441	C44	0.311200	0.079600	0.953500
H311	H31	0.262800	0.042500	0.908400
C451	C45	0.314700	0.193200	0.954200
C461	C46	0.388300	0.243900	0.022500
H321	H32	0.391400	0.319500	0.023500
C471	C47	0.238100	0.256200	0.884800
C481	C48	0.526400	0.014000	0.164100
O271	O27	0.520900	0.408600	0.160000
N91	N9	0.536600	0.586100	0.185300
C491	C49	0.585300	0.680800	0.240900
H331	H33	0.552400	0.746200	0.213800
H341	H34	0.585600	0.674100	0.308700
H351	H35	0.649600	0.683800	0.236500
C501	C50	0.565900	0.486500	0.206100
H361	H36	0.621300	0.473700	0.256200
C511	C51	0.447800	0.606600	0.110600
H371	H37	0.396300	0.573800	0.130100
H381	H38	0.437500	0.683700	0.103200
H391	H39	0.450900	0.576000	0.049100
Zn71	Zn7	0.841100	0.522500	0.146700
O281	O28	0.746500	0.401900	0.164700
O291	O29	0.672800	0.250400	0.111100
O301	O30	0.972800	0.253100	0.790900
O311	O31	0.038700	0.390300	0.885700
N101	N10	0.847000	0.403300	0.039800
C521	C52	0.795400	0.312500	0.042200
C531	C53	0.796400	0.224500	0.983200
H401	H40	0.757600	0.164600	0.983500
C541	C54	0.856100	0.226700	0.923600
H411	H41	0.860400	0.165900	0.885900
C551	C55	0.908900	0.316300	0.918900
C561	C56	0.898500	0.406400	0.975000
H421	H42	0.928500	0.471100	0.967100
C571	C57	0.977100	0.318000	0.858000
C581	C58	0.733500	0.317900	0.110300
Zn81	Zn8	0.922800	0.744100	0.299700
O321	O32	0.907900	0.574700	0.286200
O331	O33	0.977300	0.413500	0.323500
O341	O34	0.329400	0.709500	0.675700
O351	O35	0.249100	0.861100	0.609700
N111	N11	0.042900	0.685700	0.411000
C591	C59	0.051400	0.576600	0.412100
C601	C60	0.120800	0.526000	0.480600
H431	H43	0.121400	0.450300	0.482100
C611	C61	0.188800	0.579600	0.546500
H441	H44	0.237200	0.542500	0.591600
C621	C62	0.185300	0.693200	0.545800
C631	C63	0.111700	0.743900	0.477500
H451	H45	0.108600	0.819500	0.476500
C641	C64	0.261900	0.756200	0.615200
C651	C65	0.973600	0.514000	0.335900
O361	O36	0.979100	0.908600	0.340000
N121	N12	0.963400	0.086100	0.314700
C661	C66	0.914700	0.180800	0.259100
H461	H46	0.947600	0.246200	0.286200
H471	H47	0.914400	0.174100	0.191300
H481	H48	0.850400	0.183800	0.263500
C671	C67	0.934100	0.986500	0.293900
H491	H49	0.878700	0.973700	0.243800
C681	C68	0.052200	0.106600	0.389400
H501	H50	0.103700	0.073800	0.369900
H511	H51	0.062500	0.183700	0.396800
H521	H52	0.049100	0.076000	0.450900
