data_KOCWIJ_freeONLY_PM
_symmetry_space_group_name_H-M	'P1'
_cell_length_a	5.522500
_cell_length_b	10.364200
_cell_length_c	29.725000
_cell_angle_alpha	90.000000
_cell_angle_beta	90.000000
_cell_angle_gamma	90.000000
_symmetry_Int_Tables_number 1

loop_
_symmetry_equiv_pos_as_xyz
'x,y,z'

loop_
_atom_site_label
_atom_site_type_symbol
_atom_site_fract_x
_atom_site_fract_y
_atom_site_fract_z
Zn11	Zn1	0.174230	0.520680	0.240860
S11	S1	0.674170	0.325070	0.220070
S21	S2	0.326500	0.446850	0.490000
O11	O1	0.526400	0.425200	0.242550
O21	O2	0.631500	0.199800	0.242940
O31	O3	0.619900	0.316600	0.172650
O41	O4	0.935800	0.359600	0.226150
O51	O5	0.869100	0.637700	0.240990
N11	N1	0.162700	0.470600	0.310180
N21	N2	0.898900	0.378200	0.469390
N31	N3	0.908400	0.374800	0.515750
N41	N4	0.267800	0.441200	0.671590
C11	C1	0.339200	0.507100	0.337910
H11	H1	0.474400	0.547500	0.325700
C21	C2	0.332300	0.488300	0.383830
H21	H2	0.461100	0.514400	0.401800
C31	C3	0.132400	0.430500	0.402700
C41	C4	0.950200	0.388900	0.373950
H31	H3	0.815900	0.345600	0.385300
C51	C5	0.970000	0.412000	0.328830
H41	H4	0.844200	0.385900	0.310100
C61	C6	0.102400	0.415200	0.451870
C71	C7	0.120900	0.407300	0.531350
C81	C8	0.175900	0.415200	0.579460
C91	C9	0.391100	0.467000	0.595100
H51	H5	0.510000	0.492900	0.574900
C101	C10	0.429000	0.479900	0.640770
H61	H6	0.572800	0.517100	0.650600
C111	C11	0.063000	0.385700	0.656180
H71	H7	0.951000	0.355400	0.677000
C121	C12	0.012000	0.372000	0.611450
H81	H8	0.867600	0.333800	0.602500
H91	H9	0.715200	0.633700	0.240500
H101	H10	0.896000	0.699700	0.258900
Zn21	Zn2	0.325770	0.479320	0.740860
S31	S3	0.825830	0.674930	0.720070
S41	S4	0.173500	0.553150	0.990000
O61	O6	0.973600	0.574800	0.742550
O71	O7	0.868500	0.800200	0.742940
O81	O8	0.880100	0.683400	0.672650
O91	O9	0.564200	0.640400	0.726150
O101	O10	0.630900	0.362300	0.740990
N51	N5	0.337300	0.529400	0.810180
N61	N6	0.601100	0.621800	0.969390
N71	N7	0.591600	0.625200	0.015750
N81	N8	0.232200	0.558800	0.171590
C131	C13	0.160800	0.492900	0.837910
H111	H11	0.025600	0.452500	0.825700
C141	C14	0.167700	0.511700	0.883830
H121	H12	0.038900	0.485600	0.901800
C151	C15	0.367600	0.569500	0.902700
C161	C16	0.549800	0.611100	0.873950
H131	H13	0.684100	0.654400	0.885300
C171	C17	0.530000	0.588000	0.828830
H141	H14	0.655800	0.614100	0.810100
C181	C18	0.397600	0.584800	0.951870
C191	C19	0.379100	0.592700	0.031350
C201	C20	0.324100	0.584800	0.079460
C211	C21	0.108900	0.533000	0.095100
H151	H15	0.990000	0.507100	0.074900
C221	C22	0.071000	0.520100	0.140770
H161	H16	0.927200	0.482900	0.150600
C231	C23	0.437000	0.614300	0.156180
H171	H17	0.549000	0.644600	0.177000
C241	C24	0.488000	0.628000	0.111450
H181	H18	0.632400	0.666200	0.102500
H191	H19	0.784800	0.366300	0.740500
H201	H20	0.604000	0.300300	0.758900
Zn31	Zn3	0.825770	0.020680	0.259140
S51	S5	0.325830	0.825070	0.279930
S61	S6	0.673500	0.946850	0.010000
O111	O11	0.473600	0.925200	0.257450
O121	O12	0.368500	0.699800	0.257060
O131	O13	0.380100	0.816600	0.327350
O141	O14	0.064200	0.859600	0.273850
O151	O15	0.130900	0.137700	0.259010
N91	N9	0.837300	0.970600	0.189820
N101	N10	0.101100	0.878200	0.030610
N111	N11	0.091600	0.874800	0.984250
N121	N12	0.732200	0.941200	0.828410
C251	C25	0.660800	0.007100	0.162090
H211	H21	0.525600	0.047500	0.174300
C261	C26	0.667700	0.988300	0.116170
H221	H22	0.538900	0.014400	0.098200
C271	C27	0.867600	0.930500	0.097300
C281	C28	0.049800	0.888900	0.126050
H231	H23	0.184100	0.845600	0.114700
C291	C29	0.030000	0.912000	0.171170
H241	H24	0.155800	0.885900	0.189900
C301	C30	0.897600	0.915200	0.048130
C311	C31	0.879100	0.907300	0.968650
C321	C32	0.824100	0.915200	0.920540
C331	C33	0.608900	0.967000	0.904900
H251	H25	0.490000	0.992900	0.925100
C341	C34	0.571000	0.979900	0.859230
H261	H26	0.427200	0.017100	0.849400
C351	C35	0.937000	0.885700	0.843820
H271	H27	0.049000	0.855400	0.823000
C361	C36	0.988000	0.872000	0.888550
H281	H28	0.132400	0.833800	0.897500
H291	H29	0.284800	0.133700	0.259500
H301	H30	0.104000	0.199700	0.241100
Zn41	Zn4	0.674230	0.979320	0.759140
S71	S7	0.174170	0.174930	0.779930
S81	S8	0.826500	0.053150	0.510000
O161	O16	0.026400	0.074800	0.757450
O171	O17	0.131500	0.300200	0.757060
O181	O18	0.119900	0.183400	0.827350
O191	O19	0.435800	0.140400	0.773850
O201	O20	0.369100	0.862300	0.759010
N131	N13	0.662700	0.029400	0.689820
N141	N14	0.398900	0.121800	0.530610
N151	N15	0.408400	0.125200	0.484250
N161	N16	0.767800	0.058800	0.328410
C371	C37	0.839200	0.992900	0.662090
H311	H31	0.974400	0.952500	0.674300
C381	C38	0.832300	0.011700	0.616170
H321	H32	0.961100	0.985600	0.598200
C391	C39	0.632400	0.069500	0.597300
C401	C40	0.450200	0.111100	0.626050
H331	H33	0.315900	0.154400	0.614700
C411	C41	0.470000	0.088000	0.671170
H341	H34	0.344200	0.114100	0.689900
C421	C42	0.602400	0.084800	0.548130
C431	C43	0.620900	0.092700	0.468650
C441	C44	0.675900	0.084800	0.420540
C451	C45	0.891100	0.033000	0.404900
H351	H35	0.010000	0.007100	0.425100
C461	C46	0.929000	0.020100	0.359230
H361	H36	0.072800	0.982900	0.349400
C471	C47	0.563000	0.114300	0.343820
H371	H37	0.451000	0.144600	0.323000
C481	C48	0.512000	0.128000	0.388550
H381	H38	0.367600	0.166200	0.397500
H391	H39	0.215200	0.866300	0.759500
H401	H40	0.396000	0.800300	0.741100
