data_KOFPEB04_freeONLY_PM
_symmetry_space_group_name_H-M	'P1'
_cell_length_a	13.381900
_cell_length_b	13.381900
_cell_length_c	14.933000
_cell_angle_alpha	90.000000
_cell_angle_beta	90.000000
_cell_angle_gamma	120.000000
_symmetry_Int_Tables_number 1

loop_
_symmetry_equiv_pos_as_xyz
'x,y,z'

loop_
_atom_site_label
_atom_site_type_symbol
_atom_site_fract_x
_atom_site_fract_y
_atom_site_fract_z
La11	La1	0.333330	0.666660	0.670180
La21	La2	0.666670	0.333340	0.829820
La31	La3	0.666670	0.333340	0.329820
La41	La4	0.333330	0.666660	0.170180
Cu11	Cu1	0.500000	0.500000	0.500000
Cu21	Cu2	0.000000	0.500000	0.500000
Cu31	Cu3	0.500000	0.000000	0.500000
Cu41	Cu4	0.000000	0.500000	0.000000
Cu51	Cu5	0.500000	0.500000	0.000000
Cu61	Cu6	0.500000	0.000000	0.000000
H11	H1	0.199600	0.346000	0.463800
H21	H2	0.241700	0.283600	0.542600
H31	H3	0.272200	0.459300	0.379800
H41	H4	0.329500	0.394800	0.315800
H51	H5	0.353100	0.327000	0.424600
H61	H6	0.146400	0.800400	0.463800
H71	H7	0.041900	0.758300	0.542600
H81	H8	0.187100	0.727800	0.379800
H91	H9	0.065300	0.670500	0.315800
H101	H10	0.973900	0.646900	0.424600
H111	H11	0.654000	0.853600	0.463800
H121	H12	0.716400	0.958100	0.542600
H131	H13	0.540700	0.812900	0.379800
H141	H14	0.605200	0.934700	0.315800
H151	H15	0.673000	0.026100	0.424600
H161	H16	0.853600	0.654000	0.036200
H171	H17	0.958100	0.716400	0.957400
H181	H18	0.812900	0.540700	0.120200
H191	H19	0.934700	0.605200	0.184200
H201	H20	0.026100	0.673000	0.075400
H211	H21	0.346000	0.199600	0.036200
H221	H22	0.283600	0.241700	0.957400
H231	H23	0.459300	0.272200	0.120200
H241	H24	0.394800	0.329500	0.184200
H251	H25	0.327000	0.353100	0.075400
H261	H26	0.800400	0.146400	0.036200
H271	H27	0.758300	0.041900	0.957400
H281	H28	0.727800	0.187100	0.120200
H291	H29	0.670500	0.065300	0.184200
H301	H30	0.646900	0.973900	0.075400
H311	H31	0.800400	0.654000	0.536200
H321	H32	0.758300	0.716400	0.457400
H331	H33	0.727800	0.540700	0.620200
H341	H34	0.670500	0.605200	0.684200
H351	H35	0.646900	0.673000	0.575400
H361	H36	0.853600	0.199600	0.536200
H371	H37	0.958100	0.241700	0.457400
H381	H38	0.812900	0.272200	0.620200
H391	H39	0.934700	0.329500	0.684200
H401	H40	0.026100	0.353100	0.575400
H411	H41	0.346000	0.146400	0.536200
H421	H42	0.283600	0.041900	0.457400
H431	H43	0.459300	0.187100	0.620200
H441	H44	0.394800	0.065300	0.684200
H451	H45	0.327000	0.973900	0.575400
H461	H46	0.146400	0.346000	0.963800
H471	H47	0.041900	0.283600	0.042600
H481	H48	0.187100	0.459300	0.879800
H491	H49	0.065300	0.394800	0.815800
H501	H50	0.973900	0.327000	0.924600
H511	H51	0.654000	0.800400	0.963800
H521	H52	0.716400	0.758300	0.042600
H531	H53	0.540700	0.727800	0.879800
H541	H54	0.605200	0.670500	0.815800
H551	H55	0.673000	0.646900	0.924600
H561	H56	0.199600	0.853600	0.963800
H571	H57	0.241700	0.958100	0.042600
H581	H58	0.272200	0.812900	0.879800
H591	H59	0.329500	0.934700	0.815800
H601	H60	0.353100	0.026100	0.924600
C11	C1	0.270100	0.450000	0.567100
C21	C2	0.253500	0.349300	0.508200
C31	C3	0.332800	0.444400	0.363300
C41	C4	0.438600	0.560000	0.343700
C51	C5	0.179900	0.729900	0.567100
C61	C6	0.095800	0.746500	0.508200
C71	C7	0.111600	0.667200	0.363300
C81	C8	0.121400	0.561400	0.343700
C91	C9	0.550000	0.820100	0.567100
C101	C10	0.650700	0.904200	0.508200
C111	C11	0.555600	0.888400	0.363300
C121	C12	0.440000	0.878600	0.343700
C131	C13	0.820100	0.550000	0.932900
C141	C14	0.904200	0.650700	0.991800
C151	C15	0.888400	0.555600	0.136700
C161	C16	0.878600	0.440000	0.156300
C171	C17	0.450000	0.270100	0.932900
C181	C18	0.349300	0.253500	0.991800
C191	C19	0.444400	0.332800	0.136700
C201	C20	0.560000	0.438600	0.156300
C211	C21	0.729900	0.179900	0.932900
C221	C22	0.746500	0.095800	0.991800
C231	C23	0.667200	0.111600	0.136700
C241	C24	0.561400	0.121400	0.156300
C251	C25	0.729900	0.550000	0.432900
C261	C26	0.746500	0.650700	0.491800
C271	C27	0.667200	0.555600	0.636700
C281	C28	0.561400	0.440000	0.656300
C291	C29	0.820100	0.270100	0.432900
C301	C30	0.904200	0.253500	0.491800
C311	C31	0.888400	0.332800	0.636700
C321	C32	0.878600	0.438600	0.656300
C331	C33	0.450000	0.179900	0.432900
C341	C34	0.349300	0.095800	0.491800
C351	C35	0.444400	0.111600	0.636700
C361	C36	0.560000	0.121400	0.656300
C371	C37	0.179900	0.450000	0.067100
C381	C38	0.095800	0.349300	0.008200
C391	C39	0.111600	0.444400	0.863300
C401	C40	0.121400	0.560000	0.843700
C411	C41	0.550000	0.729900	0.067100
C421	C42	0.650700	0.746500	0.008200
C431	C43	0.555600	0.667200	0.863300
C441	C44	0.440000	0.561400	0.843700
C451	C45	0.270100	0.820100	0.067100
C461	C46	0.253500	0.904200	0.008200
C471	C47	0.332800	0.888400	0.863300
C481	C48	0.438600	0.878600	0.843700
N11	N1	0.348900	0.387600	0.443000
N21	N2	0.038700	0.651100	0.443000
N31	N3	0.612400	0.961300	0.443000
N41	N4	0.961300	0.612400	0.057000
N51	N5	0.387600	0.348900	0.057000
N61	N6	0.651100	0.038700	0.057000
N71	N7	0.651100	0.612400	0.557000
N81	N8	0.961300	0.348900	0.557000
N91	N9	0.387600	0.038700	0.557000
N101	N10	0.038700	0.387600	0.943000
N111	N11	0.612400	0.651100	0.943000
N121	N12	0.348900	0.961300	0.943000
O11	O1	0.362300	0.544500	0.557800
O21	O2	0.194500	0.434400	0.623000
O31	O3	0.522500	0.598300	0.396400
O41	O4	0.437200	0.612900	0.275900
O51	O5	0.182200	0.637700	0.557800
O61	O6	0.239900	0.805500	0.623000
O71	O7	0.075800	0.477500	0.396400
O81	O8	0.175700	0.562800	0.275900
O91	O9	0.455500	0.817800	0.557800
O101	O10	0.565600	0.760100	0.623000
O111	O11	0.401700	0.924200	0.396400
O121	O12	0.387100	0.824300	0.275900
O131	O13	0.817800	0.455500	0.942200
O141	O14	0.760100	0.565600	0.877000
O151	O15	0.924200	0.401700	0.103600
O161	O16	0.824300	0.387100	0.224100
O171	O17	0.544500	0.362300	0.942200
O181	O18	0.434400	0.194500	0.877000
O191	O19	0.598300	0.522500	0.103600
O201	O20	0.612900	0.437200	0.224100
O211	O21	0.637700	0.182200	0.942200
O221	O22	0.805500	0.239900	0.877000
O231	O23	0.477500	0.075800	0.103600
O241	O24	0.562800	0.175700	0.224100
O251	O25	0.637700	0.455500	0.442200
O261	O26	0.805500	0.565600	0.377000
O271	O27	0.477500	0.401700	0.603600
O281	O28	0.562800	0.387100	0.724100
O291	O29	0.817800	0.362300	0.442200
O301	O30	0.760100	0.194500	0.377000
O311	O31	0.924200	0.522500	0.603600
O321	O32	0.824300	0.437200	0.724100
O331	O33	0.544500	0.182200	0.442200
O341	O34	0.434400	0.239900	0.377000
O351	O35	0.598300	0.075800	0.603600
O361	O36	0.612900	0.175700	0.724100
O371	O37	0.182200	0.544500	0.057800
O381	O38	0.239900	0.434400	0.123000
O391	O39	0.075800	0.598300	0.896400
O401	O40	0.175700	0.612900	0.775900
O411	O41	0.455500	0.637700	0.057800
O421	O42	0.565600	0.805500	0.123000
O431	O43	0.401700	0.477500	0.896400
O441	O44	0.387100	0.562800	0.775900
O451	O45	0.362300	0.817800	0.057800
O461	O46	0.194500	0.760100	0.123000
O471	O47	0.522500	0.924200	0.896400
O481	O48	0.437200	0.824300	0.775900
