data_KOFPEB01_freeONLY_PM
_symmetry_space_group_name_H-M	'P1'
_cell_length_a	13.504500
_cell_length_b	13.504500
_cell_length_c	14.836000
_cell_angle_alpha	90.000000
_cell_angle_beta	90.000000
_cell_angle_gamma	120.000000
_symmetry_Int_Tables_number 1

loop_
_symmetry_equiv_pos_as_xyz
'x,y,z'

loop_
_atom_site_label
_atom_site_type_symbol
_atom_site_fract_x
_atom_site_fract_y
_atom_site_fract_z
La11	La1	0.333330	0.666660	0.832400
La21	La2	0.666670	0.333340	0.667600
La31	La3	0.666670	0.333340	0.167600
La41	La4	0.333330	0.666660	0.332400
Cu11	Cu1	0.500000	0.000000	0.000000
Cu21	Cu2	0.500000	0.500000	0.000000
Cu31	Cu3	0.000000	0.500000	0.000000
Cu41	Cu4	0.500000	0.000000	0.500000
Cu51	Cu5	0.000000	0.500000	0.500000
Cu61	Cu6	0.500000	0.500000	0.500000
H11	H1	0.246400	0.957100	0.954500
H21	H2	0.201900	0.856800	0.034200
H31	H3	0.329100	0.932000	0.185700
H41	H4	0.274200	0.812100	0.120800
H51	H5	0.352800	0.023800	0.077000
H61	H6	0.710700	0.753600	0.954500
H71	H7	0.654900	0.798100	0.034200
H81	H8	0.602900	0.670900	0.185700
H91	H9	0.537900	0.725800	0.120800
H101	H10	0.671000	0.647200	0.077000
H111	H11	0.042900	0.289300	0.954500
H121	H12	0.143200	0.345100	0.034200
H131	H13	0.068000	0.397100	0.185700
H141	H14	0.187900	0.462100	0.120800
H151	H15	0.976200	0.329000	0.077000
H161	H16	0.289300	0.042900	0.545500
H171	H17	0.345100	0.143200	0.465800
H181	H18	0.397100	0.068000	0.314300
H191	H19	0.462100	0.187900	0.379200
H201	H20	0.329000	0.976200	0.423000
H211	H21	0.957100	0.246400	0.545500
H221	H22	0.856800	0.201900	0.465800
H231	H23	0.932000	0.329100	0.314300
H241	H24	0.812100	0.274200	0.379200
H251	H25	0.023800	0.352800	0.423000
H261	H26	0.753600	0.710700	0.545500
H271	H27	0.798100	0.654900	0.465800
H281	H28	0.670900	0.602900	0.314300
H291	H29	0.725800	0.537900	0.379200
H301	H30	0.647200	0.671000	0.423000
H311	H31	0.753600	0.042900	0.045500
H321	H32	0.798100	0.143200	0.965800
H331	H33	0.670900	0.068000	0.814300
H341	H34	0.725800	0.187900	0.879200
H351	H35	0.647200	0.976200	0.923000
H361	H36	0.289300	0.246400	0.045500
H371	H37	0.345100	0.201900	0.965800
H381	H38	0.397100	0.329100	0.814300
H391	H39	0.462100	0.274200	0.879200
H401	H40	0.329000	0.352800	0.923000
H411	H41	0.957100	0.710700	0.045500
H421	H42	0.856800	0.654900	0.965800
H431	H43	0.932000	0.602900	0.814300
H441	H44	0.812100	0.537900	0.879200
H451	H45	0.023800	0.671000	0.923000
H461	H46	0.710700	0.957100	0.454500
H471	H47	0.654900	0.856800	0.534200
H481	H48	0.602900	0.932000	0.685700
H491	H49	0.537900	0.812100	0.620800
H501	H50	0.671000	0.023800	0.577000
H511	H51	0.042900	0.753600	0.454500
H521	H52	0.143200	0.798100	0.534200
H531	H53	0.068000	0.670900	0.685700
H541	H54	0.187900	0.725800	0.620800
H551	H55	0.976200	0.647200	0.577000
H561	H56	0.246400	0.289300	0.454500
H571	H57	0.201900	0.345100	0.534200
H581	H58	0.329100	0.397100	0.685700
H591	H59	0.274200	0.462100	0.620800
H601	H60	0.352800	0.329000	0.577000
C11	C1	0.273500	0.820500	0.934700
C21	C2	0.256900	0.904800	0.991400
C31	C3	0.332900	0.887200	0.137600
C41	C4	0.439400	0.879200	0.157900
C51	C5	0.547000	0.726500	0.934700
C61	C6	0.647900	0.743100	0.991400
C71	C7	0.554300	0.667100	0.137600
C81	C8	0.439800	0.560600	0.157900
C91	C9	0.179500	0.453000	0.934700
C101	C10	0.095200	0.352100	0.991400
C111	C11	0.112800	0.445700	0.137600
C121	C12	0.120800	0.560200	0.157900
C131	C13	0.453000	0.179500	0.565300
C141	C14	0.352100	0.095200	0.508600
C151	C15	0.445700	0.112800	0.362400
C161	C16	0.560200	0.120800	0.342100
C171	C17	0.820500	0.273500	0.565300
C181	C18	0.904800	0.256900	0.508600
C191	C19	0.887200	0.332900	0.362400
C201	C20	0.879200	0.439400	0.342100
C211	C21	0.726500	0.547000	0.565300
C221	C22	0.743100	0.647900	0.508600
C231	C23	0.667100	0.554300	0.362400
C241	C24	0.560600	0.439800	0.342100
C251	C25	0.726500	0.179500	0.065300
C261	C26	0.743100	0.095200	0.008600
C271	C27	0.667100	0.112800	0.862400
C281	C28	0.560600	0.120800	0.842100
C291	C29	0.453000	0.273500	0.065300
C301	C30	0.352100	0.256900	0.008600
C311	C31	0.445700	0.332900	0.862400
C321	C32	0.560200	0.439400	0.842100
C331	C33	0.820500	0.547000	0.065300
C341	C34	0.904800	0.647900	0.008600
C351	C35	0.887200	0.554300	0.862400
C361	C36	0.879200	0.439800	0.842100
C371	C37	0.547000	0.820500	0.434700
C381	C38	0.647900	0.904800	0.491400
C391	C39	0.554300	0.887200	0.637600
C401	C40	0.439800	0.879200	0.657900
C411	C41	0.179500	0.726500	0.434700
C421	C42	0.095200	0.743100	0.491400
C431	C43	0.112800	0.667100	0.637600
C441	C44	0.120800	0.560600	0.657900
C451	C45	0.273500	0.453000	0.434700
C461	C46	0.256900	0.352100	0.491400
C471	C47	0.332900	0.445700	0.637600
C481	C48	0.439400	0.560200	0.657900
N11	N1	0.349600	0.960100	0.058300
N21	N2	0.610500	0.650400	0.058300
N31	N3	0.039900	0.389500	0.058300
N41	N4	0.389500	0.039900	0.441700
N51	N5	0.960100	0.349600	0.441700
N61	N6	0.650400	0.610500	0.441700
N71	N7	0.650400	0.039900	0.941700
N81	N8	0.389500	0.349600	0.941700
N91	N9	0.960100	0.610500	0.941700
N101	N10	0.610500	0.960100	0.558300
N111	N11	0.039900	0.650400	0.558300
N121	N12	0.349600	0.389500	0.558300
O11	O1	0.199300	0.758600	0.878300
O21	O2	0.364600	0.816600	0.946300
O31	O3	0.437900	0.824000	0.225200
O41	O4	0.524700	0.928400	0.106300
O51	O5	0.559300	0.800700	0.878300
O61	O6	0.452000	0.635400	0.946300
O71	O7	0.386100	0.562100	0.225200
O81	O8	0.403700	0.475300	0.106300
O91	O9	0.241400	0.440700	0.878300
O101	O10	0.183400	0.548000	0.946300
O111	O11	0.176000	0.613900	0.225200
O121	O12	0.071600	0.596300	0.106300
O131	O13	0.440700	0.241400	0.621700
O141	O14	0.548000	0.183400	0.553700
O151	O15	0.613900	0.176000	0.274800
O161	O16	0.596300	0.071600	0.393700
O171	O17	0.758600	0.199300	0.621700
O181	O18	0.816600	0.364600	0.553700
O191	O19	0.824000	0.437900	0.274800
O201	O20	0.928400	0.524700	0.393700
O211	O21	0.800700	0.559300	0.621700
O221	O22	0.635400	0.452000	0.553700
O231	O23	0.562100	0.386100	0.274800
O241	O24	0.475300	0.403700	0.393700
O251	O25	0.800700	0.241400	0.121700
O261	O26	0.635400	0.183400	0.053700
O271	O27	0.562100	0.176000	0.774800
O281	O28	0.475300	0.071600	0.893700
O291	O29	0.440700	0.199300	0.121700
O301	O30	0.548000	0.364600	0.053700
O311	O31	0.613900	0.437900	0.774800
O321	O32	0.596300	0.524700	0.893700
O331	O33	0.758600	0.559300	0.121700
O341	O34	0.816600	0.452000	0.053700
O351	O35	0.824000	0.386100	0.774800
O361	O36	0.928400	0.403700	0.893700
O371	O37	0.559300	0.758600	0.378300
O381	O38	0.452000	0.816600	0.446300
O391	O39	0.386100	0.824000	0.725200
O401	O40	0.403700	0.928400	0.606300
O411	O41	0.241400	0.800700	0.378300
O421	O42	0.183400	0.635400	0.446300
O431	O43	0.176000	0.562100	0.725200
O441	O44	0.071600	0.475300	0.606300
O451	O45	0.199300	0.440700	0.378300
O461	O46	0.364600	0.548000	0.446300
O471	O47	0.437900	0.613900	0.725200
O481	O48	0.524700	0.596300	0.606300
