data_KOFPEB_freeONLY_PM
_symmetry_space_group_name_H-M	'P1'
_cell_length_a	13.513600
_cell_length_b	13.513600
_cell_length_c	14.795000
_cell_angle_alpha	90.000000
_cell_angle_beta	90.000000
_cell_angle_gamma	120.000000
_symmetry_Int_Tables_number 1

loop_
_symmetry_equiv_pos_as_xyz
'x,y,z'

loop_
_atom_site_label
_atom_site_type_symbol
_atom_site_fract_x
_atom_site_fract_y
_atom_site_fract_z
La11	La1	0.666670	0.333340	0.333000
La21	La2	0.333330	0.666660	0.167000
La31	La3	0.333330	0.666660	0.667000
La41	La4	0.666670	0.333340	0.833000
Cu11	Cu1	0.500000	0.000000	0.500000
Cu21	Cu2	0.500000	0.500000	0.500000
Cu31	Cu3	0.000000	0.500000	0.500000
Cu41	Cu4	0.500000	0.000000	0.000000
Cu51	Cu5	0.000000	0.500000	0.000000
Cu61	Cu6	0.500000	0.500000	0.000000
H11	H1	0.799800	0.139900	0.534800
H21	H2	0.753000	0.041900	0.455000
H31	H3	0.725100	0.188600	0.621600
H41	H4	0.670500	0.068700	0.686100
H51	H5	0.647000	0.975200	0.577500
H61	H6	0.340100	0.200200	0.534800
H71	H7	0.288900	0.247000	0.455000
H81	H8	0.463500	0.274900	0.621600
H91	H9	0.398200	0.329500	0.686100
H101	H10	0.328200	0.353000	0.577500
H111	H11	0.860100	0.659900	0.534800
H121	H12	0.958100	0.711100	0.455000
H131	H13	0.811400	0.536500	0.621600
H141	H14	0.931300	0.601800	0.686100
H151	H15	0.024800	0.671800	0.577500
H161	H16	0.659900	0.860100	0.965200
H171	H17	0.711100	0.958100	0.045000
H181	H18	0.536500	0.811400	0.878400
H191	H19	0.601800	0.931300	0.813900
H201	H20	0.671800	0.024800	0.922500
H211	H21	0.139900	0.799800	0.965200
H221	H22	0.041900	0.753000	0.045000
H231	H23	0.188600	0.725100	0.878400
H241	H24	0.068700	0.670500	0.813900
H251	H25	0.975200	0.647000	0.922500
H261	H26	0.200200	0.340100	0.965200
H271	H27	0.247000	0.288900	0.045000
H281	H28	0.274900	0.463500	0.878400
H291	H29	0.329500	0.398200	0.813900
H301	H30	0.353000	0.328200	0.922500
H311	H31	0.200200	0.860100	0.465200
H321	H32	0.247000	0.958100	0.545000
H331	H33	0.274900	0.811400	0.378400
H341	H34	0.329500	0.931300	0.313900
H351	H35	0.353000	0.024800	0.422500
H361	H36	0.659900	0.799800	0.465200
H371	H37	0.711100	0.753000	0.545000
H381	H38	0.536500	0.725100	0.378400
H391	H39	0.601800	0.670500	0.313900
H401	H40	0.671800	0.647000	0.422500
H411	H41	0.139900	0.340100	0.465200
H421	H42	0.041900	0.288900	0.545000
H431	H43	0.188600	0.463500	0.378400
H441	H44	0.068700	0.398200	0.313900
H451	H45	0.975200	0.328200	0.422500
H461	H46	0.340100	0.139900	0.034800
H471	H47	0.288900	0.041900	0.955000
H481	H48	0.463500	0.188600	0.121600
H491	H49	0.398200	0.068700	0.186100
H501	H50	0.328200	0.975200	0.077500
H511	H51	0.860100	0.200200	0.034800
H521	H52	0.958100	0.247000	0.955000
H531	H53	0.811400	0.274900	0.121600
H541	H54	0.931300	0.329500	0.186100
H551	H55	0.024800	0.353000	0.077500
H561	H56	0.799800	0.659900	0.034800
H571	H57	0.753000	0.711100	0.955000
H581	H58	0.725100	0.536500	0.121600
H591	H59	0.670500	0.601800	0.186100
H601	H60	0.647000	0.671800	0.077500
C11	C1	0.726600	0.180200	0.435300
C21	C2	0.743100	0.094700	0.491500
C31	C3	0.666100	0.112900	0.637700
C41	C4	0.559100	0.120200	0.658500
C51	C5	0.453600	0.273400	0.435300
C61	C6	0.351600	0.256900	0.491500
C71	C7	0.446800	0.333900	0.637700
C81	C8	0.561100	0.440900	0.658500
C91	C9	0.819800	0.546400	0.435300
C101	C10	0.905300	0.648400	0.491500
C111	C11	0.887100	0.553200	0.637700
C121	C12	0.879800	0.438900	0.658500
C131	C13	0.546400	0.819800	0.064700
C141	C14	0.648400	0.905300	0.008500
C151	C15	0.553200	0.887100	0.862300
C161	C16	0.438900	0.879800	0.841500
C171	C17	0.180200	0.726600	0.064700
C181	C18	0.094700	0.743100	0.008500
C191	C19	0.112900	0.666100	0.862300
C201	C20	0.120200	0.559100	0.841500
C211	C21	0.273400	0.453600	0.064700
C221	C22	0.256900	0.351600	0.008500
C231	C23	0.333900	0.446800	0.862300
C241	C24	0.440900	0.561100	0.841500
C251	C25	0.273400	0.819800	0.564700
C261	C26	0.256900	0.905300	0.508500
C271	C27	0.333900	0.887100	0.362300
C281	C28	0.440900	0.879800	0.341500
C291	C29	0.546400	0.726600	0.564700
C301	C30	0.648400	0.743100	0.508500
C311	C31	0.553200	0.666100	0.362300
C321	C32	0.438900	0.559100	0.341500
C331	C33	0.180200	0.453600	0.564700
C341	C34	0.094700	0.351600	0.508500
C351	C35	0.112900	0.446800	0.362300
C361	C36	0.120200	0.561100	0.341500
C371	C37	0.453600	0.180200	0.935300
C381	C38	0.351600	0.094700	0.991500
C391	C39	0.446800	0.112900	0.137700
C401	C40	0.561100	0.120200	0.158500
C411	C41	0.819800	0.273400	0.935300
C421	C42	0.905300	0.256900	0.991500
C431	C43	0.887100	0.333900	0.137700
C441	C44	0.879800	0.440900	0.158500
C451	C45	0.726600	0.546400	0.935300
C461	C46	0.743100	0.648400	0.991500
C471	C47	0.666100	0.553200	0.137700
C481	C48	0.559100	0.438900	0.158500
N11	N1	0.649900	0.038800	0.558900
N21	N2	0.388900	0.350100	0.558900
N31	N3	0.961200	0.611100	0.558900
N41	N4	0.611100	0.961200	0.941100
N51	N5	0.038800	0.649900	0.941100
N61	N6	0.350100	0.388900	0.941100
N71	N7	0.350100	0.961200	0.441100
N81	N8	0.611100	0.649900	0.441100
N91	N9	0.038800	0.388900	0.441100
N101	N10	0.388900	0.038800	0.058900
N111	N11	0.961200	0.350100	0.058900
N121	N12	0.649900	0.611100	0.058900
O11	O1	0.636200	0.184100	0.447300
O21	O2	0.800200	0.240600	0.378000
O31	O3	0.474500	0.070300	0.606800
O41	O4	0.562100	0.176100	0.726100
O51	O5	0.547900	0.363800	0.447300
O61	O6	0.440400	0.199800	0.378000
O71	O7	0.595800	0.525500	0.606800
O81	O8	0.614000	0.437900	0.726100
O91	O9	0.815900	0.452100	0.447300
O101	O10	0.759400	0.559600	0.378000
O111	O11	0.929700	0.404200	0.606800
O121	O12	0.823900	0.386000	0.726100
O131	O13	0.452100	0.815900	0.052700
O141	O14	0.559600	0.759400	0.122000
O151	O15	0.404200	0.929700	0.893200
O161	O16	0.386000	0.823900	0.773900
O171	O17	0.184100	0.636200	0.052700
O181	O18	0.240600	0.800200	0.122000
O191	O19	0.070300	0.474500	0.893200
O201	O20	0.176100	0.562100	0.773900
O211	O21	0.363800	0.547900	0.052700
O221	O22	0.199800	0.440400	0.122000
O231	O23	0.525500	0.595800	0.893200
O241	O24	0.437900	0.614000	0.773900
O251	O25	0.363800	0.815900	0.552700
O261	O26	0.199800	0.759400	0.622000
O271	O27	0.525500	0.929700	0.393200
O281	O28	0.437900	0.823900	0.273900
O291	O29	0.452100	0.636200	0.552700
O301	O30	0.559600	0.800200	0.622000
O311	O31	0.404200	0.474500	0.393200
O321	O32	0.386000	0.562100	0.273900
O331	O33	0.184100	0.547900	0.552700
O341	O34	0.240600	0.440400	0.622000
O351	O35	0.070300	0.595800	0.393200
O361	O36	0.176100	0.614000	0.273900
O371	O37	0.547900	0.184100	0.947300
O381	O38	0.440400	0.240600	0.878000
O391	O39	0.595800	0.070300	0.106800
O401	O40	0.614000	0.176100	0.226100
O411	O41	0.815900	0.363800	0.947300
O421	O42	0.759400	0.199800	0.878000
O431	O43	0.929700	0.525500	0.106800
O441	O44	0.823900	0.437900	0.226100
O451	O45	0.636200	0.452100	0.947300
O461	O46	0.800200	0.559600	0.878000
O471	O47	0.474500	0.404200	0.106800
O481	O48	0.562100	0.386000	0.226100
