data_KOHDIW_freeONLY_PM
_symmetry_space_group_name_H-M	'P1'
_cell_length_a	22.702200
_cell_length_b	14.565600
_cell_length_c	28.264700
_cell_angle_alpha	90.000000
_cell_angle_beta	90.000000
_cell_angle_gamma	90.000000
_symmetry_Int_Tables_number 1

loop_
_symmetry_equiv_pos_as_xyz
'x,y,z'

loop_
_atom_site_label
_atom_site_type_symbol
_atom_site_fract_x
_atom_site_fract_y
_atom_site_fract_z
C11	C1	0.757900	0.989900	0.059670
C21	C2	0.710300	0.982200	0.022010
C31	C3	0.673900	0.912400	0.020250
H11	H1	0.677400	0.864200	0.041700
C41	C4	0.629400	0.911100	0.985500
H21	H2	0.602000	0.863800	0.987400
C51	C5	0.622900	0.969100	0.951330
C61	C6	0.665800	0.030800	0.949200
H31	H3	0.667200	0.069900	0.923200
C71	C7	0.708600	0.039500	0.983900
H41	H4	0.736700	0.085500	0.981100
C81	C8	0.409900	0.619700	0.934120
C91	C9	0.447490	0.702100	0.926760
C101	C10	0.476600	0.713800	0.885570
H51	H5	0.473100	0.670300	0.861600
C111	C11	0.512000	0.791600	0.878960
H61	H6	0.531200	0.798700	0.850100
C121	C12	0.519950	0.858300	0.913080
C131	C13	0.487600	0.842300	0.954040
H71	H7	0.489800	0.885600	0.978200
C141	C14	0.452600	0.766200	0.960960
H81	H8	0.432500	0.758900	0.989400
C151	C15	0.683200	0.924800	0.707630
C161	C16	0.656200	0.936500	0.756250
C171	C17	0.676200	0.891000	0.794870
H91	H9	0.708300	0.852100	0.791500
C181	C18	0.651300	0.899700	0.838290
H101	H10	0.667000	0.866600	0.863400
C191	C19	0.603970	0.955300	0.846330
C201	C20	0.585800	0.005800	0.807160
H111	H11	0.554500	0.046500	0.810500
C211	C21	0.612400	0.997300	0.763940
H121	H12	0.599900	0.034500	0.739200
C221	C22	0.398300	0.296200	0.895450
C231	C23	0.439430	0.217200	0.898800
C241	C24	0.421100	0.130800	0.888200
H131	H13	0.382300	0.122100	0.878500
C251	C25	0.458000	0.055100	0.891400
H141	H14	0.442900	0.997200	0.884700
C261	C26	0.515780	0.063300	0.904100
C271	C27	0.533100	0.149800	0.913800
H151	H15	0.572000	0.159000	0.923100
C281	C28	0.495500	0.227600	0.910700
H161	H16	0.510300	0.285900	0.917100
Co11	Co1	0.851200	0.039020	0.107880
O11	O1	0.757400	0.934600	0.093350
O21	O2	0.794840	0.051300	0.054540
O31	O3	0.395300	0.598300	0.974500
O41	O4	0.394520	0.578100	0.897580
O51	O5	0.723870	0.870300	0.702710
O61	O6	0.659130	0.969300	0.675360
O71	O7	0.346420	0.285200	0.886410
O81	O8	0.418920	0.373100	0.904550
Si11	Si1	0.565830	0.962280	0.904380
C291	C29	0.742100	0.010100	0.559670
C301	C30	0.789700	0.017800	0.522010
C311	C31	0.826100	0.087600	0.520250
H171	H17	0.822600	0.135800	0.541700
C321	C32	0.870600	0.088900	0.485500
H181	H18	0.898000	0.136200	0.487400
C331	C33	0.877100	0.030900	0.451330
C341	C34	0.834200	0.969200	0.449200
H191	H19	0.832800	0.930100	0.423200
C351	C35	0.791400	0.960500	0.483900
H201	H20	0.763300	0.914500	0.481100
C361	C36	0.090100	0.380300	0.434120
C371	C37	0.052510	0.297900	0.426760
C381	C38	0.023400	0.286200	0.385570
H211	H21	0.026900	0.329700	0.361600
C391	C39	0.988000	0.208400	0.378960
H221	H22	0.968800	0.201300	0.350100
C401	C40	0.980050	0.141700	0.413080
C411	C41	0.012400	0.157700	0.454040
H231	H23	0.010200	0.114400	0.478200
C421	C42	0.047400	0.233800	0.460960
H241	H24	0.067500	0.241100	0.489400
C431	C43	0.816800	0.075200	0.207630
C441	C44	0.843800	0.063500	0.256250
C451	C45	0.823800	0.109000	0.294870
H251	H25	0.791700	0.147900	0.291500
C461	C46	0.848700	0.100300	0.338290
H261	H26	0.833000	0.133400	0.363400
C471	C47	0.896030	0.044700	0.346330
C481	C48	0.914200	0.994200	0.307160
H271	H27	0.945500	0.953500	0.310500
C491	C49	0.887600	0.002700	0.263940
H281	H28	0.900100	0.965500	0.239200
C501	C50	0.101700	0.703800	0.395450
C511	C51	0.060570	0.782800	0.398800
C521	C52	0.078900	0.869200	0.388200
H291	H29	0.117700	0.877900	0.378500
C531	C53	0.042000	0.944900	0.391400
H301	H30	0.057100	0.002800	0.384700
C541	C54	0.984220	0.936700	0.404100
C551	C55	0.966900	0.850200	0.413800
H311	H31	0.928000	0.841000	0.423100
C561	C56	0.004500	0.772400	0.410700
H321	H32	0.989700	0.714100	0.417100
Co21	Co2	0.648800	0.960980	0.607880
O91	O9	0.742600	0.065400	0.593350
O101	O10	0.705160	0.948700	0.554540
O111	O11	0.104700	0.401700	0.474500
O121	O12	0.105480	0.421900	0.397580
O131	O13	0.776130	0.129700	0.202710
O141	O14	0.840870	0.030700	0.175360
O151	O15	0.153580	0.714800	0.386410
O161	O16	0.081080	0.626900	0.404550
Si21	Si2	0.934170	0.037720	0.404380
C571	C57	0.242100	0.489900	0.440330
C581	C58	0.289700	0.482200	0.477990
C591	C59	0.326100	0.412400	0.479750
H331	H33	0.322600	0.364200	0.458300
C601	C60	0.370600	0.411100	0.514500
H341	H34	0.398000	0.363800	0.512600
C611	C61	0.377100	0.469100	0.548670
C621	C62	0.334200	0.530800	0.550800
H351	H35	0.332800	0.569900	0.576800
C631	C63	0.291400	0.539500	0.516100
H361	H36	0.263300	0.585500	0.518900
C641	C64	0.590100	0.119700	0.565880
C651	C65	0.552510	0.202100	0.573240
C661	C66	0.523400	0.213800	0.614430
H371	H37	0.526900	0.170300	0.638400
C671	C67	0.488000	0.291600	0.621040
H381	H38	0.468800	0.298700	0.649900
C681	C68	0.480050	0.358300	0.586920
C691	C69	0.512400	0.342300	0.545960
H391	H39	0.510200	0.385600	0.521800
C701	C70	0.547400	0.266200	0.539040
H401	H40	0.567500	0.258900	0.510600
C711	C71	0.316800	0.424800	0.792370
C721	C72	0.343800	0.436500	0.743750
C731	C73	0.323800	0.391000	0.705130
H411	H41	0.291700	0.352100	0.708500
C741	C74	0.348700	0.399700	0.661710
H421	H42	0.333000	0.366600	0.636600
C751	C75	0.396030	0.455300	0.653670
C761	C76	0.414200	0.505800	0.692840
H431	H43	0.445500	0.546500	0.689500
C771	C77	0.387600	0.497300	0.736060
H441	H44	0.400100	0.534500	0.760800
C781	C78	0.601700	0.796200	0.604550
C791	C79	0.560570	0.717200	0.601200
C801	C80	0.578900	0.630800	0.611800
H451	H45	0.617700	0.622100	0.621500
C811	C81	0.542000	0.555100	0.608600
H461	H46	0.557100	0.497200	0.615300
C821	C82	0.484220	0.563300	0.595900
C831	C83	0.466900	0.649800	0.586200
H471	H47	0.428000	0.659000	0.576900
C841	C84	0.504500	0.727600	0.589300
H481	H48	0.489700	0.785900	0.582900
Co31	Co3	0.148800	0.539020	0.392120
O171	O17	0.242600	0.434600	0.406650
O181	O18	0.205160	0.551300	0.445460
O191	O19	0.604700	0.098300	0.525500
O201	O20	0.605480	0.078100	0.602420
O211	O21	0.276130	0.370300	0.797290
O221	O22	0.340870	0.469300	0.824640
O231	O23	0.653580	0.785200	0.613590
O241	O24	0.581080	0.873100	0.595450
Si31	Si3	0.434170	0.462280	0.595620
C851	C85	0.257900	0.510100	0.940330
C861	C86	0.210300	0.517800	0.977990
C871	C87	0.173900	0.587600	0.979750
H491	H49	0.177400	0.635800	0.958300
C881	C88	0.129400	0.588900	0.014500
H501	H50	0.102000	0.636200	0.012600
C891	C89	0.122900	0.530900	0.048670
C901	C90	0.165800	0.469200	0.050800
H511	H51	0.167200	0.430100	0.076800
C911	C91	0.208600	0.460500	0.016100
H521	H52	0.236700	0.414500	0.018900
C921	C92	0.909900	0.880300	0.065880
C931	C93	0.947490	0.797900	0.073240
C941	C94	0.976600	0.786200	0.114430
H531	H53	0.973100	0.829700	0.138400
C951	C95	0.012000	0.708400	0.121040
H541	H54	0.031200	0.701300	0.149900
C961	C96	0.019950	0.641700	0.086920
C971	C97	0.987600	0.657700	0.045960
H551	H55	0.989800	0.614400	0.021800
C981	C98	0.952600	0.733800	0.039040
H561	H56	0.932500	0.741100	0.010600
C991	C99	0.183200	0.575200	0.292370
C1001	C100	0.156200	0.563500	0.243750
C1011	C101	0.176200	0.609000	0.205130
H571	H57	0.208300	0.647900	0.208500
C1021	C102	0.151300	0.600300	0.161710
H581	H58	0.167000	0.633400	0.136600
C1031	C103	0.103970	0.544700	0.153670
C1041	C104	0.085800	0.494200	0.192840
H591	H59	0.054500	0.453500	0.189500
C1051	C105	0.112400	0.502700	0.236060
H601	H60	0.099900	0.465500	0.260800
C1061	C106	0.898300	0.203800	0.104550
C1071	C107	0.939430	0.282800	0.101200
C1081	C108	0.921100	0.369200	0.111800
H611	H61	0.882300	0.377900	0.121500
C1091	C109	0.958000	0.444900	0.108600
H621	H62	0.942900	0.502800	0.115300
C1101	C110	0.015780	0.436700	0.095900
C1111	C111	0.033100	0.350200	0.086200
H631	H63	0.072000	0.341000	0.076900
C1121	C112	0.995500	0.272400	0.089300
H641	H64	0.010300	0.214100	0.082900
Co41	Co4	0.351200	0.460980	0.892120
O251	O25	0.257400	0.565400	0.906650
O261	O26	0.294840	0.448700	0.945460
O271	O27	0.895300	0.901700	0.025500
O281	O28	0.894520	0.921900	0.102420
O291	O29	0.223870	0.629700	0.297290
O301	O30	0.159130	0.530700	0.324640
O311	O31	0.846420	0.214800	0.113590
O321	O32	0.918920	0.126900	0.095450
Si41	Si4	0.065830	0.537720	0.095620
C1131	C113	0.242100	0.010100	0.940330
C1141	C114	0.289700	0.017800	0.977990
C1151	C115	0.326100	0.087600	0.979750
H651	H65	0.322600	0.135800	0.958300
C1161	C116	0.370600	0.088900	0.014500
H661	H66	0.398000	0.136200	0.012600
C1171	C117	0.377100	0.030900	0.048670
C1181	C118	0.334200	0.969200	0.050800
H671	H67	0.332800	0.930100	0.076800
C1191	C119	0.291400	0.960500	0.016100
H681	H68	0.263300	0.914500	0.018900
C1201	C120	0.590100	0.380300	0.065880
C1211	C121	0.552510	0.297900	0.073240
C1221	C122	0.523400	0.286200	0.114430
H691	H69	0.526900	0.329700	0.138400
C1231	C123	0.488000	0.208400	0.121040
H701	H70	0.468800	0.201300	0.149900
C1241	C124	0.480050	0.141700	0.086920
C1251	C125	0.512400	0.157700	0.045960
H711	H71	0.510200	0.114400	0.021800
C1261	C126	0.547400	0.233800	0.039040
H721	H72	0.567500	0.241100	0.010600
C1271	C127	0.316800	0.075200	0.292370
C1281	C128	0.343800	0.063500	0.243750
C1291	C129	0.323800	0.109000	0.205130
H731	H73	0.291700	0.147900	0.208500
C1301	C130	0.348700	0.100300	0.161710
H741	H74	0.333000	0.133400	0.136600
C1311	C131	0.396030	0.044700	0.153670
C1321	C132	0.414200	0.994200	0.192840
H751	H75	0.445500	0.953500	0.189500
C1331	C133	0.387600	0.002700	0.236060
H761	H76	0.400100	0.965500	0.260800
C1341	C134	0.601700	0.703800	0.104550
C1351	C135	0.560570	0.782800	0.101200
C1361	C136	0.578900	0.869200	0.111800
H771	H77	0.617700	0.877900	0.121500
C1371	C137	0.542000	0.944900	0.108600
H781	H78	0.557100	0.002800	0.115300
C1381	C138	0.484220	0.936700	0.095900
C1391	C139	0.466900	0.850200	0.086200
H791	H79	0.428000	0.841000	0.076900
C1401	C140	0.504500	0.772400	0.089300
H801	H80	0.489700	0.714100	0.082900
Co51	Co5	0.148800	0.960980	0.892120
O331	O33	0.242600	0.065400	0.906650
O341	O34	0.205160	0.948700	0.945460
O351	O35	0.604700	0.401700	0.025500
O361	O36	0.605480	0.421900	0.102420
O371	O37	0.276130	0.129700	0.297290
O381	O38	0.340870	0.030700	0.324640
O391	O39	0.653580	0.714800	0.113590
O401	O40	0.581080	0.626900	0.095450
Si51	Si5	0.434170	0.037720	0.095620
C1411	C141	0.257900	0.989900	0.440330
C1421	C142	0.210300	0.982200	0.477990
C1431	C143	0.173900	0.912400	0.479750
H811	H81	0.177400	0.864200	0.458300
C1441	C144	0.129400	0.911100	0.514500
H821	H82	0.102000	0.863800	0.512600
C1451	C145	0.122900	0.969100	0.548670
C1461	C146	0.165800	0.030800	0.550800
H831	H83	0.167200	0.069900	0.576800
C1471	C147	0.208600	0.039500	0.516100
H841	H84	0.236700	0.085500	0.518900
C1481	C148	0.909900	0.619700	0.565880
C1491	C149	0.947490	0.702100	0.573240
C1501	C150	0.976600	0.713800	0.614430
H851	H85	0.973100	0.670300	0.638400
C1511	C151	0.012000	0.791600	0.621040
H861	H86	0.031200	0.798700	0.649900
C1521	C152	0.019950	0.858300	0.586920
C1531	C153	0.987600	0.842300	0.545960
H871	H87	0.989800	0.885600	0.521800
C1541	C154	0.952600	0.766200	0.539040
H881	H88	0.932500	0.758900	0.510600
C1551	C155	0.183200	0.924800	0.792370
C1561	C156	0.156200	0.936500	0.743750
C1571	C157	0.176200	0.891000	0.705130
H891	H89	0.208300	0.852100	0.708500
C1581	C158	0.151300	0.899700	0.661710
H901	H90	0.167000	0.866600	0.636600
C1591	C159	0.103970	0.955300	0.653670
C1601	C160	0.085800	0.005800	0.692840
H911	H91	0.054500	0.046500	0.689500
C1611	C161	0.112400	0.997300	0.736060
H921	H92	0.099900	0.034500	0.760800
C1621	C162	0.898300	0.296200	0.604550
C1631	C163	0.939430	0.217200	0.601200
C1641	C164	0.921100	0.130800	0.611800
H931	H93	0.882300	0.122100	0.621500
C1651	C165	0.958000	0.055100	0.608600
H941	H94	0.942900	0.997200	0.615300
C1661	C166	0.015780	0.063300	0.595900
C1671	C167	0.033100	0.149800	0.586200
H951	H95	0.072000	0.159000	0.576900
C1681	C168	0.995500	0.227600	0.589300
H961	H96	0.010300	0.285900	0.582900
Co61	Co6	0.351200	0.039020	0.392120
O411	O41	0.257400	0.934600	0.406650
O421	O42	0.294840	0.051300	0.445460
O431	O43	0.895300	0.598300	0.525500
O441	O44	0.894520	0.578100	0.602420
O451	O45	0.223870	0.870300	0.797290
O461	O46	0.159130	0.969300	0.824640
O471	O47	0.846420	0.285200	0.613590
O481	O48	0.918920	0.373100	0.595450
Si61	Si6	0.065830	0.962280	0.595620
C1691	C169	0.757900	0.510100	0.559670
C1701	C170	0.710300	0.517800	0.522010
C1711	C171	0.673900	0.587600	0.520250
H971	H97	0.677400	0.635800	0.541700
C1721	C172	0.629400	0.588900	0.485500
H981	H98	0.602000	0.636200	0.487400
C1731	C173	0.622900	0.530900	0.451330
C1741	C174	0.665800	0.469200	0.449200
H991	H99	0.667200	0.430100	0.423200
C1751	C175	0.708600	0.460500	0.483900
H1001	H100	0.736700	0.414500	0.481100
C1761	C176	0.409900	0.880300	0.434120
C1771	C177	0.447490	0.797900	0.426760
C1781	C178	0.476600	0.786200	0.385570
H1011	H101	0.473100	0.829700	0.361600
C1791	C179	0.512000	0.708400	0.378960
H1021	H102	0.531200	0.701300	0.350100
C1801	C180	0.519950	0.641700	0.413080
C1811	C181	0.487600	0.657700	0.454040
H1031	H103	0.489800	0.614400	0.478200
C1821	C182	0.452600	0.733800	0.460960
H1041	H104	0.432500	0.741100	0.489400
C1831	C183	0.683200	0.575200	0.207630
C1841	C184	0.656200	0.563500	0.256250
C1851	C185	0.676200	0.609000	0.294870
H1051	H105	0.708300	0.647900	0.291500
C1861	C186	0.651300	0.600300	0.338290
H1061	H106	0.667000	0.633400	0.363400
C1871	C187	0.603970	0.544700	0.346330
C1881	C188	0.585800	0.494200	0.307160
H1071	H107	0.554500	0.453500	0.310500
C1891	C189	0.612400	0.502700	0.263940
H1081	H108	0.599900	0.465500	0.239200
C1901	C190	0.398300	0.203800	0.395450
C1911	C191	0.439430	0.282800	0.398800
C1921	C192	0.421100	0.369200	0.388200
H1091	H109	0.382300	0.377900	0.378500
C1931	C193	0.458000	0.444900	0.391400
H1101	H110	0.442900	0.502800	0.384700
C1941	C194	0.515780	0.436700	0.404100
C1951	C195	0.533100	0.350200	0.413800
H1111	H111	0.572000	0.341000	0.423100
C1961	C196	0.495500	0.272400	0.410700
H1121	H112	0.510300	0.214100	0.417100
Co71	Co7	0.851200	0.460980	0.607880
O491	O49	0.757400	0.565400	0.593350
O501	O50	0.794840	0.448700	0.554540
O511	O51	0.395300	0.901700	0.474500
O521	O52	0.394520	0.921900	0.397580
O531	O53	0.723870	0.629700	0.202710
O541	O54	0.659130	0.530700	0.175360
O551	O55	0.346420	0.214800	0.386410
O561	O56	0.418920	0.126900	0.404550
Si71	Si7	0.565830	0.537720	0.404380
C1971	C197	0.742100	0.489900	0.059670
C1981	C198	0.789700	0.482200	0.022010
C1991	C199	0.826100	0.412400	0.020250
H1131	H113	0.822600	0.364200	0.041700
C2001	C200	0.870600	0.411100	0.985500
H1141	H114	0.898000	0.363800	0.987400
C2011	C201	0.877100	0.469100	0.951330
C2021	C202	0.834200	0.530800	0.949200
H1151	H115	0.832800	0.569900	0.923200
C2031	C203	0.791400	0.539500	0.983900
H1161	H116	0.763300	0.585500	0.981100
C2041	C204	0.090100	0.119700	0.934120
C2051	C205	0.052510	0.202100	0.926760
C2061	C206	0.023400	0.213800	0.885570
H1171	H117	0.026900	0.170300	0.861600
C2071	C207	0.988000	0.291600	0.878960
H1181	H118	0.968800	0.298700	0.850100
C2081	C208	0.980050	0.358300	0.913080
C2091	C209	0.012400	0.342300	0.954040
H1191	H119	0.010200	0.385600	0.978200
C2101	C210	0.047400	0.266200	0.960960
H1201	H120	0.067500	0.258900	0.989400
C2111	C211	0.816800	0.424800	0.707630
C2121	C212	0.843800	0.436500	0.756250
C2131	C213	0.823800	0.391000	0.794870
H1211	H121	0.791700	0.352100	0.791500
C2141	C214	0.848700	0.399700	0.838290
H1221	H122	0.833000	0.366600	0.863400
C2151	C215	0.896030	0.455300	0.846330
C2161	C216	0.914200	0.505800	0.807160
H1231	H123	0.945500	0.546500	0.810500
C2171	C217	0.887600	0.497300	0.763940
H1241	H124	0.900100	0.534500	0.739200
C2181	C218	0.101700	0.796200	0.895450
C2191	C219	0.060570	0.717200	0.898800
C2201	C220	0.078900	0.630800	0.888200
H1251	H125	0.117700	0.622100	0.878500
C2211	C221	0.042000	0.555100	0.891400
H1261	H126	0.057100	0.497200	0.884700
C2221	C222	0.984220	0.563300	0.904100
C2231	C223	0.966900	0.649800	0.913800
H1271	H127	0.928000	0.659000	0.923100
C2241	C224	0.004500	0.727600	0.910700
H1281	H128	0.989700	0.785900	0.917100
Co81	Co8	0.648800	0.539020	0.107880
O571	O57	0.742600	0.434600	0.093350
O581	O58	0.705160	0.551300	0.054540
O591	O59	0.104700	0.098300	0.974500
O601	O60	0.105480	0.078100	0.897580
O611	O61	0.776130	0.370300	0.702710
O621	O62	0.840870	0.469300	0.675360
O631	O63	0.153580	0.785200	0.886410
O641	O64	0.081080	0.873100	0.904550
Si81	Si8	0.934170	0.462280	0.904380
