data_KOMGUP_freeONLY_PM
_symmetry_space_group_name_H-M	'P1'
_cell_length_a	9.353100
_cell_length_b	9.805500
_cell_length_c	16.194100
_cell_angle_alpha	90.000000
_cell_angle_beta	90.000000
_cell_angle_gamma	90.000000
_symmetry_Int_Tables_number 1

loop_
_symmetry_equiv_pos_as_xyz
'x,y,z'

loop_
_atom_site_label
_atom_site_type_symbol
_atom_site_fract_x
_atom_site_fract_y
_atom_site_fract_z
Zn11	Zn1	0.940500	0.120020	0.582340
Zn21	Zn2	0.440500	0.379980	0.417660
Zn31	Zn3	0.059500	0.879980	0.082340
Zn41	Zn4	0.559500	0.620020	0.917660
Zn51	Zn5	0.059500	0.879980	0.417660
Zn61	Zn6	0.559500	0.620020	0.582340
Zn71	Zn7	0.940500	0.120020	0.917660
Zn81	Zn8	0.440500	0.379980	0.082340
H11	H1	0.670400	0.021300	0.664800
H21	H2	0.581200	0.895600	0.668300
H31	H3	0.827400	0.670800	0.468100
H41	H4	0.170400	0.478700	0.335200
H51	H5	0.081200	0.604400	0.331700
H61	H6	0.327400	0.829200	0.531900
H71	H7	0.329600	0.978700	0.164800
H81	H8	0.418800	0.104400	0.168300
H91	H9	0.172600	0.329200	0.968100
H101	H10	0.829600	0.521300	0.835200
H111	H11	0.918800	0.395600	0.831700
H121	H12	0.672600	0.170800	0.031900
H131	H13	0.329600	0.978700	0.335200
H141	H14	0.418800	0.104400	0.331700
H151	H15	0.172600	0.329200	0.531900
H161	H16	0.829600	0.521300	0.664800
H171	H17	0.918800	0.395600	0.668300
H181	H18	0.672600	0.170800	0.468100
H191	H19	0.670400	0.021300	0.835200
H201	H20	0.581200	0.895600	0.831700
H211	H21	0.827400	0.670800	0.031900
H221	H22	0.170400	0.478700	0.164800
H231	H23	0.081200	0.604400	0.168300
H241	H24	0.327400	0.829200	0.968100
C11	C1	0.740300	0.879000	0.593200
C21	C2	0.817600	0.745800	0.502800
C31	C3	0.240300	0.621000	0.406800
C41	C4	0.317600	0.754200	0.497200
C51	C5	0.259700	0.121000	0.093200
C61	C6	0.182400	0.254200	0.002800
C71	C7	0.759700	0.379000	0.906800
C81	C8	0.682400	0.245800	0.997200
C91	C9	0.259700	0.121000	0.406800
C101	C10	0.182400	0.254200	0.497200
C111	C11	0.759700	0.379000	0.593200
C121	C12	0.682400	0.245800	0.502800
C131	C13	0.740300	0.879000	0.906800
C141	C14	0.817600	0.745800	0.997200
C151	C15	0.240300	0.621000	0.093200
C161	C16	0.317600	0.754200	0.002800
C171	C17	0.975300	0.140400	0.750000
C181	C18	0.475300	0.359600	0.250000
C191	C19	0.024700	0.859600	0.250000
C201	C20	0.524700	0.640400	0.750000
N11	N1	0.854500	0.939100	0.559800
N21	N2	0.902400	0.848700	0.501100
N31	N3	0.713700	0.757200	0.559200
N41	N4	0.653400	0.939200	0.648800
N51	N5	0.354500	0.560900	0.440200
N61	N6	0.402400	0.651300	0.498900
N71	N7	0.213700	0.742800	0.440800
N81	N8	0.153400	0.560800	0.351200
N91	N9	0.145500	0.060900	0.059800
N101	N10	0.097600	0.151300	0.001100
N111	N11	0.286300	0.242800	0.059200
N121	N12	0.346600	0.060800	0.148800
N131	N13	0.645500	0.439100	0.940200
N141	N14	0.597600	0.348700	0.998900
N151	N15	0.786300	0.257200	0.940800
N161	N16	0.846600	0.439200	0.851200
N171	N17	0.145500	0.060900	0.440200
N181	N18	0.097600	0.151300	0.498900
N191	N19	0.286300	0.242800	0.440800
N201	N20	0.346600	0.060800	0.351200
N211	N21	0.645500	0.439100	0.559800
N221	N22	0.597600	0.348700	0.501100
N231	N23	0.786300	0.257200	0.559200
N241	N24	0.846600	0.439200	0.648800
N251	N25	0.854500	0.939100	0.940200
N261	N26	0.902400	0.848700	0.998900
N271	N27	0.713700	0.757200	0.940800
N281	N28	0.653400	0.939200	0.851200
N291	N29	0.354500	0.560900	0.059800
N301	N30	0.402400	0.651300	0.001100
N311	N31	0.213700	0.742800	0.059200
N321	N32	0.153400	0.560800	0.148800
O11	O1	0.041800	0.162200	0.682000
O21	O2	0.541800	0.337800	0.318000
O31	O3	0.958200	0.837800	0.182000
O41	O4	0.458200	0.662200	0.818000
O51	O5	0.958200	0.837800	0.318000
O61	O6	0.458200	0.662200	0.682000
O71	O7	0.041800	0.162200	0.818000
O81	O8	0.541800	0.337800	0.182000
O91	O9	0.849800	0.109900	0.750000
O101	O10	0.349800	0.390100	0.250000
O111	O11	0.150200	0.890100	0.250000
O121	O12	0.650200	0.609900	0.750000
