data_KOQLUZ_freeONLY_PM
_symmetry_space_group_name_H-M	'P1'
_cell_length_a	10.601000
_cell_length_b	13.456400
_cell_length_c	20.038000
_cell_angle_alpha	98.638600
_cell_angle_beta	90.000000
_cell_angle_gamma	113.197000
_symmetry_Int_Tables_number 1

loop_
_symmetry_equiv_pos_as_xyz
'x,y,z'

loop_
_atom_site_label
_atom_site_type_symbol
_atom_site_fract_x
_atom_site_fract_y
_atom_site_fract_z
Cu11	Cu1	0.000000	0.000000	0.000000
Cu21	Cu2	0.000000	0.000000	0.500000
Si11	Si1	0.502100	0.000000	0.250000
Si21	Si2	0.497900	0.000000	0.750000
H11	H1	0.460500	0.366200	0.567100
H21	H2	0.290600	0.197000	0.518400
H31	H3	0.905700	0.366200	0.067100
H41	H4	0.906400	0.197000	0.018400
H51	H5	0.346400	0.475200	0.411900
H61	H6	0.766400	0.643400	0.076200
H71	H7	0.952600	0.178000	0.431600
H81	H8	0.123000	0.356600	0.423800
H91	H9	0.877000	0.643400	0.576200
H101	H10	0.093600	0.803000	0.981600
H111	H11	0.774600	0.822000	0.068400
H121	H12	0.094300	0.633800	0.932900
H131	H13	0.047400	0.822000	0.568400
H141	H14	0.709400	0.803000	0.481600
H151	H15	0.233600	0.356600	0.923800
H161	H16	0.539500	0.633800	0.432900
H171	H17	0.128800	0.475200	0.911900
H181	H18	0.871200	0.524800	0.088100
H191	H19	0.225400	0.178000	0.931600
H201	H20	0.653600	0.524800	0.588100
W11	W1	0.766000	0.048800	0.136690
W21	W2	0.166500	0.793280	0.710550
W31	W3	0.393230	0.763020	0.328230
W41	W4	0.244850	0.970720	0.367700
W51	W5	0.717200	0.951200	0.363310
W61	W6	0.234000	0.951200	0.863310
W71	W7	0.274130	0.029280	0.132300
W81	W8	0.627290	0.796640	0.698720
W91	W9	0.833500	0.206720	0.289450
W101	W10	0.630210	0.236980	0.171770
W111	W11	0.755150	0.029280	0.632300
W121	W12	0.373220	0.206720	0.789450
W131	W13	0.725870	0.970720	0.867700
W141	W14	0.626780	0.793280	0.210550
W151	W15	0.588190	0.153640	0.914770
W161	W16	0.372710	0.203360	0.301280
W171	W17	0.565450	0.153640	0.414770
W181	W18	0.411810	0.846360	0.085230
W191	W19	0.369790	0.763020	0.828230
W201	W20	0.830650	0.203360	0.801280
W211	W21	0.606770	0.236980	0.671770
W221	W22	0.169350	0.796640	0.198720
W231	W23	0.434550	0.846360	0.585230
W241	W24	0.282800	0.048800	0.636690
C11	C1	0.838400	0.794800	0.051300
C21	C2	0.591000	0.514200	0.552500
C31	C3	0.227200	0.215000	0.496400
C41	C4	0.021200	0.405200	0.987200
C51	C5	0.987800	0.215000	0.996400
C61	C6	0.772800	0.785000	0.503600
C71	C7	0.135900	0.303400	0.444300
C81	C8	0.056600	0.580000	0.959800
C91	C9	0.523400	0.580000	0.459800
C101	C10	0.923200	0.514200	0.052500
C111	C11	0.476600	0.420000	0.540200
C121	C12	0.167500	0.303400	0.944300
C131	C13	0.616000	0.594800	0.512800
C141	C14	0.832500	0.696600	0.055700
C151	C15	0.943400	0.420000	0.040200
C161	C16	0.978800	0.594800	0.012800
C171	C17	0.161600	0.205200	0.948700
C181	C18	0.012200	0.785000	0.003600
C191	C19	0.409000	0.485800	0.447500
C201	C20	0.384000	0.405200	0.487200
C211	C21	0.956400	0.794800	0.551300
C221	C22	0.864100	0.696600	0.555700
C231	C23	0.043600	0.205200	0.448700
C241	C24	0.076800	0.485800	0.947500
N11	N1	0.049600	0.148000	0.981600
N21	N2	0.742100	0.688400	0.523300
N31	N3	0.946300	0.688400	0.023300
N41	N4	0.901600	0.852000	0.518400
N51	N5	0.257900	0.311600	0.476700
N61	N6	0.098400	0.148000	0.481600
N71	N7	0.950400	0.852000	0.018400
N81	N8	0.053700	0.311600	0.976700
O11	O1	0.442800	0.059800	0.311800
O21	O2	0.633300	0.090400	0.222500
O31	O3	0.717400	0.221200	0.358100
O41	O4	0.491200	0.703400	0.262300
O51	O5	0.232200	0.098000	0.346700
O61	O6	0.439100	0.172800	0.615600
O71	O7	0.342000	0.646400	0.858900
O81	O8	0.257400	0.072800	0.822700
O91	O9	0.688500	0.700200	0.175900
O101	O10	0.675100	0.136200	0.629300
O111	O11	0.184600	0.927200	0.677300
O121	O12	0.134200	0.902000	0.153300
O131	O13	0.627600	0.039800	0.408200
O141	O14	0.542900	0.909600	0.277500
O151	O15	0.557200	0.940200	0.688200
O161	O16	0.252500	0.147000	0.706500
O171	O17	0.383000	0.940200	0.188200
O181	O18	0.721900	0.890000	0.782000
O191	O19	0.815400	0.072800	0.322700
O201	O20	0.612600	0.936200	0.562700
O211	O21	0.733700	0.172800	0.115600
O221	O22	0.695600	0.353600	0.641100
O231	O23	0.106500	0.926000	0.418100
O241	O24	0.236900	0.752200	0.116900
O251	O25	0.372400	0.960200	0.591800
O261	O26	0.874600	0.036600	0.073900
O271	O27	0.311500	0.299800	0.824100
O281	O28	0.747500	0.853000	0.293500
O291	O29	0.125400	0.963400	0.926100
O301	O30	0.894500	0.147000	0.206500
O311	O31	0.168100	0.890000	0.282000
O321	O32	0.767800	0.902000	0.653300
O331	O33	0.819500	0.926000	0.918100
O341	O34	0.461100	0.136200	0.129300
O351	O35	0.011700	0.700200	0.675900
O361	O36	0.180500	0.074000	0.081900
O371	O37	0.324900	0.863800	0.370700
O381	O38	0.366100	0.772400	0.508100
O391	O39	0.278100	0.110000	0.218000
O401	O40	0.162000	0.036600	0.573900
O411	O41	0.617000	0.059800	0.811800
O421	O42	0.726800	0.253600	0.748800
O431	O43	0.273200	0.746400	0.251200
O441	O44	0.282600	0.778800	0.641900
O451	O45	0.508800	0.296600	0.737700
O461	O46	0.412200	0.039800	0.908200
O471	O47	0.593700	0.227600	0.991900
O481	O48	0.366700	0.909600	0.777500
O491	O49	0.587800	0.960200	0.091800
O501	O50	0.503800	0.221200	0.858100
O511	O51	0.988300	0.299800	0.324100
O521	O52	0.484700	0.247800	0.383100
O531	O53	0.865800	0.098000	0.846700
O541	O54	0.676400	0.063800	0.937300
O551	O55	0.560900	0.827200	0.384400
O561	O56	0.763100	0.247800	0.883100
O571	O57	0.304400	0.646400	0.358900
O581	O58	0.742600	0.927200	0.177300
O591	O59	0.633900	0.227600	0.491900
O601	O60	0.538900	0.863800	0.870700
O611	O61	0.496200	0.778800	0.141900
O621	O62	0.323600	0.936200	0.062700
O631	O63	0.526800	0.253600	0.248800
O641	O64	0.515300	0.752200	0.616900
O651	O65	0.658000	0.353600	0.141100
O661	O66	0.266300	0.827200	0.884400
O671	O67	0.212200	0.703400	0.762300
O681	O68	0.473200	0.746400	0.751200
O691	O69	0.387400	0.063800	0.437300
O701	O70	0.787800	0.296600	0.237700
O711	O71	0.406300	0.772400	0.008100
O721	O72	0.105500	0.853000	0.793500
O731	O73	0.686100	0.693400	0.692600
O741	O74	0.992700	0.306600	0.807400
O751	O75	0.007300	0.693400	0.192600
O761	O76	0.831900	0.110000	0.718000
O771	O77	0.313900	0.306600	0.307400
O781	O78	0.838000	0.963400	0.426100
O791	O79	0.457100	0.090400	0.722500
O801	O80	0.893500	0.074000	0.581900
