data_KORMOV_freeONLY_PM
_symmetry_space_group_name_H-M	'P1'
_cell_length_a	6.121000
_cell_length_b	10.781000
_cell_length_c	13.987000
_cell_angle_alpha	98.901000
_cell_angle_beta	96.715000
_cell_angle_gamma	103.861000
_symmetry_Int_Tables_number 1

loop_
_symmetry_equiv_pos_as_xyz
'x,y,z'

loop_
_atom_site_label
_atom_site_type_symbol
_atom_site_fract_x
_atom_site_fract_y
_atom_site_fract_z
Co11	Co1	0.648680	0.276670	0.443090
Co21	Co2	0.400690	0.477720	0.386380
Co31	Co3	0.599310	0.522280	0.613620
Co41	Co4	0.351320	0.723330	0.556910
H11	H1	0.249000	0.083200	0.283500
H21	H2	0.194000	0.473000	0.530000
H31	H3	0.961000	0.418000	0.302000
H41	H4	0.346300	0.305000	0.064500
H51	H5	0.039000	0.582000	0.698000
H61	H6	0.653700	0.695000	0.935500
H71	H7	0.872700	0.186700	0.171200
H81	H8	0.910500	0.102400	0.015400
H91	H9	0.826900	0.730100	0.261000
H101	H10	0.084000	0.501000	0.248300
H111	H11	0.473900	0.933200	0.198800
H121	H12	0.751000	0.916800	0.716500
H131	H13	0.627600	0.790300	0.091400
H141	H14	0.127300	0.813300	0.828800
H151	H15	0.689000	0.993500	0.850300
H161	H16	0.749100	0.032500	0.447400
H171	H17	0.372400	0.209700	0.908600
H181	H18	0.089500	0.897600	0.984600
H191	H19	0.806000	0.527000	0.470000
H201	H20	0.526100	0.066800	0.801200
H211	H21	0.173100	0.269900	0.739000
H221	H22	0.250900	0.967500	0.552600
H231	H23	0.916000	0.499000	0.751700
H241	H24	0.311000	0.006500	0.149700
C11	C1	0.124300	0.029200	0.301700
C21	C2	0.771500	0.192900	0.118300
C31	C3	0.827100	0.998900	0.400900
C41	C4	0.093800	0.222100	0.415500
C51	C5	0.421400	0.693500	0.763000
C61	C6	0.127100	0.181800	0.711100
C71	C7	0.172900	0.001100	0.599100
C81	C8	0.207700	0.858900	0.975100
C91	C9	0.578600	0.306500	0.237000
C101	C10	0.458600	0.261500	0.055300
C111	C11	0.792300	0.141100	0.024900
C121	C12	0.009300	0.079200	0.372000
C131	C13	0.664600	0.078400	0.846900
C141	C14	0.228500	0.807100	0.881700
C151	C15	0.418500	0.225800	0.603900
C161	C16	0.643500	0.145300	0.946000
C171	C17	0.541400	0.738500	0.944700
C181	C18	0.906200	0.777900	0.584500
C191	C19	0.875700	0.970800	0.698300
C201	C20	0.356500	0.854700	0.054000
C211	C21	0.476100	0.205800	0.961500
C221	C22	0.990700	0.920800	0.628000
C231	C23	0.397400	0.746300	0.865900
C241	C24	0.237900	0.132600	0.640200
C251	C25	0.581500	0.774200	0.396100
C261	C26	0.602600	0.253700	0.134100
C271	C27	0.947300	0.100500	0.740900
C281	C28	0.052700	0.899500	0.259100
C291	C29	0.872900	0.818200	0.288900
C301	C30	0.335400	0.921600	0.153100
C311	C31	0.523900	0.794200	0.038500
C321	C32	0.762100	0.867400	0.359800
O11	O1	0.454300	0.343000	0.639600
O21	O2	0.656500	0.249500	0.301100
O31	O3	0.512300	0.602800	0.747100
O41	O4	0.688300	0.465500	0.478300
O51	O5	0.516900	0.178500	0.538550
O61	O6	0.483100	0.821500	0.461450
O71	O7	0.146700	0.842400	0.185100
O81	O8	0.311700	0.534500	0.521700
O91	O9	0.020000	0.723300	0.530840
O101	O10	0.980000	0.276700	0.469160
O111	O11	0.545700	0.657000	0.360400
O121	O12	0.343500	0.750500	0.698900
O131	O13	0.717600	0.718400	0.603470
O141	O14	0.912600	0.517400	0.691500
O151	O15	0.087400	0.482600	0.308500
O161	O16	0.282400	0.281600	0.396530
O171	O17	0.853300	0.157600	0.814900
O181	O18	0.487700	0.397200	0.252900
