data_KOSJOT_freeONLY_PM
_symmetry_space_group_name_H-M	'P1'
_cell_length_a	6.803000
_cell_length_b	15.114400
_cell_length_c	15.114400
_cell_angle_alpha	62.209800
_cell_angle_beta	81.371200
_cell_angle_gamma	98.628800
_symmetry_Int_Tables_number 1

loop_
_symmetry_equiv_pos_as_xyz
'x,y,z'

loop_
_atom_site_label
_atom_site_type_symbol
_atom_site_fract_x
_atom_site_fract_y
_atom_site_fract_z
Co11	Co1	0.101100	0.716900	0.700600
Co21	Co2	0.801700	0.700600	0.582500
Co31	Co3	0.101100	0.299400	0.283100
Co41	Co4	0.384200	0.582500	0.716900
Co51	Co5	0.801700	0.417500	0.299400
Co61	Co6	0.384200	0.283100	0.417500
H11	H1	0.538500	0.000000	0.568500
H21	H2	0.107000	0.568500	0.431500
H31	H3	0.239750	0.000000	0.483750
H41	H4	0.538500	0.431500	0.000000
H51	H5	0.723500	0.483750	0.516250
H61	H6	0.239750	0.516250	0.000000
C11	C1	0.728100	0.414800	0.094600
C21	C2	0.945700	0.905700	0.562100
C31	C3	0.040000	0.094300	0.467800
C41	C4	0.822700	0.509400	0.905400
C51	C5	0.203200	0.455800	0.358100
C61	C6	0.040000	0.532200	0.905700
C71	C7	0.561300	0.813900	0.641900
C81	C8	0.747400	0.544200	0.813900
C91	C9	0.945700	0.437900	0.094300
C101	C10	0.728100	0.905400	0.585200
C111	C11	0.671550	0.443050	0.000000
C121	C12	0.087800	0.000000	0.499200
C131	C13	0.561300	0.358100	0.186100
C141	C14	0.313300	0.490600	0.414800
C151	C15	0.747400	0.186100	0.455800
C161	C16	0.507800	0.467800	0.437900
C171	C17	0.313300	0.585200	0.509400
C181	C18	0.228500	0.556950	0.443050
C191	C19	0.587000	0.499200	0.500800
C201	C20	0.507800	0.562100	0.532200
C211	C21	0.087800	0.500800	0.000000
C221	C22	0.671550	0.000000	0.556950
C231	C23	0.822700	0.094600	0.490600
C241	C24	0.203200	0.641900	0.544200
O11	O1	0.559700	0.179500	0.492400
O21	O2	0.052100	0.671900	0.507600
O31	O3	0.255700	0.384500	0.340500
O41	O4	0.997900	0.817400	0.581500
O51	O5	0.559700	0.507600	0.820500
O61	O6	0.180500	0.601100	0.817400
O71	O7	0.052100	0.492400	0.328100
O81	O8	0.596200	0.340500	0.275000
O91	O9	0.380200	0.328100	0.179500
O101	O10	0.579400	0.581500	0.601100
O111	O11	0.871200	0.615500	0.725000
O121	O12	0.871200	0.275000	0.384500
O131	O13	0.579400	0.398900	0.418500
O141	O14	0.997900	0.418500	0.182600
O151	O15	0.255700	0.659500	0.615500
O161	O16	0.596200	0.725000	0.659500
O171	O17	0.380200	0.820500	0.671900
O181	O18	0.180500	0.182600	0.398900
