data_KOSKUA_freeONLY_PM
_symmetry_space_group_name_H-M	'P1'
_cell_length_a	6.868700
_cell_length_b	15.110900
_cell_length_c	15.110900
_cell_angle_alpha	62.253300
_cell_angle_beta	81.285100
_cell_angle_gamma	98.714900
_symmetry_Int_Tables_number 1

loop_
_symmetry_equiv_pos_as_xyz
'x,y,z'

loop_
_atom_site_label
_atom_site_type_symbol
_atom_site_fract_x
_atom_site_fract_y
_atom_site_fract_z
Co11	Co1	0.779300	0.259400	0.324100
Co21	Co2	0.519900	0.416500	0.259400
Co31	Co3	0.103400	0.324100	0.416500
Co41	Co4	0.896600	0.675900	0.583500
Co51	Co5	0.480100	0.583500	0.740600
Co61	Co6	0.220700	0.740600	0.675900
H11	H1	0.799200	0.472300	0.552600
H21	H2	0.673100	0.024900	0.527700
H31	H3	0.648200	0.447400	0.024900
H41	H4	0.326900	0.975100	0.472300
H51	H5	0.351800	0.552600	0.975100
H61	H6	0.200800	0.527700	0.447400
C11	C1	0.611100	0.451400	0.461400
C21	C2	0.438600	0.470400	0.423100
C31	C3	0.159700	0.087200	0.451400
C41	C4	0.781400	0.463600	0.015300
C51	C5	0.388900	0.548600	0.538600
C61	C6	0.182000	0.439000	0.177900
C71	C7	0.203300	0.984700	0.478900
C81	C8	0.317800	0.521100	0.463600
C91	C9	0.257000	0.616900	0.561000
C101	C10	0.968200	0.106500	0.470400
C111	C11	0.640100	0.822100	0.616900
C121	C12	0.138300	0.576900	0.893500
C131	C13	0.561400	0.529600	0.576900
C141	C14	0.927500	0.538600	0.912800
C151	C15	0.031800	0.893500	0.529600
C161	C16	0.861700	0.423100	0.106500
C171	C17	0.359900	0.177900	0.383100
C181	C18	0.218600	0.536400	0.984700
C191	C19	0.743000	0.383100	0.439000
C201	C20	0.796700	0.015300	0.521100
C211	C21	0.072500	0.461400	0.087200
C221	C22	0.840300	0.912800	0.548600
C231	C23	0.682200	0.478900	0.536400
C241	C24	0.818000	0.561000	0.822100
O11	O1	0.904500	0.378800	0.466800
O21	O2	0.081800	0.809300	0.558800
O31	O3	0.343300	0.266300	0.351200
O41	O4	0.095500	0.621200	0.533200
O51	O5	0.305500	0.648800	0.617500
O61	O6	0.727500	0.368100	0.190700
O71	O7	0.656700	0.733700	0.648800
O81	O8	0.628700	0.533200	0.845600
O91	O9	0.918200	0.190700	0.441200
O101	O10	0.474300	0.845600	0.621200
O111	O11	0.272500	0.631900	0.809300
O121	O12	0.077000	0.382500	0.266300
O131	O13	0.359400	0.441200	0.368100
O141	O14	0.371300	0.466800	0.154400
O151	O15	0.640600	0.558800	0.631900
O161	O16	0.525700	0.154400	0.378800
O171	O17	0.923000	0.617500	0.733700
O181	O18	0.694500	0.351200	0.382500
