data_KOSLOV_freeONLY_PM
_symmetry_space_group_name_H-M	'P1'
_cell_length_a	6.761300
_cell_length_b	15.066300
_cell_length_c	15.066300
_cell_angle_alpha	62.196900
_cell_angle_beta	81.396900
_cell_angle_gamma	98.603100
_symmetry_Int_Tables_number 1

loop_
_symmetry_equiv_pos_as_xyz
'x,y,z'

loop_
_atom_site_label
_atom_site_type_symbol
_atom_site_fract_x
_atom_site_fract_y
_atom_site_fract_z
Ni11	Ni1	0.116200	0.719000	0.699400
Ni21	Ni2	0.815600	0.699400	0.581600
Ni31	Ni3	0.397200	0.581600	0.719000
Ni41	Ni4	0.397200	0.281000	0.418400
Ni51	Ni5	0.116200	0.300600	0.281000
Ni61	Ni6	0.815600	0.418400	0.300600
H11	H1	0.724000	0.495000	0.505000
H21	H2	0.528000	0.430000	0.000000
H31	H3	0.528000	0.000000	0.570000
H41	H4	0.229000	0.505000	0.000000
H51	H5	0.229000	0.000000	0.495000
H61	H6	0.098000	0.570000	0.430000
C11	C1	0.050500	0.093500	0.461000
C21	C2	0.194900	0.455400	0.357700
C31	C3	0.739500	0.186900	0.455400
C41	C4	0.511500	0.554500	0.539000
C51	C5	0.194900	0.642300	0.544600
C61	C6	0.239600	0.552900	0.447100
C71	C7	0.739500	0.544600	0.813100
C81	C8	0.296100	0.574700	0.515400
C91	C9	0.686700	0.000000	0.552900
C101	C10	0.050500	0.539000	0.906500
C111	C11	0.811500	0.515400	0.909900
C121	C12	0.811500	0.090100	0.484600
C131	C13	0.721400	0.425300	0.090100
C141	C14	0.087900	0.000000	0.492300
C151	C15	0.087900	0.507700	0.000000
C161	C16	0.957000	0.906500	0.554500
C171	C17	0.552600	0.813100	0.642300
C181	C18	0.957000	0.445500	0.093500
C191	C19	0.580200	0.492300	0.507700
C201	C20	0.511500	0.461000	0.445500
C211	C21	0.721400	0.909900	0.574700
C221	C22	0.552600	0.357700	0.186900
C231	C23	0.296100	0.484600	0.425300
C241	C24	0.686700	0.447100	0.000000
O11	O1	0.159700	0.593600	0.825500
O21	O2	0.372900	0.827800	0.668100
O31	O3	0.372900	0.331900	0.172200
O41	O4	0.545100	0.504100	0.827800
O51	O5	0.985200	0.825500	0.580900
O61	O6	0.985200	0.419100	0.174500
O71	O7	0.879600	0.270200	0.382400
O81	O8	0.609400	0.347400	0.270200
O91	O9	0.566100	0.580900	0.593600
O101	O10	0.545100	0.172200	0.495900
O111	O11	0.566100	0.406400	0.419100
O121	O12	0.262000	0.382400	0.347400
O131	O13	0.041000	0.495900	0.331900
O141	O14	0.041000	0.668100	0.504100
O151	O15	0.159700	0.174500	0.406400
O161	O16	0.262000	0.652600	0.617600
O171	O17	0.879600	0.617600	0.729800
O181	O18	0.609400	0.729800	0.652600
