data_KOSLEL_freeONLY_PM
_symmetry_space_group_name_H-M	'P1'
_cell_length_a	6.739000
_cell_length_b	15.034900
_cell_length_c	15.034900
_cell_angle_alpha	62.191600
_cell_angle_beta	81.407400
_cell_angle_gamma	98.592600
_symmetry_Int_Tables_number 1

loop_
_symmetry_equiv_pos_as_xyz
'x,y,z'

loop_
_atom_site_label
_atom_site_type_symbol
_atom_site_fract_x
_atom_site_fract_y
_atom_site_fract_z
Ni11	Ni1	0.390800	0.280400	0.417800
Ni21	Ni2	0.110400	0.301800	0.280400
Ni31	Ni3	0.808600	0.417800	0.301800
Ni41	Ni4	0.110400	0.719600	0.698200
Ni51	Ni5	0.390800	0.582200	0.719600
Ni61	Ni6	0.808600	0.698200	0.582200
H11	H1	0.222550	0.506650	0.000000
H21	H2	0.715900	0.493350	0.506650
H31	H3	0.544150	0.000000	0.563550
H41	H4	0.222550	0.000000	0.493350
H51	H5	0.544150	0.436450	0.000000
H61	H6	0.107700	0.563550	0.436450
C11	C1	0.085900	0.000000	0.498300
C21	C2	0.298700	0.483600	0.425500
C31	C3	0.550700	0.810900	0.642800
C41	C4	0.193500	0.642800	0.546300
C51	C5	0.193500	0.453700	0.357200
C61	C6	0.724200	0.909100	0.574500
C71	C7	0.739800	0.546300	0.810900
C81	C8	0.038600	0.532300	0.908500
C91	C9	0.235400	0.555600	0.444400
C101	C10	0.947100	0.440800	0.091500
C111	C11	0.679800	0.444400	0.000000
C121	C12	0.815100	0.090900	0.483600
C131	C13	0.584200	0.498300	0.501700
C141	C14	0.038600	0.091500	0.467700
C151	C15	0.550700	0.357200	0.189100
C161	C16	0.739800	0.189100	0.453700
C171	C17	0.085900	0.501700	0.000000
C181	C18	0.298700	0.574500	0.516400
C191	C19	0.947100	0.908500	0.559200
C201	C20	0.815100	0.516400	0.909100
C211	C21	0.506300	0.467700	0.440800
C221	C22	0.724200	0.425500	0.090900
C231	C23	0.679800	0.000000	0.555600
C241	C24	0.506300	0.559200	0.532300
O11	O1	0.985100	0.417200	0.184900
O21	O2	0.985100	0.815100	0.582800
O31	O3	0.864600	0.275300	0.381500
O41	O4	0.170000	0.184900	0.397900
O51	O5	0.567900	0.397900	0.417200
O61	O6	0.589300	0.343200	0.275300
O71	O7	0.033200	0.497700	0.327100
O81	O8	0.535500	0.175200	0.497700
O91	O9	0.535500	0.502300	0.824800
O101	O10	0.589300	0.724700	0.656800
O111	O11	0.170000	0.602100	0.815100
O121	O12	0.567900	0.582800	0.602100
O131	O13	0.033200	0.672900	0.502300
O141	O14	0.360300	0.824800	0.672900
O151	O15	0.246100	0.381500	0.343200
O161	O16	0.246100	0.656800	0.618500
O171	O17	0.360300	0.327100	0.175200
O181	O18	0.864600	0.618500	0.724700
