data_KOSMAI_freeONLY_PM
_symmetry_space_group_name_H-M	'P1'
_cell_length_a	6.776700
_cell_length_b	15.099900
_cell_length_c	15.099900
_cell_angle_alpha	62.197100
_cell_angle_beta	81.396500
_cell_angle_gamma	98.603500
_symmetry_Int_Tables_number 1

loop_
_symmetry_equiv_pos_as_xyz
'x,y,z'

loop_
_atom_site_label
_atom_site_type_symbol
_atom_site_fract_x
_atom_site_fract_y
_atom_site_fract_z
Co11	Co1	0.392500	0.578000	0.720500
Co21	Co2	0.814500	0.422000	0.298500
Co31	Co3	0.113000	0.298500	0.279500
Co41	Co4	0.113000	0.720500	0.701500
Co51	Co5	0.814500	0.701500	0.578000
Co61	Co6	0.392500	0.279500	0.422000
H11	H1	0.536500	0.000000	0.571500
H21	H2	0.536500	0.428500	0.000000
H31	H3	0.242850	0.519550	0.000000
H41	H4	0.108000	0.571500	0.428500
H51	H5	0.723300	0.480450	0.519550
H61	H6	0.242850	0.000000	0.480450
C11	C1	0.551700	0.354800	0.187900
C21	C2	0.316600	0.588200	0.504600
C31	C3	0.940500	0.438600	0.094100
C41	C4	0.821200	0.504600	0.907200
C51	C5	0.316600	0.495400	0.411800
C61	C6	0.739600	0.187900	0.457300
C71	C7	0.675000	0.000000	0.556800
C81	C8	0.821200	0.092800	0.495400
C91	C9	0.739600	0.542700	0.812100
C101	C10	0.231800	0.556800	0.443200
C111	C11	0.940500	0.905900	0.561400
C121	C12	0.501900	0.561400	0.532700
C131	C13	0.675000	0.443200	0.000000
C141	C14	0.196900	0.645200	0.542700
C151	C15	0.728400	0.411800	0.092800
C161	C16	0.551700	0.812100	0.645200
C171	C17	0.034600	0.532700	0.905900
C181	C18	0.082350	0.503050	0.000000
C191	C19	0.728400	0.907200	0.588200
C201	C20	0.034600	0.094100	0.467300
C211	C21	0.501900	0.467300	0.438600
C221	C22	0.196900	0.457300	0.354800
C231	C23	0.082350	0.000000	0.496950
C241	C24	0.579300	0.496950	0.503050
O11	O1	0.548000	0.178800	0.499200
O21	O2	0.178400	0.598300	0.817900
O31	O3	0.594400	0.342500	0.273700
O41	O4	0.178400	0.182100	0.401700
O51	O5	0.594400	0.726300	0.657500
O61	O6	0.996300	0.817900	0.583800
O71	O7	0.251900	0.383800	0.342500
O81	O8	0.868100	0.616200	0.726300
O91	O9	0.047200	0.678000	0.500800
O101	O10	0.868100	0.273700	0.383800
O111	O11	0.548000	0.500800	0.821200
O121	O12	0.369200	0.322000	0.178800
O131	O13	0.580100	0.401700	0.416200
O141	O14	0.369200	0.821200	0.678000
O151	O15	0.251900	0.657500	0.616200
O161	O16	0.047200	0.499200	0.322000
O171	O17	0.996300	0.416200	0.182100
O181	O18	0.580100	0.583800	0.598300
