data_KOTSIX_freeONLY_PM
_symmetry_space_group_name_H-M	'P1'
_cell_length_a	15.169000
_cell_length_b	15.453000
_cell_length_c	16.450400
_cell_angle_alpha	67.469000
_cell_angle_beta	80.559000
_cell_angle_gamma	61.982000
_symmetry_Int_Tables_number 1

loop_
_symmetry_equiv_pos_as_xyz
'x,y,z'

loop_
_atom_site_label
_atom_site_type_symbol
_atom_site_fract_x
_atom_site_fract_y
_atom_site_fract_z
Zn11	Zn1	0.989740	0.508140	0.664480
Zn21	Zn2	0.187280	0.135670	0.916240
Zn31	Zn3	0.010260	0.491860	0.335520
Zn41	Zn4	0.577070	0.133740	0.289830
Zn51	Zn5	0.812720	0.864330	0.083760
Zn61	Zn6	0.422930	0.866260	0.710170
H11	H1	0.389600	0.398200	0.873000
H21	H2	0.174800	0.752300	0.743600
H31	H3	0.177800	0.078500	0.460400
H41	H4	0.913700	0.435700	0.506400
H51	H5	0.765400	0.151100	0.516200
H61	H6	0.462900	0.464200	0.148700
H71	H7	0.386100	0.401800	0.388100
H81	H8	0.086300	0.564300	0.493600
H91	H9	0.711800	0.664000	0.762600
H101	H10	0.859000	0.013500	0.016000
H111	H11	0.087700	0.945500	0.398900
H121	H12	0.914200	0.669900	0.901300
H131	H13	0.031900	0.234600	0.423900
H141	H14	0.639300	0.764300	0.843400
H151	H15	0.397300	0.483700	0.720500
H161	H16	0.505600	0.376200	0.602100
H171	H17	0.727200	0.939000	0.940000
H181	H18	0.540200	0.356500	0.322900
H191	H19	0.330400	0.978800	0.533700
H201	H20	0.288200	0.336000	0.237400
H211	H21	0.091600	0.589400	0.364100
H221	H22	0.957000	0.909400	0.051600
H231	H23	0.121200	0.657800	0.649500
H241	H24	0.352600	0.025200	0.991100
H251	H25	0.851400	0.715600	0.414700
H261	H26	0.537100	0.535800	0.851300
H271	H27	0.659600	0.340800	0.534000
H281	H28	0.514500	0.932300	0.435800
H291	H29	0.085800	0.330100	0.098700
H301	H30	0.788800	0.611400	0.270200
H311	H31	0.485500	0.067700	0.564200
H321	H32	0.043300	0.028400	0.694200
H331	H33	0.825200	0.247700	0.256400
H341	H34	0.141000	0.986500	0.984000
H351	H35	0.908400	0.410600	0.635900
H361	H36	0.196500	0.931900	0.765300
H371	H37	0.800800	0.491500	0.815200
H381	H38	0.833200	0.336800	0.105600
H391	H39	0.243800	0.524100	0.428800
H401	H40	0.272800	0.061000	0.060000
H411	H41	0.355200	0.317700	0.003200
H421	H42	0.199200	0.508500	0.184800
H431	H43	0.340400	0.659200	0.466000
H441	H44	0.647400	0.974800	0.008900
H451	H45	0.494400	0.623800	0.397900
H461	H46	0.808800	0.402000	0.969000
H471	H47	0.613900	0.598200	0.611900
H481	H48	0.956700	0.971600	0.305800
H491	H49	0.602700	0.516300	0.279500
H501	H50	0.644800	0.682300	0.996800
H511	H51	0.878800	0.342200	0.350500
H521	H52	0.148600	0.284400	0.585300
H531	H53	0.632100	0.652800	0.326400
H541	H54	0.493400	0.911800	0.809400
H551	H55	0.968100	0.765400	0.576100
H561	H56	0.166800	0.663200	0.894400
H571	H57	0.360700	0.235700	0.156600
H581	H58	0.028200	0.661100	0.276600
H591	H59	0.043000	0.090600	0.948400
H601	H60	0.971800	0.338900	0.723400
H611	H61	0.822200	0.921500	0.539600
H621	H62	0.803500	0.068100	0.234700
H631	H63	0.191200	0.598000	0.031000
H641	H64	0.234600	0.848900	0.483800
H651	H65	0.367900	0.347200	0.673600
H661	H66	0.669600	0.021200	0.466300
H671	H67	0.610400	0.601800	0.127000
H681	H68	0.506600	0.088200	0.190600
H691	H69	0.211200	0.388600	0.729800
H701	H70	0.756200	0.475900	0.571200
H711	H71	0.459800	0.643500	0.677100
H721	H72	0.912300	0.054500	0.601100
C11	C1	0.687200	0.611600	0.364700
C21	C2	0.360100	0.181700	0.488900
C31	C3	0.312800	0.388400	0.635300
C41	C4	0.784000	0.758200	0.419000
C51	C5	0.406300	0.169700	0.403800
C61	C6	0.426700	0.395500	0.502300
C71	C7	0.808700	0.663200	0.579900
C81	C8	0.113000	0.717800	0.601200
C91	C9	0.213200	0.626600	0.860500
C101	C10	0.378800	0.109600	0.651500
C111	C11	0.488100	0.625500	0.454600
C121	C12	0.543400	0.395700	0.059000
C131	C13	0.725600	0.828200	0.341160
C141	C14	0.091500	0.064800	0.569600
C151	C15	0.725200	0.533500	0.000600
C161	C16	0.194200	0.744500	0.573200
C171	C17	0.417100	0.711400	0.869400
C181	C18	0.782300	0.585500	0.330900
C191	C19	0.991200	0.544800	0.811700
C201	C20	0.805800	0.255500	0.426800
C211	C21	0.444500	0.035900	0.732800
C221	C22	0.521900	0.521300	0.910700
C231	C23	0.217700	0.414500	0.669100
C241	C24	0.180500	0.049000	0.521500
C251	C25	0.582900	0.288600	0.130600
C261	C26	0.555500	0.964100	0.267200
C271	C27	0.257400	0.248400	0.498000
C281	C28	0.654400	0.531400	0.152500
C291	C29	0.639900	0.818300	0.511100
C301	C30	0.143300	0.518500	0.529100
C311	C31	0.193000	0.960300	0.704200
C321	C32	0.672700	0.576900	0.455600
C331	C33	0.783500	0.318900	0.231100
C341	C34	0.559400	0.611600	0.581900
C351	C35	0.275900	0.521000	0.901700
C361	C36	0.605800	0.351200	0.505100
C371	C37	0.899200	0.980900	0.338900
C381	C38	0.593700	0.830300	0.596200
C391	C39	0.418700	0.112400	0.568300
C401	C40	0.274400	0.171800	0.658840
C411	C41	0.100800	0.019100	0.661100
C421	C42	0.466500	0.637900	0.621900
C431	C43	0.946400	0.583600	0.034300
C441	C44	0.564700	0.415100	0.970900
C451	C45	0.345600	0.468600	0.847500
C461	C46	0.350700	0.520200	0.754400
C471	C47	0.216500	0.681100	0.768900
C481	C48	0.619500	0.334600	0.928200
C491	C49	0.324000	0.358300	0.038500
C501	C50	0.008800	0.455200	0.188300
C511	C51	0.231800	0.471000	0.147400
C521	C52	0.742600	0.751600	0.502000
C531	C53	0.908500	0.935200	0.430400
C541	C54	0.856700	0.481500	0.470900
C551	C55	0.226200	0.525400	0.054500
C561	C56	0.182600	0.830200	0.501000
C571	C57	0.880300	0.673700	0.063200
C581	C58	0.713900	0.376800	0.283500
C591	C59	0.272400	0.988700	0.566200
C601	C60	0.006600	0.872000	0.480200
C611	C61	0.993400	0.128000	0.519800
C621	C62	0.053600	0.416400	0.965700
C631	C63	0.456600	0.604300	0.941000
C641	C64	0.676000	0.641700	0.961500
C651	C65	0.052100	0.397900	0.059300
C661	C66	0.274800	0.466500	0.999400
C671	C67	0.382400	0.656100	0.579200
C681	C68	0.786800	0.373400	0.139500
C691	C69	0.999700	0.518800	0.908700
C701	C70	0.119700	0.326300	0.936800
C711	C71	0.435300	0.584900	0.029100
C721	C72	0.978900	0.217900	0.444100
C731	C73	0.775900	0.828200	0.255300
C741	C74	0.327300	0.423100	0.544400
C751	C75	0.727600	0.011300	0.433800
C761	C76	0.807000	0.039700	0.295800
C771	C77	0.887000	0.282200	0.398800
C781	C78	0.761300	0.505600	0.510700
C791	C79	0.617600	0.343900	0.420800
C801	C80	0.216000	0.241800	0.581000
C811	C81	0.440600	0.388400	0.418100
C821	C82	0.000300	0.481200	0.091300
C831	C83	0.947900	0.602100	0.940700
C841	C84	0.394200	0.648800	0.494900
C851	C85	0.621200	0.890400	0.348500
C861	C86	0.672300	0.691700	0.868800
C871	C87	0.478100	0.478700	0.089300
C881	C88	0.581300	0.887600	0.431700
C891	C89	0.773800	0.474600	0.945500
C901	C90	0.573300	0.604500	0.497700
C911	C91	0.817400	0.169800	0.499000
C921	C92	0.286100	0.623200	0.716500
C931	C93	0.380500	0.665400	0.071800
C941	C94	0.224100	0.171800	0.744700
C951	C95	0.091800	0.891300	0.451400
C961	C96	0.819500	0.951000	0.478500
C971	C97	0.191300	0.336800	0.420100
C981	C98	0.238700	0.494400	0.489300
C991	C99	0.649300	0.479800	0.245600
C1001	C100	0.533500	0.362100	0.378100
C1011	C101	0.327700	0.308300	0.131200
C1021	C102	0.768200	0.529000	0.852600
C1031	C103	0.511900	0.374500	0.545400
C1041	C104	0.908200	0.108700	0.548600
C1051	C105	0.724100	0.479000	0.098300
C1061	C106	0.021100	0.782100	0.555900
N11	N1	0.287500	0.678100	0.623610
N21	N2	0.712500	0.321900	0.376390
N31	N3	0.280700	0.943700	0.655940
N41	N4	0.719300	0.056300	0.344060
N51	N5	0.716400	0.633600	0.818850
N61	N6	0.283600	0.366400	0.181150
N71	N7	0.867100	0.523400	0.382370
N81	N8	0.132900	0.476600	0.617630
O11	O1	0.226130	0.381730	0.352360
O21	O2	0.340700	0.787690	0.883580
O31	O3	0.712800	0.965390	0.987250
O41	O4	0.904260	0.747180	0.041580
O51	O5	0.999800	0.529650	0.208210
O61	O6	0.026340	0.367990	0.243810
O71	O7	0.496810	0.153380	0.398060
O81	O8	0.287200	0.034610	0.012750
O91	O9	0.534690	0.277960	0.201560
O101	O10	0.579170	0.345640	0.861050
O111	O11	0.000200	0.470350	0.791790
O121	O12	0.973660	0.632010	0.756190
O131	O13	0.544850	0.055270	0.235780
O141	O14	0.888750	0.948820	0.064470
O151	O15	0.901490	0.633990	0.568820
O161	O16	0.130730	0.216540	0.750860
O171	O17	0.095740	0.252820	0.958420
O181	O18	0.098510	0.366010	0.431180
O191	O19	0.455150	0.944730	0.764220
O201	O20	0.802670	0.678130	0.105460
O211	O21	0.495950	0.065740	0.757950
O221	O22	0.659300	0.212310	0.116420
O231	O23	0.773870	0.618270	0.647640
O241	O24	0.504050	0.934260	0.242050
O251	O25	0.028830	0.615570	0.336090
O261	O26	0.643530	0.823040	0.653460
O271	O27	0.280480	0.118740	0.812980
O281	O28	0.356470	0.176960	0.346540
O291	O29	0.197330	0.321870	0.894540
O301	O30	0.697400	0.256650	0.965380
O311	O31	0.869270	0.783460	0.249140
O321	O32	0.465310	0.722040	0.798440
O331	O33	0.302600	0.743350	0.034620
O341	O34	0.503190	0.846620	0.601940
O351	O35	0.111250	0.051180	0.935530
O361	O36	0.971170	0.384430	0.663910
O371	O37	0.719520	0.881260	0.187020
O381	O38	0.420830	0.654360	0.138950
