data_KUBQAA_charged_PM
_symmetry_space_group_name_H-M	'P1'
_cell_length_a	17.939800
_cell_length_b	19.746600
_cell_length_c	25.751700
_cell_angle_alpha	104.053000
_cell_angle_beta	101.161000
_cell_angle_gamma	113.805000
_symmetry_Int_Tables_number 1

loop_
_symmetry_equiv_pos_as_xyz
'x,y,z'

loop_
_atom_site_label
_atom_site_type_symbol
_atom_site_fract_x
_atom_site_fract_y
_atom_site_fract_z
Cu11	Cu1	0.958290	0.974250	0.139920
Cu21	Cu2	0.760250	0.523310	0.351120
Cu31	Cu3	0.294610	0.091240	0.370360
Cu41	Cu4	0.891990	0.433920	0.143460
Cu51	Cu5	0.318370	0.834330	0.860080
Cu61	Cu6	0.909130	0.172190	0.648880
Cu71	Cu7	0.424250	0.720880	0.629640
Cu81	Cu8	0.248530	0.290460	0.856540
P11	P1	0.025700	0.095780	0.201120
P21	P2	0.302440	0.149220	0.307500
P31	P3	0.686390	0.400920	0.292100
P41	P4	0.873720	0.361030	0.196820
P51	P5	0.324580	0.894660	0.798880
P61	P6	0.494940	0.841720	0.692500
P71	P7	0.894290	0.108820	0.707900
P81	P8	0.176900	0.164210	0.803180
H11	H1	0.881700	0.981400	0.027000
H21	H2	0.749400	0.943200	0.964000
H31	H3	0.635300	0.826900	0.057800
H41	H4	0.768900	0.870900	0.121800
H51	H5	0.484800	0.848900	0.847000
H61	H6	0.611400	0.859500	0.892600
H71	H7	0.533500	0.864800	0.029800
H81	H8	0.407900	0.848000	0.975800
H91	H9	0.934300	0.960300	0.252600
H101	H10	0.890400	0.869300	0.294000
H111	H11	0.859400	0.704000	0.152800
H121	H12	0.903400	0.801800	0.114200
H131	H13	0.880100	0.693700	0.377800
H141	H14	0.925600	0.788800	0.336400
H151	H15	0.757000	0.619200	0.186000
H161	H16	0.719100	0.531000	0.230800
H171	H17	0.678500	0.631800	0.365000
H181	H18	0.609000	0.672300	0.421600
H191	H19	0.661700	0.556700	0.519800
H201	H20	0.732200	0.520800	0.461200
H211	H21	0.472800	0.740100	0.530400
H221	H22	0.545100	0.702800	0.472000
H231	H23	0.596800	0.588200	0.568200
H241	H24	0.517300	0.619100	0.621000
H251	H25	0.160100	0.972600	0.258200
H261	H26	0.079700	0.839300	0.209000
H271	H27	0.146800	0.807000	0.355800
H281	H28	0.240400	0.939300	0.397400
H291	H29	0.974600	0.586700	0.121800
H301	H30	0.052300	0.720000	0.169000
H311	H31	0.035400	0.687800	0.314600
H321	H32	0.951000	0.553400	0.262800
H331	H33	0.889200	0.641900	0.463800
H341	H34	0.030000	0.691700	0.518200
H351	H35	0.043100	0.523400	0.400800
H361	H36	0.902300	0.479400	0.351400
H371	H37	0.320000	0.797000	0.587200
H381	H38	0.177400	0.757500	0.532200
H391	H39	0.148100	0.540400	0.472400
H401	H40	0.285000	0.585100	0.530400
H411	H41	0.070000	0.512300	0.133600
H421	H42	0.152700	0.484200	0.080600
H431	H43	0.930400	0.289800	0.972800
H441	H44	0.866700	0.319900	0.036800
H451	H45	0.102900	0.211800	0.900800
H461	H46	0.025500	0.244000	0.954400
H471	H47	0.188400	0.473000	0.996000
H481	H48	0.252900	0.437200	0.934400
H491	H49	0.021700	0.114600	0.094800
H501	H50	0.065400	0.225400	0.064000
H511	H51	0.137500	0.356000	0.136000
H521	H52	0.154700	0.372900	0.227000
H531	H53	0.108200	0.266000	0.256200
H541	H54	0.861900	0.077400	0.192400
H551	H55	0.782600	0.100300	0.248200
H561	H56	0.859100	0.168700	0.347000
H571	H57	0.988300	0.178200	0.385600
H581	H58	0.076300	0.178000	0.323400
H591	H59	0.276900	0.271000	0.272200
H601	H60	0.355300	0.410300	0.309800
H611	H61	0.488900	0.473100	0.380600
H621	H62	0.529400	0.405200	0.429200
H631	H63	0.457600	0.267500	0.387400
H641	H64	0.347500	0.191200	0.209000
H651	H65	0.408700	0.144200	0.147400
H661	H66	0.424600	0.035000	0.143000
H671	H67	0.388300	0.969300	0.205600
H681	H68	0.336900	0.018900	0.275200
H691	H69	0.681900	0.386800	0.399800
H701	H70	0.650500	0.281700	0.434800
H711	H71	0.594600	0.152200	0.374800
H721	H72	0.565600	0.128200	0.278800
H731	H73	0.603200	0.226400	0.244200
H741	H74	0.581600	0.291300	0.172400
H751	H75	0.465400	0.274900	0.107800
H761	H76	0.391100	0.340900	0.133600
H771	H77	0.437200	0.425500	0.220600
H781	H78	0.568900	0.461600	0.287600
H791	H79	0.048500	0.474500	0.239200
H801	H80	0.168300	0.512400	0.308600
H811	H81	0.161600	0.455600	0.375800
H821	H82	0.039400	0.345900	0.365600
H831	H83	0.905800	0.299100	0.287600
H841	H84	0.922300	0.258600	0.133200
H851	H85	0.867300	0.132300	0.075600
H861	H86	0.728900	0.041500	0.078600
H871	H87	0.650100	0.084100	0.121000
H881	H88	0.716800	0.221700	0.180000
H891	H89	0.354700	0.954400	0.973000
H901	H90	0.285400	0.979200	0.036000
H911	H91	0.077500	0.769100	0.942200
H921	H92	0.147100	0.749100	0.878200
H931	H93	0.137800	0.001900	0.153000
H941	H94	0.218800	0.966900	0.107400
H951	H95	0.003700	0.835000	0.970200
H961	H96	0.932100	0.872200	0.024200
H971	H97	0.181700	0.707700	0.747400
H981	H98	0.096400	0.575300	0.706000
H991	H99	0.206600	0.551200	0.847200
H1001	H100	0.289200	0.687600	0.885800
H1011	H101	0.002300	0.315900	0.622200
H1021	H102	0.089200	0.452400	0.663600
H1031	H103	0.071000	0.433200	0.814000
H1041	H104	0.988300	0.300200	0.769200
H1051	H105	0.813500	0.266800	0.635000
H1061	H106	0.687400	0.250700	0.578400
H1071	H107	0.641900	0.036900	0.480200
H1081	H108	0.771000	0.059600	0.538800
H1091	H109	0.442400	0.209700	0.469600
H1101	H110	0.573100	0.230800	0.528000
H1111	H111	0.528600	0.020000	0.431800
H1121	H112	0.396300	0.998100	0.379000
H1131	H113	0.401900	0.714400	0.741800
H1141	H114	0.370700	0.630300	0.791000
H1151	H115	0.291000	0.451200	0.644200
H1161	H116	0.343000	0.541900	0.602600
H1171	H117	0.352800	0.464900	0.878200
H1181	H118	0.383300	0.551000	0.831000
H1191	H119	0.220800	0.373200	0.685400
H1201	H120	0.188200	0.290600	0.737200
H1211	H121	0.925400	0.178100	0.536200
H1221	H122	0.011800	0.173500	0.481800
H1231	H123	0.142300	0.122600	0.599200
H1241	H124	0.050900	0.128000	0.648600
H1251	H125	0.232800	0.209800	0.412800
H1261	H126	0.145200	0.225300	0.467800
H1271	H127	0.175700	0.068000	0.527600
H1281	H128	0.254600	0.054700	0.469600
H1291	H129	0.436400	0.378700	0.866400
H1301	H130	0.572100	0.403600	0.919400
H1311	H131	0.457600	0.317000	0.027200
H1321	H132	0.329900	0.283100	0.963200
H1331	H133	0.702100	0.311000	0.099200
H1341	H134	0.571100	0.289600	0.045600
H1351	H135	0.692400	0.477000	0.004000
H1361	H136	0.818500	0.502800	0.065600
H1371	H137	0.426900	0.019800	0.905200
H1381	H138	0.501400	0.161400	0.936000
H1391	H139	0.501500	0.220000	0.864000
H1401	H140	0.427700	0.145900	0.773000
H1411	H141	0.352000	0.009800	0.743800
H1421	H142	0.169500	0.885000	0.807600
H1431	H143	0.034400	0.852100	0.751800
H1441	H144	0.012100	0.821700	0.653000
H1451	H145	0.102700	0.792600	0.614400
H1461	H146	0.252900	0.854600	0.676600
H1471	H147	0.504700	0.998800	0.727800
H1481	H148	0.545500	0.100500	0.690200
H1491	H149	0.608300	0.092500	0.619400
H1501	H150	0.600200	0.976000	0.570800
H1511	H151	0.570200	0.880100	0.612600
H1521	H152	0.638500	0.982200	0.791000
H1531	H153	0.761300	0.996800	0.852600
H1541	H154	0.781600	0.892000	0.857000
H1551	H155	0.682700	0.763700	0.794400
H1561	H156	0.561700	0.743700	0.724800
H1571	H157	0.782100	0.987000	0.600200
H1581	H158	0.715700	0.846900	0.565200
H1591	H159	0.719800	0.777400	0.625200
H1601	H160	0.786800	0.849400	0.721200
H1611	H161	0.859000	0.982200	0.755800
H1621	H162	0.909200	0.118900	0.827600
H1631	H163	0.857600	0.167100	0.892200
H1641	H164	0.757500	0.207300	0.866400
H1651	H165	0.716600	0.204900	0.779400
H1661	H166	0.781300	0.174000	0.712400
H1671	H167	0.309300	0.235300	0.760800
H1681	H168	0.359700	0.203800	0.691400
H1691	H169	0.285800	0.079800	0.624200
H1701	H170	0.173800	0.980300	0.634400
H1711	H171	0.118200	0.011500	0.712400
H1721	H172	0.289100	0.125400	0.866800
H1731	H173	0.291700	0.056700	0.924400
H1741	H174	0.150300	0.962900	0.921400
H1751	H175	0.029100	0.963100	0.879000
H1761	H176	0.036800	0.041700	0.820000
C11	C1	0.831300	0.950900	0.034400
C21	C2	0.751900	0.928600	0.996600
C31	C3	0.678120	0.886320	0.005640
C41	C4	0.685700	0.861200	0.052200
C51	C5	0.765200	0.885700	0.089200
C61	C6	0.495200	0.851400	0.885200
C71	C7	0.571900	0.859800	0.912400
C81	C8	0.594090	0.868990	0.969980
C91	C9	0.526300	0.862000	0.991600
C101	C10	0.451400	0.851600	0.959000
C111	C11	0.920700	0.907600	0.232200
C121	C12	0.894800	0.853700	0.257200
C131	C13	0.875000	0.776400	0.230200
C141	C14	0.876400	0.757100	0.174800
C151	C15	0.903200	0.816500	0.152200
C161	C16	0.854900	0.678500	0.338000
C171	C17	0.882700	0.735800	0.313600
C181	C18	0.847400	0.714600	0.256400
C191	C19	0.783900	0.635900	0.225600
C201	C20	0.761500	0.584300	0.253000
C211	C21	0.675100	0.615800	0.396800
C221	C22	0.633700	0.640400	0.430600
C231	C23	0.627640	0.619440	0.477480
C241	C24	0.664400	0.573300	0.488200
C251	C25	0.705600	0.551500	0.452400
C261	C26	0.496300	0.706800	0.538000
C271	C27	0.541500	0.685800	0.503400
C281	C28	0.579230	0.642530	0.514260
C291	C29	0.570300	0.618600	0.558800
C301	C30	0.523500	0.637700	0.590600
C311	C31	0.161300	0.937200	0.277200
C321	C32	0.111300	0.858200	0.248200
C331	C33	0.106300	0.804900	0.275800
C341	C34	0.152800	0.839600	0.333600
C351	C35	0.206100	0.918600	0.358600
C361	C36	0.986300	0.606900	0.161600
C371	C37	0.033000	0.686200	0.189600
C381	C38	0.052700	0.718000	0.245800
C391	C39	0.022800	0.668100	0.274800
C401	C40	0.973400	0.587500	0.243000
C411	C41	0.921200	0.617000	0.451000
C421	C42	0.005300	0.647300	0.483800
C431	C43	0.054100	0.612200	0.466400
C441	C44	0.012700	0.549000	0.415400
C451	C45	0.929000	0.523300	0.386000
C461	C46	0.281900	0.742300	0.566200
C471	C47	0.197100	0.719600	0.533000
C481	C48	0.143800	0.639600	0.501400
C491	C49	0.179400	0.593400	0.498600
C501	C50	0.262100	0.621200	0.533600
C511	C51	0.042000	0.465200	0.101000
C521	C52	0.092300	0.450200	0.068600
C531	C53	0.050200	0.382200	0.016800
C541	C54	0.963400	0.335600	0.006200
C551	C55	0.925400	0.356000	0.044200
C561	C56	0.119400	0.266300	0.918400
C571	C57	0.073500	0.285000	0.951200
C581	C58	0.096800	0.361800	0.979200
C591	C59	0.167100	0.418500	0.974600
C601	C60	0.206700	0.396200	0.939000
C611	C61	0.126800	0.116200	0.245000
C621	C62	0.199210	0.128710	0.267620
C631	C63	0.749200	0.378700	0.251200
C641	C64	0.798400	0.369600	0.231200
C651	C65	0.060700	0.181000	0.179200
C661	C66	0.047900	0.167200	0.121400
C671	C67	0.074600	0.232400	0.103000
C681	C68	0.116900	0.310700	0.146600
C691	C69	0.127400	0.320600	0.199600
C701	C70	0.099800	0.257000	0.217000
C711	C71	0.974200	0.118300	0.252600
C721	C72	0.889400	0.101100	0.232400
C731	C73	0.841600	0.114600	0.264000
C741	C74	0.887000	0.151800	0.322800
C751	C75	0.965000	0.164400	0.345800
C761	C76	0.015600	0.156500	0.308400
C771	C77	0.360600	0.257500	0.330600
C781	C78	0.328600	0.298000	0.303600
C791	C79	0.376100	0.379700	0.325200
C801	C80	0.454100	0.417500	0.369400
C811	C81	0.480700	0.378600	0.395600
C821	C82	0.434600	0.297000	0.372400
C831	C83	0.344100	0.116400	0.253600
C841	C84	0.359500	0.149100	0.211200
C851	C85	0.392400	0.118500	0.173200
C861	C86	0.402700	0.054100	0.170800
C871	C87	0.382200	0.015500	0.208200
C881	C88	0.352100	0.045300	0.249600
C891	C89	0.652200	0.317100	0.317600
C901	C90	0.661900	0.334200	0.375000
C911	C91	0.640800	0.270600	0.395400
C921	C92	0.607200	0.194300	0.360600
C931	C93	0.592600	0.181300	0.304400
C941	C94	0.614300	0.239400	0.283800
C951	C95	0.590100	0.379200	0.237000
C961	C96	0.554800	0.322800	0.183000
C971	C97	0.485200	0.311200	0.145400
C981	C98	0.442200	0.350300	0.160200
C991	C99	0.470500	0.400500	0.210400
C1001	C100	0.547500	0.421000	0.251600
C1011	C101	0.965900	0.385700	0.256000
C1021	C102	0.044800	0.447000	0.265000
C1031	C103	0.115200	0.470700	0.306000
C1041	C104	0.111400	0.435400	0.344000
C1051	C105	0.038700	0.371900	0.339000
C1061	C106	0.958400	0.343100	0.292400
C1071	C107	0.825500	0.254000	0.160800
C1081	C108	0.865800	0.222400	0.130200
C1091	C109	0.836900	0.149300	0.097400
C1101	C110	0.752300	0.096700	0.098400
C1111	C111	0.706900	0.120000	0.124400
C1121	C112	0.746600	0.202900	0.158600
C1131	C113	0.296900	0.916500	0.965600
C1141	C114	0.255300	0.932000	0.003400
C1151	C115	0.172480	0.880680	0.994360
C1161	C116	0.133500	0.809000	0.947800
C1171	C117	0.176000	0.796500	0.910800
C1181	C118	0.110000	0.966200	0.114800
C1191	C119	0.159500	0.947400	0.087600
C1201	C120	0.124110	0.899010	0.030020
C1211	C121	0.034700	0.870400	0.008400
C1221	C122	0.992400	0.892600	0.041000
C1231	C123	0.188500	0.675400	0.767800
C1241	C124	0.137600	0.596500	0.742800
C1251	C125	0.144800	0.546200	0.769800
C1261	C126	0.201600	0.582300	0.825200
C1271	C127	0.251000	0.664300	0.847800
C1281	C128	0.016900	0.340500	0.662000
C1291	C129	0.069100	0.422200	0.686400
C1301	C130	0.091000	0.458200	0.743600
C1311	C131	0.058300	0.410300	0.774400
C1321	C132	0.008500	0.331300	0.747000
C1331	C133	0.778300	0.219000	0.603200
C1341	C134	0.703100	0.209800	0.569400
C1351	C135	0.650160	0.141960	0.522520
C1361	C136	0.676200	0.085100	0.511800
C1371	C137	0.753200	0.099100	0.547600
C1381	C138	0.458300	0.168800	0.462000
C1391	C139	0.538100	0.182400	0.496600
C1401	C140	0.564970	0.128270	0.485740
C1411	C141	0.511500	0.059800	0.441200
C1421	C142	0.432900	0.047100	0.409400
C1431	C143	0.384100	0.660000	0.722800
C1441	C144	0.363100	0.610000	0.751800
C1451	C145	0.330500	0.529100	0.724200
C1461	C146	0.319200	0.506000	0.666400
C1471	C147	0.347500	0.560000	0.641400
C1481	C148	0.324700	0.445300	0.838400
C1491	C149	0.343400	0.496600	0.810400
C1501	C150	0.306900	0.472200	0.754200
C1511	C151	0.248000	0.393300	0.725200
C1521	C152	0.230400	0.344500	0.757000
C1531	C153	0.970200	0.166000	0.549000
C1541	C154	0.021500	0.163500	0.516200
C1551	C155	0.087700	0.145800	0.533600
C1561	C156	0.097300	0.133600	0.584600
C1571	C157	0.043000	0.137300	0.614000
C1581	C158	0.215700	0.176100	0.433800
C1591	C159	0.164100	0.186600	0.467000
C1601	C160	0.142400	0.138200	0.498600
C1611	C161	0.180800	0.094800	0.501400
C1621	C162	0.228500	0.087600	0.466400
C1631	C163	0.441000	0.364200	0.899000
C1641	C164	0.523700	0.381600	0.931400
C1651	C165	0.533400	0.365400	0.983200
C1661	C166	0.457200	0.329400	0.993800
C1671	C167	0.381200	0.311800	0.955800
C1681	C168	0.701000	0.347900	0.081600
C1691	C169	0.622300	0.333800	0.048800
C1701	C170	0.617600	0.382600	0.020800
C1711	C171	0.692500	0.443900	0.025400
C1721	C172	0.767700	0.457200	0.061000
C1731	C173	0.381800	0.871200	0.755000
C1741	C174	0.431590	0.861090	0.732380
C1751	C175	0.998000	0.127500	0.748800
C1761	C176	0.067200	0.138400	0.768800
C1771	C177	0.381500	0.001800	0.820800
C1781	C178	0.426500	0.045800	0.878600
C1791	C179	0.471600	0.129400	0.897000
C1801	C180	0.470300	0.164100	0.853400
C1811	C181	0.427800	0.121000	0.800400
C1821	C182	0.382800	0.040000	0.783000
C1831	C183	0.221600	0.865700	0.747400
C1841	C184	0.157000	0.868700	0.767600
C1851	C185	0.077600	0.850600	0.736000
C1861	C186	0.064200	0.829000	0.677200
C1871	C187	0.119200	0.818600	0.654200
C1881	C188	0.207200	0.848100	0.691600
C1891	C189	0.530000	0.926900	0.669400
C1901	C190	0.525000	0.994400	0.696400
C1911	C191	0.550900	0.054500	0.674800
C1921	C192	0.584700	0.048100	0.630600
C1931	C193	0.585100	0.983000	0.604400
C1941	C194	0.562200	0.924600	0.627600
C1951	C195	0.590500	0.862800	0.746400
C1961	C196	0.648300	0.937900	0.788800
C1971	C197	0.719200	0.945300	0.826800
C1981	C198	0.731900	0.883300	0.829200
C1991	C199	0.674000	0.807300	0.791800
C2001	C200	0.602500	0.795700	0.750400
C2011	C201	0.834600	0.999500	0.682400
C2021	C202	0.786900	0.959200	0.625000
C2031	C203	0.745400	0.875200	0.604600
C2041	C204	0.746600	0.833700	0.639400
C2051	C205	0.788200	0.876900	0.695600
C2061	C206	0.830500	0.955600	0.716200
C2071	C207	0.853100	0.142200	0.763000
C2081	C208	0.871800	0.139800	0.817000
C2091	C209	0.839800	0.165800	0.854600
C2101	C210	0.782000	0.190100	0.839800
C2111	C211	0.760100	0.190100	0.789600
C2121	C212	0.795900	0.169400	0.748400
C2131	C213	0.209900	0.129700	0.744000
C2141	C214	0.279800	0.182000	0.735000
C2151	C215	0.309200	0.164700	0.694000
C2161	C216	0.267400	0.091400	0.656000
C2171	C217	0.199700	0.032900	0.661000
C2181	C218	0.166000	0.050700	0.707600
C2191	C219	0.164700	0.093200	0.839200
C2201	C220	0.235600	0.092200	0.869800
C2211	C221	0.239500	0.051900	0.902600
C2221	C222	0.153900	0.998300	0.901600
C2231	C223	0.082500	0.995600	0.875600
C2241	C224	0.088000	0.044300	0.841400
N11	N1	0.840740	0.931840	0.080680
N21	N2	0.434480	0.846380	0.906160
N31	N3	0.928470	0.892270	0.179940
N41	N4	0.793850	0.602150	0.308300
N51	N5	0.710710	0.570610	0.406220
N61	N6	0.485800	0.682400	0.579600
N71	N7	0.212250	0.967950	0.331100
N81	N8	0.954990	0.554290	0.188380
N91	N9	0.881930	0.556830	0.403460
N101	N10	0.310100	0.690500	0.569400
N111	N11	0.961750	0.420350	0.089900
N121	N12	0.185850	0.320250	0.909500
N131	N13	0.260060	0.851160	0.919320
N141	N14	0.028320	0.940220	0.093840
N151	N15	0.248530	0.712330	0.820060
N161	N16	0.985550	0.293850	0.691700
N171	N17	0.804490	0.164390	0.593780
N181	N18	0.406200	0.102800	0.420400
N191	N19	0.381150	0.636850	0.668900
N201	N20	0.266610	0.365910	0.811620
N211	N21	0.978470	0.153370	0.596540
N221	N22	0.240700	0.121100	0.430600
N231	N23	0.371850	0.330450	0.910100
N241	N24	0.776350	0.410750	0.090500
B11	B1	0.094800	0.844400	0.469800
F11	F1	0.101900	0.838200	0.521400
F21	F2	0.108700	0.791800	0.436400
F31	F3	0.013700	0.829200	0.444600
F41	F4	0.152700	0.913200	0.469400
B21	B2	0.629700	0.409400	0.552000
F51	F5	0.663400	0.377600	0.586000
F61	F6	0.550900	0.360400	0.521200
F71	F7	0.631000	0.477000	0.582600
F81	F8	0.663100	0.418900	0.511200
B31	B3	0.947000	0.058400	0.948200
F91	F9	0.883800	0.074200	0.962800
F101	F10	0.921500	0.984400	0.939000
F111	F11	0.950400	0.073000	0.899000
F121	F12	0.023900	0.103100	0.989200
B41	B4	0.946000	0.663600	0.034600
F131	F13	0.948800	0.675300	0.984200
F141	F14	0.957000	0.602200	0.033800
F151	F15	0.003000	0.732700	0.078800
F161	F16	0.872200	0.641700	0.045800
B51	B5	0.125000	0.374600	0.530200
F171	F17	0.080500	0.316800	0.478600
F181	F18	0.172300	0.355400	0.563600
F191	F19	0.069100	0.384600	0.555400
F201	F20	0.183300	0.443800	0.530600
B61	B6	0.577700	0.857400	0.448000
F211	F21	0.577400	0.791600	0.414000
F221	F22	0.529700	0.839200	0.478800
F231	F23	0.548400	0.894400	0.417400
F241	F24	0.651900	0.907700	0.488800
B71	B7	0.498800	0.110200	0.051800
F251	F25	0.421000	0.111400	0.037200
F261	F26	0.482500	0.045400	0.061000
F271	F27	0.551400	0.174000	0.101000
F281	F28	0.534700	0.113900	0.010800
B81	B8	0.411400	0.629000	0.965400
F291	F29	0.464600	0.691100	0.015800
F301	F30	0.423200	0.568400	0.966200
F311	F31	0.424200	0.653900	0.921200
F321	F32	0.326400	0.595900	0.954200
