data_KUKHAB_freeONLY_PM
_symmetry_space_group_name_H-M	'P1'
_cell_length_a	26.032800
_cell_length_b	9.165500
_cell_length_c	27.438200
_cell_angle_alpha	90.000000
_cell_angle_beta	117.814000
_cell_angle_gamma	90.000000
_symmetry_Int_Tables_number 1

loop_
_symmetry_equiv_pos_as_xyz
'x,y,z'

loop_
_atom_site_label
_atom_site_type_symbol
_atom_site_fract_x
_atom_site_fract_y
_atom_site_fract_z
Zn11	Zn1	0.113170	0.136030	0.164570
N11	N1	0.256250	0.471100	0.482840
N21	N2	0.150230	0.927700	0.186930
C11	C1	0.164370	0.369300	0.313660
C21	C2	0.146700	0.484000	0.334930
H11	H1	0.114700	0.539600	0.311600
C31	C3	0.176290	0.517300	0.390870
H21	H2	0.163300	0.593200	0.404800
C41	C4	0.224980	0.437900	0.425910
C51	C5	0.242860	0.323400	0.403950
H31	H3	0.275600	0.269300	0.426700
C61	C6	0.212540	0.289800	0.349030
H41	H4	0.224700	0.211800	0.335300
C71	C7	0.318060	0.463500	0.510290
C81	C8	0.348090	0.414900	0.564710
H51	H5	0.327700	0.386900	0.583400
C91	C9	0.407970	0.408200	0.590870
H61	H6	0.427500	0.375300	0.627100
C101	C10	0.439370	0.449500	0.564180
C111	C11	0.409530	0.496800	0.509970
H71	H7	0.430200	0.524200	0.491400
C121	C12	0.349840	0.503900	0.483250
H81	H8	0.330600	0.535800	0.446900
C131	C13	0.226620	0.520600	0.511870
C141	C14	0.173900	0.459700	0.502300
H91	H9	0.158300	0.383500	0.477200
C151	C15	0.144470	0.510900	0.529570
H101	H10	0.108900	0.469800	0.522300
C161	C16	0.167460	0.624000	0.568000
C171	C17	0.221070	0.680700	0.578520
H111	H11	0.237600	0.754100	0.604700
C181	C18	0.250220	0.630700	0.550970
H121	H12	0.286000	0.670900	0.558600
C191	C19	0.132610	0.332500	0.252440
C201	C20	0.505180	0.444100	0.592770
C211	C21	0.133460	0.684000	0.595640
C221	C22	0.179430	0.885300	0.239440
H131	H13	0.185200	0.952200	0.267000
C231	C23	0.201270	0.746500	0.254280
H141	H14	0.222000	0.721300	0.291300
C241	C24	0.192520	0.646200	0.214600
H151	H15	0.205900	0.550900	0.223900
C251	C25	0.163940	0.688200	0.161120
H161	H16	0.158300	0.622600	0.133200
C261	C26	0.143350	0.828500	0.148440
H171	H17	0.123800	0.855800	0.111600
O11	O1	0.095620	0.415700	0.221180
O21	O2	0.148270	0.214700	0.239440
O31	O3	0.531760	0.504900	0.571130
O41	O4	0.529300	0.378000	0.638240
O51	O5	0.157050	0.788700	0.628480
O61	O6	0.085330	0.632900	0.583980
Zn21	Zn2	0.613170	0.636030	0.164570
N31	N3	0.756250	0.971100	0.482840
N41	N4	0.650230	0.427700	0.186930
C271	C27	0.664370	0.869300	0.313660
C281	C28	0.646700	0.984000	0.334930
H181	H18	0.614700	0.039600	0.311600
C291	C29	0.676290	0.017300	0.390870
H191	H19	0.663300	0.093200	0.404800
C301	C30	0.724980	0.937900	0.425910
C311	C31	0.742860	0.823400	0.403950
H201	H20	0.775600	0.769300	0.426700
C321	C32	0.712540	0.789800	0.349030
H211	H21	0.724700	0.711800	0.335300
C331	C33	0.818060	0.963500	0.510290
C341	C34	0.848090	0.914900	0.564710
H221	H22	0.827700	0.886900	0.583400
C351	C35	0.907970	0.908200	0.590870
H231	H23	0.927500	0.875300	0.627100
C361	C36	0.939370	0.949500	0.564180
C371	C37	0.909530	0.996800	0.509970
H241	H24	0.930200	0.024200	0.491400
C381	C38	0.849840	0.003900	0.483250
H251	H25	0.830600	0.035800	0.446900
C391	C39	0.726620	0.020600	0.511870
C401	C40	0.673900	0.959700	0.502300
H261	H26	0.658300	0.883500	0.477200
C411	C41	0.644470	0.010900	0.529570
H271	H27	0.608900	0.969800	0.522300
C421	C42	0.667460	0.124000	0.568000
C431	C43	0.721070	0.180700	0.578520
H281	H28	0.737600	0.254100	0.604700
C441	C44	0.750220	0.130700	0.550970
H291	H29	0.786000	0.170900	0.558600
C451	C45	0.632610	0.832500	0.252440
C461	C46	0.005180	0.944100	0.592770
C471	C47	0.633460	0.184000	0.595640
C481	C48	0.679430	0.385300	0.239440
H301	H30	0.685200	0.452200	0.267000
C491	C49	0.701270	0.246500	0.254280
H311	H31	0.722000	0.221300	0.291300
C501	C50	0.692520	0.146200	0.214600
H321	H32	0.705900	0.050900	0.223900
C511	C51	0.663940	0.188200	0.161120
H331	H33	0.658300	0.122600	0.133200
C521	C52	0.643350	0.328500	0.148440
H341	H34	0.623800	0.355800	0.111600
O71	O7	0.595620	0.915700	0.221180
O81	O8	0.648270	0.714700	0.239440
O91	O9	0.031760	0.004900	0.571130
O101	O10	0.029300	0.878000	0.638240
O111	O11	0.657050	0.288700	0.628480
O121	O12	0.585330	0.132900	0.583980
Zn31	Zn3	0.113170	0.863970	0.664570
N51	N5	0.256250	0.528900	0.982840
N61	N6	0.150230	0.072300	0.686930
C531	C53	0.164370	0.630700	0.813660
C541	C54	0.146700	0.516000	0.834930
H351	H35	0.114700	0.460400	0.811600
C551	C55	0.176290	0.482700	0.890870
H361	H36	0.163300	0.406800	0.904800
C561	C56	0.224980	0.562100	0.925910
C571	C57	0.242860	0.676600	0.903950
H371	H37	0.275600	0.730700	0.926700
C581	C58	0.212540	0.710200	0.849030
H381	H38	0.224700	0.788200	0.835300
C591	C59	0.318060	0.536500	0.010290
C601	C60	0.348090	0.585100	0.064710
H391	H39	0.327700	0.613100	0.083400
C611	C61	0.407970	0.591800	0.090870
H401	H40	0.427500	0.624700	0.127100
C621	C62	0.439370	0.550500	0.064180
C631	C63	0.409530	0.503200	0.009970
H411	H41	0.430200	0.475800	0.991400
C641	C64	0.349840	0.496100	0.983250
H421	H42	0.330600	0.464200	0.946900
C651	C65	0.226620	0.479400	0.011870
C661	C66	0.173900	0.540300	0.002300
H431	H43	0.158300	0.616500	0.977200
C671	C67	0.144470	0.489100	0.029570
H441	H44	0.108900	0.530200	0.022300
C681	C68	0.167460	0.376000	0.068000
C691	C69	0.221070	0.319300	0.078520
H451	H45	0.237600	0.245900	0.104700
C701	C70	0.250220	0.369300	0.050970
H461	H46	0.286000	0.329100	0.058600
C711	C71	0.132610	0.667500	0.752440
C721	C72	0.505180	0.555900	0.092770
C731	C73	0.133460	0.316000	0.095640
C741	C74	0.179430	0.114700	0.739440
H471	H47	0.185200	0.047800	0.767000
C751	C75	0.201270	0.253500	0.754280
H481	H48	0.222000	0.278700	0.791300
C761	C76	0.192520	0.353800	0.714600
H491	H49	0.205900	0.449100	0.723900
C771	C77	0.163940	0.311800	0.661120
H501	H50	0.158300	0.377400	0.633200
C781	C78	0.143350	0.171500	0.648440
H511	H51	0.123800	0.144200	0.611600
O131	O13	0.095620	0.584300	0.721180
O141	O14	0.148270	0.785300	0.739440
O151	O15	0.531760	0.495100	0.071130
O161	O16	0.529300	0.622000	0.138240
O171	O17	0.157050	0.211300	0.128480
O181	O18	0.085330	0.367100	0.083980
Zn41	Zn4	0.613170	0.363970	0.664570
N71	N7	0.756250	0.028900	0.982840
N81	N8	0.650230	0.572300	0.686930
C791	C79	0.664370	0.130700	0.813660
C801	C80	0.646700	0.016000	0.834930
H521	H52	0.614700	0.960400	0.811600
C811	C81	0.676290	0.982700	0.890870
H531	H53	0.663300	0.906800	0.904800
C821	C82	0.724980	0.062100	0.925910
C831	C83	0.742860	0.176600	0.903950
H541	H54	0.775600	0.230700	0.926700
C841	C84	0.712540	0.210200	0.849030
H551	H55	0.724700	0.288200	0.835300
C851	C85	0.818060	0.036500	0.010290
C861	C86	0.848090	0.085100	0.064710
H561	H56	0.827700	0.113100	0.083400
C871	C87	0.907970	0.091800	0.090870
H571	H57	0.927500	0.124700	0.127100
C881	C88	0.939370	0.050500	0.064180
C891	C89	0.909530	0.003200	0.009970
H581	H58	0.930200	0.975800	0.991400
C901	C90	0.849840	0.996100	0.983250
H591	H59	0.830600	0.964200	0.946900
C911	C91	0.726620	0.979400	0.011870
C921	C92	0.673900	0.040300	0.002300
H601	H60	0.658300	0.116500	0.977200
C931	C93	0.644470	0.989100	0.029570
H611	H61	0.608900	0.030200	0.022300
C941	C94	0.667460	0.876000	0.068000
C951	C95	0.721070	0.819300	0.078520
H621	H62	0.737600	0.745900	0.104700
C961	C96	0.750220	0.869300	0.050970
H631	H63	0.786000	0.829100	0.058600
C971	C97	0.632610	0.167500	0.752440
C981	C98	0.005180	0.055900	0.092770
C991	C99	0.633460	0.816000	0.095640
C1001	C100	0.679430	0.614700	0.739440
H641	H64	0.685200	0.547800	0.767000
C1011	C101	0.701270	0.753500	0.754280
H651	H65	0.722000	0.778700	0.791300
C1021	C102	0.692520	0.853800	0.714600
H661	H66	0.705900	0.949100	0.723900
C1031	C103	0.663940	0.811800	0.661120
H671	H67	0.658300	0.877400	0.633200
C1041	C104	0.643350	0.671500	0.648440
H681	H68	0.623800	0.644200	0.611600
O191	O19	0.595620	0.084300	0.721180
O201	O20	0.648270	0.285300	0.739440
O211	O21	0.031760	0.995100	0.071130
O221	O22	0.029300	0.122000	0.138240
O231	O23	0.657050	0.711300	0.128480
O241	O24	0.585330	0.867100	0.083980
Zn51	Zn5	0.886830	0.136030	0.335430
N91	N9	0.743750	0.471100	0.017160
N101	N10	0.849770	0.927700	0.313070
C1051	C105	0.835630	0.369300	0.186340
C1061	C106	0.853300	0.484000	0.165070
H691	H69	0.885300	0.539600	0.188400
C1071	C107	0.823710	0.517300	0.109130
H701	H70	0.836700	0.593200	0.095200
C1081	C108	0.775020	0.437900	0.074090
C1091	C109	0.757140	0.323400	0.096050
H711	H71	0.724400	0.269300	0.073300
C1101	C110	0.787460	0.289800	0.150970
H721	H72	0.775300	0.211800	0.164700
C1111	C111	0.681940	0.463500	0.989710
C1121	C112	0.651910	0.414900	0.935290
H731	H73	0.672300	0.386900	0.916600
C1131	C113	0.592030	0.408200	0.909130
H741	H74	0.572500	0.375300	0.872900
C1141	C114	0.560630	0.449500	0.935820
C1151	C115	0.590470	0.496800	0.990030
H751	H75	0.569800	0.524200	0.008600
C1161	C116	0.650160	0.503900	0.016750
H761	H76	0.669400	0.535800	0.053100
C1171	C117	0.773380	0.520600	0.988130
C1181	C118	0.826100	0.459700	0.997700
H771	H77	0.841700	0.383500	0.022800
C1191	C119	0.855530	0.510900	0.970430
H781	H78	0.891100	0.469800	0.977700
C1201	C120	0.832540	0.624000	0.932000
C1211	C121	0.778930	0.680700	0.921480
H791	H79	0.762400	0.754100	0.895300
C1221	C122	0.749780	0.630700	0.949030
H801	H80	0.714000	0.670900	0.941400
C1231	C123	0.867390	0.332500	0.247560
C1241	C124	0.494820	0.444100	0.907230
C1251	C125	0.866540	0.684000	0.904360
C1261	C126	0.820570	0.885300	0.260560
H811	H81	0.814800	0.952200	0.233000
C1271	C127	0.798730	0.746500	0.245720
H821	H82	0.778000	0.721300	0.208700
C1281	C128	0.807480	0.646200	0.285400
H831	H83	0.794100	0.550900	0.276100
C1291	C129	0.836060	0.688200	0.338880
H841	H84	0.841700	0.622600	0.366800
C1301	C130	0.856650	0.828500	0.351560
H851	H85	0.876200	0.855800	0.388400
O251	O25	0.904380	0.415700	0.278820
O261	O26	0.851730	0.214700	0.260560
O271	O27	0.468240	0.504900	0.928870
O281	O28	0.470700	0.378000	0.861760
O291	O29	0.842950	0.788700	0.871520
O301	O30	0.914670	0.632900	0.916020
Zn61	Zn6	0.386830	0.636030	0.335430
N111	N11	0.243750	0.971100	0.017160
N121	N12	0.349770	0.427700	0.313070
C1311	C131	0.335630	0.869300	0.186340
C1321	C132	0.353300	0.984000	0.165070
H861	H86	0.385300	0.039600	0.188400
C1331	C133	0.323710	0.017300	0.109130
H871	H87	0.336700	0.093200	0.095200
C1341	C134	0.275020	0.937900	0.074090
C1351	C135	0.257140	0.823400	0.096050
H881	H88	0.224400	0.769300	0.073300
C1361	C136	0.287460	0.789800	0.150970
H891	H89	0.275300	0.711800	0.164700
C1371	C137	0.181940	0.963500	0.989710
C1381	C138	0.151910	0.914900	0.935290
H901	H90	0.172300	0.886900	0.916600
C1391	C139	0.092030	0.908200	0.909130
H911	H91	0.072500	0.875300	0.872900
C1401	C140	0.060630	0.949500	0.935820
C1411	C141	0.090470	0.996800	0.990030
H921	H92	0.069800	0.024200	0.008600
C1421	C142	0.150160	0.003900	0.016750
H931	H93	0.169400	0.035800	0.053100
C1431	C143	0.273380	0.020600	0.988130
C1441	C144	0.326100	0.959700	0.997700
H941	H94	0.341700	0.883500	0.022800
C1451	C145	0.355530	0.010900	0.970430
H951	H95	0.391100	0.969800	0.977700
C1461	C146	0.332540	0.124000	0.932000
C1471	C147	0.278930	0.180700	0.921480
H961	H96	0.262400	0.254100	0.895300
C1481	C148	0.249780	0.130700	0.949030
H971	H97	0.214000	0.170900	0.941400
C1491	C149	0.367390	0.832500	0.247560
C1501	C150	0.994820	0.944100	0.907230
C1511	C151	0.366540	0.184000	0.904360
C1521	C152	0.320570	0.385300	0.260560
H981	H98	0.314800	0.452200	0.233000
C1531	C153	0.298730	0.246500	0.245720
H991	H99	0.278000	0.221300	0.208700
C1541	C154	0.307480	0.146200	0.285400
H1001	H100	0.294100	0.050900	0.276100
C1551	C155	0.336060	0.188200	0.338880
H1011	H101	0.341700	0.122600	0.366800
C1561	C156	0.356650	0.328500	0.351560
H1021	H102	0.376200	0.355800	0.388400
O311	O31	0.404380	0.915700	0.278820
O321	O32	0.351730	0.714700	0.260560
O331	O33	0.968240	0.004900	0.928870
O341	O34	0.970700	0.878000	0.861760
O351	O35	0.342950	0.288700	0.871520
O361	O36	0.414670	0.132900	0.916020
Zn71	Zn7	0.886830	0.863970	0.835430
N131	N13	0.743750	0.528900	0.517160
N141	N14	0.849770	0.072300	0.813070
C1571	C157	0.835630	0.630700	0.686340
C1581	C158	0.853300	0.516000	0.665070
H1031	H103	0.885300	0.460400	0.688400
C1591	C159	0.823710	0.482700	0.609130
H1041	H104	0.836700	0.406800	0.595200
C1601	C160	0.775020	0.562100	0.574090
C1611	C161	0.757140	0.676600	0.596050
H1051	H105	0.724400	0.730700	0.573300
C1621	C162	0.787460	0.710200	0.650970
H1061	H106	0.775300	0.788200	0.664700
C1631	C163	0.681940	0.536500	0.489710
C1641	C164	0.651910	0.585100	0.435290
H1071	H107	0.672300	0.613100	0.416600
C1651	C165	0.592030	0.591800	0.409130
H1081	H108	0.572500	0.624700	0.372900
C1661	C166	0.560630	0.550500	0.435820
C1671	C167	0.590470	0.503200	0.490030
H1091	H109	0.569800	0.475800	0.508600
C1681	C168	0.650160	0.496100	0.516750
H1101	H110	0.669400	0.464200	0.553100
C1691	C169	0.773380	0.479400	0.488130
C1701	C170	0.826100	0.540300	0.497700
H1111	H111	0.841700	0.616500	0.522800
C1711	C171	0.855530	0.489100	0.470430
H1121	H112	0.891100	0.530200	0.477700
C1721	C172	0.832540	0.376000	0.432000
C1731	C173	0.778930	0.319300	0.421480
H1131	H113	0.762400	0.245900	0.395300
C1741	C174	0.749780	0.369300	0.449030
H1141	H114	0.714000	0.329100	0.441400
C1751	C175	0.867390	0.667500	0.747560
C1761	C176	0.494820	0.555900	0.407230
C1771	C177	0.866540	0.316000	0.404360
C1781	C178	0.820570	0.114700	0.760560
H1151	H115	0.814800	0.047800	0.733000
C1791	C179	0.798730	0.253500	0.745720
H1161	H116	0.778000	0.278700	0.708700
C1801	C180	0.807480	0.353800	0.785400
H1171	H117	0.794100	0.449100	0.776100
C1811	C181	0.836060	0.311800	0.838880
H1181	H118	0.841700	0.377400	0.866800
C1821	C182	0.856650	0.171500	0.851560
H1191	H119	0.876200	0.144200	0.888400
O371	O37	0.904380	0.584300	0.778820
O381	O38	0.851730	0.785300	0.760560
O391	O39	0.468240	0.495100	0.428870
O401	O40	0.470700	0.622000	0.361760
O411	O41	0.842950	0.211300	0.371520
O421	O42	0.914670	0.367100	0.416020
Zn81	Zn8	0.386830	0.363970	0.835430
N151	N15	0.243750	0.028900	0.517160
N161	N16	0.349770	0.572300	0.813070
C1831	C183	0.335630	0.130700	0.686340
C1841	C184	0.353300	0.016000	0.665070
H1201	H120	0.385300	0.960400	0.688400
C1851	C185	0.323710	0.982700	0.609130
H1211	H121	0.336700	0.906800	0.595200
C1861	C186	0.275020	0.062100	0.574090
C1871	C187	0.257140	0.176600	0.596050
H1221	H122	0.224400	0.230700	0.573300
C1881	C188	0.287460	0.210200	0.650970
H1231	H123	0.275300	0.288200	0.664700
C1891	C189	0.181940	0.036500	0.489710
C1901	C190	0.151910	0.085100	0.435290
H1241	H124	0.172300	0.113100	0.416600
C1911	C191	0.092030	0.091800	0.409130
H1251	H125	0.072500	0.124700	0.372900
C1921	C192	0.060630	0.050500	0.435820
C1931	C193	0.090470	0.003200	0.490030
H1261	H126	0.069800	0.975800	0.508600
C1941	C194	0.150160	0.996100	0.516750
H1271	H127	0.169400	0.964200	0.553100
C1951	C195	0.273380	0.979400	0.488130
C1961	C196	0.326100	0.040300	0.497700
H1281	H128	0.341700	0.116500	0.522800
C1971	C197	0.355530	0.989100	0.470430
H1291	H129	0.391100	0.030200	0.477700
C1981	C198	0.332540	0.876000	0.432000
C1991	C199	0.278930	0.819300	0.421480
H1301	H130	0.262400	0.745900	0.395300
C2001	C200	0.249780	0.869300	0.449030
H1311	H131	0.214000	0.829100	0.441400
C2011	C201	0.367390	0.167500	0.747560
C2021	C202	0.994820	0.055900	0.407230
C2031	C203	0.366540	0.816000	0.404360
C2041	C204	0.320570	0.614700	0.760560
H1321	H132	0.314800	0.547800	0.733000
C2051	C205	0.298730	0.753500	0.745720
H1331	H133	0.278000	0.778700	0.708700
C2061	C206	0.307480	0.853800	0.785400
H1341	H134	0.294100	0.949100	0.776100
C2071	C207	0.336060	0.811800	0.838880
H1351	H135	0.341700	0.877400	0.866800
C2081	C208	0.356650	0.671500	0.851560
H1361	H136	0.376200	0.644200	0.888400
O431	O43	0.404380	0.084300	0.778820
O441	O44	0.351730	0.285300	0.760560
O451	O45	0.968240	0.995100	0.428870
O461	O46	0.970700	0.122000	0.361760
O471	O47	0.342950	0.711300	0.371520
O481	O48	0.414670	0.867100	0.416020
