data_KUKPOX_freeONLY_PM
_symmetry_space_group_name_H-M	'P1'
_cell_length_a	13.306900
_cell_length_b	25.629000
_cell_length_c	9.856000
_cell_angle_alpha	90.000000
_cell_angle_beta	91.455000
_cell_angle_gamma	90.000000
_symmetry_Int_Tables_number 1

loop_
_symmetry_equiv_pos_as_xyz
'x,y,z'

loop_
_atom_site_label
_atom_site_type_symbol
_atom_site_fract_x
_atom_site_fract_y
_atom_site_fract_z
Cu11	Cu1	0.281580	0.514510	0.617770
Cu21	Cu2	0.459750	0.459680	0.550240
Cu31	Cu3	0.387410	0.548770	0.350970
Cu41	Cu4	0.766720	0.889460	0.609640
Cl11	Cl1	0.676170	0.819980	0.540220
Cl21	Cl2	0.300790	0.548600	0.861570
O11	O1	0.298400	0.608390	0.386000
N11	N1	0.014700	0.800250	0.523900
O21	O2	0.347000	0.449260	0.664500
O31	O3	0.412700	0.533350	0.541700
N21	N2	0.142600	0.571750	0.158000
O41	O4	0.581400	0.473590	0.457400
N31	N3	0.149400	0.518230	0.159300
C11	C1	0.175400	0.660590	0.488900
O51	O5	0.208800	0.575610	0.555700
N41	N4	0.999900	0.539040	0.218100
C21	C2	0.700800	0.516020	0.322000
O61	O6	0.525400	0.529450	0.296000
N51	N5	0.979400	0.882400	0.542500
C31	C3	0.190600	0.702480	0.394800
H11	H1	0.237100	0.699000	0.323800
C41	C4	0.821900	0.566300	0.207300
H21	H2	0.837700	0.594900	0.150600
C51	C5	0.065200	0.499000	0.196600
H31	H3	0.050900	0.462900	0.207400
C61	C6	0.136700	0.747730	0.409500
H41	H4	0.145800	0.775800	0.348100
C71	C7	0.106100	0.666900	0.588200
H51	H5	0.094300	0.638900	0.649100
C81	C8	0.874500	0.492200	0.346200
H61	H6	0.926200	0.471100	0.385400
C91	C9	0.725700	0.556200	0.241000
H71	H7	0.673900	0.578300	0.206300
N61	N6	0.895300	0.853500	0.571600
C101	C10	0.897300	0.533180	0.258500
C111	C11	0.050900	0.850260	0.513900
H81	H8	0.117200	0.859700	0.490000
C121	C12	0.776800	0.483300	0.373700
H91	H9	0.759500	0.454400	0.428900
C131	C13	0.054000	0.711900	0.601700
H101	H10	0.006900	0.715900	0.671800
C141	C14	0.919200	0.805650	0.558700
H111	H11	0.874400	0.777300	0.572300
C151	C15	0.231400	0.610620	0.473900
C161	C16	0.592700	0.504990	0.360900
C171	C17	0.071400	0.752630	0.509600
C181	C18	0.051500	0.583300	0.191700
H121	H12	0.025100	0.617600	0.196900
Cu51	Cu5	0.781580	0.014510	0.617770
Cu61	Cu6	0.959750	0.959680	0.550240
Cu71	Cu7	0.887410	0.048770	0.350970
Cu81	Cu8	0.266720	0.389460	0.609640
Cl31	Cl3	0.176170	0.319980	0.540220
Cl41	Cl4	0.800790	0.048600	0.861570
O71	O7	0.798400	0.108390	0.386000
N71	N7	0.514700	0.300250	0.523900
O81	O8	0.847000	0.949260	0.664500
O91	O9	0.912700	0.033350	0.541700
N81	N8	0.642600	0.071750	0.158000
O101	O10	0.081400	0.973590	0.457400
N91	N9	0.649400	0.018230	0.159300
C191	C19	0.675400	0.160590	0.488900
O111	O11	0.708800	0.075610	0.555700
N101	N10	0.499900	0.039040	0.218100
C201	C20	0.200800	0.016020	0.322000
O121	O12	0.025400	0.029450	0.296000
N111	N11	0.479400	0.382400	0.542500
C211	C21	0.690600	0.202480	0.394800
H131	H13	0.737100	0.199000	0.323800
C221	C22	0.321900	0.066300	0.207300
H141	H14	0.337700	0.094900	0.150600
C231	C23	0.565200	0.999000	0.196600
H151	H15	0.550900	0.962900	0.207400
C241	C24	0.636700	0.247730	0.409500
H161	H16	0.645800	0.275800	0.348100
C251	C25	0.606100	0.166900	0.588200
H171	H17	0.594300	0.138900	0.649100
C261	C26	0.374500	0.992200	0.346200
H181	H18	0.426200	0.971100	0.385400
C271	C27	0.225700	0.056200	0.241000
H191	H19	0.173900	0.078300	0.206300
N121	N12	0.395300	0.353500	0.571600
C281	C28	0.397300	0.033180	0.258500
C291	C29	0.550900	0.350260	0.513900
H201	H20	0.617200	0.359700	0.490000
C301	C30	0.276800	0.983300	0.373700
H211	H21	0.259500	0.954400	0.428900
C311	C31	0.554000	0.211900	0.601700
H221	H22	0.506900	0.215900	0.671800
C321	C32	0.419200	0.305650	0.558700
H231	H23	0.374400	0.277300	0.572300
C331	C33	0.731400	0.110620	0.473900
C341	C34	0.092700	0.004990	0.360900
C351	C35	0.571400	0.252630	0.509600
C361	C36	0.551500	0.083300	0.191700
H241	H24	0.525100	0.117600	0.196900
Cu91	Cu9	0.281580	0.485490	0.117770
Cu101	Cu10	0.459750	0.540320	0.050240
Cu111	Cu11	0.387410	0.451230	0.850970
Cu121	Cu12	0.766720	0.110540	0.109640
Cl51	Cl5	0.676170	0.180020	0.040220
Cl61	Cl6	0.300790	0.451400	0.361570
O131	O13	0.298400	0.391610	0.886000
N131	N13	0.014700	0.199750	0.023900
O141	O14	0.347000	0.550740	0.164500
O151	O15	0.412700	0.466650	0.041700
N141	N14	0.142600	0.428250	0.658000
O161	O16	0.581400	0.526410	0.957400
N151	N15	0.149400	0.481770	0.659300
C371	C37	0.175400	0.339410	0.988900
O171	O17	0.208800	0.424390	0.055700
N161	N16	0.999900	0.460960	0.718100
C381	C38	0.700800	0.483980	0.822000
O181	O18	0.525400	0.470550	0.796000
N171	N17	0.979400	0.117600	0.042500
C391	C39	0.190600	0.297520	0.894800
H251	H25	0.237100	0.301000	0.823800
C401	C40	0.821900	0.433700	0.707300
H261	H26	0.837700	0.405100	0.650600
C411	C41	0.065200	0.501000	0.696600
H271	H27	0.050900	0.537100	0.707400
C421	C42	0.136700	0.252270	0.909500
H281	H28	0.145800	0.224200	0.848100
C431	C43	0.106100	0.333100	0.088200
H291	H29	0.094300	0.361100	0.149100
C441	C44	0.874500	0.507800	0.846200
H301	H30	0.926200	0.528900	0.885400
C451	C45	0.725700	0.443800	0.741000
H311	H31	0.673900	0.421700	0.706300
N181	N18	0.895300	0.146500	0.071600
C461	C46	0.897300	0.466820	0.758500
C471	C47	0.050900	0.149740	0.013900
H321	H32	0.117200	0.140300	0.990000
C481	C48	0.776800	0.516700	0.873700
H331	H33	0.759500	0.545600	0.928900
C491	C49	0.054000	0.288100	0.101700
H341	H34	0.006900	0.284100	0.171800
C501	C50	0.919200	0.194350	0.058700
H351	H35	0.874400	0.222700	0.072300
C511	C51	0.231400	0.389380	0.973900
C521	C52	0.592700	0.495010	0.860900
C531	C53	0.071400	0.247370	0.009600
C541	C54	0.051500	0.416700	0.691700
H361	H36	0.025100	0.382400	0.696900
Cu131	Cu13	0.781580	0.985490	0.117770
Cu141	Cu14	0.959750	0.040320	0.050240
Cu151	Cu15	0.887410	0.951230	0.850970
Cu161	Cu16	0.266720	0.610540	0.109640
Cl71	Cl7	0.176170	0.680020	0.040220
Cl81	Cl8	0.800790	0.951400	0.361570
O191	O19	0.798400	0.891610	0.886000
N191	N19	0.514700	0.699750	0.023900
O201	O20	0.847000	0.050740	0.164500
O211	O21	0.912700	0.966650	0.041700
N201	N20	0.642600	0.928250	0.658000
O221	O22	0.081400	0.026410	0.957400
N211	N21	0.649400	0.981770	0.659300
C551	C55	0.675400	0.839410	0.988900
O231	O23	0.708800	0.924390	0.055700
N221	N22	0.499900	0.960960	0.718100
C561	C56	0.200800	0.983980	0.822000
O241	O24	0.025400	0.970550	0.796000
N231	N23	0.479400	0.617600	0.042500
C571	C57	0.690600	0.797520	0.894800
H371	H37	0.737100	0.801000	0.823800
C581	C58	0.321900	0.933700	0.707300
H381	H38	0.337700	0.905100	0.650600
C591	C59	0.565200	0.001000	0.696600
H391	H39	0.550900	0.037100	0.707400
C601	C60	0.636700	0.752270	0.909500
H401	H40	0.645800	0.724200	0.848100
C611	C61	0.606100	0.833100	0.088200
H411	H41	0.594300	0.861100	0.149100
C621	C62	0.374500	0.007800	0.846200
H421	H42	0.426200	0.028900	0.885400
C631	C63	0.225700	0.943800	0.741000
H431	H43	0.173900	0.921700	0.706300
N241	N24	0.395300	0.646500	0.071600
C641	C64	0.397300	0.966820	0.758500
C651	C65	0.550900	0.649740	0.013900
H441	H44	0.617200	0.640300	0.990000
C661	C66	0.276800	0.016700	0.873700
H451	H45	0.259500	0.045600	0.928900
C671	C67	0.554000	0.788100	0.101700
H461	H46	0.506900	0.784100	0.171800
C681	C68	0.419200	0.694350	0.058700
H471	H47	0.374400	0.722700	0.072300
C691	C69	0.731400	0.889380	0.973900
C701	C70	0.092700	0.995010	0.860900
C711	C71	0.571400	0.747370	0.009600
C721	C72	0.551500	0.916700	0.691700
H481	H48	0.525100	0.882400	0.696900
