data_LABJUV_freeONLY_PM
_symmetry_space_group_name_H-M	'P1'
_cell_length_a	10.165200
_cell_length_b	14.634200
_cell_length_c	15.282900
_cell_angle_alpha	117.538000
_cell_angle_beta	96.141000
_cell_angle_gamma	104.338000
_symmetry_Int_Tables_number 1

loop_
_symmetry_equiv_pos_as_xyz
'x,y,z'

loop_
_atom_site_label
_atom_site_type_symbol
_atom_site_fract_x
_atom_site_fract_y
_atom_site_fract_z
Cu11	Cu1	0.939900	0.575470	0.533690
Cu21	Cu2	0.941590	0.616510	0.745240
Cu31	Cu3	0.735690	0.726460	0.781850
Cu41	Cu4	0.672060	0.510810	0.754300
Cu51	Cu5	0.847930	0.685520	0.914570
Cu61	Cu6	0.060100	0.424530	0.466310
Cu71	Cu7	0.058410	0.383490	0.254760
Cu81	Cu8	0.264310	0.273540	0.218150
Cu91	Cu9	0.327940	0.489190	0.245700
Cu101	Cu10	0.152070	0.314480	0.085430
H11	H1	0.112400	0.813700	0.673400
H21	H2	0.297400	0.935900	0.670700
H31	H3	0.187200	0.751900	0.365800
H41	H4	0.003100	0.634400	0.376600
H51	H5	0.275400	0.942300	0.402100
H61	H6	0.432500	0.756900	0.530500
H71	H7	0.511700	0.677900	0.615500
H81	H8	0.778100	0.959300	0.826400
H91	H9	0.707000	0.044600	0.748000
H101	H10	0.090900	0.092700	0.915900
H111	H11	0.062400	0.996000	0.744700
H121	H12	0.084800	0.270200	0.738900
H131	H13	0.109600	0.357200	0.912100
H141	H14	0.882100	0.934500	0.590100
H151	H15	0.196500	0.271500	0.528800
H161	H16	0.402800	0.415700	0.603300
H171	H17	0.552900	0.299300	0.755600
H181	H18	0.350100	0.157000	0.693500
H191	H19	0.887600	0.186300	0.326600
H201	H20	0.702600	0.064100	0.329300
H211	H21	0.812800	0.248100	0.634200
H221	H22	0.996900	0.365600	0.623400
H231	H23	0.724600	0.057700	0.597900
H241	H24	0.567500	0.243100	0.469500
H251	H25	0.488300	0.322100	0.384500
H261	H26	0.221900	0.040700	0.173600
H271	H27	0.293000	0.955400	0.252000
H281	H28	0.909100	0.907300	0.084100
H291	H29	0.937600	0.004000	0.255300
H301	H30	0.915200	0.729800	0.261100
H311	H31	0.890400	0.642800	0.087900
H321	H32	0.117900	0.065500	0.409900
H331	H33	0.803500	0.728500	0.471200
H341	H34	0.597200	0.584300	0.396700
H351	H35	0.447100	0.700700	0.244400
H361	H36	0.649900	0.843000	0.306500
C11	C1	0.128900	0.800400	0.610600
C21	C2	0.239800	0.874600	0.609800
C31	C3	0.266100	0.857100	0.515700
C41	C4	0.174700	0.766000	0.429700
C51	C5	0.064400	0.694800	0.436500
C61	C6	0.389500	0.928900	0.508900
C71	C7	0.365700	0.966600	0.442400
C81	C8	0.525000	0.959700	0.565000
C91	C9	0.564000	0.910400	0.627000
C101	C10	0.504900	0.800000	0.590100
C111	C11	0.553000	0.752600	0.641500
C121	C12	0.709000	0.917400	0.764900
C131	C13	0.666500	0.969200	0.718100
C141	C14	0.089000	0.129000	0.879600
C151	C15	0.071500	0.069800	0.776600
C161	C16	0.067700	0.121600	0.720800
C171	C17	0.084400	0.231700	0.773200
C181	C18	0.100400	0.283400	0.877600
C191	C19	0.040400	0.058500	0.606100
C201	C20	0.929100	0.961500	0.553400
C211	C21	0.115500	0.097200	0.552100
C221	C22	0.247500	0.196000	0.603000
C231	C23	0.266900	0.275800	0.576300
C241	C24	0.392100	0.361900	0.621000
C251	C25	0.479200	0.295000	0.710500
C261	C26	0.358100	0.208000	0.672500
C271	C27	0.871100	0.199600	0.389400
C281	C28	0.760200	0.125400	0.390200
C291	C29	0.733900	0.142900	0.484300
C301	C30	0.825300	0.234000	0.570300
C311	C31	0.935600	0.305200	0.563500
C321	C32	0.610500	0.071100	0.491100
C331	C33	0.634300	0.033400	0.557600
C341	C34	0.475000	0.040300	0.435000
C351	C35	0.436000	0.089600	0.373000
C361	C36	0.495100	0.200000	0.409900
C371	C37	0.447000	0.247400	0.358500
C381	C38	0.291000	0.082600	0.235100
C391	C39	0.333500	0.030800	0.281900
C401	C40	0.911000	0.871000	0.120400
C411	C41	0.928500	0.930200	0.223400
C421	C42	0.932300	0.878400	0.279200
C431	C43	0.915600	0.768300	0.226800
C441	C44	0.899600	0.716600	0.122400
C451	C45	0.959600	0.941500	0.393900
C461	C46	0.070900	0.038500	0.446600
C471	C47	0.884500	0.902800	0.447900
C481	C48	0.752500	0.804000	0.397000
C491	C49	0.733100	0.724200	0.423700
C501	C50	0.607900	0.638100	0.379000
C511	C51	0.520800	0.705000	0.289500
C521	C52	0.641900	0.792000	0.327500
I11	I1	0.709640	0.538560	0.591010
I21	I2	0.154710	0.587630	0.664580
I31	I3	0.005170	0.832810	0.871580
I41	I4	0.897340	0.497910	0.842730
I51	I5	0.568250	0.662190	0.874070
I61	I6	0.290360	0.461440	0.408990
I71	I7	0.845290	0.412370	0.335420
I81	I8	0.994830	0.167190	0.128420
I91	I9	0.102660	0.502090	0.157270
I101	I10	0.431750	0.337810	0.125930
N11	N1	0.042300	0.709500	0.526500
N21	N2	0.656600	0.810800	0.727000
N31	N3	0.103300	0.233700	0.931700
N41	N4	0.499100	0.372800	0.688200
N51	N5	0.957700	0.290500	0.473500
N61	N6	0.343400	0.189200	0.273000
N71	N7	0.896700	0.766300	0.068300
N81	N8	0.500900	0.627200	0.311800
