data_LABNAG_freeONLY_PM
_symmetry_space_group_name_H-M	'P1'
_cell_length_a	32.807200
_cell_length_b	14.912300
_cell_length_c	34.906200
_cell_angle_alpha	90.000000
_cell_angle_beta	105.822000
_cell_angle_gamma	90.000000
_symmetry_Int_Tables_number 1

loop_
_symmetry_equiv_pos_as_xyz
'x,y,z'

loop_
_atom_site_label
_atom_site_type_symbol
_atom_site_fract_x
_atom_site_fract_y
_atom_site_fract_z
N11	N1	0.938390	0.336300	0.113940
I11	I1	0.955450	0.406800	0.017400
Zn11	Zn1	0.980810	0.314350	0.080950
C11	C1	0.925200	0.420100	0.118700
H11	H1	0.936200	0.468600	0.107000
I21	I2	0.055630	0.329890	0.126250
Zn21	Zn2	0.671210	0.793350	0.152060
C21	C2	0.896200	0.438100	0.139900
H21	H2	0.887400	0.497900	0.142500
I31	I3	0.707510	0.900290	0.114920
Zn31	Zn3	0.819490	0.052580	0.362220
C31	C3	0.880190	0.367300	0.157380
I41	I4	0.640770	0.823070	0.210310
Zn41	Zn4	0.989810	0.773960	0.587660
C41	C4	0.894300	0.280500	0.152700
H31	H3	0.884200	0.230500	0.164300
I51	I5	0.752730	0.045860	0.384680
Zn51	Zn5	0.174710	0.033920	0.655420
C51	C5	0.923200	0.269300	0.130700
H41	H4	0.932700	0.210300	0.127500
I61	I6	0.857120	0.913240	0.345600
Zn61	Zn6	0.677390	0.266470	0.620280
N21	N2	0.712370	0.683900	0.166860
I71	I7	0.059910	0.803750	0.639060
Zn71	Zn7	0.307620	0.237710	0.367960
C61	C6	0.732500	0.656600	0.140600
H51	H5	0.728300	0.688700	0.116400
I81	I8	0.964160	0.877200	0.527370
Zn81	Zn8	0.480920	0.505210	0.586520
C71	C7	0.759300	0.583000	0.147500
H61	H6	0.773400	0.565000	0.128300
I91	I9	0.138930	0.011010	0.710870
Zn91	Zn9	0.306280	0.766910	0.868620
C81	C8	0.765240	0.536300	0.182880
I101	I10	0.211470	0.915480	0.624460
Zn101	Zn10	0.175000	0.554090	0.119520
C91	C9	0.744100	0.564600	0.210330
H71	H7	0.747500	0.533700	0.234800
I111	I11	0.691500	0.324970	0.556070
Zn111	Zn11	0.490220	0.044340	0.083880
C101	C10	0.717910	0.638900	0.201070
H81	H8	0.703400	0.658600	0.219700
I121	I12	0.674840	0.373220	0.675000
Zn121	Zn12	0.800150	0.587650	0.871010
N31	N3	0.813390	0.140100	0.314720
I131	I13	0.237920	0.228310	0.385310
C111	C11	0.840900	0.133200	0.293000
H91	H9	0.861200	0.086300	0.299000
I141	I14	0.341300	0.384640	0.354870
C121	C12	0.841300	0.190800	0.262400
H101	H10	0.860700	0.182300	0.246900
I151	I15	0.452320	0.398260	0.528030
C131	C13	0.812630	0.261900	0.254650
I161	I16	0.553520	0.476460	0.634740
C141	C14	0.783800	0.269400	0.276930
H111	H11	0.763500	0.316400	0.271900
I171	I17	0.340160	0.913210	0.854420
C151	C15	0.785000	0.206700	0.306860
H121	H12	0.765100	0.211500	0.322100
I181	I18	0.237440	0.752980	0.887760
C161	C16	0.847960	0.379900	0.179440
I191	I19	0.180920	0.516690	0.049420
N41	N4	0.823670	0.453500	0.171690
I201	I20	0.177720	0.435660	0.170800
C171	C17	0.793050	0.456100	0.190230
I211	I21	0.464680	0.950030	0.020950
N51	N5	0.786120	0.394700	0.215820
I221	I22	0.562530	0.025920	0.133250
C181	C18	0.814750	0.327200	0.223310
I231	I23	0.729380	0.612500	0.884990
N61	N6	0.845530	0.316500	0.205700
I241	I24	0.828260	0.433900	0.858560
N71	N7	0.863000	0.117200	0.408110
C191	C19	0.892800	0.069300	0.434000
H131	H13	0.894300	0.006500	0.430000
C201	C20	0.921400	0.108500	0.466100
H141	H14	0.942400	0.073200	0.483800
C211	C21	0.919020	0.199300	0.472150
C221	C22	0.888200	0.249400	0.446300
H151	H15	0.885700	0.312000	0.450100
C231	C23	0.860800	0.204900	0.414230
H161	H16	0.839600	0.238700	0.396000
N81	N8	0.983440	0.640200	0.572460
C241	C24	0.954800	0.609900	0.539870
H171	H17	0.936400	0.651500	0.523000
C251	C25	0.951300	0.519800	0.530000
H181	H18	0.930600	0.500400	0.506800
C261	C26	0.978140	0.457600	0.554140
C271	C27	0.007200	0.490300	0.588480
H191	H19	0.025800	0.450300	0.606200
C281	C28	0.008700	0.580700	0.596300
H201	H20	0.028500	0.602000	0.619700
N91	N9	0.126080	0.092900	0.612380
C291	C29	0.090100	0.046600	0.595920
H211	H21	0.090200	0.983300	0.599100
C301	C30	0.053100	0.088000	0.574670
H221	H22	0.028600	0.053700	0.562600
C311	C31	0.052620	0.180400	0.571420
C321	C32	0.089800	0.227900	0.587130
H231	H23	0.090600	0.291200	0.584100
C331	C33	0.125500	0.181400	0.607180
H241	H24	0.151000	0.214000	0.617800
C341	C34	0.951380	0.242600	0.505490
N101	N10	0.946280	0.328500	0.514550
C351	C35	0.977880	0.361600	0.543820
N111	N11	0.011950	0.315600	0.563960
C361	C36	0.013460	0.230900	0.551830
N121	N12	0.984360	0.190700	0.523270
N131	N13	0.943760	0.791800	0.617360
C371	C37	0.930400	0.876100	0.620100
H251	H25	0.942000	0.923200	0.608000
C381	C38	0.900800	0.896500	0.639800
H261	H26	0.891700	0.956700	0.641000
C391	C39	0.884120	0.828900	0.658020
C401	C40	0.897500	0.741300	0.654800
H271	H27	0.886600	0.693000	0.666700
C411	C41	0.927000	0.726200	0.634000
H281	H28	0.935700	0.666300	0.631300
N141	N14	0.719370	0.164100	0.642940
C421	C42	0.742310	0.127100	0.620910
H291	H29	0.740400	0.151600	0.595400
C431	C43	0.768410	0.055300	0.633630
H301	H30	0.784600	0.031000	0.617300
C441	C44	0.770860	0.018400	0.670850
C451	C45	0.747320	0.056900	0.694300
H311	H31	0.748400	0.033100	0.719800
C461	C46	0.722420	0.130100	0.679620
H321	H32	0.706900	0.157800	0.695700
N151	N15	0.803280	0.662000	0.821880
C471	C47	0.839100	0.660200	0.811000
H331	H33	0.861900	0.624600	0.826000
C481	C48	0.844400	0.708300	0.778800
H341	H34	0.870400	0.705500	0.771800
C491	C49	0.811170	0.760800	0.756780
C501	C50	0.773700	0.761500	0.768170
H351	H35	0.750200	0.796100	0.753700
C511	C51	0.771000	0.711600	0.800660
H361	H36	0.745300	0.712500	0.808200
C521	C52	0.851830	0.850300	0.678920
N161	N16	0.828970	0.924200	0.667060
C531	C53	0.798240	0.938800	0.684760
N171	N17	0.790430	0.887500	0.713340
C541	C54	0.816790	0.817000	0.724050
N181	N18	0.847700	0.795700	0.707880
N191	N19	0.621430	0.195300	0.601090
C551	C55	0.583800	0.237400	0.589300
H371	H37	0.582700	0.300300	0.593200
C561	C56	0.546660	0.192100	0.571700
H381	H38	0.520600	0.223500	0.563000
C571	C57	0.548290	0.099300	0.566980
C581	C58	0.586900	0.055600	0.579500
H391	H39	0.588800	0.992500	0.576600
C591	C59	0.622500	0.106100	0.596300
H401	H40	0.649000	0.076300	0.604800
N201	N20	0.352880	0.169000	0.410980
C601	C60	0.381000	0.215300	0.439200
H411	H41	0.379700	0.279000	0.438800
C611	C61	0.412000	0.173700	0.468800
H421	H42	0.431600	0.208100	0.488300
C621	C62	0.413790	0.080100	0.469660
C631	C63	0.384310	0.031900	0.441250
H431	H43	0.384500	0.968200	0.441500
C641	C64	0.354200	0.079300	0.412150
H441	H44	0.334000	0.046600	0.392500
N211	N21	0.478320	0.636000	0.566250
C651	C65	0.509000	0.692300	0.584900
H451	H45	0.531500	0.669700	0.606000
C661	C66	0.509500	0.781600	0.575000
H461	H46	0.532300	0.819000	0.588700
C671	C67	0.476600	0.816400	0.545000
C681	C68	0.445000	0.758000	0.524900
H471	H47	0.422300	0.778900	0.503600
C691	C69	0.447000	0.668700	0.536400
C701	C70	0.510150	0.046600	0.546990
N221	N22	0.479360	0.088600	0.519980
C711	C71	0.447460	0.034900	0.500710
N231	N23	0.444340	0.947100	0.506470
C721	C72	0.476530	0.913000	0.535140
N241	N24	0.509920	0.960000	0.556390
N251	N25	0.438150	0.497300	0.619870
C731	C73	0.427550	0.414600	0.628900
H481	H48	0.440600	0.364200	0.620500
C741	C74	0.398100	0.401000	0.650120
H491	H49	0.391100	0.341800	0.656100
C751	C75	0.379010	0.473800	0.662630
C761	C76	0.391200	0.558700	0.654100
H501	H50	0.379500	0.610200	0.663100
C771	C77	0.420300	0.568000	0.632700
H511	H51	0.428100	0.626600	0.626700
N261	N26	0.304370	0.683900	0.820650
C781	C78	0.274400	0.622000	0.807200
H521	H52	0.252200	0.617000	0.819800
C791	C79	0.274100	0.565000	0.776000
H531	H53	0.252100	0.522000	0.767200
C801	C80	0.306500	0.571900	0.757680
C811	C81	0.337200	0.637200	0.771300
H541	H54	0.359400	0.644700	0.758900
C821	C82	0.335200	0.690700	0.802600
H551	H55	0.356700	0.734300	0.811900
N271	N27	0.215900	0.142300	0.670150
C831	C83	0.214700	0.197400	0.700420
H561	H56	0.196600	0.182800	0.716700
C841	C84	0.239100	0.275100	0.708660
H571	H57	0.237600	0.312800	0.730200
C851	C85	0.265740	0.297200	0.685180
C861	C86	0.266700	0.239700	0.653800
H581	H58	0.284400	0.252700	0.637100
C871	C87	0.241600	0.163400	0.647500
H591	H59	0.242600	0.124600	0.626200
C881	C88	0.346080	0.460600	0.683810
N281	N28	0.341230	0.523600	0.708860
C891	C89	0.310190	0.509100	0.725640
N291	N29	0.283110	0.439600	0.717830
C901	C90	0.292040	0.379400	0.693150
N301	N30	0.323830	0.383900	0.675980
N311	N31	0.352510	0.706100	0.913230
C911	C91	0.382000	0.754500	0.939400
H601	H60	0.381900	0.817800	0.936500
C921	C92	0.412300	0.715600	0.970300
H611	H61	0.433200	0.751400	0.987900
C931	C93	0.411710	0.623500	0.975200
C941	C94	0.381300	0.573400	0.949000
H621	H62	0.380100	0.510100	0.951800
C951	C95	0.352300	0.618200	0.918300
H631	H63	0.331300	0.583800	0.900000
N321	N32	0.481800	0.179500	0.069400
C961	C96	0.449900	0.212000	0.041100
H641	H64	0.429500	0.171200	0.026100
C971	C97	0.444500	0.302400	0.032300
H651	H65	0.420800	0.322800	0.011900
C981	C98	0.473800	0.361600	0.053200
C991	C99	0.507500	0.328500	0.081200
H661	H66	0.529000	0.367800	0.095600
C1001	C100	0.510500	0.237600	0.088600
H671	H67	0.534300	0.215800	0.108500
N331	N33	0.619440	0.732600	0.113060
C1011	C101	0.617500	0.643400	0.113500
H681	H68	0.642100	0.610600	0.126900
C1021	C102	0.580800	0.596900	0.095100
H691	H69	0.580400	0.533200	0.096000
C1031	C103	0.545200	0.643100	0.075500
C1041	C104	0.547700	0.735800	0.074100
H701	H70	0.523800	0.770200	0.060300
C1051	C105	0.585700	0.777400	0.093200
H711	H71	0.587400	0.840900	0.091800
C1061	C106	0.444690	0.581000	0.008000
N341	N34	0.440520	0.493200	0.015200
C1071	C107	0.472400	0.460600	0.044900
N351	N35	0.504890	0.507600	0.066610
C1081	C108	0.506400	0.592300	0.055600
N361	N36	0.477070	0.633400	0.026440
N371	N37	0.308680	0.158200	0.319650
C1091	C109	0.275600	0.110300	0.298280
H721	H72	0.249600	0.113200	0.305200
C1101	C110	0.277900	0.057300	0.266780
H731	H73	0.254100	0.023200	0.252600
C1111	C111	0.315300	0.054200	0.255910
C1121	C112	0.349700	0.104600	0.277400
H741	H74	0.375700	0.104200	0.270500
C1131	C113	0.345000	0.155100	0.309100
H751	H75	0.368400	0.189100	0.324000
N381	N38	0.218110	0.653600	0.143500
C1141	C114	0.221900	0.688200	0.179700
H761	H76	0.205600	0.663300	0.195800
C1151	C115	0.248900	0.759600	0.194290
H771	H77	0.251000	0.783200	0.220000
C1161	C116	0.272820	0.795800	0.171100
C1171	C117	0.270000	0.757700	0.134300
H781	H78	0.286800	0.779900	0.118100
C1181	C118	0.242400	0.686600	0.121400
H791	H79	0.240500	0.660500	0.096200
N391	N39	0.444980	0.022100	0.113980
C1191	C119	0.437200	0.080300	0.139900
H801	H80	0.452400	0.135200	0.144100
C1201	C120	0.407700	0.064400	0.161300
H811	H81	0.403300	0.107100	0.179900
C1211	C121	0.385100	0.985200	0.154700
C1221	C122	0.393600	0.923900	0.128000
H821	H82	0.379200	0.868000	0.123400
C1231	C123	0.423000	0.945300	0.108200
H831	H83	0.428200	0.903500	0.089500
C1241	C124	0.320300	0.996000	0.223070
N401	N40	0.293300	0.927000	0.212780
C1251	C125	0.300240	0.875900	0.183790
N411	N41	0.329240	0.891100	0.164450
C1261	C126	0.353600	0.963300	0.176750
N421	N42	0.351060	0.016400	0.206400
N431	N43	0.117890	0.623100	0.106370
C1271	C127	0.081500	0.579200	0.091900
H841	H84	0.081500	0.515500	0.093400
C1281	C128	0.043660	0.622700	0.074900
H851	H85	0.018300	0.589500	0.064500
C1291	C129	0.043320	0.715500	0.073350
C1301	C130	0.080900	0.761600	0.089500
H861	H86	0.081400	0.825200	0.089900
C1311	C131	0.117800	0.712600	0.105100
H871	H87	0.143800	0.743800	0.115100
N441	N44	0.848070	0.649400	0.913220
C1321	C132	0.881800	0.603000	0.934890
H881	H88	0.883700	0.540800	0.929800
C1331	C133	0.913700	0.642900	0.964400
H891	H89	0.937200	0.608700	0.979300
C1341	C134	0.910830	0.733600	0.971910
C1351	C135	0.876400	0.782600	0.949090
H901	H90	0.874000	0.845200	0.953100
C1361	C136	0.845900	0.737300	0.920490
H911	H91	0.822200	0.770100	0.905200
N451	N45	0.972590	0.177500	0.067560
C1371	C137	0.995800	0.119400	0.093500
H921	H92	0.013600	0.141700	0.117900
C1381	C138	0.995200	0.028300	0.086600
H931	H93	0.012600	0.989000	0.105600
C1391	C139	0.968540	0.994800	0.051270
C1401	C140	0.943200	0.054800	0.025180
H941	H94	0.923800	0.034200	0.001400
C1411	C141	0.946600	0.145900	0.034100
H951	H95	0.929700	0.187000	0.015600
C1421	C142	0.005000	0.766900	0.052980
N461	N46	0.976310	0.725900	0.023570
C1431	C143	0.943710	0.777400	0.004370
N471	N47	0.938950	0.864000	0.012010
C1441	C144	0.969580	0.897900	0.042080
N481	N48	0.002610	0.851900	0.064300
N491	N49	0.061610	0.836300	0.886060
I251	I25	0.044550	0.906800	0.982600
Zn131	Zn13	0.019190	0.814350	0.919050
C1451	C145	0.074800	0.920100	0.881300
H961	H96	0.063800	0.968600	0.893000
I261	I26	0.944370	0.829890	0.873750
Zn141	Zn14	0.328790	0.293350	0.847940
C1461	C146	0.103800	0.938100	0.860100
H971	H97	0.112600	0.997900	0.857500
I271	I27	0.292490	0.400290	0.885080
Zn151	Zn15	0.180510	0.552580	0.637780
C1471	C147	0.119810	0.867300	0.842620
I281	I28	0.359230	0.323070	0.789690
Zn161	Zn16	0.010190	0.273960	0.412340
C1481	C148	0.105700	0.780500	0.847300
H981	H98	0.115800	0.730500	0.835700
I291	I29	0.247270	0.545860	0.615320
Zn171	Zn17	0.825290	0.533920	0.344580
C1491	C149	0.076800	0.769300	0.869300
H991	H99	0.067300	0.710300	0.872500
I301	I30	0.142880	0.413240	0.654400
Zn181	Zn18	0.322610	0.766470	0.379720
N501	N50	0.287630	0.183900	0.833140
I311	I31	0.940090	0.303750	0.360940
Zn191	Zn19	0.692380	0.737710	0.632040
C1501	C150	0.267500	0.156600	0.859400
H1001	H100	0.271700	0.188700	0.883600
I321	I32	0.035840	0.377200	0.472630
Zn201	Zn20	0.519080	0.005210	0.413480
C1511	C151	0.240700	0.083000	0.852500
H1011	H101	0.226600	0.065000	0.871700
I331	I33	0.861070	0.511010	0.289130
Zn211	Zn21	0.693720	0.266910	0.131380
C1521	C152	0.234760	0.036300	0.817120
I341	I34	0.788530	0.415480	0.375540
Zn221	Zn22	0.825000	0.054090	0.880480
C1531	C153	0.255900	0.064600	0.789670
H1021	H102	0.252500	0.033700	0.765200
I351	I35	0.308500	0.824970	0.443930
Zn231	Zn23	0.509780	0.544340	0.916120
C1541	C154	0.282090	0.138900	0.798930
H1031	H103	0.296600	0.158600	0.780300
I361	I36	0.325160	0.873220	0.325000
Zn241	Zn24	0.199850	0.087650	0.128990
N511	N51	0.186610	0.640100	0.685280
I371	I37	0.762080	0.728310	0.614690
C1551	C155	0.159100	0.633200	0.707000
H1041	H104	0.138800	0.586300	0.701000
I381	I38	0.658700	0.884640	0.645130
C1561	C156	0.158700	0.690800	0.737600
H1051	H105	0.139300	0.682300	0.753100
I391	I39	0.547680	0.898260	0.471970
C1571	C157	0.187370	0.761900	0.745350
I401	I40	0.446480	0.976460	0.365260
C1581	C158	0.216200	0.769400	0.723070
H1061	H106	0.236500	0.816400	0.728100
I411	I41	0.659840	0.413210	0.145580
C1591	C159	0.215000	0.706700	0.693140
H1071	H107	0.234900	0.711500	0.677900
I421	I42	0.762560	0.252980	0.112240
C1601	C160	0.152040	0.879900	0.820560
I431	I43	0.819080	0.016690	0.950580
N521	N52	0.176330	0.953500	0.828310
I441	I44	0.822280	0.935660	0.829200
C1611	C161	0.206950	0.956100	0.809770
I451	I45	0.535320	0.450030	0.979050
N531	N53	0.213880	0.894700	0.784180
I461	I46	0.437470	0.525920	0.866750
C1621	C162	0.185250	0.827200	0.776690
I471	I47	0.270620	0.112500	0.115010
N541	N54	0.154470	0.816500	0.794300
I481	I48	0.171740	0.933900	0.141440
N551	N55	0.137000	0.617200	0.591890
C1631	C163	0.107200	0.569300	0.566000
H1081	H108	0.105700	0.506500	0.570000
C1641	C164	0.078600	0.608500	0.533900
H1091	H109	0.057600	0.573200	0.516200
C1651	C165	0.080980	0.699300	0.527850
C1661	C166	0.111800	0.749400	0.553700
H1101	H110	0.114300	0.812000	0.549900
C1671	C167	0.139200	0.704900	0.585770
H1111	H111	0.160400	0.738700	0.604000
N561	N56	0.016560	0.140200	0.427540
C1681	C168	0.045200	0.109900	0.460130
H1121	H112	0.063600	0.151500	0.477000
C1691	C169	0.048700	0.019800	0.470000
H1131	H113	0.069400	0.000400	0.493200
C1701	C170	0.021860	0.957600	0.445860
C1711	C171	0.992800	0.990300	0.411520
H1141	H114	0.974200	0.950300	0.393800
C1721	C172	0.991300	0.080700	0.403700
H1151	H115	0.971500	0.102000	0.380300
N571	N57	0.873920	0.592900	0.387620
C1731	C173	0.909900	0.546600	0.404080
H1161	H116	0.909800	0.483300	0.400900
C1741	C174	0.946900	0.588000	0.425330
H1171	H117	0.971400	0.553700	0.437400
C1751	C175	0.947380	0.680400	0.428580
C1761	C176	0.910200	0.727900	0.412870
H1181	H118	0.909400	0.791200	0.415900
C1771	C177	0.874500	0.681400	0.392820
H1191	H119	0.849000	0.714000	0.382200
C1781	C178	0.048620	0.742600	0.494510
N581	N58	0.053720	0.828500	0.485450
C1791	C179	0.022120	0.861600	0.456180
N591	N59	0.988050	0.815600	0.436040
C1801	C180	0.986540	0.730900	0.448170
N601	N60	0.015640	0.690700	0.476730
N611	N61	0.056240	0.291800	0.382640
C1811	C181	0.069600	0.376100	0.379900
H1201	H120	0.058000	0.423200	0.392000
C1821	C182	0.099200	0.396500	0.360200
H1211	H121	0.108300	0.456700	0.359000
C1831	C183	0.115880	0.328900	0.341980
C1841	C184	0.102500	0.241300	0.345200
H1221	H122	0.113400	0.193000	0.333300
C1851	C185	0.073000	0.226200	0.366000
H1231	H123	0.064300	0.166300	0.368700
N621	N62	0.280630	0.664100	0.357060
C1861	C186	0.257690	0.627100	0.379090
H1241	H124	0.259600	0.651600	0.404600
C1871	C187	0.231590	0.555300	0.366370
H1251	H125	0.215400	0.531000	0.382700
C1881	C188	0.229140	0.518400	0.329150
C1891	C189	0.252680	0.556900	0.305700
H1261	H126	0.251600	0.533100	0.280200
C1901	C190	0.277580	0.630100	0.320380
H1271	H127	0.293100	0.657800	0.304300
N631	N63	0.196720	0.162000	0.178120
C1911	C191	0.160900	0.160200	0.189000
H1281	H128	0.138100	0.124600	0.174000
C1921	C192	0.155600	0.208300	0.221200
H1291	H129	0.129600	0.205500	0.228200
C1931	C193	0.188830	0.260800	0.243220
C1941	C194	0.226300	0.261500	0.231830
H1301	H130	0.249800	0.296100	0.246300
C1951	C195	0.229000	0.211600	0.199340
H1311	H131	0.254700	0.212500	0.191800
C1961	C196	0.148170	0.350300	0.321080
N641	N64	0.171030	0.424200	0.332940
C1971	C197	0.201760	0.438800	0.315240
N651	N65	0.209570	0.387500	0.286660
C1981	C198	0.183210	0.317000	0.275950
N661	N66	0.152300	0.295700	0.292120
N671	N67	0.378570	0.695300	0.398910
C1991	C199	0.416200	0.737400	0.410700
H1321	H132	0.417300	0.800300	0.406800
C2001	C200	0.453340	0.692100	0.428300
H1331	H133	0.479400	0.723500	0.437000
C2011	C201	0.451710	0.599300	0.433020
C2021	C202	0.413100	0.555600	0.420500
H1341	H134	0.411200	0.492500	0.423400
C2031	C203	0.377500	0.606100	0.403700
H1351	H135	0.351000	0.576300	0.395200
N681	N68	0.647120	0.669000	0.589020
C2041	C204	0.619000	0.715300	0.560800
H1361	H136	0.620300	0.779000	0.561200
C2051	C205	0.588000	0.673700	0.531200
H1371	H137	0.568400	0.708100	0.511700
C2061	C206	0.586210	0.580100	0.530340
C2071	C207	0.615690	0.531900	0.558750
H1381	H138	0.615500	0.468200	0.558500
C2081	C208	0.645800	0.579300	0.587850
H1391	H139	0.666000	0.546600	0.607500
N691	N69	0.521680	0.136000	0.433750
C2091	C209	0.491000	0.192300	0.415100
H1401	H140	0.468500	0.169700	0.394000
C2101	C210	0.490500	0.281600	0.425000
H1411	H141	0.467700	0.319000	0.411300
C2111	C211	0.523400	0.316400	0.455000
C2121	C212	0.555000	0.258000	0.475100
H1421	H142	0.577700	0.278900	0.496400
C2131	C213	0.553000	0.168700	0.463600
C2141	C214	0.489850	0.546600	0.453010
N701	N70	0.520640	0.588600	0.480020
C2151	C215	0.552540	0.534900	0.499290
N711	N71	0.555660	0.447100	0.493530
C2161	C216	0.523470	0.413000	0.464860
N721	N72	0.490080	0.460000	0.443610
N731	N73	0.561850	0.997300	0.380130
C2171	C217	0.572450	0.914600	0.371100
H1431	H143	0.559400	0.864200	0.379500
C2181	C218	0.601900	0.901000	0.349880
H1441	H144	0.608900	0.841800	0.343900
C2191	C219	0.620990	0.973800	0.337370
C2201	C220	0.608800	0.058700	0.345900
H1451	H145	0.620500	0.110200	0.336900
C2211	C221	0.579700	0.068000	0.367300
H1461	H146	0.571900	0.126600	0.373300
N741	N74	0.695630	0.183900	0.179350
C2221	C222	0.725600	0.122000	0.192800
H1471	H147	0.747800	0.117000	0.180200
C2231	C223	0.725900	0.065000	0.224000
H1481	H148	0.747900	0.022000	0.232800
C2241	C224	0.693500	0.071900	0.242320
C2251	C225	0.662800	0.137200	0.228700
H1491	H149	0.640600	0.144700	0.241100
C2261	C226	0.664800	0.190700	0.197400
H1501	H150	0.643300	0.234300	0.188100
N751	N75	0.784100	0.642300	0.329850
C2271	C227	0.785300	0.697400	0.299580
H1511	H151	0.803400	0.682800	0.283300
C2281	C228	0.760900	0.775100	0.291340
H1521	H152	0.762400	0.812800	0.269800
C2291	C229	0.734260	0.797200	0.314820
C2301	C230	0.733300	0.739700	0.346200
H1531	H153	0.715600	0.752700	0.362900
C2311	C231	0.758400	0.663400	0.352500
H1541	H154	0.757400	0.624600	0.373800
C2321	C232	0.653920	0.960600	0.316190
N761	N76	0.658770	0.023600	0.291140
C2331	C233	0.689810	0.009100	0.274360
N771	N77	0.716890	0.939600	0.282170
C2341	C234	0.707960	0.879400	0.306850
N781	N78	0.676170	0.883900	0.324020
N791	N79	0.647490	0.206100	0.086770
C2351	C235	0.618000	0.254500	0.060600
H1551	H155	0.618100	0.317800	0.063500
C2361	C236	0.587700	0.215600	0.029700
H1561	H156	0.566800	0.251400	0.012100
C2371	C237	0.588290	0.123500	0.024800
C2381	C238	0.618700	0.073400	0.051000
H1571	H157	0.619900	0.010100	0.048200
C2391	C239	0.647700	0.118200	0.081700
H1581	H158	0.668700	0.083800	0.100000
N801	N80	0.518200	0.679500	0.930600
C2401	C240	0.550100	0.712000	0.958900
H1591	H159	0.570500	0.671200	0.973900
C2411	C241	0.555500	0.802400	0.967700
H1601	H160	0.579200	0.822800	0.988100
C2421	C242	0.526200	0.861600	0.946800
C2431	C243	0.492500	0.828500	0.918800
H1611	H161	0.471000	0.867800	0.904400
C2441	C244	0.489500	0.737600	0.911400
H1621	H162	0.465700	0.715800	0.891500
N811	N81	0.380560	0.232600	0.886940
C2451	C245	0.382500	0.143400	0.886500
H1631	H163	0.357900	0.110600	0.873100
C2461	C246	0.419200	0.096900	0.904900
H1641	H164	0.419600	0.033200	0.904000
C2471	C247	0.454800	0.143100	0.924500
C2481	C248	0.452300	0.235800	0.925900
H1651	H165	0.476200	0.270200	0.939700
C2491	C249	0.414300	0.277400	0.906800
H1661	H166	0.412600	0.340900	0.908200
C2501	C250	0.555310	0.081000	0.992000
N821	N82	0.559480	0.993200	0.984800
C2511	C251	0.527600	0.960600	0.955100
N831	N83	0.495110	0.007600	0.933390
C2521	C252	0.493600	0.092300	0.944400
N841	N84	0.522930	0.133400	0.973560
N851	N85	0.691320	0.658200	0.680350
C2531	C253	0.724400	0.610300	0.701720
H1671	H167	0.750400	0.613200	0.694800
C2541	C254	0.722100	0.557300	0.733220
H1681	H168	0.745900	0.523200	0.747400
C2551	C255	0.684700	0.554200	0.744090
C2561	C256	0.650300	0.604600	0.722600
H1691	H169	0.624300	0.604200	0.729500
C2571	C257	0.655000	0.655100	0.690900
H1701	H170	0.631600	0.689100	0.676000
N861	N86	0.781890	0.153600	0.856500
C2581	C258	0.778100	0.188200	0.820300
H1711	H171	0.794400	0.163300	0.804200
C2591	C259	0.751100	0.259600	0.805710
H1721	H172	0.749000	0.283200	0.780000
C2601	C260	0.727180	0.295800	0.828900
C2611	C261	0.730000	0.257700	0.865700
H1731	H173	0.713200	0.279900	0.881900
C2621	C262	0.757600	0.186600	0.878600
H1741	H174	0.759500	0.160500	0.903800
N871	N87	0.555020	0.522100	0.886020
C2631	C263	0.562800	0.580300	0.860100
H1751	H175	0.547600	0.635200	0.855900
C2641	C264	0.592300	0.564400	0.838700
H1761	H176	0.596700	0.607100	0.820100
C2651	C265	0.614900	0.485200	0.845300
C2661	C266	0.606400	0.423900	0.872000
H1771	H177	0.620800	0.368000	0.876600
C2671	C267	0.577000	0.445300	0.891800
H1781	H178	0.571800	0.403500	0.910500
C2681	C268	0.679700	0.496000	0.776930
N881	N88	0.706700	0.427000	0.787220
C2691	C269	0.699760	0.375900	0.816210
N891	N89	0.670760	0.391100	0.835550
C2701	C270	0.646400	0.463300	0.823250
N901	N90	0.648940	0.516400	0.793600
N911	N91	0.882110	0.123100	0.893630
C2711	C271	0.918500	0.079200	0.908100
H1791	H179	0.918500	0.015500	0.906600
C2721	C272	0.956340	0.122700	0.925100
H1801	H180	0.981700	0.089500	0.935500
C2731	C273	0.956680	0.215500	0.926650
C2741	C274	0.919100	0.261600	0.910500
H1811	H181	0.918600	0.325200	0.910100
C2751	C275	0.882200	0.212600	0.894900
H1821	H182	0.856200	0.243800	0.884900
N921	N92	0.151930	0.149400	0.086780
C2761	C276	0.118200	0.103000	0.065110
H1831	H183	0.116300	0.040800	0.070200
C2771	C277	0.086300	0.142900	0.035600
H1841	H184	0.062800	0.108700	0.020700
C2781	C278	0.089170	0.233600	0.028090
C2791	C279	0.123600	0.282600	0.050910
H1851	H185	0.126000	0.345200	0.046900
C2801	C280	0.154100	0.237300	0.079510
H1861	H186	0.177800	0.270100	0.094800
N931	N93	0.027410	0.677500	0.932440
C2811	C281	0.004200	0.619400	0.906500
H1871	H187	0.986400	0.641700	0.882100
C2821	C282	0.004800	0.528300	0.913400
H1881	H188	0.987400	0.489000	0.894400
C2831	C283	0.031460	0.494800	0.948730
C2841	C284	0.056800	0.554800	0.974820
H1891	H189	0.076200	0.534200	0.998600
C2851	C285	0.053400	0.645900	0.965900
H1901	H190	0.070300	0.687000	0.984400
C2861	C286	0.995000	0.266900	0.947020
N941	N94	0.023690	0.225900	0.976430
C2871	C287	0.056290	0.277400	0.995630
N951	N95	0.061050	0.364000	0.987990
C2881	C288	0.030420	0.397900	0.957920
N961	N96	0.997390	0.351900	0.935700
