data_LABPOV_freeONLY_PM
_symmetry_space_group_name_H-M	'P1'
_cell_length_a	7.131000
_cell_length_b	20.891000
_cell_length_c	27.845000
_cell_angle_alpha	107.853000
_cell_angle_beta	90.000000
_cell_angle_gamma	90.000000
_symmetry_Int_Tables_number 1

loop_
_symmetry_equiv_pos_as_xyz
'x,y,z'

loop_
_atom_site_label
_atom_site_type_symbol
_atom_site_fract_x
_atom_site_fract_y
_atom_site_fract_z
Nd11	Nd1	0.875790	0.909400	0.660260
Nd21	Nd2	0.082190	0.745380	0.204760
Nd31	Nd3	0.375790	0.090600	0.839740
Nd41	Nd4	0.582190	0.254620	0.295240
Nd51	Nd5	0.124210	0.090600	0.339740
Nd61	Nd6	0.917810	0.254620	0.795240
Nd71	Nd7	0.624210	0.909400	0.160260
Nd81	Nd8	0.417810	0.745380	0.704760
P11	P1	0.955100	0.917730	0.272210
P21	P2	0.918900	0.748320	0.677410
P31	P3	0.380400	0.862600	0.624610
P41	P4	0.455100	0.082270	0.227790
P51	P5	0.418900	0.251680	0.822590
P61	P6	0.880400	0.137400	0.875390
P71	P7	0.044900	0.082270	0.727790
P81	P8	0.081100	0.251680	0.322590
P91	P9	0.619600	0.137400	0.375390
P101	P10	0.544900	0.917730	0.772210
P111	P11	0.581100	0.748320	0.177410
P121	P12	0.119600	0.862600	0.124610
H11	H1	0.646500	0.987300	0.323300
H21	H2	0.818100	0.619300	0.685500
H31	H3	0.022000	0.618400	0.686800
H41	H4	0.077200	0.793000	0.547700
H51	H5	0.163600	0.764600	0.583800
H61	H6	0.877600	0.901300	0.348700
H71	H7	0.746600	0.857300	0.305900
H81	H8	0.432200	0.981200	0.382500
H91	H9	0.443200	0.903300	0.356400
H101	H10	0.554200	0.836000	0.403400
H111	H11	0.684000	0.823100	0.476500
H121	H12	0.819400	0.017900	0.522300
H131	H13	0.691900	0.030600	0.449500
H141	H14	0.823500	0.653200	0.614200
H151	H15	0.042800	0.654800	0.617900
H161	H16	0.031600	0.532900	0.610700
H171	H17	0.811500	0.533100	0.610700
H181	H18	0.641400	0.492700	0.673100
H191	H19	0.640000	0.429300	0.728000
H201	H20	0.198300	0.406500	0.711700
H211	H21	0.197800	0.473000	0.659200
H221	H22	0.993800	0.762900	0.379100
H231	H23	0.959200	0.748100	0.457800
H241	H24	0.299500	0.680500	0.521400
H251	H25	0.081100	0.679500	0.514400
H261	H26	0.455700	0.791000	0.543900
H271	H27	0.321700	0.848500	0.539000
H281	H28	0.480700	0.677900	0.450300
H291	H29	0.522100	0.696400	0.372800
H301	H30	0.452200	0.748300	0.274800
H311	H31	0.007400	0.908200	0.765200
H321	H32	0.172500	0.896600	0.737000
H331	H33	0.074000	0.674400	0.089700
H341	H34	0.975900	0.630300	0.109200
H351	H35	0.146500	0.012700	0.176700
H361	H36	0.318100	0.380700	0.814500
H371	H37	0.522000	0.381600	0.813200
H381	H38	0.577200	0.207000	0.952300
H391	H39	0.663600	0.235400	0.916200
H401	H40	0.377600	0.098700	0.151300
H411	H41	0.246600	0.142700	0.194100
H421	H42	0.932200	0.018800	0.117500
H431	H43	0.943200	0.096700	0.143600
H441	H44	0.054200	0.164000	0.096600
H451	H45	0.184000	0.176900	0.023500
H461	H46	0.319400	0.982100	0.977700
H471	H47	0.191900	0.969400	0.050500
H481	H48	0.323500	0.346800	0.885800
H491	H49	0.542800	0.345200	0.882100
H501	H50	0.531600	0.467100	0.889300
H511	H51	0.311500	0.466900	0.889300
H521	H52	0.141400	0.507300	0.826900
H531	H53	0.140000	0.570700	0.772000
H541	H54	0.698300	0.593500	0.788300
H551	H55	0.697800	0.527000	0.840800
H561	H56	0.493800	0.237100	0.120900
H571	H57	0.459200	0.251900	0.042200
H581	H58	0.799500	0.319500	0.978600
H591	H59	0.581100	0.320500	0.985600
H601	H60	0.955700	0.209000	0.956100
H611	H61	0.821700	0.151500	0.961000
H621	H62	0.980700	0.322100	0.049700
H631	H63	0.022100	0.303600	0.127200
H641	H64	0.952200	0.251700	0.225200
H651	H65	0.507400	0.091800	0.734800
H661	H66	0.672500	0.103400	0.763000
H671	H67	0.574000	0.325600	0.410300
H681	H68	0.475900	0.369700	0.390800
H691	H69	0.353500	0.012700	0.676700
H701	H70	0.181900	0.380700	0.314500
H711	H71	0.978000	0.381600	0.313200
H721	H72	0.922800	0.207000	0.452300
H731	H73	0.836400	0.235400	0.416200
H741	H74	0.122400	0.098700	0.651300
H751	H75	0.253400	0.142700	0.694100
H761	H76	0.567800	0.018800	0.617500
H771	H77	0.556800	0.096700	0.643600
H781	H78	0.445800	0.164000	0.596600
H791	H79	0.316000	0.176900	0.523500
H801	H80	0.180600	0.982100	0.477700
H811	H81	0.308100	0.969400	0.550500
H821	H82	0.176500	0.346800	0.385800
H831	H83	0.957200	0.345200	0.382100
H841	H84	0.968400	0.467100	0.389300
H851	H85	0.188500	0.466900	0.389300
H861	H86	0.358600	0.507300	0.326900
H871	H87	0.360000	0.570700	0.272000
H881	H88	0.801700	0.593500	0.288300
H891	H89	0.802200	0.527000	0.340800
H901	H90	0.006200	0.237100	0.620900
H911	H91	0.040800	0.251900	0.542200
H921	H92	0.700500	0.319500	0.478600
H931	H93	0.918900	0.320500	0.485600
H941	H94	0.544300	0.209000	0.456100
H951	H95	0.678300	0.151500	0.461000
H961	H96	0.519300	0.322100	0.549700
H971	H97	0.477900	0.303600	0.627200
H981	H98	0.547800	0.251700	0.725200
H991	H99	0.992600	0.091800	0.234800
H1001	H100	0.827500	0.103400	0.263000
H1011	H101	0.926000	0.325600	0.910300
H1021	H102	0.024100	0.369700	0.890800
H1031	H103	0.853500	0.987300	0.823300
H1041	H104	0.681900	0.619300	0.185500
H1051	H105	0.478000	0.618400	0.186800
H1061	H106	0.422800	0.793000	0.047700
H1071	H107	0.336400	0.764600	0.083800
H1081	H108	0.622400	0.901300	0.848700
H1091	H109	0.753400	0.857300	0.805900
H1101	H110	0.067800	0.981200	0.882500
H1111	H111	0.056800	0.903300	0.856400
H1121	H112	0.945800	0.836000	0.903400
H1131	H113	0.816000	0.823100	0.976500
H1141	H114	0.680600	0.017900	0.022300
H1151	H115	0.808100	0.030600	0.949500
H1161	H116	0.676500	0.653200	0.114200
H1171	H117	0.457200	0.654800	0.117900
H1181	H118	0.468400	0.532900	0.110700
H1191	H119	0.688500	0.533100	0.110700
H1201	H120	0.858600	0.492700	0.173100
H1211	H121	0.860000	0.429300	0.228000
H1221	H122	0.301700	0.406500	0.211700
H1231	H123	0.302200	0.473000	0.159200
H1241	H124	0.506200	0.762900	0.879100
H1251	H125	0.540800	0.748100	0.957800
H1261	H126	0.200500	0.680500	0.021400
H1271	H127	0.418900	0.679500	0.014400
H1281	H128	0.044300	0.791000	0.043900
H1291	H129	0.178300	0.848500	0.039000
H1301	H130	0.019300	0.677900	0.950300
H1311	H131	0.977900	0.696400	0.872800
H1321	H132	0.047800	0.748300	0.774800
H1331	H133	0.492600	0.908200	0.265200
H1341	H134	0.327500	0.896600	0.237000
H1351	H135	0.426000	0.674400	0.589700
H1361	H136	0.524100	0.630300	0.609200
C11	C1	0.803700	0.901300	0.319500
C21	C2	0.517100	0.943100	0.372500
C31	C3	0.609900	0.934800	0.419400
C41	C4	0.607800	0.872700	0.427300
C51	C5	0.686100	0.864900	0.471200
C61	C6	0.766500	0.919300	0.506800
C71	C7	0.766800	0.981000	0.498400
C81	C8	0.689600	0.988700	0.454800
C91	C9	0.848100	0.911200	0.555100
C101	C10	0.928200	0.661600	0.637600
C111	C11	0.921400	0.540600	0.632200
C121	C12	0.920600	0.491500	0.662600
C131	C13	0.753800	0.476900	0.682100
C141	C14	0.752900	0.439000	0.715000
C151	C15	0.921200	0.415200	0.728700
C161	C16	0.086900	0.425800	0.705500
C171	C17	0.086100	0.464700	0.673500
C181	C18	0.923800	0.378500	0.766900
C191	C19	0.281900	0.743800	0.319200
C201	C20	0.262400	0.732300	0.369400
C211	C21	0.093200	0.747000	0.393800
C221	C22	0.072700	0.737800	0.440800
C231	C23	0.219400	0.713600	0.462300
C241	C24	0.194000	0.705300	0.514100
C251	C25	0.345000	0.817100	0.557700
C261	C26	0.384000	0.696500	0.436500
C271	C27	0.408600	0.706700	0.389800
C281	C28	0.303700	0.098700	0.180500
C291	C29	0.017100	0.056900	0.127500
C301	C30	0.109900	0.065200	0.080600
C311	C31	0.107800	0.127300	0.072700
C321	C32	0.186100	0.135100	0.028800
C331	C33	0.266500	0.080700	0.993200
C341	C34	0.266800	0.019000	0.001600
C351	C35	0.189600	0.011300	0.045200
C361	C36	0.348100	0.088800	0.944900
C371	C37	0.428200	0.338400	0.862400
C381	C38	0.421400	0.459400	0.867800
C391	C39	0.420600	0.508500	0.837400
C401	C40	0.253800	0.523100	0.817900
C411	C41	0.252900	0.561000	0.785000
C421	C42	0.421200	0.584800	0.771300
C431	C43	0.586900	0.574200	0.794500
C441	C44	0.586100	0.535300	0.826500
C451	C45	0.423800	0.621500	0.733100
C461	C46	0.781900	0.256200	0.180800
C471	C47	0.762400	0.267700	0.130600
C481	C48	0.593200	0.253000	0.106200
C491	C49	0.572700	0.262200	0.059200
C501	C50	0.719400	0.286400	0.037700
C511	C51	0.694000	0.294700	0.985900
C521	C52	0.845000	0.182900	0.942300
C531	C53	0.884000	0.303500	0.063500
C541	C54	0.908600	0.293300	0.110200
C551	C55	0.196300	0.098700	0.680500
C561	C56	0.482900	0.056900	0.627500
C571	C57	0.390100	0.065200	0.580600
C581	C58	0.392200	0.127300	0.572700
C591	C59	0.313900	0.135100	0.528800
C601	C60	0.233500	0.080700	0.493200
C611	C61	0.233200	0.019000	0.501600
C621	C62	0.310400	0.011300	0.545200
C631	C63	0.151900	0.088800	0.444900
C641	C64	0.071800	0.338400	0.362400
C651	C65	0.078600	0.459400	0.367800
C661	C66	0.079400	0.508500	0.337400
C671	C67	0.246200	0.523100	0.317900
C681	C68	0.247100	0.561000	0.285000
C691	C69	0.078800	0.584800	0.271300
C701	C70	0.913100	0.574200	0.294500
C711	C71	0.913900	0.535300	0.326500
C721	C72	0.076200	0.621500	0.233100
C731	C73	0.718100	0.256200	0.680800
C741	C74	0.737600	0.267700	0.630600
C751	C75	0.906800	0.253000	0.606200
C761	C76	0.927300	0.262200	0.559200
C771	C77	0.780600	0.286400	0.537700
C781	C78	0.806000	0.294700	0.485900
C791	C79	0.655000	0.182900	0.442300
C801	C80	0.616000	0.303500	0.563500
C811	C81	0.591400	0.293300	0.610200
C821	C82	0.696300	0.901300	0.819500
C831	C83	0.982900	0.943100	0.872500
C841	C84	0.890100	0.934800	0.919400
C851	C85	0.892200	0.872700	0.927300
C861	C86	0.813900	0.864900	0.971200
C871	C87	0.733500	0.919300	0.006800
C881	C88	0.733200	0.981000	0.998400
C891	C89	0.810400	0.988700	0.954800
C901	C90	0.651900	0.911200	0.055100
C911	C91	0.571800	0.661600	0.137600
C921	C92	0.578600	0.540600	0.132200
C931	C93	0.579400	0.491500	0.162600
C941	C94	0.746200	0.476900	0.182100
C951	C95	0.747100	0.439000	0.215000
C961	C96	0.578800	0.415200	0.228700
C971	C97	0.413100	0.425800	0.205500
C981	C98	0.413900	0.464700	0.173500
C991	C99	0.576200	0.378500	0.266900
C1001	C100	0.218100	0.743800	0.819200
C1011	C101	0.237600	0.732300	0.869400
C1021	C102	0.406800	0.747000	0.893800
C1031	C103	0.427300	0.737800	0.940800
C1041	C104	0.280600	0.713600	0.962300
C1051	C105	0.306000	0.705300	0.014100
C1061	C106	0.155000	0.817100	0.057700
C1071	C107	0.116000	0.696500	0.936500
C1081	C108	0.091400	0.706700	0.889800
N11	N1	0.653500	0.953700	0.335050
N21	N2	0.921900	0.612100	0.666200
N31	N3	0.180000	0.771700	0.553830
N41	N4	0.153500	0.046300	0.164950
N51	N5	0.421900	0.387900	0.833800
N61	N6	0.680000	0.228300	0.946170
N71	N7	0.346500	0.046300	0.664950
N81	N8	0.078100	0.387900	0.333800
N91	N9	0.820000	0.228300	0.446170
N101	N10	0.846500	0.953700	0.835050
N111	N11	0.578100	0.612100	0.166200
N121	N12	0.320000	0.771700	0.053830
O11	O1	0.876200	0.963200	0.591260
O21	O2	0.873800	0.852500	0.557280
O31	O3	0.067900	0.979700	0.298630
O41	O4	0.081800	0.857200	0.255010
O51	O5	0.826000	0.929600	0.232700
O61	O6	0.934900	0.789800	0.641710
O71	O7	0.737200	0.758000	0.706150
O81	O8	0.085100	0.756900	0.713470
O91	O9	0.771200	0.366200	0.785490
O101	O10	0.077200	0.357400	0.778700
O111	O11	0.453200	0.743800	0.303100
O121	O12	0.141900	0.752800	0.296330
O131	O13	0.561200	0.900700	0.628300
O141	O14	0.212700	0.909000	0.640290
O151	O15	0.384300	0.805700	0.647550
O161	O16	0.074500	0.921000	0.744420
O171	O17	0.075200	0.653900	0.111960
O181	O18	0.376200	0.036800	0.908740
O191	O19	0.373800	0.147500	0.942720
O201	O20	0.567900	0.020300	0.201370
O211	O21	0.581800	0.142800	0.244990
O221	O22	0.326000	0.070400	0.267300
O231	O23	0.434900	0.210200	0.858290
O241	O24	0.237200	0.242000	0.793850
O251	O25	0.585100	0.243100	0.786530
O261	O26	0.271200	0.633800	0.714510
O271	O27	0.577200	0.642600	0.721300
O281	O28	0.953200	0.256200	0.196900
O291	O29	0.641900	0.247200	0.203670
O301	O30	0.061200	0.099300	0.871700
O311	O31	0.712700	0.091000	0.859710
O321	O32	0.884300	0.194300	0.852450
O331	O33	0.574500	0.079000	0.755580
O341	O34	0.575200	0.346100	0.388040
O351	O35	0.123800	0.036800	0.408740
O361	O36	0.126200	0.147500	0.442720
O371	O37	0.932100	0.020300	0.701370
O381	O38	0.918200	0.142800	0.744990
O391	O39	0.174000	0.070400	0.767300
O401	O40	0.065100	0.210200	0.358290
O411	O41	0.262800	0.242000	0.293850
O421	O42	0.914900	0.243100	0.286530
O431	O43	0.228800	0.633800	0.214510
O441	O44	0.922800	0.642600	0.221300
O451	O45	0.546800	0.256200	0.696900
O461	O46	0.858100	0.247200	0.703670
O471	O47	0.438800	0.099300	0.371700
O481	O48	0.787300	0.091000	0.359710
O491	O49	0.615700	0.194300	0.352450
O501	O50	0.925500	0.079000	0.255580
O511	O51	0.924800	0.346100	0.888040
O521	O52	0.623800	0.963200	0.091260
O531	O53	0.626200	0.852500	0.057280
O541	O54	0.432100	0.979700	0.798630
O551	O55	0.418200	0.857200	0.755010
O561	O56	0.674000	0.929600	0.732700
O571	O57	0.565100	0.789800	0.141710
O581	O58	0.762800	0.758000	0.206150
O591	O59	0.414900	0.756900	0.213470
O601	O60	0.728800	0.366200	0.285490
O611	O61	0.422800	0.357400	0.278700
O621	O62	0.046800	0.743800	0.803100
O631	O63	0.358100	0.752800	0.796330
O641	O64	0.938800	0.900700	0.128300
O651	O65	0.287300	0.909000	0.140290
O661	O66	0.115700	0.805700	0.147550
O671	O67	0.425500	0.921000	0.244420
O681	O68	0.424800	0.653900	0.611960
