data_LAGWUN_freeONLY_PM
_symmetry_space_group_name_H-M	'P1'
_cell_length_a	10.830000
_cell_length_b	17.049000
_cell_length_c	17.293000
_cell_angle_alpha	90.000000
_cell_angle_beta	90.000000
_cell_angle_gamma	90.000000
_symmetry_Int_Tables_number 1

loop_
_symmetry_equiv_pos_as_xyz
'x,y,z'

loop_
_atom_site_label
_atom_site_type_symbol
_atom_site_fract_x
_atom_site_fract_y
_atom_site_fract_z
Zn11	Zn1	0.675710	0.782710	0.495350
Zn21	Zn2	0.713650	0.601510	0.511270
Zn31	Zn3	0.443090	0.648130	0.431900
Zn41	Zn4	0.830810	0.902470	0.392540
Zn51	Zn5	0.824290	0.217290	0.995350
Zn61	Zn6	0.786350	0.398490	0.011270
Zn71	Zn7	0.056910	0.351870	0.931900
Zn81	Zn8	0.669190	0.097530	0.892540
Zn91	Zn9	0.324290	0.282710	0.004650
Zn101	Zn10	0.286350	0.101510	0.988730
Zn111	Zn11	0.556910	0.148130	0.068100
Zn121	Zn12	0.169190	0.402470	0.107460
Zn131	Zn13	0.175710	0.717290	0.504650
Zn141	Zn14	0.213650	0.898490	0.488730
Zn151	Zn15	0.943090	0.851870	0.568100
Zn161	Zn16	0.330810	0.597530	0.607460
H11	H1	0.693000	0.659200	0.736200
H21	H2	0.704600	0.677100	0.264800
H31	H3	0.742800	0.595200	0.160900
H41	H4	0.709300	0.569900	0.835300
H51	H5	0.061400	0.528600	0.776300
H61	H6	0.067400	0.534600	0.252200
H71	H7	0.807000	0.340800	0.236200
H81	H8	0.795400	0.322900	0.764800
H91	H9	0.757200	0.404800	0.660900
H101	H10	0.790700	0.430100	0.335300
H111	H11	0.438600	0.471400	0.276300
H121	H12	0.432600	0.465400	0.752200
H131	H13	0.307000	0.159200	0.763800
H141	H14	0.295400	0.177100	0.235200
H151	H15	0.257200	0.095200	0.339100
H161	H16	0.290700	0.069900	0.664700
H171	H17	0.938600	0.028600	0.723700
H181	H18	0.932600	0.034600	0.247800
H191	H19	0.193000	0.840800	0.263800
H201	H20	0.204600	0.822900	0.735200
H211	H21	0.242800	0.904800	0.839100
H221	H22	0.209300	0.930100	0.164700
H231	H23	0.561400	0.971400	0.223700
H241	H24	0.567400	0.965400	0.747800
C11	C1	0.850800	0.732100	0.370700
C21	C2	0.983400	0.618700	0.310400
C31	C3	0.087700	0.625200	0.655800
C41	C4	0.869000	0.651400	0.700100
C51	C5	0.767700	0.633800	0.745300
C61	C6	0.853200	0.715300	0.640600
C71	C7	0.979300	0.611000	0.706500
C81	C8	0.080900	0.631100	0.370400
C91	C9	0.781300	0.653300	0.259100
C101	C10	0.875800	0.670600	0.309100
C111	C11	0.906100	0.552700	0.197300
C121	C12	0.801300	0.599800	0.200000
C131	C13	0.889900	0.539400	0.812100
C141	C14	0.776000	0.580000	0.802900
C151	C15	0.924700	0.491600	0.139100
C161	C16	0.987400	0.554700	0.767500
C171	C17	0.996000	0.564800	0.253700
C181	C18	0.899600	0.477300	0.877300
C191	C19	0.649200	0.267900	0.870700
C201	C20	0.516600	0.381300	0.810400
C211	C21	0.412300	0.374800	0.155800
C221	C22	0.631000	0.348600	0.200100
C231	C23	0.732300	0.366200	0.245300
C241	C24	0.646800	0.284700	0.140600
C251	C25	0.520700	0.389000	0.206500
C261	C26	0.419100	0.368900	0.870400
C271	C27	0.718700	0.346700	0.759100
C281	C28	0.624200	0.329400	0.809100
C291	C29	0.593900	0.447300	0.697300
C301	C30	0.698700	0.400200	0.700000
C311	C31	0.610100	0.460600	0.312100
C321	C32	0.724000	0.420000	0.302900
C331	C33	0.575300	0.508400	0.639100
C341	C34	0.512600	0.445300	0.267500
C351	C35	0.504000	0.435200	0.753700
C361	C36	0.600400	0.522700	0.377300
C371	C37	0.149200	0.232100	0.129300
C381	C38	0.016600	0.118700	0.189600
C391	C39	0.912300	0.125200	0.844200
C401	C40	0.131000	0.151400	0.799900
C411	C41	0.232300	0.133800	0.754700
C421	C42	0.146800	0.215300	0.859400
C431	C43	0.020700	0.111000	0.793500
C441	C44	0.919100	0.131100	0.129600
C451	C45	0.218700	0.153300	0.240900
C461	C46	0.124200	0.170600	0.190900
C471	C47	0.093900	0.052700	0.302700
C481	C48	0.198700	0.099800	0.300000
C491	C49	0.110100	0.039400	0.687900
C501	C50	0.224000	0.080000	0.697100
C511	C51	0.075300	0.991600	0.360900
C521	C52	0.012600	0.054700	0.732500
C531	C53	0.004000	0.064800	0.246300
C541	C54	0.100400	0.977300	0.622700
C551	C55	0.350800	0.767900	0.629300
C561	C56	0.483400	0.881300	0.689600
C571	C57	0.587700	0.874800	0.344200
C581	C58	0.369000	0.848600	0.299900
C591	C59	0.267700	0.866200	0.254700
C601	C60	0.353200	0.784700	0.359400
C611	C61	0.479300	0.889000	0.293500
C621	C62	0.580900	0.868900	0.629600
C631	C63	0.281300	0.846700	0.740900
C641	C64	0.375800	0.829400	0.690900
C651	C65	0.406100	0.947300	0.802700
C661	C66	0.301300	0.900200	0.800000
C671	C67	0.389900	0.960600	0.187900
C681	C68	0.276000	0.920000	0.197100
C691	C69	0.424700	0.008400	0.860900
C701	C70	0.487400	0.945300	0.232500
C711	C71	0.496000	0.935200	0.746300
C721	C72	0.399600	0.022700	0.122700
O11	O1	0.783000	0.706000	0.580000
O21	O2	0.569700	0.677800	0.504100
O31	O3	0.769800	0.714300	0.419900
O41	O4	0.834200	0.476200	0.092500
O51	O5	0.814100	0.464000	0.921100
O61	O6	0.059200	0.675300	0.423500
O71	O7	0.800400	0.875700	0.500900
O81	O8	0.162100	0.577600	0.373000
O91	O9	0.071000	0.661400	0.593900
O101	O10	0.905700	0.778600	0.651600
O111	O11	0.901300	0.797100	0.359300
O121	O12	0.890700	0.567100	0.508300
O131	O13	0.006900	0.443600	0.874600
O141	O14	0.191600	0.598600	0.673300
O151	O15	0.022900	0.454400	0.137900
O161	O16	0.717000	0.294000	0.080000
O171	O17	0.930300	0.322200	0.004100
O181	O18	0.730200	0.285700	0.919900
O191	O19	0.665800	0.523800	0.592500
O201	O20	0.685900	0.536000	0.421100
O211	O21	0.440800	0.324700	0.923500
O221	O22	0.699600	0.124300	0.000900
O231	O23	0.337900	0.422400	0.873000
O241	O24	0.429000	0.338600	0.093900
O251	O25	0.594300	0.221400	0.151600
O261	O26	0.598700	0.202900	0.859300
O271	O27	0.609300	0.432900	0.008300
O281	O28	0.493100	0.556400	0.374600
O291	O29	0.308400	0.401400	0.173300
O301	O30	0.477100	0.545600	0.637900
O311	O31	0.217000	0.206000	0.920000
O321	O32	0.430300	0.177800	0.995900
O331	O33	0.230200	0.214300	0.080100
O341	O34	0.165800	0.976200	0.407500
O351	O35	0.185900	0.964000	0.578900
O361	O36	0.940800	0.175300	0.076500
O371	O37	0.199600	0.375700	0.999100
O381	O38	0.837900	0.077600	0.127000
O391	O39	0.929000	0.161400	0.906100
O401	O40	0.094300	0.278600	0.848400
O411	O41	0.098700	0.297100	0.140700
O421	O42	0.109300	0.067100	0.991700
O431	O43	0.993100	0.943600	0.625400
O441	O44	0.808400	0.098600	0.826700
O451	O45	0.977100	0.954400	0.362100
O461	O46	0.283000	0.794000	0.420000
O471	O47	0.069700	0.822200	0.495900
O481	O48	0.269800	0.785700	0.580100
O491	O49	0.334200	0.023800	0.907500
O501	O50	0.314100	0.036000	0.078900
O511	O51	0.559200	0.824700	0.576500
O521	O52	0.300400	0.624300	0.499100
O531	O53	0.662100	0.922400	0.627000
O541	O54	0.571000	0.838600	0.406100
O551	O55	0.405700	0.721400	0.348400
O561	O56	0.401300	0.702900	0.640700
O571	O57	0.390700	0.932900	0.491700
O581	O58	0.506900	0.056400	0.125400
O591	O59	0.691600	0.901400	0.326700
O601	O60	0.522900	0.045600	0.862100
