data_LAJDUV02_charged_PM
_symmetry_space_group_name_H-M	'P1'
_cell_length_a	8.931000
_cell_length_b	8.931000
_cell_length_c	10.893000
_cell_angle_alpha	90.000000
_cell_angle_beta	90.000000
_cell_angle_gamma	120.000000
_symmetry_Int_Tables_number 1

loop_
_symmetry_equiv_pos_as_xyz
'x,y,z'

loop_
_atom_site_label
_atom_site_type_symbol
_atom_site_fract_x
_atom_site_fract_y
_atom_site_fract_z
Ti11	Ti1	0.000000	0.500000	0.166670
Ti21	Ti2	0.500000	0.000000	0.833330
Ti31	Ti3	0.500000	0.500000	0.500000
C11	C1	0.308370	0.616740	0.333330
C21	C2	0.210250	0.420500	0.333330
C31	C3	0.308370	0.691630	0.000000
C41	C4	0.210250	0.789750	0.000000
C51	C5	0.383260	0.691630	0.666670
C61	C6	0.579500	0.789750	0.666670
C71	C7	0.691630	0.383260	0.333330
C81	C8	0.789750	0.579500	0.333330
C91	C9	0.691630	0.308370	0.000000
C101	C10	0.789750	0.210250	0.000000
C111	C11	0.616740	0.308370	0.666670
C121	C12	0.420500	0.210250	0.666670
O11	O1	0.237130	0.686510	0.276150
O21	O2	0.075380	0.348110	0.270090
O31	O3	0.449380	0.762870	0.942820
O41	O4	0.272730	0.924620	0.936760
O51	O5	0.313490	0.550620	0.609480
O61	O6	0.651890	0.727270	0.603420
O71	O7	0.762870	0.313490	0.276150
O81	O8	0.924620	0.651890	0.270090
O91	O9	0.550620	0.237130	0.942820
O101	O10	0.727270	0.075380	0.936760
O111	O11	0.686510	0.449380	0.609480
O121	O12	0.348110	0.272730	0.603420
O131	O13	0.550620	0.313490	0.390520
O141	O14	0.727270	0.651890	0.396580
O151	O15	0.686510	0.237130	0.723850
O161	O16	0.348110	0.075380	0.729910
O171	O17	0.762870	0.449380	0.057180
O181	O18	0.924620	0.272730	0.063240
O191	O19	0.449380	0.686510	0.390520
O201	O20	0.272730	0.348110	0.396580
O211	O21	0.313490	0.762870	0.723850
O221	O22	0.651890	0.924620	0.729910
O231	O23	0.237130	0.550620	0.057180
O241	O24	0.075380	0.727270	0.063240
H11	H1	0.893860	0.913890	0.883610
H21	H2	0.106140	0.086110	0.883610
H31	H3	0.979970	0.086110	0.783060
H41	H4	0.020030	0.913890	0.783060
N11	N1	0.000000	0.000000	0.833330
H51	H5	0.020030	0.106140	0.550280
H61	H6	0.979970	0.893860	0.550280
H71	H7	0.106140	0.020030	0.449720
H81	H8	0.893860	0.979970	0.449720
N21	N2	0.000000	0.000000	0.500000
H91	H9	0.086110	0.979970	0.216940
H101	H10	0.913890	0.020030	0.216940
H111	H11	0.913890	0.893860	0.116390
H121	H12	0.086110	0.106140	0.116390
N31	N3	0.000000	0.000000	0.166670
