data_LAKFIN_freeONLY_PM
_symmetry_space_group_name_H-M	'P1'
_cell_length_a	13.724700
_cell_length_b	27.787000
_cell_length_c	45.881000
_cell_angle_alpha	90.000000
_cell_angle_beta	90.000000
_cell_angle_gamma	90.000000
_symmetry_Int_Tables_number 1

loop_
_symmetry_equiv_pos_as_xyz
'x,y,z'

loop_
_atom_site_label
_atom_site_type_symbol
_atom_site_fract_x
_atom_site_fract_y
_atom_site_fract_z
Zn11	Zn1	0.848290	0.745540	0.813490
Zn21	Zn2	0.144320	0.947500	0.574740
Zn31	Zn3	0.141540	0.472520	0.590390
Zn41	Zn4	0.151710	0.754460	0.313490
Zn51	Zn5	0.855680	0.552500	0.074740
Zn61	Zn6	0.858460	0.027480	0.090390
Zn71	Zn7	0.348290	0.254460	0.686510
Zn81	Zn8	0.644320	0.052500	0.925260
Zn91	Zn9	0.641540	0.527480	0.909610
Zn101	Zn10	0.651710	0.245540	0.186510
Zn111	Zn11	0.355680	0.447500	0.425260
Zn121	Zn12	0.358460	0.972520	0.409610
H11	H1	0.950300	0.806000	0.768500
H21	H2	0.007700	0.799000	0.720800
H31	H3	0.984500	0.654000	0.729100
H41	H4	0.924900	0.665200	0.775900
H51	H5	0.046000	0.847900	0.660900
H61	H6	0.071900	0.915900	0.633200
H71	H7	0.136200	0.838700	0.564100
H81	H8	0.107900	0.768000	0.589100
H91	H9	0.087900	0.651200	0.593400
H101	H10	0.110700	0.575800	0.572800
H111	H11	0.083600	0.513000	0.649200
H121	H12	0.055600	0.586200	0.671800
H131	H13	0.809400	0.688600	0.866600
H141	H14	0.891100	0.652200	0.905400
H151	H15	0.146400	0.683600	0.865600
H161	H16	0.058200	0.721900	0.829300
H171	H17	0.891500	0.617600	0.972600
H181	H18	0.135400	0.555700	0.005000
H191	H19	0.345900	0.570900	0.969100
H201	H20	0.326300	0.606800	0.884000
H211	H21	0.049900	0.534800	0.045900
H221	H22	0.811900	0.594700	0.015200
H231	H23	0.503500	0.542600	0.960600
H241	H24	0.484000	0.578200	0.877400
H251	H25	0.049700	0.694000	0.268500
H261	H26	0.992300	0.701000	0.220800
H271	H27	0.015500	0.846000	0.229100
H281	H28	0.075100	0.834800	0.275900
H291	H29	0.954000	0.652100	0.160900
H301	H30	0.928100	0.584100	0.133200
H311	H31	0.863800	0.661300	0.064100
H321	H32	0.892100	0.732000	0.089100
H331	H33	0.912100	0.848800	0.093400
H341	H34	0.889300	0.924200	0.072800
H351	H35	0.916400	0.987000	0.149200
H361	H36	0.944400	0.913800	0.171800
H371	H37	0.190600	0.811400	0.366600
H381	H38	0.108900	0.847800	0.405400
H391	H39	0.853600	0.816400	0.365600
H401	H40	0.941800	0.778100	0.329300
H411	H41	0.108500	0.882400	0.472600
H421	H42	0.864600	0.944300	0.505000
H431	H43	0.654100	0.929100	0.469100
H441	H44	0.673700	0.893200	0.384000
H451	H45	0.950100	0.965200	0.545900
H461	H46	0.188100	0.905300	0.515200
H471	H47	0.496500	0.957400	0.460600
H481	H48	0.516000	0.921800	0.377400
H491	H49	0.450300	0.194000	0.731500
H501	H50	0.507700	0.201000	0.779200
H511	H51	0.484500	0.346000	0.770900
H521	H52	0.424900	0.334800	0.724100
H531	H53	0.546000	0.152100	0.839100
H541	H54	0.571900	0.084100	0.866800
H551	H55	0.636200	0.161300	0.935900
H561	H56	0.607900	0.232000	0.910900
H571	H57	0.587900	0.348800	0.906600
H581	H58	0.610700	0.424200	0.927200
H591	H59	0.583600	0.487000	0.850800
H601	H60	0.555600	0.413800	0.828200
H611	H61	0.309400	0.311400	0.633400
H621	H62	0.391100	0.347800	0.594600
H631	H63	0.646400	0.316400	0.634400
H641	H64	0.558200	0.278100	0.670700
H651	H65	0.391500	0.382400	0.527400
H661	H66	0.635400	0.444300	0.495000
H671	H67	0.845900	0.429100	0.530900
H681	H68	0.826300	0.393200	0.616000
H691	H69	0.549900	0.465200	0.454100
H701	H70	0.311900	0.405300	0.484800
H711	H71	0.003500	0.457400	0.539400
H721	H72	0.984000	0.421800	0.622600
H731	H73	0.549700	0.306000	0.231500
H741	H74	0.492300	0.299000	0.279200
H751	H75	0.515500	0.154000	0.270900
H761	H76	0.575100	0.165200	0.224100
H771	H77	0.454000	0.347900	0.339100
H781	H78	0.428100	0.415900	0.366800
H791	H79	0.363800	0.338700	0.435900
H801	H80	0.392100	0.268000	0.410900
H811	H81	0.412100	0.151200	0.406600
H821	H82	0.389300	0.075800	0.427200
H831	H83	0.416400	0.013000	0.350800
H841	H84	0.444400	0.086200	0.328200
H851	H85	0.690600	0.188600	0.133400
H861	H86	0.608900	0.152200	0.094600
H871	H87	0.353600	0.183600	0.134400
H881	H88	0.441800	0.221900	0.170700
H891	H89	0.608500	0.117600	0.027400
H901	H90	0.364600	0.055700	0.995000
H911	H91	0.154100	0.070900	0.030900
H921	H92	0.173700	0.106800	0.116000
H931	H93	0.450100	0.034800	0.954100
H941	H94	0.688100	0.094700	0.984800
H951	H95	0.996500	0.042600	0.039400
H961	H96	0.016000	0.078200	0.122600
C11	C1	0.955400	0.774900	0.760050
C21	C2	0.990200	0.771100	0.731680
C31	C3	0.998600	0.725900	0.719750
C41	C4	0.976000	0.685600	0.736610
C51	C5	0.941000	0.692600	0.764470
C61	C6	0.027000	0.719900	0.688550
C71	C7	0.061200	0.756100	0.645520
C81	C8	0.059900	0.674200	0.648800
C91	C9	0.075800	0.800000	0.628070
C101	C10	0.064400	0.845100	0.640970
C111	C11	0.080300	0.885300	0.624320
C121	C12	0.117200	0.840400	0.583970
C131	C13	0.101400	0.798000	0.598780
C141	C14	0.070700	0.627300	0.635060
C151	C15	0.086700	0.623300	0.605320
C161	C16	0.101000	0.578100	0.593300
C171	C17	0.084600	0.541400	0.637800
C181	C18	0.068300	0.585000	0.651400
C191	C19	0.878600	0.688200	0.866660
C201	C20	0.926800	0.666000	0.889760
C211	C21	0.027500	0.664200	0.889500
C221	C22	0.077300	0.684700	0.866500
C231	C23	0.023800	0.707100	0.844900
C241	C24	0.079500	0.640600	0.913860
C251	C25	0.078100	0.605900	0.958190
C261	C26	0.216600	0.606800	0.931780
C271	C27	0.024400	0.590800	0.984920
C281	C28	0.925700	0.601300	0.987660
C291	C29	0.069000	0.564800	0.006800
C301	C30	0.319900	0.591100	0.927100
C311	C31	0.373100	0.572300	0.950100
C321	C32	0.361400	0.593600	0.900000
C331	C33	0.017500	0.552300	0.030980
C341	C34	0.879000	0.587200	0.013040
C351	C35	0.466800	0.555600	0.944900
C361	C36	0.455300	0.576400	0.896200
C371	C37	0.044600	0.725100	0.260050
C381	C38	0.009800	0.728900	0.231680
C391	C39	0.001400	0.774100	0.219750
C401	C40	0.024000	0.814400	0.236610
C411	C41	0.059000	0.807400	0.264470
C421	C42	0.973000	0.780100	0.188550
C431	C43	0.938800	0.743900	0.145520
C441	C44	0.940100	0.825800	0.148800
C451	C45	0.924200	0.700000	0.128070
C461	C46	0.935600	0.654900	0.140970
C471	C47	0.919700	0.614700	0.124320
C481	C48	0.882800	0.659600	0.083970
C491	C49	0.898600	0.702000	0.098780
C501	C50	0.929300	0.872700	0.135060
C511	C51	0.913300	0.876700	0.105320
C521	C52	0.899000	0.921900	0.093300
C531	C53	0.915400	0.958600	0.137800
C541	C54	0.931700	0.915000	0.151400
C551	C55	0.121400	0.811800	0.366660
C561	C56	0.073200	0.834000	0.389760
C571	C57	0.972500	0.835800	0.389500
C581	C58	0.922700	0.815300	0.366500
C591	C59	0.976200	0.792900	0.344900
C601	C60	0.920500	0.859400	0.413860
C611	C61	0.921900	0.894100	0.458190
C621	C62	0.783400	0.893200	0.431780
C631	C63	0.975600	0.909200	0.484920
C641	C64	0.074300	0.898700	0.487660
C651	C65	0.931000	0.935200	0.506800
C661	C66	0.680100	0.908900	0.427100
C671	C67	0.626900	0.927700	0.450100
C681	C68	0.638600	0.906400	0.400000
C691	C69	0.982500	0.947700	0.530980
C701	C70	0.121000	0.912800	0.513040
C711	C71	0.533200	0.944400	0.444900
C721	C72	0.544700	0.923600	0.396200
C731	C73	0.455400	0.225100	0.739950
C741	C74	0.490200	0.228900	0.768320
C751	C75	0.498600	0.274100	0.780250
C761	C76	0.476000	0.314400	0.763390
C771	C77	0.441000	0.307400	0.735530
C781	C78	0.527000	0.280100	0.811450
C791	C79	0.561200	0.243900	0.854480
C801	C80	0.559900	0.325800	0.851200
C811	C81	0.575800	0.200000	0.871930
C821	C82	0.564400	0.154900	0.859030
C831	C83	0.580300	0.114700	0.875680
C841	C84	0.617200	0.159600	0.916030
C851	C85	0.601400	0.202000	0.901220
C861	C86	0.570700	0.372700	0.864940
C871	C87	0.586700	0.376700	0.894680
C881	C88	0.601000	0.421900	0.906700
C891	C89	0.584600	0.458600	0.862200
C901	C90	0.568300	0.415000	0.848600
C911	C91	0.378600	0.311800	0.633340
C921	C92	0.426800	0.334000	0.610240
C931	C93	0.527500	0.335800	0.610500
C941	C94	0.577300	0.315300	0.633500
C951	C95	0.523800	0.292900	0.655100
C961	C96	0.579500	0.359400	0.586140
C971	C97	0.578100	0.394100	0.541810
C981	C98	0.716600	0.393200	0.568220
C991	C99	0.524400	0.409200	0.515080
C1001	C100	0.425700	0.398700	0.512340
C1011	C101	0.569000	0.435200	0.493200
C1021	C102	0.819900	0.408900	0.572900
C1031	C103	0.873100	0.427700	0.549900
C1041	C104	0.861400	0.406400	0.600000
C1051	C105	0.517500	0.447700	0.469020
C1061	C106	0.379000	0.412800	0.486960
C1071	C107	0.966800	0.444400	0.555100
C1081	C108	0.955300	0.423600	0.603800
C1091	C109	0.544600	0.274900	0.239950
C1101	C110	0.509800	0.271100	0.268320
C1111	C111	0.501400	0.225900	0.280250
C1121	C112	0.524000	0.185600	0.263390
C1131	C113	0.559000	0.192600	0.235530
C1141	C114	0.473000	0.219900	0.311450
C1151	C115	0.438800	0.256100	0.354480
C1161	C116	0.440100	0.174200	0.351200
C1171	C117	0.424200	0.300000	0.371930
C1181	C118	0.435600	0.345100	0.359030
C1191	C119	0.419700	0.385300	0.375680
C1201	C120	0.382800	0.340400	0.416030
C1211	C121	0.398600	0.298000	0.401220
C1221	C122	0.429300	0.127300	0.364940
C1231	C123	0.413300	0.123300	0.394680
C1241	C124	0.399000	0.078100	0.406700
C1251	C125	0.415400	0.041400	0.362200
C1261	C126	0.431700	0.085000	0.348600
C1271	C127	0.621400	0.188200	0.133340
C1281	C128	0.573200	0.166000	0.110240
C1291	C129	0.472500	0.164200	0.110500
C1301	C130	0.422700	0.184700	0.133500
C1311	C131	0.476200	0.207100	0.155100
C1321	C132	0.420500	0.140600	0.086140
C1331	C133	0.421900	0.105900	0.041810
C1341	C134	0.283400	0.106800	0.068220
C1351	C135	0.475600	0.090800	0.015080
C1361	C136	0.574300	0.101300	0.012340
C1371	C137	0.431000	0.064800	0.993200
C1381	C138	0.180100	0.091100	0.072900
C1391	C139	0.126900	0.072300	0.049900
C1401	C140	0.138600	0.093600	0.100000
C1411	C141	0.482500	0.052300	0.969020
C1421	C142	0.621000	0.087200	0.986960
C1431	C143	0.033200	0.055600	0.055100
C1441	C144	0.044700	0.076400	0.103800
I11	I1	0.839500	0.835440	0.824800
I21	I2	0.690960	0.697350	0.806660
I31	I3	0.050800	0.014060	0.601070
I41	I4	0.327750	0.942130	0.566750
I51	I5	0.224590	0.426020	0.631420
I61	I6	0.222660	0.489210	0.541320
I71	I7	0.160500	0.664560	0.324800
I81	I8	0.309040	0.802650	0.306660
I91	I9	0.949200	0.485940	0.101070
I101	I10	0.672250	0.557870	0.066750
I111	I11	0.775410	0.073980	0.131420
I121	I12	0.777340	0.010790	0.041320
I131	I13	0.339500	0.164560	0.675200
I141	I14	0.190960	0.302650	0.693340
I151	I15	0.550800	0.985940	0.898930
I161	I16	0.827750	0.057870	0.933250
I171	I17	0.724590	0.573980	0.868580
I181	I18	0.722660	0.510790	0.958680
I191	I19	0.660500	0.335440	0.175200
I201	I20	0.809040	0.197350	0.193340
I211	I21	0.449200	0.514060	0.398930
I221	I22	0.172250	0.442130	0.433250
I231	I23	0.275410	0.926020	0.368580
I241	I24	0.277340	0.989210	0.458680
N11	N1	0.928800	0.736600	0.775980
N21	N2	0.039400	0.761300	0.673530
N31	N3	0.072500	0.713400	0.631900
N41	N4	0.035700	0.676000	0.677530
N51	N5	0.107000	0.884000	0.596270
N61	N6	0.101700	0.537500	0.609130
N71	N7	0.926600	0.709000	0.844550
N81	N8	0.028100	0.629200	0.937790
N91	N9	0.172300	0.593800	0.956840
N101	N10	0.175000	0.630900	0.909740
N111	N11	0.923400	0.563600	0.034780
N121	N12	0.506900	0.557500	0.918170
N131	N13	0.071200	0.763400	0.275980
N141	N14	0.960600	0.738700	0.173530
N151	N15	0.927500	0.786600	0.131900
N161	N16	0.964300	0.824000	0.177530
N171	N17	0.893000	0.616000	0.096270
N181	N18	0.898300	0.962500	0.109130
N191	N19	0.073400	0.791000	0.344550
N201	N20	0.971900	0.870800	0.437790
N211	N21	0.827700	0.906200	0.456840
N221	N22	0.825000	0.869100	0.409740
N231	N23	0.076600	0.936400	0.534780
N241	N24	0.493100	0.942500	0.418170
N251	N25	0.428800	0.263400	0.724020
N261	N26	0.539400	0.238700	0.826470
N271	N27	0.572500	0.286600	0.868100
N281	N28	0.535700	0.324000	0.822470
N291	N29	0.607000	0.116000	0.903730
N301	N30	0.601700	0.462500	0.890870
N311	N31	0.426600	0.291000	0.655450
N321	N32	0.528100	0.370800	0.562210
N331	N33	0.672300	0.406200	0.543160
N341	N34	0.675000	0.369100	0.590260
N351	N35	0.423400	0.436400	0.465220
N361	N36	0.006900	0.442500	0.581830
N371	N37	0.571200	0.236600	0.224020
N381	N38	0.460600	0.261300	0.326470
N391	N39	0.427500	0.213400	0.368100
N401	N40	0.464300	0.176000	0.322470
N411	N41	0.393000	0.384000	0.403730
N421	N42	0.398300	0.037500	0.390870
N431	N43	0.573400	0.209000	0.155450
N441	N44	0.471900	0.129200	0.062210
N451	N45	0.327700	0.093800	0.043160
N461	N46	0.325000	0.130900	0.090260
N471	N47	0.576600	0.063600	0.965220
N481	N48	0.993100	0.057500	0.081830
Zn131	Zn13	0.151710	0.254460	0.186510
Zn141	Zn14	0.855680	0.052500	0.425260
Zn151	Zn15	0.858460	0.527480	0.409610
Zn161	Zn16	0.848290	0.245540	0.686510
Zn171	Zn17	0.144320	0.447500	0.925260
Zn181	Zn18	0.141540	0.972520	0.909610
Zn191	Zn19	0.651710	0.745540	0.313490
Zn201	Zn20	0.355680	0.947500	0.074740
Zn211	Zn21	0.358460	0.472520	0.090390
Zn221	Zn22	0.348290	0.754460	0.813490
Zn231	Zn23	0.644320	0.552500	0.574740
Zn241	Zn24	0.641540	0.027480	0.590390
H971	H97	0.049700	0.194000	0.231500
H981	H98	0.992300	0.201000	0.279200
H991	H99	0.015500	0.346000	0.270900
H1001	H100	0.075100	0.334800	0.224100
H1011	H101	0.954000	0.152100	0.339100
H1021	H102	0.928100	0.084100	0.366800
H1031	H103	0.863800	0.161300	0.435900
H1041	H104	0.892100	0.232000	0.410900
H1051	H105	0.912100	0.348800	0.406600
H1061	H106	0.889300	0.424200	0.427200
H1071	H107	0.916400	0.487000	0.350800
H1081	H108	0.944400	0.413800	0.328200
H1091	H109	0.190600	0.311400	0.133400
H1101	H110	0.108900	0.347800	0.094600
H1111	H111	0.853600	0.316400	0.134400
H1121	H112	0.941800	0.278100	0.170700
H1131	H113	0.108500	0.382400	0.027400
H1141	H114	0.864600	0.444300	0.995000
H1151	H115	0.654100	0.429100	0.030900
H1161	H116	0.673700	0.393200	0.116000
H1171	H117	0.950100	0.465200	0.954100
H1181	H118	0.188100	0.405300	0.984800
H1191	H119	0.496500	0.457400	0.039400
H1201	H120	0.516000	0.421800	0.122600
H1211	H121	0.950300	0.306000	0.731500
H1221	H122	0.007700	0.299000	0.779200
H1231	H123	0.984500	0.154000	0.770900
H1241	H124	0.924900	0.165200	0.724100
H1251	H125	0.046000	0.347900	0.839100
H1261	H126	0.071900	0.415900	0.866800
H1271	H127	0.136200	0.338700	0.935900
H1281	H128	0.107900	0.268000	0.910900
H1291	H129	0.087900	0.151200	0.906600
H1301	H130	0.110700	0.075800	0.927200
H1311	H131	0.083600	0.013000	0.850800
H1321	H132	0.055600	0.086200	0.828200
H1331	H133	0.809400	0.188600	0.633400
H1341	H134	0.891100	0.152200	0.594600
H1351	H135	0.146400	0.183600	0.634400
H1361	H136	0.058200	0.221900	0.670700
H1371	H137	0.891500	0.117600	0.527400
H1381	H138	0.135400	0.055700	0.495000
H1391	H139	0.345900	0.070900	0.530900
H1401	H140	0.326300	0.106800	0.616000
H1411	H141	0.049900	0.034800	0.454100
H1421	H142	0.811900	0.094700	0.484800
H1431	H143	0.503500	0.042600	0.539400
H1441	H144	0.484000	0.078200	0.622600
H1451	H145	0.549700	0.806000	0.268500
H1461	H146	0.492300	0.799000	0.220800
H1471	H147	0.515500	0.654000	0.229100
H1481	H148	0.575100	0.665200	0.275900
H1491	H149	0.454000	0.847900	0.160900
H1501	H150	0.428100	0.915900	0.133200
H1511	H151	0.363800	0.838700	0.064100
H1521	H152	0.392100	0.768000	0.089100
H1531	H153	0.412100	0.651200	0.093400
H1541	H154	0.389300	0.575800	0.072800
H1551	H155	0.416400	0.513000	0.149200
H1561	H156	0.444400	0.586200	0.171800
H1571	H157	0.690600	0.688600	0.366600
H1581	H158	0.608900	0.652200	0.405400
H1591	H159	0.353600	0.683600	0.365600
H1601	H160	0.441800	0.721900	0.329300
H1611	H161	0.608500	0.617600	0.472600
H1621	H162	0.364600	0.555700	0.505000
H1631	H163	0.154100	0.570900	0.469100
H1641	H164	0.173700	0.606800	0.384000
H1651	H165	0.450100	0.534800	0.545900
H1661	H166	0.688100	0.594700	0.515200
H1671	H167	0.996500	0.542600	0.460600
H1681	H168	0.016000	0.578200	0.377400
H1691	H169	0.450300	0.694000	0.768500
H1701	H170	0.507700	0.701000	0.720800
H1711	H171	0.484500	0.846000	0.729100
H1721	H172	0.424900	0.834800	0.775900
H1731	H173	0.546000	0.652100	0.660900
H1741	H174	0.571900	0.584100	0.633200
H1751	H175	0.636200	0.661300	0.564100
H1761	H176	0.607900	0.732000	0.589100
H1771	H177	0.587900	0.848800	0.593400
H1781	H178	0.610700	0.924200	0.572800
H1791	H179	0.583600	0.987000	0.649200
H1801	H180	0.555600	0.913800	0.671800
H1811	H181	0.309400	0.811400	0.866600
H1821	H182	0.391100	0.847800	0.905400
H1831	H183	0.646400	0.816400	0.865600
H1841	H184	0.558200	0.778100	0.829300
H1851	H185	0.391500	0.882400	0.972600
H1861	H186	0.635400	0.944300	0.005000
H1871	H187	0.845900	0.929100	0.969100
H1881	H188	0.826300	0.893200	0.884000
H1891	H189	0.549900	0.965200	0.045900
H1901	H190	0.311900	0.905300	0.015200
H1911	H191	0.003500	0.957400	0.960600
H1921	H192	0.984000	0.921800	0.877400
C1451	C145	0.044600	0.225100	0.239950
C1461	C146	0.009800	0.228900	0.268320
C1471	C147	0.001400	0.274100	0.280250
C1481	C148	0.024000	0.314400	0.263390
C1491	C149	0.059000	0.307400	0.235530
C1501	C150	0.973000	0.280100	0.311450
C1511	C151	0.938800	0.243900	0.354480
C1521	C152	0.940100	0.325800	0.351200
C1531	C153	0.924200	0.200000	0.371930
C1541	C154	0.935600	0.154900	0.359030
C1551	C155	0.919700	0.114700	0.375680
C1561	C156	0.882800	0.159600	0.416030
C1571	C157	0.898600	0.202000	0.401220
C1581	C158	0.929300	0.372700	0.364940
C1591	C159	0.913300	0.376700	0.394680
C1601	C160	0.899000	0.421900	0.406700
C1611	C161	0.915400	0.458600	0.362200
C1621	C162	0.931700	0.415000	0.348600
C1631	C163	0.121400	0.311800	0.133340
C1641	C164	0.073200	0.334000	0.110240
C1651	C165	0.972500	0.335800	0.110500
C1661	C166	0.922700	0.315300	0.133500
C1671	C167	0.976200	0.292900	0.155100
C1681	C168	0.920500	0.359400	0.086140
C1691	C169	0.921900	0.394100	0.041810
C1701	C170	0.783400	0.393200	0.068220
C1711	C171	0.975600	0.409200	0.015080
C1721	C172	0.074300	0.398700	0.012340
C1731	C173	0.931000	0.435200	0.993200
C1741	C174	0.680100	0.408900	0.072900
C1751	C175	0.626900	0.427700	0.049900
C1761	C176	0.638600	0.406400	0.100000
C1771	C177	0.982500	0.447700	0.969020
C1781	C178	0.121000	0.412800	0.986960
C1791	C179	0.533200	0.444400	0.055100
C1801	C180	0.544700	0.423600	0.103800
C1811	C181	0.955400	0.274900	0.739950
C1821	C182	0.990200	0.271100	0.768320
C1831	C183	0.998600	0.225900	0.780250
C1841	C184	0.976000	0.185600	0.763390
C1851	C185	0.941000	0.192600	0.735530
C1861	C186	0.027000	0.219900	0.811450
C1871	C187	0.061200	0.256100	0.854480
C1881	C188	0.059900	0.174200	0.851200
C1891	C189	0.075800	0.300000	0.871930
C1901	C190	0.064400	0.345100	0.859030
C1911	C191	0.080300	0.385300	0.875680
C1921	C192	0.117200	0.340400	0.916030
C1931	C193	0.101400	0.298000	0.901220
C1941	C194	0.070700	0.127300	0.864940
C1951	C195	0.086700	0.123300	0.894680
C1961	C196	0.101000	0.078100	0.906700
C1971	C197	0.084600	0.041400	0.862200
C1981	C198	0.068300	0.085000	0.848600
C1991	C199	0.878600	0.188200	0.633340
C2001	C200	0.926800	0.166000	0.610240
C2011	C201	0.027500	0.164200	0.610500
C2021	C202	0.077300	0.184700	0.633500
C2031	C203	0.023800	0.207100	0.655100
C2041	C204	0.079500	0.140600	0.586140
C2051	C205	0.078100	0.105900	0.541810
C2061	C206	0.216600	0.106800	0.568220
C2071	C207	0.024400	0.090800	0.515080
C2081	C208	0.925700	0.101300	0.512340
C2091	C209	0.069000	0.064800	0.493200
C2101	C210	0.319900	0.091100	0.572900
C2111	C211	0.373100	0.072300	0.549900
C2121	C212	0.361400	0.093600	0.600000
C2131	C213	0.017500	0.052300	0.469020
C2141	C214	0.879000	0.087200	0.486960
C2151	C215	0.466800	0.055600	0.555100
C2161	C216	0.455300	0.076400	0.603800
C2171	C217	0.544600	0.774900	0.260050
C2181	C218	0.509800	0.771100	0.231680
C2191	C219	0.501400	0.725900	0.219750
C2201	C220	0.524000	0.685600	0.236610
C2211	C221	0.559000	0.692600	0.264470
C2221	C222	0.473000	0.719900	0.188550
C2231	C223	0.438800	0.756100	0.145520
C2241	C224	0.440100	0.674200	0.148800
C2251	C225	0.424200	0.800000	0.128070
C2261	C226	0.435600	0.845100	0.140970
C2271	C227	0.419700	0.885300	0.124320
C2281	C228	0.382800	0.840400	0.083970
C2291	C229	0.398600	0.798000	0.098780
C2301	C230	0.429300	0.627300	0.135060
C2311	C231	0.413300	0.623300	0.105320
C2321	C232	0.399000	0.578100	0.093300
C2331	C233	0.415400	0.541400	0.137800
C2341	C234	0.431700	0.585000	0.151400
C2351	C235	0.621400	0.688200	0.366660
C2361	C236	0.573200	0.666000	0.389760
C2371	C237	0.472500	0.664200	0.389500
C2381	C238	0.422700	0.684700	0.366500
C2391	C239	0.476200	0.707100	0.344900
C2401	C240	0.420500	0.640600	0.413860
C2411	C241	0.421900	0.605900	0.458190
C2421	C242	0.283400	0.606800	0.431780
C2431	C243	0.475600	0.590800	0.484920
C2441	C244	0.574300	0.601300	0.487660
C2451	C245	0.431000	0.564800	0.506800
C2461	C246	0.180100	0.591100	0.427100
C2471	C247	0.126900	0.572300	0.450100
C2481	C248	0.138600	0.593600	0.400000
C2491	C249	0.482500	0.552300	0.530980
C2501	C250	0.621000	0.587200	0.513040
C2511	C251	0.033200	0.555600	0.444900
C2521	C252	0.044700	0.576400	0.396200
C2531	C253	0.455400	0.725100	0.760050
C2541	C254	0.490200	0.728900	0.731680
C2551	C255	0.498600	0.774100	0.719750
C2561	C256	0.476000	0.814400	0.736610
C2571	C257	0.441000	0.807400	0.764470
C2581	C258	0.527000	0.780100	0.688550
C2591	C259	0.561200	0.743900	0.645520
C2601	C260	0.559900	0.825800	0.648800
C2611	C261	0.575800	0.700000	0.628070
C2621	C262	0.564400	0.654900	0.640970
C2631	C263	0.580300	0.614700	0.624320
C2641	C264	0.617200	0.659600	0.583970
C2651	C265	0.601400	0.702000	0.598780
C2661	C266	0.570700	0.872700	0.635060
C2671	C267	0.586700	0.876700	0.605320
C2681	C268	0.601000	0.921900	0.593300
C2691	C269	0.584600	0.958600	0.637800
C2701	C270	0.568300	0.915000	0.651400
C2711	C271	0.378600	0.811800	0.866660
C2721	C272	0.426800	0.834000	0.889760
C2731	C273	0.527500	0.835800	0.889500
C2741	C274	0.577300	0.815300	0.866500
C2751	C275	0.523800	0.792900	0.844900
C2761	C276	0.579500	0.859400	0.913860
C2771	C277	0.578100	0.894100	0.958190
C2781	C278	0.716600	0.893200	0.931780
C2791	C279	0.524400	0.909200	0.984920
C2801	C280	0.425700	0.898700	0.987660
C2811	C281	0.569000	0.935200	0.006800
C2821	C282	0.819900	0.908900	0.927100
C2831	C283	0.873100	0.927700	0.950100
C2841	C284	0.861400	0.906400	0.900000
C2851	C285	0.517500	0.947700	0.030980
C2861	C286	0.379000	0.912800	0.013040
C2871	C287	0.966800	0.944400	0.944900
C2881	C288	0.955300	0.923600	0.896200
I251	I25	0.160500	0.164560	0.175200
I261	I26	0.309040	0.302650	0.193340
I271	I27	0.949200	0.985940	0.398930
I281	I28	0.672250	0.057870	0.433250
I291	I29	0.775410	0.573980	0.368580
I301	I30	0.777340	0.510790	0.458680
I311	I31	0.839500	0.335440	0.675200
I321	I32	0.690960	0.197350	0.693340
I331	I33	0.050800	0.514060	0.898930
I341	I34	0.327750	0.442130	0.933250
I351	I35	0.224590	0.926020	0.868580
I361	I36	0.222660	0.989210	0.958680
I371	I37	0.660500	0.835440	0.324800
I381	I38	0.809040	0.697350	0.306660
I391	I39	0.449200	0.014060	0.101070
I401	I40	0.172250	0.942130	0.066750
I411	I41	0.275410	0.426020	0.131420
I421	I42	0.277340	0.489210	0.041320
I431	I43	0.339500	0.664560	0.824800
I441	I44	0.190960	0.802650	0.806660
I451	I45	0.550800	0.485940	0.601070
I461	I46	0.827750	0.557870	0.566750
I471	I47	0.724590	0.073980	0.631420
I481	I48	0.722660	0.010790	0.541320
N491	N49	0.071200	0.263400	0.224020
N501	N50	0.960600	0.238700	0.326470
N511	N51	0.927500	0.286600	0.368100
N521	N52	0.964300	0.324000	0.322470
N531	N53	0.893000	0.116000	0.403730
N541	N54	0.898300	0.462500	0.390870
N551	N55	0.073400	0.291000	0.155450
N561	N56	0.971900	0.370800	0.062210
N571	N57	0.827700	0.406200	0.043160
N581	N58	0.825000	0.369100	0.090260
N591	N59	0.076600	0.436400	0.965220
N601	N60	0.493100	0.442500	0.081830
N611	N61	0.928800	0.236600	0.724020
N621	N62	0.039400	0.261300	0.826470
N631	N63	0.072500	0.213400	0.868100
N641	N64	0.035700	0.176000	0.822470
N651	N65	0.107000	0.384000	0.903730
N661	N66	0.101700	0.037500	0.890870
N671	N67	0.926600	0.209000	0.655450
N681	N68	0.028100	0.129200	0.562210
N691	N69	0.172300	0.093800	0.543160
N701	N70	0.175000	0.130900	0.590260
N711	N71	0.923400	0.063600	0.465220
N721	N72	0.506900	0.057500	0.581830
N731	N73	0.571200	0.736600	0.275980
N741	N74	0.460600	0.761300	0.173530
N751	N75	0.427500	0.713400	0.131900
N761	N76	0.464300	0.676000	0.177530
N771	N77	0.393000	0.884000	0.096270
N781	N78	0.398300	0.537500	0.109130
N791	N79	0.573400	0.709000	0.344550
N801	N80	0.471900	0.629200	0.437790
N811	N81	0.327700	0.593800	0.456840
N821	N82	0.325000	0.630900	0.409740
N831	N83	0.576600	0.563600	0.534780
N841	N84	0.993100	0.557500	0.418170
N851	N85	0.428800	0.763400	0.775980
N861	N86	0.539400	0.738700	0.673530
N871	N87	0.572500	0.786600	0.631900
N881	N88	0.535700	0.824000	0.677530
N891	N89	0.607000	0.616000	0.596270
N901	N90	0.601700	0.962500	0.609130
N911	N91	0.426600	0.791000	0.844550
N921	N92	0.528100	0.870800	0.937790
N931	N93	0.672300	0.906200	0.956840
N941	N94	0.675000	0.869100	0.909740
N951	N95	0.423400	0.936400	0.034780
N961	N96	0.006900	0.942500	0.918170
