data_LALFEL_freeONLY_PM
_symmetry_space_group_name_H-M	'P1'
_cell_length_a	16.955000
_cell_length_b	9.543000
_cell_length_c	18.549000
_cell_angle_alpha	90.000000
_cell_angle_beta	90.010000
_cell_angle_gamma	90.000000
_symmetry_Int_Tables_number 1

loop_
_symmetry_equiv_pos_as_xyz
'x,y,z'

loop_
_atom_site_label
_atom_site_type_symbol
_atom_site_fract_x
_atom_site_fract_y
_atom_site_fract_z
Cd11	Cd1	0.414150	0.913460	0.631390
Cd21	Cd2	0.080650	0.751830	0.568320
O11	O1	0.492100	0.757800	0.693100
O21	O2	0.380400	0.766200	0.757200
O31	O3	0.555100	0.579000	0.786300
O41	O4	0.444300	0.582200	0.851800
O51	O5	0.411200	0.066600	0.534900
O61	O6	0.490100	0.158500	0.453300
O71	O7	0.281900	0.977700	0.656900
O81	O8	0.158200	0.922700	0.630000
O91	O9	0.333700	0.766700	0.570500
O101	O10	0.211000	0.718700	0.542100
O111	O11	0.067300	0.880300	0.463300
O121	O12	0.013000	0.068600	0.413200
O131	O13	0.959800	0.639500	0.549200
O141	O14	0.900300	0.465200	0.490000
O151	O15	0.077900	0.662800	0.684500
C11	C1	0.449700	0.722800	0.745300
C21	C2	0.485900	0.619300	0.800200
C31	C3	0.472000	0.066600	0.495800
C41	C4	0.230400	0.905600	0.625200
C51	C5	0.260200	0.786100	0.575400
C61	C6	0.022800	0.987600	0.464200
C71	C7	0.958800	0.531800	0.511800
Cd31	Cd3	0.585850	0.413460	0.868610
Cd41	Cd4	0.919350	0.251830	0.931680
O161	O16	0.507900	0.257800	0.806900
O171	O17	0.619600	0.266200	0.742800
O181	O18	0.444900	0.079000	0.713700
O191	O19	0.555700	0.082200	0.648200
O201	O20	0.588800	0.566600	0.965100
O211	O21	0.509900	0.658500	0.046700
O221	O22	0.718100	0.477700	0.843100
O231	O23	0.841800	0.422700	0.870000
O241	O24	0.666300	0.266700	0.929500
O251	O25	0.789000	0.218700	0.957900
O261	O26	0.932700	0.380300	0.036700
O271	O27	0.987000	0.568600	0.086800
O281	O28	0.040200	0.139500	0.950800
O291	O29	0.099700	0.965200	0.010000
O301	O30	0.922100	0.162800	0.815500
C81	C8	0.550300	0.222800	0.754700
C91	C9	0.514100	0.119300	0.699800
C101	C10	0.528000	0.566600	0.004200
C111	C11	0.769600	0.405600	0.874800
C121	C12	0.739800	0.286100	0.924600
C131	C13	0.977200	0.487600	0.035800
C141	C14	0.041200	0.031800	0.988200
Cd51	Cd5	0.585850	0.086540	0.368610
Cd61	Cd6	0.919350	0.248170	0.431680
O311	O31	0.507900	0.242200	0.306900
O321	O32	0.619600	0.233800	0.242800
O331	O33	0.444900	0.421000	0.213700
O341	O34	0.555700	0.417800	0.148200
O351	O35	0.588800	0.933400	0.465100
O361	O36	0.509900	0.841500	0.546700
O371	O37	0.718100	0.022300	0.343100
O381	O38	0.841800	0.077300	0.370000
O391	O39	0.666300	0.233300	0.429500
O401	O40	0.789000	0.281300	0.457900
O411	O41	0.932700	0.119700	0.536700
O421	O42	0.987000	0.931400	0.586800
O431	O43	0.040200	0.360500	0.450800
O441	O44	0.099700	0.534800	0.510000
O451	O45	0.922100	0.337200	0.315500
C151	C15	0.550300	0.277200	0.254700
C161	C16	0.514100	0.380700	0.199800
C171	C17	0.528000	0.933400	0.504200
C181	C18	0.769600	0.094400	0.374800
C191	C19	0.739800	0.213900	0.424600
C201	C20	0.977200	0.012400	0.535800
C211	C21	0.041200	0.468200	0.488200
Cd71	Cd7	0.414150	0.586540	0.131390
Cd81	Cd8	0.080650	0.748170	0.068320
O461	O46	0.492100	0.742200	0.193100
O471	O47	0.380400	0.733800	0.257200
O481	O48	0.555100	0.921000	0.286300
O491	O49	0.444300	0.917800	0.351800
O501	O50	0.411200	0.433400	0.034900
O511	O51	0.490100	0.341500	0.953300
O521	O52	0.281900	0.522300	0.156900
O531	O53	0.158200	0.577300	0.130000
O541	O54	0.333700	0.733300	0.070500
O551	O55	0.211000	0.781300	0.042100
O561	O56	0.067300	0.619700	0.963300
O571	O57	0.013000	0.431400	0.913200
O581	O58	0.959800	0.860500	0.049200
O591	O59	0.900300	0.034800	0.990000
O601	O60	0.077900	0.837200	0.184500
C221	C22	0.449700	0.777200	0.245300
C231	C23	0.485900	0.880700	0.300200
C241	C24	0.472000	0.433400	0.995800
C251	C25	0.230400	0.594400	0.125200
C261	C26	0.260200	0.713900	0.075400
C271	C27	0.022800	0.512400	0.964200
C281	C28	0.958800	0.968200	0.011800
