data_LALPOF_freeONLY_PM
_symmetry_space_group_name_H-M	'P1'
_cell_length_a	9.587900
_cell_length_b	11.570000
_cell_length_c	14.583000
_cell_angle_alpha	69.160000
_cell_angle_beta	85.200000
_cell_angle_gamma	86.300000
_symmetry_Int_Tables_number 1

loop_
_symmetry_equiv_pos_as_xyz
'x,y,z'

loop_
_atom_site_label
_atom_site_type_symbol
_atom_site_fract_x
_atom_site_fract_y
_atom_site_fract_z
Ce11	Ce1	0.793910	0.956850	0.001210
Ce21	Ce2	0.206090	0.043150	0.998790
H11	H1	0.867600	0.369800	0.836400
H21	H2	0.969600	0.372800	0.746100
H31	H3	0.329000	0.384000	0.894000
H41	H4	0.258000	0.480000	0.802000
H51	H5	0.878700	0.944400	0.555900
H61	H6	0.875600	0.066300	0.463200
H71	H7	0.272700	0.348100	0.394000
H81	H8	0.258400	0.286000	0.321800
H91	H9	0.851200	0.106900	0.285500
H101	H10	0.818200	0.230300	0.198000
H111	H11	0.119100	0.533300	0.433800
H121	H12	0.110900	0.410400	0.525700
H131	H13	0.672800	0.048900	0.605200
H141	H14	0.630700	0.119700	0.671300
H151	H15	0.481600	0.834100	0.804900
H161	H16	0.631200	0.827500	0.755300
H171	H17	0.031200	0.482400	0.908800
H181	H18	0.078600	0.388300	0.009700
H191	H19	0.621400	0.201400	0.991600
H201	H20	0.565200	0.168200	0.926100
H211	H21	0.132400	0.630200	0.163600
H221	H22	0.030400	0.627200	0.253900
H231	H23	0.671000	0.616000	0.106000
H241	H24	0.742000	0.520000	0.198000
H251	H25	0.121300	0.055600	0.444100
H261	H26	0.124400	0.933700	0.536800
H271	H27	0.727300	0.651900	0.606000
H281	H28	0.741600	0.714000	0.678200
H291	H29	0.148800	0.893100	0.714500
H301	H30	0.181800	0.769700	0.802000
H311	H31	0.880900	0.466700	0.566200
H321	H32	0.889100	0.589600	0.474300
H331	H33	0.327200	0.951100	0.394800
H341	H34	0.369300	0.880300	0.328700
H351	H35	0.518400	0.165900	0.195100
H361	H36	0.368800	0.172500	0.244700
H371	H37	0.968800	0.517600	0.091200
H381	H38	0.921400	0.611700	0.990300
H391	H39	0.378600	0.798600	0.008400
H401	H40	0.434800	0.831800	0.073900
C11	C1	0.923100	0.097600	0.149900
C21	C2	0.888400	0.193400	0.680700
C31	C3	0.007800	0.223600	0.868500
C41	C4	0.912900	0.319200	0.801100
C51	C5	0.929400	0.018300	0.518600
C61	C6	0.985300	0.305600	0.316400
C71	C7	0.888000	0.164300	0.223000
C81	C8	0.944000	0.093000	0.582400
C91	C9	0.995600	0.407200	0.415400
C101	C10	0.056600	0.470400	0.475700
C111	C11	0.575200	0.797300	0.817100
C121	C12	0.635500	0.844800	0.888800
C131	C13	0.398800	0.612600	0.912700
C141	C14	0.188600	0.545100	0.961000
C151	C15	0.059500	0.475200	0.973000
C161	C16	0.076900	0.902400	0.850100
C171	C17	0.111600	0.806600	0.319300
C181	C18	0.992200	0.776400	0.131500
C191	C19	0.087100	0.680800	0.198900
C201	C20	0.070600	0.981700	0.481400
C211	C21	0.014700	0.694400	0.683600
C221	C22	0.112000	0.835700	0.777000
C231	C23	0.056000	0.907000	0.417600
C241	C24	0.004400	0.592800	0.584600
C251	C25	0.943400	0.529600	0.524300
C261	C26	0.424800	0.202700	0.182900
C271	C27	0.364500	0.155200	0.111200
C281	C28	0.601200	0.387400	0.087300
C291	C29	0.811400	0.454900	0.039000
C301	C30	0.940500	0.524800	0.027000
S11	S1	0.048460	0.226840	0.238680
S21	S2	0.563900	0.631930	0.851240
S31	S3	0.780310	0.256580	0.754180
S41	S4	0.951540	0.773160	0.761320
S51	S5	0.436100	0.368070	0.148760
S61	S6	0.219690	0.743420	0.245820
N11	N1	0.306600	0.532600	0.905100
N21	N2	0.206100	0.628800	0.999600
N31	N3	0.075700	0.348700	0.362600
N41	N4	0.023200	0.201400	0.661800
N51	N5	0.341700	0.670600	0.969600
N61	N6	0.833500	0.126700	0.633300
N71	N7	0.333700	0.454500	0.850000
N81	N8	0.221100	0.324500	0.359000
N91	N9	0.058600	0.135300	0.597300
N101	N10	0.866300	0.401500	0.402900
N111	N11	0.857400	0.335200	0.338500
N121	N12	0.694500	0.094300	0.637100
N131	N13	0.693400	0.467400	0.094900
N141	N14	0.793900	0.371200	0.000400
N151	N15	0.924300	0.651300	0.637400
N161	N16	0.976800	0.798600	0.338200
N171	N17	0.658300	0.329400	0.030400
N181	N18	0.166500	0.873300	0.366700
N191	N19	0.666300	0.545500	0.150000
N201	N20	0.778900	0.675500	0.641000
N211	N21	0.941400	0.864700	0.402700
N221	N22	0.133700	0.598500	0.597100
N231	N23	0.142600	0.664800	0.661500
N241	N24	0.305500	0.905700	0.362900
O11	O1	0.825400	0.047600	0.129380
O21	O2	0.959500	0.121700	0.925070
O31	O3	0.131500	0.249100	0.869170
O41	O4	0.048900	0.099400	0.117400
O51	O5	0.682800	0.776200	0.966950
O61	O6	0.638300	0.962900	0.861460
O71	O7	0.624600	0.133200	0.977950
O81	O8	0.592600	0.879600	0.135250
O91	O9	0.174600	0.952400	0.870620
O101	O10	0.040500	0.878300	0.074930
O111	O11	0.868500	0.750900	0.130830
O121	O12	0.951100	0.900600	0.882600
O131	O13	0.317200	0.223800	0.033050
O141	O14	0.361700	0.037100	0.138540
O151	O15	0.375400	0.866800	0.022050
O161	O16	0.407400	0.120400	0.864750
