data_LASMAV_neutral_PM
_symmetry_space_group_name_H-M	'P1'
_cell_length_a	16.369300
_cell_length_b	24.803000
_cell_length_c	24.803000
_cell_angle_alpha	120.000000
_cell_angle_beta	90.000000
_cell_angle_gamma	90.000000
_symmetry_Int_Tables_number 1

loop_
_symmetry_equiv_pos_as_xyz
'x,y,z'

loop_
_atom_site_label
_atom_site_type_symbol
_atom_site_fract_x
_atom_site_fract_y
_atom_site_fract_z
Co11	Co1	0.346380	0.343450	0.107630
Co21	Co2	0.346380	0.764180	0.656550
Co31	Co3	0.346380	0.892370	0.235820
Co41	Co4	0.846380	0.656550	0.892370
Co51	Co5	0.846380	0.235820	0.343450
Co61	Co6	0.846380	0.107630	0.764180
Co71	Co7	0.653620	0.656550	0.892370
Co81	Co8	0.653620	0.235820	0.343450
Co91	Co9	0.653620	0.107630	0.764180
Co101	Co10	0.153620	0.343450	0.107630
Co111	Co11	0.153620	0.764180	0.656550
Co121	Co12	0.153620	0.892370	0.235820
Co131	Co13	0.750000	0.641020	0.241820
Co141	Co14	0.750000	0.600800	0.358980
Co151	Co15	0.750000	0.758180	0.399200
Co161	Co16	0.250000	0.358980	0.758180
Co171	Co17	0.250000	0.399200	0.641020
Co181	Co18	0.250000	0.241820	0.600800
Co191	Co19	0.250000	0.201570	0.080080
Co201	Co20	0.250000	0.878510	0.798430
Co211	Co21	0.250000	0.919920	0.121490
Co221	Co22	0.750000	0.798430	0.919920
Co231	Co23	0.750000	0.121490	0.201570
Co241	Co24	0.750000	0.080080	0.878510
H11	H1	0.631600	0.615500	0.135500
H21	H2	0.625900	0.614100	0.042600
H31	H3	0.419700	0.427300	0.238500
H41	H4	0.524600	0.494300	0.286500
H51	H5	0.570400	0.494400	0.127900
H61	H6	0.465100	0.425400	0.083400
H71	H7	0.379900	0.275500	0.965300
H81	H8	0.476600	0.216800	0.893100
H91	H9	0.615500	0.228500	0.032800
H101	H10	0.514500	0.285200	0.099500
H111	H11	0.631600	0.520000	0.384500
H121	H12	0.625900	0.428500	0.385900
H131	H13	0.419700	0.811200	0.572700
H141	H14	0.524600	0.792200	0.505700
H151	H15	0.570400	0.633500	0.505600
H161	H16	0.465100	0.658000	0.574600
H171	H17	0.379900	0.689800	0.724500
H181	H18	0.476600	0.676300	0.783200
H191	H19	0.615500	0.804300	0.771500
H201	H20	0.514500	0.814300	0.714800
H211	H21	0.631600	0.864500	0.480000
H221	H22	0.625900	0.957400	0.571500
H231	H23	0.419700	0.761500	0.188800
H241	H24	0.524600	0.713500	0.207800
H251	H25	0.570400	0.872100	0.366500
H261	H26	0.465100	0.916600	0.342000
H271	H27	0.379900	0.034700	0.310200
H281	H28	0.476600	0.106900	0.323700
H291	H29	0.615500	0.967200	0.195700
H301	H30	0.514500	0.900500	0.185700
H311	H31	0.131600	0.384500	0.864500
H321	H32	0.125900	0.385900	0.957400
H331	H33	0.919700	0.572700	0.761500
H341	H34	0.024600	0.505700	0.713500
H351	H35	0.070400	0.505600	0.872100
H361	H36	0.965100	0.574600	0.916600
H371	H37	0.879900	0.724500	0.034700
H381	H38	0.976600	0.783200	0.106900
H391	H39	0.115500	0.771500	0.967200
H401	H40	0.014500	0.714800	0.900500
H411	H41	0.131600	0.480000	0.615500
H421	H42	0.125900	0.571500	0.614100
H431	H43	0.919700	0.188800	0.427300
H441	H44	0.024600	0.207800	0.494300
H451	H45	0.070400	0.366500	0.494400
H461	H46	0.965100	0.342000	0.425400
H471	H47	0.879900	0.310200	0.275500
H481	H48	0.976600	0.323700	0.216800
H491	H49	0.115500	0.195700	0.228500
H501	H50	0.014500	0.185700	0.285200
H511	H51	0.131600	0.135500	0.520000
H521	H52	0.125900	0.042600	0.428500
H531	H53	0.919700	0.238500	0.811200
H541	H54	0.024600	0.286500	0.792200
H551	H55	0.070400	0.127900	0.633500
H561	H56	0.965100	0.083400	0.658000
H571	H57	0.879900	0.965300	0.689800
H581	H58	0.976600	0.893100	0.676300
H591	H59	0.115500	0.032800	0.804300
H601	H60	0.014500	0.099500	0.814300
H611	H61	0.368400	0.384500	0.864500
H621	H62	0.374100	0.385900	0.957400
H631	H63	0.580300	0.572700	0.761500
H641	H64	0.475400	0.505700	0.713500
H651	H65	0.429600	0.505600	0.872100
H661	H66	0.534900	0.574600	0.916600
H671	H67	0.620100	0.724500	0.034700
H681	H68	0.523400	0.783200	0.106900
H691	H69	0.384500	0.771500	0.967200
H701	H70	0.485500	0.714800	0.900500
H711	H71	0.368400	0.480000	0.615500
H721	H72	0.374100	0.571500	0.614100
H731	H73	0.580300	0.188800	0.427300
H741	H74	0.475400	0.207800	0.494300
H751	H75	0.429600	0.366500	0.494400
H761	H76	0.534900	0.342000	0.425400
H771	H77	0.620100	0.310200	0.275500
H781	H78	0.523400	0.323700	0.216800
H791	H79	0.384500	0.195700	0.228500
H801	H80	0.485500	0.185700	0.285200
H811	H81	0.368400	0.135500	0.520000
H821	H82	0.374100	0.042600	0.428500
H831	H83	0.580300	0.238500	0.811200
H841	H84	0.475400	0.286500	0.792200
H851	H85	0.429600	0.127900	0.633500
H861	H86	0.534900	0.083400	0.658000
H871	H87	0.620100	0.965300	0.689800
H881	H88	0.523400	0.893100	0.676300
H891	H89	0.384500	0.032800	0.804300
H901	H90	0.485500	0.099500	0.814300
H911	H91	0.868400	0.615500	0.135500
H921	H92	0.874100	0.614100	0.042600
H931	H93	0.080300	0.427300	0.238500
H941	H94	0.975400	0.494300	0.286500
H951	H95	0.929600	0.494400	0.127900
H961	H96	0.034900	0.425400	0.083400
H971	H97	0.120100	0.275500	0.965300
H981	H98	0.023400	0.216800	0.893100
H991	H99	0.884500	0.228500	0.032800
H1001	H100	0.985500	0.285200	0.099500
H1011	H101	0.868400	0.520000	0.384500
H1021	H102	0.874100	0.428500	0.385900
H1031	H103	0.080300	0.811200	0.572700
H1041	H104	0.975400	0.792200	0.505700
H1051	H105	0.929600	0.633500	0.505600
H1061	H106	0.034900	0.658000	0.574600
H1071	H107	0.120100	0.689800	0.724500
H1081	H108	0.023400	0.676300	0.783200
H1091	H109	0.884500	0.804300	0.771500
H1101	H110	0.985500	0.814300	0.714800
H1111	H111	0.868400	0.864500	0.480000
H1121	H112	0.874100	0.957400	0.571500
H1131	H113	0.080300	0.761500	0.188800
H1141	H114	0.975400	0.713500	0.207800
H1151	H115	0.929600	0.872100	0.366500
H1161	H116	0.034900	0.916600	0.342000
H1171	H117	0.120100	0.034700	0.310200
H1181	H118	0.023400	0.106900	0.323700
H1191	H119	0.884500	0.967200	0.195700
H1201	H120	0.985500	0.900500	0.185700
H1211	H121	0.250000	0.264800	0.030500
H1221	H122	0.250000	0.409500	0.212400
H1231	H123	0.250000	0.765700	0.735200
H1241	H124	0.250000	0.802900	0.590500
H1251	H125	0.250000	0.969500	0.234300
H1261	H126	0.250000	0.787600	0.197100
H1271	H127	0.750000	0.735200	0.969500
H1281	H128	0.750000	0.590500	0.787600
H1291	H129	0.750000	0.234300	0.264800
H1301	H130	0.750000	0.197100	0.409500
H1311	H131	0.750000	0.030500	0.765700
H1321	H132	0.750000	0.212400	0.802900
C11	C1	0.680300	0.616400	0.116600
C21	C2	0.676000	0.614500	0.060300
C31	C3	0.451400	0.440200	0.215900
C41	C4	0.513500	0.481100	0.244900
C51	C5	0.560200	0.503400	0.214200
C61	C6	0.541000	0.481100	0.151200
C71	C7	0.477900	0.439200	0.124800
C81	C8	0.632600	0.546700	0.244200
C91	C9	0.428000	0.266200	0.978800
C101	C10	0.485900	0.230200	0.934900
C111	C11	0.555300	0.214400	0.952100
C121	C12	0.567800	0.237300	0.018300
C131	C13	0.507900	0.271700	0.057400
C141	C14	0.617200	0.170500	0.904800
C151	C15	0.680300	0.500200	0.383600
C161	C16	0.676000	0.445800	0.385500
C171	C17	0.451400	0.775700	0.559800
C181	C18	0.513500	0.763800	0.518900
C191	C19	0.560200	0.710800	0.496600
C201	C20	0.541000	0.670100	0.518900
C211	C21	0.477900	0.685600	0.560800
C221	C22	0.632600	0.697500	0.453300
C231	C23	0.428000	0.712600	0.733800
C241	C24	0.485900	0.704700	0.769800
C251	C25	0.555300	0.737700	0.785600
C261	C26	0.567800	0.781000	0.762700
C271	C27	0.507900	0.785700	0.728300
C281	C28	0.617200	0.734300	0.829500
C291	C29	0.680300	0.883400	0.499800
C301	C30	0.676000	0.939700	0.554200
C311	C31	0.451400	0.784100	0.224300
C321	C32	0.513500	0.755100	0.236200
C331	C33	0.560200	0.785800	0.289200
C341	C34	0.541000	0.848800	0.329900
C351	C35	0.477900	0.875200	0.314400
C361	C36	0.632600	0.755800	0.302500
C371	C37	0.428000	0.021200	0.287400
C381	C38	0.485900	0.065100	0.295300
C391	C39	0.555300	0.047900	0.262300
C401	C40	0.567800	0.981700	0.219000
C411	C41	0.507900	0.942600	0.214300
C421	C42	0.617200	0.095200	0.265700
C431	C43	0.180300	0.383600	0.883400
C441	C44	0.176000	0.385500	0.939700
C451	C45	0.951400	0.559800	0.784100
C461	C46	0.013500	0.518900	0.755100
C471	C47	0.060200	0.496600	0.785800
C481	C48	0.041000	0.518900	0.848800
C491	C49	0.977900	0.560800	0.875200
C501	C50	0.132600	0.453300	0.755800
C511	C51	0.928000	0.733800	0.021200
C521	C52	0.985900	0.769800	0.065100
C531	C53	0.055300	0.785600	0.047900
C541	C54	0.067800	0.762700	0.981700
C551	C55	0.007900	0.728300	0.942600
C561	C56	0.117200	0.829500	0.095200
C571	C57	0.180300	0.499800	0.616400
C581	C58	0.176000	0.554200	0.614500
C591	C59	0.951400	0.224300	0.440200
C601	C60	0.013500	0.236200	0.481100
C611	C61	0.060200	0.289200	0.503400
C621	C62	0.041000	0.329900	0.481100
C631	C63	0.977900	0.314400	0.439200
C641	C64	0.132600	0.302500	0.546700
C651	C65	0.928000	0.287400	0.266200
C661	C66	0.985900	0.295300	0.230200
C671	C67	0.055300	0.262300	0.214400
C681	C68	0.067800	0.219000	0.237300
C691	C69	0.007900	0.214300	0.271700
C701	C70	0.117200	0.265700	0.170500
C711	C71	0.180300	0.116600	0.500200
C721	C72	0.176000	0.060300	0.445800
C731	C73	0.951400	0.215900	0.775700
C741	C74	0.013500	0.244900	0.763800
C751	C75	0.060200	0.214200	0.710800
C761	C76	0.041000	0.151200	0.670100
C771	C77	0.977900	0.124800	0.685600
C781	C78	0.132600	0.244200	0.697500
C791	C79	0.928000	0.978800	0.712600
C801	C80	0.985900	0.934900	0.704700
C811	C81	0.055300	0.952100	0.737700
C821	C82	0.067800	0.018300	0.781000
C831	C83	0.007900	0.057400	0.785700
C841	C84	0.117200	0.904800	0.734300
C851	C85	0.319700	0.383600	0.883400
C861	C86	0.324000	0.385500	0.939700
C871	C87	0.548600	0.559800	0.784100
C881	C88	0.486500	0.518900	0.755100
C891	C89	0.439800	0.496600	0.785800
C901	C90	0.459000	0.518900	0.848800
C911	C91	0.522100	0.560800	0.875200
C921	C92	0.367400	0.453300	0.755800
C931	C93	0.572000	0.733800	0.021200
C941	C94	0.514100	0.769800	0.065100
C951	C95	0.444700	0.785600	0.047900
C961	C96	0.432200	0.762700	0.981700
C971	C97	0.492100	0.728300	0.942600
C981	C98	0.382800	0.829500	0.095200
C991	C99	0.319700	0.499800	0.616400
C1001	C100	0.324000	0.554200	0.614500
C1011	C101	0.548600	0.224300	0.440200
C1021	C102	0.486500	0.236200	0.481100
C1031	C103	0.439800	0.289200	0.503400
C1041	C104	0.459000	0.329900	0.481100
C1051	C105	0.522100	0.314400	0.439200
C1061	C106	0.367400	0.302500	0.546700
C1071	C107	0.572000	0.287400	0.266200
C1081	C108	0.514100	0.295300	0.230200
C1091	C109	0.444700	0.262300	0.214400
C1101	C110	0.432200	0.219000	0.237300
C1111	C111	0.492100	0.214300	0.271700
C1121	C112	0.382800	0.265700	0.170500
C1131	C113	0.319700	0.116600	0.500200
C1141	C114	0.324000	0.060300	0.445800
C1151	C115	0.548600	0.215900	0.775700
C1161	C116	0.486500	0.244900	0.763800
C1171	C117	0.439800	0.214200	0.710800
C1181	C118	0.459000	0.151200	0.670100
C1191	C119	0.522100	0.124800	0.685600
C1201	C120	0.367400	0.244200	0.697500
C1211	C121	0.572000	0.978800	0.712600
C1221	C122	0.514100	0.934900	0.704700
C1231	C123	0.444700	0.952100	0.737700
C1241	C124	0.432200	0.018300	0.781000
C1251	C125	0.492100	0.057400	0.785700
C1261	C126	0.382800	0.904800	0.734300
C1271	C127	0.819700	0.616400	0.116600
C1281	C128	0.824000	0.614500	0.060300
C1291	C129	0.048600	0.440200	0.215900
C1301	C130	0.986500	0.481100	0.244900
C1311	C131	0.939800	0.503400	0.214200
C1321	C132	0.959000	0.481100	0.151200
C1331	C133	0.022100	0.439200	0.124800
C1341	C134	0.867400	0.546700	0.244200
C1351	C135	0.072000	0.266200	0.978800
C1361	C136	0.014100	0.230200	0.934900
C1371	C137	0.944700	0.214400	0.952100
C1381	C138	0.932200	0.237300	0.018300
C1391	C139	0.992100	0.271700	0.057400
C1401	C140	0.882800	0.170500	0.904800
C1411	C141	0.819700	0.500200	0.383600
C1421	C142	0.824000	0.445800	0.385500
C1431	C143	0.048600	0.775700	0.559800
C1441	C144	0.986500	0.763800	0.518900
C1451	C145	0.939800	0.710800	0.496600
C1461	C146	0.959000	0.670100	0.518900
C1471	C147	0.022100	0.685600	0.560800
C1481	C148	0.867400	0.697500	0.453300
C1491	C149	0.072000	0.712600	0.733800
C1501	C150	0.014100	0.704700	0.769800
C1511	C151	0.944700	0.737700	0.785600
C1521	C152	0.932200	0.781000	0.762700
C1531	C153	0.992100	0.785700	0.728300
C1541	C154	0.882800	0.734300	0.829500
C1551	C155	0.819700	0.883400	0.499800
C1561	C156	0.824000	0.939700	0.554200
C1571	C157	0.048600	0.784100	0.224300
C1581	C158	0.986500	0.755100	0.236200
C1591	C159	0.939800	0.785800	0.289200
C1601	C160	0.959000	0.848800	0.329900
C1611	C161	0.022100	0.875200	0.314400
C1621	C162	0.867400	0.755800	0.302500
C1631	C163	0.072000	0.021200	0.287400
C1641	C164	0.014100	0.065100	0.295300
C1651	C165	0.944700	0.047900	0.262300
C1661	C166	0.932200	0.981700	0.219000
C1671	C167	0.992100	0.942600	0.214300
C1681	C168	0.882800	0.095200	0.265700
C1691	C169	0.750000	0.613300	0.030300
C1701	C170	0.750000	0.617300	0.971700
C1711	C171	0.750000	0.417000	0.386700
C1721	C172	0.750000	0.354400	0.382700
C1731	C173	0.750000	0.969700	0.583000
C1741	C174	0.750000	0.028300	0.645600
C1751	C175	0.250000	0.386700	0.969700
C1761	C176	0.250000	0.382700	0.028300
C1771	C177	0.250000	0.583000	0.613300
C1781	C178	0.250000	0.645600	0.617300
C1791	C179	0.250000	0.030300	0.417000
C1801	C180	0.250000	0.971700	0.354400
N11	N1	0.434500	0.417600	0.154300
N21	N2	0.437900	0.288000	0.039500
N31	N3	0.434500	0.736700	0.582400
N41	N4	0.437900	0.751500	0.712000
N51	N5	0.434500	0.845700	0.263300
N61	N6	0.437900	0.960500	0.248500
N71	N7	0.934500	0.582400	0.845700
N81	N8	0.937900	0.712000	0.960500
N91	N9	0.934500	0.263300	0.417600
N101	N10	0.937900	0.248500	0.288000
N111	N11	0.934500	0.154300	0.736700
N121	N12	0.937900	0.039500	0.751500
N131	N13	0.565500	0.582400	0.845700
N141	N14	0.562100	0.712000	0.960500
N151	N15	0.565500	0.263300	0.417600
N161	N16	0.562100	0.248500	0.288000
N171	N17	0.565500	0.154300	0.736700
N181	N18	0.562100	0.039500	0.751500
N191	N19	0.065500	0.417600	0.154300
N201	N20	0.062100	0.288000	0.039500
N211	N21	0.065500	0.736700	0.582400
N221	N22	0.062100	0.751500	0.712000
N231	N23	0.065500	0.845700	0.263300
N241	N24	0.062100	0.960500	0.248500
N251	N25	0.750000	0.619600	0.146000
N261	N26	0.750000	0.526400	0.380400
N271	N27	0.750000	0.854000	0.473600
N281	N28	0.250000	0.380400	0.854000
N291	N29	0.250000	0.473600	0.619600
N301	N30	0.250000	0.146000	0.526400
O11	O1	0.681500	0.621100	0.951100
O21	O2	0.658300	0.573700	0.218100
O31	O3	0.655500	0.552300	0.294200
O41	O4	0.615800	0.166800	0.853700
O51	O5	0.650400	0.128400	0.917100
O61	O6	0.134300	0.165800	0.036000
O71	O7	0.681500	0.330000	0.378900
O81	O8	0.658300	0.644400	0.426300
O91	O9	0.655500	0.741900	0.447700
O101	O10	0.615800	0.686900	0.833200
O111	O11	0.650400	0.788700	0.871600
O121	O12	0.134300	0.870200	0.834200
O131	O13	0.681500	0.048900	0.670000
O141	O14	0.658300	0.781900	0.355600
O151	O15	0.655500	0.705800	0.258100
O161	O16	0.615800	0.146300	0.313100
O171	O17	0.650400	0.082900	0.211300
O181	O18	0.134300	0.964000	0.129800
O191	O19	0.181500	0.378900	0.048900
O201	O20	0.158300	0.426300	0.781900
O211	O21	0.155500	0.447700	0.705800
O221	O22	0.115800	0.833200	0.146300
O231	O23	0.150400	0.871600	0.082900
O241	O24	0.634300	0.834200	0.964000
O251	O25	0.181500	0.670000	0.621100
O261	O26	0.158300	0.355600	0.573700
O271	O27	0.155500	0.258100	0.552300
O281	O28	0.115800	0.313100	0.166800
O291	O29	0.150400	0.211300	0.128400
O301	O30	0.634300	0.129800	0.165800
O311	O31	0.181500	0.951100	0.330000
O321	O32	0.158300	0.218100	0.644400
O331	O33	0.155500	0.294200	0.741900
O341	O34	0.115800	0.853700	0.686900
O351	O35	0.150400	0.917100	0.788700
O361	O36	0.634300	0.036000	0.870200
O371	O37	0.318500	0.378900	0.048900
O381	O38	0.341700	0.426300	0.781900
O391	O39	0.344500	0.447700	0.705800
O401	O40	0.384200	0.833200	0.146300
O411	O41	0.349600	0.871600	0.082900
O421	O42	0.865700	0.834200	0.964000
O431	O43	0.318500	0.670000	0.621100
O441	O44	0.341700	0.355600	0.573700
O451	O45	0.344500	0.258100	0.552300
O461	O46	0.384200	0.313100	0.166800
O471	O47	0.349600	0.211300	0.128400
O481	O48	0.865700	0.129800	0.165800
O491	O49	0.318500	0.951100	0.330000
O501	O50	0.341700	0.218100	0.644400
O511	O51	0.344500	0.294200	0.741900
O521	O52	0.384200	0.853700	0.686900
O531	O53	0.349600	0.917100	0.788700
O541	O54	0.865700	0.036000	0.870200
O551	O55	0.818500	0.621100	0.951100
O561	O56	0.841700	0.573700	0.218100
O571	O57	0.844500	0.552300	0.294200
O581	O58	0.884200	0.166800	0.853700
O591	O59	0.849600	0.128400	0.917100
O601	O60	0.365700	0.165800	0.036000
O611	O61	0.818500	0.330000	0.378900
O621	O62	0.841700	0.644400	0.426300
O631	O63	0.844500	0.741900	0.447700
O641	O64	0.884200	0.686900	0.833200
O651	O65	0.849600	0.788700	0.871600
O661	O66	0.365700	0.870200	0.834200
O671	O67	0.818500	0.048900	0.670000
O681	O68	0.841700	0.781900	0.355600
O691	O69	0.844500	0.705800	0.258100
O701	O70	0.884200	0.146300	0.313100
O711	O71	0.849600	0.082900	0.211300
O721	O72	0.365700	0.964000	0.129800
O731	O73	0.250000	0.277800	0.069300
O741	O74	0.250000	0.398800	0.174000
O751	O75	0.250000	0.791500	0.722200
O761	O76	0.250000	0.775200	0.601200
O771	O77	0.250000	0.930700	0.208500
O781	O78	0.250000	0.826000	0.224800
O791	O79	0.750000	0.722200	0.930700
O801	O80	0.750000	0.601200	0.826000
O811	O81	0.750000	0.208500	0.277800
O821	O82	0.750000	0.224800	0.398800
O831	O83	0.750000	0.069300	0.791500
O841	O84	0.750000	0.174000	0.775200
O851	O85	0.750000	0.666670	0.333340
O861	O86	0.250000	0.333330	0.666660
