data_LASWEJ_freeONLY_PM
_symmetry_space_group_name_H-M	'P1'
_cell_length_a	8.810200
_cell_length_b	15.632300
_cell_length_c	16.359200
_cell_angle_alpha	103.544000
_cell_angle_beta	100.811000
_cell_angle_gamma	90.190900
_symmetry_Int_Tables_number 1

loop_
_symmetry_equiv_pos_as_xyz
'x,y,z'

loop_
_atom_site_label
_atom_site_type_symbol
_atom_site_fract_x
_atom_site_fract_y
_atom_site_fract_z
Co11	Co1	0.355380	0.950350	0.359730
Co21	Co2	0.811660	0.790120	0.732360
Co31	Co3	0.644620	0.049650	0.640270
Co41	Co4	0.188340	0.209880	0.267640
H11	H1	0.370500	0.828000	0.754900
H21	H2	0.074100	0.002800	0.604300
H31	H3	0.263900	0.956900	0.164200
H41	H4	0.347700	0.918400	0.037300
H51	H5	0.737000	0.847100	0.163900
H61	H6	0.634300	0.877300	0.284200
H71	H7	0.148400	0.791000	0.244800
H81	H8	0.112000	0.642000	0.225100
H91	H9	0.467000	0.651500	0.419000
H101	H10	0.489000	0.799900	0.435900
H111	H11	0.160000	0.501700	0.181000
H121	H12	0.129300	0.352700	0.167400
H131	H13	0.327300	0.374300	0.403100
H141	H14	0.361900	0.523200	0.424800
H151	H15	0.812700	0.937000	0.047400
H161	H16	0.901500	0.900700	0.919800
H171	H17	0.551300	0.734900	0.814300
H181	H18	0.445400	0.772100	0.934500
H191	H19	0.774500	0.824400	0.546900
H201	H20	0.977000	0.794300	0.379600
H211	H21	0.801600	0.794300	0.385800
H221	H22	0.912100	0.876300	0.435500
H231	H23	0.120900	0.722800	0.445000
H241	H24	0.151800	0.755500	0.545100
H251	H25	0.052700	0.668000	0.499700
H261	H26	0.629500	0.172000	0.245100
H271	H27	0.925900	0.997200	0.395700
H281	H28	0.736100	0.043100	0.835800
H291	H29	0.652300	0.081600	0.962700
H301	H30	0.263000	0.152900	0.836100
H311	H31	0.365700	0.122700	0.715800
H321	H32	0.851600	0.209000	0.755200
H331	H33	0.888000	0.358000	0.774900
H341	H34	0.533000	0.348500	0.581000
H351	H35	0.511000	0.200100	0.564100
H361	H36	0.840000	0.498300	0.819000
H371	H37	0.870700	0.647300	0.832600
H381	H38	0.672700	0.625700	0.596900
H391	H39	0.638100	0.476800	0.575200
H401	H40	0.187300	0.063000	0.952600
H411	H41	0.098500	0.099300	0.080200
H421	H42	0.448700	0.265100	0.185700
H431	H43	0.554600	0.227900	0.065500
H441	H44	0.225500	0.175600	0.453100
H451	H45	0.023000	0.205700	0.620400
H461	H46	0.198400	0.205700	0.614200
H471	H47	0.087900	0.123700	0.564500
H481	H48	0.879100	0.277200	0.555000
H491	H49	0.848200	0.244500	0.454900
H501	H50	0.947300	0.332000	0.500300
C11	C1	0.331000	0.984470	0.548570
C21	C2	0.530100	0.866960	0.648500
C31	C3	0.123900	0.855630	0.818360
C41	C4	0.924400	0.970480	0.718730
C51	C5	0.279400	0.946150	0.615890
C61	C6	0.369200	0.893030	0.662610
C71	C7	0.311500	0.864480	0.725360
C81	C8	0.169000	0.888200	0.745880
C91	C9	0.079900	0.941690	0.700120
C101	C10	0.135400	0.968570	0.635530
C111	C11	0.359800	0.932400	0.164020
C121	C12	0.410500	0.911100	0.087400
C131	C13	0.556700	0.878580	0.085830
C141	C14	0.637900	0.868000	0.161330
C151	C15	0.576100	0.887600	0.234090
C161	C16	0.213900	0.762470	0.280300
C171	C17	0.191500	0.672640	0.267800
C181	C18	0.288400	0.627950	0.319220
C191	C19	0.400300	0.678210	0.382420
C201	C20	0.413800	0.767530	0.391740
C211	C21	0.266600	0.531190	0.307300
C221	C22	0.194900	0.477500	0.227600
C231	C23	0.177500	0.387800	0.220100
C241	C24	0.292500	0.399900	0.357500
C251	C25	0.314000	0.490200	0.371000
C261	C26	0.618200	0.856590	0.005550
C271	C27	0.756700	0.896300	0.000400
C281	C28	0.809600	0.873700	0.923300
C291	C29	0.603500	0.777400	0.861050
C301	C30	0.540300	0.797900	0.934000
C311	C31	0.859500	0.789450	0.551640
C321	C32	0.904600	0.813200	0.416600
C331	C33	0.077700	0.726300	0.495300
C341	C34	0.669000	0.015530	0.451430
C351	C35	0.469900	0.133040	0.351500
C361	C36	0.876100	0.144370	0.181640
C371	C37	0.075600	0.029520	0.281270
C381	C38	0.720600	0.053850	0.384110
C391	C39	0.630800	0.106970	0.337390
C401	C40	0.688500	0.135520	0.274640
C411	C41	0.831000	0.111800	0.254120
C421	C42	0.920100	0.058310	0.299880
C431	C43	0.864600	0.031430	0.364470
C441	C44	0.640200	0.067600	0.835980
C451	C45	0.589500	0.088900	0.912600
C461	C46	0.443300	0.121420	0.914170
C471	C47	0.362100	0.132000	0.838670
C481	C48	0.423900	0.112400	0.765910
C491	C49	0.786100	0.237530	0.719700
C501	C50	0.808500	0.327360	0.732200
C511	C51	0.711600	0.372050	0.680780
C521	C52	0.599700	0.321790	0.617580
C531	C53	0.586200	0.232470	0.608260
C541	C54	0.733400	0.468810	0.692700
C551	C55	0.805100	0.522500	0.772400
C561	C56	0.822500	0.612200	0.779900
C571	C57	0.707500	0.600100	0.642500
C581	C58	0.686000	0.509800	0.629000
C591	C59	0.381800	0.143410	0.994450
C601	C60	0.243300	0.103700	0.999600
C611	C61	0.190400	0.126300	0.076700
C621	C62	0.396500	0.222600	0.138950
C631	C63	0.459700	0.202100	0.066000
C641	C64	0.140500	0.210550	0.448360
C651	C65	0.095400	0.186800	0.583400
C661	C66	0.922300	0.273700	0.504700
N11	N1	0.438000	0.920320	0.237170
N21	N2	0.324500	0.810530	0.340610
N31	N3	0.226000	0.348570	0.284180
N41	N4	0.733900	0.814580	0.853720
N51	N5	0.939200	0.775460	0.489430
N61	N6	0.562000	0.079680	0.762830
N71	N7	0.675500	0.189470	0.659390
N81	N8	0.774000	0.651430	0.715820
N91	N9	0.266100	0.185420	0.146280
N101	N10	0.060800	0.224540	0.510570
O11	O1	0.270660	0.950570	0.472670
O21	O2	0.422350	0.052430	0.573790
O31	O3	0.582030	0.801020	0.674470
O41	O4	0.601760	0.911700	0.612390
O51	O5	0.182800	0.894840	0.892370
O61	O6	0.035070	0.786210	0.799210
O71	O7	0.872770	0.038030	0.695250
O81	O8	0.855050	0.926600	0.756780
O91	O9	0.890300	0.759290	0.615510
O101	O10	0.729340	0.049430	0.527330
O111	O11	0.577650	0.947570	0.426210
O121	O12	0.417970	0.198980	0.325530
O131	O13	0.398240	0.088300	0.387610
O141	O14	0.817200	0.105160	0.107630
O151	O15	0.964930	0.213790	0.200790
O161	O16	0.127230	0.961970	0.304750
O171	O17	0.144950	0.073400	0.243220
O181	O18	0.109700	0.240710	0.384490
