data_LAWFOF_freeONLY_PM
_symmetry_space_group_name_H-M	'P1'
_cell_length_a	25.888000
_cell_length_b	25.888000
_cell_length_c	25.888000
_cell_angle_alpha	90.000000
_cell_angle_beta	90.000000
_cell_angle_gamma	90.000000
_symmetry_Int_Tables_number 1

loop_
_symmetry_equiv_pos_as_xyz
'x,y,z'

loop_
_atom_site_label
_atom_site_type_symbol
_atom_site_fract_x
_atom_site_fract_y
_atom_site_fract_z
Zn11	Zn1	0.293440	0.293440	0.206560
Zn21	Zn2	0.706560	0.706560	0.206560
Zn31	Zn3	0.206560	0.206560	0.206560
Zn41	Zn4	0.706560	0.293440	0.793440
Zn51	Zn5	0.206560	0.293440	0.293440
Zn61	Zn6	0.293440	0.706560	0.793440
Zn71	Zn7	0.293440	0.206560	0.293440
Zn81	Zn8	0.206560	0.793440	0.793440
Zn91	Zn9	0.206560	0.706560	0.706560
Zn101	Zn10	0.793440	0.706560	0.293440
Zn111	Zn11	0.793440	0.206560	0.793440
Zn121	Zn12	0.793440	0.293440	0.706560
Zn131	Zn13	0.793440	0.793440	0.206560
Zn141	Zn14	0.706560	0.206560	0.706560
Zn151	Zn15	0.293440	0.793440	0.706560
Zn161	Zn16	0.706560	0.793440	0.293440
Zn171	Zn17	0.293440	0.293440	0.793440
Zn181	Zn18	0.706560	0.706560	0.793440
Zn191	Zn19	0.706560	0.206560	0.293440
Zn201	Zn20	0.206560	0.706560	0.293440
Zn211	Zn21	0.293440	0.706560	0.206560
Zn221	Zn22	0.706560	0.293440	0.206560
Zn231	Zn23	0.206560	0.793440	0.206560
Zn241	Zn24	0.293440	0.206560	0.706560
Zn251	Zn25	0.206560	0.206560	0.793440
Zn261	Zn26	0.706560	0.793440	0.706560
Zn271	Zn27	0.206560	0.293440	0.706560
Zn281	Zn28	0.293440	0.793440	0.293440
Zn291	Zn29	0.793440	0.293440	0.293440
Zn301	Zn30	0.793440	0.793440	0.793440
Zn311	Zn31	0.793440	0.706560	0.706560
Zn321	Zn32	0.793440	0.206560	0.206560
O11	O1	0.250000	0.250000	0.250000
O21	O2	0.750000	0.750000	0.250000
O31	O3	0.750000	0.250000	0.750000
O41	O4	0.250000	0.750000	0.750000
O51	O5	0.250000	0.250000	0.750000
O61	O6	0.750000	0.750000	0.750000
O71	O7	0.750000	0.250000	0.250000
O81	O8	0.250000	0.750000	0.250000
O91	O9	0.280610	0.366320	0.219390
C11	C1	0.282760	0.473330	0.217240
H11	H1	0.305700	0.455500	0.194300
O101	O10	0.280610	0.866320	0.719390
C21	C2	0.282760	0.973330	0.717240
H21	H2	0.305700	0.955500	0.694300
O111	O11	0.719390	0.633680	0.219390
C31	C3	0.717240	0.526670	0.217240
H31	H3	0.694300	0.544500	0.194300
O121	O12	0.719390	0.133680	0.719390
C41	C4	0.717240	0.026670	0.717240
H41	H4	0.694300	0.044500	0.694300
O131	O13	0.219390	0.133680	0.219390
C51	C5	0.217240	0.026670	0.217240
H51	H5	0.194300	0.044500	0.194300
O141	O14	0.719390	0.366320	0.780610
C61	C6	0.717240	0.473330	0.782760
H61	H6	0.694300	0.455500	0.805700
O151	O15	0.719390	0.866320	0.280610
C71	C7	0.717240	0.973330	0.282760
H71	H7	0.694300	0.955500	0.305700
O161	O16	0.219390	0.366320	0.280610
C81	C8	0.217240	0.473330	0.282760
H81	H8	0.194300	0.455500	0.305700
O171	O17	0.280610	0.633680	0.780610
C91	C9	0.282760	0.526670	0.782760
H91	H9	0.305700	0.544500	0.805700
O181	O18	0.280610	0.133680	0.280610
C101	C10	0.282760	0.026670	0.282760
H101	H10	0.305700	0.044500	0.305700
O191	O19	0.219390	0.280610	0.366320
C111	C11	0.217240	0.282760	0.473330
H111	H11	0.194300	0.305700	0.455500
O201	O20	0.219390	0.780610	0.866320
C121	C12	0.217240	0.782760	0.973330
H121	H12	0.194300	0.805700	0.955500
O211	O21	0.219390	0.719390	0.633680
C131	C13	0.217240	0.717240	0.526670
H131	H13	0.194300	0.694300	0.544500
O221	O22	0.219390	0.219390	0.133680
C141	C14	0.217240	0.217240	0.026670
H141	H14	0.194300	0.194300	0.044500
O231	O23	0.780610	0.719390	0.366320
C151	C15	0.782760	0.717240	0.473330
H151	H15	0.805700	0.694300	0.455500
O241	O24	0.780610	0.219390	0.866320
C161	C16	0.782760	0.217240	0.973330
H161	H16	0.805700	0.194300	0.955500
O251	O25	0.280610	0.219390	0.366320
C171	C17	0.282760	0.217240	0.473330
H171	H17	0.305700	0.194300	0.455500
O261	O26	0.780610	0.280610	0.633680
C181	C18	0.782760	0.282760	0.526670
H181	H18	0.805700	0.305700	0.544500
O271	O27	0.780610	0.780610	0.133680
C191	C19	0.782760	0.782760	0.026670
H191	H19	0.805700	0.805700	0.044500
O281	O28	0.280610	0.280610	0.133680
C201	C20	0.282760	0.282760	0.026670
H201	H20	0.305700	0.305700	0.044500
O291	O29	0.366320	0.219390	0.280610
C211	C21	0.473330	0.217240	0.282760
H211	H21	0.455500	0.194300	0.305700
O301	O30	0.866320	0.219390	0.780610
C221	C22	0.973330	0.217240	0.782760
H221	H22	0.955500	0.194300	0.805700
O311	O31	0.633680	0.219390	0.719390
C231	C23	0.526670	0.217240	0.717240
H231	H23	0.544500	0.194300	0.694300
O321	O32	0.133680	0.219390	0.219390
C241	C24	0.026670	0.217240	0.217240
H241	H24	0.044500	0.194300	0.194300
O331	O33	0.366320	0.780610	0.719390
C251	C25	0.473330	0.782760	0.717240
H251	H25	0.455500	0.805700	0.694300
O341	O34	0.366320	0.280610	0.219390
C261	C26	0.473330	0.282760	0.217240
H261	H26	0.455500	0.305700	0.194300
O351	O35	0.866320	0.780610	0.219390
C271	C27	0.973330	0.782760	0.217240
H271	H27	0.955500	0.805700	0.194300
O361	O36	0.633680	0.780610	0.280610
C281	C28	0.526670	0.782760	0.282760
H281	H28	0.544500	0.805700	0.305700
O371	O37	0.133680	0.780610	0.780610
C291	C29	0.026670	0.782760	0.782760
H291	H29	0.044500	0.805700	0.805700
O381	O38	0.133680	0.280610	0.280610
C301	C30	0.026670	0.282760	0.282760
H301	H30	0.044500	0.305700	0.305700
O391	O39	0.366320	0.280610	0.780610
C311	C31	0.473330	0.282760	0.782760
H311	H31	0.455500	0.305700	0.805700
O401	O40	0.866320	0.280610	0.280610
C321	C32	0.973330	0.282760	0.282760
H321	H32	0.955500	0.305700	0.305700
O411	O41	0.633680	0.719390	0.780610
C331	C33	0.526670	0.717240	0.782760
H331	H33	0.544500	0.694300	0.805700
O421	O42	0.633680	0.219390	0.280610
C341	C34	0.526670	0.217240	0.282760
H341	H34	0.544500	0.194300	0.305700
O431	O43	0.133680	0.719390	0.280610
C351	C35	0.026670	0.717240	0.282760
H351	H35	0.044500	0.694300	0.305700
O441	O44	0.366320	0.719390	0.219390
C361	C36	0.473330	0.717240	0.217240
H361	H36	0.455500	0.694300	0.194300
O451	O45	0.866320	0.719390	0.719390
C371	C37	0.973330	0.717240	0.717240
H371	H37	0.955500	0.694300	0.694300
O461	O46	0.866320	0.219390	0.219390
C381	C38	0.973330	0.217240	0.217240
H381	H38	0.955500	0.194300	0.194300
O471	O47	0.633680	0.280610	0.219390
C391	C39	0.526670	0.282760	0.217240
H391	H39	0.544500	0.305700	0.194300
O481	O48	0.133680	0.280610	0.719390
C401	C40	0.026670	0.282760	0.717240
H401	H40	0.044500	0.305700	0.694300
O491	O49	0.280610	0.219390	0.633680
C411	C41	0.282760	0.217240	0.526670
H411	H41	0.305700	0.194300	0.544500
O501	O50	0.280610	0.719390	0.133680
C421	C42	0.282760	0.717240	0.026670
H421	H42	0.305700	0.694300	0.044500
O511	O51	0.719390	0.219390	0.366320
C431	C43	0.717240	0.217240	0.473330
H431	H43	0.694300	0.194300	0.455500
O521	O52	0.719390	0.719390	0.866320
C441	C44	0.717240	0.717240	0.973330
H441	H44	0.694300	0.694300	0.955500
O531	O53	0.219390	0.219390	0.866320
C451	C45	0.217240	0.217240	0.973330
H451	H45	0.194300	0.194300	0.955500
O541	O54	0.719390	0.780610	0.633680
C461	C46	0.717240	0.782760	0.526670
H461	H46	0.694300	0.805700	0.544500
O551	O55	0.719390	0.280610	0.133680
C471	C47	0.717240	0.282760	0.026670
H471	H47	0.694300	0.305700	0.044500
O561	O56	0.219390	0.280610	0.633680
C481	C48	0.217240	0.282760	0.526670
H481	H48	0.194300	0.305700	0.544500
O571	O57	0.280610	0.780610	0.366320
C491	C49	0.282760	0.782760	0.473330
H491	H49	0.305700	0.805700	0.455500
O581	O58	0.280610	0.280610	0.866320
C501	C50	0.282760	0.282760	0.973330
H501	H50	0.305700	0.305700	0.955500
O591	O59	0.219390	0.366320	0.719390
C511	C51	0.217240	0.473330	0.717240
H511	H51	0.194300	0.455500	0.694300
O601	O60	0.219390	0.866320	0.219390
C521	C52	0.217240	0.973330	0.217240
H521	H52	0.194300	0.955500	0.194300
O611	O61	0.219390	0.633680	0.280610
C531	C53	0.217240	0.526670	0.282760
H531	H53	0.194300	0.544500	0.305700
O621	O62	0.219390	0.133680	0.780610
C541	C54	0.217240	0.026670	0.782760
H541	H54	0.194300	0.044500	0.805700
O631	O63	0.780610	0.366320	0.280610
C551	C55	0.782760	0.473330	0.282760
H551	H55	0.805700	0.455500	0.305700
O641	O64	0.780610	0.866320	0.780610
C561	C56	0.782760	0.973330	0.782760
H561	H56	0.805700	0.955500	0.805700
O651	O65	0.280610	0.866320	0.280610
C571	C57	0.282760	0.973330	0.282760
H571	H57	0.305700	0.955500	0.305700
O661	O66	0.780610	0.633680	0.719390
C581	C58	0.782760	0.526670	0.717240
H581	H58	0.805700	0.544500	0.694300
O671	O67	0.780610	0.133680	0.219390
C591	C59	0.782760	0.026670	0.217240
H591	H59	0.805700	0.044500	0.194300
O681	O68	0.280610	0.633680	0.219390
C601	C60	0.282760	0.526670	0.217240
H601	H60	0.305700	0.544500	0.194300
O691	O69	0.719390	0.633680	0.780610
C611	C61	0.717240	0.526670	0.782760
H611	H61	0.694300	0.544500	0.805700
O701	O70	0.719390	0.133680	0.280610
C621	C62	0.717240	0.026670	0.282760
H621	H62	0.694300	0.044500	0.305700
O711	O71	0.280610	0.366320	0.780610
C631	C63	0.282760	0.473330	0.782760
H631	H63	0.305700	0.455500	0.805700
O721	O72	0.280610	0.133680	0.719390
C641	C64	0.282760	0.026670	0.717240
H641	H64	0.305700	0.044500	0.694300
O731	O73	0.719390	0.366320	0.219390
C651	C65	0.717240	0.473330	0.217240
H651	H65	0.694300	0.455500	0.194300
O741	O74	0.719390	0.866320	0.719390
C661	C66	0.717240	0.973330	0.717240
H661	H66	0.694300	0.955500	0.694300
O751	O75	0.780610	0.719390	0.633680
C671	C67	0.782760	0.717240	0.526670
H671	H67	0.805700	0.694300	0.544500
O761	O76	0.780610	0.219390	0.133680
C681	C68	0.782760	0.217240	0.026670
H681	H68	0.805700	0.194300	0.044500
O771	O77	0.780610	0.280610	0.366320
C691	C69	0.782760	0.282760	0.473330
H691	H69	0.805700	0.305700	0.455500
O781	O78	0.780610	0.780610	0.866320
C701	C70	0.782760	0.782760	0.973330
H701	H70	0.805700	0.805700	0.955500
O791	O79	0.219390	0.780610	0.133680
C711	C71	0.217240	0.782760	0.026670
H711	H71	0.194300	0.805700	0.044500
O801	O80	0.219390	0.719390	0.366320
C721	C72	0.217240	0.717240	0.473330
H721	H72	0.194300	0.694300	0.455500
O811	O81	0.633680	0.780610	0.719390
C731	C73	0.526670	0.782760	0.717240
H731	H73	0.544500	0.805700	0.694300
O821	O82	0.133680	0.780610	0.219390
C741	C74	0.026670	0.782760	0.217240
H741	H74	0.044500	0.805700	0.194300
O831	O83	0.366320	0.780610	0.280610
C751	C75	0.473330	0.782760	0.282760
H751	H75	0.455500	0.805700	0.305700
O841	O84	0.866320	0.780610	0.780610
C761	C76	0.973330	0.782760	0.782760
H761	H76	0.955500	0.805700	0.805700
O851	O85	0.133680	0.219390	0.780610
C771	C77	0.026670	0.217240	0.782760
H771	H77	0.044500	0.194300	0.805700
O861	O86	0.366320	0.219390	0.719390
C781	C78	0.473330	0.217240	0.717240
H781	H78	0.455500	0.194300	0.694300
O871	O87	0.633680	0.719390	0.219390
C791	C79	0.526670	0.717240	0.217240
H791	H79	0.544500	0.694300	0.194300
O881	O88	0.133680	0.719390	0.719390
C801	C80	0.026670	0.717240	0.717240
H801	H80	0.044500	0.694300	0.694300
O891	O89	0.866320	0.280610	0.719390
C811	C81	0.973330	0.282760	0.717240
H811	H81	0.955500	0.305700	0.694300
O901	O90	0.633680	0.280610	0.780610
C821	C82	0.526670	0.282760	0.782760
H821	H82	0.544500	0.305700	0.805700
O911	O91	0.366320	0.719390	0.780610
C831	C83	0.473330	0.717240	0.782760
H831	H83	0.455500	0.694300	0.805700
O921	O92	0.866320	0.719390	0.280610
C841	C84	0.973330	0.717240	0.282760
H841	H84	0.955500	0.694300	0.305700
O931	O93	0.719390	0.780610	0.366320
C851	C85	0.717240	0.782760	0.473330
H851	H85	0.694300	0.805700	0.455500
O941	O94	0.719390	0.280610	0.866320
C861	C86	0.717240	0.282760	0.973330
H861	H86	0.694300	0.305700	0.955500
O951	O95	0.280610	0.780610	0.633680
C871	C87	0.282760	0.782760	0.526670
H871	H87	0.305700	0.805700	0.544500
O961	O96	0.280610	0.719390	0.866320
C881	C88	0.282760	0.717240	0.973330
H881	H88	0.305700	0.694300	0.955500
O971	O97	0.719390	0.219390	0.633680
C891	C89	0.717240	0.217240	0.526670
H891	H89	0.694300	0.194300	0.544500
O981	O98	0.719390	0.719390	0.133680
C901	C90	0.717240	0.717240	0.026670
H901	H90	0.694300	0.694300	0.044500
O991	O99	0.780610	0.633680	0.280610
C911	C91	0.782760	0.526670	0.282760
H911	H91	0.805700	0.544500	0.305700
O1001	O100	0.780610	0.133680	0.780610
C921	C92	0.782760	0.026670	0.782760
H921	H92	0.805700	0.044500	0.805700
O1011	O101	0.780610	0.366320	0.719390
C931	C93	0.782760	0.473330	0.717240
H931	H93	0.805700	0.455500	0.694300
O1021	O102	0.780610	0.866320	0.219390
C941	C94	0.782760	0.973330	0.217240
H941	H94	0.805700	0.955500	0.194300
O1031	O103	0.219390	0.633680	0.719390
C951	C95	0.217240	0.526670	0.717240
H951	H95	0.194300	0.544500	0.694300
O1041	O104	0.219390	0.866320	0.780610
C961	C96	0.217240	0.973330	0.782760
H961	H96	0.194300	0.955500	0.805700
C971	C97	0.250000	0.388420	0.250000
C981	C98	0.250000	0.446310	0.250000
C991	C99	0.250000	0.888420	0.750000
C1001	C100	0.250000	0.946310	0.750000
C1011	C101	0.750000	0.611580	0.250000
C1021	C102	0.750000	0.553690	0.250000
C1031	C103	0.750000	0.111580	0.750000
C1041	C104	0.750000	0.053690	0.750000
C1051	C105	0.250000	0.111580	0.250000
C1061	C106	0.250000	0.053690	0.250000
C1071	C107	0.750000	0.388420	0.750000
C1081	C108	0.750000	0.446310	0.750000
C1091	C109	0.750000	0.888420	0.250000
C1101	C110	0.750000	0.946310	0.250000
C1111	C111	0.250000	0.611580	0.750000
C1121	C112	0.250000	0.553690	0.750000
C1131	C113	0.250000	0.250000	0.388420
C1141	C114	0.250000	0.250000	0.446310
C1151	C115	0.250000	0.750000	0.888420
C1161	C116	0.250000	0.750000	0.946310
C1171	C117	0.250000	0.750000	0.611580
C1181	C118	0.250000	0.750000	0.553690
C1191	C119	0.250000	0.250000	0.111580
C1201	C120	0.250000	0.250000	0.053690
C1211	C121	0.750000	0.750000	0.388420
C1221	C122	0.750000	0.750000	0.446310
C1231	C123	0.750000	0.250000	0.888420
C1241	C124	0.750000	0.250000	0.946310
C1251	C125	0.750000	0.250000	0.611580
C1261	C126	0.750000	0.250000	0.553690
C1271	C127	0.750000	0.750000	0.111580
C1281	C128	0.750000	0.750000	0.053690
C1291	C129	0.388420	0.250000	0.250000
C1301	C130	0.446310	0.250000	0.250000
C1311	C131	0.888420	0.250000	0.750000
C1321	C132	0.946310	0.250000	0.750000
C1331	C133	0.611580	0.250000	0.750000
C1341	C134	0.553690	0.250000	0.750000
C1351	C135	0.111580	0.250000	0.250000
C1361	C136	0.053690	0.250000	0.250000
C1371	C137	0.388420	0.750000	0.750000
C1381	C138	0.446310	0.750000	0.750000
C1391	C139	0.888420	0.750000	0.250000
C1401	C140	0.946310	0.750000	0.250000
C1411	C141	0.611580	0.750000	0.250000
C1421	C142	0.553690	0.750000	0.250000
C1431	C143	0.111580	0.750000	0.750000
C1441	C144	0.053690	0.750000	0.750000
C1451	C145	0.388420	0.250000	0.750000
C1461	C146	0.446310	0.250000	0.750000
C1471	C147	0.888420	0.250000	0.250000
C1481	C148	0.946310	0.250000	0.250000
C1491	C149	0.611580	0.750000	0.750000
C1501	C150	0.553690	0.750000	0.750000
C1511	C151	0.611580	0.250000	0.250000
C1521	C152	0.553690	0.250000	0.250000
C1531	C153	0.111580	0.750000	0.250000
C1541	C154	0.053690	0.750000	0.250000
C1551	C155	0.388420	0.750000	0.250000
C1561	C156	0.446310	0.750000	0.250000
C1571	C157	0.888420	0.750000	0.750000
C1581	C158	0.946310	0.750000	0.750000
C1591	C159	0.111580	0.250000	0.750000
C1601	C160	0.053690	0.250000	0.750000
C1611	C161	0.250000	0.250000	0.611580
C1621	C162	0.250000	0.250000	0.553690
C1631	C163	0.250000	0.750000	0.111580
C1641	C164	0.250000	0.750000	0.053690
C1651	C165	0.750000	0.250000	0.388420
C1661	C166	0.750000	0.250000	0.446310
C1671	C167	0.750000	0.750000	0.888420
C1681	C168	0.750000	0.750000	0.946310
C1691	C169	0.250000	0.250000	0.888420
C1701	C170	0.250000	0.250000	0.946310
C1711	C171	0.750000	0.750000	0.611580
C1721	C172	0.750000	0.750000	0.553690
C1731	C173	0.750000	0.250000	0.111580
C1741	C174	0.750000	0.250000	0.053690
C1751	C175	0.250000	0.750000	0.388420
C1761	C176	0.250000	0.750000	0.446310
C1771	C177	0.250000	0.388420	0.750000
C1781	C178	0.250000	0.446310	0.750000
C1791	C179	0.250000	0.888420	0.250000
C1801	C180	0.250000	0.946310	0.250000
C1811	C181	0.250000	0.611580	0.250000
C1821	C182	0.250000	0.553690	0.250000
C1831	C183	0.250000	0.111580	0.750000
C1841	C184	0.250000	0.053690	0.750000
C1851	C185	0.750000	0.388420	0.250000
C1861	C186	0.750000	0.446310	0.250000
C1871	C187	0.750000	0.888420	0.750000
C1881	C188	0.750000	0.946310	0.750000
C1891	C189	0.750000	0.611580	0.750000
C1901	C190	0.750000	0.553690	0.750000
C1911	C191	0.750000	0.111580	0.250000
C1921	C192	0.750000	0.053690	0.250000
