data_LAWGEW_freeONLY_PM
_symmetry_space_group_name_H-M	'P1'
_cell_length_a	18.283000
_cell_length_b	18.283000
_cell_length_c	18.283000
_cell_angle_alpha	60.000000
_cell_angle_beta	60.000000
_cell_angle_gamma	60.000000
_symmetry_Int_Tables_number 1

loop_
_symmetry_equiv_pos_as_xyz
'x,y,z'

loop_
_atom_site_label
_atom_site_type_symbol
_atom_site_fract_x
_atom_site_fract_y
_atom_site_fract_z
Zn11	Zn1	0.206570	0.380310	0.206560
Zn21	Zn2	0.380320	0.206560	0.206560
Zn31	Zn3	0.206570	0.206560	0.206560
Zn41	Zn4	0.206570	0.206560	0.380310
Zn51	Zn5	0.619680	0.793440	0.793440
Zn61	Zn6	0.793430	0.619690	0.793440
Zn71	Zn7	0.793430	0.793440	0.793440
Zn81	Zn8	0.793430	0.793440	0.619690
H11	H1	0.045000	0.565400	0.045000
H21	H2	0.565400	0.045000	0.344600
H31	H3	0.045000	0.344600	0.045000
H41	H4	0.344600	0.045000	0.565400
H51	H5	0.045000	0.045000	0.344600
H61	H6	0.565400	0.344600	0.045000
H71	H7	0.045000	0.045000	0.565400
H81	H8	0.344600	0.565400	0.045000
H91	H9	0.045000	0.344600	0.565400
H101	H10	0.565400	0.045000	0.045000
H111	H11	0.045000	0.565400	0.344600
H121	H12	0.344600	0.045000	0.045000
H131	H13	0.434600	0.955000	0.955000
H141	H14	0.955000	0.434600	0.655400
H151	H15	0.655400	0.955000	0.955000
H161	H16	0.955000	0.655400	0.434600
H171	H17	0.955000	0.955000	0.655400
H181	H18	0.655400	0.434600	0.955000
H191	H19	0.955000	0.955000	0.434600
H201	H20	0.434600	0.655400	0.955000
H211	H21	0.655400	0.955000	0.434600
H221	H22	0.955000	0.434600	0.955000
H231	H23	0.434600	0.955000	0.655400
H241	H24	0.955000	0.655400	0.955000
C11	C1	0.026700	0.538640	0.026700
C21	C2	0.538640	0.026700	0.407960
C31	C3	0.026700	0.407960	0.026700
C41	C4	0.407960	0.026700	0.538640
C51	C5	0.026700	0.026700	0.407960
C61	C6	0.538640	0.407960	0.026700
C71	C7	0.026700	0.026700	0.538640
C81	C8	0.407960	0.538640	0.026700
C91	C9	0.026700	0.407960	0.538640
C101	C10	0.538640	0.026700	0.026700
C111	C11	0.026700	0.538640	0.407960
C121	C12	0.407960	0.026700	0.026700
C131	C13	0.461360	0.973300	0.973300
C141	C14	0.973300	0.461360	0.592040
C151	C15	0.592040	0.973300	0.973300
C161	C16	0.973300	0.592040	0.461360
C171	C17	0.973300	0.973300	0.592040
C181	C18	0.592040	0.461360	0.973300
C191	C19	0.973300	0.973300	0.461360
C201	C20	0.461360	0.592040	0.973300
C211	C21	0.592040	0.973300	0.461360
C221	C22	0.973300	0.461360	0.973300
C231	C23	0.461360	0.973300	0.592040
C241	C24	0.973300	0.592040	0.973300
C251	C25	0.111480	0.388520	0.111480
C261	C26	0.053720	0.446280	0.053720
C271	C27	0.388520	0.111480	0.388520
C281	C28	0.446280	0.053720	0.446280
C291	C29	0.111480	0.111480	0.388520
C301	C30	0.053720	0.053720	0.446280
C311	C31	0.388520	0.388520	0.111480
C321	C32	0.446280	0.446280	0.053720
C331	C33	0.111480	0.388520	0.388520
C341	C34	0.053720	0.446280	0.446280
C351	C35	0.388520	0.111480	0.111480
C361	C36	0.446280	0.053720	0.053720
C371	C37	0.611480	0.888520	0.888520
C381	C38	0.553720	0.946280	0.946280
C391	C39	0.888520	0.611480	0.611480
C401	C40	0.946280	0.553720	0.553720
C411	C41	0.888520	0.888520	0.611480
C421	C42	0.946280	0.946280	0.553720
C431	C43	0.611480	0.611480	0.888520
C441	C44	0.553720	0.553720	0.946280
C451	C45	0.611480	0.888520	0.611480
C461	C46	0.553720	0.946280	0.553720
C471	C47	0.888520	0.611480	0.888520
C481	C48	0.946280	0.553720	0.946280
O11	O1	0.250000	0.250000	0.250000
O21	O2	0.750000	0.750000	0.750000
O31	O3	0.133730	0.427510	0.133730
O41	O4	0.427510	0.133730	0.305030
O51	O5	0.133730	0.305030	0.133730
O61	O6	0.305030	0.133730	0.427510
O71	O7	0.133730	0.133730	0.305030
O81	O8	0.427510	0.305030	0.133730
O91	O9	0.133730	0.133730	0.427510
O101	O10	0.305030	0.427510	0.133730
O111	O11	0.133730	0.305030	0.427510
O121	O12	0.427510	0.133730	0.133730
O131	O13	0.133730	0.427510	0.305030
O141	O14	0.305030	0.133730	0.133730
O151	O15	0.572490	0.866270	0.866270
O161	O16	0.866270	0.572490	0.694970
O171	O17	0.694970	0.866270	0.866270
O181	O18	0.866270	0.694970	0.572490
O191	O19	0.866270	0.866270	0.694970
O201	O20	0.694970	0.572490	0.866270
O211	O21	0.866270	0.866270	0.572490
O221	O22	0.572490	0.694970	0.866270
O231	O23	0.694970	0.866270	0.572490
O241	O24	0.866270	0.572490	0.866270
O251	O25	0.572490	0.866270	0.694970
O261	O26	0.866270	0.694970	0.866270
