data_LAWHUP_freeONLY_PM
_symmetry_space_group_name_H-M	'P1'
_cell_length_a	19.377000
_cell_length_b	19.377000
_cell_length_c	19.810000
_cell_angle_alpha	90.000000
_cell_angle_beta	90.000000
_cell_angle_gamma	120.000000
_symmetry_Int_Tables_number 1

loop_
_symmetry_equiv_pos_as_xyz
'x,y,z'

loop_
_atom_site_label
_atom_site_type_symbol
_atom_site_fract_x
_atom_site_fract_y
_atom_site_fract_z
Cd11	Cd1	0.317040	0.778620	0.582150
O11	O1	0.545860	0.808540	0.511330
O21	O2	0.419790	0.766860	0.533270
O31	O3	0.583110	0.143750	0.337670
O41	O4	0.470080	0.063000	0.286590
N11	N1	0.361100	0.870400	0.493050
N21	N2	0.376500	0.977100	0.415890
S11	S1	0.313850	0.915150	0.468510
C11	C1	0.486000	0.816000	0.504900
C21	C2	0.491000	0.881500	0.462460
C31	C3	0.557300	0.924800	0.423100
H11	H1	0.597700	0.912300	0.424500
C41	C4	0.567000	0.988100	0.380100
H21	H2	0.613300	0.015500	0.354600
C51	C5	0.510000	0.009200	0.375600
C61	C6	0.439500	0.965300	0.414460
C71	C7	0.430300	0.902800	0.458530
C81	C8	0.521100	0.075900	0.330450
Cd21	Cd2	0.983710	0.111950	0.915480
O51	O5	0.212530	0.141870	0.844660
O61	O6	0.086460	0.100190	0.866600
O71	O7	0.249780	0.477080	0.671000
O81	O8	0.136750	0.396330	0.619920
N31	N3	0.027770	0.203730	0.826380
N41	N4	0.043170	0.310430	0.749220
S21	S2	0.980520	0.248480	0.801840
C91	C9	0.152670	0.149330	0.838230
C101	C10	0.157670	0.214830	0.795790
C111	C11	0.223970	0.258130	0.756430
H31	H3	0.264370	0.245630	0.757830
C121	C12	0.233670	0.321430	0.713430
H41	H4	0.279970	0.348830	0.687930
C131	C13	0.176670	0.342530	0.708930
C141	C14	0.106170	0.298630	0.747790
C151	C15	0.096970	0.236130	0.791860
C161	C16	0.187770	0.409230	0.663780
Cd31	Cd3	0.650370	0.445290	0.248820
O91	O9	0.879190	0.475210	0.178000
O101	O10	0.753120	0.433530	0.199940
O111	O11	0.916440	0.810420	0.004340
O121	O12	0.803410	0.729670	0.953260
N51	N5	0.694430	0.537070	0.159720
N61	N6	0.709830	0.643770	0.082560
S31	S3	0.647180	0.581820	0.135180
C171	C17	0.819330	0.482670	0.171570
C181	C18	0.824330	0.548170	0.129130
C191	C19	0.890630	0.591470	0.089770
H51	H5	0.931030	0.578970	0.091170
C201	C20	0.900330	0.654770	0.046770
H61	H6	0.946630	0.682170	0.021270
C211	C21	0.843330	0.675870	0.042270
C221	C22	0.772830	0.631970	0.081130
C231	C23	0.763630	0.569470	0.125200
C241	C24	0.854430	0.742570	0.997120
Cd41	Cd4	0.221380	0.538420	0.582150
O131	O13	0.191460	0.737320	0.511330
O141	O14	0.233140	0.652930	0.533270
O151	O15	0.856250	0.439360	0.337670
O161	O16	0.937000	0.407080	0.286590
N71	N7	0.129600	0.490700	0.493050
N81	N8	0.022900	0.399400	0.415890
S41	S4	0.084850	0.398700	0.468510
C251	C25	0.184000	0.670000	0.504900
C261	C26	0.118500	0.609500	0.462460
C271	C27	0.075200	0.632500	0.423100
H71	H7	0.087700	0.685400	0.424500
C281	C28	0.011900	0.578900	0.380100
H81	H8	0.984500	0.597800	0.354600
C291	C29	0.990800	0.500800	0.375600
C301	C30	0.034700	0.474200	0.414460
C311	C31	0.097200	0.527500	0.458530
C321	C32	0.924100	0.445200	0.330450
Cd51	Cd5	0.888050	0.871750	0.915480
O171	O17	0.858130	0.070650	0.844660
O181	O18	0.899810	0.986260	0.866600
O191	O19	0.522920	0.772690	0.671000
O201	O20	0.603670	0.740410	0.619920
N91	N9	0.796270	0.824030	0.826380
N101	N10	0.689570	0.732730	0.749220
S51	S5	0.751520	0.732030	0.801840
C331	C33	0.850670	0.003330	0.838230
C341	C34	0.785170	0.942830	0.795790
C351	C35	0.741870	0.965830	0.756430
H91	H9	0.754370	0.018730	0.757830
C361	C36	0.678570	0.912230	0.713430
H101	H10	0.651170	0.931130	0.687930
C371	C37	0.657470	0.834130	0.708930
C381	C38	0.701370	0.807530	0.747790
C391	C39	0.763870	0.860830	0.791860
C401	C40	0.590770	0.778530	0.663780
Cd61	Cd6	0.554710	0.205090	0.248820
O211	O21	0.524790	0.403990	0.178000
O221	O22	0.566470	0.319600	0.199940
O231	O23	0.189580	0.106030	0.004340
O241	O24	0.270330	0.073750	0.953260
N111	N11	0.462930	0.157370	0.159720
N121	N12	0.356230	0.066070	0.082560
S61	S6	0.418180	0.065370	0.135180
C411	C41	0.517330	0.336670	0.171570
C421	C42	0.451830	0.276170	0.129130
C431	C43	0.408530	0.299170	0.089770
H111	H11	0.421030	0.352070	0.091170
C441	C44	0.345230	0.245570	0.046770
H121	H12	0.317830	0.264470	0.021270
C451	C45	0.324130	0.167470	0.042270
C461	C46	0.368030	0.140870	0.081130
C471	C47	0.430530	0.194170	0.125200
C481	C48	0.257430	0.111870	0.997120
Cd71	Cd7	0.461580	0.682960	0.582150
O251	O25	0.262680	0.454140	0.511330
O261	O26	0.347070	0.580210	0.533270
O271	O27	0.560640	0.416890	0.337670
O281	O28	0.592920	0.529920	0.286590
N131	N13	0.509300	0.638900	0.493050
N141	N14	0.600600	0.623500	0.415890
S71	S7	0.601300	0.686150	0.468510
C491	C49	0.330000	0.514000	0.504900
C501	C50	0.390500	0.509000	0.462460
C511	C51	0.367500	0.442700	0.423100
H131	H13	0.314600	0.402300	0.424500
C521	C52	0.421100	0.433000	0.380100
H141	H14	0.402200	0.386700	0.354600
C531	C53	0.499200	0.490000	0.375600
C541	C54	0.525800	0.560500	0.414460
C551	C55	0.472500	0.569700	0.458530
C561	C56	0.554800	0.478900	0.330450
Cd81	Cd8	0.128250	0.016290	0.915480
O291	O29	0.929350	0.787470	0.844660
O301	O30	0.013740	0.913540	0.866600
O311	O31	0.227310	0.750220	0.671000
O321	O32	0.259590	0.863250	0.619920
N151	N15	0.175970	0.972230	0.826380
N161	N16	0.267270	0.956830	0.749220
S81	S8	0.267970	0.019480	0.801840
C571	C57	0.996670	0.847330	0.838230
C581	C58	0.057170	0.842330	0.795790
C591	C59	0.034170	0.776030	0.756430
H151	H15	0.981270	0.735630	0.757830
C601	C60	0.087770	0.766330	0.713430
H161	H16	0.068870	0.720030	0.687930
C611	C61	0.165870	0.823330	0.708930
C621	C62	0.192470	0.893830	0.747790
C631	C63	0.139170	0.903030	0.791860
C641	C64	0.221470	0.812230	0.663780
Cd91	Cd9	0.794910	0.349630	0.248820
O331	O33	0.596010	0.120810	0.178000
O341	O34	0.680400	0.246880	0.199940
O351	O35	0.893970	0.083560	0.004340
O361	O36	0.926250	0.196590	0.953260
N171	N17	0.842630	0.305570	0.159720
N181	N18	0.933930	0.290170	0.082560
S91	S9	0.934630	0.352820	0.135180
C651	C65	0.663330	0.180670	0.171570
C661	C66	0.723830	0.175670	0.129130
C671	C67	0.700830	0.109370	0.089770
H171	H17	0.647930	0.068970	0.091170
C681	C68	0.754430	0.099670	0.046770
H181	H18	0.735530	0.053370	0.021270
C691	C69	0.832530	0.156670	0.042270
C701	C70	0.859130	0.227170	0.081130
C711	C71	0.805830	0.236370	0.125200
C721	C72	0.888130	0.145570	0.997120
Cd101	Cd10	0.682960	0.221380	0.417850
O371	O37	0.454140	0.191460	0.488670
O381	O38	0.580210	0.233140	0.466730
O391	O39	0.416890	0.856250	0.662330
O401	O40	0.529920	0.937000	0.713410
N191	N19	0.638900	0.129600	0.506950
N201	N20	0.623500	0.022900	0.584110
S101	S10	0.686150	0.084850	0.531490
C731	C73	0.514000	0.184000	0.495100
C741	C74	0.509000	0.118500	0.537540
C751	C75	0.442700	0.075200	0.576900
H191	H19	0.402300	0.087700	0.575500
C761	C76	0.433000	0.011900	0.619900
H201	H20	0.386700	0.984500	0.645400
C771	C77	0.490000	0.990800	0.624400
C781	C78	0.560500	0.034700	0.585540
C791	C79	0.569700	0.097200	0.541470
C801	C80	0.478900	0.924100	0.669550
Cd111	Cd11	0.349630	0.554710	0.751180
O411	O41	0.120810	0.524790	0.822000
O421	O42	0.246880	0.566470	0.800060
O431	O43	0.083560	0.189580	0.995660
O441	O44	0.196590	0.270330	0.046740
N211	N21	0.305570	0.462930	0.840280
N221	N22	0.290170	0.356230	0.917440
S111	S11	0.352820	0.418180	0.864820
C811	C81	0.180670	0.517330	0.828430
C821	C82	0.175670	0.451830	0.870870
C831	C83	0.109370	0.408530	0.910230
H211	H21	0.068970	0.421030	0.908830
C841	C84	0.099670	0.345230	0.953230
H221	H22	0.053370	0.317830	0.978730
C851	C85	0.156670	0.324130	0.957730
C861	C86	0.227170	0.368030	0.918870
C871	C87	0.236370	0.430530	0.874800
C881	C88	0.145570	0.257430	0.002880
Cd121	Cd12	0.016290	0.888050	0.084520
O451	O45	0.787470	0.858130	0.155340
O461	O46	0.913540	0.899810	0.133400
O471	O47	0.750220	0.522920	0.329000
O481	O48	0.863250	0.603670	0.380080
N231	N23	0.972230	0.796270	0.173620
N241	N24	0.956830	0.689570	0.250780
S121	S12	0.019480	0.751520	0.198160
C891	C89	0.847330	0.850670	0.161770
C901	C90	0.842330	0.785170	0.204210
C911	C91	0.776030	0.741870	0.243570
H231	H23	0.735630	0.754370	0.242170
C921	C92	0.766330	0.678570	0.286570
H241	H24	0.720030	0.651170	0.312070
C931	C93	0.823330	0.657470	0.291070
C941	C94	0.893830	0.701370	0.252210
C951	C95	0.903030	0.763870	0.208140
C961	C96	0.812230	0.590770	0.336220
Cd131	Cd13	0.778620	0.461580	0.417850
O491	O49	0.808540	0.262680	0.488670
O501	O50	0.766860	0.347070	0.466730
O511	O51	0.143750	0.560640	0.662330
O521	O52	0.063000	0.592920	0.713410
N251	N25	0.870400	0.509300	0.506950
N261	N26	0.977100	0.600600	0.584110
S131	S13	0.915150	0.601300	0.531490
C971	C97	0.816000	0.330000	0.495100
C981	C98	0.881500	0.390500	0.537540
C991	C99	0.924800	0.367500	0.576900
H251	H25	0.912300	0.314600	0.575500
C1001	C100	0.988100	0.421100	0.619900
H261	H26	0.015500	0.402200	0.645400
C1011	C101	0.009200	0.499200	0.624400
C1021	C102	0.965300	0.525800	0.585540
C1031	C103	0.902800	0.472500	0.541470
C1041	C104	0.075900	0.554800	0.669550
Cd141	Cd14	0.445290	0.794910	0.751180
O531	O53	0.475210	0.596010	0.822000
O541	O54	0.433530	0.680400	0.800060
O551	O55	0.810420	0.893970	0.995660
O561	O56	0.729670	0.926250	0.046740
N271	N27	0.537070	0.842630	0.840280
N281	N28	0.643770	0.933930	0.917440
S141	S14	0.581820	0.934630	0.864820
C1051	C105	0.482670	0.663330	0.828430
C1061	C106	0.548170	0.723830	0.870870
C1071	C107	0.591470	0.700830	0.910230
H271	H27	0.578970	0.647930	0.908830
C1081	C108	0.654770	0.754430	0.953230
H281	H28	0.682170	0.735530	0.978730
C1091	C109	0.675870	0.832530	0.957730
C1101	C110	0.631970	0.859130	0.918870
C1111	C111	0.569470	0.805830	0.874800
C1121	C112	0.742570	0.888130	0.002880
Cd151	Cd15	0.111950	0.128250	0.084520
O571	O57	0.141870	0.929350	0.155340
O581	O58	0.100190	0.013740	0.133400
O591	O59	0.477080	0.227310	0.329000
O601	O60	0.396330	0.259590	0.380080
N291	N29	0.203730	0.175970	0.173620
N301	N30	0.310430	0.267270	0.250780
S151	S15	0.248480	0.267970	0.198160
C1131	C113	0.149330	0.996670	0.161770
C1141	C114	0.214830	0.057170	0.204210
C1151	C115	0.258130	0.034170	0.243570
H291	H29	0.245630	0.981270	0.242170
C1161	C116	0.321430	0.087770	0.286570
H301	H30	0.348830	0.068870	0.312070
C1171	C117	0.342530	0.165870	0.291070
C1181	C118	0.298630	0.192470	0.252210
C1191	C119	0.236130	0.139170	0.208140
C1201	C120	0.409230	0.221470	0.336220
Cd161	Cd16	0.538420	0.317040	0.417850
O611	O61	0.737320	0.545860	0.488670
O621	O62	0.652930	0.419790	0.466730
O631	O63	0.439360	0.583110	0.662330
O641	O64	0.407080	0.470080	0.713410
N311	N31	0.490700	0.361100	0.506950
N321	N32	0.399400	0.376500	0.584110
S161	S16	0.398700	0.313850	0.531490
C1211	C121	0.670000	0.486000	0.495100
C1221	C122	0.609500	0.491000	0.537540
C1231	C123	0.632500	0.557300	0.576900
H311	H31	0.685400	0.597700	0.575500
C1241	C124	0.578900	0.567000	0.619900
H321	H32	0.597800	0.613300	0.645400
C1251	C125	0.500800	0.510000	0.624400
C1261	C126	0.474200	0.439500	0.585540
C1271	C127	0.527500	0.430300	0.541470
C1281	C128	0.445200	0.521100	0.669550
Cd171	Cd17	0.205090	0.650370	0.751180
O651	O65	0.403990	0.879190	0.822000
O661	O66	0.319600	0.753120	0.800060
O671	O67	0.106030	0.916440	0.995660
O681	O68	0.073750	0.803410	0.046740
N331	N33	0.157370	0.694430	0.840280
N341	N34	0.066070	0.709830	0.917440
S171	S17	0.065370	0.647180	0.864820
C1291	C129	0.336670	0.819330	0.828430
C1301	C130	0.276170	0.824330	0.870870
C1311	C131	0.299170	0.890630	0.910230
H331	H33	0.352070	0.931030	0.908830
C1321	C132	0.245570	0.900330	0.953230
H341	H34	0.264470	0.946630	0.978730
C1331	C133	0.167470	0.843330	0.957730
C1341	C134	0.140870	0.772830	0.918870
C1351	C135	0.194170	0.763630	0.874800
C1361	C136	0.111870	0.854430	0.002880
Cd181	Cd18	0.871750	0.983710	0.084520
O691	O69	0.070650	0.212530	0.155340
O701	O70	0.986260	0.086460	0.133400
O711	O71	0.772690	0.249780	0.329000
O721	O72	0.740410	0.136750	0.380080
N351	N35	0.824030	0.027770	0.173620
N361	N36	0.732730	0.043170	0.250780
S181	S18	0.732030	0.980520	0.198160
C1371	C137	0.003330	0.152670	0.161770
C1381	C138	0.942830	0.157670	0.204210
C1391	C139	0.965830	0.223970	0.243570
H351	H35	0.018730	0.264370	0.242170
C1401	C140	0.912230	0.233670	0.286570
H361	H36	0.931130	0.279970	0.312070
C1411	C141	0.834130	0.176670	0.291070
C1421	C142	0.807530	0.106170	0.252210
C1431	C143	0.860830	0.096970	0.208140
C1441	C144	0.778530	0.187770	0.336220
S191	S19	0.333330	0.666670	0.666670
S201	S20	0.000000	0.000000	0.000000
S211	S21	0.666670	0.333330	0.333330
