data_LAZJAZ_SL_PM
_symmetry_space_group_name_H-M	'P1'
_cell_length_a	9.005600
_cell_length_b	10.726300
_cell_length_c	12.989900
_cell_angle_alpha	104.047000
_cell_angle_beta	90.000000
_cell_angle_gamma	90.000000
_symmetry_Int_Tables_number 1

loop_
_symmetry_equiv_pos_as_xyz
'x,y,z'

loop_
_atom_site_label
_atom_site_type_symbol
_atom_site_fract_x
_atom_site_fract_y
_atom_site_fract_z
Zn11	Zn1	0.619260	0.500000	0.000000
Zn21	Zn2	0.934460	0.000000	0.500000
H31	H3	0.775800	0.179500	0.386800
H41	H4	0.602800	0.170000	0.256300
H51	H5	0.619500	0.787500	0.201300
H61	H6	0.774500	0.810100	0.340700
H71	H7	0.511700	0.115300	0.077300
H81	H8	0.377300	0.108100	0.153400
H91	H9	0.302600	0.821600	0.029700
H101	H10	0.200300	0.929100	0.098300
H111	H11	0.900300	0.808800	0.843900
H121	H12	0.707700	0.680800	0.866000
H131	H13	0.887900	0.619000	0.118300
H141	H14	0.089000	0.742400	0.102100
H151	H15	0.311500	0.295700	0.755700
H161	H16	0.992400	0.407000	0.583100
H171	H17	0.237700	0.667600	0.782600
H181	H18	0.775800	0.820500	0.613200
H191	H19	0.602800	0.830000	0.743700
H201	H20	0.619500	0.212500	0.798700
H211	H21	0.774500	0.189900	0.659300
H221	H22	0.511700	0.884700	0.922700
H231	H23	0.377300	0.891900	0.846600
H241	H24	0.302600	0.178400	0.970300
H251	H25	0.200300	0.070900	0.901700
H261	H26	0.900300	0.191200	0.156100
H271	H27	0.707700	0.319200	0.134000
H281	H28	0.887900	0.381000	0.881700
H291	H29	0.089000	0.257600	0.897900
H301	H30	0.311500	0.704300	0.244300
H311	H31	0.992400	0.593000	0.416900
H321	H32	0.237700	0.332400	0.217400
C331	C33	0.742200	0.099300	0.349400
C341	C34	0.640800	0.094900	0.269800
C351	C35	0.596300	0.974700	0.209600
C361	C36	0.648700	0.869200	0.238400
C371	C37	0.743200	0.883600	0.320900
C381	C38	0.437600	0.058900	0.095800
C391	C39	0.243300	0.896800	0.028500
C401	C40	0.018300	0.788400	0.969700
C411	C41	0.901100	0.769600	0.900400
C421	C42	0.785700	0.693200	0.914300
C431	C43	0.891400	0.656900	0.061100
C441	C44	0.012500	0.731300	0.052500
C451	C45	0.421700	0.523500	0.856700
C461	C46	0.295700	0.487600	0.779800
C471	C47	0.259100	0.361000	0.736100
C481	C48	0.145400	0.330800	0.663700
C491	C49	0.068300	0.427500	0.632900
C501	C50	0.215900	0.582200	0.750900
C511	C51	0.104100	0.191400	0.616800
C521	C52	0.104700	0.554900	0.676500
C531	C53	0.742200	0.900700	0.650600
C541	C54	0.640800	0.905100	0.730200
C551	C55	0.596300	0.025300	0.790400
C561	C56	0.648700	0.130800	0.761600
C571	C57	0.743200	0.116400	0.679100
C581	C58	0.437600	0.941100	0.904200
C591	C59	0.243300	0.103200	0.971500
C601	C60	0.018300	0.211600	0.030300
C611	C61	0.901100	0.230400	0.099600
C621	C62	0.785700	0.306800	0.085700
C631	C63	0.891400	0.343100	0.938900
C641	C64	0.012500	0.268700	0.947500
C651	C65	0.421700	0.476500	0.143300
C661	C66	0.295700	0.512400	0.220200
C671	C67	0.259100	0.639000	0.263900
C681	C68	0.145400	0.669200	0.336300
C691	C69	0.068300	0.572500	0.367100
C701	C70	0.215900	0.417800	0.249100
C711	C71	0.104100	0.808600	0.383200
C721	C72	0.104700	0.445100	0.323500
C731	C73	0.341000	0.000000	0.000000
N741	N74	0.794800	0.997600	0.376200
N751	N75	0.779500	0.635600	0.993800
N761	N76	0.794800	0.002400	0.623800
N771	N77	0.779500	0.364400	0.006200
O781	O78	0.444000	0.635100	0.901300
O791	O79	0.503500	0.433200	0.872000
O801	O80	0.013900	0.172100	0.540200
O811	O81	0.153500	0.109100	0.654600
O821	O82	0.128900	0.863300	0.951300
O831	O83	0.506200	0.954500	0.125800
O841	O84	0.029400	0.650000	0.647300
O851	O85	0.444000	0.364900	0.098700
O861	O86	0.503500	0.566800	0.128000
O871	O87	0.013900	0.827900	0.459800
O881	O88	0.153500	0.890900	0.345400
O891	O89	0.128900	0.136700	0.048700
O901	O90	0.506200	0.045500	0.874200
O911	O91	0.029400	0.350000	0.352700
H931	H93	0.049920	0.742510	0.705930
H921	H92	0.967710	0.390520	0.427300
