data_LAZJIH_freeONLY_PM
_symmetry_space_group_name_H-M	'P1'
_cell_length_a	16.193600
_cell_length_b	16.193600
_cell_length_c	29.884000
_cell_angle_alpha	90.000000
_cell_angle_beta	90.000000
_cell_angle_gamma	90.000000
_symmetry_Int_Tables_number 1

loop_
_symmetry_equiv_pos_as_xyz
'x,y,z'

loop_
_atom_site_label
_atom_site_type_symbol
_atom_site_fract_x
_atom_site_fract_y
_atom_site_fract_z
C11	C1	0.257900	0.263000	0.040350
C21	C2	0.257000	0.176600	0.040370
C31	C3	0.274900	0.316500	0.081040
C41	C4	0.258490	0.126040	0.082380
O11	O1	0.220180	0.371200	0.088730
O21	O2	0.339230	0.306510	0.102050
O31	O3	0.275390	0.050000	0.076090
O41	O4	0.243440	0.156970	0.118840
C51	C5	0.757900	0.763000	0.540350
C61	C6	0.757000	0.676600	0.540370
C71	C7	0.774900	0.816500	0.581040
C81	C8	0.758490	0.626040	0.582380
O51	O5	0.720180	0.871200	0.588730
O61	O6	0.839230	0.806510	0.602050
O71	O7	0.775390	0.550000	0.576090
O81	O8	0.743440	0.656970	0.618840
C91	C9	0.242100	0.737000	0.540350
C101	C10	0.243000	0.823400	0.540370
C111	C11	0.225100	0.683500	0.581040
C121	C12	0.241510	0.873960	0.582380
O91	O9	0.279820	0.628800	0.588730
O101	O10	0.160770	0.693490	0.602050
O111	O11	0.224610	0.950000	0.576090
O121	O12	0.256560	0.843030	0.618840
C131	C13	0.742100	0.237000	0.040350
C141	C14	0.743000	0.323400	0.040370
C151	C15	0.725100	0.183500	0.081040
C161	C16	0.741510	0.373960	0.082380
O131	O13	0.779820	0.128800	0.088730
O141	O14	0.660770	0.193490	0.102050
O151	O15	0.724610	0.450000	0.076090
O161	O16	0.756560	0.343030	0.118840
C171	C17	0.987000	0.007900	0.290350
C181	C18	0.073400	0.007000	0.290370
C191	C19	0.933500	0.024900	0.331040
C201	C20	0.123960	0.008490	0.332380
O171	O17	0.878800	0.970180	0.338730
O181	O18	0.943490	0.089230	0.352050
O191	O19	0.200000	0.025390	0.326090
O201	O20	0.093030	0.993440	0.368840
C211	C21	0.487000	0.507900	0.790350
C221	C22	0.573400	0.507000	0.790370
C231	C23	0.433500	0.524900	0.831040
C241	C24	0.623960	0.508490	0.832380
O211	O21	0.378800	0.470180	0.838730
O221	O22	0.443490	0.589230	0.852050
O231	O23	0.700000	0.525390	0.826090
O241	O24	0.593030	0.493440	0.868840
C251	C25	0.513000	0.992100	0.790350
C261	C26	0.426600	0.993000	0.790370
C271	C27	0.566500	0.975100	0.831040
C281	C28	0.376040	0.991510	0.832380
O251	O25	0.621200	0.029820	0.838730
O261	O26	0.556510	0.910770	0.852050
O271	O27	0.300000	0.974610	0.826090
O281	O28	0.406970	0.006560	0.868840
C291	C29	0.013000	0.492100	0.290350
C301	C30	0.926600	0.493000	0.290370
C311	C31	0.066500	0.475100	0.331040
C321	C32	0.876040	0.491510	0.332380
O291	O29	0.121200	0.529820	0.338730
O301	O30	0.056510	0.410770	0.352050
O311	O31	0.800000	0.474610	0.326090
O321	O32	0.906970	0.506560	0.368840
C331	C33	0.242100	0.263000	0.959650
C341	C34	0.243000	0.176600	0.959630
C351	C35	0.225100	0.316500	0.918960
C361	C36	0.241510	0.126040	0.917620
O331	O33	0.279820	0.371200	0.911270
O341	O34	0.160770	0.306510	0.897950
O351	O35	0.224610	0.050000	0.923910
O361	O36	0.256560	0.156970	0.881160
C371	C37	0.742100	0.763000	0.459650
C381	C38	0.743000	0.676600	0.459630
C391	C39	0.725100	0.816500	0.418960
C401	C40	0.741510	0.626040	0.417620
O371	O37	0.779820	0.871200	0.411270
O381	O38	0.660770	0.806510	0.397950
O391	O39	0.724610	0.550000	0.423910
O401	O40	0.756560	0.656970	0.381160
C411	C41	0.257900	0.737000	0.459650
C421	C42	0.257000	0.823400	0.459630
C431	C43	0.274900	0.683500	0.418960
C441	C44	0.258490	0.873960	0.417620
O411	O41	0.220180	0.628800	0.411270
O421	O42	0.339230	0.693490	0.397950
O431	O43	0.275390	0.950000	0.423910
O441	O44	0.243440	0.843030	0.381160
C451	C45	0.757900	0.237000	0.959650
C461	C46	0.757000	0.323400	0.959630
C471	C47	0.774900	0.183500	0.918960
C481	C48	0.758490	0.373960	0.917620
O451	O45	0.720180	0.128800	0.911270
O461	O46	0.839230	0.193490	0.897950
O471	O47	0.775390	0.450000	0.923910
O481	O48	0.743440	0.343030	0.881160
C491	C49	0.513000	0.007900	0.709650
C501	C50	0.426600	0.007000	0.709630
C511	C51	0.566500	0.024900	0.668960
C521	C52	0.376040	0.008490	0.667620
O491	O49	0.621200	0.970180	0.661270
O501	O50	0.556510	0.089230	0.647950
O511	O51	0.300000	0.025390	0.673910
O521	O52	0.406970	0.993440	0.631160
C531	C53	0.013000	0.507900	0.209650
C541	C54	0.926600	0.507000	0.209630
C551	C55	0.066500	0.524900	0.168960
C561	C56	0.876040	0.508490	0.167620
O531	O53	0.121200	0.470180	0.161270
O541	O54	0.056510	0.589230	0.147950
O551	O55	0.800000	0.525390	0.173910
O561	O56	0.906970	0.493440	0.131160
C571	C57	0.987000	0.992100	0.209650
C581	C58	0.073400	0.993000	0.209630
C591	C59	0.933500	0.975100	0.168960
C601	C60	0.123960	0.991510	0.167620
O571	O57	0.878800	0.029820	0.161270
O581	O58	0.943490	0.910770	0.147950
O591	O59	0.200000	0.974610	0.173910
O601	O60	0.093030	0.006560	0.131160
C611	C61	0.487000	0.492100	0.709650
C621	C62	0.573400	0.493000	0.709630
C631	C63	0.433500	0.475100	0.668960
C641	C64	0.623960	0.491510	0.667620
O611	O61	0.378800	0.529820	0.661270
O621	O62	0.443490	0.410770	0.647950
O631	O63	0.700000	0.474610	0.673910
O641	O64	0.593030	0.506560	0.631160
C651	C65	0.742100	0.737000	0.959650
C661	C66	0.743000	0.823400	0.959630
C671	C67	0.725100	0.683500	0.918960
C681	C68	0.741510	0.873960	0.917620
O651	O65	0.779820	0.628800	0.911270
O661	O66	0.660770	0.693490	0.897950
O671	O67	0.724610	0.950000	0.923910
O681	O68	0.756560	0.843030	0.881160
C691	C69	0.242100	0.237000	0.459650
C701	C70	0.243000	0.323400	0.459630
C711	C71	0.225100	0.183500	0.418960
C721	C72	0.241510	0.373960	0.417620
O691	O69	0.279820	0.128800	0.411270
O701	O70	0.160770	0.193490	0.397950
O711	O71	0.224610	0.450000	0.423910
O721	O72	0.256560	0.343030	0.381160
C731	C73	0.757900	0.263000	0.459650
C741	C74	0.757000	0.176600	0.459630
C751	C75	0.774900	0.316500	0.418960
C761	C76	0.758490	0.126040	0.417620
O731	O73	0.720180	0.371200	0.411270
O741	O74	0.839230	0.306510	0.397950
O751	O75	0.775390	0.050000	0.423910
O761	O76	0.743440	0.156970	0.381160
C771	C77	0.257900	0.763000	0.959650
C781	C78	0.257000	0.676600	0.959630
C791	C79	0.274900	0.816500	0.918960
C801	C80	0.258490	0.626040	0.917620
O771	O77	0.220180	0.871200	0.911270
O781	O78	0.339230	0.806510	0.897950
O791	O79	0.275390	0.550000	0.923910
O801	O80	0.243440	0.656970	0.881160
C811	C81	0.013000	0.992100	0.709650
C821	C82	0.926600	0.993000	0.709630
C831	C83	0.066500	0.975100	0.668960
C841	C84	0.876040	0.991510	0.667620
O811	O81	0.121200	0.029820	0.661270
O821	O82	0.056510	0.910770	0.647950
O831	O83	0.800000	0.974610	0.673910
O841	O84	0.906970	0.006560	0.631160
C851	C85	0.513000	0.492100	0.209650
C861	C86	0.426600	0.493000	0.209630
C871	C87	0.566500	0.475100	0.168960
C881	C88	0.376040	0.491510	0.167620
O851	O85	0.621200	0.529820	0.161270
O861	O86	0.556510	0.410770	0.147950
O871	O87	0.300000	0.474610	0.173910
O881	O88	0.406970	0.506560	0.131160
C891	C89	0.487000	0.007900	0.209650
C901	C90	0.573400	0.007000	0.209630
C911	C91	0.433500	0.024900	0.168960
C921	C92	0.623960	0.008490	0.167620
O891	O89	0.378800	0.970180	0.161270
O901	O90	0.443490	0.089230	0.147950
O911	O91	0.700000	0.025390	0.173910
O921	O92	0.593030	0.993440	0.131160
C931	C93	0.987000	0.507900	0.709650
C941	C94	0.073400	0.507000	0.709630
C951	C95	0.933500	0.524900	0.668960
C961	C96	0.123960	0.508490	0.667620
O931	O93	0.878800	0.470180	0.661270
O941	O94	0.943490	0.589230	0.647950
O951	O95	0.200000	0.525390	0.673910
O961	O96	0.093030	0.493440	0.631160
C971	C97	0.757900	0.737000	0.040350
C981	C98	0.757000	0.823400	0.040370
C991	C99	0.774900	0.683500	0.081040
C1001	C100	0.758490	0.873960	0.082380
O971	O97	0.720180	0.628800	0.088730
O981	O98	0.839230	0.693490	0.102050
O991	O99	0.775390	0.950000	0.076090
O1001	O100	0.743440	0.843030	0.118840
C1011	C101	0.257900	0.237000	0.540350
C1021	C102	0.257000	0.323400	0.540370
C1031	C103	0.274900	0.183500	0.581040
C1041	C104	0.258490	0.373960	0.582380
O1011	O101	0.220180	0.128800	0.588730
O1021	O102	0.339230	0.193490	0.602050
O1031	O103	0.275390	0.450000	0.576090
O1041	O104	0.243440	0.343030	0.618840
C1051	C105	0.742100	0.263000	0.540350
C1061	C106	0.743000	0.176600	0.540370
C1071	C107	0.725100	0.316500	0.581040
C1081	C108	0.741510	0.126040	0.582380
O1051	O105	0.779820	0.371200	0.588730
O1061	O106	0.660770	0.306510	0.602050
O1071	O107	0.724610	0.050000	0.576090
O1081	O108	0.756560	0.156970	0.618840
C1091	C109	0.242100	0.763000	0.040350
C1101	C110	0.243000	0.676600	0.040370
C1111	C111	0.225100	0.816500	0.081040
C1121	C112	0.241510	0.626040	0.082380
O1091	O109	0.279820	0.871200	0.088730
O1101	O110	0.160770	0.806510	0.102050
O1111	O111	0.224610	0.550000	0.076090
O1121	O112	0.256560	0.656970	0.118840
C1131	C113	0.487000	0.992100	0.290350
C1141	C114	0.573400	0.993000	0.290370
C1151	C115	0.433500	0.975100	0.331040
C1161	C116	0.623960	0.991510	0.332380
O1131	O113	0.378800	0.029820	0.338730
O1141	O114	0.443490	0.910770	0.352050
O1151	O115	0.700000	0.974610	0.326090
O1161	O116	0.593030	0.006560	0.368840
C1171	C117	0.987000	0.492100	0.790350
C1181	C118	0.073400	0.493000	0.790370
C1191	C119	0.933500	0.475100	0.831040
C1201	C120	0.123960	0.491510	0.832380
O1171	O117	0.878800	0.529820	0.838730
O1181	O118	0.943490	0.410770	0.852050
O1191	O119	0.200000	0.474610	0.826090
O1201	O120	0.093030	0.506560	0.868840
C1211	C121	0.013000	0.007900	0.790350
C1221	C122	0.926600	0.007000	0.790370
C1231	C123	0.066500	0.024900	0.831040
C1241	C124	0.876040	0.008490	0.832380
O1211	O121	0.121200	0.970180	0.838730
O1221	O122	0.056510	0.089230	0.852050
O1231	O123	0.800000	0.025390	0.826090
O1241	O124	0.906970	0.993440	0.868840
C1251	C125	0.513000	0.507900	0.290350
C1261	C126	0.426600	0.507000	0.290370
C1271	C127	0.566500	0.524900	0.331040
C1281	C128	0.376040	0.508490	0.332380
O1251	O125	0.621200	0.470180	0.338730
O1261	O126	0.556510	0.589230	0.352050
O1271	O127	0.300000	0.525390	0.326090
O1281	O128	0.406970	0.493440	0.368840
C1291	C129	0.250000	0.304900	0.000000
H11	H1	0.250000	0.362300	0.000000
C1301	C130	0.250000	0.137500	0.000000
H21	H2	0.250000	0.080100	0.000000
C1311	C131	0.750000	0.804900	0.500000
H31	H3	0.750000	0.862300	0.500000
C1321	C132	0.750000	0.637500	0.500000
H41	H4	0.750000	0.580100	0.500000
C1331	C133	0.250000	0.695100	0.500000
H51	H5	0.250000	0.637700	0.500000
C1341	C134	0.250000	0.862500	0.500000
H61	H6	0.250000	0.919900	0.500000
C1351	C135	0.750000	0.195100	0.000000
H71	H7	0.750000	0.137700	0.000000
C1361	C136	0.750000	0.362500	0.000000
H81	H8	0.750000	0.419900	0.000000
C1371	C137	0.945100	0.000000	0.250000
H91	H9	0.887700	0.000000	0.250000
C1381	C138	0.112500	0.000000	0.250000
H101	H10	0.169900	0.000000	0.250000
C1391	C139	0.445100	0.500000	0.750000
H111	H11	0.387700	0.500000	0.750000
C1401	C140	0.612500	0.500000	0.750000
H121	H12	0.669900	0.500000	0.750000
C1411	C141	0.554900	0.000000	0.750000
H131	H13	0.612300	0.000000	0.750000
C1421	C142	0.387500	0.000000	0.750000
H141	H14	0.330100	0.000000	0.750000
C1431	C143	0.054900	0.500000	0.250000
H151	H15	0.112300	0.500000	0.250000
C1441	C144	0.887500	0.500000	0.250000
H161	H16	0.830100	0.500000	0.250000
C1451	C145	0.750000	0.695100	0.000000
H171	H17	0.750000	0.637700	0.000000
C1461	C146	0.750000	0.862500	0.000000
H181	H18	0.750000	0.919900	0.000000
C1471	C147	0.250000	0.195100	0.500000
H191	H19	0.250000	0.137700	0.500000
C1481	C148	0.250000	0.362500	0.500000
H201	H20	0.250000	0.419900	0.500000
C1491	C149	0.750000	0.304900	0.500000
H211	H21	0.750000	0.362300	0.500000
C1501	C150	0.750000	0.137500	0.500000
H221	H22	0.750000	0.080100	0.500000
C1511	C151	0.250000	0.804900	0.000000
H231	H23	0.250000	0.862300	0.000000
C1521	C152	0.250000	0.637500	0.000000
H241	H24	0.250000	0.580100	0.000000
C1531	C153	0.054900	0.000000	0.750000
H251	H25	0.112300	0.000000	0.750000
C1541	C154	0.887500	0.000000	0.750000
H261	H26	0.830100	0.000000	0.750000
C1551	C155	0.554900	0.500000	0.250000
H271	H27	0.612300	0.500000	0.250000
C1561	C156	0.387500	0.500000	0.250000
H281	H28	0.330100	0.500000	0.250000
C1571	C157	0.445100	0.000000	0.250000
H291	H29	0.387700	0.000000	0.250000
C1581	C158	0.612500	0.000000	0.250000
H301	H30	0.669900	0.000000	0.250000
C1591	C159	0.945100	0.500000	0.750000
H311	H31	0.887700	0.500000	0.750000
C1601	C160	0.112500	0.500000	0.750000
H321	H32	0.169900	0.500000	0.750000
Zn11	Zn1	0.222510	0.472510	0.125000
Zn21	Zn2	0.722510	0.972510	0.625000
Zn31	Zn3	0.277490	0.527490	0.625000
Zn41	Zn4	0.777490	0.972510	0.375000
Zn51	Zn5	0.722510	0.027490	0.875000
Zn61	Zn6	0.277490	0.472510	0.875000
Zn71	Zn7	0.222510	0.527490	0.375000
Zn81	Zn8	0.777490	0.027490	0.125000
Zn91	Zn9	0.777490	0.527490	0.875000
Zn101	Zn10	0.277490	0.027490	0.375000
Zn111	Zn11	0.722510	0.472510	0.375000
Zn121	Zn12	0.222510	0.972510	0.875000
Zn131	Zn13	0.222510	0.027490	0.625000
Zn141	Zn14	0.277490	0.972510	0.125000
Zn151	Zn15	0.722510	0.527490	0.125000
Zn161	Zn16	0.777490	0.472510	0.625000
