data_LAZXOB_freeONLY_PM
_symmetry_space_group_name_H-M	'P1'
_cell_length_a	17.557500
_cell_length_b	17.557500
_cell_length_c	17.557500
_cell_angle_alpha	108.339000
_cell_angle_beta	110.040000
_cell_angle_gamma	110.040000
_symmetry_Int_Tables_number 1

loop_
_symmetry_equiv_pos_as_xyz
'x,y,z'

loop_
_atom_site_label
_atom_site_type_symbol
_atom_site_fract_x
_atom_site_fract_y
_atom_site_fract_z
Cu11	Cu1	0.470320	0.044680	0.047160
Cu21	Cu2	0.529680	0.576840	0.574360
Cu31	Cu3	0.997520	0.423160	0.952840
Cu41	Cu4	0.002480	0.955320	0.425640
Cu51	Cu5	0.529680	0.955320	0.952840
Cu61	Cu6	0.470320	0.423160	0.425640
Cu71	Cu7	0.002480	0.576840	0.047160
Cu81	Cu8	0.997520	0.044680	0.574360
Cu91	Cu9	0.066000	0.500000	0.566000
Cu101	Cu10	0.934000	0.500000	0.434000
Cu111	Cu11	0.434400	0.434400	0.000000
Cu121	Cu12	0.565600	0.565600	0.000000
H11	H1	0.454400	0.746600	0.996200
H21	H2	0.662900	0.888400	0.145700
H31	H3	0.736400	0.200900	0.264100
H41	H4	0.236300	0.837000	0.992900
H51	H5	0.545600	0.541800	0.292200
H61	H6	0.337100	0.482800	0.225500
H71	H7	0.263600	0.527700	0.464500
H81	H8	0.763700	0.756600	0.600700
H91	H9	0.750400	0.458200	0.003800
H101	H10	0.742700	0.517200	0.854300
H111	H11	0.936800	0.472300	0.735900
H121	H12	0.844100	0.243400	0.007100
H131	H13	0.249600	0.253400	0.707800
H141	H14	0.257300	0.111600	0.774500
H151	H15	0.063200	0.799100	0.535500
H161	H16	0.155900	0.163000	0.399300
H171	H17	0.545600	0.253400	0.003800
H181	H18	0.337100	0.111600	0.854300
H191	H19	0.263600	0.799100	0.735900
H201	H20	0.763700	0.163000	0.007100
H211	H21	0.454400	0.458200	0.707800
H221	H22	0.662900	0.517200	0.774500
H231	H23	0.736400	0.472300	0.535500
H241	H24	0.236300	0.243400	0.399300
H251	H25	0.249600	0.541800	0.996200
H261	H26	0.257300	0.482800	0.145700
H271	H27	0.063200	0.527700	0.264100
H281	H28	0.155900	0.756600	0.992900
H291	H29	0.750400	0.746600	0.292200
H301	H30	0.742700	0.888400	0.225500
H311	H31	0.936800	0.200900	0.464500
H321	H32	0.844100	0.837000	0.600700
C11	C1	0.345800	0.765800	0.990200
C21	C2	0.395400	0.720600	0.992800
C31	C3	0.392900	0.851000	0.985300
C41	C4	0.727200	0.079700	0.234100
C51	C5	0.767600	0.169400	0.281800
C61	C6	0.632600	0.029200	0.141200
C71	C7	0.654200	0.644400	0.420000
C81	C8	0.604600	0.597400	0.325200
C91	C9	0.607100	0.592400	0.458100
C101	C10	0.272800	0.506900	0.352500
C111	C11	0.232400	0.514200	0.401800
C121	C12	0.367400	0.508600	0.396600
C131	C13	0.775600	0.355600	0.009800
C141	C14	0.727800	0.402600	0.007200
C151	C15	0.865700	0.407600	0.014700
C161	C16	0.845600	0.493100	0.765900
C171	C17	0.887600	0.485800	0.718200
C181	C18	0.888000	0.491400	0.858800
C191	C19	0.224400	0.234200	0.580000
C201	C20	0.272200	0.279400	0.674800
C211	C21	0.134300	0.149000	0.541900
C221	C22	0.154400	0.920300	0.647500
C231	C23	0.112400	0.830600	0.598200
C241	C24	0.112000	0.970800	0.603400
C251	C25	0.654200	0.234200	0.009800
C261	C26	0.604600	0.279400	0.007200
C271	C27	0.607100	0.149000	0.014700
C281	C28	0.272800	0.920300	0.765900
C291	C29	0.232400	0.830600	0.718200
C301	C30	0.367400	0.970800	0.858800
C311	C31	0.345800	0.355600	0.580000
C321	C32	0.395400	0.402600	0.674800
C331	C33	0.392900	0.407600	0.541900
C341	C34	0.727200	0.493100	0.647500
C351	C35	0.767600	0.485800	0.598200
C361	C36	0.632600	0.491400	0.603400
C371	C37	0.224400	0.644400	0.990200
C381	C38	0.272200	0.597400	0.992800
C391	C39	0.134300	0.592400	0.985300
C401	C40	0.154400	0.506900	0.234100
C411	C41	0.112400	0.514200	0.281800
C421	C42	0.112000	0.508600	0.141200
C431	C43	0.775600	0.765800	0.420000
C441	C44	0.727800	0.720600	0.325200
C451	C45	0.865700	0.851000	0.458100
C461	C46	0.845600	0.079700	0.352500
C471	C47	0.887600	0.169400	0.401800
C481	C48	0.888000	0.029200	0.396600
C491	C49	0.756800	0.024300	0.267500
C501	C50	0.699000	0.912500	0.213500
C511	C51	0.634000	0.882000	0.248000
C521	C52	0.858900	0.219400	0.360500
C531	C53	0.912300	0.326400	0.414100
C541	C54	0.243200	0.510700	0.267500
C551	C55	0.301000	0.514500	0.213500
C561	C56	0.366000	0.614000	0.248000
C571	C57	0.141100	0.501600	0.360500
C581	C58	0.087700	0.501800	0.414100
C591	C59	0.756800	0.489300	0.732500
C601	C60	0.699000	0.485500	0.786500
C611	C61	0.634000	0.386000	0.752000
C621	C62	0.858900	0.498400	0.639500
C631	C63	0.912300	0.498200	0.585900
C641	C64	0.243200	0.975700	0.732500
C651	C65	0.301000	0.087500	0.786500
C661	C66	0.366000	0.118000	0.752000
C671	C67	0.141100	0.780600	0.639500
C681	C68	0.087700	0.673600	0.585900
C691	C69	0.412900	0.587300	0.000200
C701	C70	0.142000	0.716000	0.858000
C711	C71	0.253900	0.726500	0.980400
C721	C72	0.356800	0.633700	0.990500
C731	C73	0.197700	0.769200	0.966900
C741	C74	0.587100	0.587300	0.174400
C751	C75	0.858000	0.716000	0.574000
C761	C76	0.746100	0.726500	0.472600
C771	C77	0.643200	0.633700	0.276900
C781	C78	0.802300	0.769200	0.571500
C791	C79	0.587100	0.412700	0.999800
C801	C80	0.858000	0.284000	0.142000
C811	C81	0.746100	0.273500	0.019600
C821	C82	0.643200	0.366300	0.009500
C831	C83	0.802300	0.230800	0.033100
C841	C84	0.412900	0.412700	0.825600
C851	C85	0.142000	0.284000	0.426000
C861	C86	0.253900	0.273500	0.527400
C871	C87	0.356800	0.366300	0.723100
C881	C88	0.197700	0.230800	0.428500
O11	O1	0.570600	0.055200	0.146800
O21	O2	0.987500	0.364300	0.486400
O31	O3	0.435500	0.853200	0.948100
O41	O4	0.385400	0.921000	0.027000
O51	O5	0.373500	0.505800	0.995300
O61	O6	0.623900	0.980500	0.073800
O71	O7	0.432300	0.123200	0.134700
O81	O8	0.429400	0.576200	0.484600
O91	O9	0.012500	0.498900	0.376800
O101	O10	0.564500	0.512600	0.417700
O111	O11	0.614600	0.641600	0.535600
O121	O12	0.626500	0.621800	0.132300
O131	O13	0.376100	0.449900	0.356600
O141	O14	0.567700	0.702400	0.690900
O151	O15	0.908400	0.423800	0.853200
O161	O16	0.877900	0.501100	0.513600
O171	O17	0.905100	0.487400	0.051900
O181	O18	0.894000	0.358400	0.973000
O191	O19	0.510500	0.378200	0.004700
O201	O20	0.906700	0.550100	0.926200
O211	O21	0.988500	0.297600	0.865300
O221	O22	0.091600	0.944800	0.515400
O231	O23	0.122100	0.635700	0.623200
O241	O24	0.094900	0.146800	0.582300
O251	O25	0.106000	0.079000	0.464400
O261	O26	0.489500	0.494200	0.867700
O271	O27	0.093300	0.019500	0.643400
O281	O28	0.011500	0.876800	0.309100
O291	O29	0.429400	0.944800	0.853200
O301	O30	0.012500	0.635700	0.513600
O311	O31	0.564500	0.146800	0.051900
O321	O32	0.614600	0.079000	0.973000
O331	O33	0.626500	0.494200	0.004700
O341	O34	0.376100	0.019500	0.926200
O351	O35	0.567700	0.876800	0.865300
O361	O36	0.570600	0.423800	0.515400
O371	O37	0.987500	0.501100	0.623200
O381	O38	0.435500	0.487400	0.582300
O391	O39	0.385400	0.358400	0.464400
O401	O40	0.373500	0.378200	0.867700
O411	O41	0.623900	0.550100	0.643400
O421	O42	0.432300	0.297600	0.309100
O431	O43	0.091600	0.576200	0.146800
O441	O44	0.122100	0.498900	0.486400
O451	O45	0.094900	0.512600	0.948100
O461	O46	0.106000	0.641600	0.027000
O471	O47	0.489500	0.621800	0.995300
O481	O48	0.093300	0.449900	0.073800
O491	O49	0.011500	0.702400	0.134700
O501	O50	0.908400	0.055200	0.484600
O511	O51	0.877900	0.364300	0.376800
O521	O52	0.905100	0.853200	0.417700
O531	O53	0.894000	0.921000	0.535600
O541	O54	0.510500	0.505800	0.132300
O551	O55	0.906700	0.980500	0.356600
O561	O56	0.988500	0.123200	0.690900
O571	O57	0.173200	0.500000	0.673200
O581	O58	0.826800	0.500000	0.326800
