data_LECGAD_freeONLY_PM
_symmetry_space_group_name_H-M	'P1'
_cell_length_a	7.829200
_cell_length_b	9.362100
_cell_length_c	15.146700
_cell_angle_alpha	94.703000
_cell_angle_beta	102.889000
_cell_angle_gamma	101.231000
_symmetry_Int_Tables_number 1

loop_
_symmetry_equiv_pos_as_xyz
'x,y,z'

loop_
_atom_site_label
_atom_site_type_symbol
_atom_site_fract_x
_atom_site_fract_y
_atom_site_fract_z
C11	C1	0.674700	0.570900	0.895700
C21	C2	0.521300	0.539100	0.811300
C31	C3	0.425400	0.648000	0.788400
H11	H1	0.460600	0.741900	0.824100
C41	C4	0.279000	0.618200	0.713500
C51	C5	0.221700	0.481100	0.660900
H21	H2	0.117100	0.461100	0.611900
C61	C6	0.319300	0.373300	0.680800
C71	C7	0.469800	0.402800	0.755600
H31	H3	0.537400	0.329800	0.768600
C81	C8	0.265200	0.226000	0.621800
C91	C9	0.140800	0.771900	0.601800
H41	H4	0.156300	0.720800	0.548400
C101	C10	0.138800	0.837100	0.743100
C111	C11	0.153400	0.836200	0.841500
C121	C12	0.227500	0.963500	0.903900
H51	H5	0.269000	0.054300	0.883600
C131	C13	0.239600	0.955000	0.996500
H61	H6	0.287900	0.039900	0.040500
C141	C14	0.178600	0.818100	0.023000
H71	H7	0.190200	0.811100	0.086200
C151	C15	0.092200	0.705900	0.873900
H81	H8	0.039500	0.619900	0.831200
N11	N1	0.185400	0.734700	0.687100
N21	N2	0.073200	0.888900	0.604200
N31	N3	0.071600	0.932300	0.693600
N41	N4	0.104500	0.696500	0.962800
O11	O1	0.693000	0.683300	0.950300
O21	O2	0.777000	0.478100	0.902940
O31	O3	0.380400	0.150000	0.619600
O41	O4	0.100300	0.189700	0.576840
C161	C16	0.325300	0.429100	0.104300
C171	C17	0.478700	0.460900	0.188700
C181	C18	0.574600	0.352000	0.211600
H91	H9	0.539400	0.258100	0.175900
C191	C19	0.721000	0.381800	0.286500
C201	C20	0.778300	0.518900	0.339100
H101	H10	0.882900	0.538900	0.388100
C211	C21	0.680700	0.626700	0.319200
C221	C22	0.530200	0.597200	0.244400
H111	H11	0.462600	0.670200	0.231400
C231	C23	0.734800	0.774000	0.378200
C241	C24	0.859200	0.228100	0.398200
H121	H12	0.843700	0.279200	0.451600
C251	C25	0.861200	0.162900	0.256900
C261	C26	0.846600	0.163800	0.158500
C271	C27	0.772500	0.036500	0.096100
H131	H13	0.731000	0.945700	0.116400
C281	C28	0.760400	0.045000	0.003500
H141	H14	0.712100	0.960100	0.959500
C291	C29	0.821400	0.181900	0.977000
H151	H15	0.809800	0.188900	0.913800
C301	C30	0.907800	0.294100	0.126100
H161	H16	0.960500	0.380100	0.168800
N51	N5	0.814600	0.265300	0.312900
N61	N6	0.926800	0.111100	0.395800
N71	N7	0.928400	0.067700	0.306400
N81	N8	0.895500	0.303500	0.037200
O51	O5	0.307000	0.316700	0.049700
O61	O6	0.223000	0.521900	0.097060
O71	O7	0.619600	0.850000	0.380400
O81	O8	0.899700	0.810300	0.423160
Cu11	Cu1	0.000000	0.500000	0.000000
Cu21	Cu2	0.000000	0.000000	0.500000
