data_LEDLAJ_freeONLY_PM
_symmetry_space_group_name_H-M	'P1'
_cell_length_a	17.200000
_cell_length_b	21.145900
_cell_length_c	21.145900
_cell_angle_alpha	80.479300
_cell_angle_beta	66.002400
_cell_angle_gamma	66.002400
_symmetry_Int_Tables_number 1

loop_
_symmetry_equiv_pos_as_xyz
'x,y,z'

loop_
_atom_site_label
_atom_site_type_symbol
_atom_site_fract_x
_atom_site_fract_y
_atom_site_fract_z
Zn11	Zn1	0.397490	0.964310	0.245990
Zn21	Zn2	0.107790	0.535690	0.254010
Zn31	Zn3	0.643480	0.754010	0.464310
Zn41	Zn4	0.361800	0.745990	0.035690
H11	H1	0.643600	0.000100	0.288500
H21	H2	0.774300	0.028500	0.240500
H31	H3	0.774100	0.031900	0.057300
H41	H4	0.642600	0.004200	0.101400
H51	H5	0.916100	0.920000	0.105600
H61	H6	0.066800	0.846000	0.075800
H71	H7	0.139000	0.001200	0.070000
H81	H8	0.991600	0.077000	0.096000
H91	H9	0.473600	0.844300	0.332900
H101	H10	0.558500	0.730300	0.322700
H111	H11	0.560000	0.740300	0.131900
H121	H12	0.478400	0.853900	0.146700
H131	H13	0.691600	0.634100	0.276300
H141	H14	0.776800	0.518200	0.257000
H151	H15	0.662400	0.510500	0.140300
H161	H16	0.570400	0.629700	0.155700
H171	H17	0.313000	0.078500	0.342500
H181	H18	0.248300	0.194600	0.349400
H191	H19	0.302900	0.196600	0.148600
H201	H20	0.360300	0.081400	0.151600
H211	H21	0.432200	0.499900	0.211500
H221	H22	0.543300	0.471500	0.259500
H231	H23	0.363300	0.468100	0.442700
H241	H24	0.248200	0.495800	0.398600
H251	H25	0.441700	0.580000	0.394400
H261	H26	0.488600	0.654000	0.424200
H271	H27	0.710200	0.498800	0.430000
H281	H28	0.664600	0.423000	0.404000
H291	H29	0.150800	0.655700	0.167100
H301	H30	0.111500	0.769700	0.177300
H311	H31	0.932200	0.759700	0.368100
H321	H32	0.979000	0.646100	0.353300
H331	H33	0.102000	0.865900	0.223700
H341	H34	0.052000	0.981800	0.243000
H351	H35	0.813200	0.989500	0.359700
H361	H36	0.855800	0.870300	0.344300
H371	H37	0.234000	0.421500	0.157500
H381	H38	0.292300	0.305400	0.150600
H391	H39	0.148100	0.303400	0.351400
H401	H40	0.093300	0.418600	0.348400
H411	H41	0.932100	0.711500	0.500100
H421	H42	0.014800	0.759500	0.528500
H431	H43	0.831400	0.942700	0.531900
H441	H44	0.744000	0.898600	0.504200
H451	H45	0.021700	0.894400	0.420000
H461	H46	0.142600	0.924200	0.346000
H471	H47	0.209000	0.930000	0.501200
H481	H48	0.087600	0.904000	0.577000
H491	H49	0.806500	0.667100	0.344300
H501	H50	0.881200	0.677300	0.230300
H511	H51	0.691900	0.868100	0.240300
H521	H52	0.625100	0.853300	0.353900
H531	H53	0.967900	0.723700	0.134100
H541	H54	0.033800	0.743000	0.018200
H551	H55	0.802700	0.859700	0.010500
H561	H56	0.726100	0.844300	0.129700
H571	H57	0.655500	0.657500	0.578500
H581	H58	0.597700	0.650600	0.694600
H591	H59	0.451500	0.851400	0.696600
H601	H60	0.511900	0.848400	0.581400
H611	H61	0.643700	0.788500	0.999900
H621	H62	0.802800	0.740500	0.971500
H631	H63	0.806000	0.557300	0.968100
H641	H64	0.646800	0.601400	0.995800
H651	H65	0.836100	0.605600	0.080000
H661	H66	0.912800	0.575800	0.154000
H671	H67	0.140200	0.570000	0.998800
H681	H68	0.068600	0.596000	0.923000
H691	H69	0.317900	0.832900	0.155700
H701	H70	0.288800	0.822700	0.269700
H711	H71	0.300300	0.631900	0.259700
H721	H72	0.332300	0.646700	0.146100
H731	H73	0.325700	0.776300	0.365900
H741	H74	0.295000	0.757000	0.481800
H751	H75	0.172900	0.640300	0.489500
H761	H76	0.200100	0.655700	0.370300
H771	H77	0.391500	0.842500	0.921500
H781	H78	0.442900	0.849400	0.805400
H791	H79	0.499500	0.648600	0.803400
H801	H80	0.441700	0.651600	0.918600
C11	C1	0.543600	0.983700	0.228500
C21	C2	0.628300	0.003000	0.199000
C31	C3	0.668300	0.007600	0.241200
C41	C4	0.747400	0.024000	0.212000
C51	C5	0.781900	0.032600	0.147400
C61	C6	0.746500	0.025900	0.104700
C71	C7	0.667200	0.009800	0.131000
C81	C8	0.944200	0.004200	0.102200
C91	C9	0.962200	0.936200	0.097400
C101	C10	0.051600	0.893000	0.080200
C111	C11	0.119000	0.915000	0.069200
C121	C12	0.093800	0.984600	0.076400
C131	C13	0.007100	0.029800	0.092200
C141	C14	0.214300	0.867900	0.052900
C151	C15	0.492700	0.822900	0.291300
C161	C16	0.542900	0.754100	0.285900
C171	C17	0.570800	0.719400	0.226400
C181	C18	0.543800	0.760600	0.173400
C191	C19	0.494800	0.828800	0.182800
C201	C20	0.622800	0.645800	0.217000
C211	C21	0.683600	0.610800	0.247200
C221	C22	0.734800	0.540300	0.235700
C231	C23	0.669100	0.535700	0.168500
C241	C24	0.612600	0.608900	0.177100
C251	C25	0.308600	0.103000	0.302600
C261	C26	0.271900	0.173100	0.307100
C271	C27	0.269900	0.211800	0.248600
C281	C28	0.303200	0.174100	0.190300
C291	C29	0.336200	0.105200	0.192800
C301	C30	0.255800	0.516300	0.271500
C311	C31	0.330300	0.497000	0.301000
C321	C32	0.417100	0.492400	0.258800
C331	C33	0.483400	0.476000	0.288000
C341	C34	0.461900	0.467400	0.352600
C351	C35	0.377100	0.474100	0.395300
C361	C36	0.308000	0.490200	0.369000
C371	C37	0.550600	0.495800	0.397800
C381	C38	0.495800	0.563800	0.402600
C391	C39	0.524800	0.607000	0.419800
C401	C40	0.603200	0.585000	0.430800
C411	C41	0.654800	0.515400	0.423600
C421	C42	0.629100	0.470200	0.407800
C431	C43	0.635100	0.632100	0.447100
C441	C44	0.106900	0.677100	0.208700
C451	C45	0.082900	0.745900	0.214100
C461	C46	0.016600	0.780600	0.273600
C471	C47	0.977800	0.739400	0.326600
C481	C48	0.006400	0.671200	0.317200
C491	C49	0.985600	0.854200	0.283000
C501	C50	0.041600	0.889200	0.252800
C511	C51	0.010800	0.959700	0.264300
C521	C52	0.873300	0.964300	0.331500
C531	C53	0.898600	0.891100	0.322900
C541	C54	0.214200	0.397000	0.197400
C551	C55	0.252100	0.326900	0.192900
C561	C56	0.230300	0.288200	0.251400
C571	C57	0.167600	0.325900	0.309700
C581	C58	0.134200	0.394800	0.307200
C591	C59	0.772100	0.771500	0.483700
C601	C60	0.827300	0.801000	0.503000
C611	C61	0.909500	0.758800	0.507600
C621	C62	0.959400	0.788000	0.524000
C631	C63	0.929300	0.852600	0.532600
C641	C64	0.851200	0.895300	0.525900
C651	C65	0.798200	0.869000	0.509800
C661	C66	0.046400	0.897800	0.504200
C671	C67	0.059600	0.902600	0.436200
C681	C68	0.131800	0.919800	0.393000
C691	C69	0.188200	0.930800	0.415000
C701	C70	0.170200	0.923600	0.484600
C711	C71	0.099300	0.907800	0.529800
C721	C72	0.267200	0.947100	0.367900
C731	C73	0.784000	0.708700	0.322900
C741	C74	0.828800	0.714100	0.254100
C751	C75	0.797200	0.773600	0.219400
C761	C76	0.717200	0.826600	0.260600
C771	C77	0.677600	0.817200	0.328800
C781	C78	0.839800	0.783000	0.145800
C791	C79	0.930800	0.752800	0.110800
C801	C80	0.970500	0.764300	0.040300
C811	C81	0.837600	0.831500	0.035700
C821	C82	0.789700	0.822900	0.108900
C831	C83	0.611200	0.697400	0.603000
C841	C84	0.579000	0.692900	0.673100
C851	C85	0.518500	0.751400	0.711800
C861	C86	0.493500	0.809700	0.674100
C871	C87	0.529000	0.807200	0.605200
C881	C88	0.527300	0.728500	0.016300
C891	C89	0.631300	0.699000	0.997000
C901	C90	0.675900	0.741200	0.992400
C911	C91	0.771400	0.712000	0.976000
C921	C92	0.814500	0.647400	0.967400
C931	C93	0.772400	0.604700	0.974100
C941	C94	0.677000	0.631000	0.990200
C951	C95	0.948400	0.602200	0.995800
C961	C96	0.898400	0.597400	0.063800
C971	C97	0.944600	0.580200	0.107000
C981	C98	0.034000	0.569200	0.085000
C991	C99	0.078400	0.576400	0.015400
C1001	C100	0.036900	0.592200	0.970200
C1011	C101	0.082200	0.552900	0.132100
C1021	C102	0.315600	0.791300	0.177100
C1031	C103	0.297000	0.785900	0.245900
C1041	C104	0.290200	0.726400	0.280600
C1051	C105	0.304400	0.673400	0.239400
C1061	C106	0.323600	0.682800	0.171200
C1071	C107	0.268600	0.717000	0.354200
C1081	C108	0.294400	0.747200	0.389200
C1091	C109	0.275100	0.735700	0.459700
C1101	C110	0.204800	0.668500	0.464300
C1111	C111	0.221500	0.677100	0.391100
C1121	C112	0.411600	0.802600	0.897000
C1131	C113	0.445000	0.807100	0.826900
C1141	C114	0.481700	0.748600	0.788200
C1151	C115	0.477300	0.690300	0.825900
C1161	C116	0.441400	0.692800	0.894800
N11	N1	0.468100	0.863100	0.239900
N21	N2	0.726500	0.504000	0.196600
N31	N3	0.337300	0.068400	0.249200
N41	N4	0.071100	0.636900	0.260100
N51	N5	0.927100	0.996000	0.303400
N61	N6	0.154900	0.431600	0.250800
N71	N7	0.708000	0.760100	0.363100
N81	N8	0.923100	0.803400	0.004000
N91	N9	0.586500	0.750800	0.568400
N101	N10	0.331200	0.739900	0.136900
N111	N11	0.230500	0.696600	0.496000
N121	N12	0.405700	0.749200	0.931600
O11	O1	0.513300	0.975900	0.189900
O21	O2	0.510200	0.978600	0.291200
O31	O3	0.854600	0.053700	0.120500
O41	O4	0.234300	0.804700	0.048100
O51	O5	0.276500	0.889500	0.045100
O61	O6	0.179100	0.524100	0.310100
O71	O7	0.280000	0.521400	0.208800
O81	O8	0.528800	0.446300	0.379500
O91	O9	0.587100	0.695300	0.451900
O101	O10	0.711100	0.610500	0.454900
O111	O11	0.703200	0.810100	0.475900
O121	O12	0.801400	0.708800	0.478600
O131	O13	0.975100	0.879500	0.553700
O141	O14	0.282400	0.951900	0.304700
O151	O15	0.321600	0.954900	0.389500
O161	O16	0.489200	0.689900	0.024100
O171	O17	0.488800	0.791200	0.021400
O181	O18	0.908300	0.620500	0.946300
O191	O19	0.039000	0.548100	0.195300
O201	O20	0.166000	0.545100	0.110500
Zn51	Zn5	0.602510	0.035690	0.754010
Zn61	Zn6	0.892210	0.464310	0.745990
Zn71	Zn7	0.356520	0.245990	0.535690
Zn81	Zn8	0.638200	0.254010	0.964310
H811	H81	0.356400	0.999900	0.711500
H821	H82	0.225700	0.971500	0.759500
H831	H83	0.225900	0.968100	0.942700
H841	H84	0.357400	0.995800	0.898600
H851	H85	0.083900	0.080000	0.894400
H861	H86	0.933200	0.154000	0.924200
H871	H87	0.861000	0.998800	0.930000
H881	H88	0.008400	0.923000	0.904000
H891	H89	0.526400	0.155700	0.667100
H901	H90	0.441500	0.269700	0.677300
H911	H91	0.440000	0.259700	0.868100
H921	H92	0.521600	0.146100	0.853300
H931	H93	0.308400	0.365900	0.723700
H941	H94	0.223200	0.481800	0.743000
H951	H95	0.337600	0.489500	0.859700
H961	H96	0.429600	0.370300	0.844300
H971	H97	0.687000	0.921500	0.657500
H981	H98	0.751700	0.805400	0.650600
H991	H99	0.697100	0.803400	0.851400
H1001	H100	0.639700	0.918600	0.848400
H1011	H101	0.567800	0.500100	0.788500
H1021	H102	0.456700	0.528500	0.740500
H1031	H103	0.636700	0.531900	0.557300
H1041	H104	0.751800	0.504200	0.601400
H1051	H105	0.558300	0.420000	0.605600
H1061	H106	0.511400	0.346000	0.575800
H1071	H107	0.289800	0.501200	0.570000
H1081	H108	0.335400	0.577000	0.596000
H1091	H109	0.849200	0.344300	0.832900
H1101	H110	0.888500	0.230300	0.822700
H1111	H111	0.067800	0.240300	0.631900
H1121	H112	0.021000	0.353900	0.646700
H1131	H113	0.898000	0.134100	0.776300
H1141	H114	0.948000	0.018200	0.757000
H1151	H115	0.186800	0.010500	0.640300
H1161	H116	0.144200	0.129700	0.655700
H1171	H117	0.766000	0.578500	0.842500
H1181	H118	0.707700	0.694600	0.849400
H1191	H119	0.851900	0.696600	0.648600
H1201	H120	0.906700	0.581400	0.651600
H1211	H121	0.067900	0.288500	0.499900
H1221	H122	0.985200	0.240500	0.471500
H1231	H123	0.168600	0.057300	0.468100
H1241	H124	0.256000	0.101400	0.495800
H1251	H125	0.978300	0.105600	0.580000
H1261	H126	0.857400	0.075800	0.654000
H1271	H127	0.791000	0.070000	0.498800
H1281	H128	0.912400	0.096000	0.423000
H1291	H129	0.193500	0.332900	0.655700
H1301	H130	0.118800	0.322700	0.769700
H1311	H131	0.308100	0.131900	0.759700
H1321	H132	0.374900	0.146700	0.646100
H1331	H133	0.032100	0.276300	0.865900
H1341	H134	0.966200	0.257000	0.981800
H1351	H135	0.197300	0.140300	0.989500
H1361	H136	0.273900	0.155700	0.870300
H1371	H137	0.344500	0.342500	0.421500
H1381	H138	0.402300	0.349400	0.305400
H1391	H139	0.548500	0.148600	0.303400
H1401	H140	0.488100	0.151600	0.418600
H1411	H141	0.356300	0.211500	0.000100
H1421	H142	0.197200	0.259500	0.028500
H1431	H143	0.194000	0.442700	0.031900
H1441	H144	0.353200	0.398600	0.004200
H1451	H145	0.163900	0.394400	0.920000
H1461	H146	0.087200	0.424200	0.846000
H1471	H147	0.859800	0.430000	0.001200
H1481	H148	0.931400	0.404000	0.077000
H1491	H149	0.682100	0.167100	0.844300
H1501	H150	0.711200	0.177300	0.730300
H1511	H151	0.699700	0.368100	0.740300
H1521	H152	0.667700	0.353300	0.853900
H1531	H153	0.674300	0.223700	0.634100
H1541	H154	0.705000	0.243000	0.518200
H1551	H155	0.827100	0.359700	0.510500
H1561	H156	0.799900	0.344300	0.629700
H1571	H157	0.608500	0.157500	0.078500
H1581	H158	0.557100	0.150600	0.194600
H1591	H159	0.500500	0.351400	0.196600
H1601	H160	0.558300	0.348400	0.081400
C1171	C117	0.456400	0.016300	0.771500
C1181	C118	0.371700	0.997000	0.801000
C1191	C119	0.331700	0.992400	0.758800
C1201	C120	0.252600	0.976000	0.788000
C1211	C121	0.218100	0.967400	0.852600
C1221	C122	0.253500	0.974100	0.895300
C1231	C123	0.332800	0.990200	0.869000
C1241	C124	0.055800	0.995800	0.897800
C1251	C125	0.037800	0.063800	0.902600
C1261	C126	0.948400	0.107000	0.919800
C1271	C127	0.881000	0.085000	0.930800
C1281	C128	0.906200	0.015400	0.923600
C1291	C129	0.992900	0.970200	0.907800
C1301	C130	0.785700	0.132100	0.947100
C1311	C131	0.507300	0.177100	0.708700
C1321	C132	0.457100	0.245900	0.714100
C1331	C133	0.429200	0.280600	0.773600
C1341	C134	0.456200	0.239400	0.826600
C1351	C135	0.505200	0.171200	0.817200
C1361	C136	0.377200	0.354200	0.783000
C1371	C137	0.316400	0.389200	0.752800
C1381	C138	0.265200	0.459700	0.764300
C1391	C139	0.330900	0.464300	0.831500
C1401	C140	0.387400	0.391100	0.822900
C1411	C141	0.691400	0.897000	0.697400
C1421	C142	0.728100	0.826900	0.692900
C1431	C143	0.730100	0.788200	0.751400
C1441	C144	0.696800	0.825900	0.809700
C1451	C145	0.663800	0.894800	0.807200
C1461	C146	0.744200	0.483700	0.728500
C1471	C147	0.669700	0.503000	0.699000
C1481	C148	0.582900	0.507600	0.741200
C1491	C149	0.516600	0.524000	0.712000
C1501	C150	0.538100	0.532600	0.647400
C1511	C151	0.622900	0.525900	0.604700
C1521	C152	0.692000	0.509800	0.631000
C1531	C153	0.449400	0.504200	0.602200
C1541	C154	0.504200	0.436200	0.597400
C1551	C155	0.475200	0.393000	0.580200
C1561	C156	0.396800	0.415000	0.569200
C1571	C157	0.345200	0.484600	0.576400
C1581	C158	0.370900	0.529800	0.592200
C1591	C159	0.364900	0.367900	0.552900
C1601	C160	0.893100	0.322900	0.791300
C1611	C161	0.917100	0.254100	0.785900
C1621	C162	0.983400	0.219400	0.726400
C1631	C163	0.022200	0.260600	0.673400
C1641	C164	0.993600	0.328800	0.682800
C1651	C165	0.014400	0.145800	0.717000
C1661	C166	0.958400	0.110800	0.747200
C1671	C167	0.989200	0.040300	0.735700
C1681	C168	0.126700	0.035700	0.668500
C1691	C169	0.101400	0.108900	0.677100
C1701	C170	0.785800	0.603000	0.802600
C1711	C171	0.747900	0.673100	0.807100
C1721	C172	0.769700	0.711800	0.748600
C1731	C173	0.832400	0.674100	0.690300
C1741	C174	0.865800	0.605200	0.692800
C1751	C175	0.227900	0.228500	0.516300
C1761	C176	0.172700	0.199000	0.497000
C1771	C177	0.090500	0.241200	0.492400
C1781	C178	0.040600	0.212000	0.476000
C1791	C179	0.070700	0.147400	0.467400
C1801	C180	0.148800	0.104700	0.474100
C1811	C181	0.201800	0.131000	0.490200
C1821	C182	0.953600	0.102200	0.495800
C1831	C183	0.940400	0.097400	0.563800
C1841	C184	0.868200	0.080200	0.607000
C1851	C185	0.811800	0.069200	0.585000
C1861	C186	0.829800	0.076400	0.515400
C1871	C187	0.900700	0.092200	0.470200
C1881	C188	0.732800	0.052900	0.632100
C1891	C189	0.216000	0.291300	0.677100
C1901	C190	0.171200	0.285900	0.745900
C1911	C191	0.202800	0.226400	0.780600
C1921	C192	0.282800	0.173400	0.739400
C1931	C193	0.322400	0.182800	0.671200
C1941	C194	0.160200	0.217000	0.854200
C1951	C195	0.069200	0.247200	0.889200
C1961	C196	0.029500	0.235700	0.959700
C1971	C197	0.162400	0.168500	0.964300
C1981	C198	0.210300	0.177100	0.891100
C1991	C199	0.388800	0.302600	0.397000
C2001	C200	0.421000	0.307100	0.326900
C2011	C201	0.481500	0.248600	0.288200
C2021	C202	0.506500	0.190300	0.325900
C2031	C203	0.471000	0.192800	0.394800
C2041	C204	0.472700	0.271500	0.983700
C2051	C205	0.368700	0.301000	0.003000
C2061	C206	0.324100	0.258800	0.007600
C2071	C207	0.228600	0.288000	0.024000
C2081	C208	0.185500	0.352600	0.032600
C2091	C209	0.227600	0.395300	0.025900
C2101	C210	0.323000	0.369000	0.009800
C2111	C211	0.051600	0.397800	0.004200
C2121	C212	0.101600	0.402600	0.936200
C2131	C213	0.055400	0.419800	0.893000
C2141	C214	0.966000	0.430800	0.915000
C2151	C215	0.921600	0.423600	0.984600
C2161	C216	0.963100	0.407800	0.029800
C2171	C217	0.917800	0.447100	0.867900
C2181	C218	0.684400	0.208700	0.822900
C2191	C219	0.703000	0.214100	0.754100
C2201	C220	0.709800	0.273600	0.719400
C2211	C221	0.695600	0.326600	0.760600
C2221	C222	0.676400	0.317200	0.828800
C2231	C223	0.731400	0.283000	0.645800
C2241	C224	0.705600	0.252800	0.610800
C2251	C225	0.724900	0.264300	0.540300
C2261	C226	0.795200	0.331500	0.535700
C2271	C227	0.778500	0.322900	0.608900
C2281	C228	0.588400	0.197400	0.103000
C2291	C229	0.555000	0.192900	0.173100
C2301	C230	0.518300	0.251400	0.211800
C2311	C231	0.522700	0.309700	0.174100
C2321	C232	0.558600	0.307200	0.105200
N131	N13	0.531900	0.136900	0.760100
N141	N14	0.273500	0.496000	0.803400
N151	N15	0.662700	0.931600	0.750800
N161	N16	0.928900	0.363100	0.739900
N171	N17	0.072900	0.004000	0.696600
N181	N18	0.845100	0.568400	0.749200
N191	N19	0.292000	0.239900	0.636900
N201	N20	0.076900	0.196600	0.996000
N211	N21	0.413500	0.249200	0.431600
N221	N22	0.668800	0.260100	0.863100
N231	N23	0.769500	0.303400	0.504000
N241	N24	0.594300	0.250800	0.068400
O211	O21	0.486700	0.024100	0.810100
O221	O22	0.489800	0.021400	0.708800
O231	O23	0.145400	0.946300	0.879500
O241	O24	0.765700	0.195300	0.951900
O251	O25	0.723500	0.110500	0.954900
O261	O26	0.820900	0.475900	0.689900
O271	O27	0.720000	0.478600	0.791200
O281	O28	0.471200	0.553700	0.620500
O291	O29	0.412900	0.304700	0.548100
O301	O30	0.288900	0.389500	0.545100
O311	O31	0.296800	0.189900	0.524100
O321	O32	0.198600	0.291200	0.521400
O331	O33	0.024900	0.120500	0.446300
O341	O34	0.717600	0.048100	0.695300
O351	O35	0.678400	0.045100	0.610500
O361	O36	0.510800	0.310100	0.975900
O371	O37	0.511200	0.208800	0.978600
O381	O38	0.091700	0.379500	0.053700
O391	O39	0.961000	0.451900	0.804700
O401	O40	0.834000	0.454900	0.889500
