data_LEDNEP_charged_PM
_symmetry_space_group_name_H-M	'P1'
_cell_length_a	9.764100
_cell_length_b	14.048800
_cell_length_c	14.048800
_cell_angle_alpha	94.953100
_cell_angle_beta	104.196000
_cell_angle_gamma	104.196000
_symmetry_Int_Tables_number 1

loop_
_symmetry_equiv_pos_as_xyz
'x,y,z'

loop_
_atom_site_label
_atom_site_type_symbol
_atom_site_fract_x
_atom_site_fract_y
_atom_site_fract_z
Yb11	Yb1	0.843630	0.369070	0.197120
Yb21	Yb2	0.656370	0.802880	0.630930
Yb31	Yb3	0.156370	0.630930	0.802880
Yb41	Yb4	0.343630	0.197120	0.369070
Yb51	Yb5	0.750000	0.218730	0.781270
Yb61	Yb6	0.250000	0.781270	0.218730
H11	H1	0.366400	0.261000	0.854800
H21	H2	0.190000	0.405700	0.025300
H31	H3	0.163900	0.310100	0.880500
H41	H4	0.873000	0.168000	0.936000
H51	H5	0.897000	0.261000	0.983000
H61	H6	0.133600	0.145200	0.739000
H71	H7	0.310000	0.974700	0.594300
H81	H8	0.336100	0.119500	0.689900
H91	H9	0.627000	0.064000	0.832000
H101	H10	0.603000	0.017000	0.739000
H111	H11	0.633600	0.739000	0.145200
H121	H12	0.810000	0.594300	0.974700
H131	H13	0.836100	0.689900	0.119500
H141	H14	0.127000	0.832000	0.064000
H151	H15	0.103000	0.739000	0.017000
H161	H16	0.866400	0.854800	0.261000
H171	H17	0.690000	0.025300	0.405700
H181	H18	0.663900	0.880500	0.310100
H191	H19	0.373000	0.936000	0.168000
H201	H20	0.397000	0.983000	0.261000
C11	C1	0.521600	0.385600	0.077000
C21	C2	0.137800	0.334600	0.320400
C31	C3	0.629900	0.287800	0.968000
C41	C4	0.085800	0.254300	0.228700
C51	C5	0.916300	0.449700	0.831300
C61	C6	0.505200	0.323800	0.986600
C71	C7	0.375200	0.298900	0.914900
C81	C8	0.269400	0.385300	0.014500
C91	C9	0.253300	0.329000	0.929400
C101	C10	0.986000	0.405500	0.756700
C111	C11	0.978400	0.923000	0.614400
C121	C12	0.362200	0.679600	0.665400
C131	C13	0.870100	0.032000	0.712200
C141	C14	0.414200	0.771300	0.745700
C151	C15	0.583700	0.168700	0.550300
C161	C16	0.994800	0.013400	0.676200
C171	C17	0.124800	0.085100	0.701100
C181	C18	0.230600	0.985500	0.614700
C191	C19	0.246700	0.070600	0.671000
C201	C20	0.514000	0.243300	0.594500
C211	C21	0.478400	0.614400	0.923000
C221	C22	0.862200	0.665400	0.679600
C231	C23	0.370100	0.712200	0.032000
C241	C24	0.914200	0.745700	0.771300
C251	C25	0.083700	0.550300	0.168700
C261	C26	0.494800	0.676200	0.013400
C271	C27	0.624800	0.701100	0.085100
C281	C28	0.730600	0.614700	0.985500
C291	C29	0.746700	0.671000	0.070600
C301	C30	0.014000	0.594500	0.243300
C311	C31	0.021600	0.077000	0.385600
C321	C32	0.637800	0.320400	0.334600
C331	C33	0.129900	0.968000	0.287800
C341	C34	0.585800	0.228700	0.254300
C351	C35	0.416300	0.831300	0.449700
C361	C36	0.005200	0.986600	0.323800
C371	C37	0.875200	0.914900	0.298900
C381	C38	0.769400	0.014500	0.385300
C391	C39	0.753300	0.929400	0.329000
C401	C40	0.486000	0.756700	0.405500
N11	N1	0.399600	0.413300	0.085900
N21	N2	0.100400	0.914100	0.586700
N31	N3	0.600400	0.586700	0.914100
N41	N4	0.899600	0.085900	0.413300
O11	O1	0.635500	0.417800	0.149200
O21	O2	0.053900	0.386400	0.329200
O31	O3	0.751700	0.310000	0.034800
O41	O4	0.812900	0.390500	0.849100
O51	O5	0.607800	0.237000	0.885000
O61	O6	0.912100	0.229000	0.933800
O71	O7	0.964000	0.249500	0.169100
O81	O8	0.973900	0.539600	0.866400
O91	O9	0.259800	0.340300	0.379300
O101	O10	0.167200	0.199500	0.220500
O111	O11	0.931900	0.314800	0.722000
O121	O12	0.089100	0.463600	0.734400
O131	O13	0.864500	0.850800	0.582200
O141	O14	0.446100	0.670800	0.613600
O151	O15	0.748300	0.965200	0.690000
O161	O16	0.687100	0.150900	0.609500
O171	O17	0.892200	0.115000	0.763000
O181	O18	0.587900	0.066200	0.771000
O191	O19	0.536000	0.830900	0.750500
O201	O20	0.526100	0.133600	0.460400
O211	O21	0.240200	0.620700	0.659700
O221	O22	0.332800	0.779500	0.800500
O231	O23	0.568100	0.278000	0.685200
O241	O24	0.410900	0.265600	0.536400
O251	O25	0.364500	0.582200	0.850800
O261	O26	0.946100	0.613600	0.670800
O271	O27	0.248300	0.690000	0.965200
O281	O28	0.187100	0.609500	0.150900
O291	O29	0.392200	0.763000	0.115000
O301	O30	0.087900	0.771000	0.066200
O311	O31	0.036000	0.750500	0.830900
O321	O32	0.026100	0.460400	0.133600
O331	O33	0.740200	0.659700	0.620700
O341	O34	0.832800	0.800500	0.779500
O351	O35	0.068100	0.685200	0.278000
O361	O36	0.910900	0.536400	0.265600
O371	O37	0.135500	0.149200	0.417800
O381	O38	0.553900	0.329200	0.386400
O391	O39	0.251700	0.034800	0.310000
O401	O40	0.312900	0.849100	0.390500
O411	O41	0.107800	0.885000	0.237000
O421	O42	0.412100	0.933800	0.229000
O431	O43	0.464000	0.169100	0.249500
O441	O44	0.473900	0.866400	0.539600
O451	O45	0.759800	0.379300	0.340300
O461	O46	0.667200	0.220500	0.199500
O471	O47	0.431900	0.722000	0.314800
O481	O48	0.589100	0.734400	0.463600
