data_LEDNIT_charged_PM
_symmetry_space_group_name_H-M	'P1'
_cell_length_a	9.710400
_cell_length_b	14.003500
_cell_length_c	14.003500
_cell_angle_alpha	95.638100
_cell_angle_beta	103.484000
_cell_angle_gamma	103.484000
_symmetry_Int_Tables_number 1

loop_
_symmetry_equiv_pos_as_xyz
'x,y,z'

loop_
_atom_site_label
_atom_site_type_symbol
_atom_site_fract_x
_atom_site_fract_y
_atom_site_fract_z
Tm11	Tm1	0.658370	0.798010	0.624770
Tm21	Tm2	0.841630	0.375230	0.201990
Tm31	Tm3	0.341630	0.201990	0.375230
Tm41	Tm4	0.158370	0.624770	0.798010
Tm51	Tm5	0.750000	0.215620	0.784380
Tm61	Tm6	0.250000	0.784380	0.215620
H11	H1	0.316400	0.970500	0.594500
H21	H2	0.337400	0.117600	0.686000
H31	H3	0.137000	0.139300	0.743700
H41	H4	0.183600	0.405500	0.029500
H51	H5	0.162600	0.314000	0.882400
H61	H6	0.363000	0.256300	0.860700
H71	H7	0.683600	0.029500	0.405500
H81	H8	0.662600	0.882400	0.314000
H91	H9	0.863000	0.860700	0.256300
H101	H10	0.816400	0.594500	0.970500
H111	H11	0.837400	0.686000	0.117600
H121	H12	0.637000	0.743700	0.139300
C11	C1	0.983300	0.920600	0.611200
C21	C2	0.235100	0.982100	0.613100
C31	C3	0.249600	0.067700	0.669100
C41	C4	0.128100	0.081000	0.702000
C51	C5	0.997400	0.009600	0.673800
C61	C6	0.871000	0.026600	0.710800
C71	C7	0.511300	0.246100	0.601700
C81	C8	0.578700	0.169700	0.555500
C91	C9	0.411400	0.765800	0.740400
C101	C10	0.361100	0.672600	0.657000
C111	C11	0.516700	0.388800	0.079400
C121	C12	0.264900	0.386900	0.017900
C131	C13	0.250400	0.330900	0.932300
C141	C14	0.371900	0.298000	0.919000
C151	C15	0.502600	0.326200	0.990400
C161	C16	0.629000	0.289200	0.973400
C171	C17	0.988700	0.398300	0.753900
C181	C18	0.921300	0.444500	0.830300
C191	C19	0.088600	0.259600	0.234200
C201	C20	0.138900	0.343000	0.327400
C211	C21	0.016700	0.079400	0.388800
C221	C22	0.764900	0.017900	0.386900
C231	C23	0.750400	0.932300	0.330900
C241	C24	0.871900	0.919000	0.298000
C251	C25	0.002600	0.990400	0.326200
C261	C26	0.129000	0.973400	0.289200
C271	C27	0.488700	0.753900	0.398300
C281	C28	0.421300	0.830300	0.444500
C291	C29	0.588600	0.234200	0.259600
C301	C30	0.638900	0.327400	0.343000
C311	C31	0.483300	0.611200	0.920600
C321	C32	0.735100	0.613100	0.982100
C331	C33	0.749600	0.669100	0.067700
C341	C34	0.628100	0.702000	0.081000
C351	C35	0.497400	0.673800	0.009600
C361	C36	0.371000	0.710800	0.026600
C371	C37	0.011300	0.601700	0.246100
C381	C38	0.078700	0.555500	0.169700
C391	C39	0.911400	0.740400	0.765800
C401	C40	0.861100	0.657000	0.672600
N11	N1	0.107200	0.911400	0.582600
N21	N2	0.392800	0.417400	0.088600
N31	N3	0.892800	0.088600	0.417400
N41	N4	0.607200	0.582600	0.911400
O11	O1	0.749200	0.961300	0.687900
O21	O2	0.588300	0.061100	0.775500
O31	O3	0.892600	0.109900	0.764300
O41	O4	0.871100	0.847400	0.578400
O51	O5	0.521900	0.135800	0.464200
O61	O6	0.407900	0.269400	0.544800
O71	O7	0.564500	0.277400	0.693000
O81	O8	0.684000	0.150000	0.611400
O91	O9	0.442900	0.665600	0.602400
O101	O10	0.533900	0.824700	0.744700
O111	O11	0.241000	0.614100	0.652300
O121	O12	0.330600	0.773800	0.795000
O131	O13	0.750800	0.312100	0.038700
O141	O14	0.911700	0.224500	0.938900
O151	O15	0.607400	0.235700	0.890100
O161	O16	0.628900	0.421600	0.152600
O171	O17	0.978100	0.535800	0.864200
O181	O18	0.092100	0.455200	0.730600
O191	O19	0.935500	0.307000	0.722600
O201	O20	0.816000	0.388600	0.850000
O211	O21	0.057100	0.397600	0.334400
O221	O22	0.966100	0.255300	0.175300
O231	O23	0.259000	0.347700	0.385900
O241	O24	0.169400	0.205000	0.226200
O251	O25	0.250800	0.038700	0.312100
O261	O26	0.411700	0.938900	0.224500
O271	O27	0.107400	0.890100	0.235700
O281	O28	0.128900	0.152600	0.421600
O291	O29	0.478100	0.864200	0.535800
O301	O30	0.592100	0.730600	0.455200
O311	O31	0.435500	0.722600	0.307000
O321	O32	0.316000	0.850000	0.388600
O331	O33	0.557100	0.334400	0.397600
O341	O34	0.466100	0.175300	0.255300
O351	O35	0.759000	0.385900	0.347700
O361	O36	0.669400	0.226200	0.205000
O371	O37	0.249200	0.687900	0.961300
O381	O38	0.088300	0.775500	0.061100
O391	O39	0.392600	0.764300	0.109900
O401	O40	0.371100	0.578400	0.847400
O411	O41	0.021900	0.464200	0.135800
O421	O42	0.907900	0.544800	0.269400
O431	O43	0.064500	0.693000	0.277400
O441	O44	0.184000	0.611400	0.150000
O451	O45	0.942900	0.602400	0.665600
O461	O46	0.033900	0.744700	0.824700
O471	O47	0.741000	0.652300	0.614100
O481	O48	0.830600	0.795000	0.773800
