data_LEDPIU_freeONLY_PM
_symmetry_space_group_name_H-M	'P1'
_cell_length_a	10.185000
_cell_length_b	13.896700
_cell_length_c	22.790000
_cell_angle_alpha	97.134500
_cell_angle_beta	90.000000
_cell_angle_gamma	111.497000
_symmetry_Int_Tables_number 1

loop_
_symmetry_equiv_pos_as_xyz
'x,y,z'

loop_
_atom_site_label
_atom_site_type_symbol
_atom_site_fract_x
_atom_site_fract_y
_atom_site_fract_z
Cu11	Cu1	0.888460	0.591800	0.458790
Cu21	Cu2	0.296660	0.408200	0.041210
Cu31	Cu3	0.111540	0.408200	0.541210
Cu41	Cu4	0.703340	0.591800	0.958790
Cu51	Cu5	0.630420	0.000000	0.250000
Cu61	Cu6	0.369580	0.000000	0.750000
H11	H1	0.243500	0.727000	0.372200
H21	H2	0.445000	0.603600	0.473100
H31	H3	0.654500	0.782400	0.351900
H41	H4	0.584700	0.195600	0.324400
H51	H5	0.718600	0.991400	0.379800
H61	H6	0.612800	0.234400	0.432000
H71	H7	0.739100	0.040400	0.489000
H81	H8	0.754900	0.155800	0.511400
H91	H9	0.568700	0.045200	0.556100
H101	H10	0.512300	0.104800	0.514900
H111	H11	0.983400	0.604800	0.329700
H121	H12	0.640800	0.397800	0.379500
H131	H13	0.629900	0.375000	0.271300
H141	H14	0.955000	0.562800	0.218400
H151	H15	0.850400	0.449400	0.195200
H161	H16	0.665300	0.508400	0.189100
H171	H17	0.787700	0.568800	0.150500
H181	H18	0.728900	0.650200	0.262000
H191	H19	0.860100	0.710400	0.227400
H201	H20	0.686700	0.776200	0.214200
H211	H21	0.576700	0.664400	0.191400
H221	H22	0.576400	0.595600	0.083100
H231	H23	0.897800	0.855200	0.138600
H241	H24	0.915000	0.805200	0.032000
H251	H25	0.516500	0.273000	0.127800
H261	H26	0.841400	0.396400	0.026900
H271	H27	0.872100	0.217600	0.148100
H281	H28	0.389100	0.804400	0.175600
H291	H29	0.727200	0.008600	0.120200
H301	H30	0.378400	0.765600	0.068000
H311	H31	0.698700	0.959600	0.011000
H321	H32	0.599100	0.844200	0.988600
H331	H33	0.523500	0.954800	0.943900
H341	H34	0.407500	0.895200	0.985100
H351	H35	0.378600	0.395200	0.170300
H361	H36	0.243000	0.602200	0.120500
H371	H37	0.254900	0.625000	0.228700
H381	H38	0.392200	0.437200	0.281600
H391	H39	0.401000	0.550600	0.304800
H401	H40	0.156900	0.491600	0.310900
H411	H41	0.218900	0.431200	0.349500
H421	H42	0.078700	0.349800	0.238000
H431	H43	0.149700	0.289600	0.272600
H441	H44	0.910500	0.223800	0.285800
H451	H45	0.912300	0.335600	0.308600
H461	H46	0.980800	0.404400	0.416900
H471	H47	0.042600	0.144800	0.361400
H481	H48	0.109800	0.194800	0.468000
H491	H49	0.756500	0.273000	0.627800
H501	H50	0.555000	0.396400	0.526900
H511	H51	0.345500	0.217600	0.648100
H521	H52	0.415300	0.804400	0.675600
H531	H53	0.281400	0.008600	0.620200
H541	H54	0.387200	0.765600	0.568000
H551	H55	0.260900	0.959600	0.511000
H561	H56	0.245100	0.844200	0.488600
H571	H57	0.431300	0.954800	0.443900
H581	H58	0.487700	0.895200	0.485100
H591	H59	0.016600	0.395200	0.670300
H601	H60	0.359200	0.602200	0.620500
H611	H61	0.370100	0.625000	0.728700
H621	H62	0.045000	0.437200	0.781600
H631	H63	0.149600	0.550600	0.804800
H641	H64	0.334700	0.491600	0.810900
H651	H65	0.212300	0.431200	0.849500
H661	H66	0.271100	0.349800	0.738000
H671	H67	0.139900	0.289600	0.772600
H681	H68	0.313300	0.223800	0.785800
H691	H69	0.423300	0.335600	0.808600
H701	H70	0.423600	0.404400	0.916900
H711	H71	0.102200	0.144800	0.861400
H721	H72	0.085000	0.194800	0.968000
H731	H73	0.483500	0.727000	0.872200
H741	H74	0.158600	0.603600	0.973100
H751	H75	0.127900	0.782400	0.851900
H761	H76	0.610900	0.195600	0.824400
H771	H77	0.272800	0.991400	0.879800
H781	H78	0.621600	0.234400	0.932000
H791	H79	0.301300	0.040400	0.989000
H801	H80	0.400900	0.155800	0.011400
H811	H81	0.476500	0.045200	0.056100
H821	H82	0.592500	0.104800	0.014900
H831	H83	0.621400	0.604800	0.829700
H841	H84	0.757000	0.397800	0.879500
H851	H85	0.745100	0.375000	0.771300
H861	H86	0.607800	0.562800	0.718400
H871	H87	0.599000	0.449400	0.695200
H881	H88	0.843100	0.508400	0.689100
H891	H89	0.781100	0.568800	0.650500
H901	H90	0.921300	0.650200	0.762000
H911	H91	0.850300	0.710400	0.727400
H921	H92	0.089500	0.776200	0.714200
H931	H93	0.087700	0.664400	0.691400
H941	H94	0.019200	0.595600	0.583100
H951	H95	0.957400	0.855200	0.638600
H961	H96	0.890200	0.805200	0.532000
C11	C1	0.326270	0.718740	0.383210
C21	C2	0.326270	0.658340	0.428230
C31	C3	0.446660	0.644920	0.443730
C41	C4	0.572900	0.692000	0.416500
C51	C5	0.572160	0.751920	0.371300
C61	C6	0.449770	0.765940	0.355300
C71	C7	0.191000	0.609000	0.459100
C81	C8	0.707100	0.676800	0.430800
C91	C9	0.454700	0.834600	0.308500
C101	C10	0.614700	0.158600	0.349300
C111	C11	0.688000	0.046800	0.379400
C121	C12	0.630100	0.180800	0.408600
C131	C13	0.694400	0.091000	0.488400
C141	C14	0.553800	0.052200	0.515000
C151	C15	0.896400	0.550200	0.329000
C161	C16	0.709200	0.437200	0.356000
C171	C17	0.702300	0.423800	0.296200
C181	C18	0.858000	0.514600	0.218600
C191	C19	0.761200	0.559000	0.190900
C201	C20	0.763100	0.661200	0.222700
C211	C21	0.675600	0.709000	0.192200
C221	C22	0.659400	0.653800	0.083200
C231	C23	0.835800	0.797000	0.114800
C241	C24	0.844100	0.768400	0.055500
C251	C25	0.607530	0.281260	0.116790
C261	C26	0.667930	0.341660	0.071770
C271	C27	0.801740	0.355080	0.056270
C281	C28	0.880900	0.308000	0.083500
C291	C29	0.820240	0.248080	0.128700
C301	C30	0.683830	0.234060	0.144700
C311	C31	0.582000	0.391000	0.040900
C321	C32	0.030300	0.323200	0.069200
C331	C33	0.620100	0.165400	0.191500
C341	C34	0.456100	0.841400	0.150700
C351	C35	0.641200	0.953200	0.120600
C361	C36	0.449300	0.819200	0.091400
C371	C37	0.603400	0.909000	0.011600
C381	C38	0.501600	0.947800	0.985000
C391	C39	0.346200	0.449800	0.171000
C401	C40	0.272000	0.562800	0.144000
C411	C41	0.278500	0.576200	0.203800
C421	C42	0.343400	0.485400	0.281400
C431	C43	0.202200	0.441000	0.309100
C441	C44	0.101900	0.338800	0.277300
C451	C45	0.966600	0.291000	0.307800
C461	C46	0.005600	0.346200	0.416800
C471	C47	0.038800	0.203000	0.385200
C481	C48	0.075700	0.231600	0.444500
C491	C49	0.673730	0.281260	0.616790
C501	C50	0.673730	0.341660	0.571770
C511	C51	0.553340	0.355080	0.556270
C521	C52	0.427100	0.308000	0.583500
C531	C53	0.427840	0.248080	0.628700
C541	C54	0.550230	0.234060	0.644700
C551	C55	0.809000	0.391000	0.540900
C561	C56	0.292900	0.323200	0.569200
C571	C57	0.545300	0.165400	0.691500
C581	C58	0.385300	0.841400	0.650700
C591	C59	0.312000	0.953200	0.620600
C601	C60	0.369900	0.819200	0.591400
C611	C61	0.305600	0.909000	0.511600
C621	C62	0.446200	0.947800	0.485000
C631	C63	0.103600	0.449800	0.671000
C641	C64	0.290800	0.562800	0.644000
C651	C65	0.297700	0.576200	0.703800
C661	C66	0.142000	0.485400	0.781400
C671	C67	0.238800	0.441000	0.809100
C681	C68	0.236900	0.338800	0.777300
C691	C69	0.324400	0.291000	0.807800
C701	C70	0.340600	0.346200	0.916800
C711	C71	0.164200	0.203000	0.885200
C721	C72	0.155900	0.231600	0.944500
C731	C73	0.392470	0.718740	0.883210
C741	C74	0.332070	0.658340	0.928230
C751	C75	0.198260	0.644920	0.943730
C761	C76	0.119100	0.692000	0.916500
C771	C77	0.179760	0.751920	0.871300
C781	C78	0.316170	0.765940	0.855300
C791	C79	0.418000	0.609000	0.959100
C801	C80	0.969700	0.676800	0.930800
C811	C81	0.379900	0.834600	0.808500
C821	C82	0.543900	0.158600	0.849300
C831	C83	0.358800	0.046800	0.879400
C841	C84	0.550700	0.180800	0.908600
C851	C85	0.396600	0.091000	0.988400
C861	C86	0.498400	0.052200	0.015000
C871	C87	0.653800	0.550200	0.829000
C881	C88	0.728000	0.437200	0.856000
C891	C89	0.721500	0.423800	0.796200
C901	C90	0.656600	0.514600	0.718600
C911	C91	0.797800	0.559000	0.690900
C921	C92	0.898100	0.661200	0.722700
C931	C93	0.033400	0.709000	0.692200
C941	C94	0.994400	0.653800	0.583200
C951	C95	0.961200	0.797000	0.614800
C961	C96	0.924300	0.768400	0.555500
N11	N1	0.648880	0.075360	0.330950
N21	N2	0.676920	0.108440	0.427480
N31	N3	0.831270	0.517140	0.376910
N41	N4	0.822730	0.496260	0.279750
N51	N5	0.718920	0.723040	0.131170
N61	N6	0.733710	0.678820	0.036170
N71	N7	0.573520	0.924640	0.169050
N81	N8	0.568480	0.891560	0.072520
N91	N9	0.314130	0.482860	0.123090
N101	N10	0.326470	0.503740	0.220250
N111	N11	0.995880	0.276960	0.368830
N121	N12	0.054890	0.321180	0.463830
N131	N13	0.351120	0.924640	0.669050
N141	N14	0.323080	0.891560	0.572520
N151	N15	0.168730	0.482860	0.623090
N161	N16	0.177270	0.503740	0.720250
N171	N17	0.281080	0.276960	0.868830
N181	N18	0.266290	0.321180	0.963830
N191	N19	0.426480	0.075360	0.830950
N201	N20	0.431520	0.108440	0.927480
N211	N21	0.685870	0.517140	0.876910
N221	N22	0.673530	0.496260	0.779750
N231	N23	0.004120	0.723040	0.631170
N241	N24	0.945110	0.678820	0.536170
O11	O1	0.082370	0.617140	0.436820
O21	O2	0.195520	0.565240	0.502610
O31	O3	0.696630	0.602660	0.460870
O41	O4	0.818960	0.735120	0.413830
O51	O5	0.569020	0.870640	0.284190
O61	O6	0.350800	0.856400	0.299600
O71	O7	0.465230	0.382860	0.063180
O81	O8	0.630280	0.434760	0.997390
O91	O9	0.093970	0.397340	0.039130
O101	O10	0.083840	0.264880	0.086170
O111	O11	0.698380	0.129360	0.215810
O121	O12	0.494400	0.143600	0.200400
O131	O13	0.917630	0.382860	0.563180
O141	O14	0.804480	0.434760	0.497390
O151	O15	0.303370	0.397340	0.539130
O161	O16	0.181040	0.264880	0.586170
O171	O17	0.430980	0.129360	0.715810
O181	O18	0.649200	0.143600	0.700400
O191	O19	0.534770	0.617140	0.936820
O201	O20	0.369720	0.565240	0.002610
O211	O21	0.906030	0.602660	0.960870
O221	O22	0.916160	0.735120	0.913830
O231	O23	0.301620	0.870640	0.784190
O241	O24	0.505600	0.856400	0.799600
