data_LEGGIO_freeONLY_PM
_symmetry_space_group_name_H-M	'P1'
_cell_length_a	13.475000
_cell_length_b	13.509000
_cell_length_c	26.949000
_cell_angle_alpha	90.000000
_cell_angle_beta	90.000000
_cell_angle_gamma	95.180000
_symmetry_Int_Tables_number 1

loop_
_symmetry_equiv_pos_as_xyz
'x,y,z'

loop_
_atom_site_label
_atom_site_type_symbol
_atom_site_fract_x
_atom_site_fract_y
_atom_site_fract_z
Zn11	Zn1	0.221880	0.862370	0.975980
Zn21	Zn2	0.632890	0.742620	0.945720
Zn31	Zn3	0.257650	0.684310	0.075750
Zn41	Zn4	0.188910	0.293130	0.956080
Zn51	Zn5	0.278120	0.637630	0.475980
Zn61	Zn6	0.867110	0.757380	0.445720
Zn71	Zn7	0.242350	0.815690	0.575750
Zn81	Zn8	0.311090	0.206870	0.456080
Zn91	Zn9	0.778120	0.137630	0.024020
Zn101	Zn10	0.367110	0.257380	0.054280
Zn111	Zn11	0.742350	0.315690	0.924250
Zn121	Zn12	0.811090	0.706870	0.043920
Zn131	Zn13	0.721880	0.362370	0.524020
Zn141	Zn14	0.132890	0.242620	0.554280
Zn151	Zn15	0.757650	0.184310	0.424250
Zn161	Zn16	0.688910	0.793130	0.543920
H11	H1	0.021200	0.619700	0.078400
H21	H2	0.638700	0.523600	0.903400
H31	H3	0.826400	0.475900	0.010100
H41	H4	0.482700	0.651700	0.031400
H51	H5	0.319800	0.020100	0.055000
H61	H6	0.120300	0.059200	0.952500
H71	H7	0.444700	0.863100	0.936200
H81	H8	0.985700	0.802600	0.968400
H91	H9	0.599600	0.646700	0.791600
H101	H10	0.372600	0.885200	0.736600
H111	H11	0.609600	0.635800	0.704600
H121	H12	0.355000	0.896700	0.823200
H131	H13	0.074000	0.892600	0.722100
H141	H14	0.607200	0.945700	0.779500
H151	H15	0.058600	0.906800	0.808500
H161	H16	0.632200	0.933900	0.694200
H171	H17	0.478800	0.880300	0.578400
H181	H18	0.861300	0.976400	0.403400
H191	H19	0.673600	0.024100	0.510100
H201	H20	0.017300	0.848300	0.531400
H211	H21	0.180200	0.479900	0.555000
H221	H22	0.379700	0.440800	0.452500
H231	H23	0.055300	0.636900	0.436200
H241	H24	0.514300	0.697400	0.468400
H251	H25	0.900400	0.853300	0.291600
H261	H26	0.127400	0.614800	0.236600
H271	H27	0.890400	0.864200	0.204600
H281	H28	0.145000	0.603300	0.323200
H291	H29	0.426000	0.607400	0.222100
H301	H30	0.892800	0.554300	0.279500
H311	H31	0.441400	0.593200	0.308500
H321	H32	0.867800	0.566100	0.194200
H331	H33	0.978800	0.380300	0.921600
H341	H34	0.361300	0.476400	0.096600
H351	H35	0.173600	0.524100	0.989900
H361	H36	0.517300	0.348300	0.968600
H371	H37	0.680200	0.979900	0.945000
H381	H38	0.879700	0.940800	0.047500
H391	H39	0.555300	0.136900	0.063800
H401	H40	0.014300	0.197400	0.031600
H411	H41	0.400400	0.353300	0.208400
H421	H42	0.627400	0.114800	0.263400
H431	H43	0.390400	0.364200	0.295400
H441	H44	0.645000	0.103300	0.176800
H451	H45	0.926000	0.107400	0.277900
H461	H46	0.392800	0.054300	0.220500
H471	H47	0.941400	0.093200	0.191500
H481	H48	0.367800	0.066100	0.305800
H491	H49	0.521200	0.119700	0.421600
H501	H50	0.138700	0.023600	0.596600
H511	H51	0.326400	0.975900	0.489900
H521	H52	0.982700	0.151700	0.468600
H531	H53	0.819800	0.520100	0.445000
H541	H54	0.620300	0.559200	0.547500
H551	H55	0.944700	0.363100	0.563800
H561	H56	0.485700	0.302600	0.531600
H571	H57	0.099600	0.146700	0.708400
H581	H58	0.872600	0.385200	0.763400
H591	H59	0.109600	0.135800	0.795400
H601	H60	0.855000	0.396700	0.676800
H611	H61	0.574000	0.392600	0.777900
H621	H62	0.107200	0.445700	0.720500
H631	H63	0.558600	0.406800	0.691500
H641	H64	0.132200	0.433900	0.805800
C11	C1	0.205100	0.898900	0.823500
C21	C2	0.034500	0.666000	0.052200
C31	C3	0.680200	0.532200	0.931900
C41	C4	0.781500	0.506900	0.989270
C51	C5	0.454300	0.703300	0.013960
C61	C6	0.223500	0.883700	0.721000
C71	C7	0.277000	0.050300	0.032730
C81	C8	0.169500	0.071500	0.977500
C91	C9	0.433900	0.816600	0.962600
C101	C10	0.234100	0.866200	0.666400
C111	C11	0.015300	0.764300	0.993100
C121	C12	0.604200	0.798200	0.794450
C131	C13	0.620000	0.783500	0.691600
C141	C14	0.601200	0.805400	0.849600
C151	C15	0.633300	0.772800	0.636300
C161	C16	0.604200	0.705400	0.771900
C171	C17	0.308400	0.887500	0.751000
C181	C18	0.611100	0.699100	0.720100
C191	C19	0.297700	0.894700	0.802500
C201	C20	0.131400	0.892300	0.742500
C211	C21	0.610800	0.882300	0.764700
C221	C22	0.121900	0.900400	0.794000
C231	C23	0.193100	0.895000	0.879800
C241	C24	0.622500	0.875300	0.713800
C251	C25	0.294900	0.601100	0.323500
C261	C26	0.465500	0.834000	0.552200
C271	C27	0.819800	0.967800	0.431900
C281	C28	0.718500	0.993100	0.489270
C291	C29	0.045700	0.796700	0.513960
C301	C30	0.276500	0.616300	0.221000
C311	C31	0.223000	0.449700	0.532730
C321	C32	0.330500	0.428500	0.477500
C331	C33	0.066100	0.683400	0.462600
C341	C34	0.265900	0.633800	0.166400
C351	C35	0.484700	0.735700	0.493100
C361	C36	0.895800	0.701800	0.294450
C371	C37	0.880000	0.716500	0.191600
C381	C38	0.898800	0.694600	0.349600
C391	C39	0.866700	0.727200	0.136300
C401	C40	0.895800	0.794600	0.271900
C411	C41	0.191600	0.612500	0.251000
C421	C42	0.888900	0.800900	0.220100
C431	C43	0.202300	0.605300	0.302500
C441	C44	0.368600	0.607700	0.242500
C451	C45	0.889200	0.617700	0.264700
C461	C46	0.378100	0.599600	0.294000
C471	C47	0.306900	0.605000	0.379800
C481	C48	0.877500	0.624700	0.213800
C491	C49	0.794900	0.101100	0.176500
C501	C50	0.965500	0.334000	0.947800
C511	C51	0.319800	0.467800	0.068100
C521	C52	0.218500	0.493100	0.010730
C531	C53	0.545700	0.296700	0.986040
C541	C54	0.776500	0.116300	0.279000
C551	C55	0.723000	0.949700	0.967270
C561	C56	0.830500	0.928500	0.022500
C571	C57	0.566100	0.183400	0.037400
C581	C58	0.765900	0.133800	0.333600
C591	C59	0.984700	0.235700	0.006900
C601	C60	0.395800	0.201800	0.205550
C611	C61	0.380000	0.216500	0.308400
C621	C62	0.398800	0.194600	0.150400
C631	C63	0.366700	0.227200	0.363700
C641	C64	0.395800	0.294600	0.228100
C651	C65	0.691600	0.112500	0.249000
C661	C66	0.388900	0.300900	0.279900
C671	C67	0.702300	0.105300	0.197500
C681	C68	0.868600	0.107700	0.257500
C691	C69	0.389200	0.117700	0.235300
C701	C70	0.878100	0.099600	0.206000
C711	C71	0.806900	0.105000	0.120200
C721	C72	0.377500	0.124700	0.286200
C731	C73	0.705100	0.398900	0.676500
C741	C74	0.534500	0.166000	0.447800
C751	C75	0.180200	0.032200	0.568100
C761	C76	0.281500	0.006900	0.510730
C771	C77	0.954300	0.203300	0.486040
C781	C78	0.723500	0.383700	0.779000
C791	C79	0.777000	0.550300	0.467270
C801	C80	0.669500	0.571500	0.522500
C811	C81	0.933900	0.316600	0.537400
C821	C82	0.734100	0.366200	0.833600
C831	C83	0.515300	0.264300	0.506900
C841	C84	0.104200	0.298200	0.705550
C851	C85	0.120000	0.283500	0.808400
C861	C86	0.101200	0.305400	0.650400
C871	C87	0.133300	0.272800	0.863700
C881	C88	0.104200	0.205400	0.728100
C891	C89	0.808400	0.387500	0.749000
C901	C90	0.111100	0.199100	0.779900
C911	C91	0.797700	0.394700	0.697500
C921	C92	0.631400	0.392300	0.757500
C931	C93	0.110800	0.382300	0.735300
C941	C94	0.621900	0.400400	0.706000
C951	C95	0.693100	0.395000	0.620200
C961	C96	0.122500	0.375300	0.786200
N11	N1	0.499400	0.752900	0.975800
N21	N2	0.214000	0.999100	0.001620
N31	N3	0.736900	0.463100	0.949060
N41	N4	0.366000	0.733900	0.024760
N51	N5	0.125700	0.702100	0.038940
N61	N6	0.688900	0.614200	0.959450
N71	N7	0.352700	0.807800	0.990090
N81	N8	0.273000	0.146600	0.029100
N91	N9	0.202800	0.160200	0.992880
N101	N10	0.962700	0.702200	0.024420
N111	N11	0.755700	0.597400	0.996420
N121	N12	0.113000	0.766300	0.000350
N131	N13	0.000600	0.747100	0.475800
N141	N14	0.286000	0.500900	0.501620
N151	N15	0.763100	0.036900	0.449060
N161	N16	0.134000	0.766100	0.524760
N171	N17	0.374300	0.797900	0.538940
N181	N18	0.811100	0.885800	0.459450
N191	N19	0.147300	0.692200	0.490090
N201	N20	0.227000	0.353400	0.529100
N211	N21	0.297200	0.339800	0.492880
N221	N22	0.537300	0.797800	0.524420
N231	N23	0.744300	0.902600	0.496420
N241	N24	0.387000	0.733700	0.500350
N251	N25	0.500600	0.247100	0.024200
N261	N26	0.786000	0.000900	0.998380
N271	N27	0.263100	0.536900	0.050940
N281	N28	0.634000	0.266100	0.975240
N291	N29	0.874300	0.297900	0.961060
N301	N30	0.311100	0.385800	0.040550
N311	N31	0.647300	0.192200	0.009910
N321	N32	0.727000	0.853400	0.970900
N331	N33	0.797200	0.839800	0.007120
N341	N34	0.037300	0.297800	0.975580
N351	N35	0.244300	0.402600	0.003580
N361	N36	0.887000	0.233700	0.999650
N371	N37	0.999400	0.252900	0.524200
N381	N38	0.714000	0.499100	0.498380
N391	N39	0.236900	0.963100	0.550940
N401	N40	0.866000	0.233900	0.475240
N411	N41	0.625700	0.202100	0.461060
N421	N42	0.188900	0.114200	0.540550
N431	N43	0.852700	0.307800	0.509910
N441	N44	0.773000	0.646600	0.470900
N451	N45	0.702800	0.660200	0.507120
N461	N46	0.462700	0.202200	0.475580
N471	N47	0.255700	0.097400	0.503580
N481	N48	0.613000	0.266300	0.499650
O11	O1	0.257100	0.837300	0.098800
O21	O2	0.268700	0.890400	0.904800
O31	O3	0.625900	0.728900	0.873450
O41	O4	0.155200	0.844300	0.640660
O51	O5	0.318600	0.871100	0.646490
O61	O6	0.667500	0.851200	0.612580
O71	O7	0.579900	0.881800	0.871010
O81	O8	0.612700	0.692300	0.615890
O91	O9	0.105300	0.900200	0.899000
O101	O10	0.242900	0.662700	0.598800
O111	O11	0.231300	0.609600	0.404800
O121	O12	0.874100	0.771100	0.373450
O131	O13	0.344800	0.655700	0.140660
O141	O14	0.181400	0.628900	0.146490
O151	O15	0.832500	0.648800	0.112580
O161	O16	0.920100	0.618200	0.371010
O171	O17	0.887300	0.807700	0.115890
O181	O18	0.394700	0.599800	0.399000
O191	O19	0.742900	0.162700	0.901200
O201	O20	0.731300	0.109600	0.095200
O211	O21	0.374100	0.271100	0.126550
O221	O22	0.844800	0.155700	0.359340
O231	O23	0.681400	0.128900	0.353510
O241	O24	0.332500	0.148800	0.387420
O251	O25	0.420100	0.118200	0.128990
O261	O26	0.387300	0.307700	0.384110
O271	O27	0.894700	0.099800	0.101000
O281	O28	0.757100	0.337300	0.401200
O291	O29	0.768700	0.390400	0.595200
O301	O30	0.125900	0.228900	0.626550
O311	O31	0.655200	0.344300	0.859340
O321	O32	0.818600	0.371100	0.853510
O331	O33	0.167500	0.351200	0.887420
O341	O34	0.079900	0.381800	0.628990
O351	O35	0.112700	0.192300	0.884110
O361	O36	0.605300	0.400200	0.601000
