data_LEJKIW_freeONLY_PM
_symmetry_space_group_name_H-M	'P1'
_cell_length_a	13.767600
_cell_length_b	13.767600
_cell_length_c	28.061900
_cell_angle_alpha	90.000000
_cell_angle_beta	90.000000
_cell_angle_gamma	120.000000
_symmetry_Int_Tables_number 1

loop_
_symmetry_equiv_pos_as_xyz
'x,y,z'

loop_
_atom_site_label
_atom_site_type_symbol
_atom_site_fract_x
_atom_site_fract_y
_atom_site_fract_z
In11	In1	0.853160	0.559700	0.975370
P11	P1	0.974670	0.809140	0.916830
P21	P2	0.629420	0.507370	0.040110
O11	O1	0.032400	0.888800	0.957980
O21	O2	0.714500	0.571000	0.001620
O31	O3	0.878800	0.696300	0.932180
O41	O4	0.562700	0.564800	0.051460
O51	O5	0.930800	0.854000	0.878310
O61	O6	0.759900	0.447900	0.920500
O71	O7	0.949000	0.689600	0.031300
O81	O8	0.556000	0.384100	0.029680
O91	O9	0.090300	0.941400	0.795240
H11	H1	0.050600	0.801300	0.890000
H21	H2	0.928200	0.734900	0.045300
H31	H3	0.017000	0.708300	0.042400
O101	O10	0.695800	0.508400	0.082100
In21	In2	0.440300	0.293460	0.975370
P31	P3	0.190860	0.165530	0.916830
P41	P4	0.492630	0.122050	0.040110
O111	O11	0.111200	0.143600	0.957980
O121	O12	0.429000	0.143500	0.001620
O131	O13	0.303700	0.182500	0.932180
O141	O14	0.435200	0.997900	0.051460
O151	O15	0.146000	0.076800	0.878310
O161	O16	0.552100	0.312000	0.920500
O171	O17	0.310400	0.259400	0.031300
O181	O18	0.615900	0.171900	0.029680
O191	O19	0.058600	0.148900	0.795240
H41	H4	0.198700	0.249300	0.890000
H51	H5	0.265100	0.193300	0.045300
H61	H6	0.291700	0.308700	0.042400
O201	O20	0.491600	0.187400	0.082100
In31	In3	0.706540	0.146840	0.975370
P51	P5	0.834470	0.025330	0.916830
P61	P6	0.877950	0.370580	0.040110
O211	O21	0.856400	0.967600	0.957980
O221	O22	0.856500	0.285500	0.001620
O231	O23	0.817500	0.121200	0.932180
O241	O24	0.002100	0.437300	0.051460
O251	O25	0.923200	0.069200	0.878310
O261	O26	0.688000	0.240100	0.920500
O271	O27	0.740600	0.051000	0.031300
O281	O28	0.828100	0.444000	0.029680
O291	O29	0.851100	0.909700	0.795240
H71	H7	0.750700	0.949400	0.890000
H81	H8	0.806700	0.071800	0.045300
H91	H9	0.691300	0.983000	0.042400
O301	O30	0.812600	0.304200	0.082100
In41	In4	0.146840	0.440300	0.475370
P71	P7	0.025330	0.190860	0.416830
P81	P8	0.370580	0.492630	0.540110
O311	O31	0.967600	0.111200	0.457980
O321	O32	0.285500	0.429000	0.501620
O331	O33	0.121200	0.303700	0.432180
O341	O34	0.437300	0.435200	0.551460
O351	O35	0.069200	0.146000	0.378310
O361	O36	0.240100	0.552100	0.420500
O371	O37	0.051000	0.310400	0.531300
O381	O38	0.444000	0.615900	0.529680
O391	O39	0.909700	0.058600	0.295240
H101	H10	0.949400	0.198700	0.390000
H111	H11	0.071800	0.265100	0.545300
H121	H12	0.983000	0.291700	0.542400
O401	O40	0.304200	0.491600	0.582100
In51	In5	0.559700	0.706540	0.475370
P91	P9	0.809140	0.834470	0.416830
P101	P10	0.507370	0.877950	0.540110
O411	O41	0.888800	0.856400	0.457980
O421	O42	0.571000	0.856500	0.501620
O431	O43	0.696300	0.817500	0.432180
O441	O44	0.564800	0.002100	0.551460
O451	O45	0.854000	0.923200	0.378310
O461	O46	0.447900	0.688000	0.420500
O471	O47	0.689600	0.740600	0.531300
O481	O48	0.384100	0.828100	0.529680
O491	O49	0.941400	0.851100	0.295240
H131	H13	0.801300	0.750700	0.390000
H141	H14	0.734900	0.806700	0.545300
H151	H15	0.708300	0.691300	0.542400
O501	O50	0.508400	0.812600	0.582100
In61	In6	0.293460	0.853160	0.475370
P111	P11	0.165530	0.974670	0.416830
P121	P12	0.122050	0.629420	0.540110
O511	O51	0.143600	0.032400	0.457980
O521	O52	0.143500	0.714500	0.501620
O531	O53	0.182500	0.878800	0.432180
O541	O54	0.997900	0.562700	0.551460
O551	O55	0.076800	0.930800	0.378310
O561	O56	0.312000	0.759900	0.420500
O571	O57	0.259400	0.949000	0.531300
O581	O58	0.171900	0.556000	0.529680
O591	O59	0.148900	0.090300	0.295240
H161	H16	0.249300	0.050600	0.390000
H171	H17	0.193300	0.928200	0.545300
H181	H18	0.308700	0.017000	0.542400
O601	O60	0.187400	0.695800	0.582100
In71	In7	0.146840	0.440300	0.024630
P131	P13	0.025330	0.190860	0.083170
P141	P14	0.370580	0.492630	0.959890
O611	O61	0.967600	0.111200	0.042020
O621	O62	0.285500	0.429000	0.998380
O631	O63	0.121200	0.303700	0.067820
O641	O64	0.437300	0.435200	0.948540
O651	O65	0.069200	0.146000	0.121690
O661	O66	0.240100	0.552100	0.079500
O671	O67	0.051000	0.310400	0.968700
O681	O68	0.444000	0.615900	0.970320
O691	O69	0.909700	0.058600	0.204760
H191	H19	0.949400	0.198700	0.110000
H201	H20	0.071800	0.265100	0.954700
H211	H21	0.983000	0.291700	0.957600
O701	O70	0.304200	0.491600	0.917900
In81	In8	0.559700	0.706540	0.024630
P151	P15	0.809140	0.834470	0.083170
P161	P16	0.507370	0.877950	0.959890
O711	O71	0.888800	0.856400	0.042020
O721	O72	0.571000	0.856500	0.998380
O731	O73	0.696300	0.817500	0.067820
O741	O74	0.564800	0.002100	0.948540
O751	O75	0.854000	0.923200	0.121690
O761	O76	0.447900	0.688000	0.079500
O771	O77	0.689600	0.740600	0.968700
O781	O78	0.384100	0.828100	0.970320
O791	O79	0.941400	0.851100	0.204760
H221	H22	0.801300	0.750700	0.110000
H231	H23	0.734900	0.806700	0.954700
H241	H24	0.708300	0.691300	0.957600
O801	O80	0.508400	0.812600	0.917900
In91	In9	0.293460	0.853160	0.024630
P171	P17	0.165530	0.974670	0.083170
P181	P18	0.122050	0.629420	0.959890
O811	O81	0.143600	0.032400	0.042020
O821	O82	0.143500	0.714500	0.998380
O831	O83	0.182500	0.878800	0.067820
O841	O84	0.997900	0.562700	0.948540
O851	O85	0.076800	0.930800	0.121690
O861	O86	0.312000	0.759900	0.079500
O871	O87	0.259400	0.949000	0.968700
O881	O88	0.171900	0.556000	0.970320
O891	O89	0.148900	0.090300	0.204760
H251	H25	0.249300	0.050600	0.110000
H261	H26	0.193300	0.928200	0.954700
H271	H27	0.308700	0.017000	0.957600
O901	O90	0.187400	0.695800	0.917900
In101	In10	0.853160	0.559700	0.524630
P191	P19	0.974670	0.809140	0.583170
P201	P20	0.629420	0.507370	0.459890
O911	O91	0.032400	0.888800	0.542020
O921	O92	0.714500	0.571000	0.498380
O931	O93	0.878800	0.696300	0.567820
O941	O94	0.562700	0.564800	0.448540
O951	O95	0.930800	0.854000	0.621690
O961	O96	0.759900	0.447900	0.579500
O971	O97	0.949000	0.689600	0.468700
O981	O98	0.556000	0.384100	0.470320
O991	O99	0.090300	0.941400	0.704760
H281	H28	0.050600	0.801300	0.610000
H291	H29	0.928200	0.734900	0.454700
H301	H30	0.017000	0.708300	0.457600
O1001	O100	0.695800	0.508400	0.417900
In111	In11	0.440300	0.293460	0.524630
P211	P21	0.190860	0.165530	0.583170
P221	P22	0.492630	0.122050	0.459890
O1011	O101	0.111200	0.143600	0.542020
O1021	O102	0.429000	0.143500	0.498380
O1031	O103	0.303700	0.182500	0.567820
O1041	O104	0.435200	0.997900	0.448540
O1051	O105	0.146000	0.076800	0.621690
O1061	O106	0.552100	0.312000	0.579500
O1071	O107	0.310400	0.259400	0.468700
O1081	O108	0.615900	0.171900	0.470320
O1091	O109	0.058600	0.148900	0.704760
H311	H31	0.198700	0.249300	0.610000
H321	H32	0.265100	0.193300	0.454700
H331	H33	0.291700	0.308700	0.457600
O1101	O110	0.491600	0.187400	0.417900
In121	In12	0.706540	0.146840	0.524630
P231	P23	0.834470	0.025330	0.583170
P241	P24	0.877950	0.370580	0.459890
O1111	O111	0.856400	0.967600	0.542020
O1121	O112	0.856500	0.285500	0.498380
O1131	O113	0.817500	0.121200	0.567820
O1141	O114	0.002100	0.437300	0.448540
O1151	O115	0.923200	0.069200	0.621690
O1161	O116	0.688000	0.240100	0.579500
O1171	O117	0.740600	0.051000	0.468700
O1181	O118	0.828100	0.444000	0.470320
O1191	O119	0.851100	0.909700	0.704760
H341	H34	0.750700	0.949400	0.610000
H351	H35	0.806700	0.071800	0.454700
H361	H36	0.691300	0.983000	0.457600
O1201	O120	0.812600	0.304200	0.417900
In131	In13	0.000000	0.000000	0.000000
In141	In14	0.000000	0.000000	0.500000
In151	In15	0.000000	0.000000	0.835590
In161	In16	0.000000	0.000000	0.335590
In171	In17	0.000000	0.000000	0.164410
In181	In18	0.000000	0.000000	0.664410
P251	P25	0.666670	0.333330	0.907640
H371	H37	0.666670	0.333330	0.860600
P261	P26	0.333330	0.666670	0.407640
H381	H38	0.333330	0.666670	0.360600
P271	P27	0.333330	0.666670	0.092360
H391	H39	0.333330	0.666670	0.139400
P281	P28	0.666670	0.333330	0.592360
H401	H40	0.666670	0.333330	0.639400
P291	P29	0.072770	0.876100	0.750000
O1211	O121	0.152970	0.828000	0.750000
O1221	O122	0.962700	0.773400	0.750000
H411	H41	0.151700	0.768100	0.750000
P301	P30	0.123900	0.196670	0.750000
O1231	O123	0.172000	0.324970	0.750000
O1241	O124	0.226600	0.189300	0.750000
H421	H42	0.231900	0.383600	0.750000
P311	P31	0.803330	0.927230	0.750000
O1251	O125	0.675030	0.847030	0.750000
O1261	O126	0.810700	0.037300	0.750000
H431	H43	0.616400	0.848300	0.750000
P321	P32	0.927230	0.123900	0.250000
O1271	O127	0.847030	0.172000	0.250000
O1281	O128	0.037300	0.226600	0.250000
H441	H44	0.848300	0.231900	0.250000
P331	P33	0.876100	0.803330	0.250000
O1291	O129	0.828000	0.675030	0.250000
O1301	O130	0.773400	0.810700	0.250000
H451	H45	0.768100	0.616400	0.250000
P341	P34	0.196670	0.072770	0.250000
O1311	O131	0.324970	0.152970	0.250000
O1321	O132	0.189300	0.962700	0.250000
H461	H46	0.383600	0.151700	0.250000
