data_LEJRIC_freeONLY_PM
_symmetry_space_group_name_H-M	'P1'
_cell_length_a	6.688240
_cell_length_b	15.163400
_cell_length_c	15.163400
_cell_angle_alpha	62.123000
_cell_angle_beta	81.545400
_cell_angle_gamma	98.454600
_symmetry_Int_Tables_number 1

loop_
_symmetry_equiv_pos_as_xyz
'x,y,z'

loop_
_atom_site_label
_atom_site_type_symbol
_atom_site_fract_x
_atom_site_fract_y
_atom_site_fract_z
Ni11	Ni1	0.698200	0.313700	0.269000
Ni21	Ni2	0.967200	0.269000	0.417300
Ni31	Ni3	0.384500	0.417300	0.313700
Ni41	Ni4	0.301800	0.686300	0.731000
Ni51	Ni5	0.032800	0.731000	0.582700
Ni61	Ni6	0.615500	0.582700	0.686300
H11	H1	0.644000	0.542000	0.470000
H21	H2	0.114000	0.470000	0.988000
H31	H3	0.102000	0.988000	0.542000
H41	H4	0.356000	0.458000	0.530000
H51	H5	0.886000	0.530000	0.012000
H61	H6	0.898000	0.012000	0.458000
C11	C1	0.751800	0.431100	0.383700
C21	C2	0.894300	0.462200	0.446300
C31	C3	0.069900	0.438600	0.462900
C41	C4	0.829300	0.528100	0.476200
C51	C5	0.135500	0.383700	0.185200
C61	C6	0.340600	0.446300	0.091500
C71	C7	0.532800	0.462900	0.098500
C81	C8	0.305500	0.476200	0.995700
C91	C9	0.320700	0.185200	0.431100
C101	C10	0.432100	0.091500	0.462200
C111	C11	0.631300	0.098500	0.438600
C121	C12	0.301200	0.995700	0.528100
C131	C13	0.248200	0.568900	0.616300
C141	C14	0.105700	0.537800	0.553700
C151	C15	0.930100	0.561400	0.537100
C161	C16	0.170700	0.471900	0.523800
C171	C17	0.864500	0.616300	0.814800
C181	C18	0.659400	0.553700	0.908500
C191	C19	0.467200	0.537100	0.901500
C201	C20	0.694500	0.523800	0.004300
C211	C21	0.679300	0.814800	0.568900
C221	C22	0.567900	0.908500	0.537800
C231	C23	0.368700	0.901500	0.561400
C241	C24	0.698800	0.004300	0.471900
O11	O1	0.594300	0.474300	0.371400
O21	O2	0.807500	0.378600	0.353100
O31	O3	0.147200	0.369300	0.440700
O41	O4	0.558000	0.242300	0.197300
O51	O5	0.965700	0.371400	0.154300
O61	O6	0.160600	0.353100	0.268300
O71	O7	0.587900	0.440700	0.190000
O81	O8	0.755300	0.197300	0.560400
O91	O9	0.120000	0.154300	0.474300
O101	O10	0.428900	0.268300	0.378600
O111	O11	0.777900	0.190000	0.369300
O121	O12	0.315700	0.560400	0.242300
O131	O13	0.405700	0.525700	0.628600
O141	O14	0.192500	0.621400	0.646900
O151	O15	0.852800	0.630700	0.559300
O161	O16	0.442000	0.757700	0.802700
O171	O17	0.034300	0.628600	0.845700
O181	O18	0.839400	0.646900	0.731700
O191	O19	0.412100	0.559300	0.810000
O201	O20	0.244700	0.802700	0.439600
O211	O21	0.880000	0.845700	0.525700
O221	O22	0.571100	0.731700	0.621400
O231	O23	0.222100	0.810000	0.630700
O241	O24	0.684300	0.439600	0.757700
