data_LEMVOP_freeONLY_PM
_symmetry_space_group_name_H-M	'P1'
_cell_length_a	14.004000
_cell_length_b	23.292000
_cell_length_c	23.479000
_cell_angle_alpha	107.510000
_cell_angle_beta	90.000000
_cell_angle_gamma	90.000000
_symmetry_Int_Tables_number 1

loop_
_symmetry_equiv_pos_as_xyz
'x,y,z'

loop_
_atom_site_label
_atom_site_type_symbol
_atom_site_fract_x
_atom_site_fract_y
_atom_site_fract_z
Pr11	Pr1	0.203460	0.511000	0.773650
Pr21	Pr2	0.858460	0.742630	0.790050
Pr31	Pr3	0.942110	0.252490	0.708120
Pr41	Pr4	0.299370	0.276520	0.503590
Pr51	Pr5	0.703460	0.989000	0.726350
Pr61	Pr6	0.358460	0.757370	0.709950
Pr71	Pr7	0.442110	0.247510	0.791880
Pr81	Pr8	0.799370	0.223480	0.996410
Pr91	Pr9	0.796540	0.489000	0.226350
Pr101	Pr10	0.141540	0.257370	0.209950
Pr111	Pr11	0.057890	0.747510	0.291880
Pr121	Pr12	0.700630	0.723480	0.496410
Pr131	Pr13	0.296540	0.011000	0.273650
Pr141	Pr14	0.641540	0.242630	0.290050
Pr151	Pr15	0.557890	0.752490	0.208120
Pr161	Pr16	0.200630	0.776520	0.003590
H11	H1	0.031000	0.640200	0.832800
H21	H2	0.055300	0.544500	0.663600
H31	H3	0.913000	0.608900	0.673700
H41	H4	0.232000	0.645000	0.747300
H51	H5	0.342800	0.506300	0.628100
H61	H6	0.401800	0.596500	0.605900
H71	H7	0.108700	0.371000	0.771700
H81	H8	0.935000	0.504300	0.773600
H91	H9	0.845700	0.408500	0.734700
H101	H10	0.366800	0.376700	0.744800
H111	H11	0.222400	0.445100	0.894000
H121	H12	0.331000	0.367800	0.908600
H131	H13	0.319100	0.394900	0.651800
H141	H14	0.557600	0.626300	0.823700
H151	H15	0.048000	0.437100	0.648500
H161	H16	0.091900	0.367000	0.549600
H171	H17	0.269300	0.638200	0.889400
H181	H18	0.043100	0.547400	0.908400
H191	H19	0.037400	0.647700	0.984700
H201	H20	0.414600	0.601900	0.762200
H211	H21	0.401900	0.513300	0.880900
H221	H22	0.554500	0.572000	0.899100
H231	H23	0.631500	0.690600	0.961700
H241	H24	0.595600	0.804900	0.769700
H251	H25	0.700400	0.638800	0.728400
H261	H26	0.532800	0.632500	0.695400
H271	H27	0.728900	0.764500	0.661000
H281	H28	0.995700	0.707300	0.645200
H291	H29	0.945100	0.713000	0.546800
H301	H30	0.071800	0.766600	0.884000
H311	H31	0.810900	0.797100	0.949800
H321	H32	0.848500	0.364100	0.541500
H331	H33	0.922200	0.797400	0.031400
H341	H34	0.635700	0.727000	0.874400
H351	H35	0.323000	0.456000	0.391500
H361	H36	0.871200	0.631000	0.871200
H371	H37	0.774100	0.630600	0.957800
H381	H38	0.703300	0.195900	0.714200
H391	H39	0.768100	0.363900	0.800100
H401	H40	0.598300	0.350600	0.816700
H411	H41	0.829400	0.283700	0.862500
H421	H42	0.045200	0.171600	0.803000
H431	H43	0.986000	0.156400	0.896700
H441	H44	0.151200	0.274000	0.633000
H451	H45	0.965900	0.155400	0.541500
H461	H46	0.091500	0.166300	0.470600
H471	H47	0.954900	0.304300	0.577700
H481	H48	0.707400	0.307000	0.657600
H491	H49	0.694800	0.372300	0.593200
H501	H50	0.250100	0.361800	0.391400
H511	H51	0.414200	0.425700	0.537400
H521	H52	0.412700	0.499200	0.479900
H531	H53	0.531000	0.859800	0.667200
H541	H54	0.555300	0.955500	0.836400
H551	H55	0.413000	0.891100	0.826300
H561	H56	0.732000	0.855000	0.752700
H571	H57	0.842800	0.993700	0.871900
H581	H58	0.901800	0.903500	0.894100
H591	H59	0.608700	0.129000	0.728300
H601	H60	0.435000	0.995700	0.726400
H611	H61	0.345700	0.091500	0.765300
H621	H62	0.866800	0.123300	0.755200
H631	H63	0.722400	0.054900	0.606000
H641	H64	0.831000	0.132200	0.591400
H651	H65	0.819100	0.105100	0.848200
H661	H66	0.057600	0.873700	0.676300
H671	H67	0.548000	0.062900	0.851500
H681	H68	0.591900	0.133000	0.950400
H691	H69	0.769300	0.861800	0.610600
H701	H70	0.543100	0.952600	0.591600
H711	H71	0.537400	0.852300	0.515300
H721	H72	0.914600	0.898100	0.737800
H731	H73	0.901900	0.986700	0.619100
H741	H74	0.054500	0.928000	0.600900
H751	H75	0.131500	0.809400	0.538300
H761	H76	0.095600	0.695100	0.730300
H771	H77	0.200400	0.861200	0.771600
H781	H78	0.032800	0.867500	0.804600
H791	H79	0.228900	0.735500	0.839000
H801	H80	0.495700	0.792700	0.854800
H811	H81	0.445100	0.787000	0.953200
H821	H82	0.571800	0.733400	0.616000
H831	H83	0.310900	0.702900	0.550200
H841	H84	0.348500	0.135900	0.958500
H851	H85	0.422200	0.702600	0.468600
H861	H86	0.135700	0.773000	0.625600
H871	H87	0.823000	0.044000	0.108500
H881	H88	0.371200	0.869000	0.628800
H891	H89	0.274100	0.869400	0.542200
H901	H90	0.203300	0.304100	0.785800
H911	H91	0.268100	0.136100	0.699900
H921	H92	0.098300	0.149400	0.683300
H931	H93	0.329400	0.216300	0.637500
H941	H94	0.545200	0.328400	0.697000
H951	H95	0.486000	0.343600	0.603300
H961	H96	0.651200	0.226000	0.867000
H971	H97	0.465900	0.344600	0.958500
H981	H98	0.591500	0.333700	0.029400
H991	H99	0.454900	0.195700	0.922300
H1001	H100	0.207400	0.193000	0.842400
H1011	H101	0.194800	0.127700	0.906800
H1021	H102	0.750100	0.138200	0.108600
H1031	H103	0.914200	0.074300	0.962600
H1041	H104	0.912700	0.000800	0.020100
H1051	H105	0.969000	0.359800	0.167200
H1061	H106	0.944700	0.455500	0.336400
H1071	H107	0.087000	0.391100	0.326300
H1081	H108	0.768000	0.355000	0.252700
H1091	H109	0.657200	0.493700	0.371900
H1101	H110	0.598200	0.403500	0.394100
H1111	H111	0.891300	0.629000	0.228300
H1121	H112	0.065000	0.495700	0.226400
H1131	H113	0.154300	0.591500	0.265300
H1141	H114	0.633200	0.623300	0.255200
H1151	H115	0.777600	0.554900	0.106000
H1161	H116	0.669000	0.632200	0.091400
H1171	H117	0.680900	0.605100	0.348200
H1181	H118	0.442400	0.373700	0.176300
H1191	H119	0.952000	0.562900	0.351500
H1201	H120	0.908100	0.633000	0.450400
H1211	H121	0.730700	0.361800	0.110600
H1221	H122	0.956900	0.452600	0.091600
H1231	H123	0.962600	0.352300	0.015300
H1241	H124	0.585400	0.398100	0.237800
H1251	H125	0.598100	0.486700	0.119100
H1261	H126	0.445500	0.428000	0.100900
H1271	H127	0.368500	0.309400	0.038300
H1281	H128	0.404400	0.195100	0.230300
H1291	H129	0.299600	0.361200	0.271600
H1301	H130	0.467200	0.367500	0.304600
H1311	H131	0.271100	0.235500	0.339000
H1321	H132	0.004300	0.292700	0.354800
H1331	H133	0.054900	0.287000	0.453200
H1341	H134	0.928200	0.233400	0.116000
H1351	H135	0.189100	0.202900	0.050200
H1361	H136	0.151500	0.635900	0.458500
H1371	H137	0.077800	0.202600	0.968600
H1381	H138	0.364300	0.273000	0.125600
H1391	H139	0.677000	0.544000	0.608500
H1401	H140	0.128800	0.369000	0.128800
H1411	H141	0.225900	0.369400	0.042200
H1421	H142	0.296700	0.804100	0.285800
H1431	H143	0.231900	0.636100	0.199900
H1441	H144	0.401700	0.649400	0.183300
H1451	H145	0.170600	0.716300	0.137500
H1461	H146	0.954800	0.828400	0.197000
H1471	H147	0.014000	0.843600	0.103300
H1481	H148	0.848800	0.726000	0.367000
H1491	H149	0.034100	0.844600	0.458500
H1501	H150	0.908500	0.833700	0.529400
H1511	H151	0.045100	0.695700	0.422300
H1521	H152	0.292600	0.693000	0.342400
H1531	H153	0.305200	0.627700	0.406800
H1541	H154	0.749900	0.638200	0.608600
H1551	H155	0.585800	0.574300	0.462600
H1561	H156	0.587300	0.500800	0.520100
H1571	H157	0.469000	0.140200	0.332800
H1581	H158	0.444700	0.044500	0.163600
H1591	H159	0.587000	0.108900	0.173700
H1601	H160	0.268000	0.145000	0.247300
H1611	H161	0.157200	0.006300	0.128100
H1621	H162	0.098200	0.096500	0.105900
H1631	H163	0.391300	0.871000	0.271700
H1641	H164	0.565000	0.004300	0.273600
H1651	H165	0.654300	0.908500	0.234700
H1661	H166	0.133200	0.876700	0.244800
H1671	H167	0.277600	0.945100	0.394000
H1681	H168	0.169000	0.867800	0.408600
H1691	H169	0.180900	0.894900	0.151800
H1701	H170	0.942400	0.126300	0.323700
H1711	H171	0.452000	0.937100	0.148500
H1721	H172	0.408100	0.867000	0.049600
H1731	H173	0.230700	0.138200	0.389400
H1741	H174	0.456900	0.047400	0.408400
H1751	H175	0.462600	0.147700	0.484700
H1761	H176	0.085400	0.101900	0.262200
H1771	H177	0.098100	0.013300	0.380900
H1781	H178	0.945500	0.072000	0.399100
H1791	H179	0.868500	0.190600	0.461700
H1801	H180	0.904400	0.304900	0.269700
H1811	H181	0.799600	0.138800	0.228400
H1821	H182	0.967200	0.132500	0.195400
H1831	H183	0.771100	0.264500	0.161000
H1841	H184	0.504300	0.207300	0.145200
H1851	H185	0.554900	0.213000	0.046800
H1861	H186	0.428200	0.266600	0.384000
H1871	H187	0.689100	0.297100	0.449800
H1881	H188	0.651500	0.864100	0.041500
H1891	H189	0.577800	0.297400	0.531400
H1901	H190	0.864300	0.227000	0.374400
H1911	H191	0.177000	0.956000	0.891500
H1921	H192	0.628800	0.131000	0.371200
H1931	H193	0.725900	0.130600	0.457800
H1941	H194	0.796700	0.695900	0.214200
H1951	H195	0.731900	0.863900	0.300100
H1961	H196	0.901700	0.850600	0.316700
H1971	H197	0.670600	0.783700	0.362500
H1981	H198	0.454800	0.671600	0.303000
H1991	H199	0.514000	0.656400	0.396700
H2001	H200	0.348800	0.774000	0.133000
H2011	H201	0.534100	0.655400	0.041500
H2021	H202	0.408500	0.666300	0.970600
H2031	H203	0.545100	0.804300	0.077700
H2041	H204	0.792600	0.807000	0.157600
H2051	H205	0.805200	0.872300	0.093200
H2061	H206	0.249900	0.861800	0.891400
H2071	H207	0.085800	0.925700	0.037400
H2081	H208	0.087300	0.999200	0.979900
C11	C1	0.018600	0.623600	0.791300
C21	C2	0.032000	0.571400	0.699800
C31	C3	0.954400	0.607900	0.705500
C41	C4	0.267700	0.621200	0.714200
C51	C5	0.327100	0.546400	0.650400
C61	C6	0.359900	0.595800	0.637500
C71	C7	0.052900	0.392800	0.768000
C81	C8	0.960100	0.465300	0.768900
C91	C9	0.910400	0.412400	0.747600
C101	C10	0.345300	0.385200	0.784800
C111	C11	0.266600	0.422500	0.865200
C121	C12	0.326000	0.379200	0.873100
C131	C13	0.254900	0.396200	0.639100
C141	C14	0.109400	0.419800	0.637900
C151	C15	0.133700	0.380200	0.582900
C161	C16	0.210500	0.627900	0.904100
C171	C17	0.089500	0.578300	0.913200
C181	C18	0.086600	0.633900	0.955900
C191	C19	0.430200	0.587100	0.794600
C201	C20	0.423700	0.539100	0.859000
C211	C21	0.508200	0.571300	0.869300
C221	C22	0.680800	0.683000	0.932600
C231	C23	0.600700	0.762400	0.754900
C241	C24	0.659100	0.672300	0.732900
C251	C25	0.566700	0.668500	0.714500
C261	C26	0.789500	0.750300	0.644700
C271	C27	0.934100	0.719500	0.636400
C281	C28	0.906400	0.722500	0.581600
C291	C29	0.019500	0.773500	0.911000
C301	C30	0.877800	0.790500	0.945600
C311	C31	0.939300	0.790200	0.990700
C321	C32	0.683900	0.703500	0.885200
C331	C33	0.812200	0.651200	0.882900
C341	C34	0.698900	0.236800	0.738000
C351	C35	0.733800	0.327400	0.784000
C361	C36	0.640200	0.320200	0.793900
C371	C37	0.877200	0.254000	0.859900
C381	C38	0.994100	0.192900	0.826800
C391	C39	0.961700	0.184900	0.878800
C401	C40	0.120300	0.245500	0.600600
C411	C41	0.019900	0.181200	0.551400
C421	C42	0.089000	0.187300	0.512000
C431	C43	0.890100	0.312000	0.589500
C441	C44	0.756900	0.314100	0.632900
C451	C45	0.749200	0.349500	0.597400
C461	C46	0.291300	0.386000	0.421200
C471	C47	0.380700	0.421900	0.501200
C481	C48	0.381000	0.461400	0.468900
C491	C49	0.518600	0.876400	0.708700
C501	C50	0.532000	0.928600	0.800200
C511	C51	0.454400	0.892100	0.794500
C521	C52	0.767700	0.878800	0.785800
C531	C53	0.827100	0.953600	0.849600
C541	C54	0.859900	0.904200	0.862500
C551	C55	0.552900	0.107200	0.732000
C561	C56	0.460100	0.034700	0.731100
C571	C57	0.410400	0.087600	0.752400
C581	C58	0.845300	0.114800	0.715200
C591	C59	0.766600	0.077500	0.634800
C601	C60	0.826000	0.120800	0.626900
C611	C61	0.754900	0.103800	0.860900
C621	C62	0.609400	0.080200	0.862100
C631	C63	0.633700	0.119800	0.917100
C641	C64	0.710500	0.872100	0.595900
C651	C65	0.589500	0.921700	0.586800
C661	C66	0.586600	0.866100	0.544100
C671	C67	0.930200	0.912900	0.705400
C681	C68	0.923700	0.960900	0.641000
C691	C69	0.008200	0.928700	0.630700
C701	C70	0.180800	0.817000	0.567400
C711	C71	0.100700	0.737600	0.745100
C721	C72	0.159100	0.827700	0.767100
C731	C73	0.066700	0.831500	0.785500
C741	C74	0.289500	0.749700	0.855300
C751	C75	0.434100	0.780500	0.863600
C761	C76	0.406400	0.777500	0.918400
C771	C77	0.519500	0.726500	0.589000
C781	C78	0.377800	0.709500	0.554400
C791	C79	0.439300	0.709800	0.509300
C801	C80	0.183900	0.796500	0.614800
C811	C81	0.312200	0.848800	0.617100
C821	C82	0.198900	0.263200	0.762000
C831	C83	0.233800	0.172600	0.716000
C841	C84	0.140200	0.179800	0.706100
C851	C85	0.377200	0.246000	0.640100
C861	C86	0.494100	0.307100	0.673200
C871	C87	0.461700	0.315100	0.621200
C881	C88	0.620300	0.254500	0.899400
C891	C89	0.519900	0.318800	0.948600
C901	C90	0.589000	0.312700	0.988000
C911	C91	0.390100	0.188000	0.910500
C921	C92	0.256900	0.185900	0.867100
C931	C93	0.249200	0.150500	0.902600
C941	C94	0.791300	0.114000	0.078800
C951	C95	0.880700	0.078100	0.998800
C961	C96	0.881000	0.038600	0.031100
C971	C97	0.981400	0.376400	0.208700
C981	C98	0.968000	0.428600	0.300200
C991	C99	0.045600	0.392100	0.294500
C1001	C100	0.732300	0.378800	0.285800
C1011	C101	0.672900	0.453600	0.349600
C1021	C102	0.640100	0.404200	0.362500
C1031	C103	0.947100	0.607200	0.232000
C1041	C104	0.039900	0.534700	0.231100
C1051	C105	0.089600	0.587600	0.252400
C1061	C106	0.654700	0.614800	0.215200
C1071	C107	0.733400	0.577500	0.134800
C1081	C108	0.674000	0.620800	0.126900
C1091	C109	0.745100	0.603800	0.360900
C1101	C110	0.890600	0.580200	0.362100
C1111	C111	0.866300	0.619800	0.417100
C1121	C112	0.789500	0.372100	0.095900
C1131	C113	0.910500	0.421700	0.086800
C1141	C114	0.913400	0.366100	0.044100
C1151	C115	0.569800	0.412900	0.205400
C1161	C116	0.576300	0.460900	0.141000
C1171	C117	0.491800	0.428700	0.130700
C1181	C118	0.319200	0.317000	0.067400
C1191	C119	0.399300	0.237600	0.245100
C1201	C120	0.340900	0.327700	0.267100
C1211	C121	0.433300	0.331500	0.285500
C1221	C122	0.210500	0.249700	0.355300
C1231	C123	0.065900	0.280500	0.363600
C1241	C124	0.093600	0.277500	0.418400
C1251	C125	0.980500	0.226500	0.089000
C1261	C126	0.122200	0.209500	0.054400
C1271	C127	0.060700	0.209800	0.009300
C1281	C128	0.316100	0.296500	0.114800
C1291	C129	0.187800	0.348800	0.117100
C1301	C130	0.301100	0.763200	0.262000
C1311	C131	0.266200	0.672600	0.216000
C1321	C132	0.359800	0.679800	0.206100
C1331	C133	0.122800	0.746000	0.140100
C1341	C134	0.005900	0.807100	0.173200
C1351	C135	0.038300	0.815100	0.121200
C1361	C136	0.879700	0.754500	0.399400
C1371	C137	0.980100	0.818800	0.448600
C1381	C138	0.911000	0.812700	0.488000
C1391	C139	0.109900	0.688000	0.410500
C1401	C140	0.243100	0.685900	0.367100
C1411	C141	0.250800	0.650500	0.402600
C1421	C142	0.708700	0.614000	0.578800
C1431	C143	0.619300	0.578100	0.498800
C1441	C144	0.619000	0.538600	0.531100
C1451	C145	0.481400	0.123600	0.291300
C1461	C146	0.468000	0.071400	0.199800
C1471	C147	0.545600	0.107900	0.205500
C1481	C148	0.232300	0.121200	0.214200
C1491	C149	0.172900	0.046400	0.150400
C1501	C150	0.140100	0.095800	0.137500
C1511	C151	0.447100	0.892800	0.268000
C1521	C152	0.539900	0.965300	0.268900
C1531	C153	0.589600	0.912400	0.247600
C1541	C154	0.154700	0.885200	0.284800
C1551	C155	0.233400	0.922500	0.365200
C1561	C156	0.174000	0.879200	0.373100
C1571	C157	0.245100	0.896200	0.139100
C1581	C158	0.390600	0.919800	0.137900
C1591	C159	0.366300	0.880200	0.082900
C1601	C160	0.289500	0.127900	0.404100
C1611	C161	0.410500	0.078300	0.413200
C1621	C162	0.413400	0.133900	0.455900
C1631	C163	0.069800	0.087100	0.294600
C1641	C164	0.076300	0.039100	0.359000
C1651	C165	0.991800	0.071300	0.369300
C1661	C166	0.819200	0.183000	0.432600
C1671	C167	0.899300	0.262400	0.254900
C1681	C168	0.840900	0.172300	0.232900
C1691	C169	0.933300	0.168500	0.214500
C1701	C170	0.710500	0.250300	0.144700
C1711	C171	0.565900	0.219500	0.136400
C1721	C172	0.593600	0.222500	0.081600
C1731	C173	0.480500	0.273500	0.411000
C1741	C174	0.622200	0.290500	0.445600
C1751	C175	0.560700	0.290200	0.490700
C1761	C176	0.816100	0.203500	0.385200
C1771	C177	0.687800	0.151200	0.382900
C1781	C178	0.801100	0.736800	0.238000
C1791	C179	0.766200	0.827400	0.284000
C1801	C180	0.859800	0.820200	0.293900
C1811	C181	0.622800	0.754000	0.359900
C1821	C182	0.505900	0.692900	0.326800
C1831	C183	0.538300	0.684900	0.378800
C1841	C184	0.379700	0.745500	0.100600
C1851	C185	0.480100	0.681200	0.051400
C1861	C186	0.411000	0.687300	0.012000
C1871	C187	0.609900	0.812000	0.089500
C1881	C188	0.743100	0.814100	0.132900
C1891	C189	0.750800	0.849500	0.097400
C1901	C190	0.208700	0.886000	0.921200
C1911	C191	0.119300	0.921900	0.001200
C1921	C192	0.119000	0.961400	0.968900
N11	N1	0.071100	0.580400	0.755800
N21	N2	0.944600	0.642500	0.763000
N31	N3	0.267300	0.561500	0.700400
N41	N4	0.318600	0.646900	0.681200
N51	N5	0.052300	0.453000	0.782500
N61	N6	0.971300	0.365300	0.748200
N71	N7	0.280500	0.428700	0.809000
N81	N8	0.377200	0.354700	0.821700
N91	N9	0.188000	0.430200	0.674600
N101	N10	0.224100	0.363600	0.583500
N111	N11	0.168100	0.574800	0.879800
N121	N12	0.164900	0.665800	0.950300
N131	N13	0.376600	0.550300	0.812600
N141	N14	0.512000	0.602000	0.828000
N151	N15	0.684000	0.730800	0.758600
N161	N16	0.530100	0.727100	0.728700
N171	N17	0.860500	0.736500	0.677100
N181	N18	0.813000	0.741700	0.585400
N191	N19	0.928300	0.779600	0.893500
N201	N20	0.030300	0.777800	0.967800
N211	N21	0.768700	0.685200	0.854400
N221	N22	0.773700	0.274400	0.746900
N231	N23	0.615800	0.261400	0.765600
N241	N24	0.938500	0.238200	0.814800
N251	N25	0.886700	0.225500	0.901700
N261	N26	0.041800	0.218400	0.607200
N271	N27	0.155000	0.230000	0.544100
N281	N28	0.848100	0.289300	0.628200
N291	N29	0.833900	0.346500	0.568700
N301	N30	0.319100	0.372900	0.469400
N311	N31	0.330400	0.439200	0.420200
N321	N32	0.759300	0.649700	0.931900
N331	N33	0.571100	0.919600	0.744200
N341	N34	0.444600	0.857500	0.737000
N351	N35	0.767300	0.938500	0.799600
N361	N36	0.818600	0.853100	0.818800
N371	N37	0.552300	0.047000	0.717500
N381	N38	0.471300	0.134700	0.751800
N391	N39	0.780500	0.071300	0.691000
N401	N40	0.877200	0.145300	0.678300
N411	N41	0.688000	0.069800	0.825400
N421	N42	0.724100	0.136400	0.916500
N431	N43	0.668100	0.925200	0.620200
N441	N44	0.664900	0.834200	0.549700
N451	N45	0.876600	0.949700	0.687400
N461	N46	0.012000	0.898000	0.672000
N471	N47	0.184000	0.769200	0.741400
N481	N48	0.030100	0.772900	0.771300
N491	N49	0.360500	0.763500	0.822900
N501	N50	0.313000	0.758300	0.914600
N511	N51	0.428300	0.720400	0.606500
N521	N52	0.530300	0.722200	0.532200
N531	N53	0.268700	0.814800	0.645600
N541	N54	0.273700	0.225600	0.753100
N551	N55	0.115800	0.238600	0.734400
N561	N56	0.438500	0.261800	0.685200
N571	N57	0.386700	0.274500	0.598300
N581	N58	0.541800	0.281600	0.892800
N591	N59	0.655000	0.270000	0.955900
N601	N60	0.348100	0.210700	0.871800
N611	N61	0.333900	0.153500	0.931300
N621	N62	0.819100	0.127100	0.030600
N631	N63	0.830400	0.060800	0.079800
N641	N64	0.259300	0.850300	0.568100
N651	N65	0.928900	0.419600	0.244200
N661	N66	0.055400	0.357500	0.237000
N671	N67	0.732700	0.438500	0.299600
N681	N68	0.681400	0.353100	0.318800
N691	N69	0.947700	0.547000	0.217500
N701	N70	0.028700	0.634700	0.251800
N711	N71	0.719500	0.571300	0.191000
N721	N72	0.622800	0.645300	0.178300
N731	N73	0.812000	0.569800	0.325400
N741	N74	0.775900	0.636400	0.416500
N751	N75	0.831900	0.425200	0.120200
N761	N76	0.835100	0.334200	0.049700
N771	N77	0.623400	0.449700	0.187400
N781	N78	0.488000	0.398000	0.172000
N791	N79	0.316000	0.269200	0.241400
N801	N80	0.469900	0.272900	0.271300
N811	N81	0.139500	0.263500	0.322900
N821	N82	0.187000	0.258300	0.414600
N831	N83	0.071700	0.220400	0.106500
N841	N84	0.969700	0.222200	0.032200
N851	N85	0.231300	0.314800	0.145600
N861	N86	0.226300	0.725600	0.253100
N871	N87	0.384200	0.738600	0.234400
N881	N88	0.061500	0.761800	0.185200
N891	N89	0.113300	0.774500	0.098300
N901	N90	0.958200	0.781600	0.392800
N911	N91	0.845000	0.770000	0.455900
N921	N92	0.151900	0.710700	0.371800
N931	N93	0.166100	0.653500	0.431300
N941	N94	0.680900	0.627100	0.530600
N951	N95	0.669600	0.560800	0.579800
N961	N96	0.240700	0.350300	0.068100
N971	N97	0.428900	0.080400	0.255800
N981	N98	0.555400	0.142500	0.263000
N991	N99	0.232700	0.061500	0.200400
N1001	N100	0.181400	0.146900	0.181200
N1011	N101	0.447700	0.953000	0.282500
N1021	N102	0.528700	0.865300	0.248200
N1031	N103	0.219500	0.928700	0.309000
N1041	N104	0.122800	0.854700	0.321700
N1051	N105	0.312000	0.930200	0.174600
N1061	N106	0.275900	0.863600	0.083500
N1071	N107	0.331900	0.074800	0.379800
N1081	N108	0.335100	0.165800	0.450300
N1091	N109	0.123400	0.050300	0.312600
N1101	N110	0.988000	0.102000	0.328000
N1111	N111	0.816000	0.230800	0.258600
N1121	N112	0.969900	0.227100	0.228700
N1131	N113	0.639500	0.236500	0.177100
N1141	N114	0.687000	0.241700	0.085400
N1151	N115	0.571700	0.279600	0.393500
N1161	N116	0.469700	0.277800	0.467800
N1171	N117	0.731300	0.185200	0.354400
N1181	N118	0.726300	0.774400	0.246900
N1191	N119	0.884200	0.761400	0.265600
N1201	N120	0.561500	0.738200	0.314800
N1211	N121	0.613300	0.725500	0.401700
N1221	N122	0.458200	0.718400	0.107200
N1231	N123	0.345000	0.730000	0.044100
N1241	N124	0.651900	0.789300	0.128200
N1251	N125	0.666100	0.846500	0.068700
N1261	N126	0.180900	0.872900	0.969400
N1271	N127	0.169600	0.939200	0.920200
N1281	N128	0.740700	0.149700	0.431900
