data_LENGAO_freeONLY_PM
_symmetry_space_group_name_H-M	'P1'
_cell_length_a	12.158300
_cell_length_b	16.783100
_cell_length_c	43.410000
_cell_angle_alpha	90.000000
_cell_angle_beta	90.000000
_cell_angle_gamma	93.688000
_symmetry_Int_Tables_number 1

loop_
_symmetry_equiv_pos_as_xyz
'x,y,z'

loop_
_atom_site_label
_atom_site_type_symbol
_atom_site_fract_x
_atom_site_fract_y
_atom_site_fract_z
Cd11	Cd1	0.185470	0.464080	0.297930
Cd21	Cd2	0.920360	0.566840	0.295750
Cd31	Cd3	0.226800	0.321430	0.504890
Cd41	Cd4	0.314530	0.535920	0.797930
Cd51	Cd5	0.579640	0.433160	0.795750
Cd61	Cd6	0.273200	0.678570	0.004890
Cd71	Cd7	0.814530	0.535920	0.702070
Cd81	Cd8	0.079640	0.433160	0.704250
Cd91	Cd9	0.773200	0.678570	0.495110
Cd101	Cd10	0.685470	0.464080	0.202070
Cd111	Cd11	0.420360	0.566840	0.204240
Cd121	Cd12	0.726800	0.321430	0.995110
P11	P1	0.941000	0.014570	0.323960
P21	P2	0.168200	0.018130	0.324580
P31	P3	0.055000	0.017560	0.269560
P41	P4	0.559000	0.985430	0.823960
P51	P5	0.331800	0.981870	0.824580
P61	P6	0.445000	0.982440	0.769560
P71	P7	0.059000	0.985430	0.676040
P81	P8	0.831800	0.981870	0.675420
P91	P9	0.945000	0.982440	0.730440
P101	P10	0.441000	0.014570	0.176040
P111	P11	0.668200	0.018130	0.175420
P121	P12	0.555000	0.017560	0.230440
H11	H1	0.022800	0.180700	0.348500
H21	H2	0.040200	0.314600	0.335400
H31	H3	0.746500	0.290700	0.292800
H41	H4	0.731000	0.156400	0.306700
H51	H5	0.832300	0.989000	0.386100
H61	H6	0.777200	0.914700	0.428800
H71	H7	0.835900	0.715800	0.383900
H81	H8	0.868200	0.788200	0.338900
H91	H9	0.261000	0.037500	0.388300
H101	H10	0.274700	0.106400	0.434600
H111	H11	0.253400	0.313600	0.389200
H121	H12	0.239600	0.244600	0.342900
H131	H13	0.079900	0.849400	0.347100
H141	H14	0.060300	0.718000	0.331400
H151	H15	0.360900	0.738200	0.295100
H161	H16	0.375400	0.873700	0.305600
H171	H17	0.982600	0.798400	0.251400
H181	H18	0.084300	0.690700	0.238200
H191	H19	0.341500	0.840700	0.216900
H201	H20	0.241600	0.947900	0.229200
H211	H21	0.122700	0.238800	0.252800
H221	H22	0.022100	0.345400	0.237800
H231	H23	0.768600	0.191700	0.214400
H241	H24	0.873900	0.083500	0.228000
H251	H25	0.477200	0.819300	0.848500
H261	H26	0.459800	0.685400	0.835400
H271	H27	0.753500	0.709300	0.792800
H281	H28	0.769000	0.843600	0.806700
H291	H29	0.667700	0.011000	0.886100
H301	H30	0.722800	0.085300	0.928800
H311	H31	0.664100	0.284200	0.883900
H321	H32	0.631800	0.211800	0.838900
H331	H33	0.239000	0.962500	0.888300
H341	H34	0.225300	0.893600	0.934600
H351	H35	0.246600	0.686400	0.889200
H361	H36	0.260400	0.755400	0.842900
H371	H37	0.420100	0.150600	0.847100
H381	H38	0.439700	0.282000	0.831400
H391	H39	0.139100	0.261800	0.795100
H401	H40	0.124600	0.126300	0.805600
H411	H41	0.517400	0.201600	0.751400
H421	H42	0.415700	0.309300	0.738200
H431	H43	0.158500	0.159300	0.716900
H441	H44	0.258400	0.052100	0.729200
H451	H45	0.377300	0.761200	0.752800
H461	H46	0.477900	0.654600	0.737800
H471	H47	0.731400	0.808300	0.714400
H481	H48	0.626100	0.916500	0.728000
H491	H49	0.977200	0.819300	0.651500
H501	H50	0.959800	0.685400	0.664600
H511	H51	0.253500	0.709300	0.707200
H521	H52	0.269000	0.843600	0.693300
H531	H53	0.167700	0.011000	0.613900
H541	H54	0.222800	0.085300	0.571200
H551	H55	0.164100	0.284200	0.616100
H561	H56	0.131800	0.211800	0.661100
H571	H57	0.739000	0.962500	0.611700
H581	H58	0.725300	0.893600	0.565400
H591	H59	0.746600	0.686400	0.610800
H601	H60	0.760400	0.755400	0.657100
H611	H61	0.920100	0.150600	0.652900
H621	H62	0.939700	0.282000	0.668600
H631	H63	0.639100	0.261800	0.704900
H641	H64	0.624600	0.126300	0.694400
H651	H65	0.017400	0.201600	0.748600
H661	H66	0.915700	0.309300	0.761800
H671	H67	0.658500	0.159300	0.783100
H681	H68	0.758400	0.052100	0.770800
H691	H69	0.877300	0.761200	0.747200
H701	H70	0.977900	0.654600	0.762200
H711	H71	0.231400	0.808300	0.785600
H721	H72	0.126100	0.916500	0.772000
H731	H73	0.522800	0.180700	0.151500
H741	H74	0.540200	0.314600	0.164600
H751	H75	0.246500	0.290700	0.207200
H761	H76	0.231000	0.156400	0.193300
H771	H77	0.332300	0.989000	0.113900
H781	H78	0.277200	0.914700	0.071200
H791	H79	0.335900	0.715800	0.116100
H801	H80	0.368200	0.788200	0.161100
H811	H81	0.761000	0.037500	0.111700
H821	H82	0.774700	0.106400	0.065400
H831	H83	0.753400	0.313600	0.110800
H841	H84	0.739600	0.244600	0.157100
H851	H85	0.579900	0.849400	0.152900
H861	H86	0.560300	0.718000	0.168600
H871	H87	0.860900	0.738200	0.204900
H881	H88	0.875400	0.873700	0.194400
H891	H89	0.482600	0.798400	0.248600
H901	H90	0.584300	0.690700	0.261800
H911	H91	0.841500	0.840700	0.283100
H921	H92	0.741600	0.947900	0.270800
H931	H93	0.622700	0.238800	0.247200
H941	H94	0.522100	0.345400	0.262200
H951	H95	0.268600	0.191700	0.285600
H961	H96	0.373900	0.083500	0.272000
C11	C1	0.876300	0.158900	0.328300
C21	C2	0.968000	0.203500	0.337100
C31	C3	0.978500	0.283400	0.329000
C41	C4	0.897200	0.318500	0.311100
C51	C5	0.803500	0.269100	0.303600
C61	C6	0.793100	0.188600	0.312100
C71	C7	0.910900	0.402600	0.302700
C81	C8	0.851200	0.894900	0.358900
C91	C9	0.829000	0.933500	0.385400
C101	C10	0.801400	0.889400	0.411200
C111	C11	0.809600	0.806000	0.411300
C121	C12	0.833200	0.771000	0.384400
C131	C13	0.853600	0.813800	0.357300
C141	C14	0.249000	0.134200	0.360970
C151	C15	0.259500	0.092800	0.388440
C161	C16	0.267700	0.134100	0.416190
C171	C17	0.265400	0.216800	0.416470
C181	C18	0.254900	0.258200	0.389000
C191	C19	0.246700	0.216900	0.361250
C201	C20	0.269900	0.258500	0.446100
C211	C21	0.229700	0.872900	0.329000
C221	C22	0.136100	0.827200	0.336200
C231	C23	0.124700	0.749000	0.327200
C241	C24	0.212800	0.716600	0.311500
C251	C25	0.303000	0.761500	0.304900
C261	C26	0.314200	0.841800	0.312000
C271	C27	0.207400	0.629700	0.304400
C281	C28	0.101600	0.884400	0.240600
C291	C29	0.054200	0.807000	0.244000
C301	C30	0.115800	0.742500	0.236300
C311	C31	0.223800	0.754800	0.225800
C321	C32	0.269000	0.831900	0.223500
C331	C33	0.209300	0.896400	0.230800
C341	C34	0.290300	0.685700	0.217800
C351	C35	0.006700	0.152100	0.240600
C361	C36	0.052400	0.229800	0.244600
C371	C37	0.991800	0.293300	0.236100
C381	C38	0.885900	0.278500	0.225100
C391	C39	0.840000	0.200800	0.221800
C401	C40	0.903000	0.135900	0.229900
C411	C41	0.819700	0.346400	0.215700
C421	C42	0.791400	0.760300	0.439900
C431	C43	0.623700	0.841100	0.828300
C441	C44	0.532000	0.796500	0.837100
C451	C45	0.521500	0.716600	0.829000
C461	C46	0.602800	0.681500	0.811100
C471	C47	0.696500	0.730900	0.803600
C481	C48	0.706900	0.811400	0.812100
C491	C49	0.589100	0.597400	0.802700
C501	C50	0.648800	0.105100	0.858900
C511	C51	0.671000	0.066500	0.885400
C521	C52	0.698600	0.110600	0.911200
C531	C53	0.690400	0.194000	0.911300
C541	C54	0.666800	0.229000	0.884400
C551	C55	0.646400	0.186200	0.857300
C561	C56	0.251000	0.865800	0.860970
C571	C57	0.240500	0.907200	0.888440
C581	C58	0.232300	0.865900	0.916190
C591	C59	0.234600	0.783200	0.916470
C601	C60	0.245100	0.741800	0.889000
C611	C61	0.253300	0.783100	0.861250
C621	C62	0.230100	0.741500	0.946100
C631	C63	0.270300	0.127100	0.829000
C641	C64	0.363900	0.172800	0.836200
C651	C65	0.375300	0.251000	0.827200
C661	C66	0.287200	0.283400	0.811500
C671	C67	0.197000	0.238500	0.804900
C681	C68	0.185800	0.158200	0.812000
C691	C69	0.292600	0.370300	0.804400
C701	C70	0.398400	0.115600	0.740600
C711	C71	0.445800	0.193000	0.744000
C721	C72	0.384200	0.257500	0.736300
C731	C73	0.276200	0.245200	0.725800
C741	C74	0.231000	0.168100	0.723500
C751	C75	0.290700	0.103600	0.730800
C761	C76	0.209700	0.314300	0.717800
C771	C77	0.493300	0.847900	0.740600
C781	C78	0.447600	0.770200	0.744600
C791	C79	0.508200	0.706700	0.736100
C801	C80	0.614100	0.721500	0.725100
C811	C81	0.660000	0.799200	0.721800
C821	C82	0.597000	0.864100	0.729900
C831	C83	0.680300	0.653600	0.715700
C841	C84	0.708600	0.239700	0.939900
C851	C85	0.123700	0.841100	0.671700
C861	C86	0.032000	0.796500	0.662900
C871	C87	0.021500	0.716600	0.671000
C881	C88	0.102800	0.681500	0.688900
C891	C89	0.196500	0.730900	0.696400
C901	C90	0.206900	0.811400	0.687900
C911	C91	0.089100	0.597400	0.697300
C921	C92	0.148800	0.105100	0.641100
C931	C93	0.171000	0.066500	0.614600
C941	C94	0.198600	0.110600	0.588800
C951	C95	0.190400	0.194000	0.588700
C961	C96	0.166800	0.229000	0.615600
C971	C97	0.146400	0.186200	0.642700
C981	C98	0.751000	0.865800	0.639030
C991	C99	0.740500	0.907200	0.611560
C1001	C100	0.732300	0.865900	0.583810
C1011	C101	0.734600	0.783200	0.583530
C1021	C102	0.745100	0.741800	0.611000
C1031	C103	0.753300	0.783100	0.638750
C1041	C104	0.730100	0.741500	0.553900
C1051	C105	0.770300	0.127100	0.671000
C1061	C106	0.863900	0.172800	0.663800
C1071	C107	0.875300	0.251000	0.672800
C1081	C108	0.787200	0.283400	0.688500
C1091	C109	0.697000	0.238500	0.695100
C1101	C110	0.685800	0.158200	0.688000
C1111	C111	0.792600	0.370300	0.695600
C1121	C112	0.898400	0.115600	0.759400
C1131	C113	0.945800	0.193000	0.756000
C1141	C114	0.884200	0.257500	0.763700
C1151	C115	0.776200	0.245200	0.774200
C1161	C116	0.731000	0.168100	0.776500
C1171	C117	0.790700	0.103600	0.769200
C1181	C118	0.709700	0.314300	0.782200
C1191	C119	0.993300	0.847900	0.759400
C1201	C120	0.947600	0.770200	0.755400
C1211	C121	0.008200	0.706700	0.763900
C1221	C122	0.114100	0.721500	0.774900
C1231	C123	0.160000	0.799200	0.778200
C1241	C124	0.097000	0.864100	0.770100
C1251	C125	0.180300	0.653600	0.784300
C1261	C126	0.208600	0.239700	0.560100
C1271	C127	0.376300	0.158900	0.171700
C1281	C128	0.468000	0.203500	0.162900
C1291	C129	0.478500	0.283400	0.171000
C1301	C130	0.397200	0.318500	0.188900
C1311	C131	0.303500	0.269100	0.196400
C1321	C132	0.293100	0.188600	0.187900
C1331	C133	0.410900	0.402600	0.197300
C1341	C134	0.351200	0.894900	0.141100
C1351	C135	0.329000	0.933500	0.114600
C1361	C136	0.301400	0.889400	0.088800
C1371	C137	0.309600	0.806000	0.088700
C1381	C138	0.333200	0.771000	0.115600
C1391	C139	0.353600	0.813800	0.142700
C1401	C140	0.749000	0.134200	0.139030
C1411	C141	0.759500	0.092800	0.111560
C1421	C142	0.767700	0.134100	0.083810
C1431	C143	0.765400	0.216800	0.083530
C1441	C144	0.754900	0.258200	0.111000
C1451	C145	0.746700	0.216900	0.138750
C1461	C146	0.769900	0.258500	0.053900
C1471	C147	0.729700	0.872900	0.171000
C1481	C148	0.636100	0.827200	0.163800
C1491	C149	0.624700	0.749000	0.172800
C1501	C150	0.712800	0.716600	0.188500
C1511	C151	0.803000	0.761500	0.195100
C1521	C152	0.814200	0.841800	0.188000
C1531	C153	0.707400	0.629700	0.195600
C1541	C154	0.601600	0.884400	0.259400
C1551	C155	0.554200	0.807000	0.256000
C1561	C156	0.615800	0.742500	0.263700
C1571	C157	0.723800	0.754800	0.274200
C1581	C158	0.769000	0.831900	0.276500
C1591	C159	0.709300	0.896400	0.269200
C1601	C160	0.790300	0.685700	0.282200
C1611	C161	0.506700	0.152100	0.259400
C1621	C162	0.552400	0.229800	0.255400
C1631	C163	0.491800	0.293300	0.263900
C1641	C164	0.385900	0.278500	0.274900
C1651	C165	0.340000	0.200800	0.278200
C1661	C166	0.403000	0.135900	0.270100
C1671	C167	0.319700	0.346400	0.284300
C1681	C168	0.291400	0.760300	0.060100
N11	N1	0.054700	0.017200	0.342600
N21	N2	0.165900	0.010100	0.288100
N31	N3	0.947000	0.025700	0.288200
N41	N4	0.445300	0.982800	0.842600
N51	N5	0.334100	0.989900	0.788100
N61	N6	0.553000	0.974300	0.788200
N71	N7	0.945300	0.982800	0.657400
N81	N8	0.834100	0.989900	0.711900
N91	N9	0.053000	0.974300	0.711800
N101	N10	0.554700	0.017200	0.157400
N111	N11	0.665900	0.010100	0.211900
N121	N12	0.447000	0.025700	0.211800
O11	O1	0.862100	0.077700	0.338010
O21	O2	0.997100	0.443300	0.303770
O31	O3	0.822900	0.436500	0.294190
O41	O4	0.868000	0.935300	0.330710
O51	O5	0.241700	0.097100	0.332470
O61	O6	0.281600	0.222200	0.469600
O71	O7	0.265300	0.331100	0.447700
O81	O8	0.244000	0.953200	0.337830
O91	O9	0.108100	0.590100	0.305080
O101	O10	0.286500	0.592900	0.297810
O111	O11	0.035500	0.945900	0.246900
O121	O12	0.389400	0.698600	0.210310
O131	O13	0.245500	0.617000	0.218510
O141	O14	0.074900	0.090100	0.246880
O151	O15	0.860500	0.417700	0.215180
O161	O16	0.719400	0.331600	0.208840
O171	O17	0.203600	0.457600	0.350300
O181	O18	0.156700	0.475500	0.245270
O191	O19	0.893800	0.574100	0.348200
O201	O20	0.951700	0.557100	0.243090
O211	O21	0.797400	0.689200	0.440500
O221	O22	0.764300	0.795900	0.464200
O231	O23	0.237900	0.455100	0.498100
O241	O24	0.044600	0.299500	0.495700
O251	O25	0.637900	0.922300	0.838010
O261	O26	0.502900	0.556700	0.803770
O271	O27	0.677100	0.563500	0.794190
O281	O28	0.632000	0.064700	0.830710
O291	O29	0.258300	0.902900	0.832470
O301	O30	0.218400	0.777800	0.969600
O311	O31	0.234700	0.668900	0.947700
O321	O32	0.256000	0.046800	0.837830
O331	O33	0.391900	0.409900	0.805080
O341	O34	0.213500	0.407100	0.797810
O351	O35	0.464500	0.054100	0.746900
O361	O36	0.110600	0.301400	0.710310
O371	O37	0.254500	0.383000	0.718510
O381	O38	0.425100	0.909900	0.746880
O391	O39	0.639500	0.582300	0.715180
O401	O40	0.780600	0.668400	0.708840
O411	O41	0.296400	0.542400	0.850300
O421	O42	0.343300	0.524500	0.745270
O431	O43	0.606200	0.425900	0.848200
O441	O44	0.548300	0.442900	0.743090
O451	O45	0.702600	0.310800	0.940500
O461	O46	0.735700	0.204100	0.964200
O471	O47	0.262100	0.544900	0.998100
O481	O48	0.455400	0.700500	0.995700
O491	O49	0.137900	0.922300	0.661990
O501	O50	0.002900	0.556700	0.696230
O511	O51	0.177100	0.563500	0.705810
O521	O52	0.132000	0.064700	0.669290
O531	O53	0.758300	0.902900	0.667530
O541	O54	0.718400	0.777800	0.530400
O551	O55	0.734700	0.668900	0.552300
O561	O56	0.756000	0.046800	0.662170
O571	O57	0.891900	0.409900	0.694920
O581	O58	0.713500	0.407100	0.702190
O591	O59	0.964500	0.054100	0.753100
O601	O60	0.610600	0.301400	0.789690
O611	O61	0.754500	0.383000	0.781490
O621	O62	0.925100	0.909900	0.753120
O631	O63	0.139500	0.582300	0.784820
O641	O64	0.280600	0.668400	0.791160
O651	O65	0.796400	0.542400	0.649700
O661	O66	0.843300	0.524500	0.754730
O671	O67	0.106200	0.425900	0.651800
O681	O68	0.048300	0.442900	0.756910
O691	O69	0.202600	0.310800	0.559500
O701	O70	0.235700	0.204100	0.535800
O711	O71	0.762100	0.544900	0.501900
O721	O72	0.955400	0.700500	0.504300
O731	O73	0.362100	0.077700	0.161990
O741	O74	0.497100	0.443300	0.196230
O751	O75	0.322900	0.436500	0.205810
O761	O76	0.368000	0.935300	0.169290
O771	O77	0.741700	0.097100	0.167530
O781	O78	0.781600	0.222200	0.030400
O791	O79	0.765300	0.331100	0.052300
O801	O80	0.744000	0.953200	0.162170
O811	O81	0.608100	0.590100	0.194920
O821	O82	0.786500	0.592900	0.202190
O831	O83	0.535500	0.945900	0.253100
O841	O84	0.889400	0.698600	0.289690
O851	O85	0.745500	0.617000	0.281490
O861	O86	0.574900	0.090100	0.253120
O871	O87	0.360500	0.417700	0.284820
O881	O88	0.219400	0.331600	0.291160
O891	O89	0.703600	0.457600	0.149700
O901	O90	0.656700	0.475500	0.254730
O911	O91	0.393800	0.574100	0.151800
O921	O92	0.451700	0.557100	0.256910
O931	O93	0.297400	0.689200	0.059500
O941	O94	0.264300	0.795900	0.035800
O951	O95	0.737900	0.455100	0.001900
O961	O96	0.544600	0.299500	0.004300
