data_LENRUS_freeONLY_PM
_symmetry_space_group_name_H-M	'P1'
_cell_length_a	7.037300
_cell_length_b	10.439900
_cell_length_c	13.310500
_cell_angle_alpha	90.000000
_cell_angle_beta	90.000000
_cell_angle_gamma	90.000000
_symmetry_Int_Tables_number 1

loop_
_symmetry_equiv_pos_as_xyz
'x,y,z'

loop_
_atom_site_label
_atom_site_type_symbol
_atom_site_fract_x
_atom_site_fract_y
_atom_site_fract_z
Ag11	Ag1	0.781150	0.893950	0.319700
Ag21	Ag2	0.718850	0.106050	0.819700
H11	H1	0.957900	0.423000	0.359700
H21	H2	0.823900	0.660400	0.689100
H31	H3	0.817300	0.810200	0.813700
H41	H4	0.956900	0.080700	0.627900
H51	H5	0.976100	0.939300	0.496700
H61	H6	0.542100	0.577000	0.859700
H71	H7	0.676100	0.339600	0.189100
H81	H8	0.682700	0.189800	0.313700
H91	H9	0.543100	0.919300	0.127900
H101	H10	0.523900	0.060700	0.996700
C11	C1	0.886600	0.621400	0.225800
C21	C2	0.902500	0.610500	0.338800
C31	C3	0.939300	0.502600	0.389500
C41	C4	0.901400	0.690300	0.493700
C51	C5	0.894500	0.783200	0.576800
C61	C6	0.850000	0.745700	0.674500
C71	C7	0.845500	0.836700	0.748700
C81	C8	0.928300	0.995100	0.639900
C91	C9	0.939500	0.911100	0.560000
C101	C10	0.613400	0.378600	0.725800
C111	C11	0.597500	0.389500	0.838800
C121	C12	0.560700	0.497400	0.889500
C131	C13	0.598600	0.309700	0.993700
C141	C14	0.605500	0.216800	0.076800
C151	C15	0.650000	0.254300	0.174500
C161	C16	0.654500	0.163300	0.248700
C171	C17	0.571700	0.004900	0.139900
C181	C18	0.560500	0.088900	0.060000
S11	S1	0.947580	0.530020	0.515920
S21	S2	0.552420	0.469980	0.015920
N11	N1	0.879300	0.718100	0.398700
N21	N2	0.879300	0.961800	0.733400
N31	N3	0.620700	0.281900	0.898700
N41	N4	0.620700	0.038200	0.233400
O11	O1	0.843300	0.727300	0.190200
O21	O2	0.919900	0.520200	0.177200
O31	O3	0.656700	0.272700	0.690200
O41	O4	0.580100	0.479800	0.677200
Ag31	Ag3	0.218850	0.393950	0.180300
Ag41	Ag4	0.281150	0.606050	0.680300
H111	H11	0.042100	0.923000	0.140300
H121	H12	0.176100	0.160400	0.810900
H131	H13	0.182700	0.310200	0.686300
H141	H14	0.043100	0.580700	0.872100
H151	H15	0.023900	0.439300	0.003300
H161	H16	0.457900	0.077000	0.640300
H171	H17	0.323900	0.839600	0.310900
H181	H18	0.317300	0.689800	0.186300
H191	H19	0.456900	0.419300	0.372100
H201	H20	0.476100	0.560700	0.503300
C191	C19	0.113400	0.121400	0.274200
C201	C20	0.097500	0.110500	0.161200
C211	C21	0.060700	0.002600	0.110500
C221	C22	0.098600	0.190300	0.006300
C231	C23	0.105500	0.283200	0.923200
C241	C24	0.150000	0.245700	0.825500
C251	C25	0.154500	0.336700	0.751300
C261	C26	0.071700	0.495100	0.860100
C271	C27	0.060500	0.411100	0.940000
C281	C28	0.386600	0.878600	0.774200
C291	C29	0.402500	0.889500	0.661200
C301	C30	0.439300	0.997400	0.610500
C311	C31	0.401400	0.809700	0.506300
C321	C32	0.394500	0.716800	0.423200
C331	C33	0.350000	0.754300	0.325500
C341	C34	0.345500	0.663300	0.251300
C351	C35	0.428300	0.504900	0.360100
C361	C36	0.439500	0.588900	0.440000
S31	S3	0.052420	0.030020	0.984080
S41	S4	0.447580	0.969980	0.484080
N51	N5	0.120700	0.218100	0.101300
N61	N6	0.120700	0.461800	0.766600
N71	N7	0.379300	0.781900	0.601300
N81	N8	0.379300	0.538200	0.266600
O51	O5	0.156700	0.227300	0.309800
O61	O6	0.080100	0.020200	0.322800
O71	O7	0.343300	0.772700	0.809800
O81	O8	0.419900	0.979800	0.822800
