data_LEQQAA_freeONLY_PM
_symmetry_space_group_name_H-M	'P1'
_cell_length_a	21.435000
_cell_length_b	21.435000
_cell_length_c	11.382000
_cell_angle_alpha	90.000000
_cell_angle_beta	90.000000
_cell_angle_gamma	90.000000
_symmetry_Int_Tables_number 1

loop_
_symmetry_equiv_pos_as_xyz
'x,y,z'

loop_
_atom_site_label
_atom_site_type_symbol
_atom_site_fract_x
_atom_site_fract_y
_atom_site_fract_z
O11	O1	0.298700	0.876220	0.920700
N11	N1	0.202400	0.003200	0.090000
C11	C1	0.176000	0.052900	0.037900
H11	H1	0.182800	0.058900	0.958100
C21	C2	0.139500	0.095200	0.096900
H21	H2	0.122700	0.129400	0.057900
C31	C3	0.127800	0.085900	0.216200
C41	C4	0.155600	0.034600	0.271200
H31	H3	0.149700	0.027300	0.350900
C51	C5	0.192000	0.995200	0.204300
H41	H4	0.210200	0.961100	0.241100
C61	C6	0.293400	0.816200	0.931400
C71	C7	0.341300	0.781300	0.858200
H51	H5	0.350600	0.804800	0.788700
H61	H6	0.324900	0.741200	0.836400
H71	H7	0.378800	0.775600	0.903300
O21	O2	0.201300	0.623780	0.920700
N21	N2	0.297600	0.496800	0.090000
C81	C8	0.324000	0.447100	0.037900
H81	H8	0.317200	0.441100	0.958100
C91	C9	0.360500	0.404800	0.096900
H91	H9	0.377300	0.370600	0.057900
C101	C10	0.372200	0.414100	0.216200
C111	C11	0.344400	0.465400	0.271200
H101	H10	0.350300	0.472700	0.350900
C121	C12	0.308000	0.504800	0.204300
H111	H11	0.289800	0.538900	0.241100
C131	C13	0.206600	0.683800	0.931400
C141	C14	0.158700	0.718700	0.858200
H121	H12	0.149400	0.695200	0.788700
H131	H13	0.175100	0.758800	0.836400
H141	H14	0.121200	0.724400	0.903300
O31	O3	0.623780	0.298700	0.420700
N31	N3	0.496800	0.202400	0.590000
C151	C15	0.447100	0.176000	0.537900
H151	H15	0.441100	0.182800	0.458100
C161	C16	0.404800	0.139500	0.596900
H161	H16	0.370600	0.122700	0.557900
C171	C17	0.414100	0.127800	0.716200
C181	C18	0.465400	0.155600	0.771200
H171	H17	0.472700	0.149700	0.850900
C191	C19	0.504800	0.192000	0.704300
H181	H18	0.538900	0.210200	0.741100
C201	C20	0.683800	0.293400	0.431400
C211	C21	0.718700	0.341300	0.358200
H191	H19	0.695200	0.350600	0.288700
H201	H20	0.758800	0.324900	0.336400
H211	H21	0.724400	0.378800	0.403300
O41	O4	0.876220	0.201300	0.420700
N41	N4	0.003200	0.297600	0.590000
C221	C22	0.052900	0.324000	0.537900
H221	H22	0.058900	0.317200	0.458100
C231	C23	0.095200	0.360500	0.596900
H231	H23	0.129400	0.377300	0.557900
C241	C24	0.085900	0.372200	0.716200
C251	C25	0.034600	0.344400	0.771200
H241	H24	0.027300	0.350300	0.850900
C261	C26	0.995200	0.308000	0.704300
H251	H25	0.961100	0.289800	0.741100
C271	C27	0.816200	0.206600	0.431400
C281	C28	0.781300	0.158700	0.358200
H261	H26	0.804800	0.149400	0.288700
H271	H27	0.741200	0.175100	0.336400
H281	H28	0.775600	0.121200	0.403300
O51	O5	0.201300	0.876220	0.079300
N51	N5	0.297600	0.003200	0.910000
C291	C29	0.324000	0.052900	0.962100
H291	H29	0.317200	0.058900	0.041900
C301	C30	0.360500	0.095200	0.903100
H301	H30	0.377300	0.129400	0.942100
C311	C31	0.372200	0.085900	0.783800
C321	C32	0.344400	0.034600	0.728800
H311	H31	0.350300	0.027300	0.649100
C331	C33	0.308000	0.995200	0.795700
H321	H32	0.289800	0.961100	0.758900
C341	C34	0.206600	0.816200	0.068600
C351	C35	0.158700	0.781300	0.141800
H331	H33	0.149400	0.804800	0.211300
H341	H34	0.175100	0.741200	0.163600
H351	H35	0.121200	0.775600	0.096700
O61	O6	0.298700	0.623780	0.079300
N61	N6	0.202400	0.496800	0.910000
C361	C36	0.176000	0.447100	0.962100
H361	H36	0.182800	0.441100	0.041900
C371	C37	0.139500	0.404800	0.903100
H371	H37	0.122700	0.370600	0.942100
C381	C38	0.127800	0.414100	0.783800
C391	C39	0.155600	0.465400	0.728800
H381	H38	0.149700	0.472700	0.649100
C401	C40	0.192000	0.504800	0.795700
H391	H39	0.210200	0.538900	0.758900
C411	C41	0.293400	0.683800	0.068600
C421	C42	0.341300	0.718700	0.141800
H401	H40	0.350600	0.695200	0.211300
H411	H41	0.324900	0.758800	0.163600
H421	H42	0.378800	0.724400	0.096700
O71	O7	0.876220	0.298700	0.579300
N71	N7	0.003200	0.202400	0.410000
C431	C43	0.052900	0.176000	0.462100
H431	H43	0.058900	0.182800	0.541900
C441	C44	0.095200	0.139500	0.403100
H441	H44	0.129400	0.122700	0.442100
C451	C45	0.085900	0.127800	0.283800
C461	C46	0.034600	0.155600	0.228800
H451	H45	0.027300	0.149700	0.149100
C471	C47	0.995200	0.192000	0.295700
H461	H46	0.961100	0.210200	0.258900
C481	C48	0.816200	0.293400	0.568600
C491	C49	0.781300	0.341300	0.641800
H471	H47	0.804800	0.350600	0.711300
H481	H48	0.741200	0.324900	0.663600
H491	H49	0.775600	0.378800	0.596700
O81	O8	0.623780	0.201300	0.579300
N81	N8	0.496800	0.297600	0.410000
C501	C50	0.447100	0.324000	0.462100
H501	H50	0.441100	0.317200	0.541900
C511	C51	0.404800	0.360500	0.403100
H511	H51	0.370600	0.377300	0.442100
C521	C52	0.414100	0.372200	0.283800
C531	C53	0.465400	0.344400	0.228800
H521	H52	0.472700	0.350300	0.149100
C541	C54	0.504800	0.308000	0.295700
H531	H53	0.538900	0.289800	0.258900
C551	C55	0.683800	0.206600	0.568600
C561	C56	0.718700	0.158700	0.641800
H541	H54	0.695200	0.149400	0.711300
H551	H55	0.758800	0.175100	0.663600
H561	H56	0.724400	0.121200	0.596700
Cu11	Cu1	0.250000	0.938060	0.000000
C571	C57	0.250000	0.785400	0.000000
Cu21	Cu2	0.250000	0.561940	0.000000
C581	C58	0.250000	0.714600	0.000000
Cu31	Cu3	0.561940	0.250000	0.500000
C591	C59	0.714600	0.250000	0.500000
Cu41	Cu4	0.938060	0.250000	0.500000
C601	C60	0.785400	0.250000	0.500000
O91	O9	0.701300	0.123780	0.079300
N91	N9	0.797600	0.996800	0.910000
C611	C61	0.824000	0.947100	0.962100
H571	H57	0.817200	0.941100	0.041900
C621	C62	0.860500	0.904800	0.903100
H581	H58	0.877300	0.870600	0.942100
C631	C63	0.872200	0.914100	0.783800
C641	C64	0.844400	0.965400	0.728800
H591	H59	0.850300	0.972700	0.649100
C651	C65	0.808000	0.004800	0.795700
H601	H60	0.789800	0.038900	0.758900
C661	C66	0.706600	0.183800	0.068600
C671	C67	0.658700	0.218700	0.141800
H611	H61	0.649400	0.195200	0.211300
H621	H62	0.675100	0.258800	0.163600
H631	H63	0.621200	0.224400	0.096700
O101	O10	0.798700	0.376220	0.079300
N101	N10	0.702400	0.503200	0.910000
C681	C68	0.676000	0.552900	0.962100
H641	H64	0.682800	0.558900	0.041900
C691	C69	0.639500	0.595200	0.903100
H651	H65	0.622700	0.629400	0.942100
C701	C70	0.627800	0.585900	0.783800
C711	C71	0.655600	0.534600	0.728800
H661	H66	0.649700	0.527300	0.649100
C721	C72	0.692000	0.495200	0.795700
H671	H67	0.710200	0.461100	0.758900
C731	C73	0.793400	0.316200	0.068600
C741	C74	0.841300	0.281300	0.141800
H681	H68	0.850600	0.304800	0.211300
H691	H69	0.824900	0.241200	0.163600
H701	H70	0.878800	0.275600	0.096700
O111	O11	0.376220	0.701300	0.579300
N111	N11	0.503200	0.797600	0.410000
C751	C75	0.552900	0.824000	0.462100
H711	H71	0.558900	0.817200	0.541900
C761	C76	0.595200	0.860500	0.403100
H721	H72	0.629400	0.877300	0.442100
C771	C77	0.585900	0.872200	0.283800
C781	C78	0.534600	0.844400	0.228800
H731	H73	0.527300	0.850300	0.149100
C791	C79	0.495200	0.808000	0.295700
H741	H74	0.461100	0.789800	0.258900
C801	C80	0.316200	0.706600	0.568600
C811	C81	0.281300	0.658700	0.641800
H751	H75	0.304800	0.649400	0.711300
H761	H76	0.241200	0.675100	0.663600
H771	H77	0.275600	0.621200	0.596700
O121	O12	0.123780	0.798700	0.579300
N121	N12	0.996800	0.702400	0.410000
C821	C82	0.947100	0.676000	0.462100
H781	H78	0.941100	0.682800	0.541900
C831	C83	0.904800	0.639500	0.403100
H791	H79	0.870600	0.622700	0.442100
C841	C84	0.914100	0.627800	0.283800
C851	C85	0.965400	0.655600	0.228800
H801	H80	0.972700	0.649700	0.149100
C861	C86	0.004800	0.692000	0.295700
H811	H81	0.038900	0.710200	0.258900
C871	C87	0.183800	0.793400	0.568600
C881	C88	0.218700	0.841300	0.641800
H821	H82	0.195200	0.850600	0.711300
H831	H83	0.258800	0.824900	0.663600
H841	H84	0.224400	0.878800	0.596700
O131	O13	0.798700	0.123780	0.920700
N131	N13	0.702400	0.996800	0.090000
C891	C89	0.676000	0.947100	0.037900
H851	H85	0.682800	0.941100	0.958100
C901	C90	0.639500	0.904800	0.096900
H861	H86	0.622700	0.870600	0.057900
C911	C91	0.627800	0.914100	0.216200
C921	C92	0.655600	0.965400	0.271200
H871	H87	0.649700	0.972700	0.350900
C931	C93	0.692000	0.004800	0.204300
H881	H88	0.710200	0.038900	0.241100
C941	C94	0.793400	0.183800	0.931400
C951	C95	0.841300	0.218700	0.858200
H891	H89	0.850600	0.195200	0.788700
H901	H90	0.824900	0.258800	0.836400
H911	H91	0.878800	0.224400	0.903300
O141	O14	0.701300	0.376220	0.920700
N141	N14	0.797600	0.503200	0.090000
C961	C96	0.824000	0.552900	0.037900
H921	H92	0.817200	0.558900	0.958100
C971	C97	0.860500	0.595200	0.096900
H931	H93	0.877300	0.629400	0.057900
C981	C98	0.872200	0.585900	0.216200
C991	C99	0.844400	0.534600	0.271200
H941	H94	0.850300	0.527300	0.350900
C1001	C100	0.808000	0.495200	0.204300
H951	H95	0.789800	0.461100	0.241100
C1011	C101	0.706600	0.316200	0.931400
C1021	C102	0.658700	0.281300	0.858200
H961	H96	0.649400	0.304800	0.788700
H971	H97	0.675100	0.241200	0.836400
H981	H98	0.621200	0.275600	0.903300
O151	O15	0.123780	0.701300	0.420700
N151	N15	0.996800	0.797600	0.590000
C1031	C103	0.947100	0.824000	0.537900
H991	H99	0.941100	0.817200	0.458100
C1041	C104	0.904800	0.860500	0.596900
H1001	H100	0.870600	0.877300	0.557900
C1051	C105	0.914100	0.872200	0.716200
C1061	C106	0.965400	0.844400	0.771200
H1011	H101	0.972700	0.850300	0.850900
C1071	C107	0.004800	0.808000	0.704300
H1021	H102	0.038900	0.789800	0.741100
C1081	C108	0.183800	0.706600	0.431400
C1091	C109	0.218700	0.658700	0.358200
H1031	H103	0.195200	0.649400	0.288700
H1041	H104	0.258800	0.675100	0.336400
H1051	H105	0.224400	0.621200	0.403300
O161	O16	0.376220	0.798700	0.420700
N161	N16	0.503200	0.702400	0.590000
C1101	C110	0.552900	0.676000	0.537900
H1061	H106	0.558900	0.682800	0.458100
C1111	C111	0.595200	0.639500	0.596900
H1071	H107	0.629400	0.622700	0.557900
C1121	C112	0.585900	0.627800	0.716200
C1131	C113	0.534600	0.655600	0.771200
H1081	H108	0.527300	0.649700	0.850900
C1141	C114	0.495200	0.692000	0.704300
H1091	H109	0.461100	0.710200	0.741100
C1151	C115	0.316200	0.793400	0.431400
C1161	C116	0.281300	0.841300	0.358200
H1101	H110	0.304800	0.850600	0.288700
H1111	H111	0.241200	0.824900	0.336400
H1121	H112	0.275600	0.878800	0.403300
Cu51	Cu5	0.750000	0.061940	0.000000
C1171	C117	0.750000	0.214600	0.000000
Cu61	Cu6	0.750000	0.438060	0.000000
C1181	C118	0.750000	0.285400	0.000000
Cu71	Cu7	0.438060	0.750000	0.500000
C1191	C119	0.285400	0.750000	0.500000
Cu81	Cu8	0.061940	0.750000	0.500000
C1201	C120	0.214600	0.750000	0.500000
