data_LEQQEE_freeONLY_PM
_symmetry_space_group_name_H-M	'P1'
_cell_length_a	10.043000
_cell_length_b	31.429000
_cell_length_c	11.821000
_cell_angle_alpha	90.000000
_cell_angle_beta	92.980000
_cell_angle_gamma	90.000000
_symmetry_Int_Tables_number 1

loop_
_symmetry_equiv_pos_as_xyz
'x,y,z'

loop_
_atom_site_label
_atom_site_type_symbol
_atom_site_fract_x
_atom_site_fract_y
_atom_site_fract_z
Cu11	Cu1	0.330250	0.874460	0.304860
Cu21	Cu2	0.180250	0.122320	0.261300
O11	O1	0.404000	0.917830	0.212100
O21	O2	0.270900	0.915000	0.410000
O31	O3	0.101400	0.072010	0.197000
O41	O4	0.314300	0.092640	0.348800
N11	N1	0.415100	0.829860	0.207400
N21	N2	0.739700	0.671040	0.896700
N31	N3	0.255300	0.174780	0.337100
N41	N4	0.570800	0.340650	0.653700
C11	C1	0.417000	0.983100	0.117200
H11	H1	0.487500	0.001400	0.145800
H21	H2	0.345300	0.000100	0.084600
H31	H3	0.450000	0.964600	0.060300
C21	C2	0.367900	0.957300	0.210700
C31	C3	0.294600	0.976300	0.295000
C41	C4	0.252400	0.954400	0.388300
C51	C5	0.175500	0.977700	0.476600
H41	H4	0.086400	0.983200	0.447000
H51	H5	0.219200	0.004100	0.495300
H61	H6	0.172400	0.960400	0.543500
C61	C6	0.056000	0.999300	0.167600
H71	H7	0.975200	0.011300	0.134200
H81	H8	0.034600	0.979600	0.225900
H91	H9	0.103000	0.984800	0.110500
C71	C7	0.142200	0.034400	0.218000
C81	C8	0.259900	0.022900	0.282300
C91	C9	0.340000	0.053100	0.339200
C101	C10	0.471800	0.040900	0.398700
H101	H10	0.534700	0.063600	0.391300
H111	H11	0.505200	0.015500	0.365000
H121	H12	0.458900	0.035800	0.477500
C111	C11	0.430000	0.834500	0.097900
H131	H13	0.396700	0.858900	0.062600
C121	C12	0.493500	0.804400	0.032500
H141	H14	0.501800	0.809000	0.955500
C131	C13	0.544000	0.767500	0.083100
C141	C14	0.528000	0.762900	0.198900
H151	H15	0.559400	0.738600	0.236500
C151	C15	0.465700	0.794400	0.257200
H161	H16	0.458100	0.791000	0.334800
C161	C16	0.612000	0.733900	0.018500
C171	C17	0.591600	0.730400	0.903900
H171	H17	0.534100	0.749200	0.865000
C181	C18	0.656200	0.699300	0.845800
H181	H18	0.641200	0.697700	0.767600
C191	C19	0.757200	0.673600	0.008000
H191	H19	0.812300	0.653600	0.045000
C201	C20	0.698100	0.704400	0.072800
H201	H20	0.715200	0.705400	0.150900
C211	C21	0.377500	0.189600	0.311200
H211	H21	0.423900	0.175800	0.255900
C221	C22	0.434100	0.224600	0.365200
H221	H22	0.515000	0.235000	0.342100
C231	C23	0.373300	0.244400	0.452500
C241	C24	0.251200	0.227800	0.482300
H231	H23	0.207100	0.239200	0.542600
C251	C25	0.197000	0.193900	0.419900
H241	H24	0.113400	0.184100	0.438200
C261	C26	0.438300	0.279300	0.518100
C271	C27	0.575200	0.285300	0.515800
H251	H25	0.625100	0.269000	0.467900
C281	C28	0.636200	0.315300	0.584500
H261	H26	0.728200	0.318300	0.583000
C291	C29	0.436100	0.336200	0.652300
H271	H27	0.387700	0.353800	0.698300
C301	C30	0.369200	0.306700	0.585400
H281	H28	0.276700	0.305100	0.585200
Cu31	Cu3	0.830250	0.625540	0.804860
Cu41	Cu4	0.680250	0.377680	0.761300
O51	O5	0.904000	0.582170	0.712100
O61	O6	0.770900	0.585000	0.910000
O71	O7	0.601400	0.427990	0.697000
O81	O8	0.814300	0.407360	0.848800
N51	N5	0.915100	0.670140	0.707400
N61	N6	0.239700	0.828960	0.396700
N71	N7	0.755300	0.325220	0.837100
N81	N8	0.070800	0.159350	0.153700
C311	C31	0.917000	0.516900	0.617200
H291	H29	0.987500	0.498600	0.645800
H301	H30	0.845300	0.499900	0.584600
H311	H31	0.950000	0.535400	0.560300
C321	C32	0.867900	0.542700	0.710700
C331	C33	0.794600	0.523700	0.795000
C341	C34	0.752400	0.545600	0.888300
C351	C35	0.675500	0.522300	0.976600
H321	H32	0.586400	0.516800	0.947000
H331	H33	0.719200	0.495900	0.995300
H341	H34	0.672400	0.539600	0.043500
C361	C36	0.556000	0.500700	0.667600
H351	H35	0.475200	0.488700	0.634200
H361	H36	0.534600	0.520400	0.725900
H371	H37	0.603000	0.515200	0.610500
C371	C37	0.642200	0.465600	0.718000
C381	C38	0.759900	0.477100	0.782300
C391	C39	0.840000	0.446900	0.839200
C401	C40	0.971800	0.459100	0.898700
H381	H38	0.034700	0.436400	0.891300
H391	H39	0.005200	0.484500	0.865000
H401	H40	0.958900	0.464200	0.977500
C411	C41	0.930000	0.665500	0.597900
H411	H41	0.896700	0.641100	0.562600
C421	C42	0.993500	0.695600	0.532500
H421	H42	0.001800	0.691000	0.455500
C431	C43	0.044000	0.732500	0.583100
C441	C44	0.028000	0.737100	0.698900
H431	H43	0.059400	0.761400	0.736500
C451	C45	0.965700	0.705600	0.757200
H441	H44	0.958100	0.709000	0.834800
C461	C46	0.112000	0.766100	0.518500
C471	C47	0.091600	0.769600	0.403900
H451	H45	0.034100	0.750800	0.365000
C481	C48	0.156200	0.800700	0.345800
H461	H46	0.141200	0.802300	0.267600
C491	C49	0.257200	0.826400	0.508000
H471	H47	0.312300	0.846400	0.545000
C501	C50	0.198100	0.795600	0.572800
H481	H48	0.215200	0.794600	0.650900
C511	C51	0.877500	0.310400	0.811200
H491	H49	0.923900	0.324200	0.755900
C521	C52	0.934100	0.275400	0.865200
H501	H50	0.015000	0.265000	0.842100
C531	C53	0.873300	0.255600	0.952500
C541	C54	0.751200	0.272200	0.982300
H511	H51	0.707100	0.260800	0.042600
C551	C55	0.697000	0.306100	0.919900
H521	H52	0.613400	0.315900	0.938200
C561	C56	0.938300	0.220700	0.018100
C571	C57	0.075200	0.214700	0.015800
H531	H53	0.125100	0.231000	0.967900
C581	C58	0.136200	0.184700	0.084500
H541	H54	0.228200	0.181700	0.083000
C591	C59	0.936100	0.163800	0.152300
H551	H55	0.887700	0.146200	0.198300
C601	C60	0.869200	0.193300	0.085400
H561	H56	0.776700	0.194900	0.085200
Cu51	Cu5	0.169750	0.374460	0.195140
Cu61	Cu6	0.319750	0.622320	0.238700
O91	O9	0.096000	0.417830	0.287900
O101	O10	0.229100	0.415000	0.090000
O111	O11	0.398600	0.572010	0.303000
O121	O12	0.185700	0.592640	0.151200
N91	N9	0.084900	0.329860	0.292600
N101	N10	0.760300	0.171040	0.603300
N111	N11	0.244700	0.674780	0.162900
N121	N12	0.929200	0.840650	0.846300
C611	C61	0.083000	0.483100	0.382800
H571	H57	0.012500	0.501400	0.354200
H581	H58	0.154700	0.500100	0.415400
H591	H59	0.050000	0.464600	0.439700
C621	C62	0.132100	0.457300	0.289300
C631	C63	0.205400	0.476300	0.205000
C641	C64	0.247600	0.454400	0.111700
C651	C65	0.324500	0.477700	0.023400
H601	H60	0.413600	0.483200	0.053000
H611	H61	0.280800	0.504100	0.004700
H621	H62	0.327600	0.460400	0.956500
C661	C66	0.444000	0.499300	0.332400
H631	H63	0.524800	0.511300	0.365800
H641	H64	0.465400	0.479600	0.274100
H651	H65	0.397000	0.484800	0.389500
C671	C67	0.357800	0.534400	0.282000
C681	C68	0.240100	0.522900	0.217700
C691	C69	0.160000	0.553100	0.160800
C701	C70	0.028200	0.540900	0.101300
H661	H66	0.965300	0.563600	0.108700
H671	H67	0.994800	0.515500	0.135000
H681	H68	0.041100	0.535800	0.022500
C711	C71	0.070000	0.334500	0.402100
H691	H69	0.103300	0.358900	0.437400
C721	C72	0.006500	0.304400	0.467500
H701	H70	0.998200	0.309000	0.544500
C731	C73	0.956000	0.267500	0.416900
C741	C74	0.972000	0.262900	0.301100
H711	H71	0.940600	0.238600	0.263500
C751	C75	0.034300	0.294400	0.242800
H721	H72	0.041900	0.291000	0.165200
C761	C76	0.888000	0.233900	0.481500
C771	C77	0.908400	0.230400	0.596100
H731	H73	0.965900	0.249200	0.635000
C781	C78	0.843800	0.199300	0.654200
H741	H74	0.858800	0.197700	0.732400
C791	C79	0.742800	0.173600	0.492000
H751	H75	0.687700	0.153600	0.455000
C801	C80	0.801900	0.204400	0.427200
H761	H76	0.784800	0.205400	0.349100
C811	C81	0.122500	0.689600	0.188800
H771	H77	0.076100	0.675800	0.244100
C821	C82	0.065900	0.724600	0.134800
H781	H78	0.985000	0.735000	0.157900
C831	C83	0.126700	0.744400	0.047500
C841	C84	0.248800	0.727800	0.017700
H791	H79	0.292900	0.739200	0.957400
C851	C85	0.303000	0.693900	0.080100
H801	H80	0.386600	0.684100	0.061800
C861	C86	0.061700	0.779300	0.981900
C871	C87	0.924800	0.785300	0.984200
H811	H81	0.874900	0.769000	0.032100
C881	C88	0.863800	0.815300	0.915500
H821	H82	0.771800	0.818300	0.917000
C891	C89	0.063900	0.836200	0.847700
H831	H83	0.112300	0.853800	0.801700
C901	C90	0.130800	0.806700	0.914600
H841	H84	0.223300	0.805100	0.914800
Cu71	Cu7	0.669750	0.125540	0.695140
Cu81	Cu8	0.819750	0.877680	0.738700
O131	O13	0.596000	0.082170	0.787900
O141	O14	0.729100	0.085000	0.590000
O151	O15	0.898600	0.927990	0.803000
O161	O16	0.685700	0.907360	0.651200
N131	N13	0.584900	0.170140	0.792600
N141	N14	0.260300	0.328960	0.103300
N151	N15	0.744700	0.825220	0.662900
N161	N16	0.429200	0.659350	0.346300
C911	C91	0.583000	0.016900	0.882800
H851	H85	0.512500	0.998600	0.854200
H861	H86	0.654700	0.999900	0.915400
H871	H87	0.550000	0.035400	0.939700
C921	C92	0.632100	0.042700	0.789300
C931	C93	0.705400	0.023700	0.705000
C941	C94	0.747600	0.045600	0.611700
C951	C95	0.824500	0.022300	0.523400
H881	H88	0.913600	0.016800	0.553000
H891	H89	0.780800	0.995900	0.504700
H901	H90	0.827600	0.039600	0.456500
C961	C96	0.944000	0.000700	0.832400
H911	H91	0.024800	0.988700	0.865800
H921	H92	0.965400	0.020400	0.774100
H931	H93	0.897000	0.015200	0.889500
C971	C97	0.857800	0.965600	0.782000
C981	C98	0.740100	0.977100	0.717700
C991	C99	0.660000	0.946900	0.660800
C1001	C100	0.528200	0.959100	0.601300
H941	H94	0.465300	0.936400	0.608700
H951	H95	0.494800	0.984500	0.635000
H961	H96	0.541100	0.964200	0.522500
C1011	C101	0.570000	0.165500	0.902100
H971	H97	0.603300	0.141100	0.937400
C1021	C102	0.506500	0.195600	0.967500
H981	H98	0.498200	0.191000	0.044500
C1031	C103	0.456000	0.232500	0.916900
C1041	C104	0.472000	0.237100	0.801100
H991	H99	0.440600	0.261400	0.763500
C1051	C105	0.534300	0.205600	0.742800
H1001	H100	0.541900	0.209000	0.665200
C1061	C106	0.388000	0.266100	0.981500
C1071	C107	0.408400	0.269600	0.096100
H1011	H101	0.465900	0.250800	0.135000
C1081	C108	0.343800	0.300700	0.154200
H1021	H102	0.358800	0.302300	0.232400
C1091	C109	0.242800	0.326400	0.992000
H1031	H103	0.187700	0.346400	0.955000
C1101	C110	0.301900	0.295600	0.927200
H1041	H104	0.284800	0.294600	0.849100
C1111	C111	0.622500	0.810400	0.688800
H1051	H105	0.576100	0.824200	0.744100
C1121	C112	0.565900	0.775400	0.634800
H1061	H106	0.485000	0.765000	0.657900
C1131	C113	0.626700	0.755600	0.547500
C1141	C114	0.748800	0.772200	0.517700
H1071	H107	0.792900	0.760800	0.457400
C1151	C115	0.803000	0.806100	0.580100
H1081	H108	0.886600	0.815900	0.561800
C1161	C116	0.561700	0.720700	0.481900
C1171	C117	0.424800	0.714700	0.484200
H1091	H109	0.374900	0.731000	0.532100
C1181	C118	0.363800	0.684700	0.415500
H1101	H110	0.271800	0.681700	0.417000
C1191	C119	0.563900	0.663800	0.347700
H1111	H111	0.612300	0.646200	0.301700
C1201	C120	0.630800	0.693300	0.414600
H1121	H112	0.723300	0.694900	0.414800
