data_LEVYOC_freeONLY_PM
_symmetry_space_group_name_H-M	'P1'
_cell_length_a	8.017330
_cell_length_b	15.505200
_cell_length_c	18.323200
_cell_angle_alpha	74.631100
_cell_angle_beta	77.362900
_cell_angle_gamma	75.016800
_symmetry_Int_Tables_number 1

loop_
_symmetry_equiv_pos_as_xyz
'x,y,z'

loop_
_atom_site_label
_atom_site_type_symbol
_atom_site_fract_x
_atom_site_fract_y
_atom_site_fract_z
Co11	Co1	0.145220	0.873240	0.897600
Co21	Co2	0.822030	0.978060	0.993540
Co31	Co3	0.882740	0.748850	0.986830
Co41	Co4	0.916060	0.626760	0.602400
Co51	Co5	0.793630	0.521940	0.506460
Co61	Co6	0.618420	0.751150	0.513170
Co71	Co7	0.854780	0.126760	0.102400
Co81	Co8	0.177970	0.021940	0.006460
Co91	Co9	0.117260	0.251150	0.013170
Co101	Co10	0.083940	0.373240	0.397600
Co111	Co11	0.206370	0.478060	0.493540
Co121	Co12	0.381580	0.248850	0.486830
H11	H1	0.042400	0.821800	0.047600
H21	H2	0.045200	0.055000	0.878600
H31	H3	0.281900	0.976100	0.776700
H41	H4	0.501900	0.725000	0.865800
H51	H5	0.671900	0.691600	0.895000
H61	H6	0.514700	0.944000	0.085200
H71	H7	0.642600	0.858400	0.100200
H81	H8	0.595900	0.325100	0.249300
H91	H9	0.888800	0.489400	0.099400
H101	H10	0.565100	0.576300	0.278900
H111	H11	0.128100	0.864000	0.735000
H121	H12	0.154900	0.959000	0.682600
H131	H13	0.316300	0.877000	0.694400
H141	H14	0.911800	0.678200	0.452400
H151	H15	0.978800	0.445000	0.621400
H161	H16	0.034700	0.523900	0.723300
H171	H17	0.092700	0.775000	0.634200
H181	H18	0.258500	0.808400	0.605000
H191	H19	0.543900	0.556000	0.414800
H201	H20	0.601200	0.641600	0.399800
H211	H21	0.170300	0.174900	0.250700
H221	H22	0.477600	0.010600	0.400600
H231	H23	0.420300	0.923700	0.221100
H241	H24	0.727100	0.636000	0.765000
H251	H25	0.796500	0.541000	0.817400
H261	H26	0.887700	0.623000	0.805600
H271	H27	0.957600	0.178200	0.952400
H281	H28	0.954800	0.945000	0.121400
H291	H29	0.718100	0.023900	0.223300
H301	H30	0.498100	0.275000	0.134200
H311	H31	0.328100	0.308400	0.105000
H321	H32	0.485300	0.056000	0.914800
H331	H33	0.357400	0.141600	0.899800
H341	H34	0.404100	0.674900	0.750700
H351	H35	0.111200	0.510600	0.900600
H361	H36	0.434900	0.423700	0.721100
H371	H37	0.871900	0.136000	0.265000
H381	H38	0.845100	0.041000	0.317400
H391	H39	0.683700	0.123000	0.305600
H401	H40	0.088200	0.321800	0.547600
H411	H41	0.021200	0.555000	0.378600
H421	H42	0.965300	0.476100	0.276700
H431	H43	0.907300	0.225000	0.365800
H441	H44	0.741500	0.191600	0.395000
H451	H45	0.456100	0.444000	0.585200
H461	H46	0.398800	0.358400	0.600200
H471	H47	0.829700	0.825100	0.749300
H481	H48	0.522400	0.989400	0.599400
H491	H49	0.579700	0.076300	0.778900
H501	H50	0.272900	0.364000	0.235000
H511	H51	0.203500	0.459000	0.182600
H521	H52	0.112300	0.377000	0.194400
C11	C1	0.519480	0.790540	0.939700
C21	C2	0.528870	0.868560	0.017100
C31	C3	0.560480	0.448240	0.275600
C41	C4	0.631360	0.380580	0.233500
C51	C5	0.755290	0.396220	0.167800
C61	C6	0.806670	0.478860	0.143400
C71	C7	0.734600	0.546200	0.185200
C81	C8	0.612160	0.530880	0.251200
C91	C9	0.428810	0.431180	0.347000
C101	C10	0.840760	0.322280	0.124200
C111	C11	0.204900	0.906300	0.718500
C121	C12	0.249720	0.709460	0.560300
C131	C13	0.414530	0.631440	0.482900
C141	C14	0.284320	0.051760	0.224400
C151	C15	0.245440	0.119420	0.266500
C161	C16	0.319310	0.103780	0.332200
C171	C17	0.428930	0.021140	0.356600
C181	C18	0.466000	0.953800	0.314800
C191	C19	0.394240	0.969120	0.248800
C201	C20	0.206990	0.068820	0.153000
C211	C21	0.287240	0.177720	0.375800
C221	C22	0.829700	0.593700	0.781500
C231	C23	0.480520	0.209460	0.060300
C241	C24	0.471130	0.131440	0.982900
C251	C25	0.439520	0.551760	0.724400
C261	C26	0.368640	0.619420	0.766500
C271	C27	0.244710	0.603780	0.832200
C281	C28	0.193330	0.521140	0.856600
C291	C29	0.265400	0.453800	0.814800
C301	C30	0.387840	0.469120	0.748800
C311	C31	0.571190	0.568820	0.653000
C321	C32	0.159240	0.677720	0.875800
C331	C33	0.795100	0.093700	0.281500
C341	C34	0.750280	0.290540	0.439700
C351	C35	0.585470	0.368560	0.517100
C361	C36	0.715680	0.948240	0.775600
C371	C37	0.754560	0.880580	0.733500
C381	C38	0.680690	0.896220	0.667800
C391	C39	0.571070	0.978860	0.643400
C401	C40	0.534000	0.046200	0.685200
C411	C41	0.605760	0.030880	0.751200
C421	C42	0.793010	0.931180	0.847000
C431	C43	0.712760	0.822280	0.624200
C441	C44	0.170300	0.406300	0.218500
S11	S1	0.819600	0.645700	0.162540
S21	S2	0.627840	0.854300	0.337460
S31	S3	0.180400	0.354300	0.837460
S41	S4	0.372160	0.145700	0.662540
N11	N1	0.373550	0.900850	0.996050
N21	N2	0.367450	0.849760	0.943740
N31	N3	0.626350	0.798850	0.984450
N41	N4	0.570670	0.728060	0.894600
N51	N5	0.600000	0.904210	0.062790
N61	N6	0.270450	0.599150	0.503950
N71	N7	0.160950	0.650240	0.556260
N81	N8	0.409650	0.701150	0.515550
N91	N9	0.193330	0.771940	0.605400
N101	N10	0.567000	0.595790	0.437210
N111	N11	0.626450	0.099150	0.003950
N121	N12	0.632550	0.150240	0.056260
N131	N13	0.373650	0.201150	0.015550
N141	N14	0.429330	0.271940	0.105400
N151	N15	0.400000	0.095790	0.937210
N161	N16	0.729550	0.400850	0.496050
N171	N17	0.839050	0.349760	0.443740
N181	N18	0.590350	0.298850	0.484450
N191	N19	0.806670	0.228060	0.394600
N201	N20	0.433000	0.404210	0.562790
O11	O1	0.396900	0.483780	0.392220
O21	O2	0.360920	0.363250	0.358110
O31	O3	0.767980	0.256790	0.133850
O41	O4	0.984170	0.332310	0.080550
O51	O5	0.934960	0.627930	0.217550
O61	O6	0.916950	0.649600	0.084100
O71	O7	0.677190	0.722540	0.167680
O81	O8	0.980790	0.842030	0.003390
O91	O9	0.058140	0.003650	0.923070
O101	O10	0.227600	0.933770	0.782630
O111	O11	0.272900	0.016220	0.107780
O121	O12	0.082280	0.136750	0.141890
O131	O13	0.158620	0.243210	0.366150
O141	O14	0.397030	0.167690	0.419450
O151	O15	0.780440	0.872070	0.282450
O161	O16	0.650650	0.850400	0.415900
O171	O17	0.567410	0.777460	0.332320
O181	O18	0.826210	0.657970	0.496610
O191	O19	0.984860	0.496350	0.576930
O201	O20	0.944000	0.566230	0.717370
O211	O21	0.603100	0.516220	0.607780
O221	O22	0.639080	0.636750	0.641890
O231	O23	0.232020	0.743210	0.866150
O241	O24	0.015830	0.667690	0.919450
O251	O25	0.065040	0.372070	0.782450
O261	O26	0.083050	0.350400	0.915900
O271	O27	0.322810	0.277460	0.832320
O281	O28	0.019210	0.157970	0.996610
O291	O29	0.941860	0.996350	0.076930
O301	O30	0.772400	0.066230	0.217370
O311	O31	0.727100	0.983780	0.892220
O321	O32	0.917720	0.863250	0.858110
O331	O33	0.841380	0.756790	0.633850
O341	O34	0.602970	0.832310	0.580550
O351	O35	0.219560	0.127930	0.717550
O361	O36	0.349350	0.149600	0.584100
O371	O37	0.432590	0.222540	0.667680
O381	O38	0.173790	0.342030	0.503390
O391	O39	0.015140	0.503650	0.423070
O401	O40	0.056000	0.433770	0.282630
