data_LEWVAL_freeONLY_PM
_symmetry_space_group_name_H-M	'P1'
_cell_length_a	10.059700
_cell_length_b	12.773000
_cell_length_c	12.994800
_cell_angle_alpha	70.917800
_cell_angle_beta	67.228100
_cell_angle_gamma	66.809700
_symmetry_Int_Tables_number 1

loop_
_symmetry_equiv_pos_as_xyz
'x,y,z'

loop_
_atom_site_label
_atom_site_type_symbol
_atom_site_fract_x
_atom_site_fract_y
_atom_site_fract_z
Co11	Co1	0.966650	0.614680	0.896880
Co21	Co2	0.317650	0.666810	0.764030
Co31	Co3	0.478210	0.885320	0.603120
Co41	Co4	0.748490	0.833190	0.735970
Co51	Co5	0.033350	0.385320	0.103120
Co61	Co6	0.682350	0.333190	0.235970
Co71	Co7	0.521790	0.114680	0.396880
Co81	Co8	0.251510	0.166810	0.264030
H11	H1	0.102700	0.389900	0.650100
H21	H2	0.208500	0.256600	0.536800
H31	H3	0.612200	0.230100	0.518500
H41	H4	0.517600	0.370900	0.625100
H51	H5	0.136800	0.956300	0.739300
H61	H6	0.019200	0.019200	0.594400
H71	H7	0.137800	0.915800	0.537000
H81	H8	0.142700	0.110100	0.849900
H91	H9	0.001900	0.243400	0.963200
H101	H10	0.360800	0.269900	0.981500
H111	H11	0.513600	0.129100	0.874900
H121	H12	0.832400	0.543700	0.760700
H131	H13	0.632800	0.480800	0.905600
H141	H14	0.590600	0.584200	0.963000
H151	H15	0.897300	0.610100	0.349900
H161	H16	0.791500	0.743400	0.463200
H171	H17	0.387800	0.769900	0.481500
H181	H18	0.482400	0.629100	0.374900
H191	H19	0.863200	0.043700	0.260700
H201	H20	0.980800	0.980800	0.405600
H211	H21	0.862200	0.084200	0.463000
H221	H22	0.857300	0.889900	0.150100
H231	H23	0.998100	0.756600	0.036800
H241	H24	0.639200	0.730100	0.018500
H251	H25	0.486400	0.870900	0.125100
H261	H26	0.167600	0.456300	0.239300
H271	H27	0.367200	0.519200	0.094400
H281	H28	0.409400	0.415800	0.037000
C11	C1	0.236100	0.486900	0.721700
C21	C2	0.300100	0.396200	0.649800
C31	C3	0.207100	0.359900	0.622500
C41	C4	0.272300	0.279700	0.554500
C51	C5	0.508200	0.263800	0.544200
C61	C6	0.451500	0.348100	0.609700
C71	C7	0.033300	0.838900	0.749900
C81	C8	0.152200	0.902900	0.693100
C91	C9	0.124400	0.971300	0.579100
C101	C10	0.220200	0.049000	0.502400
C111	C11	0.444700	0.013100	0.778300
C121	C12	0.346100	0.103800	0.850200
C131	C13	0.189500	0.140100	0.877500
C141	C14	0.106500	0.220300	0.945500
C151	C15	0.316200	0.236200	0.955800
C161	C16	0.409300	0.151900	0.890300
C171	C17	0.622100	0.661100	0.750100
C181	C18	0.748200	0.597100	0.806900
C191	C19	0.674800	0.528700	0.920900
C201	C20	0.771600	0.451000	0.997600
C211	C21	0.763900	0.513100	0.278300
C221	C22	0.699900	0.603800	0.350200
C231	C23	0.792900	0.640100	0.377500
C241	C24	0.727700	0.720300	0.445500
C251	C25	0.491800	0.736200	0.455800
C261	C26	0.548500	0.651900	0.390300
C271	C27	0.966700	0.161100	0.250100
C281	C28	0.847800	0.097100	0.306900
C291	C29	0.875600	0.028700	0.420900
C301	C30	0.779800	0.951000	0.497600
C311	C31	0.555300	0.986900	0.221700
C321	C32	0.653900	0.896200	0.149800
C331	C33	0.810500	0.859900	0.122500
C341	C34	0.893500	0.779700	0.054500
C351	C35	0.683800	0.763800	0.044200
C361	C36	0.590700	0.848100	0.109700
C371	C37	0.377900	0.338900	0.249900
C381	C38	0.251800	0.402900	0.193100
C391	C39	0.325200	0.471300	0.079100
C401	C40	0.228400	0.549000	0.002400
N11	N1	0.420760	0.230080	0.515400
N21	N2	0.166240	0.269920	0.984600
N31	N3	0.579240	0.769920	0.484600
N41	N4	0.833760	0.730080	0.015400
O11	O1	0.330670	0.530460	0.717800
O21	O2	0.101130	0.507140	0.779200
O31	O3	0.080730	0.734440	0.793900
O41	O4	0.896680	0.893740	0.758500
O51	O5	0.299730	0.824340	0.676000
O61	O6	0.358730	0.023640	0.496700
O71	O7	0.158710	0.128280	0.433100
O81	O8	0.578930	0.969540	0.782200
O91	O9	0.387470	0.992860	0.720800
O101	O10	0.609070	0.765560	0.706100
O111	O11	0.548920	0.606260	0.741500
O121	O12	0.800070	0.675660	0.824000
O131	O13	0.879070	0.476360	0.003300
O141	O14	0.720090	0.371720	0.066900
O151	O15	0.669330	0.469540	0.282200
O161	O16	0.898870	0.492860	0.220800
O171	O17	0.919270	0.265560	0.206100
O181	O18	0.103320	0.106260	0.241500
O191	O19	0.700270	0.175660	0.324000
O201	O20	0.641270	0.976360	0.503300
O211	O21	0.841290	0.871720	0.566900
O221	O22	0.421070	0.030460	0.217800
O231	O23	0.612530	0.007140	0.279200
O241	O24	0.390930	0.234440	0.293900
O251	O25	0.451080	0.393740	0.258500
O261	O26	0.199930	0.324340	0.176000
O271	O27	0.120930	0.523640	0.996700
O281	O28	0.279910	0.628280	0.933100
