data_LEYLUX_freeONLY_PM
_symmetry_space_group_name_H-M	'P1'
_cell_length_a	15.873000
_cell_length_b	16.906100
_cell_length_c	22.829700
_cell_angle_alpha	90.000000
_cell_angle_beta	90.000000
_cell_angle_gamma	90.000000
_symmetry_Int_Tables_number 1

loop_
_symmetry_equiv_pos_as_xyz
'x,y,z'

loop_
_atom_site_label
_atom_site_type_symbol
_atom_site_fract_x
_atom_site_fract_y
_atom_site_fract_z
Ag11	Ag1	0.312110	0.793030	0.801750
Ag21	Ag2	0.600410	0.803810	0.811860
Ag31	Ag3	0.887220	0.848020	0.822440
Cu11	Cu1	0.042810	0.881700	0.499960
Cu21	Cu2	0.375740	0.878440	0.488750
C11	C1	0.984700	0.762200	0.571480
C21	C2	0.073800	0.775200	0.596040
H11	H1	0.106000	0.726600	0.589200
C31	C3	0.073700	0.791000	0.661740
H21	H2	0.037200	0.753000	0.681000
H31	H3	0.051500	0.843500	0.669200
C41	C4	0.162500	0.784700	0.687260
H41	H4	0.201800	0.810500	0.660900
H51	H5	0.178200	0.729300	0.689800
C51	C5	0.174600	0.932300	0.740400
H61	H6	0.179500	0.963300	0.775500
H71	H7	0.123800	0.946500	0.720100
H81	H8	0.222200	0.942200	0.715600
C61	C6	0.323100	0.755600	0.558690
C71	C7	0.406900	0.777700	0.588550
H91	H9	0.443400	0.731000	0.588500
C81	C8	0.390800	0.801800	0.652410
H101	H10	0.368800	0.855300	0.653500
H111	H11	0.348800	0.767000	0.669300
C91	C9	0.471000	0.797600	0.688500
H121	H12	0.514700	0.827500	0.668600
H131	H13	0.489300	0.743000	0.690500
C101	C10	0.456000	0.940900	0.750600
H141	H14	0.450100	0.967600	0.787500
H151	H15	0.408700	0.953300	0.726100
H161	H16	0.507000	0.957900	0.731800
C111	C11	0.649300	0.754300	0.561520
C121	C12	0.728800	0.773600	0.596540
H171	H17	0.763700	0.726000	0.599700
C131	C13	0.701400	0.799600	0.658010
H181	H18	0.675600	0.851600	0.655600
H191	H19	0.659300	0.763000	0.672600
C141	C14	0.774100	0.802700	0.700480
H201	H20	0.819800	0.832500	0.682900
H211	H21	0.794100	0.749300	0.707500
C151	C15	0.732300	0.949000	0.747900
H221	H22	0.716700	0.980100	0.781400
H231	H23	0.688600	0.952000	0.718900
H241	H24	0.784000	0.968900	0.731800
C161	C16	0.513300	0.008300	0.920670
C171	C17	0.443500	0.965000	0.953640
C181	C18	0.401000	0.901200	0.917280
H251	H25	0.443200	0.864200	0.903400
H261	H26	0.374700	0.925300	0.883300
C191	C19	0.334500	0.856400	0.952320
H271	H27	0.290700	0.893200	0.964000
H281	H28	0.360300	0.835900	0.987700
C201	C20	0.358700	0.696700	0.930400
H291	H29	0.340400	0.648600	0.911900
H301	H30	0.360300	0.689300	0.972100
H311	H31	0.414000	0.710200	0.916600
C211	C21	0.836300	0.010700	0.917040
C221	C22	0.770500	0.967200	0.954390
H321	H32	0.801100	0.941800	0.986500
C231	C23	0.724900	0.901700	0.921250
H331	H33	0.695400	0.924700	0.888200
H341	H34	0.766300	0.864800	0.906000
C241	C24	0.662000	0.856500	0.958890
H351	H35	0.619800	0.893200	0.973100
H361	H36	0.691400	0.835200	0.992700
C251	C25	0.690400	0.701900	0.924000
H371	H37	0.670700	0.654600	0.905300
H381	H38	0.704200	0.690600	0.964100
H391	H39	0.739700	0.721000	0.904100
C261	C26	0.316100	0.986700	0.409600
C271	C27	0.389900	0.029200	0.439500
C281	C28	0.432200	0.092900	0.403300
H401	H40	0.389500	0.124800	0.384100
H411	H41	0.466600	0.068500	0.373200
C291	C29	0.486900	0.145600	0.441600
H421	H42	0.526000	0.112100	0.462800
H431	H43	0.450900	0.171000	0.470300
C301	C30	0.466200	0.287200	0.376800
H441	H44	0.491900	0.330300	0.356000
H451	H45	0.433900	0.307600	0.409000
H461	H46	0.429800	0.258500	0.350800
N11	N1	0.116200	0.839900	0.563660
H471	H47	0.164600	0.821700	0.548100
H481	H48	0.129000	0.879300	0.588600
N21	N2	0.449000	0.841100	0.554730
H491	H49	0.498000	0.822700	0.540200
H501	H50	0.460800	0.882000	0.578600
N31	N3	0.777200	0.836400	0.566620
H511	H51	0.826900	0.816700	0.554400
H521	H52	0.787900	0.875900	0.592000
N41	N4	0.386000	0.024900	0.979340
N51	N5	0.715330	0.027200	0.981010
H531	H53	0.692400	0.008500	0.014300
H541	H54	0.673500	0.040200	0.956200
N61	N6	0.448000	0.967300	0.461700
O11	O1	0.960790	0.806430	0.529790
O21	O2	0.940580	0.708300	0.591440
O31	O3	0.297070	0.798060	0.516570
O41	O4	0.283730	0.697230	0.576780
O51	O5	0.628380	0.801330	0.520350
O61	O6	0.606980	0.695530	0.575340
O71	O7	0.548010	0.977100	0.878510
O81	O8	0.534770	0.075590	0.941490
O91	O9	0.857560	0.079480	0.935150
O101	O10	0.866960	0.980000	0.873310
O111	O11	0.273800	0.021400	0.372760
O121	O12	0.298830	0.917580	0.428330
O131	O13	0.958900	0.928200	0.753430
S11	S1	0.171240	0.829090	0.759140
S21	S2	0.460110	0.835520	0.762760
S31	S3	0.746520	0.847690	0.769850
S41	S4	0.286540	0.775140	0.912850
S51	S5	0.609270	0.776190	0.921450
S61	S6	0.547160	0.221800	0.404280
H551	H55	0.949000	0.926200	0.716400
H561	H56	0.967500	0.977100	0.761400
H571	H57	0.346000	0.041000	0.947800
H581	H58	0.364000	0.007000	0.008000
H591	H59	0.476000	0.982000	0.486000
H601	H60	0.480000	0.946000	0.428000
H611	H61	0.474000	0.943000	0.988000
H621	H62	0.367000	0.054000	0.473000
Ag41	Ag4	0.187890	0.206970	0.301750
Ag51	Ag5	0.899590	0.196190	0.311860
Ag61	Ag6	0.612780	0.151980	0.322440
Cu31	Cu3	0.457190	0.118300	0.999960
Cu41	Cu4	0.124260	0.121560	0.988750
C311	C31	0.515300	0.237800	0.071480
C321	C32	0.426200	0.224800	0.096040
H631	H63	0.394000	0.273400	0.089200
C331	C33	0.426300	0.209000	0.161740
H641	H64	0.462800	0.247000	0.181000
H651	H65	0.448500	0.156500	0.169200
C341	C34	0.337500	0.215300	0.187260
H661	H66	0.298200	0.189500	0.160900
H671	H67	0.321800	0.270700	0.189800
C351	C35	0.325400	0.067700	0.240400
H681	H68	0.320500	0.036700	0.275500
H691	H69	0.376200	0.053500	0.220100
H701	H70	0.277800	0.057800	0.215600
C361	C36	0.176900	0.244400	0.058690
C371	C37	0.093100	0.222300	0.088550
H711	H71	0.056600	0.269000	0.088500
C381	C38	0.109200	0.198200	0.152410
H721	H72	0.131200	0.144700	0.153500
H731	H73	0.151200	0.233000	0.169300
C391	C39	0.029000	0.202400	0.188500
H741	H74	0.985300	0.172500	0.168600
H751	H75	0.010700	0.257000	0.190500
C401	C40	0.044000	0.059100	0.250600
H761	H76	0.049900	0.032400	0.287500
H771	H77	0.091300	0.046700	0.226100
H781	H78	0.993000	0.042100	0.231800
C411	C41	0.850700	0.245700	0.061520
C421	C42	0.771200	0.226400	0.096540
H791	H79	0.736300	0.274000	0.099700
C431	C43	0.798600	0.200400	0.158010
H801	H80	0.824400	0.148400	0.155600
H811	H81	0.840700	0.237000	0.172600
C441	C44	0.725900	0.197300	0.200480
H821	H82	0.680200	0.167500	0.182900
H831	H83	0.705900	0.250700	0.207500
C451	C45	0.767700	0.051000	0.247900
H841	H84	0.783300	0.019900	0.281400
H851	H85	0.811400	0.048000	0.218900
H861	H86	0.716000	0.031100	0.231800
C461	C46	0.986700	0.991700	0.420670
C471	C47	0.056500	0.035000	0.453640
C481	C48	0.099000	0.098800	0.417280
H871	H87	0.056800	0.135800	0.403400
H881	H88	0.125300	0.074700	0.383300
C491	C49	0.165500	0.143600	0.452320
H891	H89	0.209300	0.106800	0.464000
H901	H90	0.139700	0.164100	0.487700
C501	C50	0.141300	0.303300	0.430400
H911	H91	0.159600	0.351400	0.411900
H921	H92	0.139700	0.310700	0.472100
H931	H93	0.086000	0.289800	0.416600
C511	C51	0.663700	0.989300	0.417040
C521	C52	0.729500	0.032800	0.454390
H941	H94	0.698900	0.058200	0.486500
C531	C53	0.775100	0.098300	0.421250
H951	H95	0.804600	0.075300	0.388200
H961	H96	0.733700	0.135200	0.406000
C541	C54	0.838000	0.143500	0.458890
H971	H97	0.880200	0.106800	0.473100
H981	H98	0.808600	0.164800	0.492700
C551	C55	0.809600	0.298100	0.424000
H991	H99	0.829300	0.345400	0.405300
H1001	H100	0.795800	0.309400	0.464100
H1011	H101	0.760300	0.279000	0.404100
C561	C56	0.183900	0.013300	0.909600
C571	C57	0.110100	0.970800	0.939500
C581	C58	0.067800	0.907100	0.903300
H1021	H102	0.110500	0.875200	0.884100
H1031	H103	0.033400	0.931500	0.873200
C591	C59	0.013100	0.854400	0.941600
H1041	H104	0.974000	0.887900	0.962800
H1051	H105	0.049100	0.829000	0.970300
C601	C60	0.033800	0.712800	0.876800
H1061	H106	0.008100	0.669700	0.856000
H1071	H107	0.066100	0.692400	0.909000
H1081	H108	0.070200	0.741500	0.850800
N71	N7	0.383800	0.160100	0.063660
H1091	H109	0.335400	0.178300	0.048100
H1101	H110	0.371000	0.120700	0.088600
N81	N8	0.051000	0.158900	0.054730
H1111	H111	0.002000	0.177300	0.040200
H1121	H112	0.039200	0.118000	0.078600
N91	N9	0.722800	0.163600	0.066620
H1131	H113	0.673100	0.183300	0.054400
H1141	H114	0.712100	0.124100	0.092000
N101	N10	0.114000	0.975100	0.479340
N111	N11	0.784670	0.972800	0.481010
H1151	H115	0.807600	0.991500	0.514300
H1161	H116	0.826500	0.959800	0.456200
N121	N12	0.052000	0.032700	0.961700
O141	O14	0.539210	0.193570	0.029790
O151	O15	0.559420	0.291700	0.091440
O161	O16	0.202930	0.201940	0.016570
O171	O17	0.216270	0.302770	0.076780
O181	O18	0.871620	0.198670	0.020350
O191	O19	0.893020	0.304470	0.075340
O201	O20	0.951990	0.022900	0.378510
O211	O21	0.965230	0.924410	0.441490
O221	O22	0.642440	0.920520	0.435150
O231	O23	0.633040	0.020000	0.373310
O241	O24	0.226200	0.978600	0.872760
O251	O25	0.201170	0.082420	0.928330
O261	O26	0.541100	0.071800	0.253430
S71	S7	0.328760	0.170910	0.259140
S81	S8	0.039890	0.164480	0.262760
S91	S9	0.753480	0.152310	0.269850
S101	S10	0.213460	0.224860	0.412850
S111	S11	0.890730	0.223810	0.421450
S121	S12	0.952840	0.778200	0.904280
H1171	H117	0.551000	0.073800	0.216400
H1181	H118	0.532500	0.022900	0.261400
H1191	H119	0.154000	0.959000	0.447800
H1201	H120	0.136000	0.993000	0.508000
H1211	H121	0.024000	0.018000	0.986000
H1221	H122	0.020000	0.054000	0.928000
H1231	H123	0.026000	0.057000	0.488000
H1241	H124	0.133000	0.946000	0.973000
Cu51	Cu5	0.786980	0.121330	0.997920
Cu61	Cu6	0.713020	0.878670	0.497920
Cu71	Cu7	0.213020	0.621330	0.502080
Cu81	Cu8	0.286980	0.378670	0.002080
Ag71	Ag7	0.687890	0.293030	0.698250
Ag81	Ag8	0.399590	0.303810	0.688140
Ag91	Ag9	0.112780	0.348020	0.677560
Cu91	Cu9	0.957190	0.381700	0.000040
Cu101	Cu10	0.624260	0.378440	0.011250
C611	C61	0.015300	0.262200	0.928520
C621	C62	0.926200	0.275200	0.903960
H1251	H125	0.894000	0.226600	0.910800
C631	C63	0.926300	0.291000	0.838260
H1261	H126	0.962800	0.253000	0.819000
H1271	H127	0.948500	0.343500	0.830800
C641	C64	0.837500	0.284700	0.812740
H1281	H128	0.798200	0.310500	0.839100
H1291	H129	0.821800	0.229300	0.810200
C651	C65	0.825400	0.432300	0.759600
H1301	H130	0.820500	0.463300	0.724500
H1311	H131	0.876200	0.446500	0.779900
H1321	H132	0.777800	0.442200	0.784400
C661	C66	0.676900	0.255600	0.941310
C671	C67	0.593100	0.277700	0.911450
H1331	H133	0.556600	0.231000	0.911500
C681	C68	0.609200	0.301800	0.847590
H1341	H134	0.631200	0.355300	0.846500
H1351	H135	0.651200	0.267000	0.830700
C691	C69	0.529000	0.297600	0.811500
H1361	H136	0.485300	0.327500	0.831400
H1371	H137	0.510700	0.243000	0.809500
C701	C70	0.544000	0.440900	0.749400
H1381	H138	0.549900	0.467600	0.712500
H1391	H139	0.591300	0.453300	0.773900
H1401	H140	0.493000	0.457900	0.768200
C711	C71	0.350700	0.254300	0.938480
C721	C72	0.271200	0.273600	0.903460
H1411	H141	0.236300	0.226000	0.900300
C731	C73	0.298600	0.299600	0.841990
H1421	H142	0.324400	0.351600	0.844400
H1431	H143	0.340700	0.263000	0.827400
C741	C74	0.225900	0.302700	0.799520
H1441	H144	0.180200	0.332500	0.817100
H1451	H145	0.205900	0.249300	0.792500
C751	C75	0.267700	0.449000	0.752100
H1461	H146	0.283300	0.480100	0.718600
H1471	H147	0.311400	0.452000	0.781100
H1481	H148	0.216000	0.468900	0.768200
C761	C76	0.486700	0.508300	0.579330
C771	C77	0.556500	0.465000	0.546360
C781	C78	0.599000	0.401200	0.582720
H1491	H149	0.556800	0.364200	0.596600
H1501	H150	0.625300	0.425300	0.616700
C791	C79	0.665500	0.356400	0.547680
H1511	H151	0.709300	0.393200	0.536000
H1521	H152	0.639700	0.335900	0.512300
C801	C80	0.641300	0.196700	0.569600
H1531	H153	0.659600	0.148600	0.588100
H1541	H154	0.639700	0.189300	0.527900
H1551	H155	0.586000	0.210200	0.583400
C811	C81	0.163700	0.510700	0.582960
C821	C82	0.229500	0.467200	0.545610
H1561	H156	0.198900	0.441800	0.513500
C831	C83	0.275100	0.401700	0.578750
H1571	H157	0.304600	0.424700	0.611800
H1581	H158	0.233700	0.364800	0.594000
C841	C84	0.338000	0.356500	0.541110
H1591	H159	0.380200	0.393200	0.526900
H1601	H160	0.308600	0.335200	0.507300
C851	C85	0.309600	0.201900	0.576000
H1611	H161	0.329300	0.154600	0.594700
H1621	H162	0.295800	0.190600	0.535900
H1631	H163	0.260300	0.221000	0.595900
C861	C86	0.683900	0.486700	0.090400
C871	C87	0.610100	0.529200	0.060500
C881	C88	0.567800	0.592900	0.096700
H1641	H164	0.610500	0.624800	0.115900
H1651	H165	0.533400	0.568500	0.126800
C891	C89	0.513100	0.645600	0.058400
H1661	H166	0.474000	0.612100	0.037200
H1671	H167	0.549100	0.671000	0.029700
C901	C90	0.533800	0.787200	0.123200
H1681	H168	0.508100	0.830300	0.144000
H1691	H169	0.566100	0.807600	0.091000
H1701	H170	0.570200	0.758500	0.149200
N131	N13	0.883800	0.339900	0.936340
H1711	H171	0.835400	0.321700	0.951900
H1721	H172	0.871000	0.379300	0.911400
N141	N14	0.551000	0.341100	0.945270
H1731	H173	0.502000	0.322700	0.959800
H1741	H174	0.539200	0.382000	0.921400
N151	N15	0.222800	0.336400	0.933380
H1751	H175	0.173100	0.316700	0.945600
H1761	H176	0.212100	0.375900	0.908000
N161	N16	0.614000	0.524900	0.520660
N171	N17	0.284670	0.527200	0.518990
H1771	H177	0.307600	0.508500	0.485700
H1781	H178	0.326500	0.540200	0.543800
N181	N18	0.552000	0.467300	0.038300
O271	O27	0.039210	0.306430	0.970210
O281	O28	0.059420	0.208300	0.908560
O291	O29	0.702930	0.298060	0.983430
O301	O30	0.716270	0.197230	0.923220
O311	O31	0.371620	0.301330	0.979650
O321	O32	0.393020	0.195530	0.924660
O331	O33	0.451990	0.477100	0.621490
O341	O34	0.465230	0.575590	0.558510
O351	O35	0.142440	0.579480	0.564850
O361	O36	0.133040	0.480000	0.626690
O371	O37	0.726200	0.521400	0.127240
O381	O38	0.701170	0.417580	0.071670
O391	O39	0.041100	0.428200	0.746570
S131	S13	0.828760	0.329090	0.740860
S141	S14	0.539890	0.335520	0.737240
S151	S15	0.253480	0.347690	0.730150
S161	S16	0.713460	0.275140	0.587150
S171	S17	0.390730	0.276190	0.578550
S181	S18	0.452840	0.721800	0.095720
H1791	H179	0.051000	0.426200	0.783600
H1801	H180	0.032500	0.477100	0.738600
H1811	H181	0.654000	0.541000	0.552200
H1821	H182	0.636000	0.507000	0.492000
H1831	H183	0.524000	0.482000	0.014000
H1841	H184	0.520000	0.446000	0.072000
H1851	H185	0.526000	0.443000	0.512000
H1861	H186	0.633000	0.554000	0.027000
Ag101	Ag10	0.812110	0.706970	0.198250
Ag111	Ag11	0.100410	0.696190	0.188140
Ag121	Ag12	0.387220	0.651980	0.177560
Cu111	Cu11	0.542810	0.618300	0.500040
Cu121	Cu12	0.875740	0.621560	0.511250
C911	C91	0.484700	0.737800	0.428520
C921	C92	0.573800	0.724800	0.403960
H1871	H187	0.606000	0.773400	0.410800
C931	C93	0.573700	0.709000	0.338260
H1881	H188	0.537200	0.747000	0.319000
H1891	H189	0.551500	0.656500	0.330800
C941	C94	0.662500	0.715300	0.312740
H1901	H190	0.701800	0.689500	0.339100
H1911	H191	0.678200	0.770700	0.310200
C951	C95	0.674600	0.567700	0.259600
H1921	H192	0.679500	0.536700	0.224500
H1931	H193	0.623800	0.553500	0.279900
H1941	H194	0.722200	0.557800	0.284400
C961	C96	0.823100	0.744400	0.441310
C971	C97	0.906900	0.722300	0.411450
H1951	H195	0.943400	0.769000	0.411500
C981	C98	0.890800	0.698200	0.347590
H1961	H196	0.868800	0.644700	0.346500
H1971	H197	0.848800	0.733000	0.330700
C991	C99	0.971000	0.702400	0.311500
H1981	H198	0.014700	0.672500	0.331400
H1991	H199	0.989300	0.757000	0.309500
C1001	C100	0.956000	0.559100	0.249400
H2001	H200	0.950100	0.532400	0.212500
H2011	H201	0.908700	0.546700	0.273900
H2021	H202	0.007000	0.542100	0.268200
C1011	C101	0.149300	0.745700	0.438480
C1021	C102	0.228800	0.726400	0.403460
H2031	H203	0.263700	0.774000	0.400300
C1031	C103	0.201400	0.700400	0.341990
H2041	H204	0.175600	0.648400	0.344400
H2051	H205	0.159300	0.737000	0.327400
C1041	C104	0.274100	0.697300	0.299520
H2061	H206	0.319800	0.667500	0.317100
H2071	H207	0.294100	0.750700	0.292500
C1051	C105	0.232300	0.551000	0.252100
H2081	H208	0.216700	0.519900	0.218600
H2091	H209	0.188600	0.548000	0.281100
H2101	H210	0.284000	0.531100	0.268200
C1061	C106	0.013300	0.491700	0.079330
C1071	C107	0.943500	0.535000	0.046360
C1081	C108	0.901000	0.598800	0.082720
H2111	H211	0.943200	0.635800	0.096600
H2121	H212	0.874700	0.574700	0.116700
C1091	C109	0.834500	0.643600	0.047680
H2131	H213	0.790700	0.606800	0.036000
H2141	H214	0.860300	0.664100	0.012300
C1101	C110	0.858700	0.803300	0.069600
H2151	H215	0.840400	0.851400	0.088100
H2161	H216	0.860300	0.810700	0.027900
H2171	H217	0.914000	0.789800	0.083400
C1111	C111	0.336300	0.489300	0.082960
C1121	C112	0.270500	0.532800	0.045610
H2181	H218	0.301100	0.558200	0.013500
C1131	C113	0.224900	0.598300	0.078750
H2191	H219	0.195400	0.575300	0.111800
H2201	H220	0.266300	0.635200	0.094000
C1141	C114	0.162000	0.643500	0.041110
H2211	H221	0.119800	0.606800	0.026900
H2221	H222	0.191400	0.664800	0.007300
C1151	C115	0.190400	0.798100	0.076000
H2231	H223	0.170700	0.845400	0.094700
H2241	H224	0.204200	0.809400	0.035900
H2251	H225	0.239700	0.779000	0.095900
C1161	C116	0.816100	0.513300	0.590400
C1171	C117	0.889900	0.470800	0.560500
C1181	C118	0.932200	0.407100	0.596700
H2261	H226	0.889500	0.375200	0.615900
H2271	H227	0.966600	0.431500	0.626800
C1191	C119	0.986900	0.354400	0.558400
H2281	H228	0.026000	0.387900	0.537200
H2291	H229	0.950900	0.329000	0.529700
C1201	C120	0.966200	0.212800	0.623200
H2301	H230	0.991900	0.169700	0.644000
H2311	H231	0.933900	0.192400	0.591000
H2321	H232	0.929800	0.241500	0.649200
N191	N19	0.616200	0.660100	0.436340
H2331	H233	0.664600	0.678300	0.451900
H2341	H234	0.629000	0.620700	0.411400
N201	N20	0.949000	0.658900	0.445270
H2351	H235	0.998000	0.677300	0.459800
H2361	H236	0.960800	0.618000	0.421400
N211	N21	0.277200	0.663600	0.433380
H2371	H237	0.326900	0.683300	0.445600
H2381	H238	0.287900	0.624100	0.408000
N221	N22	0.886000	0.475100	0.020660
N231	N23	0.215330	0.472800	0.018990
H2391	H239	0.192400	0.491500	0.985700
H2401	H240	0.173500	0.459800	0.043800
N241	N24	0.948000	0.532700	0.538300
O401	O40	0.460790	0.693570	0.470210
O411	O41	0.440580	0.791700	0.408560
O421	O42	0.797070	0.701940	0.483430
O431	O43	0.783730	0.802770	0.423220
O441	O44	0.128380	0.698670	0.479650
O451	O45	0.106980	0.804470	0.424660
O461	O46	0.048010	0.522900	0.121490
O471	O47	0.034770	0.424410	0.058510
O481	O48	0.357560	0.420520	0.064850
O491	O49	0.366960	0.520000	0.126690
O501	O50	0.773800	0.478600	0.627240
O511	O51	0.798830	0.582420	0.571670
O521	O52	0.458900	0.571800	0.246570
S191	S19	0.671240	0.670910	0.240860
S201	S20	0.960110	0.664480	0.237240
S211	S21	0.246520	0.652310	0.230150
S221	S22	0.786540	0.724860	0.087150
S231	S23	0.109270	0.723810	0.078550
S241	S24	0.047160	0.278200	0.595720
H2411	H241	0.449000	0.573800	0.283600
H2421	H242	0.467500	0.522900	0.238600
H2431	H243	0.846000	0.459000	0.052200
H2441	H244	0.864000	0.493000	0.992000
H2451	H245	0.976000	0.518000	0.514000
H2461	H246	0.980000	0.554000	0.572000
H2471	H247	0.974000	0.557000	0.012000
H2481	H248	0.867000	0.446000	0.527000
