data_LEYRAK_freeONLY_PM
_symmetry_space_group_name_H-M	'P1'
_cell_length_a	30.746400
_cell_length_b	15.685500
_cell_length_c	22.071400
_cell_angle_alpha	90.000000
_cell_angle_beta	133.210000
_cell_angle_gamma	90.000000
_symmetry_Int_Tables_number 1

loop_
_symmetry_equiv_pos_as_xyz
'x,y,z'

loop_
_atom_site_label
_atom_site_type_symbol
_atom_site_fract_x
_atom_site_fract_y
_atom_site_fract_z
Ce11	Ce1	0.331220	0.871070	0.486290
Ce21	Ce2	0.610600	0.862830	0.672130
O11	O1	0.253310	0.765800	0.373400
O21	O2	0.224200	0.651000	0.294400
O31	O3	0.440900	0.854900	0.569500
O41	O4	0.520170	0.783100	0.612500
O51	O5	0.634100	0.974000	0.617500
O61	O6	0.674600	0.097400	0.627100
O71	O7	0.622800	0.883500	0.795100
O81	O8	0.657600	0.953600	0.908400
O91	O9	0.246100	0.837600	0.480100
H11	H1	0.237900	0.887000	0.486300
H21	H2	0.213300	0.814300	0.438100
O101	O10	0.245800	0.972800	0.387500
H31	H3	0.247100	0.020100	0.371100
H41	H4	0.212600	0.967000	0.372800
O111	O11	0.377800	0.018300	0.515000
H51	H5	0.362000	0.039000	0.468700
H61	H6	0.387700	0.057800	0.548100
O121	O12	0.366700	0.764400	0.603900
H71	H7	0.402600	0.745600	0.638900
H81	H8	0.360200	0.791000	0.630900
O131	O13	0.526300	0.976800	0.621600
H91	H9	0.534900	0.011700	0.657200
H101	H10	0.500200	0.942800	0.609400
O141	O14	0.532300	0.869500	0.509100
H111	H11	0.512600	0.909700	0.474900
H121	H12	0.526900	0.825000	0.483200
O151	O15	0.635000	0.717400	0.736000
H131	H13	0.619900	0.670000	0.712600
H141	H14	0.672500	0.713400	0.773400
O161	O16	0.660900	0.792400	0.628800
H151	H15	0.643200	0.764300	0.584100
H161	H16	0.683000	0.829800	0.632700
N11	N1	0.366700	0.732600	0.464100
N21	N2	0.662000	0.002400	0.757600
C11	C1	0.328200	0.674500	0.407200
C21	C2	0.346100	0.599800	0.395900
H171	H17	0.317400	0.560100	0.354200
C31	C3	0.406500	0.584200	0.446800
H181	H18	0.420100	0.532700	0.441900
C41	C4	0.446800	0.644900	0.504700
H191	H19	0.488400	0.636400	0.539100
C51	C5	0.425500	0.718400	0.512000
C61	C6	0.263200	0.698900	0.353500
C71	C7	0.465400	0.790200	0.570000
C81	C8	0.684600	0.055500	0.738600
C91	C9	0.725500	0.118500	0.792800
H201	H20	0.743500	0.153100	0.779600
C101	C10	0.739400	0.129500	0.867200
H211	H21	0.766700	0.172300	0.905800
C111	C11	0.712300	0.076500	0.883300
H221	H22	0.719600	0.084400	0.932300
C121	C12	0.675200	0.012900	0.829100
C131	C13	0.663400	0.041600	0.654700
C141	C14	0.649500	0.946000	0.845500
Ce31	Ce3	0.831220	0.371070	0.486290
Ce41	Ce4	0.110600	0.362830	0.672130
O171	O17	0.753310	0.265800	0.373400
O181	O18	0.724200	0.151000	0.294400
O191	O19	0.940900	0.354900	0.569500
O201	O20	0.020170	0.283100	0.612500
O211	O21	0.134100	0.474000	0.617500
O221	O22	0.174600	0.597400	0.627100
O231	O23	0.122800	0.383500	0.795100
O241	O24	0.157600	0.453600	0.908400
O251	O25	0.746100	0.337600	0.480100
H231	H23	0.737900	0.387000	0.486300
H241	H24	0.713300	0.314300	0.438100
O261	O26	0.745800	0.472800	0.387500
H251	H25	0.747100	0.520100	0.371100
H261	H26	0.712600	0.467000	0.372800
O271	O27	0.877800	0.518300	0.515000
H271	H27	0.862000	0.539000	0.468700
H281	H28	0.887700	0.557800	0.548100
O281	O28	0.866700	0.264400	0.603900
H291	H29	0.902600	0.245600	0.638900
H301	H30	0.860200	0.291000	0.630900
O291	O29	0.026300	0.476800	0.621600
H311	H31	0.034900	0.511700	0.657200
H321	H32	0.000200	0.442800	0.609400
O301	O30	0.032300	0.369500	0.509100
H331	H33	0.012600	0.409700	0.474900
H341	H34	0.026900	0.325000	0.483200
O311	O31	0.135000	0.217400	0.736000
H351	H35	0.119900	0.170000	0.712600
H361	H36	0.172500	0.213400	0.773400
O321	O32	0.160900	0.292400	0.628800
H371	H37	0.143200	0.264300	0.584100
H381	H38	0.183000	0.329800	0.632700
N31	N3	0.866700	0.232600	0.464100
N41	N4	0.162000	0.502400	0.757600
C151	C15	0.828200	0.174500	0.407200
C161	C16	0.846100	0.099800	0.395900
H391	H39	0.817400	0.060100	0.354200
C171	C17	0.906500	0.084200	0.446800
H401	H40	0.920100	0.032700	0.441900
C181	C18	0.946800	0.144900	0.504700
H411	H41	0.988400	0.136400	0.539100
C191	C19	0.925500	0.218400	0.512000
C201	C20	0.763200	0.198900	0.353500
C211	C21	0.965400	0.290200	0.570000
C221	C22	0.184600	0.555500	0.738600
C231	C23	0.225500	0.618500	0.792800
H421	H42	0.243500	0.653100	0.779600
C241	C24	0.239400	0.629500	0.867200
H431	H43	0.266700	0.672300	0.905800
C251	C25	0.212300	0.576500	0.883300
H441	H44	0.219600	0.584400	0.932300
C261	C26	0.175200	0.512900	0.829100
C271	C27	0.163400	0.541600	0.654700
C281	C28	0.149500	0.446000	0.845500
Ce51	Ce5	0.668780	0.871070	0.013710
Ce61	Ce6	0.389400	0.862830	0.827870
O331	O33	0.746690	0.765800	0.126600
O341	O34	0.775800	0.651000	0.205600
O351	O35	0.559100	0.854900	0.930500
O361	O36	0.479830	0.783100	0.887500
O371	O37	0.365900	0.974000	0.882500
O381	O38	0.325400	0.097400	0.872900
O391	O39	0.377200	0.883500	0.704900
O401	O40	0.342400	0.953600	0.591600
O411	O41	0.753900	0.837600	0.019900
H451	H45	0.762100	0.887000	0.013700
H461	H46	0.786700	0.814300	0.061900
O421	O42	0.754200	0.972800	0.112500
H471	H47	0.752900	0.020100	0.128900
H481	H48	0.787400	0.967000	0.127200
O431	O43	0.622200	0.018300	0.985000
H491	H49	0.638000	0.039000	0.031300
H501	H50	0.612300	0.057800	0.951900
O441	O44	0.633300	0.764400	0.896100
H511	H51	0.597400	0.745600	0.861100
H521	H52	0.639800	0.791000	0.869100
O451	O45	0.473700	0.976800	0.878400
H531	H53	0.465100	0.011700	0.842800
H541	H54	0.499800	0.942800	0.890600
O461	O46	0.467700	0.869500	0.990900
H551	H55	0.487400	0.909700	0.025100
H561	H56	0.473100	0.825000	0.016800
O471	O47	0.365000	0.717400	0.764000
H571	H57	0.380100	0.670000	0.787400
H581	H58	0.327500	0.713400	0.726600
O481	O48	0.339100	0.792400	0.871200
H591	H59	0.356800	0.764300	0.915900
H601	H60	0.317000	0.829800	0.867300
N51	N5	0.633300	0.732600	0.035900
N61	N6	0.338000	0.002400	0.742400
C291	C29	0.671800	0.674500	0.092800
C301	C30	0.653900	0.599800	0.104100
H611	H61	0.682600	0.560100	0.145800
C311	C31	0.593500	0.584200	0.053200
H621	H62	0.579900	0.532700	0.058100
C321	C32	0.553200	0.644900	0.995300
H631	H63	0.511600	0.636400	0.960900
C331	C33	0.574500	0.718400	0.988000
C341	C34	0.736800	0.698900	0.146500
C351	C35	0.534600	0.790200	0.930000
C361	C36	0.315400	0.055500	0.761400
C371	C37	0.274500	0.118500	0.707200
H641	H64	0.256500	0.153100	0.720400
C381	C38	0.260600	0.129500	0.632800
H651	H65	0.233300	0.172300	0.594200
C391	C39	0.287700	0.076500	0.616700
H661	H66	0.280400	0.084400	0.567700
C401	C40	0.324800	0.012900	0.670900
C411	C41	0.336600	0.041600	0.845300
C421	C42	0.350500	0.946000	0.654500
Ce71	Ce7	0.168780	0.371070	0.013710
Ce81	Ce8	0.889400	0.362830	0.827870
O491	O49	0.246690	0.265800	0.126600
O501	O50	0.275800	0.151000	0.205600
O511	O51	0.059100	0.354900	0.930500
O521	O52	0.979830	0.283100	0.887500
O531	O53	0.865900	0.474000	0.882500
O541	O54	0.825400	0.597400	0.872900
O551	O55	0.877200	0.383500	0.704900
O561	O56	0.842400	0.453600	0.591600
O571	O57	0.253900	0.337600	0.019900
H671	H67	0.262100	0.387000	0.013700
H681	H68	0.286700	0.314300	0.061900
O581	O58	0.254200	0.472800	0.112500
H691	H69	0.252900	0.520100	0.128900
H701	H70	0.287400	0.467000	0.127200
O591	O59	0.122200	0.518300	0.985000
H711	H71	0.138000	0.539000	0.031300
H721	H72	0.112300	0.557800	0.951900
O601	O60	0.133300	0.264400	0.896100
H731	H73	0.097400	0.245600	0.861100
H741	H74	0.139800	0.291000	0.869100
O611	O61	0.973700	0.476800	0.878400
H751	H75	0.965100	0.511700	0.842800
H761	H76	0.999800	0.442800	0.890600
O621	O62	0.967700	0.369500	0.990900
H771	H77	0.987400	0.409700	0.025100
H781	H78	0.973100	0.325000	0.016800
O631	O63	0.865000	0.217400	0.764000
H791	H79	0.880100	0.170000	0.787400
H801	H80	0.827500	0.213400	0.726600
O641	O64	0.839100	0.292400	0.871200
H811	H81	0.856800	0.264300	0.915900
H821	H82	0.817000	0.329800	0.867300
N71	N7	0.133300	0.232600	0.035900
N81	N8	0.838000	0.502400	0.742400
C431	C43	0.171800	0.174500	0.092800
C441	C44	0.153900	0.099800	0.104100
H831	H83	0.182600	0.060100	0.145800
C451	C45	0.093500	0.084200	0.053200
H841	H84	0.079900	0.032700	0.058100
C461	C46	0.053200	0.144900	0.995300
H851	H85	0.011600	0.136400	0.960900
C471	C47	0.074500	0.218400	0.988000
C481	C48	0.236800	0.198900	0.146500
C491	C49	0.034600	0.290200	0.930000
C501	C50	0.815400	0.555500	0.761400
C511	C51	0.774500	0.618500	0.707200
H861	H86	0.756500	0.653100	0.720400
C521	C52	0.760600	0.629500	0.632800
H871	H87	0.733300	0.672300	0.594200
C531	C53	0.787700	0.576500	0.616700
H881	H88	0.780400	0.584400	0.567700
C541	C54	0.824800	0.512900	0.670900
C551	C55	0.836600	0.541600	0.845300
C561	C56	0.850500	0.446000	0.654500
Ce91	Ce9	0.668780	0.128930	0.513710
Ce101	Ce10	0.389400	0.137170	0.327870
O651	O65	0.746690	0.234200	0.626600
O661	O66	0.775800	0.349000	0.705600
O671	O67	0.559100	0.145100	0.430500
O681	O68	0.479830	0.216900	0.387500
O691	O69	0.365900	0.026000	0.382500
O701	O70	0.325400	0.902600	0.372900
O711	O71	0.377200	0.116500	0.204900
O721	O72	0.342400	0.046400	0.091600
O731	O73	0.753900	0.162400	0.519900
H891	H89	0.762100	0.113000	0.513700
H901	H90	0.786700	0.185700	0.561900
O741	O74	0.754200	0.027200	0.612500
H911	H91	0.752900	0.979900	0.628900
H921	H92	0.787400	0.033000	0.627200
O751	O75	0.622200	0.981700	0.485000
H931	H93	0.638000	0.961000	0.531300
H941	H94	0.612300	0.942200	0.451900
O761	O76	0.633300	0.235600	0.396100
H951	H95	0.597400	0.254400	0.361100
H961	H96	0.639800	0.209000	0.369100
O771	O77	0.473700	0.023200	0.378400
H971	H97	0.465100	0.988300	0.342800
H981	H98	0.499800	0.057200	0.390600
O781	O78	0.467700	0.130500	0.490900
H991	H99	0.487400	0.090300	0.525100
H1001	H100	0.473100	0.175000	0.516800
O791	O79	0.365000	0.282600	0.264000
H1011	H101	0.380100	0.330000	0.287400
H1021	H102	0.327500	0.286600	0.226600
O801	O80	0.339100	0.207600	0.371200
H1031	H103	0.356800	0.235700	0.415900
H1041	H104	0.317000	0.170200	0.367300
N91	N9	0.633300	0.267400	0.535900
N101	N10	0.338000	0.997600	0.242400
C571	C57	0.671800	0.325500	0.592800
C581	C58	0.653900	0.400200	0.604100
H1051	H105	0.682600	0.439900	0.645800
C591	C59	0.593500	0.415800	0.553200
H1061	H106	0.579900	0.467300	0.558100
C601	C60	0.553200	0.355100	0.495300
H1071	H107	0.511600	0.363600	0.460900
C611	C61	0.574500	0.281600	0.488000
C621	C62	0.736800	0.301100	0.646500
C631	C63	0.534600	0.209800	0.430000
C641	C64	0.315400	0.944500	0.261400
C651	C65	0.274500	0.881500	0.207200
H1081	H108	0.256500	0.846900	0.220400
C661	C66	0.260600	0.870500	0.132800
H1091	H109	0.233300	0.827700	0.094200
C671	C67	0.287700	0.923500	0.116700
H1101	H110	0.280400	0.915600	0.067700
C681	C68	0.324800	0.987100	0.170900
C691	C69	0.336600	0.958400	0.345300
C701	C70	0.350500	0.054000	0.154500
Ce111	Ce11	0.168780	0.628930	0.513710
Ce121	Ce12	0.889400	0.637170	0.327870
O811	O81	0.246690	0.734200	0.626600
O821	O82	0.275800	0.849000	0.705600
O831	O83	0.059100	0.645100	0.430500
O841	O84	0.979830	0.716900	0.387500
O851	O85	0.865900	0.526000	0.382500
O861	O86	0.825400	0.402600	0.372900
O871	O87	0.877200	0.616500	0.204900
O881	O88	0.842400	0.546400	0.091600
O891	O89	0.253900	0.662400	0.519900
H1111	H111	0.262100	0.613000	0.513700
H1121	H112	0.286700	0.685700	0.561900
O901	O90	0.254200	0.527200	0.612500
H1131	H113	0.252900	0.479900	0.628900
H1141	H114	0.287400	0.533000	0.627200
O911	O91	0.122200	0.481700	0.485000
H1151	H115	0.138000	0.461000	0.531300
H1161	H116	0.112300	0.442200	0.451900
O921	O92	0.133300	0.735600	0.396100
H1171	H117	0.097400	0.754400	0.361100
H1181	H118	0.139800	0.709000	0.369100
O931	O93	0.973700	0.523200	0.378400
H1191	H119	0.965100	0.488300	0.342800
H1201	H120	0.999800	0.557200	0.390600
O941	O94	0.967700	0.630500	0.490900
H1211	H121	0.987400	0.590300	0.525100
H1221	H122	0.973100	0.675000	0.516800
O951	O95	0.865000	0.782600	0.264000
H1231	H123	0.880100	0.830000	0.287400
H1241	H124	0.827500	0.786600	0.226600
O961	O96	0.839100	0.707600	0.371200
H1251	H125	0.856800	0.735700	0.415900
H1261	H126	0.817000	0.670200	0.367300
N111	N11	0.133300	0.767400	0.535900
N121	N12	0.838000	0.497600	0.242400
C711	C71	0.171800	0.825500	0.592800
C721	C72	0.153900	0.900200	0.604100
H1271	H127	0.182600	0.939900	0.645800
C731	C73	0.093500	0.915800	0.553200
H1281	H128	0.079900	0.967300	0.558100
C741	C74	0.053200	0.855100	0.495300
H1291	H129	0.011600	0.863600	0.460900
C751	C75	0.074500	0.781600	0.488000
C761	C76	0.236800	0.801100	0.646500
C771	C77	0.034600	0.709800	0.430000
C781	C78	0.815400	0.444500	0.261400
C791	C79	0.774500	0.381500	0.207200
H1301	H130	0.756500	0.346900	0.220400
C801	C80	0.760600	0.370500	0.132800
H1311	H131	0.733300	0.327700	0.094200
C811	C81	0.787700	0.423500	0.116700
H1321	H132	0.780400	0.415600	0.067700
C821	C82	0.824800	0.487100	0.170900
C831	C83	0.836600	0.458400	0.345300
C841	C84	0.850500	0.554000	0.154500
Ce131	Ce13	0.331220	0.128930	0.986290
Ce141	Ce14	0.610600	0.137170	0.172130
O971	O97	0.253310	0.234200	0.873400
O981	O98	0.224200	0.349000	0.794400
O991	O99	0.440900	0.145100	0.069500
O1001	O100	0.520170	0.216900	0.112500
O1011	O101	0.634100	0.026000	0.117500
O1021	O102	0.674600	0.902600	0.127100
O1031	O103	0.622800	0.116500	0.295100
O1041	O104	0.657600	0.046400	0.408400
O1051	O105	0.246100	0.162400	0.980100
H1331	H133	0.237900	0.113000	0.986300
H1341	H134	0.213300	0.185700	0.938100
O1061	O106	0.245800	0.027200	0.887500
H1351	H135	0.247100	0.979900	0.871100
H1361	H136	0.212600	0.033000	0.872800
O1071	O107	0.377800	0.981700	0.015000
H1371	H137	0.362000	0.961000	0.968700
H1381	H138	0.387700	0.942200	0.048100
O1081	O108	0.366700	0.235600	0.103900
H1391	H139	0.402600	0.254400	0.138900
H1401	H140	0.360200	0.209000	0.130900
O1091	O109	0.526300	0.023200	0.121600
H1411	H141	0.534900	0.988300	0.157200
H1421	H142	0.500200	0.057200	0.109400
O1101	O110	0.532300	0.130500	0.009100
H1431	H143	0.512600	0.090300	0.974900
H1441	H144	0.526900	0.175000	0.983200
O1111	O111	0.635000	0.282600	0.236000
H1451	H145	0.619900	0.330000	0.212600
H1461	H146	0.672500	0.286600	0.273400
O1121	O112	0.660900	0.207600	0.128800
H1471	H147	0.643200	0.235700	0.084100
H1481	H148	0.683000	0.170200	0.132700
N131	N13	0.366700	0.267400	0.964100
N141	N14	0.662000	0.997600	0.257600
C851	C85	0.328200	0.325500	0.907200
C861	C86	0.346100	0.400200	0.895900
H1491	H149	0.317400	0.439900	0.854200
C871	C87	0.406500	0.415800	0.946800
H1501	H150	0.420100	0.467300	0.941900
C881	C88	0.446800	0.355100	0.004700
H1511	H151	0.488400	0.363600	0.039100
C891	C89	0.425500	0.281600	0.012000
C901	C90	0.263200	0.301100	0.853500
C911	C91	0.465400	0.209800	0.070000
C921	C92	0.684600	0.944500	0.238600
C931	C93	0.725500	0.881500	0.292800
H1521	H152	0.743500	0.846900	0.279600
C941	C94	0.739400	0.870500	0.367200
H1531	H153	0.766700	0.827700	0.405800
C951	C95	0.712300	0.923500	0.383300
H1541	H154	0.719600	0.915600	0.432300
C961	C96	0.675200	0.987100	0.329100
C971	C97	0.663400	0.958400	0.154700
C981	C98	0.649500	0.054000	0.345500
Ce151	Ce15	0.831220	0.628930	0.986290
Ce161	Ce16	0.110600	0.637170	0.172130
O1131	O113	0.753310	0.734200	0.873400
O1141	O114	0.724200	0.849000	0.794400
O1151	O115	0.940900	0.645100	0.069500
O1161	O116	0.020170	0.716900	0.112500
O1171	O117	0.134100	0.526000	0.117500
O1181	O118	0.174600	0.402600	0.127100
O1191	O119	0.122800	0.616500	0.295100
O1201	O120	0.157600	0.546400	0.408400
O1211	O121	0.746100	0.662400	0.980100
H1551	H155	0.737900	0.613000	0.986300
H1561	H156	0.713300	0.685700	0.938100
O1221	O122	0.745800	0.527200	0.887500
H1571	H157	0.747100	0.479900	0.871100
H1581	H158	0.712600	0.533000	0.872800
O1231	O123	0.877800	0.481700	0.015000
H1591	H159	0.862000	0.461000	0.968700
H1601	H160	0.887700	0.442200	0.048100
O1241	O124	0.866700	0.735600	0.103900
H1611	H161	0.902600	0.754400	0.138900
H1621	H162	0.860200	0.709000	0.130900
O1251	O125	0.026300	0.523200	0.121600
H1631	H163	0.034900	0.488300	0.157200
H1641	H164	0.000200	0.557200	0.109400
O1261	O126	0.032300	0.630500	0.009100
H1651	H165	0.012600	0.590300	0.974900
H1661	H166	0.026900	0.675000	0.983200
O1271	O127	0.135000	0.782600	0.236000
H1671	H167	0.119900	0.830000	0.212600
H1681	H168	0.172500	0.786600	0.273400
O1281	O128	0.160900	0.707600	0.128800
H1691	H169	0.143200	0.735700	0.084100
H1701	H170	0.183000	0.670200	0.132700
N151	N15	0.866700	0.767400	0.964100
N161	N16	0.162000	0.497600	0.257600
C991	C99	0.828200	0.825500	0.907200
C1001	C100	0.846100	0.900200	0.895900
H1711	H171	0.817400	0.939900	0.854200
C1011	C101	0.906500	0.915800	0.946800
H1721	H172	0.920100	0.967300	0.941900
C1021	C102	0.946800	0.855100	0.004700
H1731	H173	0.988400	0.863600	0.039100
C1031	C103	0.925500	0.781600	0.012000
C1041	C104	0.763200	0.801100	0.853500
C1051	C105	0.965400	0.709800	0.070000
C1061	C106	0.184600	0.444500	0.238600
C1071	C107	0.225500	0.381500	0.292800
H1741	H174	0.243500	0.346900	0.279600
C1081	C108	0.239400	0.370500	0.367200
H1751	H175	0.266700	0.327700	0.405800
C1091	C109	0.212300	0.423500	0.383300
H1761	H176	0.219600	0.415600	0.432300
C1101	C110	0.175200	0.487100	0.329100
C1111	C111	0.163400	0.458400	0.154700
C1121	C112	0.149500	0.554000	0.345500
