data_LEYREO_freeONLY_PM
_symmetry_space_group_name_H-M	'P1'
_cell_length_a	30.644000
_cell_length_b	15.664700
_cell_length_c	22.023000
_cell_angle_alpha	90.000000
_cell_angle_beta	133.135000
_cell_angle_gamma	90.000000
_symmetry_Int_Tables_number 1

loop_
_symmetry_equiv_pos_as_xyz
'x,y,z'

loop_
_atom_site_label
_atom_site_type_symbol
_atom_site_fract_x
_atom_site_fract_y
_atom_site_fract_z
Pr11	Pr1	0.331270	0.871410	0.486050
Pr21	Pr2	0.610520	0.863180	0.672930
O11	O1	0.253000	0.767900	0.372300
O21	O2	0.223600	0.651700	0.294600
O31	O3	0.440500	0.856400	0.569400
O41	O4	0.520300	0.783900	0.613600
O51	O5	0.634100	0.972900	0.617600
O61	O6	0.674100	0.096700	0.626300
O71	O7	0.622500	0.883500	0.795200
O81	O8	0.657100	0.953500	0.908600
O91	O9	0.247300	0.837800	0.480900
H11	H1	0.239000	0.887200	0.487100
H21	H2	0.214500	0.814500	0.438900
O101	O10	0.246600	0.972500	0.388500
H31	H3	0.247200	0.022000	0.374600
H41	H4	0.214000	0.964300	0.375500
O111	O11	0.377800	0.017500	0.515300
H51	H5	0.362100	0.038100	0.469000
H61	H6	0.387800	0.057000	0.548400
O121	O12	0.367000	0.764700	0.602800
H71	H7	0.402900	0.745900	0.637900
H81	H8	0.360500	0.791300	0.629800
O131	O13	0.527000	0.976700	0.622200
H91	H9	0.539900	0.005600	0.663800
H101	H10	0.496800	0.948700	0.604400
O141	O14	0.532500	0.869200	0.510200
H111	H11	0.512800	0.909400	0.476000
H121	H12	0.527100	0.824800	0.484300
O151	O15	0.634400	0.718200	0.735600
H131	H13	0.619300	0.670800	0.712100
H141	H14	0.671900	0.714200	0.772900
O161	O16	0.660200	0.791400	0.629400
H151	H15	0.642500	0.763300	0.584600
H161	H16	0.682300	0.828800	0.633200
N11	N1	0.366700	0.733900	0.464000
N21	N2	0.661800	0.001400	0.757800
C11	C1	0.327700	0.676000	0.406800
C21	C2	0.346100	0.600800	0.395900
H171	H17	0.317500	0.560900	0.354100
C31	C3	0.406800	0.585500	0.446900
H181	H18	0.420500	0.534000	0.441800
C41	C4	0.446900	0.645500	0.504900
H191	H19	0.488600	0.636500	0.539600
C51	C5	0.425800	0.719800	0.512400
C61	C6	0.263200	0.699400	0.354000
C71	C7	0.465500	0.791200	0.570000
C81	C8	0.684900	0.054900	0.739000
C91	C9	0.726000	0.117400	0.793200
H201	H20	0.744600	0.151400	0.780600
C101	C10	0.739000	0.128800	0.866700
H211	H21	0.765900	0.172100	0.905000
C111	C11	0.712400	0.076600	0.883200
H221	H22	0.719900	0.084700	0.932500
C121	C12	0.674700	0.012500	0.828600
C131	C13	0.662700	0.041200	0.654400
C141	C14	0.649000	0.945700	0.845600
Pr31	Pr3	0.831270	0.371410	0.486050
Pr41	Pr4	0.110520	0.363180	0.672930
O171	O17	0.753000	0.267900	0.372300
O181	O18	0.723600	0.151700	0.294600
O191	O19	0.940500	0.356400	0.569400
O201	O20	0.020300	0.283900	0.613600
O211	O21	0.134100	0.472900	0.617600
O221	O22	0.174100	0.596700	0.626300
O231	O23	0.122500	0.383500	0.795200
O241	O24	0.157100	0.453500	0.908600
O251	O25	0.747300	0.337800	0.480900
H231	H23	0.739000	0.387200	0.487100
H241	H24	0.714500	0.314500	0.438900
O261	O26	0.746600	0.472500	0.388500
H251	H25	0.747200	0.522000	0.374600
H261	H26	0.714000	0.464300	0.375500
O271	O27	0.877800	0.517500	0.515300
H271	H27	0.862100	0.538100	0.469000
H281	H28	0.887800	0.557000	0.548400
O281	O28	0.867000	0.264700	0.602800
H291	H29	0.902900	0.245900	0.637900
H301	H30	0.860500	0.291300	0.629800
O291	O29	0.027000	0.476700	0.622200
H311	H31	0.039900	0.505600	0.663800
H321	H32	0.996800	0.448700	0.604400
O301	O30	0.032500	0.369200	0.510200
H331	H33	0.012800	0.409400	0.476000
H341	H34	0.027100	0.324800	0.484300
O311	O31	0.134400	0.218200	0.735600
H351	H35	0.119300	0.170800	0.712100
H361	H36	0.171900	0.214200	0.772900
O321	O32	0.160200	0.291400	0.629400
H371	H37	0.142500	0.263300	0.584600
H381	H38	0.182300	0.328800	0.633200
N31	N3	0.866700	0.233900	0.464000
N41	N4	0.161800	0.501400	0.757800
C151	C15	0.827700	0.176000	0.406800
C161	C16	0.846100	0.100800	0.395900
H391	H39	0.817500	0.060900	0.354100
C171	C17	0.906800	0.085500	0.446900
H401	H40	0.920500	0.034000	0.441800
C181	C18	0.946900	0.145500	0.504900
H411	H41	0.988600	0.136500	0.539600
C191	C19	0.925800	0.219800	0.512400
C201	C20	0.763200	0.199400	0.354000
C211	C21	0.965500	0.291200	0.570000
C221	C22	0.184900	0.554900	0.739000
C231	C23	0.226000	0.617400	0.793200
H421	H42	0.244600	0.651400	0.780600
C241	C24	0.239000	0.628800	0.866700
H431	H43	0.265900	0.672100	0.905000
C251	C25	0.212400	0.576600	0.883200
H441	H44	0.219900	0.584700	0.932500
C261	C26	0.174700	0.512500	0.828600
C271	C27	0.162700	0.541200	0.654400
C281	C28	0.149000	0.445700	0.845600
Pr51	Pr5	0.668730	0.871410	0.013950
Pr61	Pr6	0.389480	0.863180	0.827070
O331	O33	0.747000	0.767900	0.127700
O341	O34	0.776400	0.651700	0.205400
O351	O35	0.559500	0.856400	0.930600
O361	O36	0.479700	0.783900	0.886400
O371	O37	0.365900	0.972900	0.882400
O381	O38	0.325900	0.096700	0.873700
O391	O39	0.377500	0.883500	0.704800
O401	O40	0.342900	0.953500	0.591400
O411	O41	0.752700	0.837800	0.019100
H451	H45	0.761000	0.887200	0.012900
H461	H46	0.785500	0.814500	0.061100
O421	O42	0.753400	0.972500	0.111500
H471	H47	0.752800	0.022000	0.125400
H481	H48	0.786000	0.964300	0.124500
O431	O43	0.622200	0.017500	0.984700
H491	H49	0.637900	0.038100	0.031000
H501	H50	0.612200	0.057000	0.951600
O441	O44	0.633000	0.764700	0.897200
H511	H51	0.597100	0.745900	0.862100
H521	H52	0.639500	0.791300	0.870200
O451	O45	0.473000	0.976700	0.877800
H531	H53	0.460100	0.005600	0.836200
H541	H54	0.503200	0.948700	0.895600
O461	O46	0.467500	0.869200	0.989800
H551	H55	0.487200	0.909400	0.024000
H561	H56	0.472900	0.824800	0.015700
O471	O47	0.365600	0.718200	0.764400
H571	H57	0.380700	0.670800	0.787900
H581	H58	0.328100	0.714200	0.727100
O481	O48	0.339800	0.791400	0.870600
H591	H59	0.357500	0.763300	0.915400
H601	H60	0.317700	0.828800	0.866800
N51	N5	0.633300	0.733900	0.036000
N61	N6	0.338200	0.001400	0.742200
C291	C29	0.672300	0.676000	0.093200
C301	C30	0.653900	0.600800	0.104100
H611	H61	0.682500	0.560900	0.145900
C311	C31	0.593200	0.585500	0.053100
H621	H62	0.579500	0.534000	0.058200
C321	C32	0.553100	0.645500	0.995100
H631	H63	0.511400	0.636500	0.960400
C331	C33	0.574200	0.719800	0.987600
C341	C34	0.736800	0.699400	0.146000
C351	C35	0.534500	0.791200	0.930000
C361	C36	0.315100	0.054900	0.761000
C371	C37	0.274000	0.117400	0.706800
H641	H64	0.255400	0.151400	0.719400
C381	C38	0.261000	0.128800	0.633300
H651	H65	0.234100	0.172100	0.595000
C391	C39	0.287600	0.076600	0.616800
H661	H66	0.280100	0.084700	0.567500
C401	C40	0.325300	0.012500	0.671400
C411	C41	0.337300	0.041200	0.845600
C421	C42	0.351000	0.945700	0.654400
Pr71	Pr7	0.168730	0.371410	0.013950
Pr81	Pr8	0.889480	0.363180	0.827070
O491	O49	0.247000	0.267900	0.127700
O501	O50	0.276400	0.151700	0.205400
O511	O51	0.059500	0.356400	0.930600
O521	O52	0.979700	0.283900	0.886400
O531	O53	0.865900	0.472900	0.882400
O541	O54	0.825900	0.596700	0.873700
O551	O55	0.877500	0.383500	0.704800
O561	O56	0.842900	0.453500	0.591400
O571	O57	0.252700	0.337800	0.019100
H671	H67	0.261000	0.387200	0.012900
H681	H68	0.285500	0.314500	0.061100
O581	O58	0.253400	0.472500	0.111500
H691	H69	0.252800	0.522000	0.125400
H701	H70	0.286000	0.464300	0.124500
O591	O59	0.122200	0.517500	0.984700
H711	H71	0.137900	0.538100	0.031000
H721	H72	0.112200	0.557000	0.951600
O601	O60	0.133000	0.264700	0.897200
H731	H73	0.097100	0.245900	0.862100
H741	H74	0.139500	0.291300	0.870200
O611	O61	0.973000	0.476700	0.877800
H751	H75	0.960100	0.505600	0.836200
H761	H76	0.003200	0.448700	0.895600
O621	O62	0.967500	0.369200	0.989800
H771	H77	0.987200	0.409400	0.024000
H781	H78	0.972900	0.324800	0.015700
O631	O63	0.865600	0.218200	0.764400
H791	H79	0.880700	0.170800	0.787900
H801	H80	0.828100	0.214200	0.727100
O641	O64	0.839800	0.291400	0.870600
H811	H81	0.857500	0.263300	0.915400
H821	H82	0.817700	0.328800	0.866800
N71	N7	0.133300	0.233900	0.036000
N81	N8	0.838200	0.501400	0.742200
C431	C43	0.172300	0.176000	0.093200
C441	C44	0.153900	0.100800	0.104100
H831	H83	0.182500	0.060900	0.145900
C451	C45	0.093200	0.085500	0.053100
H841	H84	0.079500	0.034000	0.058200
C461	C46	0.053100	0.145500	0.995100
H851	H85	0.011400	0.136500	0.960400
C471	C47	0.074200	0.219800	0.987600
C481	C48	0.236800	0.199400	0.146000
C491	C49	0.034500	0.291200	0.930000
C501	C50	0.815100	0.554900	0.761000
C511	C51	0.774000	0.617400	0.706800
H861	H86	0.755400	0.651400	0.719400
C521	C52	0.761000	0.628800	0.633300
H871	H87	0.734100	0.672100	0.595000
C531	C53	0.787600	0.576600	0.616800
H881	H88	0.780100	0.584700	0.567500
C541	C54	0.825300	0.512500	0.671400
C551	C55	0.837300	0.541200	0.845600
C561	C56	0.851000	0.445700	0.654400
Pr91	Pr9	0.668730	0.128590	0.513950
Pr101	Pr10	0.389480	0.136820	0.327070
O651	O65	0.747000	0.232100	0.627700
O661	O66	0.776400	0.348300	0.705400
O671	O67	0.559500	0.143600	0.430600
O681	O68	0.479700	0.216100	0.386400
O691	O69	0.365900	0.027100	0.382400
O701	O70	0.325900	0.903300	0.373700
O711	O71	0.377500	0.116500	0.204800
O721	O72	0.342900	0.046500	0.091400
O731	O73	0.752700	0.162200	0.519100
H891	H89	0.761000	0.112800	0.512900
H901	H90	0.785500	0.185500	0.561100
O741	O74	0.753400	0.027500	0.611500
H911	H91	0.752800	0.978000	0.625400
H921	H92	0.786000	0.035700	0.624500
O751	O75	0.622200	0.982500	0.484700
H931	H93	0.637900	0.961900	0.531000
H941	H94	0.612200	0.943000	0.451600
O761	O76	0.633000	0.235300	0.397200
H951	H95	0.597100	0.254100	0.362100
H961	H96	0.639500	0.208700	0.370200
O771	O77	0.473000	0.023300	0.377800
H971	H97	0.460100	0.994400	0.336200
H981	H98	0.503200	0.051300	0.395600
O781	O78	0.467500	0.130800	0.489800
H991	H99	0.487200	0.090600	0.524000
H1001	H100	0.472900	0.175200	0.515700
O791	O79	0.365600	0.281800	0.264400
H1011	H101	0.380700	0.329200	0.287900
H1021	H102	0.328100	0.285800	0.227100
O801	O80	0.339800	0.208600	0.370600
H1031	H103	0.357500	0.236700	0.415400
H1041	H104	0.317700	0.171200	0.366800
N91	N9	0.633300	0.266100	0.536000
N101	N10	0.338200	0.998600	0.242200
C571	C57	0.672300	0.324000	0.593200
C581	C58	0.653900	0.399200	0.604100
H1051	H105	0.682500	0.439100	0.645900
C591	C59	0.593200	0.414500	0.553100
H1061	H106	0.579500	0.466000	0.558200
C601	C60	0.553100	0.354500	0.495100
H1071	H107	0.511400	0.363500	0.460400
C611	C61	0.574200	0.280200	0.487600
C621	C62	0.736800	0.300600	0.646000
C631	C63	0.534500	0.208800	0.430000
C641	C64	0.315100	0.945100	0.261000
C651	C65	0.274000	0.882600	0.206800
H1081	H108	0.255400	0.848600	0.219400
C661	C66	0.261000	0.871200	0.133300
H1091	H109	0.234100	0.827900	0.095000
C671	C67	0.287600	0.923400	0.116800
H1101	H110	0.280100	0.915300	0.067500
C681	C68	0.325300	0.987500	0.171400
C691	C69	0.337300	0.958800	0.345600
C701	C70	0.351000	0.054300	0.154400
Pr111	Pr11	0.168730	0.628590	0.513950
Pr121	Pr12	0.889480	0.636820	0.327070
O811	O81	0.247000	0.732100	0.627700
O821	O82	0.276400	0.848300	0.705400
O831	O83	0.059500	0.643600	0.430600
O841	O84	0.979700	0.716100	0.386400
O851	O85	0.865900	0.527100	0.382400
O861	O86	0.825900	0.403300	0.373700
O871	O87	0.877500	0.616500	0.204800
O881	O88	0.842900	0.546500	0.091400
O891	O89	0.252700	0.662200	0.519100
H1111	H111	0.261000	0.612800	0.512900
H1121	H112	0.285500	0.685500	0.561100
O901	O90	0.253400	0.527500	0.611500
H1131	H113	0.252800	0.478000	0.625400
H1141	H114	0.286000	0.535700	0.624500
O911	O91	0.122200	0.482500	0.484700
H1151	H115	0.137900	0.461900	0.531000
H1161	H116	0.112200	0.443000	0.451600
O921	O92	0.133000	0.735300	0.397200
H1171	H117	0.097100	0.754100	0.362100
H1181	H118	0.139500	0.708700	0.370200
O931	O93	0.973000	0.523300	0.377800
H1191	H119	0.960100	0.494400	0.336200
H1201	H120	0.003200	0.551300	0.395600
O941	O94	0.967500	0.630800	0.489800
H1211	H121	0.987200	0.590600	0.524000
H1221	H122	0.972900	0.675200	0.515700
O951	O95	0.865600	0.781800	0.264400
H1231	H123	0.880700	0.829200	0.287900
H1241	H124	0.828100	0.785800	0.227100
O961	O96	0.839800	0.708600	0.370600
H1251	H125	0.857500	0.736700	0.415400
H1261	H126	0.817700	0.671200	0.366800
N111	N11	0.133300	0.766100	0.536000
N121	N12	0.838200	0.498600	0.242200
C711	C71	0.172300	0.824000	0.593200
C721	C72	0.153900	0.899200	0.604100
H1271	H127	0.182500	0.939100	0.645900
C731	C73	0.093200	0.914500	0.553100
H1281	H128	0.079500	0.966000	0.558200
C741	C74	0.053100	0.854500	0.495100
H1291	H129	0.011400	0.863500	0.460400
C751	C75	0.074200	0.780200	0.487600
C761	C76	0.236800	0.800600	0.646000
C771	C77	0.034500	0.708800	0.430000
C781	C78	0.815100	0.445100	0.261000
C791	C79	0.774000	0.382600	0.206800
H1301	H130	0.755400	0.348600	0.219400
C801	C80	0.761000	0.371200	0.133300
H1311	H131	0.734100	0.327900	0.095000
C811	C81	0.787600	0.423400	0.116800
H1321	H132	0.780100	0.415300	0.067500
C821	C82	0.825300	0.487500	0.171400
C831	C83	0.837300	0.458800	0.345600
C841	C84	0.851000	0.554300	0.154400
Pr131	Pr13	0.331270	0.128590	0.986050
Pr141	Pr14	0.610520	0.136820	0.172930
O971	O97	0.253000	0.232100	0.872300
O981	O98	0.223600	0.348300	0.794600
O991	O99	0.440500	0.143600	0.069400
O1001	O100	0.520300	0.216100	0.113600
O1011	O101	0.634100	0.027100	0.117600
O1021	O102	0.674100	0.903300	0.126300
O1031	O103	0.622500	0.116500	0.295200
O1041	O104	0.657100	0.046500	0.408600
O1051	O105	0.247300	0.162200	0.980900
H1331	H133	0.239000	0.112800	0.987100
H1341	H134	0.214500	0.185500	0.938900
O1061	O106	0.246600	0.027500	0.888500
H1351	H135	0.247200	0.978000	0.874600
H1361	H136	0.214000	0.035700	0.875500
O1071	O107	0.377800	0.982500	0.015300
H1371	H137	0.362100	0.961900	0.969000
H1381	H138	0.387800	0.943000	0.048400
O1081	O108	0.367000	0.235300	0.102800
H1391	H139	0.402900	0.254100	0.137900
H1401	H140	0.360500	0.208700	0.129800
O1091	O109	0.527000	0.023300	0.122200
H1411	H141	0.539900	0.994400	0.163800
H1421	H142	0.496800	0.051300	0.104400
O1101	O110	0.532500	0.130800	0.010200
H1431	H143	0.512800	0.090600	0.976000
H1441	H144	0.527100	0.175200	0.984300
O1111	O111	0.634400	0.281800	0.235600
H1451	H145	0.619300	0.329200	0.212100
H1461	H146	0.671900	0.285800	0.272900
O1121	O112	0.660200	0.208600	0.129400
H1471	H147	0.642500	0.236700	0.084600
H1481	H148	0.682300	0.171200	0.133200
N131	N13	0.366700	0.266100	0.964000
N141	N14	0.661800	0.998600	0.257800
C851	C85	0.327700	0.324000	0.906800
C861	C86	0.346100	0.399200	0.895900
H1491	H149	0.317500	0.439100	0.854100
C871	C87	0.406800	0.414500	0.946900
H1501	H150	0.420500	0.466000	0.941800
C881	C88	0.446900	0.354500	0.004900
H1511	H151	0.488600	0.363500	0.039600
C891	C89	0.425800	0.280200	0.012400
C901	C90	0.263200	0.300600	0.854000
C911	C91	0.465500	0.208800	0.070000
C921	C92	0.684900	0.945100	0.239000
C931	C93	0.726000	0.882600	0.293200
H1521	H152	0.744600	0.848600	0.280600
C941	C94	0.739000	0.871200	0.366700
H1531	H153	0.765900	0.827900	0.405000
C951	C95	0.712400	0.923400	0.383200
H1541	H154	0.719900	0.915300	0.432500
C961	C96	0.674700	0.987500	0.328600
C971	C97	0.662700	0.958800	0.154400
C981	C98	0.649000	0.054300	0.345600
Pr151	Pr15	0.831270	0.628590	0.986050
Pr161	Pr16	0.110520	0.636820	0.172930
O1131	O113	0.753000	0.732100	0.872300
O1141	O114	0.723600	0.848300	0.794600
O1151	O115	0.940500	0.643600	0.069400
O1161	O116	0.020300	0.716100	0.113600
O1171	O117	0.134100	0.527100	0.117600
O1181	O118	0.174100	0.403300	0.126300
O1191	O119	0.122500	0.616500	0.295200
O1201	O120	0.157100	0.546500	0.408600
O1211	O121	0.747300	0.662200	0.980900
H1551	H155	0.739000	0.612800	0.987100
H1561	H156	0.714500	0.685500	0.938900
O1221	O122	0.746600	0.527500	0.888500
H1571	H157	0.747200	0.478000	0.874600
H1581	H158	0.714000	0.535700	0.875500
O1231	O123	0.877800	0.482500	0.015300
H1591	H159	0.862100	0.461900	0.969000
H1601	H160	0.887800	0.443000	0.048400
O1241	O124	0.867000	0.735300	0.102800
H1611	H161	0.902900	0.754100	0.137900
H1621	H162	0.860500	0.708700	0.129800
O1251	O125	0.027000	0.523300	0.122200
H1631	H163	0.039900	0.494400	0.163800
H1641	H164	0.996800	0.551300	0.104400
O1261	O126	0.032500	0.630800	0.010200
H1651	H165	0.012800	0.590600	0.976000
H1661	H166	0.027100	0.675200	0.984300
O1271	O127	0.134400	0.781800	0.235600
H1671	H167	0.119300	0.829200	0.212100
H1681	H168	0.171900	0.785800	0.272900
O1281	O128	0.160200	0.708600	0.129400
H1691	H169	0.142500	0.736700	0.084600
H1701	H170	0.182300	0.671200	0.133200
N151	N15	0.866700	0.766100	0.964000
N161	N16	0.161800	0.498600	0.257800
C991	C99	0.827700	0.824000	0.906800
C1001	C100	0.846100	0.899200	0.895900
H1711	H171	0.817500	0.939100	0.854100
C1011	C101	0.906800	0.914500	0.946900
H1721	H172	0.920500	0.966000	0.941800
C1021	C102	0.946900	0.854500	0.004900
H1731	H173	0.988600	0.863500	0.039600
C1031	C103	0.925800	0.780200	0.012400
C1041	C104	0.763200	0.800600	0.854000
C1051	C105	0.965500	0.708800	0.070000
C1061	C106	0.184900	0.445100	0.239000
C1071	C107	0.226000	0.382600	0.293200
H1741	H174	0.244600	0.348600	0.280600
C1081	C108	0.239000	0.371200	0.366700
H1751	H175	0.265900	0.327900	0.405000
C1091	C109	0.212400	0.423400	0.383200
H1761	H176	0.219900	0.415300	0.432500
C1101	C110	0.174700	0.487500	0.328600
C1111	C111	0.162700	0.458800	0.154400
C1121	C112	0.149000	0.554300	0.345600
