data_LEYYET_freeONLY_PM
_symmetry_space_group_name_H-M	'P1'
_cell_length_a	10.281000
_cell_length_b	13.844000
_cell_length_c	17.064000
_cell_angle_alpha	90.000000
_cell_angle_beta	90.000000
_cell_angle_gamma	90.000000
_symmetry_Int_Tables_number 1

loop_
_symmetry_equiv_pos_as_xyz
'x,y,z'

loop_
_atom_site_label
_atom_site_type_symbol
_atom_site_fract_x
_atom_site_fract_y
_atom_site_fract_z
P11	P1	0.367600	0.253280	0.203870
P21	P2	0.126300	0.460130	0.337110
P31	P3	0.370700	0.566680	0.580270
Al11	Al1	0.329800	0.478900	0.198120
Al21	Al2	0.374900	0.561700	0.393440
Al31	Al3	0.121900	0.241400	0.306320
O11	O1	0.327000	0.353100	0.177400
O21	O2	0.118200	0.351200	0.355500
O31	O3	0.403600	0.518200	0.289200
O41	O4	0.358700	0.185700	0.135000
O51	O5	0.220400	0.502400	0.395900
O61	O6	0.168500	0.476300	0.253000
O71	O7	0.466700	0.483300	0.584500
O81	O8	0.422900	0.652900	0.627400
O91	O9	0.350200	0.599100	0.496700
O101	O10	0.239400	0.537500	0.614900
O111	O11	0.277900	0.219300	0.270300
O121	O12	0.994600	0.504700	0.351300
O131	O13	0.507600	0.255000	0.232500
H11	H1	0.501900	0.529600	0.286200
P41	P4	0.632400	0.246720	0.703870
P51	P5	0.873700	0.039870	0.837110
P61	P6	0.629300	0.933320	0.080270
Al41	Al4	0.670200	0.021100	0.698120
Al51	Al5	0.625100	0.938300	0.893440
Al61	Al6	0.878100	0.258600	0.806320
O141	O14	0.673000	0.146900	0.677400
O151	O15	0.881800	0.148800	0.855500
O161	O16	0.596400	0.981800	0.789200
O171	O17	0.641300	0.314300	0.635000
O181	O18	0.779600	0.997600	0.895900
O191	O19	0.831500	0.023700	0.753000
O201	O20	0.533300	0.016700	0.084500
O211	O21	0.577100	0.847100	0.127400
O221	O22	0.649800	0.900900	0.996700
O231	O23	0.760600	0.962500	0.114900
O241	O24	0.722100	0.280700	0.770300
O251	O25	0.005400	0.995300	0.851300
O261	O26	0.492400	0.245000	0.732500
H21	H2	0.498100	0.970400	0.786200
P71	P7	0.867600	0.746720	0.296130
P81	P8	0.626300	0.539870	0.162890
P91	P9	0.870700	0.433320	0.919730
Al71	Al7	0.829800	0.521100	0.301880
Al81	Al8	0.874900	0.438300	0.106560
Al91	Al9	0.621900	0.758600	0.193680
O271	O27	0.827000	0.646900	0.322600
O281	O28	0.618200	0.648800	0.144500
O291	O29	0.903600	0.481800	0.210800
O301	O30	0.858700	0.814300	0.365000
O311	O31	0.720400	0.497600	0.104100
O321	O32	0.668500	0.523700	0.247000
O331	O33	0.966700	0.516700	0.915500
O341	O34	0.922900	0.347100	0.872600
O351	O35	0.850200	0.400900	0.003300
O361	O36	0.739400	0.462500	0.885100
O371	O37	0.777900	0.780700	0.229700
O381	O38	0.494600	0.495300	0.148700
O391	O39	0.007600	0.745000	0.267500
H31	H3	0.001900	0.470400	0.213800
P101	P10	0.132400	0.753280	0.796130
P111	P11	0.373700	0.960130	0.662890
P121	P12	0.129300	0.066680	0.419730
Al101	Al10	0.170200	0.978900	0.801880
Al111	Al11	0.125100	0.061700	0.606560
Al121	Al12	0.378100	0.741400	0.693680
O401	O40	0.173000	0.853100	0.822600
O411	O41	0.381800	0.851200	0.644500
O421	O42	0.096400	0.018200	0.710800
O431	O43	0.141300	0.685700	0.865000
O441	O44	0.279600	0.002400	0.604100
O451	O45	0.331500	0.976300	0.747000
O461	O46	0.033300	0.983300	0.415500
O471	O47	0.077100	0.152900	0.372600
O481	O48	0.149800	0.099100	0.503300
O491	O49	0.260600	0.037500	0.385100
O501	O50	0.222100	0.719300	0.729700
O511	O51	0.505400	0.004700	0.648700
O521	O52	0.992400	0.755000	0.767500
H41	H4	0.998100	0.029600	0.713800
P131	P13	0.632400	0.746720	0.796130
P141	P14	0.873700	0.539870	0.662890
P151	P15	0.629300	0.433320	0.419730
Al131	Al13	0.670200	0.521100	0.801880
Al141	Al14	0.625100	0.438300	0.606560
Al151	Al15	0.878100	0.758600	0.693680
O531	O53	0.673000	0.646900	0.822600
O541	O54	0.881800	0.648800	0.644500
O551	O55	0.596400	0.481800	0.710800
O561	O56	0.641300	0.814300	0.865000
O571	O57	0.779600	0.497600	0.604100
O581	O58	0.831500	0.523700	0.747000
O591	O59	0.533300	0.516700	0.415500
O601	O60	0.577100	0.347100	0.372600
O611	O61	0.649800	0.400900	0.503300
O621	O62	0.760600	0.462500	0.385100
O631	O63	0.722100	0.780700	0.729700
O641	O64	0.005400	0.495300	0.648700
O651	O65	0.492400	0.745000	0.767500
H51	H5	0.498100	0.470400	0.713800
P161	P16	0.367600	0.753280	0.296130
P171	P17	0.126300	0.960130	0.162890
P181	P18	0.370700	0.066680	0.919730
Al161	Al16	0.329800	0.978900	0.301880
Al171	Al17	0.374900	0.061700	0.106560
Al181	Al18	0.121900	0.741400	0.193680
O661	O66	0.327000	0.853100	0.322600
O671	O67	0.118200	0.851200	0.144500
O681	O68	0.403600	0.018200	0.210800
O691	O69	0.358700	0.685700	0.365000
O701	O70	0.220400	0.002400	0.104100
O711	O71	0.168500	0.976300	0.247000
O721	O72	0.466700	0.983300	0.915500
O731	O73	0.422900	0.152900	0.872600
O741	O74	0.350200	0.099100	0.003300
O751	O75	0.239400	0.037500	0.885100
O761	O76	0.277900	0.719300	0.229700
O771	O77	0.994600	0.004700	0.148700
O781	O78	0.507600	0.755000	0.267500
H61	H6	0.501900	0.029600	0.213800
P191	P19	0.132400	0.253280	0.703870
P201	P20	0.373700	0.460130	0.837110
P211	P21	0.129300	0.566680	0.080270
Al191	Al19	0.170200	0.478900	0.698120
Al201	Al20	0.125100	0.561700	0.893440
Al211	Al21	0.378100	0.241400	0.806320
O791	O79	0.173000	0.353100	0.677400
O801	O80	0.381800	0.351200	0.855500
O811	O81	0.096400	0.518200	0.789200
O821	O82	0.141300	0.185700	0.635000
O831	O83	0.279600	0.502400	0.895900
O841	O84	0.331500	0.476300	0.753000
O851	O85	0.033300	0.483300	0.084500
O861	O86	0.077100	0.652900	0.127400
O871	O87	0.149800	0.599100	0.996700
O881	O88	0.260600	0.537500	0.114900
O891	O89	0.222100	0.219300	0.770300
O901	O90	0.505400	0.504700	0.851300
O911	O91	0.992400	0.255000	0.732500
H71	H7	0.998100	0.529600	0.786200
P221	P22	0.867600	0.246720	0.203870
P231	P23	0.626300	0.039870	0.337110
P241	P24	0.870700	0.933320	0.580270
Al221	Al22	0.829800	0.021100	0.198120
Al231	Al23	0.874900	0.938300	0.393440
Al241	Al24	0.621900	0.258600	0.306320
O921	O92	0.827000	0.146900	0.177400
O931	O93	0.618200	0.148800	0.355500
O941	O94	0.903600	0.981800	0.289200
O951	O95	0.858700	0.314300	0.135000
O961	O96	0.720400	0.997600	0.395900
O971	O97	0.668500	0.023700	0.253000
O981	O98	0.966700	0.016700	0.584500
O991	O99	0.922900	0.847100	0.627400
O1001	O100	0.850200	0.900900	0.496700
O1011	O101	0.739400	0.962500	0.614900
O1021	O102	0.777900	0.280700	0.270300
O1031	O103	0.494600	0.995300	0.351300
O1041	O104	0.007600	0.245000	0.232500
H81	H8	0.001900	0.970400	0.286200
