data_LIBQIY_freeONLY_PM
_symmetry_space_group_name_H-M	'P1'
_cell_length_a	30.426500
_cell_length_b	15.603200
_cell_length_c	21.900600
_cell_angle_alpha	90.000000
_cell_angle_beta	133.016000
_cell_angle_gamma	90.000000
_symmetry_Int_Tables_number 1

loop_
_symmetry_equiv_pos_as_xyz
'x,y,z'

loop_
_atom_site_label
_atom_site_type_symbol
_atom_site_fract_x
_atom_site_fract_y
_atom_site_fract_z
Sm11	Sm1	0.831480	0.872530	0.985700
Sm21	Sm2	0.110410	0.863970	0.174750
O11	O1	0.748700	0.838200	0.981200
H11	H1	0.740400	0.887600	0.987500
H21	H2	0.715900	0.814800	0.939200
O21	O2	0.748100	0.973200	0.891000
O31	O3	0.876600	0.018600	0.013800
O41	O4	0.866400	0.765800	0.099600
H31	H3	0.902200	0.746900	0.134700
H41	H4	0.859800	0.792300	0.126700
O51	O5	0.028200	0.976800	0.123500
O61	O6	0.033000	0.867400	0.013200
O71	O7	0.132300	0.719600	0.234300
O81	O8	0.158900	0.791300	0.132500
H51	H5	0.141200	0.763200	0.087700
H61	H6	0.181000	0.828700	0.136300
O91	O9	0.752400	0.772000	0.871300
O101	O10	0.722400	0.653400	0.795100
O111	O11	0.940000	0.859300	0.069500
O121	O12	0.021100	0.786800	0.115700
O131	O13	0.134000	0.969900	0.118000
O141	O14	0.172600	0.094700	0.124100
O151	O15	0.121600	0.882900	0.295100
O161	O16	0.156800	0.952300	0.409500
N11	N1	0.865800	0.737000	0.963900
N21	N2	0.161700	0.000600	0.258200
C11	C1	0.826900	0.678500	0.906000
C21	C2	0.845300	0.602400	0.895700
H71	H7	0.816900	0.561600	0.854700
C31	C3	0.906800	0.588200	0.947400
H81	H8	0.920800	0.537000	0.942000
C41	C4	0.947100	0.648200	0.006000
H91	H9	0.989100	0.639200	0.041300
C51	C5	0.925600	0.722300	0.013000
C61	C6	0.762000	0.702400	0.853500
C71	C7	0.965600	0.793900	0.071600
C81	C8	0.184800	0.053900	0.238300
C91	C9	0.225500	0.116600	0.292100
H101	H10	0.243800	0.151000	0.278700
C101	C10	0.239300	0.128300	0.366300
H111	H11	0.266600	0.171800	0.404400
C111	C11	0.212600	0.075500	0.384000
H121	H12	0.220400	0.083900	0.433600
C121	C12	0.174900	0.011200	0.329700
C131	C13	0.162500	0.038400	0.153500
C141	C14	0.148300	0.944200	0.345700
Sm31	Sm3	0.331480	0.372530	0.985700
Sm41	Sm4	0.610410	0.363970	0.174750
O171	O17	0.248700	0.338200	0.981200
H131	H13	0.240400	0.387600	0.987500
H141	H14	0.215900	0.314800	0.939200
O181	O18	0.248100	0.473200	0.891000
O191	O19	0.376600	0.518600	0.013800
O201	O20	0.366400	0.265800	0.099600
H151	H15	0.402200	0.246900	0.134700
H161	H16	0.359800	0.292300	0.126700
O211	O21	0.528200	0.476800	0.123500
O221	O22	0.533000	0.367400	0.013200
O231	O23	0.632300	0.219600	0.234300
O241	O24	0.658900	0.291300	0.132500
H171	H17	0.641200	0.263200	0.087700
H181	H18	0.681000	0.328700	0.136300
O251	O25	0.252400	0.272000	0.871300
O261	O26	0.222400	0.153400	0.795100
O271	O27	0.440000	0.359300	0.069500
O281	O28	0.521100	0.286800	0.115700
O291	O29	0.634000	0.469900	0.118000
O301	O30	0.672600	0.594700	0.124100
O311	O31	0.621600	0.382900	0.295100
O321	O32	0.656800	0.452300	0.409500
N31	N3	0.365800	0.237000	0.963900
N41	N4	0.661700	0.500600	0.258200
C151	C15	0.326900	0.178500	0.906000
C161	C16	0.345300	0.102400	0.895700
H191	H19	0.316900	0.061600	0.854700
C171	C17	0.406800	0.088200	0.947400
H201	H20	0.420800	0.037000	0.942000
C181	C18	0.447100	0.148200	0.006000
H211	H21	0.489100	0.139200	0.041300
C191	C19	0.425600	0.222300	0.013000
C201	C20	0.262000	0.202400	0.853500
C211	C21	0.465600	0.293900	0.071600
C221	C22	0.684800	0.553900	0.238300
C231	C23	0.725500	0.616600	0.292100
H221	H22	0.743800	0.651000	0.278700
C241	C24	0.739300	0.628300	0.366300
H231	H23	0.766600	0.671800	0.404400
C251	C25	0.712600	0.575500	0.384000
H241	H24	0.720400	0.583900	0.433600
C261	C26	0.674900	0.511200	0.329700
C271	C27	0.662500	0.538400	0.153500
C281	C28	0.648300	0.444200	0.345700
Sm51	Sm5	0.168520	0.872530	0.514300
Sm61	Sm6	0.889590	0.863970	0.325250
O331	O33	0.251300	0.838200	0.518800
H251	H25	0.259600	0.887600	0.512500
H261	H26	0.284100	0.814800	0.560800
O341	O34	0.251900	0.973200	0.609000
O351	O35	0.123400	0.018600	0.486200
O361	O36	0.133600	0.765800	0.400400
H271	H27	0.097800	0.746900	0.365300
H281	H28	0.140200	0.792300	0.373300
O371	O37	0.971800	0.976800	0.376500
O381	O38	0.967000	0.867400	0.486800
O391	O39	0.867700	0.719600	0.265700
O401	O40	0.841100	0.791300	0.367500
H291	H29	0.858800	0.763200	0.412300
H301	H30	0.819000	0.828700	0.363700
O411	O41	0.247600	0.772000	0.628700
O421	O42	0.277600	0.653400	0.704900
O431	O43	0.060000	0.859300	0.430500
O441	O44	0.978900	0.786800	0.384300
O451	O45	0.866000	0.969900	0.382000
O461	O46	0.827400	0.094700	0.375900
O471	O47	0.878400	0.882900	0.204900
O481	O48	0.843200	0.952300	0.090500
N51	N5	0.134200	0.737000	0.536100
N61	N6	0.838300	0.000600	0.241800
C291	C29	0.173100	0.678500	0.594000
C301	C30	0.154700	0.602400	0.604300
H311	H31	0.183100	0.561600	0.645300
C311	C31	0.093200	0.588200	0.552600
H321	H32	0.079200	0.537000	0.558000
C321	C32	0.052900	0.648200	0.494000
H331	H33	0.010900	0.639200	0.458700
C331	C33	0.074400	0.722300	0.487000
C341	C34	0.238000	0.702400	0.646500
C351	C35	0.034400	0.793900	0.428400
C361	C36	0.815200	0.053900	0.261700
C371	C37	0.774500	0.116600	0.207900
H341	H34	0.756200	0.151000	0.221300
C381	C38	0.760700	0.128300	0.133700
H351	H35	0.733400	0.171800	0.095600
C391	C39	0.787400	0.075500	0.116000
H361	H36	0.779600	0.083900	0.066400
C401	C40	0.825100	0.011200	0.170300
C411	C41	0.837500	0.038400	0.346500
C421	C42	0.851700	0.944200	0.154300
Sm71	Sm7	0.668520	0.372530	0.514300
Sm81	Sm8	0.389590	0.363970	0.325250
O491	O49	0.751300	0.338200	0.518800
H371	H37	0.759600	0.387600	0.512500
H381	H38	0.784100	0.314800	0.560800
O501	O50	0.751900	0.473200	0.609000
O511	O51	0.623400	0.518600	0.486200
O521	O52	0.633600	0.265800	0.400400
H391	H39	0.597800	0.246900	0.365300
H401	H40	0.640200	0.292300	0.373300
O531	O53	0.471800	0.476800	0.376500
O541	O54	0.467000	0.367400	0.486800
O551	O55	0.367700	0.219600	0.265700
O561	O56	0.341100	0.291300	0.367500
H411	H41	0.358800	0.263200	0.412300
H421	H42	0.319000	0.328700	0.363700
O571	O57	0.747600	0.272000	0.628700
O581	O58	0.777600	0.153400	0.704900
O591	O59	0.560000	0.359300	0.430500
O601	O60	0.478900	0.286800	0.384300
O611	O61	0.366000	0.469900	0.382000
O621	O62	0.327400	0.594700	0.375900
O631	O63	0.378400	0.382900	0.204900
O641	O64	0.343200	0.452300	0.090500
N71	N7	0.634200	0.237000	0.536100
N81	N8	0.338300	0.500600	0.241800
C431	C43	0.673100	0.178500	0.594000
C441	C44	0.654700	0.102400	0.604300
H431	H43	0.683100	0.061600	0.645300
C451	C45	0.593200	0.088200	0.552600
H441	H44	0.579200	0.037000	0.558000
C461	C46	0.552900	0.148200	0.494000
H451	H45	0.510900	0.139200	0.458700
C471	C47	0.574400	0.222300	0.487000
C481	C48	0.738000	0.202400	0.646500
C491	C49	0.534400	0.293900	0.428400
C501	C50	0.315200	0.553900	0.261700
C511	C51	0.274500	0.616600	0.207900
H461	H46	0.256200	0.651000	0.221300
C521	C52	0.260700	0.628300	0.133700
H471	H47	0.233400	0.671800	0.095600
C531	C53	0.287400	0.575500	0.116000
H481	H48	0.279600	0.583900	0.066400
C541	C54	0.325100	0.511200	0.170300
C551	C55	0.337500	0.538400	0.346500
C561	C56	0.351700	0.444200	0.154300
Sm91	Sm9	0.168520	0.127470	0.014300
Sm101	Sm10	0.889590	0.136030	0.825250
O651	O65	0.251300	0.161800	0.018800
H491	H49	0.259600	0.112400	0.012500
H501	H50	0.284100	0.185200	0.060800
O661	O66	0.251900	0.026800	0.109000
O671	O67	0.123400	0.981400	0.986200
O681	O68	0.133600	0.234200	0.900400
H511	H51	0.097800	0.253100	0.865300
H521	H52	0.140200	0.207700	0.873300
O691	O69	0.971800	0.023200	0.876500
O701	O70	0.967000	0.132600	0.986800
O711	O71	0.867700	0.280400	0.765700
O721	O72	0.841100	0.208700	0.867500
H531	H53	0.858800	0.236800	0.912300
H541	H54	0.819000	0.171300	0.863700
O731	O73	0.247600	0.228000	0.128700
O741	O74	0.277600	0.346600	0.204900
O751	O75	0.060000	0.140700	0.930500
O761	O76	0.978900	0.213200	0.884300
O771	O77	0.866000	0.030100	0.882000
O781	O78	0.827400	0.905300	0.875900
O791	O79	0.878400	0.117100	0.704900
O801	O80	0.843200	0.047700	0.590500
N91	N9	0.134200	0.263000	0.036100
N101	N10	0.838300	0.999400	0.741800
C571	C57	0.173100	0.321500	0.094000
C581	C58	0.154700	0.397600	0.104300
H551	H55	0.183100	0.438400	0.145300
C591	C59	0.093200	0.411800	0.052600
H561	H56	0.079200	0.463000	0.058000
C601	C60	0.052900	0.351800	0.994000
H571	H57	0.010900	0.360800	0.958700
C611	C61	0.074400	0.277700	0.987000
C621	C62	0.238000	0.297600	0.146500
C631	C63	0.034400	0.206100	0.928400
C641	C64	0.815200	0.946100	0.761700
C651	C65	0.774500	0.883400	0.707900
H581	H58	0.756200	0.849000	0.721300
C661	C66	0.760700	0.871700	0.633700
H591	H59	0.733400	0.828200	0.595600
C671	C67	0.787400	0.924500	0.616000
H601	H60	0.779600	0.916100	0.566400
C681	C68	0.825100	0.988800	0.670300
C691	C69	0.837500	0.961600	0.846500
C701	C70	0.851700	0.055800	0.654300
Sm111	Sm11	0.668520	0.627470	0.014300
Sm121	Sm12	0.389590	0.636030	0.825250
O811	O81	0.751300	0.661800	0.018800
H611	H61	0.759600	0.612400	0.012500
H621	H62	0.784100	0.685200	0.060800
O821	O82	0.751900	0.526800	0.109000
O831	O83	0.623400	0.481400	0.986200
O841	O84	0.633600	0.734200	0.900400
H631	H63	0.597800	0.753100	0.865300
H641	H64	0.640200	0.707700	0.873300
O851	O85	0.471800	0.523200	0.876500
O861	O86	0.467000	0.632600	0.986800
O871	O87	0.367700	0.780400	0.765700
O881	O88	0.341100	0.708700	0.867500
H651	H65	0.358800	0.736800	0.912300
H661	H66	0.319000	0.671300	0.863700
O891	O89	0.747600	0.728000	0.128700
O901	O90	0.777600	0.846600	0.204900
O911	O91	0.560000	0.640700	0.930500
O921	O92	0.478900	0.713200	0.884300
O931	O93	0.366000	0.530100	0.882000
O941	O94	0.327400	0.405300	0.875900
O951	O95	0.378400	0.617100	0.704900
O961	O96	0.343200	0.547700	0.590500
N111	N11	0.634200	0.763000	0.036100
N121	N12	0.338300	0.499400	0.741800
C711	C71	0.673100	0.821500	0.094000
C721	C72	0.654700	0.897600	0.104300
H671	H67	0.683100	0.938400	0.145300
C731	C73	0.593200	0.911800	0.052600
H681	H68	0.579200	0.963000	0.058000
C741	C74	0.552900	0.851800	0.994000
H691	H69	0.510900	0.860800	0.958700
C751	C75	0.574400	0.777700	0.987000
C761	C76	0.738000	0.797600	0.146500
C771	C77	0.534400	0.706100	0.928400
C781	C78	0.315200	0.446100	0.761700
C791	C79	0.274500	0.383400	0.707900
H701	H70	0.256200	0.349000	0.721300
C801	C80	0.260700	0.371700	0.633700
H711	H71	0.233400	0.328200	0.595600
C811	C81	0.287400	0.424500	0.616000
H721	H72	0.279600	0.416100	0.566400
C821	C82	0.325100	0.488800	0.670300
C831	C83	0.337500	0.461600	0.846500
C841	C84	0.351700	0.555800	0.654300
Sm131	Sm13	0.831480	0.127470	0.485700
Sm141	Sm14	0.110410	0.136030	0.674750
O971	O97	0.748700	0.161800	0.481200
H731	H73	0.740400	0.112400	0.487500
H741	H74	0.715900	0.185200	0.439200
O981	O98	0.748100	0.026800	0.391000
O991	O99	0.876600	0.981400	0.513800
O1001	O100	0.866400	0.234200	0.599600
H751	H75	0.902200	0.253100	0.634700
H761	H76	0.859800	0.207700	0.626700
O1011	O101	0.028200	0.023200	0.623500
O1021	O102	0.033000	0.132600	0.513200
O1031	O103	0.132300	0.280400	0.734300
O1041	O104	0.158900	0.208700	0.632500
H771	H77	0.141200	0.236800	0.587700
H781	H78	0.181000	0.171300	0.636300
O1051	O105	0.752400	0.228000	0.371300
O1061	O106	0.722400	0.346600	0.295100
O1071	O107	0.940000	0.140700	0.569500
O1081	O108	0.021100	0.213200	0.615700
O1091	O109	0.134000	0.030100	0.618000
O1101	O110	0.172600	0.905300	0.624100
O1111	O111	0.121600	0.117100	0.795100
O1121	O112	0.156800	0.047700	0.909500
N131	N13	0.865800	0.263000	0.463900
N141	N14	0.161700	0.999400	0.758200
C851	C85	0.826900	0.321500	0.406000
C861	C86	0.845300	0.397600	0.395700
H791	H79	0.816900	0.438400	0.354700
C871	C87	0.906800	0.411800	0.447400
H801	H80	0.920800	0.463000	0.442000
C881	C88	0.947100	0.351800	0.506000
H811	H81	0.989100	0.360800	0.541300
C891	C89	0.925600	0.277700	0.513000
C901	C90	0.762000	0.297600	0.353500
C911	C91	0.965600	0.206100	0.571600
C921	C92	0.184800	0.946100	0.738300
C931	C93	0.225500	0.883400	0.792100
H821	H82	0.243800	0.849000	0.778700
C941	C94	0.239300	0.871700	0.866300
H831	H83	0.266600	0.828200	0.904400
C951	C95	0.212600	0.924500	0.884000
H841	H84	0.220400	0.916100	0.933600
C961	C96	0.174900	0.988800	0.829700
C971	C97	0.162500	0.961600	0.653500
C981	C98	0.148300	0.055800	0.845700
Sm151	Sm15	0.331480	0.627470	0.485700
Sm161	Sm16	0.610410	0.636030	0.674750
O1131	O113	0.248700	0.661800	0.481200
H851	H85	0.240400	0.612400	0.487500
H861	H86	0.215900	0.685200	0.439200
O1141	O114	0.248100	0.526800	0.391000
O1151	O115	0.376600	0.481400	0.513800
O1161	O116	0.366400	0.734200	0.599600
H871	H87	0.402200	0.753100	0.634700
H881	H88	0.359800	0.707700	0.626700
O1171	O117	0.528200	0.523200	0.623500
O1181	O118	0.533000	0.632600	0.513200
O1191	O119	0.632300	0.780400	0.734300
O1201	O120	0.658900	0.708700	0.632500
H891	H89	0.641200	0.736800	0.587700
H901	H90	0.681000	0.671300	0.636300
O1211	O121	0.252400	0.728000	0.371300
O1221	O122	0.222400	0.846600	0.295100
O1231	O123	0.440000	0.640700	0.569500
O1241	O124	0.521100	0.713200	0.615700
O1251	O125	0.634000	0.530100	0.618000
O1261	O126	0.672600	0.405300	0.624100
O1271	O127	0.621600	0.617100	0.795100
O1281	O128	0.656800	0.547700	0.909500
N151	N15	0.365800	0.763000	0.463900
N161	N16	0.661700	0.499400	0.758200
C991	C99	0.326900	0.821500	0.406000
C1001	C100	0.345300	0.897600	0.395700
H911	H91	0.316900	0.938400	0.354700
C1011	C101	0.406800	0.911800	0.447400
H921	H92	0.420800	0.963000	0.442000
C1021	C102	0.447100	0.851800	0.506000
H931	H93	0.489100	0.860800	0.541300
C1031	C103	0.425600	0.777700	0.513000
C1041	C104	0.262000	0.797600	0.353500
C1051	C105	0.465600	0.706100	0.571600
C1061	C106	0.684800	0.446100	0.738300
C1071	C107	0.725500	0.383400	0.792100
H941	H94	0.743800	0.349000	0.778700
C1081	C108	0.739300	0.371700	0.866300
H951	H95	0.766600	0.328200	0.904400
C1091	C109	0.712600	0.424500	0.884000
H961	H96	0.720400	0.416100	0.933600
C1101	C110	0.674900	0.488800	0.829700
C1111	C111	0.662500	0.461600	0.653500
C1121	C112	0.648300	0.555800	0.845700
