data_LIDZOP_freeONLY_PM
_symmetry_space_group_name_H-M	'P1'
_cell_length_a	5.727700
_cell_length_b	12.172200
_cell_length_c	22.903400
_cell_angle_alpha	98.857000
_cell_angle_beta	90.000000
_cell_angle_gamma	90.000000
_symmetry_Int_Tables_number 1

loop_
_symmetry_equiv_pos_as_xyz
'x,y,z'

loop_
_atom_site_label
_atom_site_type_symbol
_atom_site_fract_x
_atom_site_fract_y
_atom_site_fract_z
Sr11	Sr1	0.255350	0.633480	0.224330
Sr21	Sr2	0.755350	0.866520	0.275670
Sr31	Sr3	0.744650	0.366520	0.775670
Sr41	Sr4	0.244650	0.133480	0.724330
H11	H1	0.512700	0.371100	0.935900
H21	H2	0.436200	0.419300	0.035300
H31	H3	0.795000	0.286800	0.010200
H41	H4	0.872700	0.239800	0.910100
H51	H5	0.434100	0.340800	0.170000
H61	H6	0.519400	0.190300	0.216700
H71	H7	0.892700	0.056800	0.171600
H81	H8	0.809000	0.204700	0.121800
H91	H9	0.012700	0.128900	0.564100
H101	H10	0.936200	0.080700	0.464700
H111	H11	0.295000	0.213200	0.489800
H121	H12	0.372700	0.260200	0.589900
H131	H13	0.934100	0.159200	0.330000
H141	H14	0.019400	0.309700	0.283300
H151	H15	0.392700	0.443200	0.328400
H161	H16	0.309000	0.295300	0.378200
H171	H17	0.487300	0.628900	0.064100
H181	H18	0.563800	0.580700	0.964700
H191	H19	0.205000	0.713200	0.989800
H201	H20	0.127300	0.760200	0.089900
H211	H21	0.565900	0.659200	0.830000
H221	H22	0.480600	0.809700	0.783300
H231	H23	0.107300	0.943200	0.828400
H241	H24	0.191000	0.795300	0.878200
H251	H25	0.987300	0.871100	0.435900
H261	H26	0.063800	0.919300	0.535300
H271	H27	0.705000	0.786800	0.510200
H281	H28	0.627300	0.739800	0.410100
H291	H29	0.065900	0.840800	0.670000
H301	H30	0.980600	0.690300	0.716700
H311	H31	0.607300	0.556800	0.671600
H321	H32	0.691000	0.704700	0.621800
C11	C1	0.246200	0.276100	0.847520
C21	C2	0.199000	0.302700	0.912710
C31	C3	0.367500	0.355200	0.950730
C41	C4	0.322700	0.384000	0.010030
C51	C5	0.107100	0.359900	0.031570
C61	C6	0.938100	0.304700	0.994900
C71	C7	0.985100	0.276500	0.935200
C81	C8	0.112200	0.287100	0.142500
C91	C9	0.326300	0.283800	0.170170
C101	C10	0.376000	0.193800	0.198070
C111	C11	0.215500	0.108400	0.198820
C121	C12	0.001700	0.113200	0.170810
C131	C13	0.950200	0.202100	0.141660
C141	C14	0.272000	0.012900	0.232060
C151	C15	0.746200	0.223900	0.652480
C161	C16	0.699000	0.197300	0.587290
C171	C17	0.867500	0.144800	0.549270
C181	C18	0.822700	0.116000	0.489970
C191	C19	0.607100	0.140100	0.468430
C201	C20	0.438100	0.195300	0.505100
C211	C21	0.485100	0.223500	0.564800
C221	C22	0.612200	0.212900	0.357500
C231	C23	0.826300	0.216200	0.329830
C241	C24	0.876000	0.306200	0.301930
C251	C25	0.715500	0.391600	0.301180
C261	C26	0.501700	0.386800	0.329190
C271	C27	0.450200	0.297900	0.358340
C281	C28	0.772000	0.487100	0.267940
C291	C29	0.753800	0.723900	0.152480
C301	C30	0.801000	0.697300	0.087290
C311	C31	0.632500	0.644800	0.049270
C321	C32	0.677300	0.616000	0.989970
C331	C33	0.892900	0.640100	0.968430
C341	C34	0.061900	0.695300	0.005100
C351	C35	0.014900	0.723500	0.064800
C361	C36	0.887800	0.712900	0.857500
C371	C37	0.673700	0.716200	0.829830
C381	C38	0.624000	0.806200	0.801930
C391	C39	0.784500	0.891600	0.801180
C401	C40	0.998300	0.886800	0.829190
C411	C41	0.049800	0.797900	0.858340
C421	C42	0.728000	0.987100	0.767940
C431	C43	0.253800	0.776100	0.347520
C441	C44	0.301000	0.802700	0.412710
C451	C45	0.132500	0.855200	0.450730
C461	C46	0.177300	0.884000	0.510030
C471	C47	0.392900	0.859900	0.531570
C481	C48	0.561900	0.804700	0.494900
C491	C49	0.514900	0.776500	0.435200
C501	C50	0.387800	0.787100	0.642500
C511	C51	0.173700	0.783800	0.670170
C521	C52	0.124000	0.693800	0.698070
C531	C53	0.284500	0.608400	0.698820
C541	C54	0.498300	0.613200	0.670810
C551	C55	0.549800	0.702100	0.641660
C561	C56	0.228000	0.512900	0.732060
S11	S1	0.038290	0.401340	0.107150
S21	S2	0.538290	0.098660	0.392850
S31	S3	0.961710	0.598660	0.892850
S41	S4	0.461710	0.901340	0.607150
O11	O1	0.482100	0.995590	0.240780
O21	O2	0.104700	0.960720	0.248830
O31	O3	0.451800	0.265190	0.829630
O41	O4	0.071100	0.261700	0.813490
O51	O5	0.194300	0.492190	0.128920
O61	O6	0.790800	0.418290	0.111700
O71	O7	0.982100	0.504410	0.259220
O81	O8	0.604700	0.539280	0.251170
O91	O9	0.951800	0.234810	0.670370
O101	O10	0.571100	0.238300	0.686510
O111	O11	0.694300	0.007810	0.371080
O121	O12	0.290800	0.081710	0.388300
O131	O13	0.517900	0.004410	0.759220
O141	O14	0.895300	0.039280	0.751170
O151	O15	0.548200	0.734810	0.170370
O161	O16	0.928900	0.738300	0.186510
O171	O17	0.805700	0.507810	0.871080
O181	O18	0.209200	0.581710	0.888300
O191	O19	0.017900	0.495590	0.740780
O201	O20	0.395300	0.460720	0.748830
O211	O21	0.048200	0.765190	0.329630
O221	O22	0.428900	0.761700	0.313490
O231	O23	0.305700	0.992190	0.628920
O241	O24	0.709200	0.918290	0.611700
