data_LIFWII_freeONLY_PM
_symmetry_space_group_name_H-M	'P1'
_cell_length_a	19.918800
_cell_length_b	19.918800
_cell_length_c	15.289200
_cell_angle_alpha	90.000000
_cell_angle_beta	90.000000
_cell_angle_gamma	90.000000
_symmetry_Int_Tables_number 1

loop_
_symmetry_equiv_pos_as_xyz
'x,y,z'

loop_
_atom_site_label
_atom_site_type_symbol
_atom_site_fract_x
_atom_site_fract_y
_atom_site_fract_z
F11	F1	0.316940	0.199080	0.351420
N11	N1	0.356870	0.248080	0.601180
C11	C1	0.390360	0.218520	0.667100
H11	H1	0.365400	0.198300	0.713000
C21	C2	0.459660	0.216400	0.670700
H21	H2	0.481500	0.193900	0.717600
C31	C3	0.497400	0.247300	0.605400
C41	C4	0.462020	0.277900	0.537100
H31	H3	0.485600	0.299300	0.490800
C51	C5	0.392590	0.276880	0.537100
H41	H4	0.369300	0.297400	0.489900
C61	C6	0.571180	0.247900	0.608500
C71	C7	0.607190	0.192100	0.637600
H51	H5	0.583700	0.153000	0.655900
C81	C8	0.677000	0.192800	0.640200
H61	H6	0.700600	0.154000	0.659500
C91	C9	0.712710	0.249800	0.614800
C101	C10	0.676510	0.305800	0.586700
H71	H7	0.699900	0.345400	0.570400
C111	C11	0.607190	0.304500	0.582200
H81	H8	0.583800	0.342700	0.560800
F21	F2	0.183060	0.300920	0.351420
N21	N2	0.143130	0.251920	0.601180
C121	C12	0.109640	0.281480	0.667100
H91	H9	0.134600	0.301700	0.713000
C131	C13	0.040340	0.283600	0.670700
H101	H10	0.018500	0.306100	0.717600
C141	C14	0.002600	0.252700	0.605400
C151	C15	0.037980	0.222100	0.537100
H111	H11	0.014400	0.200700	0.490800
C161	C16	0.107410	0.223120	0.537100
H121	H12	0.130700	0.202600	0.489900
C171	C17	0.928820	0.252100	0.608500
C181	C18	0.892810	0.307900	0.637600
H131	H13	0.916300	0.347000	0.655900
C191	C19	0.823000	0.307200	0.640200
H141	H14	0.799400	0.346000	0.659500
C201	C20	0.787290	0.250200	0.614800
C211	C21	0.823490	0.194200	0.586700
H151	H15	0.800100	0.154600	0.570400
C221	C22	0.892810	0.195500	0.582200
H161	H16	0.916200	0.157300	0.560800
F31	F3	0.300920	0.316940	0.351420
N31	N3	0.251920	0.356870	0.601180
C231	C23	0.281480	0.390360	0.667100
H171	H17	0.301700	0.365400	0.713000
C241	C24	0.283600	0.459660	0.670700
H181	H18	0.306100	0.481500	0.717600
C251	C25	0.252700	0.497400	0.605400
C261	C26	0.222100	0.462020	0.537100
H191	H19	0.200700	0.485600	0.490800
C271	C27	0.223120	0.392590	0.537100
H201	H20	0.202600	0.369300	0.489900
C281	C28	0.252100	0.571180	0.608500
C291	C29	0.307900	0.607190	0.637600
H211	H21	0.347000	0.583700	0.655900
C301	C30	0.307200	0.677000	0.640200
H221	H22	0.346000	0.700600	0.659500
C311	C31	0.250200	0.712710	0.614800
C321	C32	0.194200	0.676510	0.586700
H231	H23	0.154600	0.699900	0.570400
C331	C33	0.195500	0.607190	0.582200
H241	H24	0.157300	0.583800	0.560800
F41	F4	0.199080	0.183060	0.351420
N41	N4	0.248080	0.143130	0.601180
C341	C34	0.218520	0.109640	0.667100
H251	H25	0.198300	0.134600	0.713000
C351	C35	0.216400	0.040340	0.670700
H261	H26	0.193900	0.018500	0.717600
C361	C36	0.247300	0.002600	0.605400
C371	C37	0.277900	0.037980	0.537100
H271	H27	0.299300	0.014400	0.490800
C381	C38	0.276880	0.107410	0.537100
H281	H28	0.297400	0.130700	0.489900
C391	C39	0.247900	0.928820	0.608500
C401	C40	0.192100	0.892810	0.637600
H291	H29	0.153000	0.916300	0.655900
C411	C41	0.192800	0.823000	0.640200
H301	H30	0.154000	0.799400	0.659500
C421	C42	0.249800	0.787290	0.614800
C431	C43	0.305800	0.823490	0.586700
H311	H31	0.345400	0.800100	0.570400
C441	C44	0.304500	0.892810	0.582200
H321	H32	0.342700	0.916200	0.560800
F51	F5	0.316940	0.300920	0.851420
N51	N5	0.356870	0.251920	0.101180
C451	C45	0.390360	0.281480	0.167100
H331	H33	0.365400	0.301700	0.213000
C461	C46	0.459660	0.283600	0.170700
H341	H34	0.481500	0.306100	0.217600
C471	C47	0.497400	0.252700	0.105400
C481	C48	0.462020	0.222100	0.037100
H351	H35	0.485600	0.200700	0.990800
C491	C49	0.392590	0.223120	0.037100
H361	H36	0.369300	0.202600	0.989900
C501	C50	0.571180	0.252100	0.108500
C511	C51	0.607190	0.307900	0.137600
H371	H37	0.583700	0.347000	0.155900
C521	C52	0.677000	0.307200	0.140200
H381	H38	0.700600	0.346000	0.159500
C531	C53	0.712710	0.250200	0.114800
C541	C54	0.676510	0.194200	0.086700
H391	H39	0.699900	0.154600	0.070400
C551	C55	0.607190	0.195500	0.082200
H401	H40	0.583800	0.157300	0.060800
F61	F6	0.183060	0.199080	0.851420
N61	N6	0.143130	0.248080	0.101180
C561	C56	0.109640	0.218520	0.167100
H411	H41	0.134600	0.198300	0.213000
C571	C57	0.040340	0.216400	0.170700
H421	H42	0.018500	0.193900	0.217600
C581	C58	0.002600	0.247300	0.105400
C591	C59	0.037980	0.277900	0.037100
H431	H43	0.014400	0.299300	0.990800
C601	C60	0.107410	0.276880	0.037100
H441	H44	0.130700	0.297400	0.989900
C611	C61	0.928820	0.247900	0.108500
C621	C62	0.892810	0.192100	0.137600
H451	H45	0.916300	0.153000	0.155900
C631	C63	0.823000	0.192800	0.140200
H461	H46	0.799400	0.154000	0.159500
C641	C64	0.787290	0.249800	0.114800
C651	C65	0.823490	0.305800	0.086700
H471	H47	0.800100	0.345400	0.070400
C661	C66	0.892810	0.304500	0.082200
H481	H48	0.916200	0.342700	0.060800
F71	F7	0.300920	0.183060	0.851420
N71	N7	0.251920	0.143130	0.101180
C671	C67	0.281480	0.109640	0.167100
H491	H49	0.301700	0.134600	0.213000
C681	C68	0.283600	0.040340	0.170700
H501	H50	0.306100	0.018500	0.217600
C691	C69	0.252700	0.002600	0.105400
C701	C70	0.222100	0.037980	0.037100
H511	H51	0.200700	0.014400	0.990800
C711	C71	0.223120	0.107410	0.037100
H521	H52	0.202600	0.130700	0.989900
C721	C72	0.252100	0.928820	0.108500
C731	C73	0.307900	0.892810	0.137600
H531	H53	0.347000	0.916300	0.155900
C741	C74	0.307200	0.823000	0.140200
H541	H54	0.346000	0.799400	0.159500
C751	C75	0.250200	0.787290	0.114800
C761	C76	0.194200	0.823490	0.086700
H551	H55	0.154600	0.800100	0.070400
C771	C77	0.195500	0.892810	0.082200
H561	H56	0.157300	0.916200	0.060800
F81	F8	0.199080	0.316940	0.851420
N81	N8	0.248080	0.356870	0.101180
C781	C78	0.218520	0.390360	0.167100
H571	H57	0.198300	0.365400	0.213000
C791	C79	0.216400	0.459660	0.170700
H581	H58	0.193900	0.481500	0.217600
C801	C80	0.247300	0.497400	0.105400
C811	C81	0.277900	0.462020	0.037100
H591	H59	0.299300	0.485600	0.990800
C821	C82	0.276880	0.392590	0.037100
H601	H60	0.297400	0.369300	0.989900
C831	C83	0.247900	0.571180	0.108500
C841	C84	0.192100	0.607190	0.137600
H611	H61	0.153000	0.583700	0.155900
C851	C85	0.192800	0.677000	0.140200
H621	H62	0.154000	0.700600	0.159500
C861	C86	0.249800	0.712710	0.114800
C871	C87	0.305800	0.676510	0.086700
H631	H63	0.345400	0.699900	0.070400
C881	C88	0.304500	0.607190	0.082200
H641	H64	0.342700	0.583800	0.060800
Zn11	Zn1	0.250000	0.250000	0.600580
Si11	Si1	0.250000	0.250000	0.351430
F91	F9	0.250000	0.250000	0.463400
F101	F10	0.250000	0.250000	0.240000
Zn21	Zn2	0.250000	0.250000	0.100580
Si21	Si2	0.250000	0.250000	0.851430
F111	F11	0.250000	0.250000	0.963400
F121	F12	0.250000	0.250000	0.740000
F131	F13	0.683060	0.699080	0.148580
N91	N9	0.643130	0.748080	0.898820
C891	C89	0.609640	0.718520	0.832900
H651	H65	0.634600	0.698300	0.787000
C901	C90	0.540340	0.716400	0.829300
H661	H66	0.518500	0.693900	0.782400
C911	C91	0.502600	0.747300	0.894600
C921	C92	0.537980	0.777900	0.962900
H671	H67	0.514400	0.799300	0.009200
C931	C93	0.607410	0.776880	0.962900
H681	H68	0.630700	0.797400	0.010100
C941	C94	0.428820	0.747900	0.891500
C951	C95	0.392810	0.692100	0.862400
H691	H69	0.416300	0.653000	0.844100
C961	C96	0.323000	0.692800	0.859800
H701	H70	0.299400	0.654000	0.840500
C971	C97	0.287290	0.749800	0.885200
C981	C98	0.323490	0.805800	0.913300
H711	H71	0.300100	0.845400	0.929600
C991	C99	0.392810	0.804500	0.917800
H721	H72	0.416200	0.842700	0.939200
F141	F14	0.816940	0.800920	0.148580
N101	N10	0.856870	0.751920	0.898820
C1001	C100	0.890360	0.781480	0.832900
H731	H73	0.865400	0.801700	0.787000
C1011	C101	0.959660	0.783600	0.829300
H741	H74	0.981500	0.806100	0.782400
C1021	C102	0.997400	0.752700	0.894600
C1031	C103	0.962020	0.722100	0.962900
H751	H75	0.985600	0.700700	0.009200
C1041	C104	0.892590	0.723120	0.962900
H761	H76	0.869300	0.702600	0.010100
C1051	C105	0.071180	0.752100	0.891500
C1061	C106	0.107190	0.807900	0.862400
H771	H77	0.083700	0.847000	0.844100
C1071	C107	0.177000	0.807200	0.859800
H781	H78	0.200600	0.846000	0.840500
C1081	C108	0.212710	0.750200	0.885200
C1091	C109	0.176510	0.694200	0.913300
H791	H79	0.199900	0.654600	0.929600
C1101	C110	0.107190	0.695500	0.917800
H801	H80	0.083800	0.657300	0.939200
F151	F15	0.699080	0.816940	0.148580
N111	N11	0.748080	0.856870	0.898820
C1111	C111	0.718520	0.890360	0.832900
H811	H81	0.698300	0.865400	0.787000
C1121	C112	0.716400	0.959660	0.829300
H821	H82	0.693900	0.981500	0.782400
C1131	C113	0.747300	0.997400	0.894600
C1141	C114	0.777900	0.962020	0.962900
H831	H83	0.799300	0.985600	0.009200
C1151	C115	0.776880	0.892590	0.962900
H841	H84	0.797400	0.869300	0.010100
C1161	C116	0.747900	0.071180	0.891500
C1171	C117	0.692100	0.107190	0.862400
H851	H85	0.653000	0.083700	0.844100
C1181	C118	0.692800	0.177000	0.859800
H861	H86	0.654000	0.200600	0.840500
C1191	C119	0.749800	0.212710	0.885200
C1201	C120	0.805800	0.176510	0.913300
H871	H87	0.845400	0.199900	0.929600
C1211	C121	0.804500	0.107190	0.917800
H881	H88	0.842700	0.083800	0.939200
F161	F16	0.800920	0.683060	0.148580
N121	N12	0.751920	0.643130	0.898820
C1221	C122	0.781480	0.609640	0.832900
H891	H89	0.801700	0.634600	0.787000
C1231	C123	0.783600	0.540340	0.829300
H901	H90	0.806100	0.518500	0.782400
C1241	C124	0.752700	0.502600	0.894600
C1251	C125	0.722100	0.537980	0.962900
H911	H91	0.700700	0.514400	0.009200
C1261	C126	0.723120	0.607410	0.962900
H921	H92	0.702600	0.630700	0.010100
C1271	C127	0.752100	0.428820	0.891500
C1281	C128	0.807900	0.392810	0.862400
H931	H93	0.847000	0.416300	0.844100
C1291	C129	0.807200	0.323000	0.859800
H941	H94	0.846000	0.299400	0.840500
C1301	C130	0.750200	0.287290	0.885200
C1311	C131	0.694200	0.323490	0.913300
H951	H95	0.654600	0.300100	0.929600
C1321	C132	0.695500	0.392810	0.917800
H961	H96	0.657300	0.416200	0.939200
F171	F17	0.683060	0.800920	0.648580
N131	N13	0.643130	0.751920	0.398820
C1331	C133	0.609640	0.781480	0.332900
H971	H97	0.634600	0.801700	0.287000
C1341	C134	0.540340	0.783600	0.329300
H981	H98	0.518500	0.806100	0.282400
C1351	C135	0.502600	0.752700	0.394600
C1361	C136	0.537980	0.722100	0.462900
H991	H99	0.514400	0.700700	0.509200
C1371	C137	0.607410	0.723120	0.462900
H1001	H100	0.630700	0.702600	0.510100
C1381	C138	0.428820	0.752100	0.391500
C1391	C139	0.392810	0.807900	0.362400
H1011	H101	0.416300	0.847000	0.344100
C1401	C140	0.323000	0.807200	0.359800
H1021	H102	0.299400	0.846000	0.340500
C1411	C141	0.287290	0.750200	0.385200
C1421	C142	0.323490	0.694200	0.413300
H1031	H103	0.300100	0.654600	0.429600
C1431	C143	0.392810	0.695500	0.417800
H1041	H104	0.416200	0.657300	0.439200
F181	F18	0.816940	0.699080	0.648580
N141	N14	0.856870	0.748080	0.398820
C1441	C144	0.890360	0.718520	0.332900
H1051	H105	0.865400	0.698300	0.287000
C1451	C145	0.959660	0.716400	0.329300
H1061	H106	0.981500	0.693900	0.282400
C1461	C146	0.997400	0.747300	0.394600
C1471	C147	0.962020	0.777900	0.462900
H1071	H107	0.985600	0.799300	0.509200
C1481	C148	0.892590	0.776880	0.462900
H1081	H108	0.869300	0.797400	0.510100
C1491	C149	0.071180	0.747900	0.391500
C1501	C150	0.107190	0.692100	0.362400
H1091	H109	0.083700	0.653000	0.344100
C1511	C151	0.177000	0.692800	0.359800
H1101	H110	0.200600	0.654000	0.340500
C1521	C152	0.212710	0.749800	0.385200
C1531	C153	0.176510	0.805800	0.413300
H1111	H111	0.199900	0.845400	0.429600
C1541	C154	0.107190	0.804500	0.417800
H1121	H112	0.083800	0.842700	0.439200
F191	F19	0.699080	0.683060	0.648580
N151	N15	0.748080	0.643130	0.398820
C1551	C155	0.718520	0.609640	0.332900
H1131	H113	0.698300	0.634600	0.287000
C1561	C156	0.716400	0.540340	0.329300
H1141	H114	0.693900	0.518500	0.282400
C1571	C157	0.747300	0.502600	0.394600
C1581	C158	0.777900	0.537980	0.462900
H1151	H115	0.799300	0.514400	0.509200
C1591	C159	0.776880	0.607410	0.462900
H1161	H116	0.797400	0.630700	0.510100
C1601	C160	0.747900	0.428820	0.391500
C1611	C161	0.692100	0.392810	0.362400
H1171	H117	0.653000	0.416300	0.344100
C1621	C162	0.692800	0.323000	0.359800
H1181	H118	0.654000	0.299400	0.340500
C1631	C163	0.749800	0.287290	0.385200
C1641	C164	0.805800	0.323490	0.413300
H1191	H119	0.845400	0.300100	0.429600
C1651	C165	0.804500	0.392810	0.417800
H1201	H120	0.842700	0.416200	0.439200
F201	F20	0.800920	0.816940	0.648580
N161	N16	0.751920	0.856870	0.398820
C1661	C166	0.781480	0.890360	0.332900
H1211	H121	0.801700	0.865400	0.287000
C1671	C167	0.783600	0.959660	0.329300
H1221	H122	0.806100	0.981500	0.282400
C1681	C168	0.752700	0.997400	0.394600
C1691	C169	0.722100	0.962020	0.462900
H1231	H123	0.700700	0.985600	0.509200
C1701	C170	0.723120	0.892590	0.462900
H1241	H124	0.702600	0.869300	0.510100
C1711	C171	0.752100	0.071180	0.391500
C1721	C172	0.807900	0.107190	0.362400
H1251	H125	0.847000	0.083700	0.344100
C1731	C173	0.807200	0.177000	0.359800
H1261	H126	0.846000	0.200600	0.340500
C1741	C174	0.750200	0.212710	0.385200
C1751	C175	0.694200	0.176510	0.413300
H1271	H127	0.654600	0.199900	0.429600
C1761	C176	0.695500	0.107190	0.417800
H1281	H128	0.657300	0.083800	0.439200
Zn31	Zn3	0.750000	0.750000	0.899420
Si31	Si3	0.750000	0.750000	0.148570
F211	F21	0.750000	0.750000	0.036600
F221	F22	0.750000	0.750000	0.260000
Zn41	Zn4	0.750000	0.750000	0.399420
Si41	Si4	0.750000	0.750000	0.648570
F231	F23	0.750000	0.750000	0.536600
F241	F24	0.750000	0.750000	0.760000
