data_LIHSIF_freeONLY_PM
_symmetry_space_group_name_H-M	'P1'
_cell_length_a	13.123300
_cell_length_b	13.123300
_cell_length_c	13.879000
_cell_angle_alpha	89.214400
_cell_angle_beta	89.214400
_cell_angle_gamma	82.756300
_symmetry_Int_Tables_number 1

loop_
_symmetry_equiv_pos_as_xyz
'x,y,z'

loop_
_atom_site_label
_atom_site_type_symbol
_atom_site_fract_x
_atom_site_fract_y
_atom_site_fract_z
Cd11	Cd1	0.825800	0.351360	0.677470
Cd21	Cd2	0.754730	0.965690	0.399630
Cd31	Cd3	0.648640	0.174200	0.822530
Cd41	Cd4	0.034310	0.245270	0.100370
Cd51	Cd5	0.174200	0.648640	0.322530
Cd61	Cd6	0.245270	0.034310	0.600370
Cd71	Cd7	0.351360	0.825800	0.177470
Cd81	Cd8	0.965690	0.754730	0.899630
Cd91	Cd9	0.375460	0.624540	0.750000
Cd101	Cd10	0.624540	0.375460	0.250000
Cd111	Cd11	0.500000	0.000000	0.000000
Cd121	Cd12	0.000000	0.500000	0.500000
H11	H1	0.625000	0.550600	0.683500
H21	H2	0.665100	0.003900	0.628700
H31	H3	0.846600	0.172600	0.493500
H41	H4	0.350400	0.649800	0.993900
H51	H5	0.499800	0.819200	0.821300
H61	H6	0.838300	0.545700	0.852100
H71	H7	0.013200	0.680000	0.673500
H81	H8	0.179600	0.278000	0.495100
H91	H9	0.016100	0.148100	0.683700
H101	H10	0.002400	0.022000	0.408600
H111	H11	0.449400	0.375000	0.816500
H121	H12	0.996100	0.334900	0.871300
H131	H13	0.827400	0.153400	0.006500
H141	H14	0.350200	0.649600	0.506100
H151	H15	0.180800	0.500200	0.678700
H161	H16	0.454300	0.161700	0.647900
H171	H17	0.320000	0.986800	0.826500
H181	H18	0.722000	0.820400	0.004900
H191	H19	0.851900	0.983900	0.816300
H201	H20	0.978000	0.997600	0.091400
H211	H21	0.375000	0.449400	0.316500
H221	H22	0.334900	0.996100	0.371300
H231	H23	0.153400	0.827400	0.506500
H241	H24	0.649600	0.350200	0.006100
H251	H25	0.500200	0.180800	0.178700
H261	H26	0.161700	0.454300	0.147900
H271	H27	0.986800	0.320000	0.326500
H281	H28	0.820400	0.722000	0.504900
H291	H29	0.983900	0.851900	0.316300
H301	H30	0.997600	0.978000	0.591400
H311	H31	0.550600	0.625000	0.183500
H321	H32	0.003900	0.665100	0.128700
H331	H33	0.172600	0.846600	0.993500
H341	H34	0.649800	0.350400	0.493900
H351	H35	0.819200	0.499800	0.321300
H361	H36	0.545700	0.838300	0.352100
H371	H37	0.680000	0.013200	0.173500
H381	H38	0.278000	0.179600	0.995100
H391	H39	0.148100	0.016100	0.183700
H401	H40	0.022000	0.002400	0.908600
H411	H41	0.830000	0.170000	0.250000
H421	H42	0.170000	0.830000	0.750000
C11	C1	0.600700	0.493100	0.714300
C21	C2	0.706200	0.056600	0.613000
C31	C3	0.803100	0.147100	0.540800
C41	C4	0.387100	0.702700	0.969500
C51	C5	0.467300	0.793700	0.876600
C61	C6	0.876600	0.561800	0.796600
C71	C7	0.970500	0.633700	0.700700
C81	C8	0.126300	0.265100	0.539000
C91	C9	0.039400	0.196000	0.639300
C101	C10	0.977100	0.056100	0.351300
C111	C11	0.506900	0.399300	0.785700
C121	C12	0.943400	0.293800	0.887000
C131	C13	0.852900	0.196900	0.959200
C141	C14	0.297300	0.612900	0.530500
C151	C15	0.206300	0.532700	0.623400
C161	C16	0.438200	0.123400	0.703400
C171	C17	0.366300	0.029500	0.799300
C181	C18	0.734900	0.873700	0.961000
C191	C19	0.804000	0.960600	0.860700
C201	C20	0.943900	0.022900	0.148700
C211	C21	0.399300	0.506900	0.285700
C221	C22	0.293800	0.943400	0.387000
C231	C23	0.196900	0.852900	0.459200
C241	C24	0.612900	0.297300	0.030500
C251	C25	0.532700	0.206300	0.123400
C261	C26	0.123400	0.438200	0.203400
C271	C27	0.029500	0.366300	0.299300
C281	C28	0.873700	0.734900	0.461000
C291	C29	0.960600	0.804000	0.360700
C301	C30	0.022900	0.943900	0.648700
C311	C31	0.493100	0.600700	0.214300
C321	C32	0.056600	0.706200	0.113000
C331	C33	0.147100	0.803100	0.040800
C341	C34	0.702700	0.387100	0.469500
C351	C35	0.793700	0.467300	0.376600
C361	C36	0.561800	0.876600	0.296600
C371	C37	0.633700	0.970500	0.200700
C381	C38	0.265100	0.126300	0.039000
C391	C39	0.196000	0.039400	0.139300
C401	C40	0.056100	0.977100	0.851300
C411	C41	0.884800	0.115200	0.250000
C421	C42	0.115200	0.884800	0.750000
N11	N1	0.658000	0.403000	0.726400
N21	N2	0.779800	0.193000	0.622900
N31	N3	0.716500	0.133500	0.670300
N41	N4	0.759800	0.060400	0.529500
N51	N5	0.412600	0.777400	0.022400
N61	N6	0.418400	0.708600	0.876500
N71	N7	0.464400	0.837000	0.962000
N81	N8	0.883500	0.507100	0.716900
N91	N9	0.930200	0.643400	0.790300
N101	N10	0.944900	0.553900	0.654300
N111	N11	0.045600	0.332000	0.555500
N121	N12	0.127700	0.177500	0.588900
N131	N13	0.988100	0.286900	0.621200
N141	N14	0.880800	0.052600	0.320500
N151	N15	0.033300	0.109900	0.296500
N161	N16	0.597000	0.342000	0.773600
N171	N17	0.807000	0.220200	0.877100
N181	N18	0.866500	0.283500	0.829700
N191	N19	0.939600	0.240200	0.970500
N201	N20	0.222600	0.587400	0.477600
N211	N21	0.291400	0.581600	0.623500
N221	N22	0.163000	0.535600	0.538000
N231	N23	0.492900	0.116500	0.783100
N241	N24	0.356600	0.069800	0.709700
N251	N25	0.446100	0.055100	0.845700
N261	N26	0.668000	0.954400	0.944500
N271	N27	0.822500	0.872300	0.911100
N281	N28	0.713100	0.011900	0.878800
N291	N29	0.947400	0.119200	0.179500
N301	N30	0.890100	0.966700	0.203500
N311	N31	0.342000	0.597000	0.273600
N321	N32	0.220200	0.807000	0.377100
N331	N33	0.283500	0.866500	0.329700
N341	N34	0.240200	0.939600	0.470500
N351	N35	0.587400	0.222600	0.977600
N361	N36	0.581600	0.291400	0.123500
N371	N37	0.535600	0.163000	0.038000
N381	N38	0.116500	0.492900	0.283100
N391	N39	0.069800	0.356600	0.209700
N401	N40	0.055100	0.446100	0.345700
N411	N41	0.954400	0.668000	0.444500
N421	N42	0.872300	0.822500	0.411100
N431	N43	0.011900	0.713100	0.378800
N441	N44	0.119200	0.947400	0.679500
N451	N45	0.966700	0.890100	0.703500
N461	N46	0.403000	0.658000	0.226400
N471	N47	0.193000	0.779800	0.122900
N481	N48	0.133500	0.716500	0.170300
N491	N49	0.060400	0.759800	0.029500
N501	N50	0.777400	0.412600	0.522400
N511	N51	0.708600	0.418400	0.376500
N521	N52	0.837000	0.464400	0.462000
N531	N53	0.507100	0.883500	0.216900
N541	N54	0.643400	0.930200	0.290300
N551	N55	0.553900	0.944900	0.154300
N561	N56	0.332000	0.045600	0.055500
N571	N57	0.177500	0.127700	0.088900
N581	N58	0.286900	0.988100	0.121200
N591	N59	0.052600	0.880800	0.820500
N601	N60	0.109900	0.033300	0.796500
N611	N61	0.505500	0.494500	0.750000
N621	N62	0.494500	0.505500	0.250000
