data_LIQFEY_freeONLY_PM
_symmetry_space_group_name_H-M	'P1'
_cell_length_a	9.899000
_cell_length_b	10.362000
_cell_length_c	13.180000
_cell_angle_alpha	68.870000
_cell_angle_beta	70.650000
_cell_angle_gamma	80.770000
_symmetry_Int_Tables_number 1

loop_
_symmetry_equiv_pos_as_xyz
'x,y,z'

loop_
_atom_site_label
_atom_site_type_symbol
_atom_site_fract_x
_atom_site_fract_y
_atom_site_fract_z
Cd11	Cd1	0.014050	0.308150	0.763650
O11	O1	0.116400	0.204900	0.905800
O21	O2	0.285000	0.319600	0.758100
O31	O3	0.779500	0.284800	0.800500
O41	O4	0.812900	0.151000	0.965100
O51	O5	0.087600	0.153700	0.677400
O61	O6	0.044900	0.963800	0.831800
O71	O7	0.991900	0.528600	0.774900
O81	O8	0.077800	0.507000	0.605800
C11	C1	0.342800	0.206600	0.932400
C21	C2	0.487100	0.229000	0.883800
H11	H1	0.523700	0.272100	0.805600
C31	C3	0.577800	0.186700	0.952100
C41	C4	0.521400	0.123500	0.069500
H21	H2	0.582300	0.093600	0.115000
C51	C5	0.376000	0.105000	0.118800
C61	C6	0.286500	0.148300	0.049200
H31	H3	0.188200	0.137900	0.081400
C71	C7	0.243900	0.247300	0.858500
C81	C8	0.733900	0.208100	0.901900
C91	C9	0.315900	0.040900	0.239500
C101	C10	0.258700	0.986700	0.339300
C111	C11	0.102100	0.942000	0.648400
C121	C12	0.062700	0.805500	0.692200
H41	H4	0.019800	0.765500	0.770000
C131	C13	0.087200	0.728100	0.620000
C141	C14	0.150900	0.787100	0.503400
H51	H5	0.166800	0.735500	0.455200
C151	C15	0.190700	0.924400	0.459400
C161	C16	0.163800	0.999700	0.532600
H61	H6	0.188100	0.091900	0.502800
C171	C17	0.075600	0.027100	0.726400
C181	C18	0.050700	0.578600	0.669800
Cd21	Cd2	0.985950	0.691850	0.236350
O91	O9	0.883600	0.795100	0.094200
O101	O10	0.715000	0.680400	0.241900
O111	O11	0.220500	0.715200	0.199500
O121	O12	0.187100	0.849000	0.034900
O131	O13	0.912400	0.846300	0.322600
O141	O14	0.955100	0.036200	0.168200
O151	O15	0.008100	0.471400	0.225100
O161	O16	0.922200	0.493000	0.394200
C191	C19	0.657200	0.793400	0.067600
C201	C20	0.512900	0.771000	0.116200
H71	H7	0.476300	0.727900	0.194400
C211	C21	0.422200	0.813300	0.047900
C221	C22	0.478600	0.876500	0.930500
H81	H8	0.417700	0.906400	0.885000
C231	C23	0.624000	0.895000	0.881200
C241	C24	0.713500	0.851700	0.950800
H91	H9	0.811800	0.862100	0.918600
C251	C25	0.756100	0.752700	0.141500
C261	C26	0.266100	0.791900	0.098100
C271	C27	0.684100	0.959100	0.760500
C281	C28	0.741300	0.013300	0.660700
C291	C29	0.897900	0.058000	0.351600
C301	C30	0.937300	0.194500	0.307800
H101	H10	0.980200	0.234500	0.230000
C311	C31	0.912800	0.271900	0.380000
C321	C32	0.849100	0.212900	0.496600
H111	H11	0.833200	0.264500	0.544800
C331	C33	0.809300	0.075600	0.540600
C341	C34	0.836200	0.000300	0.467400
H121	H12	0.811900	0.908100	0.497200
C351	C35	0.924400	0.972900	0.273600
C361	C36	0.949300	0.421400	0.330200
Cd31	Cd3	0.000000	0.000000	0.000000
