data_LIWFOM_freeONLY_PM
_symmetry_space_group_name_H-M	'P1'
_cell_length_a	13.512000
_cell_length_b	16.194000
_cell_length_c	4.677000
_cell_angle_alpha	90.000000
_cell_angle_beta	90.000000
_cell_angle_gamma	90.000000
_symmetry_Int_Tables_number 1

loop_
_symmetry_equiv_pos_as_xyz
'x,y,z'

loop_
_atom_site_label
_atom_site_type_symbol
_atom_site_fract_x
_atom_site_fract_y
_atom_site_fract_z
V11	V1	0.511100	0.485100	0.978400
P11	P1	0.636200	0.580300	0.493000
O11	O1	0.553500	0.579000	0.716000
O21	O2	0.617500	0.519300	0.251800
O31	O3	0.646800	0.669200	0.385300
O41	O4	0.429800	0.592200	0.175100
V21	V2	0.988900	0.014900	0.978400
P21	P2	0.863800	0.919700	0.493000
O51	O5	0.946500	0.921000	0.716000
O61	O6	0.882500	0.980700	0.251800
O71	O7	0.853200	0.830800	0.385300
O81	O8	0.070200	0.907800	0.175100
V31	V3	0.488900	0.985100	0.021600
P31	P3	0.363800	0.080300	0.507000
O91	O9	0.446500	0.079000	0.284000
O101	O10	0.382500	0.019300	0.748200
O111	O11	0.353200	0.169200	0.614700
O121	O12	0.570200	0.092200	0.824900
V41	V4	0.011100	0.514900	0.021600
P41	P4	0.136200	0.419700	0.507000
O131	O13	0.053500	0.421000	0.284000
O141	O14	0.117500	0.480700	0.748200
O151	O15	0.146800	0.330800	0.614700
O161	O16	0.929800	0.407800	0.824900
V51	V5	0.488900	0.514900	0.021600
P51	P5	0.363800	0.419700	0.507000
O171	O17	0.446500	0.421000	0.284000
O181	O18	0.382500	0.480700	0.748200
O191	O19	0.353200	0.330800	0.614700
O201	O20	0.570200	0.407800	0.824900
V61	V6	0.011100	0.985100	0.021600
P61	P6	0.136200	0.080300	0.507000
O211	O21	0.053500	0.079000	0.284000
O221	O22	0.117500	0.019300	0.748200
O231	O23	0.146800	0.169200	0.614700
O241	O24	0.929800	0.092200	0.824900
V71	V7	0.511100	0.014900	0.978400
P71	P7	0.636200	0.919700	0.493000
O251	O25	0.553500	0.921000	0.716000
O261	O26	0.617500	0.980700	0.251800
O271	O27	0.646800	0.830800	0.385300
O281	O28	0.429800	0.907800	0.175100
V81	V8	0.988900	0.485100	0.978400
P81	P8	0.863800	0.580300	0.493000
O291	O29	0.946500	0.579000	0.716000
O301	O30	0.882500	0.519300	0.251800
O311	O31	0.853200	0.669200	0.385300
O321	O32	0.070200	0.592200	0.175100
V91	V9	0.750000	0.750000	0.285300
O331	O33	0.750000	0.750000	0.945300
V101	V10	0.250000	0.250000	0.714700
O341	O34	0.250000	0.250000	0.054700
C11	C1	0.750000	0.552000	0.667400
H11	H1	0.750000	0.492600	0.693000
H21	H2	0.750000	0.576700	0.856300
C21	C2	0.750000	0.948000	0.667400
H31	H3	0.750000	0.007400	0.693000
H41	H4	0.750000	0.923300	0.856300
C31	C3	0.250000	0.052000	0.332600
H51	H5	0.250000	0.992600	0.307000
H61	H6	0.250000	0.076700	0.143700
C41	C4	0.250000	0.448000	0.332600
H71	H7	0.250000	0.507400	0.307000
H81	H8	0.250000	0.423300	0.143700
