data_LIWXOG_freeONLY_PM
_symmetry_space_group_name_H-M	'P1'
_cell_length_a	22.254900
_cell_length_b	9.486800
_cell_length_c	15.718400
_cell_angle_alpha	90.000000
_cell_angle_beta	91.476000
_cell_angle_gamma	90.000000
_symmetry_Int_Tables_number 1

loop_
_symmetry_equiv_pos_as_xyz
'x,y,z'

loop_
_atom_site_label
_atom_site_type_symbol
_atom_site_fract_x
_atom_site_fract_y
_atom_site_fract_z
Ag11	Ag1	0.329650	0.186690	0.608420
S11	S1	0.288220	0.145330	0.418150
N11	N1	0.383490	0.237800	0.495310
N21	N2	0.441310	0.345600	0.355570
N31	N3	0.215530	0.163990	0.284650
N41	N4	0.282550	0.991200	0.180230
C11	C1	0.358950	0.227000	0.416220
C21	C2	0.387680	0.283000	0.346790
H11	H1	0.369300	0.276900	0.293100
C31	C3	0.465180	0.354400	0.434020
H21	H2	0.502300	0.397900	0.442100
C41	C4	0.436480	0.301000	0.503460
H31	H3	0.454600	0.309300	0.557200
C51	C5	0.268490	0.110700	0.310290
C61	C6	0.301530	0.023200	0.259290
H41	H4	0.337600	0.985800	0.280200
C71	C7	0.230480	0.045800	0.153530
H51	H5	0.216500	0.027200	0.098400
C81	C8	0.196760	0.129500	0.205920
H61	H6	0.159800	0.162900	0.185800
Ag21	Ag2	0.829650	0.686690	0.608420
S21	S2	0.788220	0.645330	0.418150
N51	N5	0.883490	0.737800	0.495310
N61	N6	0.941310	0.845600	0.355570
N71	N7	0.715530	0.663990	0.284650
N81	N8	0.782550	0.491200	0.180230
C91	C9	0.858950	0.727000	0.416220
C101	C10	0.887680	0.783000	0.346790
H71	H7	0.869300	0.776900	0.293100
C111	C11	0.965180	0.854400	0.434020
H81	H8	0.002300	0.897900	0.442100
C121	C12	0.936480	0.801000	0.503460
H91	H9	0.954600	0.809300	0.557200
C131	C13	0.768490	0.610700	0.310290
C141	C14	0.801530	0.523200	0.259290
H101	H10	0.837600	0.485800	0.280200
C151	C15	0.730480	0.545800	0.153530
H111	H11	0.716500	0.527200	0.098400
C161	C16	0.696760	0.629500	0.205920
H121	H12	0.659800	0.662900	0.185800
Ag31	Ag3	0.670350	0.186690	0.891580
S31	S3	0.711780	0.145330	0.081850
N91	N9	0.616510	0.237800	0.004690
N101	N10	0.558690	0.345600	0.144430
N111	N11	0.784470	0.163990	0.215350
N121	N12	0.717450	0.991200	0.319770
C171	C17	0.641050	0.227000	0.083780
C181	C18	0.612320	0.283000	0.153210
H131	H13	0.630700	0.276900	0.206900
C191	C19	0.534820	0.354400	0.065980
H141	H14	0.497700	0.397900	0.057900
C201	C20	0.563520	0.301000	0.996540
H151	H15	0.545400	0.309300	0.942800
C211	C21	0.731510	0.110700	0.189710
C221	C22	0.698470	0.023200	0.240710
H161	H16	0.662400	0.985800	0.219800
C231	C23	0.769520	0.045800	0.346470
H171	H17	0.783500	0.027200	0.401600
C241	C24	0.803240	0.129500	0.294080
H181	H18	0.840200	0.162900	0.314200
Ag41	Ag4	0.170350	0.686690	0.891580
S41	S4	0.211780	0.645330	0.081850
N131	N13	0.116510	0.737800	0.004690
N141	N14	0.058690	0.845600	0.144430
N151	N15	0.284470	0.663990	0.215350
N161	N16	0.217450	0.491200	0.319770
C251	C25	0.141050	0.727000	0.083780
C261	C26	0.112320	0.783000	0.153210
H191	H19	0.130700	0.776900	0.206900
C271	C27	0.034820	0.854400	0.065980
H201	H20	0.997700	0.897900	0.057900
C281	C28	0.063520	0.801000	0.996540
H211	H21	0.045400	0.809300	0.942800
C291	C29	0.231510	0.610700	0.189710
C301	C30	0.198470	0.523200	0.240710
H221	H22	0.162400	0.485800	0.219800
C311	C31	0.269520	0.545800	0.346470
H231	H23	0.283500	0.527200	0.401600
C321	C32	0.303240	0.629500	0.294080
H241	H24	0.340200	0.662900	0.314200
Ag51	Ag5	0.670350	0.813310	0.391580
S51	S5	0.711780	0.854670	0.581850
N171	N17	0.616510	0.762200	0.504690
N181	N18	0.558690	0.654400	0.644430
N191	N19	0.784470	0.836010	0.715350
N201	N20	0.717450	0.008800	0.819770
C331	C33	0.641050	0.773000	0.583780
C341	C34	0.612320	0.717000	0.653210
H251	H25	0.630700	0.723100	0.706900
C351	C35	0.534820	0.645600	0.565980
H261	H26	0.497700	0.602100	0.557900
C361	C36	0.563520	0.699000	0.496540
H271	H27	0.545400	0.690700	0.442800
C371	C37	0.731510	0.889300	0.689710
C381	C38	0.698470	0.976800	0.740710
H281	H28	0.662400	0.014200	0.719800
C391	C39	0.769520	0.954200	0.846470
H291	H29	0.783500	0.972800	0.901600
C401	C40	0.803240	0.870500	0.794080
H301	H30	0.840200	0.837100	0.814200
Ag61	Ag6	0.170350	0.313310	0.391580
S61	S6	0.211780	0.354670	0.581850
N211	N21	0.116510	0.262200	0.504690
N221	N22	0.058690	0.154400	0.644430
N231	N23	0.284470	0.336010	0.715350
N241	N24	0.217450	0.508800	0.819770
C411	C41	0.141050	0.273000	0.583780
C421	C42	0.112320	0.217000	0.653210
H311	H31	0.130700	0.223100	0.706900
C431	C43	0.034820	0.145600	0.565980
H321	H32	0.997700	0.102100	0.557900
C441	C44	0.063520	0.199000	0.496540
H331	H33	0.045400	0.190700	0.442800
C451	C45	0.231510	0.389300	0.689710
C461	C46	0.198470	0.476800	0.740710
H341	H34	0.162400	0.514200	0.719800
C471	C47	0.269520	0.454200	0.846470
H351	H35	0.283500	0.472800	0.901600
C481	C48	0.303240	0.370500	0.794080
H361	H36	0.340200	0.337100	0.814200
Ag71	Ag7	0.329650	0.813310	0.108420
S71	S7	0.288220	0.854670	0.918150
N251	N25	0.383490	0.762200	0.995310
N261	N26	0.441310	0.654400	0.855570
N271	N27	0.215530	0.836010	0.784650
N281	N28	0.282550	0.008800	0.680230
C491	C49	0.358950	0.773000	0.916220
C501	C50	0.387680	0.717000	0.846790
H371	H37	0.369300	0.723100	0.793100
C511	C51	0.465180	0.645600	0.934020
H381	H38	0.502300	0.602100	0.942100
C521	C52	0.436480	0.699000	0.003460
H391	H39	0.454600	0.690700	0.057200
C531	C53	0.268490	0.889300	0.810290
C541	C54	0.301530	0.976800	0.759290
H401	H40	0.337600	0.014200	0.780200
C551	C55	0.230480	0.954200	0.653530
H411	H41	0.216500	0.972800	0.598400
C561	C56	0.196760	0.870500	0.705920
H421	H42	0.159800	0.837100	0.685800
Ag81	Ag8	0.829650	0.313310	0.108420
S81	S8	0.788220	0.354670	0.918150
N291	N29	0.883490	0.262200	0.995310
N301	N30	0.941310	0.154400	0.855570
N311	N31	0.715530	0.336010	0.784650
N321	N32	0.782550	0.508800	0.680230
C571	C57	0.858950	0.273000	0.916220
C581	C58	0.887680	0.217000	0.846790
H431	H43	0.869300	0.223100	0.793100
C591	C59	0.965180	0.145600	0.934020
H441	H44	0.002300	0.102100	0.942100
C601	C60	0.936480	0.199000	0.003460
H451	H45	0.954600	0.190700	0.057200
C611	C61	0.768490	0.389300	0.810290
C621	C62	0.801530	0.476800	0.759290
H461	H46	0.837600	0.514200	0.780200
C631	C63	0.730480	0.454200	0.653530
H471	H47	0.716500	0.472800	0.598400
C641	C64	0.696760	0.370500	0.705920
H481	H48	0.659800	0.337100	0.685800
Ag91	Ag9	0.500000	0.424750	0.250000
Ag101	Ag10	0.000000	0.924750	0.250000
Ag111	Ag11	0.500000	0.575250	0.750000
Ag121	Ag12	0.000000	0.075250	0.750000
