data_LIZWEX_charged_PM
_symmetry_space_group_name_H-M	'P1'
_cell_length_a	31.365800
_cell_length_b	31.365800
_cell_length_c	31.365800
_cell_angle_alpha	60.000000
_cell_angle_beta	60.000000
_cell_angle_gamma	60.000000
_symmetry_Int_Tables_number 1

loop_
_symmetry_equiv_pos_as_xyz
'x,y,z'

loop_
_atom_site_label
_atom_site_type_symbol
_atom_site_fract_x
_atom_site_fract_y
_atom_site_fract_z
Cu11	Cu1	0.500000	0.500000	0.837880
Cu21	Cu2	0.500000	0.500000	0.753220
Cu31	Cu3	0.500000	0.500000	0.162120
Cu41	Cu4	0.500000	0.500000	0.246780
Cu51	Cu5	0.837880	0.162120	0.500000
Cu61	Cu6	0.753220	0.246780	0.500000
Cu71	Cu7	0.162120	0.837880	0.500000
Cu81	Cu8	0.246780	0.753220	0.500000
Cu91	Cu9	0.500000	0.837880	0.162120
Cu101	Cu10	0.500000	0.753220	0.246780
Cu111	Cu11	0.500000	0.162120	0.837880
Cu121	Cu12	0.500000	0.246780	0.753220
Cu131	Cu13	0.837880	0.500000	0.500000
Cu141	Cu14	0.753220	0.500000	0.500000
Cu151	Cu15	0.162120	0.500000	0.500000
Cu161	Cu16	0.246780	0.500000	0.500000
Cu171	Cu17	0.500000	0.162120	0.500000
Cu181	Cu18	0.500000	0.246780	0.500000
Cu191	Cu19	0.500000	0.837880	0.500000
Cu201	Cu20	0.500000	0.753220	0.500000
Cu211	Cu21	0.837880	0.500000	0.162120
Cu221	Cu22	0.753220	0.500000	0.246780
Cu231	Cu23	0.162120	0.500000	0.837880
Cu241	Cu24	0.246780	0.500000	0.753220
Cu251	Cu25	0.545360	0.116020	0.116020
Cu261	Cu26	0.116020	0.545360	0.222600
Cu271	Cu27	0.116020	0.222600	0.545360
Cu281	Cu28	0.222600	0.116020	0.116020
Cu291	Cu29	0.545360	0.116020	0.222600
Cu301	Cu30	0.116020	0.222600	0.116020
Cu311	Cu31	0.116020	0.545360	0.116020
Cu321	Cu32	0.222600	0.116020	0.545360
Cu331	Cu33	0.545360	0.222600	0.116020
Cu341	Cu34	0.116020	0.116020	0.545360
Cu351	Cu35	0.116020	0.116020	0.222600
Cu361	Cu36	0.222600	0.545360	0.116020
Cu371	Cu37	0.883980	0.454640	0.883980
Cu381	Cu38	0.454640	0.883980	0.777400
Cu391	Cu39	0.777400	0.883980	0.454640
Cu401	Cu40	0.883980	0.777400	0.883980
Cu411	Cu41	0.883980	0.454640	0.777400
Cu421	Cu42	0.777400	0.883980	0.883980
Cu431	Cu43	0.454640	0.883980	0.883980
Cu441	Cu44	0.883980	0.777400	0.454640
Cu451	Cu45	0.777400	0.454640	0.883980
Cu461	Cu46	0.883980	0.883980	0.454640
Cu471	Cu47	0.883980	0.883980	0.777400
Cu481	Cu48	0.454640	0.777400	0.883980
H11	H1	0.532700	0.337100	0.923300
H21	H2	0.337100	0.532700	0.206900
H31	H3	0.923300	0.206900	0.532700
H41	H4	0.206900	0.923300	0.337100
H51	H5	0.532700	0.923300	0.206900
H61	H6	0.337100	0.206900	0.923300
H71	H7	0.923300	0.532700	0.337100
H81	H8	0.206900	0.337100	0.532700
H91	H9	0.532700	0.206900	0.337100
H101	H10	0.337100	0.923300	0.532700
H111	H11	0.923300	0.337100	0.206900
H121	H12	0.206900	0.532700	0.923300
H131	H13	0.662900	0.467300	0.076700
H141	H14	0.467300	0.662900	0.793100
H151	H15	0.793100	0.076700	0.467300
H161	H16	0.076700	0.793100	0.662900
H171	H17	0.076700	0.467300	0.793100
H181	H18	0.793100	0.662900	0.076700
H191	H19	0.467300	0.076700	0.662900
H201	H20	0.662900	0.793100	0.467300
H211	H21	0.793100	0.467300	0.662900
H221	H22	0.076700	0.662900	0.467300
H231	H23	0.662900	0.076700	0.793100
H241	H24	0.467300	0.793100	0.076700
H251	H25	0.467300	0.662900	0.076700
H261	H26	0.662900	0.467300	0.793100
H271	H27	0.076700	0.793100	0.467300
H281	H28	0.793100	0.076700	0.662900
H291	H29	0.467300	0.076700	0.793100
H301	H30	0.662900	0.793100	0.076700
H311	H31	0.076700	0.467300	0.662900
H321	H32	0.793100	0.662900	0.467300
H331	H33	0.467300	0.793100	0.662900
H341	H34	0.662900	0.076700	0.467300
H351	H35	0.076700	0.662900	0.793100
H361	H36	0.793100	0.467300	0.076700
H371	H37	0.337100	0.532700	0.923300
H381	H38	0.532700	0.337100	0.206900
H391	H39	0.206900	0.923300	0.532700
H401	H40	0.923300	0.206900	0.337100
H411	H41	0.923300	0.532700	0.206900
H421	H42	0.206900	0.337100	0.923300
H431	H43	0.532700	0.923300	0.337100
H441	H44	0.337100	0.206900	0.532700
H451	H45	0.206900	0.532700	0.337100
H461	H46	0.923300	0.337100	0.532700
H471	H47	0.337100	0.923300	0.206900
H481	H48	0.532700	0.206900	0.923300
H491	H49	0.517300	0.340700	0.801300
H501	H50	0.340700	0.517300	0.340700
H511	H51	0.801300	0.340700	0.517300
H521	H52	0.340700	0.801300	0.340700
H531	H53	0.517300	0.801300	0.340700
H541	H54	0.340700	0.340700	0.801300
H551	H55	0.801300	0.517300	0.340700
H561	H56	0.340700	0.340700	0.517300
H571	H57	0.517300	0.340700	0.340700
H581	H58	0.340700	0.801300	0.517300
H591	H59	0.801300	0.340700	0.340700
H601	H60	0.340700	0.517300	0.801300
H611	H61	0.659300	0.482700	0.198700
H621	H62	0.482700	0.659300	0.659300
H631	H63	0.659300	0.198700	0.482700
H641	H64	0.198700	0.659300	0.659300
H651	H65	0.198700	0.482700	0.659300
H661	H66	0.659300	0.659300	0.198700
H671	H67	0.482700	0.198700	0.659300
H681	H68	0.659300	0.659300	0.482700
H691	H69	0.659300	0.482700	0.659300
H701	H70	0.198700	0.659300	0.482700
H711	H71	0.659300	0.198700	0.659300
H721	H72	0.482700	0.659300	0.198700
C11	C1	0.516700	0.402300	0.835700
C21	C2	0.521700	0.346900	0.860300
C31	C3	0.528700	0.320500	0.907900
C41	C4	0.402300	0.516700	0.245300
C51	C5	0.346900	0.521700	0.271100
C61	C6	0.320500	0.528700	0.242900
C71	C7	0.835700	0.245300	0.516700
C81	C8	0.860300	0.271100	0.521700
C91	C9	0.907900	0.242900	0.528700
C101	C10	0.245300	0.835700	0.402300
C111	C11	0.271100	0.860300	0.346900
C121	C12	0.242900	0.907900	0.320500
C131	C13	0.516700	0.835700	0.245300
C141	C14	0.521700	0.860300	0.271100
C151	C15	0.528700	0.907900	0.242900
C161	C16	0.402300	0.245300	0.835700
C171	C17	0.346900	0.271100	0.860300
C181	C18	0.320500	0.242900	0.907900
C191	C19	0.835700	0.516700	0.402300
C201	C20	0.860300	0.521700	0.346900
C211	C21	0.907900	0.528700	0.320500
C221	C22	0.245300	0.402300	0.516700
C231	C23	0.271100	0.346900	0.521700
C241	C24	0.242900	0.320500	0.528700
C251	C25	0.516700	0.245300	0.402300
C261	C26	0.521700	0.271100	0.346900
C271	C27	0.528700	0.242900	0.320500
C281	C28	0.402300	0.835700	0.516700
C291	C29	0.346900	0.860300	0.521700
C301	C30	0.320500	0.907900	0.528700
C311	C31	0.835700	0.402300	0.245300
C321	C32	0.860300	0.346900	0.271100
C331	C33	0.907900	0.320500	0.242900
C341	C34	0.245300	0.516700	0.835700
C351	C35	0.271100	0.521700	0.860300
C361	C36	0.242900	0.528700	0.907900
C371	C37	0.597700	0.483300	0.164300
C381	C38	0.653100	0.478300	0.139700
C391	C39	0.679500	0.471300	0.092100
C401	C40	0.483300	0.597700	0.754700
C411	C41	0.478300	0.653100	0.728900
C421	C42	0.471300	0.679500	0.757100
C431	C43	0.754700	0.164300	0.483300
C441	C44	0.728900	0.139700	0.478300
C451	C45	0.757100	0.092100	0.471300
C461	C46	0.164300	0.754700	0.597700
C471	C47	0.139700	0.728900	0.653100
C481	C48	0.092100	0.757100	0.679500
C491	C49	0.164300	0.483300	0.754700
C501	C50	0.139700	0.478300	0.728900
C511	C51	0.092100	0.471300	0.757100
C521	C52	0.754700	0.597700	0.164300
C531	C53	0.728900	0.653100	0.139700
C541	C54	0.757100	0.679500	0.092100
C551	C55	0.483300	0.164300	0.597700
C561	C56	0.478300	0.139700	0.653100
C571	C57	0.471300	0.092100	0.679500
C581	C58	0.597700	0.754700	0.483300
C591	C59	0.653100	0.728900	0.478300
C601	C60	0.679500	0.757100	0.471300
C611	C61	0.754700	0.483300	0.597700
C621	C62	0.728900	0.478300	0.653100
C631	C63	0.757100	0.471300	0.679500
C641	C64	0.164300	0.597700	0.483300
C651	C65	0.139700	0.653100	0.478300
C661	C66	0.092100	0.679500	0.471300
C671	C67	0.597700	0.164300	0.754700
C681	C68	0.653100	0.139700	0.728900
C691	C69	0.679500	0.092100	0.757100
C701	C70	0.483300	0.754700	0.164300
C711	C71	0.478300	0.728900	0.139700
C721	C72	0.471300	0.757100	0.092100
C731	C73	0.483300	0.597700	0.164300
C741	C74	0.478300	0.653100	0.139700
C751	C75	0.471300	0.679500	0.092100
C761	C76	0.597700	0.483300	0.754700
C771	C77	0.653100	0.478300	0.728900
C781	C78	0.679500	0.471300	0.757100
C791	C79	0.164300	0.754700	0.483300
C801	C80	0.139700	0.728900	0.478300
C811	C81	0.092100	0.757100	0.471300
C821	C82	0.754700	0.164300	0.597700
C831	C83	0.728900	0.139700	0.653100
C841	C84	0.757100	0.092100	0.679500
C851	C85	0.483300	0.164300	0.754700
C861	C86	0.478300	0.139700	0.728900
C871	C87	0.471300	0.092100	0.757100
C881	C88	0.597700	0.754700	0.164300
C891	C89	0.653100	0.728900	0.139700
C901	C90	0.679500	0.757100	0.092100
C911	C91	0.164300	0.483300	0.597700
C921	C92	0.139700	0.478300	0.653100
C931	C93	0.092100	0.471300	0.679500
C941	C94	0.754700	0.597700	0.483300
C951	C95	0.728900	0.653100	0.478300
C961	C96	0.757100	0.679500	0.471300
C971	C97	0.483300	0.754700	0.597700
C981	C98	0.478300	0.728900	0.653100
C991	C99	0.471300	0.757100	0.679500
C1001	C100	0.597700	0.164300	0.483300
C1011	C101	0.653100	0.139700	0.478300
C1021	C102	0.679500	0.092100	0.471300
C1031	C103	0.164300	0.597700	0.754700
C1041	C104	0.139700	0.653100	0.728900
C1051	C105	0.092100	0.679500	0.757100
C1061	C106	0.754700	0.483300	0.164300
C1071	C107	0.728900	0.478300	0.139700
C1081	C108	0.757100	0.471300	0.092100
C1091	C109	0.402300	0.516700	0.835700
C1101	C110	0.346900	0.521700	0.860300
C1111	C111	0.320500	0.528700	0.907900
C1121	C112	0.516700	0.402300	0.245300
C1131	C113	0.521700	0.346900	0.271100
C1141	C114	0.528700	0.320500	0.242900
C1151	C115	0.245300	0.835700	0.516700
C1161	C116	0.271100	0.860300	0.521700
C1171	C117	0.242900	0.907900	0.528700
C1181	C118	0.835700	0.245300	0.402300
C1191	C119	0.860300	0.271100	0.346900
C1201	C120	0.907900	0.242900	0.320500
C1211	C121	0.835700	0.516700	0.245300
C1221	C122	0.860300	0.521700	0.271100
C1231	C123	0.907900	0.528700	0.242900
C1241	C124	0.245300	0.402300	0.835700
C1251	C125	0.271100	0.346900	0.860300
C1261	C126	0.242900	0.320500	0.907900
C1271	C127	0.516700	0.835700	0.402300
C1281	C128	0.521700	0.860300	0.346900
C1291	C129	0.528700	0.907900	0.320500
C1301	C130	0.402300	0.245300	0.516700
C1311	C131	0.346900	0.271100	0.521700
C1321	C132	0.320500	0.242900	0.528700
C1331	C133	0.245300	0.516700	0.402300
C1341	C134	0.271100	0.521700	0.346900
C1351	C135	0.242900	0.528700	0.320500
C1361	C136	0.835700	0.402300	0.516700
C1371	C137	0.860300	0.346900	0.521700
C1381	C138	0.907900	0.320500	0.528700
C1391	C139	0.402300	0.835700	0.245300
C1401	C140	0.346900	0.860300	0.271100
C1411	C141	0.320500	0.907900	0.242900
C1421	C142	0.516700	0.245300	0.835700
C1431	C143	0.521700	0.271100	0.860300
C1441	C144	0.528700	0.242900	0.907900
C1451	C145	0.519800	0.322400	0.835400
C1461	C146	0.529800	0.268000	0.934200
C1471	C147	0.535200	0.240800	0.983200
C1481	C148	0.322400	0.519800	0.322400
C1491	C149	0.268000	0.529800	0.268000
C1501	C150	0.240800	0.535200	0.240800
C1511	C151	0.835400	0.322400	0.519800
C1521	C152	0.934200	0.268000	0.529800
C1531	C153	0.983200	0.240800	0.535200
C1541	C154	0.322400	0.835400	0.322400
C1551	C155	0.268000	0.934200	0.268000
C1561	C156	0.240800	0.983200	0.240800
C1571	C157	0.519800	0.835400	0.322400
C1581	C158	0.529800	0.934200	0.268000
C1591	C159	0.535200	0.983200	0.240800
C1601	C160	0.322400	0.322400	0.835400
C1611	C161	0.268000	0.268000	0.934200
C1621	C162	0.240800	0.240800	0.983200
C1631	C163	0.835400	0.519800	0.322400
C1641	C164	0.934200	0.529800	0.268000
C1651	C165	0.983200	0.535200	0.240800
C1661	C166	0.322400	0.322400	0.519800
C1671	C167	0.268000	0.268000	0.529800
C1681	C168	0.240800	0.240800	0.535200
C1691	C169	0.519800	0.322400	0.322400
C1701	C170	0.529800	0.268000	0.268000
C1711	C171	0.535200	0.240800	0.240800
C1721	C172	0.322400	0.835400	0.519800
C1731	C173	0.268000	0.934200	0.529800
C1741	C174	0.240800	0.983200	0.535200
C1751	C175	0.835400	0.322400	0.322400
C1761	C176	0.934200	0.268000	0.268000
C1771	C177	0.983200	0.240800	0.240800
C1781	C178	0.322400	0.519800	0.835400
C1791	C179	0.268000	0.529800	0.934200
C1801	C180	0.240800	0.535200	0.983200
C1811	C181	0.677600	0.480200	0.164600
C1821	C182	0.732000	0.470200	0.065800
C1831	C183	0.759200	0.464800	0.016800
C1841	C184	0.480200	0.677600	0.677600
C1851	C185	0.470200	0.732000	0.732000
C1861	C186	0.464800	0.759200	0.759200
C1871	C187	0.677600	0.164600	0.480200
C1881	C188	0.732000	0.065800	0.470200
C1891	C189	0.759200	0.016800	0.464800
C1901	C190	0.164600	0.677600	0.677600
C1911	C191	0.065800	0.732000	0.732000
C1921	C192	0.016800	0.759200	0.759200
C1931	C193	0.164600	0.480200	0.677600
C1941	C194	0.065800	0.470200	0.732000
C1951	C195	0.016800	0.464800	0.759200
C1961	C196	0.677600	0.677600	0.164600
C1971	C197	0.732000	0.732000	0.065800
C1981	C198	0.759200	0.759200	0.016800
C1991	C199	0.480200	0.164600	0.677600
C2001	C200	0.470200	0.065800	0.732000
C2011	C201	0.464800	0.016800	0.759200
C2021	C202	0.677600	0.677600	0.480200
C2031	C203	0.732000	0.732000	0.470200
C2041	C204	0.759200	0.759200	0.464800
C2051	C205	0.677600	0.480200	0.677600
C2061	C206	0.732000	0.470200	0.732000
C2071	C207	0.759200	0.464800	0.759200
C2081	C208	0.164600	0.677600	0.480200
C2091	C209	0.065800	0.732000	0.470200
C2101	C210	0.016800	0.759200	0.464800
C2111	C211	0.677600	0.164600	0.677600
C2121	C212	0.732000	0.065800	0.732000
C2131	C213	0.759200	0.016800	0.759200
C2141	C214	0.480200	0.677600	0.164600
C2151	C215	0.470200	0.732000	0.065800
C2161	C216	0.464800	0.759200	0.016800
N11	N1	0.538900	0.189900	0.010900
N21	N2	0.537800	0.181400	0.057600
N31	N3	0.189900	0.538900	0.260300
N41	N4	0.181400	0.537800	0.223200
N51	N5	0.010900	0.260300	0.538900
N61	N6	0.057600	0.223200	0.537800
N71	N7	0.260300	0.010900	0.189900
N81	N8	0.223200	0.057600	0.181400
N91	N9	0.538900	0.010900	0.260300
N101	N10	0.537800	0.057600	0.223200
N111	N11	0.189900	0.260300	0.010900
N121	N12	0.181400	0.223200	0.057600
N131	N13	0.010900	0.538900	0.189900
N141	N14	0.057600	0.537800	0.181400
N151	N15	0.260300	0.189900	0.538900
N161	N16	0.223200	0.181400	0.537800
N171	N17	0.538900	0.260300	0.189900
N181	N18	0.537800	0.223200	0.181400
N191	N19	0.189900	0.010900	0.538900
N201	N20	0.181400	0.057600	0.537800
N211	N21	0.010900	0.189900	0.260300
N221	N22	0.057600	0.181400	0.223200
N231	N23	0.260300	0.538900	0.010900
N241	N24	0.223200	0.537800	0.057600
N251	N25	0.810100	0.461100	0.989100
N261	N26	0.818600	0.462200	0.942400
N271	N27	0.461100	0.810100	0.739700
N281	N28	0.462200	0.818600	0.776800
N291	N29	0.739700	0.989100	0.461100
N301	N30	0.776800	0.942400	0.462200
N311	N31	0.989100	0.739700	0.810100
N321	N32	0.942400	0.776800	0.818600
N331	N33	0.989100	0.461100	0.739700
N341	N34	0.942400	0.462200	0.776800
N351	N35	0.739700	0.810100	0.989100
N361	N36	0.776800	0.818600	0.942400
N371	N37	0.461100	0.989100	0.810100
N381	N38	0.462200	0.942400	0.818600
N391	N39	0.810100	0.739700	0.461100
N401	N40	0.818600	0.776800	0.462200
N411	N41	0.739700	0.461100	0.810100
N421	N42	0.776800	0.462200	0.818600
N431	N43	0.989100	0.810100	0.461100
N441	N44	0.942400	0.818600	0.462200
N451	N45	0.810100	0.989100	0.739700
N461	N46	0.818600	0.942400	0.776800
N471	N47	0.461100	0.739700	0.989100
N481	N48	0.462200	0.776800	0.942400
N491	N49	0.461100	0.810100	0.989100
N501	N50	0.462200	0.818600	0.942400
N511	N51	0.810100	0.461100	0.739700
N521	N52	0.818600	0.462200	0.776800
N531	N53	0.989100	0.739700	0.461100
N541	N54	0.942400	0.776800	0.462200
N551	N55	0.739700	0.989100	0.810100
N561	N56	0.776800	0.942400	0.818600
N571	N57	0.461100	0.989100	0.739700
N581	N58	0.462200	0.942400	0.776800
N591	N59	0.810100	0.739700	0.989100
N601	N60	0.818600	0.776800	0.942400
N611	N61	0.989100	0.461100	0.810100
N621	N62	0.942400	0.462200	0.818600
N631	N63	0.739700	0.810100	0.461100
N641	N64	0.776800	0.818600	0.462200
N651	N65	0.461100	0.739700	0.810100
N661	N66	0.462200	0.776800	0.818600
N671	N67	0.810100	0.989100	0.461100
N681	N68	0.818600	0.942400	0.462200
N691	N69	0.989100	0.810100	0.739700
N701	N70	0.942400	0.818600	0.776800
N711	N71	0.739700	0.461100	0.989100
N721	N72	0.776800	0.462200	0.942400
N731	N73	0.189900	0.538900	0.010900
N741	N74	0.181400	0.537800	0.057600
N751	N75	0.538900	0.189900	0.260300
N761	N76	0.537800	0.181400	0.223200
N771	N77	0.260300	0.010900	0.538900
N781	N78	0.223200	0.057600	0.537800
N791	N79	0.010900	0.260300	0.189900
N801	N80	0.057600	0.223200	0.181400
N811	N81	0.010900	0.538900	0.260300
N821	N82	0.057600	0.537800	0.223200
N831	N83	0.260300	0.189900	0.010900
N841	N84	0.223200	0.181400	0.057600
N851	N85	0.538900	0.010900	0.189900
N861	N86	0.537800	0.057600	0.181400
N871	N87	0.189900	0.260300	0.538900
N881	N88	0.181400	0.223200	0.537800
N891	N89	0.260300	0.538900	0.189900
N901	N90	0.223200	0.537800	0.181400
N911	N91	0.010900	0.189900	0.538900
N921	N92	0.057600	0.181400	0.537800
N931	N93	0.189900	0.010900	0.260300
N941	N94	0.181400	0.057600	0.223200
N951	N95	0.538900	0.260300	0.010900
N961	N96	0.537800	0.223200	0.057600
O11	O1	0.512510	0.425190	0.791110
O21	O2	0.512780	0.425440	0.861720
O31	O3	0.425190	0.512510	0.271190
O41	O4	0.425440	0.512780	0.200060
O51	O5	0.791110	0.271190	0.512510
O61	O6	0.861720	0.200060	0.512780
O71	O7	0.271190	0.791110	0.425190
O81	O8	0.200060	0.861720	0.425440
O91	O9	0.512510	0.791110	0.271190
O101	O10	0.512780	0.861720	0.200060
O111	O11	0.425190	0.271190	0.791110
O121	O12	0.425440	0.200060	0.861720
O131	O13	0.791110	0.512510	0.425190
O141	O14	0.861720	0.512780	0.425440
O151	O15	0.271190	0.425190	0.512510
O161	O16	0.200060	0.425440	0.512780
O171	O17	0.512510	0.271190	0.425190
O181	O18	0.512780	0.200060	0.425440
O191	O19	0.425190	0.791110	0.512510
O201	O20	0.425440	0.861720	0.512780
O211	O21	0.791110	0.425190	0.271190
O221	O22	0.861720	0.425440	0.200060
O231	O23	0.271190	0.512510	0.791110
O241	O24	0.200060	0.512780	0.861720
O251	O25	0.574810	0.487490	0.208890
O261	O26	0.574560	0.487220	0.138280
O271	O27	0.487490	0.574810	0.728810
O281	O28	0.487220	0.574560	0.799940
O291	O29	0.728810	0.208890	0.487490
O301	O30	0.799940	0.138280	0.487220
O311	O31	0.208890	0.728810	0.574810
O321	O32	0.138280	0.799940	0.574560
O331	O33	0.208890	0.487490	0.728810
O341	O34	0.138280	0.487220	0.799940
O351	O35	0.728810	0.574810	0.208890
O361	O36	0.799940	0.574560	0.138280
O371	O37	0.487490	0.208890	0.574810
O381	O38	0.487220	0.138280	0.574560
O391	O39	0.574810	0.728810	0.487490
O401	O40	0.574560	0.799940	0.487220
O411	O41	0.728810	0.487490	0.574810
O421	O42	0.799940	0.487220	0.574560
O431	O43	0.208890	0.574810	0.487490
O441	O44	0.138280	0.574560	0.487220
O451	O45	0.574810	0.208890	0.728810
O461	O46	0.574560	0.138280	0.799940
O471	O47	0.487490	0.728810	0.208890
O481	O48	0.487220	0.799940	0.138280
O491	O49	0.487490	0.574810	0.208890
O501	O50	0.487220	0.574560	0.138280
O511	O51	0.574810	0.487490	0.728810
O521	O52	0.574560	0.487220	0.799940
O531	O53	0.208890	0.728810	0.487490
O541	O54	0.138280	0.799940	0.487220
O551	O55	0.728810	0.208890	0.574810
O561	O56	0.799940	0.138280	0.574560
O571	O57	0.487490	0.208890	0.728810
O581	O58	0.487220	0.138280	0.799940
O591	O59	0.574810	0.728810	0.208890
O601	O60	0.574560	0.799940	0.138280
O611	O61	0.208890	0.487490	0.574810
O621	O62	0.138280	0.487220	0.574560
O631	O63	0.728810	0.574810	0.487490
O641	O64	0.799940	0.574560	0.487220
O651	O65	0.487490	0.728810	0.574810
O661	O66	0.487220	0.799940	0.574560
O671	O67	0.574810	0.208890	0.487490
O681	O68	0.574560	0.138280	0.487220
O691	O69	0.208890	0.574810	0.728810
O701	O70	0.138280	0.574560	0.799940
O711	O71	0.728810	0.487490	0.208890
O721	O72	0.799940	0.487220	0.138280
O731	O73	0.425190	0.512510	0.791110
O741	O74	0.425440	0.512780	0.861720
O751	O75	0.512510	0.425190	0.271190
O761	O76	0.512780	0.425440	0.200060
O771	O77	0.271190	0.791110	0.512510
O781	O78	0.200060	0.861720	0.512780
O791	O79	0.791110	0.271190	0.425190
O801	O80	0.861720	0.200060	0.425440
O811	O81	0.791110	0.512510	0.271190
O821	O82	0.861720	0.512780	0.200060
O831	O83	0.271190	0.425190	0.791110
O841	O84	0.200060	0.425440	0.861720
O851	O85	0.512510	0.791110	0.425190
O861	O86	0.512780	0.861720	0.425440
O871	O87	0.425190	0.271190	0.512510
O881	O88	0.425440	0.200060	0.512780
O891	O89	0.271190	0.512510	0.425190
O901	O90	0.200060	0.512780	0.425440
O911	O91	0.791110	0.425190	0.512510
O921	O92	0.861720	0.425440	0.512780
O931	O93	0.425190	0.791110	0.271190
O941	O94	0.425440	0.861720	0.200060
O951	O95	0.512510	0.271190	0.791110
O961	O96	0.512780	0.200060	0.861720
O971	O97	0.500000	0.500000	0.905600
O981	O98	0.500000	0.500000	0.685800
O991	O99	0.500000	0.500000	0.094400
O1001	O100	0.500000	0.500000	0.314200
O1011	O101	0.905600	0.094400	0.500000
O1021	O102	0.685800	0.314200	0.500000
O1031	O103	0.094400	0.905600	0.500000
O1041	O104	0.314200	0.685800	0.500000
O1051	O105	0.500000	0.905600	0.094400
O1061	O106	0.500000	0.685800	0.314200
O1071	O107	0.500000	0.094400	0.905600
O1081	O108	0.500000	0.314200	0.685800
O1091	O109	0.905600	0.500000	0.500000
O1101	O110	0.685800	0.500000	0.500000
O1111	O111	0.094400	0.500000	0.500000
O1121	O112	0.314200	0.500000	0.500000
O1131	O113	0.500000	0.094400	0.500000
O1141	O114	0.500000	0.314200	0.500000
O1151	O115	0.500000	0.905600	0.500000
O1161	O116	0.500000	0.685800	0.500000
O1171	O117	0.905600	0.500000	0.094400
O1181	O118	0.685800	0.500000	0.314200
O1191	O119	0.094400	0.500000	0.905600
O1201	O120	0.314200	0.500000	0.685800
O1211	O121	0.508900	0.093100	0.093100
O1221	O122	0.604500	0.067100	0.067100
O1231	O123	0.477300	0.138300	0.138300
O1241	O124	0.093100	0.508900	0.304900
O1251	O125	0.067100	0.604500	0.261300
O1261	O126	0.138300	0.477300	0.246100
O1271	O127	0.093100	0.304900	0.508900
O1281	O128	0.067100	0.261300	0.604500
O1291	O129	0.138300	0.246100	0.477300
O1301	O130	0.304900	0.093100	0.093100
O1311	O131	0.261300	0.067100	0.067100
O1321	O132	0.246100	0.138300	0.138300
O1331	O133	0.508900	0.093100	0.304900
O1341	O134	0.604500	0.067100	0.261300
O1351	O135	0.477300	0.138300	0.246100
O1361	O136	0.093100	0.304900	0.093100
O1371	O137	0.067100	0.261300	0.067100
O1381	O138	0.138300	0.246100	0.138300
O1391	O139	0.093100	0.508900	0.093100
O1401	O140	0.067100	0.604500	0.067100
O1411	O141	0.138300	0.477300	0.138300
O1421	O142	0.304900	0.093100	0.508900
O1431	O143	0.261300	0.067100	0.604500
O1441	O144	0.246100	0.138300	0.477300
O1451	O145	0.508900	0.304900	0.093100
O1461	O146	0.604500	0.261300	0.067100
O1471	O147	0.477300	0.246100	0.138300
O1481	O148	0.093100	0.093100	0.508900
O1491	O149	0.067100	0.067100	0.604500
O1501	O150	0.138300	0.138300	0.477300
O1511	O151	0.093100	0.093100	0.304900
O1521	O152	0.067100	0.067100	0.261300
O1531	O153	0.138300	0.138300	0.246100
O1541	O154	0.304900	0.508900	0.093100
O1551	O155	0.261300	0.604500	0.067100
O1561	O156	0.246100	0.477300	0.138300
O1571	O157	0.906900	0.491100	0.906900
O1581	O158	0.932900	0.395500	0.932900
O1591	O159	0.861700	0.522700	0.861700
O1601	O160	0.491100	0.906900	0.695100
O1611	O161	0.395500	0.932900	0.738700
O1621	O162	0.522700	0.861700	0.753900
O1631	O163	0.695100	0.906900	0.491100
O1641	O164	0.738700	0.932900	0.395500
O1651	O165	0.753900	0.861700	0.522700
O1661	O166	0.906900	0.695100	0.906900
O1671	O167	0.932900	0.738700	0.932900
O1681	O168	0.861700	0.753900	0.861700
O1691	O169	0.906900	0.491100	0.695100
O1701	O170	0.932900	0.395500	0.738700
O1711	O171	0.861700	0.522700	0.753900
O1721	O172	0.695100	0.906900	0.906900
O1731	O173	0.738700	0.932900	0.932900
O1741	O174	0.753900	0.861700	0.861700
O1751	O175	0.491100	0.906900	0.906900
O1761	O176	0.395500	0.932900	0.932900
O1771	O177	0.522700	0.861700	0.861700
O1781	O178	0.906900	0.695100	0.491100
O1791	O179	0.932900	0.738700	0.395500
O1801	O180	0.861700	0.753900	0.522700
O1811	O181	0.695100	0.491100	0.906900
O1821	O182	0.738700	0.395500	0.932900
O1831	O183	0.753900	0.522700	0.861700
O1841	O184	0.906900	0.906900	0.491100
O1851	O185	0.932900	0.932900	0.395500
O1861	O186	0.861700	0.861700	0.522700
O1871	O187	0.906900	0.906900	0.695100
O1881	O188	0.932900	0.932900	0.738700
O1891	O189	0.861700	0.861700	0.753900
O1901	O190	0.491100	0.695100	0.906900
O1911	O191	0.395500	0.738700	0.932900
O1921	O192	0.522700	0.753900	0.861700
O1931	O193	0.553600	0.148800	0.148800
O1941	O194	0.148800	0.553600	0.148800
O1951	O195	0.148800	0.148800	0.553600
O1961	O196	0.148800	0.148800	0.148800
O1971	O197	0.851200	0.446400	0.851200
O1981	O198	0.446400	0.851200	0.851200
O1991	O199	0.851200	0.851200	0.446400
O2001	O200	0.851200	0.851200	0.851200
N971	N97	0.562400	0.562400	0.562400
O2011	O201	0.585400	0.516400	0.585400
O2021	O202	0.585400	0.585400	0.516400
O2031	O203	0.516400	0.585400	0.585400
N981	N98	0.562400	0.562400	0.312800
O2041	O204	0.516400	0.585400	0.312800
O2051	O205	0.585400	0.585400	0.312800
O2061	O206	0.585400	0.516400	0.312800
N991	N99	0.562400	0.312800	0.562400
O2071	O207	0.585400	0.312800	0.585400
O2081	O208	0.516400	0.312800	0.585400
O2091	O209	0.585400	0.312800	0.516400
N1001	N100	0.312800	0.562400	0.562400
O2101	O210	0.312800	0.585400	0.516400
O2111	O211	0.312800	0.516400	0.585400
O2121	O212	0.312800	0.585400	0.585400
N1011	N101	0.437600	0.437600	0.437600
O2131	O213	0.483600	0.414600	0.414600
O2141	O214	0.414600	0.414600	0.483600
O2151	O215	0.414600	0.483600	0.414600
N1021	N102	0.437600	0.437600	0.687200
O2161	O216	0.414600	0.483600	0.687200
O2171	O217	0.414600	0.414600	0.687200
O2181	O218	0.483600	0.414600	0.687200
N1031	N103	0.687200	0.437600	0.437600
O2191	O219	0.687200	0.414600	0.414600
O2201	O220	0.687200	0.483600	0.414600
O2211	O221	0.687200	0.414600	0.483600
N1041	N104	0.437600	0.687200	0.437600
O2221	O222	0.414600	0.687200	0.483600
O2231	O223	0.483600	0.687200	0.414600
O2241	O224	0.414600	0.687200	0.414600
