data_LODPOK_freeONLY_PM
_symmetry_space_group_name_H-M	'P1'
_cell_length_a	23.169000
_cell_length_b	23.169000
_cell_length_c	26.950300
_cell_angle_alpha	64.542100
_cell_angle_beta	64.542100
_cell_angle_gamma	89.999900
_symmetry_Int_Tables_number 1

loop_
_symmetry_equiv_pos_as_xyz
'x,y,z'

loop_
_atom_site_label
_atom_site_type_symbol
_atom_site_fract_x
_atom_site_fract_y
_atom_site_fract_z
Co11	Co1	0.342780	0.942710	0.850140
Co21	Co2	0.307080	0.207150	0.850140
Co31	Co3	0.442710	0.807080	0.350140
Co41	Co4	0.707150	0.842780	0.350140
Co51	Co5	0.657220	0.057290	0.149860
Co61	Co6	0.692920	0.792850	0.149860
Co71	Co7	0.557290	0.192920	0.649860
Co81	Co8	0.292850	0.157220	0.649860
Co91	Co9	0.375000	0.125000	0.750000
Co101	Co10	0.625000	0.875000	0.250000
H11	H1	0.259000	0.856700	0.821800
H21	H2	0.200700	0.830800	0.781000
H31	H3	0.177400	0.911200	0.708600
H41	H4	0.213700	0.022300	0.673600
H51	H5	0.260200	0.896700	0.004600
H61	H6	0.208400	0.901800	0.097000
H71	H7	0.119600	0.851500	0.910800
H81	H8	0.026400	0.854300	0.902000
H91	H9	0.920100	0.796500	0.086600
H101	H10	0.013500	0.791200	0.095600
H111	H11	0.419200	0.321500	0.821800
H121	H12	0.518300	0.388200	0.781000
H131	H13	0.614000	0.380200	0.708600
H141	H14	0.612700	0.304100	0.673600
H151	H15	0.235200	0.098700	0.004600
H161	H16	0.194600	0.001200	0.097000
H171	H17	0.469600	0.237700	0.910800
H181	H18	0.571600	0.243700	0.902000
H191	H19	0.493300	0.116900	0.086600
H201	H20	0.390900	0.113200	0.095600
H211	H21	0.356700	0.919200	0.321800
H221	H22	0.330800	0.018300	0.281000
H231	H23	0.411200	0.114000	0.208600
H241	H24	0.522300	0.112700	0.173600
H251	H25	0.396700	0.735200	0.504600
H261	H26	0.401800	0.694600	0.597000
H271	H27	0.351500	0.969600	0.410800
H281	H28	0.354300	0.071600	0.402000
H291	H29	0.296500	0.993300	0.586600
H301	H30	0.291200	0.890900	0.595600
H311	H31	0.821500	0.759000	0.321800
H321	H32	0.888200	0.700700	0.281000
H331	H33	0.880200	0.677400	0.208600
H341	H34	0.804100	0.713700	0.173600
H351	H35	0.598700	0.760200	0.504600
H361	H36	0.501200	0.708400	0.597000
H371	H37	0.737700	0.619600	0.410800
H381	H38	0.743700	0.526400	0.402000
H391	H39	0.616900	0.420100	0.586600
H401	H40	0.613200	0.513500	0.595600
H411	H41	0.741000	0.143300	0.178200
H421	H42	0.799300	0.169200	0.219000
H431	H43	0.822600	0.088800	0.291400
H441	H44	0.786300	0.977700	0.326400
H451	H45	0.739800	0.103300	0.995400
H461	H46	0.791600	0.098200	0.903000
H471	H47	0.880400	0.148500	0.089200
H481	H48	0.973600	0.145700	0.098000
H491	H49	0.079900	0.203500	0.913400
H501	H50	0.986500	0.208800	0.904400
H511	H51	0.580800	0.678500	0.178200
H521	H52	0.481700	0.611800	0.219000
H531	H53	0.386000	0.619800	0.291400
H541	H54	0.387300	0.695900	0.326400
H551	H55	0.764800	0.901300	0.995400
H561	H56	0.805400	0.998800	0.903000
H571	H57	0.530400	0.762300	0.089200
H581	H58	0.428400	0.756300	0.098000
H591	H59	0.506700	0.883100	0.913400
H601	H60	0.609100	0.886800	0.904400
H611	H61	0.643300	0.080800	0.678200
H621	H62	0.669200	0.981700	0.719000
H631	H63	0.588800	0.886000	0.791400
H641	H64	0.477700	0.887300	0.826400
H651	H65	0.603300	0.264800	0.495400
H661	H66	0.598200	0.305400	0.403000
H671	H67	0.648500	0.030400	0.589200
H681	H68	0.645700	0.928400	0.598000
H691	H69	0.703500	0.006700	0.413400
H701	H70	0.708800	0.109100	0.404400
H711	H71	0.178500	0.241000	0.678200
H721	H72	0.111800	0.299300	0.719000
H731	H73	0.119800	0.322600	0.791400
H741	H74	0.195900	0.286300	0.826400
H751	H75	0.401300	0.239800	0.495400
H761	H76	0.498800	0.291600	0.403000
H771	H77	0.262300	0.380400	0.589200
H781	H78	0.256300	0.473600	0.598000
H791	H79	0.383100	0.579900	0.413400
H801	H80	0.386800	0.486500	0.404400
C11	C1	0.273160	0.956090	0.770400
C21	C2	0.250540	0.889340	0.792120
C31	C3	0.215810	0.874610	0.767980
C41	C4	0.201860	0.923560	0.723680
C51	C5	0.223500	0.989800	0.702200
C61	C6	0.260730	0.004960	0.725940
C71	C7	0.279850	0.996150	0.948100
C81	C8	0.255470	0.936570	0.004460
C91	C9	0.224450	0.940050	0.059100
C101	C10	0.134210	0.790710	0.068580
C111	C11	0.198630	0.846960	0.957280
C121	C12	0.136040	0.816540	0.009920
C131	C13	0.077960	0.818960	0.004280
C141	C14	0.079340	0.839240	0.946320
C151	C15	0.023810	0.841510	0.940780
C161	C16	0.961330	0.824430	0.994140
C171	C17	0.960100	0.806600	0.051400
C181	C18	0.015970	0.803570	0.056860
C191	C19	0.902680	0.826580	0.988840
C201	C20	0.841340	0.815520	0.039760
C211	C21	0.901160	0.841760	0.932880
C221	C22	0.456440	0.273510	0.770400
C231	C23	0.457340	0.318540	0.792120
C241	C24	0.516210	0.357410	0.767980
C251	C25	0.574460	0.352760	0.723680
C261	C26	0.574300	0.308000	0.702200
C271	C27	0.513330	0.269100	0.725940
C281	C28	0.272050	0.055750	0.948100
C291	C29	0.240070	0.058970	0.004460
C301	C30	0.216450	0.000850	0.059100
C311	C31	0.297210	0.140710	0.068580
C321	C32	0.344090	0.195760	0.957280
C331	C33	0.354040	0.173540	0.009920
C341	C34	0.417760	0.176760	0.004280
C351	C35	0.474340	0.214440	0.946320
C361	C36	0.535410	0.217710	0.940780
C371	C37	0.544530	0.181430	0.994140
C381	C38	0.488500	0.142000	0.051400
C391	C39	0.427170	0.139570	0.056860
C401	C40	0.608480	0.184580	0.988840
C411	C41	0.618900	0.144720	0.039760
C421	C42	0.665960	0.225360	0.932880
C431	C43	0.456090	0.956440	0.270400
C441	C44	0.389340	0.957340	0.292120
C451	C45	0.374610	0.016210	0.267980
C461	C46	0.423560	0.074460	0.223680
C471	C47	0.489800	0.074300	0.202200
C481	C48	0.504960	0.013330	0.225940
C491	C49	0.496150	0.772050	0.448100
C501	C50	0.436570	0.740070	0.504460
C511	C51	0.440050	0.716450	0.559100
C521	C52	0.290710	0.797210	0.568580
C531	C53	0.346960	0.844090	0.457280
C541	C54	0.316540	0.854040	0.509920
C551	C55	0.318960	0.917760	0.504280
C561	C56	0.339240	0.974340	0.446320
C571	C57	0.341510	0.035410	0.440780
C581	C58	0.324430	0.044530	0.494140
C591	C59	0.306600	0.988500	0.551400
C601	C60	0.303570	0.927170	0.556860
C611	C61	0.326580	0.108480	0.488840
C621	C62	0.315520	0.118900	0.539760
C631	C63	0.341760	0.165960	0.432880
C641	C64	0.773510	0.773160	0.270400
C651	C65	0.818540	0.750540	0.292120
C661	C66	0.857410	0.715810	0.267980
C671	C67	0.852760	0.701860	0.223680
C681	C68	0.808000	0.723500	0.202200
C691	C69	0.769100	0.760730	0.225940
C701	C70	0.555750	0.779850	0.448100
C711	C71	0.558970	0.755470	0.504460
C721	C72	0.500850	0.724450	0.559100
C731	C73	0.640710	0.634210	0.568580
C741	C74	0.695760	0.698630	0.457280
C751	C75	0.673540	0.636040	0.509920
C761	C76	0.676760	0.577960	0.504280
C771	C77	0.714440	0.579340	0.446320
C781	C78	0.717710	0.523810	0.440780
C791	C79	0.681430	0.461330	0.494140
C801	C80	0.642000	0.460100	0.551400
C811	C81	0.639570	0.515970	0.556860
C821	C82	0.684580	0.402680	0.488840
C831	C83	0.644720	0.341340	0.539760
C841	C84	0.725360	0.401160	0.432880
C851	C85	0.726840	0.043910	0.229600
C861	C86	0.749460	0.110660	0.207880
C871	C87	0.784190	0.125390	0.232020
C881	C88	0.798140	0.076440	0.276320
C891	C89	0.776500	0.010200	0.297800
C901	C90	0.739270	0.995040	0.274060
C911	C91	0.720150	0.003850	0.051900
C921	C92	0.744530	0.063430	0.995540
C931	C93	0.775550	0.059950	0.940900
C941	C94	0.865790	0.209290	0.931420
C951	C95	0.801370	0.153040	0.042720
C961	C96	0.863960	0.183460	0.990080
C971	C97	0.922040	0.181040	0.995720
C981	C98	0.920660	0.160760	0.053680
C991	C99	0.976190	0.158490	0.059220
C1001	C100	0.038670	0.175570	0.005860
C1011	C101	0.039900	0.193400	0.948600
C1021	C102	0.984030	0.196430	0.943140
C1031	C103	0.097320	0.173420	0.011160
C1041	C104	0.158660	0.184480	0.960240
C1051	C105	0.098840	0.158240	0.067120
C1061	C106	0.543560	0.726490	0.229600
C1071	C107	0.542660	0.681460	0.207880
C1081	C108	0.483790	0.642590	0.232020
C1091	C109	0.425540	0.647240	0.276320
C1101	C110	0.425700	0.692000	0.297800
C1111	C111	0.486670	0.730900	0.274060
C1121	C112	0.727950	0.944250	0.051900
C1131	C113	0.759930	0.941030	0.995540
C1141	C114	0.783550	0.999150	0.940900
C1151	C115	0.702790	0.859290	0.931420
C1161	C116	0.655910	0.804240	0.042720
C1171	C117	0.645960	0.826460	0.990080
C1181	C118	0.582240	0.823240	0.995720
C1191	C119	0.525660	0.785560	0.053680
C1201	C120	0.464590	0.782290	0.059220
C1211	C121	0.455470	0.818570	0.005860
C1221	C122	0.511500	0.858000	0.948600
C1231	C123	0.572830	0.860430	0.943140
C1241	C124	0.391520	0.815420	0.011160
C1251	C125	0.381100	0.855280	0.960240
C1261	C126	0.334040	0.774640	0.067120
C1271	C127	0.543910	0.043560	0.729600
C1281	C128	0.610660	0.042660	0.707880
C1291	C129	0.625390	0.983790	0.732020
C1301	C130	0.576440	0.925540	0.776320
C1311	C131	0.510200	0.925700	0.797800
C1321	C132	0.495040	0.986670	0.774060
C1331	C133	0.503850	0.227950	0.551900
C1341	C134	0.563430	0.259930	0.495540
C1351	C135	0.559950	0.283550	0.440900
C1361	C136	0.709290	0.202790	0.431420
C1371	C137	0.653040	0.155910	0.542720
C1381	C138	0.683460	0.145960	0.490080
C1391	C139	0.681040	0.082240	0.495720
C1401	C140	0.660760	0.025660	0.553680
C1411	C141	0.658490	0.964590	0.559220
C1421	C142	0.675570	0.955470	0.505860
C1431	C143	0.693400	0.011500	0.448600
C1441	C144	0.696430	0.072830	0.443140
C1451	C145	0.673420	0.891520	0.511160
C1461	C146	0.684480	0.881100	0.460240
C1471	C147	0.658240	0.834040	0.567120
C1481	C148	0.226490	0.226840	0.729600
C1491	C149	0.181460	0.249460	0.707880
C1501	C150	0.142590	0.284190	0.732020
C1511	C151	0.147240	0.298140	0.776320
C1521	C152	0.192000	0.276500	0.797800
C1531	C153	0.230900	0.239270	0.774060
C1541	C154	0.444250	0.220150	0.551900
C1551	C155	0.441030	0.244530	0.495540
C1561	C156	0.499150	0.275550	0.440900
C1571	C157	0.359290	0.365790	0.431420
C1581	C158	0.304240	0.301370	0.542720
C1591	C159	0.326460	0.363960	0.490080
C1601	C160	0.323240	0.422040	0.495720
C1611	C161	0.285560	0.420660	0.553680
C1621	C162	0.282290	0.476190	0.559220
C1631	C163	0.318570	0.538670	0.505860
C1641	C164	0.358000	0.539900	0.448600
C1651	C165	0.360430	0.484030	0.443140
C1661	C166	0.315420	0.597320	0.511160
C1671	C167	0.355280	0.658660	0.460240
C1681	C168	0.274640	0.598840	0.567120
N11	N1	0.310070	0.987160	0.784220
N21	N2	0.319250	0.051200	0.749520
N31	N3	0.290530	0.063980	0.713580
N41	N4	0.312610	0.008850	0.887220
N51	N5	0.131770	0.770270	0.116460
N61	N6	0.250370	0.874290	0.916180
N71	N7	0.791270	0.807170	0.080960
N81	N8	0.902090	0.854590	0.886220
N91	N9	0.405710	0.228620	0.784220
N101	N10	0.431230	0.199280	0.749520
N111	N11	0.495890	0.222440	0.713580
N121	N12	0.300170	0.103930	0.887220
N131	N13	0.251770	0.113270	0.116460
N141	N14	0.333450	0.209530	0.916180
N151	N15	0.627770	0.111870	0.080960
N161	N16	0.711690	0.259190	0.886220
N171	N17	0.487160	0.905710	0.284220
N181	N18	0.551200	0.931230	0.249520
N191	N19	0.563980	0.995890	0.213580
N201	N20	0.508850	0.800170	0.387220
N211	N21	0.270270	0.751770	0.616460
N221	N22	0.374290	0.833450	0.416180
N231	N23	0.307170	0.127770	0.580960
N241	N24	0.354590	0.211690	0.386220
N251	N25	0.728620	0.810070	0.284220
N261	N26	0.699280	0.819250	0.249520
N271	N27	0.722440	0.790530	0.213580
N281	N28	0.603930	0.812610	0.387220
N291	N29	0.613270	0.631770	0.616460
N301	N30	0.709530	0.750370	0.416180
N311	N31	0.611870	0.291270	0.580960
N321	N32	0.759190	0.402090	0.386220
N331	N33	0.689930	0.012840	0.215780
N341	N34	0.680750	0.948800	0.250480
N351	N35	0.709470	0.936020	0.286420
N361	N36	0.687390	0.991150	0.112780
N371	N37	0.868230	0.229730	0.883540
N381	N38	0.749630	0.125710	0.083820
N391	N39	0.208730	0.192830	0.919040
N401	N40	0.097910	0.145410	0.113780
N411	N41	0.594290	0.771380	0.215780
N421	N42	0.568770	0.800720	0.250480
N431	N43	0.504110	0.777560	0.286420
N441	N44	0.699830	0.896070	0.112780
N451	N45	0.748230	0.886730	0.883540
N461	N46	0.666550	0.790470	0.083820
N471	N47	0.372230	0.888130	0.919040
N481	N48	0.288310	0.740810	0.113780
N491	N49	0.512840	0.094290	0.715780
N501	N50	0.448800	0.068770	0.750480
N511	N51	0.436020	0.004110	0.786420
N521	N52	0.491150	0.199830	0.612780
N531	N53	0.729730	0.248230	0.383540
N541	N54	0.625710	0.166550	0.583820
N551	N55	0.692830	0.872230	0.419040
N561	N56	0.645410	0.788310	0.613780
N571	N57	0.271380	0.189930	0.715780
N581	N58	0.300720	0.180750	0.750480
N591	N59	0.277560	0.209470	0.786420
N601	N60	0.396070	0.187390	0.612780
N611	N61	0.386730	0.368230	0.383540
N621	N62	0.290470	0.249630	0.583820
N631	N63	0.388130	0.708730	0.419040
N641	N64	0.240810	0.597910	0.613780
N651	N65	0.323710	0.073710	0.852580
N661	N66	0.573710	0.823710	0.352580
N671	N67	0.676290	0.926290	0.147420
N681	N68	0.426290	0.176290	0.647420
O11	O1	0.372190	0.876150	0.815080
O21	O2	0.312730	0.308770	0.815080
O31	O3	0.376150	0.812730	0.315080
O41	O4	0.808770	0.872190	0.315080
O51	O5	0.627810	0.123850	0.184920
O61	O6	0.687270	0.691230	0.184920
O71	O7	0.623850	0.187270	0.684920
O81	O8	0.191230	0.127810	0.684920
Co111	Co11	0.192920	0.557290	0.149860
Co121	Co12	0.157220	0.292850	0.149860
Co131	Co13	0.792850	0.692920	0.649860
Co141	Co14	0.057290	0.657220	0.649860
Co151	Co15	0.807080	0.442710	0.850140
Co161	Co16	0.842780	0.707150	0.850140
Co171	Co17	0.207150	0.307080	0.350140
Co181	Co18	0.942710	0.342780	0.350140
Co191	Co19	0.125000	0.375000	0.250000
Co201	Co20	0.875000	0.625000	0.750000
H811	H81	0.080800	0.643300	0.178200
H821	H82	0.981700	0.669200	0.219000
H831	H83	0.886000	0.588800	0.291400
H841	H84	0.887300	0.477700	0.326400
H851	H85	0.264800	0.603300	0.995400
H861	H86	0.305400	0.598200	0.903000
H871	H87	0.030400	0.648500	0.089200
H881	H88	0.928400	0.645700	0.098000
H891	H89	0.006700	0.703500	0.913400
H901	H90	0.109100	0.708800	0.904400
H911	H91	0.241000	0.178500	0.178200
H921	H92	0.299300	0.111800	0.219000
H931	H93	0.322600	0.119800	0.291400
H941	H94	0.286300	0.195900	0.326400
H951	H95	0.239800	0.401300	0.995400
H961	H96	0.291600	0.498800	0.903000
H971	H97	0.380400	0.262300	0.089200
H981	H98	0.473600	0.256300	0.098000
H991	H99	0.579900	0.383100	0.913400
H1001	H100	0.486500	0.386800	0.904400
H1011	H101	0.678500	0.580800	0.678200
H1021	H102	0.611800	0.481700	0.719000
H1031	H103	0.619800	0.386000	0.791400
H1041	H104	0.695900	0.387300	0.826400
H1051	H105	0.901300	0.764800	0.495400
H1061	H106	0.998800	0.805400	0.403000
H1071	H107	0.762300	0.530400	0.589200
H1081	H108	0.756300	0.428400	0.598000
H1091	H109	0.883100	0.506700	0.413400
H1101	H110	0.886800	0.609100	0.404400
H1111	H111	0.143300	0.741000	0.678200
H1121	H112	0.169200	0.799300	0.719000
H1131	H113	0.088800	0.822600	0.791400
H1141	H114	0.977700	0.786300	0.826400
H1151	H115	0.103300	0.739800	0.495400
H1161	H116	0.098200	0.791600	0.403000
H1171	H117	0.148500	0.880400	0.589200
H1181	H118	0.145700	0.973600	0.598000
H1191	H119	0.203500	0.079900	0.413400
H1201	H120	0.208800	0.986500	0.404400
H1211	H121	0.919200	0.356700	0.821800
H1221	H122	0.018300	0.330800	0.781000
H1231	H123	0.114000	0.411200	0.708600
H1241	H124	0.112700	0.522300	0.673600
H1251	H125	0.735200	0.396700	0.004600
H1261	H126	0.694600	0.401800	0.097000
H1271	H127	0.969600	0.351500	0.910800
H1281	H128	0.071600	0.354300	0.902000
H1291	H129	0.993300	0.296500	0.086600
H1301	H130	0.890900	0.291200	0.095600
H1311	H131	0.759000	0.821500	0.821800
H1321	H132	0.700700	0.888200	0.781000
H1331	H133	0.677400	0.880200	0.708600
H1341	H134	0.713700	0.804100	0.673600
H1351	H135	0.760200	0.598700	0.004600
H1361	H136	0.708400	0.501200	0.097000
H1371	H137	0.619600	0.737700	0.910800
H1381	H138	0.526400	0.743700	0.902000
H1391	H139	0.420100	0.616900	0.086600
H1401	H140	0.513500	0.613200	0.095600
H1411	H141	0.321500	0.419200	0.321800
H1421	H142	0.388200	0.518300	0.281000
H1431	H143	0.380200	0.614000	0.208600
H1441	H144	0.304100	0.612700	0.173600
H1451	H145	0.098700	0.235200	0.504600
H1461	H146	0.001200	0.194600	0.597000
H1471	H147	0.237700	0.469600	0.410800
H1481	H148	0.243700	0.571600	0.402000
H1491	H149	0.116900	0.493300	0.586600
H1501	H150	0.113200	0.390900	0.595600
H1511	H151	0.856700	0.259000	0.321800
H1521	H152	0.830800	0.200700	0.281000
H1531	H153	0.911200	0.177400	0.208600
H1541	H154	0.022300	0.213700	0.173600
H1551	H155	0.896700	0.260200	0.504600
H1561	H156	0.901800	0.208400	0.597000
H1571	H157	0.851500	0.119600	0.410800
H1581	H158	0.854300	0.026400	0.402000
H1591	H159	0.796500	0.920100	0.586600
H1601	H160	0.791200	0.013500	0.595600
C1691	C169	0.043560	0.543910	0.229600
C1701	C170	0.042660	0.610660	0.207880
C1711	C171	0.983790	0.625390	0.232020
C1721	C172	0.925540	0.576440	0.276320
C1731	C173	0.925700	0.510200	0.297800
C1741	C174	0.986670	0.495040	0.274060
C1751	C175	0.227950	0.503850	0.051900
C1761	C176	0.259930	0.563430	0.995540
C1771	C177	0.283550	0.559950	0.940900
C1781	C178	0.202790	0.709290	0.931420
C1791	C179	0.155910	0.653040	0.042720
C1801	C180	0.145960	0.683460	0.990080
C1811	C181	0.082240	0.681040	0.995720
C1821	C182	0.025660	0.660760	0.053680
C1831	C183	0.964590	0.658490	0.059220
C1841	C184	0.955470	0.675570	0.005860
C1851	C185	0.011500	0.693400	0.948600
C1861	C186	0.072830	0.696430	0.943140
C1871	C187	0.891520	0.673420	0.011160
C1881	C188	0.881100	0.684480	0.960240
C1891	C189	0.834040	0.658240	0.067120
C1901	C190	0.226840	0.226490	0.229600
C1911	C191	0.249460	0.181460	0.207880
C1921	C192	0.284190	0.142590	0.232020
C1931	C193	0.298140	0.147240	0.276320
C1941	C194	0.276500	0.192000	0.297800
C1951	C195	0.239270	0.230900	0.274060
C1961	C196	0.220150	0.444250	0.051900
C1971	C197	0.244530	0.441030	0.995540
C1981	C198	0.275550	0.499150	0.940900
C1991	C199	0.365790	0.359290	0.931420
C2001	C200	0.301370	0.304240	0.042720
C2011	C201	0.363960	0.326460	0.990080
C2021	C202	0.422040	0.323240	0.995720
C2031	C203	0.420660	0.285560	0.053680
C2041	C204	0.476190	0.282290	0.059220
C2051	C205	0.538670	0.318570	0.005860
C2061	C206	0.539900	0.358000	0.948600
C2071	C207	0.484030	0.360430	0.943140
C2081	C208	0.597320	0.315420	0.011160
C2091	C209	0.658660	0.355280	0.960240
C2101	C210	0.598840	0.274640	0.067120
C2111	C211	0.726490	0.543560	0.729600
C2121	C212	0.681460	0.542660	0.707880
C2131	C213	0.642590	0.483790	0.732020
C2141	C214	0.647240	0.425540	0.776320
C2151	C215	0.692000	0.425700	0.797800
C2161	C216	0.730900	0.486670	0.774060
C2171	C217	0.944250	0.727950	0.551900
C2181	C218	0.941030	0.759930	0.495540
C2191	C219	0.999150	0.783550	0.440900
C2201	C220	0.859290	0.702790	0.431420
C2211	C221	0.804240	0.655910	0.542720
C2221	C222	0.826460	0.645960	0.490080
C2231	C223	0.823240	0.582240	0.495720
C2241	C224	0.785560	0.525660	0.553680
C2251	C225	0.782290	0.464590	0.559220
C2261	C226	0.818570	0.455470	0.505860
C2271	C227	0.858000	0.511500	0.448600
C2281	C228	0.860430	0.572830	0.443140
C2291	C229	0.815420	0.391520	0.511160
C2301	C230	0.855280	0.381100	0.460240
C2311	C231	0.774640	0.334040	0.567120
C2321	C232	0.043910	0.726840	0.729600
C2331	C233	0.110660	0.749460	0.707880
C2341	C234	0.125390	0.784190	0.732020
C2351	C235	0.076440	0.798140	0.776320
C2361	C236	0.010200	0.776500	0.797800
C2371	C237	0.995040	0.739270	0.774060
C2381	C238	0.003850	0.720150	0.551900
C2391	C239	0.063430	0.744530	0.495540
C2401	C240	0.059950	0.775550	0.440900
C2411	C241	0.209290	0.865790	0.431420
C2421	C242	0.153040	0.801370	0.542720
C2431	C243	0.183460	0.863960	0.490080
C2441	C244	0.181040	0.922040	0.495720
C2451	C245	0.160760	0.920660	0.553680
C2461	C246	0.158490	0.976190	0.559220
C2471	C247	0.175570	0.038670	0.505860
C2481	C248	0.193400	0.039900	0.448600
C2491	C249	0.196430	0.984030	0.443140
C2501	C250	0.173420	0.097320	0.511160
C2511	C251	0.184480	0.158660	0.460240
C2521	C252	0.158240	0.098840	0.567120
C2531	C253	0.956440	0.456090	0.770400
C2541	C254	0.957340	0.389340	0.792120
C2551	C255	0.016210	0.374610	0.767980
C2561	C256	0.074460	0.423560	0.723680
C2571	C257	0.074300	0.489800	0.702200
C2581	C258	0.013330	0.504960	0.725940
C2591	C259	0.772050	0.496150	0.948100
C2601	C260	0.740070	0.436570	0.004460
C2611	C261	0.716450	0.440050	0.059100
C2621	C262	0.797210	0.290710	0.068580
C2631	C263	0.844090	0.346960	0.957280
C2641	C264	0.854040	0.316540	0.009920
C2651	C265	0.917760	0.318960	0.004280
C2661	C266	0.974340	0.339240	0.946320
C2671	C267	0.035410	0.341510	0.940780
C2681	C268	0.044530	0.324430	0.994140
C2691	C269	0.988500	0.306600	0.051400
C2701	C270	0.927170	0.303570	0.056860
C2711	C271	0.108480	0.326580	0.988840
C2721	C272	0.118900	0.315520	0.039760
C2731	C273	0.165960	0.341760	0.932880
C2741	C274	0.773160	0.773510	0.770400
C2751	C275	0.750540	0.818540	0.792120
C2761	C276	0.715810	0.857410	0.767980
C2771	C277	0.701860	0.852760	0.723680
C2781	C278	0.723500	0.808000	0.702200
C2791	C279	0.760730	0.769100	0.725940
C2801	C280	0.779850	0.555750	0.948100
C2811	C281	0.755470	0.558970	0.004460
C2821	C282	0.724450	0.500850	0.059100
C2831	C283	0.634210	0.640710	0.068580
C2841	C284	0.698630	0.695760	0.957280
C2851	C285	0.636040	0.673540	0.009920
C2861	C286	0.577960	0.676760	0.004280
C2871	C287	0.579340	0.714440	0.946320
C2881	C288	0.523810	0.717710	0.940780
C2891	C289	0.461330	0.681430	0.994140
C2901	C290	0.460100	0.642000	0.051400
C2911	C291	0.515970	0.639570	0.056860
C2921	C292	0.402680	0.684580	0.988840
C2931	C293	0.341340	0.644720	0.039760
C2941	C294	0.401160	0.725360	0.932880
C2951	C295	0.273510	0.456440	0.270400
C2961	C296	0.318540	0.457340	0.292120
C2971	C297	0.357410	0.516210	0.267980
C2981	C298	0.352760	0.574460	0.223680
C2991	C299	0.308000	0.574300	0.202200
C3001	C300	0.269100	0.513330	0.225940
C3011	C301	0.055750	0.272050	0.448100
C3021	C302	0.058970	0.240070	0.504460
C3031	C303	0.000850	0.216450	0.559100
C3041	C304	0.140710	0.297210	0.568580
C3051	C305	0.195760	0.344090	0.457280
C3061	C306	0.173540	0.354040	0.509920
C3071	C307	0.176760	0.417760	0.504280
C3081	C308	0.214440	0.474340	0.446320
C3091	C309	0.217710	0.535410	0.440780
C3101	C310	0.181430	0.544530	0.494140
C3111	C311	0.142000	0.488500	0.551400
C3121	C312	0.139570	0.427170	0.556860
C3131	C313	0.184580	0.608480	0.488840
C3141	C314	0.144720	0.618900	0.539760
C3151	C315	0.225360	0.665960	0.432880
C3161	C316	0.956090	0.273160	0.270400
C3171	C317	0.889340	0.250540	0.292120
C3181	C318	0.874610	0.215810	0.267980
C3191	C319	0.923560	0.201860	0.223680
C3201	C320	0.989800	0.223500	0.202200
C3211	C321	0.004960	0.260730	0.225940
C3221	C322	0.996150	0.279850	0.448100
C3231	C323	0.936570	0.255470	0.504460
C3241	C324	0.940050	0.224450	0.559100
C3251	C325	0.790710	0.134210	0.568580
C3261	C326	0.846960	0.198630	0.457280
C3271	C327	0.816540	0.136040	0.509920
C3281	C328	0.818960	0.077960	0.504280
C3291	C329	0.839240	0.079340	0.446320
C3301	C330	0.841510	0.023810	0.440780
C3311	C331	0.824430	0.961330	0.494140
C3321	C332	0.806600	0.960100	0.551400
C3331	C333	0.803570	0.015970	0.556860
C3341	C334	0.826580	0.902680	0.488840
C3351	C335	0.815520	0.841340	0.539760
C3361	C336	0.841760	0.901160	0.432880
N691	N69	0.094290	0.512840	0.215780
N701	N70	0.068770	0.448800	0.250480
N711	N71	0.004110	0.436020	0.286420
N721	N72	0.199830	0.491150	0.112780
N731	N73	0.248230	0.729730	0.883540
N741	N74	0.166550	0.625710	0.083820
N751	N75	0.872230	0.692830	0.919040
N761	N76	0.788310	0.645410	0.113780
N771	N77	0.189930	0.271380	0.215780
N781	N78	0.180750	0.300720	0.250480
N791	N79	0.209470	0.277560	0.286420
N801	N80	0.187390	0.396070	0.112780
N811	N81	0.368230	0.386730	0.883540
N821	N82	0.249630	0.290470	0.083820
N831	N83	0.708730	0.388130	0.919040
N841	N84	0.597910	0.240810	0.113780
N851	N85	0.771380	0.594290	0.715780
N861	N86	0.800720	0.568770	0.750480
N871	N87	0.777560	0.504110	0.786420
N881	N88	0.896070	0.699830	0.612780
N891	N89	0.886730	0.748230	0.383540
N901	N90	0.790470	0.666550	0.583820
N911	N91	0.888130	0.372230	0.419040
N921	N92	0.740810	0.288310	0.613780
N931	N93	0.012840	0.689930	0.715780
N941	N94	0.948800	0.680750	0.750480
N951	N95	0.936020	0.709470	0.786420
N961	N96	0.991150	0.687390	0.612780
N971	N97	0.229730	0.868230	0.383540
N981	N98	0.125710	0.749630	0.583820
N991	N99	0.192830	0.208730	0.419040
N1001	N100	0.145410	0.097910	0.613780
N1011	N101	0.905710	0.487160	0.784220
N1021	N102	0.931230	0.551200	0.749520
N1031	N103	0.995890	0.563980	0.713580
N1041	N104	0.800170	0.508850	0.887220
N1051	N105	0.751770	0.270270	0.116460
N1061	N106	0.833450	0.374290	0.916180
N1071	N107	0.127770	0.307170	0.080960
N1081	N108	0.211690	0.354590	0.886220
N1091	N109	0.810070	0.728620	0.784220
N1101	N110	0.819250	0.699280	0.749520
N1111	N111	0.790530	0.722440	0.713580
N1121	N112	0.812610	0.603930	0.887220
N1131	N113	0.631770	0.613270	0.116460
N1141	N114	0.750370	0.709530	0.916180
N1151	N115	0.291270	0.611870	0.080960
N1161	N116	0.402090	0.759190	0.886220
N1171	N117	0.228620	0.405710	0.284220
N1181	N118	0.199280	0.431230	0.249520
N1191	N119	0.222440	0.495890	0.213580
N1201	N120	0.103930	0.300170	0.387220
N1211	N121	0.113270	0.251770	0.616460
N1221	N122	0.209530	0.333450	0.416180
N1231	N123	0.111870	0.627770	0.580960
N1241	N124	0.259190	0.711690	0.386220
N1251	N125	0.987160	0.310070	0.284220
N1261	N126	0.051200	0.319250	0.249520
N1271	N127	0.063980	0.290530	0.213580
N1281	N128	0.008850	0.312610	0.387220
N1291	N129	0.770270	0.131770	0.616460
N1301	N130	0.874290	0.250370	0.416180
N1311	N131	0.807170	0.791270	0.580960
N1321	N132	0.854590	0.902090	0.386220
N1331	N133	0.176290	0.426290	0.147420
N1341	N134	0.926290	0.676290	0.647420
N1351	N135	0.823710	0.573710	0.852580
N1361	N136	0.073710	0.323710	0.352580
O91	O9	0.187270	0.623850	0.184920
O101	O10	0.127810	0.191230	0.184920
O111	O11	0.691230	0.687270	0.684920
O121	O12	0.123850	0.627810	0.684920
O131	O13	0.812730	0.376150	0.815080
O141	O14	0.872190	0.808770	0.815080
O151	O15	0.308770	0.312730	0.315080
O161	O16	0.876150	0.372190	0.315080
