data_LOJFOF_freeONLY_PM
_symmetry_space_group_name_H-M	'P1'
_cell_length_a	8.790000
_cell_length_b	23.699700
_cell_length_c	25.285300
_cell_angle_alpha	85.415700
_cell_angle_beta	79.990200
_cell_angle_gamma	79.312900
_symmetry_Int_Tables_number 1

loop_
_symmetry_equiv_pos_as_xyz
'x,y,z'

loop_
_atom_site_label
_atom_site_type_symbol
_atom_site_fract_x
_atom_site_fract_y
_atom_site_fract_z
K11	K1	0.687110	0.487550	0.047430
K21	K2	0.722090	0.012450	0.452570
K31	K3	0.312890	0.512450	0.952570
K41	K4	0.277910	0.987550	0.547430
Cu11	Cu1	0.722930	0.509870	0.549690
Cu21	Cu2	0.282490	0.990130	0.950310
Cu31	Cu3	0.277070	0.490130	0.450310
Cu41	Cu4	0.717510	0.009870	0.049690
H11	H1	0.844200	0.398600	0.722400
H21	H2	0.959100	0.331200	0.651400
H31	H3	0.098500	0.357400	0.439200
H41	H4	0.002000	0.428200	0.371400
H51	H5	0.504800	0.599600	0.383400
H61	H6	0.363500	0.661900	0.454300
H71	H7	0.438700	0.682400	0.656200
H81	H8	0.561700	0.617700	0.722700
H91	H9	0.875000	0.560400	0.741800
H101	H10	0.875200	0.559700	0.833300
H111	H11	0.554700	0.455900	0.858700
H121	H12	0.552300	0.457800	0.767800
H131	H13	0.238100	0.334900	0.573700
H141	H14	0.367800	0.241000	0.579200
H151	H15	0.020500	0.187300	0.526100
H161	H16	0.893600	0.281800	0.517800
H171	H17	0.455000	0.113000	0.565000
H181	H18	0.711100	0.435600	0.347400
H191	H19	0.728400	0.437900	0.254300
H201	H20	0.825300	0.597000	0.245400
H211	H21	0.799200	0.595800	0.338200
H221	H22	0.873000	0.540000	0.120000
H231	H23	0.503200	0.738400	0.506400
H241	H24	0.346700	0.826900	0.509700
H251	H25	0.019600	0.761100	0.613900
H261	H26	0.183900	0.671100	0.609100
H271	H27	0.465200	0.101400	0.777600
H281	H28	0.441700	0.168800	0.848600
H291	H29	0.395100	0.142600	0.060800
H301	H30	0.301600	0.071800	0.128600
H311	H31	0.987800	0.900400	0.116600
H321	H32	0.979700	0.838100	0.045700
H331	H33	0.277300	0.817600	0.843800
H341	H34	0.402100	0.882300	0.777300
H351	H35	0.677200	0.939600	0.758200
H361	H36	0.768200	0.940300	0.666700
H371	H37	0.369300	0.044100	0.641300
H381	H38	0.277900	0.042200	0.732200
H391	H39	0.646700	0.165100	0.926300
H401	H40	0.688000	0.259000	0.920800
H411	H41	0.233900	0.312700	0.973900
H421	H42	0.193200	0.218200	0.982200
H431	H43	0.633000	0.387000	0.935000
H441	H44	0.994100	0.064400	0.152600
H451	H45	0.920600	0.062100	0.245700
H461	H46	0.167700	0.903000	0.254600
H471	H47	0.233200	0.904200	0.161800
H481	H48	0.033000	0.960000	0.380000
H491	H49	0.248000	0.761600	0.993600
H501	H50	0.183300	0.673100	0.990300
H511	H51	0.894600	0.738900	0.886100
H521	H52	0.964100	0.828900	0.890900
H531	H53	0.155800	0.601400	0.277600
H541	H54	0.040900	0.668800	0.348600
H551	H55	0.901500	0.642600	0.560800
H561	H56	0.998000	0.571800	0.628600
H571	H57	0.495200	0.400400	0.616600
H581	H58	0.636500	0.338100	0.545700
H591	H59	0.561300	0.317600	0.343800
H601	H60	0.438300	0.382300	0.277300
H611	H61	0.125000	0.439600	0.258200
H621	H62	0.124800	0.440300	0.166700
H631	H63	0.445300	0.544100	0.141300
H641	H64	0.447700	0.542200	0.232200
H651	H65	0.761900	0.665100	0.426300
H661	H66	0.632200	0.759000	0.420800
H671	H67	0.979500	0.812700	0.473900
H681	H68	0.106400	0.718200	0.482200
H691	H69	0.545000	0.887000	0.435000
H701	H70	0.288900	0.564400	0.652600
H711	H71	0.271600	0.562100	0.745700
H721	H72	0.174700	0.403000	0.754600
H731	H73	0.200800	0.404200	0.661800
H741	H74	0.127000	0.460000	0.880000
H751	H75	0.496800	0.261600	0.493600
H761	H76	0.653300	0.173100	0.490300
H771	H77	0.980400	0.238900	0.386100
H781	H78	0.816100	0.328900	0.390900
H791	H79	0.534800	0.898600	0.222400
H801	H80	0.558300	0.831200	0.151400
H811	H81	0.604900	0.857400	0.939200
H821	H82	0.698400	0.928200	0.871400
H831	H83	0.012200	0.099600	0.883400
H841	H84	0.020300	0.161900	0.954300
H851	H85	0.722700	0.182400	0.156200
H861	H86	0.597900	0.117700	0.222700
H871	H87	0.322800	0.060400	0.241800
H881	H88	0.231800	0.059700	0.333300
H891	H89	0.630700	0.955900	0.358700
H901	H90	0.722100	0.957800	0.267800
H911	H91	0.353300	0.834900	0.073700
H921	H92	0.312000	0.741000	0.079200
H931	H93	0.766100	0.687300	0.026100
H941	H94	0.806800	0.781800	0.017800
H951	H95	0.367000	0.613000	0.065000
H961	H96	0.005900	0.935600	0.847400
H971	H97	0.079400	0.937900	0.754300
H981	H98	0.832300	0.097000	0.745400
H991	H99	0.766800	0.095800	0.838200
H1001	H100	0.967000	0.040000	0.620000
H1011	H101	0.752000	0.238400	0.006400
H1021	H102	0.816700	0.326900	0.009700
H1031	H103	0.105400	0.261100	0.113900
H1041	H104	0.035900	0.171100	0.109100
C11	C1	0.642600	0.558300	0.659500
C21	C2	0.714300	0.509100	0.685700
C31	C3	0.782600	0.459100	0.659300
C41	C4	0.846800	0.406000	0.685600
C51	C5	0.911300	0.369300	0.646500
C61	C6	0.893100	0.399400	0.595600
C71	C7	0.958100	0.378300	0.546700
C81	C8	0.940400	0.408400	0.497800
C91	C9	0.022200	0.389900	0.445700
C101	C10	0.968100	0.428300	0.408300
C111	C11	0.847000	0.470000	0.436800
C121	C12	0.746700	0.513300	0.412500
C131	C13	0.635600	0.554300	0.441300
C141	C14	0.521700	0.596700	0.418900
C151	C15	0.444500	0.631100	0.457700
C161	C16	0.510200	0.611800	0.505800
C171	C17	0.470800	0.638300	0.554100
C181	C18	0.530300	0.616700	0.600300
C191	C19	0.496700	0.645800	0.650600
C201	C20	0.564100	0.610500	0.686900
C211	C21	0.713300	0.509000	0.744400
C221	C22	0.810200	0.539400	0.765200
C231	C23	0.811400	0.538700	0.820300
C241	C24	0.718100	0.507100	0.855100
C251	C25	0.619400	0.476900	0.835100
C261	C26	0.618200	0.478100	0.780500
C271	C27	0.721500	0.504900	0.914500
C281	C28	0.052400	0.318000	0.546000
C291	C29	0.193800	0.305400	0.563800
C301	C30	0.271600	0.249100	0.567100
C311	C31	0.207400	0.205100	0.552700
C321	C32	0.065400	0.217100	0.535100
C331	C33	0.988400	0.273600	0.530800
C341	C34	0.287000	0.143900	0.556300
C351	C35	0.756100	0.514800	0.352800
C361	C36	0.734000	0.468200	0.327000
C371	C37	0.745100	0.469300	0.270900
C381	C38	0.781200	0.517500	0.240900
C391	C39	0.801700	0.564500	0.265900
C401	C40	0.787500	0.563500	0.321700
C411	C41	0.794200	0.516300	0.180900
C421	C42	0.362300	0.695200	0.556800
C431	C43	0.405500	0.742400	0.528200
C441	C44	0.312400	0.795800	0.529800
C451	C45	0.167200	0.802600	0.562000
C461	C46	0.117100	0.756800	0.592000
C471	C47	0.217000	0.702400	0.589000
C481	C48	0.066100	0.860500	0.562300
C491	C49	0.360400	0.941700	0.840500
C501	C50	0.409100	0.990900	0.814300
C511	C51	0.401000	0.040900	0.840700
C521	C52	0.438400	0.094000	0.814400
C531	C53	0.427100	0.130700	0.853500
C541	C54	0.388100	0.100600	0.904400
C551	C55	0.383100	0.121700	0.953300
C561	C56	0.346600	0.091600	0.002200
C571	C57	0.357800	0.110100	0.054300
C581	C58	0.304700	0.071700	0.091700
C591	C59	0.253800	0.030000	0.063200
C601	C60	0.172500	0.986700	0.087500
C611	C61	0.131200	0.945700	0.058700
C621	C62	0.037300	0.903300	0.081100
C631	C63	0.033300	0.868900	0.042300
C641	C64	0.127800	0.888200	0.994200
C651	C65	0.163200	0.861700	0.945900
C661	C66	0.247300	0.883300	0.899700
C671	C67	0.293100	0.854200	0.849400
C681	C68	0.361500	0.889500	0.813100
C691	C69	0.466700	0.991000	0.755600
C701	C70	0.614800	0.960600	0.734800
C711	C71	0.670400	0.961300	0.679700
C721	C72	0.580300	0.992900	0.644900
C731	C73	0.431400	0.023100	0.664900
C741	C74	0.376800	0.021900	0.719500
C751	C75	0.640900	0.995100	0.585500
C761	C76	0.416400	0.182000	0.954000
C771	C77	0.563000	0.194600	0.936200
C781	C78	0.587800	0.250900	0.932900
C791	C79	0.465200	0.294900	0.947300
C801	C80	0.317600	0.282900	0.964900
C811	C81	0.292800	0.226400	0.969200
C821	C82	0.487200	0.356100	0.943700
C831	C83	0.123700	0.985200	0.147200
C841	C84	0.029200	0.031800	0.173000
C851	C85	0.985300	0.030700	0.229100
C861	C86	0.039600	0.982500	0.259100
C871	C87	0.132100	0.935500	0.234100
C881	C88	0.172700	0.936500	0.178300
C891	C89	0.991400	0.983700	0.319100
C901	C90	0.114300	0.804800	0.943200
C911	C91	0.176100	0.757600	0.971800
C921	C92	0.138000	0.704200	0.970200
C931	C93	0.031800	0.697400	0.938000
C941	C94	0.965900	0.743200	0.908000
C951	C95	0.008400	0.797600	0.911000
C961	C96	0.988900	0.639500	0.937700
C971	C97	0.357400	0.441700	0.340500
C981	C98	0.285700	0.490900	0.314300
C991	C99	0.217400	0.540900	0.340700
C1001	C100	0.153200	0.594000	0.314400
C1011	C101	0.088700	0.630700	0.353500
C1021	C102	0.106900	0.600600	0.404400
C1031	C103	0.041900	0.621700	0.453300
C1041	C104	0.059600	0.591600	0.502200
C1051	C105	0.977800	0.610100	0.554300
C1061	C106	0.031900	0.571700	0.591700
C1071	C107	0.153000	0.530000	0.563200
C1081	C108	0.253300	0.486700	0.587500
C1091	C109	0.364400	0.445700	0.558700
C1101	C110	0.478300	0.403300	0.581100
C1111	C111	0.555500	0.368900	0.542300
C1121	C112	0.489800	0.388200	0.494200
C1131	C113	0.529200	0.361700	0.445900
C1141	C114	0.469700	0.383300	0.399700
C1151	C115	0.503300	0.354200	0.349400
C1161	C116	0.435900	0.389500	0.313100
C1171	C117	0.286700	0.491000	0.255600
C1181	C118	0.189800	0.460600	0.234800
C1191	C119	0.188600	0.461300	0.179700
C1201	C120	0.281900	0.492900	0.144900
C1211	C121	0.380600	0.523100	0.164900
C1221	C122	0.381800	0.521900	0.219500
C1231	C123	0.278500	0.495100	0.085500
C1241	C124	0.947600	0.682000	0.454000
C1251	C125	0.806200	0.694600	0.436200
C1261	C126	0.728400	0.750900	0.432900
C1271	C127	0.792600	0.794900	0.447300
C1281	C128	0.934600	0.782900	0.464900
C1291	C129	0.011600	0.726400	0.469200
C1301	C130	0.713000	0.856100	0.443700
C1311	C131	0.243900	0.485200	0.647200
C1321	C132	0.266000	0.531800	0.673000
C1331	C133	0.254900	0.530700	0.729100
C1341	C134	0.218800	0.482500	0.759100
C1351	C135	0.198300	0.435500	0.734100
C1361	C136	0.212500	0.436500	0.678300
C1371	C137	0.205800	0.483700	0.819100
C1381	C138	0.637700	0.304800	0.443200
C1391	C139	0.594500	0.257600	0.471800
C1401	C140	0.687600	0.204200	0.470200
C1411	C141	0.832800	0.197400	0.438000
C1421	C142	0.882900	0.243200	0.408000
C1431	C143	0.783000	0.297600	0.411000
C1441	C144	0.933900	0.139500	0.437700
C1451	C145	0.639600	0.058300	0.159500
C1461	C146	0.590900	0.009100	0.185700
C1471	C147	0.599000	0.959100	0.159300
C1481	C148	0.561600	0.906000	0.185600
C1491	C149	0.572900	0.869300	0.146500
C1501	C150	0.611900	0.899400	0.095600
C1511	C151	0.616900	0.878300	0.046700
C1521	C152	0.653400	0.908400	0.997800
C1531	C153	0.642200	0.889900	0.945700
C1541	C154	0.695300	0.928300	0.908300
C1551	C155	0.746200	0.970000	0.936800
C1561	C156	0.827500	0.013300	0.912500
C1571	C157	0.868800	0.054300	0.941300
C1581	C158	0.962700	0.096700	0.918900
C1591	C159	0.966700	0.131100	0.957700
C1601	C160	0.872200	0.111800	0.005800
C1611	C161	0.836800	0.138300	0.054100
C1621	C162	0.752700	0.116700	0.100300
C1631	C163	0.706900	0.145800	0.150600
C1641	C164	0.638500	0.110500	0.186900
C1651	C165	0.533300	0.009000	0.244400
C1661	C166	0.385200	0.039400	0.265200
C1671	C167	0.329600	0.038700	0.320300
C1681	C168	0.419700	0.007100	0.355100
C1691	C169	0.568600	0.976900	0.335100
C1701	C170	0.623200	0.978100	0.280500
C1711	C171	0.359100	0.004900	0.414500
C1721	C172	0.583600	0.818000	0.046000
C1731	C173	0.437000	0.805400	0.063800
C1741	C174	0.412200	0.749100	0.067100
C1751	C175	0.534800	0.705100	0.052700
C1761	C176	0.682400	0.717100	0.035100
C1771	C177	0.707200	0.773600	0.030800
C1781	C178	0.512800	0.643900	0.056300
C1791	C179	0.876300	0.014800	0.852800
C1801	C180	0.970800	0.968200	0.827000
C1811	C181	0.014700	0.969300	0.770900
C1821	C182	0.960400	0.017500	0.740900
C1831	C183	0.867900	0.064500	0.765900
C1841	C184	0.827300	0.063500	0.821700
C1851	C185	0.008600	0.016300	0.680900
C1861	C186	0.885700	0.195200	0.056800
C1871	C187	0.823900	0.242400	0.028200
C1881	C188	0.862000	0.295800	0.029800
C1891	C189	0.968200	0.302600	0.062000
C1901	C190	0.034100	0.256800	0.092000
C1911	C191	0.991600	0.202400	0.089000
C1921	C192	0.011100	0.360500	0.062300
N11	N1	0.808550	0.453850	0.604050
N21	N2	0.837590	0.459210	0.491410
N31	N3	0.622360	0.562740	0.495740
N41	N4	0.623830	0.563770	0.606770
N51	N5	0.366450	0.046150	0.895950
N61	N6	0.288210	0.040790	0.008590
N71	N7	0.180840	0.937260	0.004260
N81	N8	0.294370	0.936230	0.893230
N91	N9	0.191450	0.546150	0.395950
N101	N10	0.162410	0.540790	0.508590
N111	N11	0.377640	0.437260	0.504260
N121	N12	0.376170	0.436230	0.393230
N131	N13	0.633550	0.953850	0.104050
N141	N14	0.711790	0.959210	0.991410
N151	N15	0.819160	0.062740	0.995740
N161	N16	0.705630	0.063770	0.106770
O11	O1	0.797420	0.536760	0.932000
O21	O2	0.643930	0.471420	0.944720
O31	O3	0.220600	0.103800	0.553400
O41	O4	0.432100	0.137300	0.563500
O51	O5	0.772500	0.477400	0.158200
O61	O6	0.838500	0.562600	0.155600
O71	O7	0.111990	0.901230	0.536390
O81	O8	0.925410	0.863440	0.589940
O91	O9	0.932900	0.536500	0.054900
O101	O10	0.536700	0.391100	0.069500
O111	O11	0.766180	0.963240	0.568000
O121	O12	0.560070	0.028580	0.555280
O131	O13	0.377800	0.396200	0.946600
O141	O14	0.632900	0.362700	0.936500
O151	O15	0.908100	0.022600	0.341800
O161	O16	0.056700	0.937400	0.344400
O171	O17	0.049610	0.598770	0.963610
O181	O18	0.878790	0.636560	0.910060
O191	O19	0.024300	0.963500	0.445100
O201	O20	0.497300	0.108900	0.430500
O211	O21	0.202580	0.463240	0.068000
O221	O22	0.356070	0.528580	0.055280
O231	O23	0.779400	0.896200	0.446600
O241	O24	0.567900	0.862700	0.436500
O251	O25	0.227500	0.522600	0.841800
O261	O26	0.161500	0.437400	0.844400
O271	O27	0.888010	0.098770	0.463610
O281	O28	0.074590	0.136560	0.410060
O291	O29	0.067100	0.463500	0.945100
O301	O30	0.463300	0.608900	0.930500
O311	O31	0.233820	0.036760	0.432000
O321	O32	0.439930	0.971420	0.444720
O331	O33	0.622200	0.603800	0.053400
O341	O34	0.367100	0.637300	0.063500
O351	O35	0.091900	0.977400	0.658200
O361	O36	0.943300	0.062600	0.655600
O371	O37	0.950390	0.401230	0.036390
O381	O38	0.121210	0.363440	0.089940
O391	O39	0.975700	0.036500	0.554900
O401	O40	0.502700	0.891100	0.569500
