data_LOJNAA_freeONLY_PM
_symmetry_space_group_name_H-M	'P1'
_cell_length_a	18.577000
_cell_length_b	20.125000
_cell_length_c	20.895000
_cell_angle_alpha	90.000000
_cell_angle_beta	90.000000
_cell_angle_gamma	90.000000
_symmetry_Int_Tables_number 1

loop_
_symmetry_equiv_pos_as_xyz
'x,y,z'

loop_
_atom_site_label
_atom_site_type_symbol
_atom_site_fract_x
_atom_site_fract_y
_atom_site_fract_z
Ni11	Ni1	0.450310	0.357970	0.187080
Ni21	Ni2	0.280360	0.991850	0.012870
Ni31	Ni3	0.049690	0.642030	0.687080
Ni41	Ni4	0.219640	0.008150	0.512870
Ni51	Ni5	0.549690	0.857970	0.312920
Ni61	Ni6	0.719640	0.491850	0.487130
Ni71	Ni7	0.950310	0.142030	0.812920
Ni81	Ni8	0.780360	0.508150	0.987130
Mo11	Mo1	0.331760	0.205930	0.178920
Mo21	Mo2	0.313070	0.209530	0.341370
Mo31	Mo3	0.365170	0.062160	0.401370
Mo41	Mo4	0.392500	0.953980	0.275910
Mo51	Mo5	0.408960	0.058610	0.137400
Mo61	Mo6	0.168240	0.794070	0.678920
Mo71	Mo7	0.186930	0.790470	0.841370
Mo81	Mo8	0.134830	0.937840	0.901370
Mo91	Mo9	0.107500	0.046020	0.775910
Mo101	Mo10	0.091040	0.941390	0.637400
Mo111	Mo11	0.668240	0.705930	0.321080
Mo121	Mo12	0.686930	0.709530	0.158630
Mo131	Mo13	0.634830	0.562160	0.098630
Mo141	Mo14	0.607500	0.453980	0.224090
Mo151	Mo15	0.591040	0.558610	0.362600
Mo161	Mo16	0.831760	0.294070	0.821080
Mo171	Mo17	0.813070	0.290470	0.658630
Mo181	Mo18	0.865170	0.437840	0.598630
Mo191	Mo19	0.892500	0.546020	0.724090
Mo201	Mo20	0.908960	0.441390	0.862600
P11	P1	0.268640	0.068700	0.255610
P21	P2	0.460390	0.122700	0.276530
P31	P3	0.231360	0.931300	0.755610
P41	P4	0.039610	0.877300	0.776530
P51	P5	0.731360	0.568700	0.244390
P61	P6	0.539610	0.622700	0.223470
P71	P7	0.768640	0.431300	0.744390
P81	P8	0.960390	0.377300	0.723470
H11	H1	0.314700	0.364200	0.093800
H21	H2	0.479200	0.474800	0.082100
H31	H3	0.384800	0.520700	0.943400
H41	H4	0.445000	0.550500	0.987700
H51	H5	0.287800	0.591300	0.929300
H61	H6	0.211700	0.671300	0.963700
H71	H7	0.316400	0.679800	0.132500
H81	H8	0.390900	0.596700	0.092800
H91	H9	0.182900	0.720500	0.116000
H101	H10	0.162300	0.736700	0.045000
H111	H11	0.291900	0.916400	0.153200
H121	H12	0.238200	0.839300	0.994600
H131	H13	0.502100	0.210900	0.142900
H141	H14	0.596400	0.373700	0.098000
H151	H15	0.659000	0.156800	0.066900
H161	H16	0.582800	0.128800	0.085100
H171	H17	0.686200	0.187400	0.956100
H181	H18	0.665500	0.164500	0.850000
H191	H19	0.461100	0.116400	0.892700
H201	H20	0.488300	0.121600	0.000600
H211	H21	0.587800	0.102800	0.774700
H221	H22	0.545800	0.170200	0.771000
H231	H23	0.327800	0.091100	0.746100
H241	H24	0.493700	0.993400	0.788700
H251	H25	0.953400	0.525600	0.983900
H261	H26	0.826800	0.590200	0.117100
H271	H27	0.070100	0.589300	0.017200
H281	H28	0.051700	0.653500	0.055700
H291	H29	0.139600	0.504800	0.066400
H301	H30	0.228700	0.490800	0.140500
H311	H31	0.145800	0.631700	0.245900
H321	H32	0.056300	0.645500	0.174000
H331	H33	0.293500	0.591800	0.232400
H341	H34	0.239900	0.569800	0.285700
H351	H35	0.408000	0.505700	0.233200
H361	H36	0.289100	0.350100	0.250400
H371	H37	0.262800	0.061500	0.873100
H381	H38	0.323500	0.150100	0.025200
H391	H39	0.273300	0.278300	0.920300
H401	H40	0.304800	0.270000	0.989400
H411	H41	0.431200	0.286700	0.005500
H421	H42	0.537000	0.335400	0.970800
H431	H43	0.472300	0.306200	0.792100
H441	H44	0.367700	0.261700	0.827000
H451	H45	0.583400	0.360900	0.806900
H461	H46	0.621600	0.313400	0.855500
H471	H47	0.712300	0.375300	0.917300
H481	H48	0.619700	0.549000	0.930500
H491	H49	0.371300	0.984400	0.765000
H501	H50	0.185300	0.635800	0.593800
H511	H51	0.020800	0.525200	0.582100
H521	H52	0.115200	0.479300	0.443400
H531	H53	0.055000	0.449500	0.487700
H541	H54	0.212200	0.408700	0.429300
H551	H55	0.288300	0.328700	0.463700
H561	H56	0.183600	0.320200	0.632500
H571	H57	0.109100	0.403300	0.592800
H581	H58	0.317100	0.279500	0.616000
H591	H59	0.337700	0.263300	0.545000
H601	H60	0.208100	0.083600	0.653200
H611	H61	0.261800	0.160700	0.494600
H621	H62	0.997900	0.789100	0.642900
H631	H63	0.903600	0.626300	0.598000
H641	H64	0.841000	0.843200	0.566900
H651	H65	0.917200	0.871200	0.585100
H661	H66	0.813800	0.812600	0.456100
H671	H67	0.834500	0.835500	0.350000
H681	H68	0.038900	0.883600	0.392700
H691	H69	0.011700	0.878400	0.500600
H701	H70	0.912200	0.897200	0.274700
H711	H71	0.954200	0.829800	0.271000
H721	H72	0.172200	0.908900	0.246100
H731	H73	0.006300	0.006600	0.288700
H741	H74	0.546600	0.474400	0.483900
H751	H75	0.673200	0.409800	0.617100
H761	H76	0.429900	0.410700	0.517200
H771	H77	0.448300	0.346500	0.555700
H781	H78	0.360400	0.495200	0.566400
H791	H79	0.271300	0.509200	0.640500
H801	H80	0.354200	0.368300	0.745900
H811	H81	0.443700	0.354500	0.674000
H821	H82	0.206500	0.408200	0.732400
H831	H83	0.260100	0.430200	0.785700
H841	H84	0.092000	0.494300	0.733200
H851	H85	0.210900	0.649900	0.750400
H861	H86	0.237200	0.938500	0.373100
H871	H87	0.176500	0.849900	0.525200
H881	H88	0.226700	0.721700	0.420300
H891	H89	0.195200	0.730000	0.489400
H901	H90	0.068800	0.713300	0.505500
H911	H91	0.963000	0.664600	0.470800
H921	H92	0.027700	0.693800	0.292100
H931	H93	0.132300	0.738300	0.327000
H941	H94	0.916600	0.639100	0.306900
H951	H95	0.878400	0.686600	0.355500
H961	H96	0.787700	0.624700	0.417300
H971	H97	0.880300	0.451000	0.430500
H981	H98	0.128700	0.015600	0.265000
H991	H99	0.685300	0.864200	0.406200
H1001	H100	0.520800	0.974800	0.417900
H1011	H101	0.615200	0.020700	0.556600
H1021	H102	0.555000	0.050500	0.512300
H1031	H103	0.712200	0.091300	0.570700
H1041	H104	0.788300	0.171300	0.536300
H1051	H105	0.683600	0.179800	0.367500
H1061	H106	0.609100	0.096700	0.407200
H1071	H107	0.817100	0.220500	0.384000
H1081	H108	0.837700	0.236700	0.455000
H1091	H109	0.708100	0.416400	0.346800
H1101	H110	0.761800	0.339300	0.505400
H1111	H111	0.497900	0.710900	0.357100
H1121	H112	0.403600	0.873700	0.402000
H1131	H113	0.341000	0.656800	0.433100
H1141	H114	0.417200	0.628800	0.414900
H1151	H115	0.313800	0.687400	0.543900
H1161	H116	0.334500	0.664500	0.650000
H1171	H117	0.538900	0.616400	0.607300
H1181	H118	0.511700	0.621600	0.499400
H1191	H119	0.412200	0.602800	0.725300
H1201	H120	0.454200	0.670200	0.729000
H1211	H121	0.672200	0.591100	0.753900
H1221	H122	0.506300	0.493400	0.711300
H1231	H123	0.046600	0.025600	0.516100
H1241	H124	0.173200	0.090200	0.382900
H1251	H125	0.929900	0.089300	0.482800
H1261	H126	0.948300	0.153500	0.444300
H1271	H127	0.860400	0.004800	0.433600
H1281	H128	0.771300	0.990800	0.359500
H1291	H129	0.854200	0.131700	0.254100
H1301	H130	0.943700	0.145500	0.326000
H1311	H131	0.706500	0.091800	0.267600
H1321	H132	0.760100	0.069800	0.214300
H1331	H133	0.592000	0.005700	0.266800
H1341	H134	0.710900	0.850100	0.249600
H1351	H135	0.737200	0.561500	0.626900
H1361	H136	0.676500	0.650100	0.474800
H1371	H137	0.726700	0.778300	0.579700
H1381	H138	0.695200	0.770000	0.510600
H1391	H139	0.568800	0.786700	0.494500
H1401	H140	0.463000	0.835400	0.529200
H1411	H141	0.527700	0.806200	0.707900
H1421	H142	0.632300	0.761700	0.673000
H1431	H143	0.416600	0.860900	0.693100
H1441	H144	0.378400	0.813400	0.644500
H1451	H145	0.287700	0.875300	0.582700
H1461	H146	0.380300	0.049000	0.569500
H1471	H147	0.628700	0.484400	0.735000
H1481	H148	0.814700	0.135800	0.906200
H1491	H149	0.979200	0.025200	0.917900
H1501	H150	0.884800	0.979300	0.056600
H1511	H151	0.945000	0.949500	0.012300
H1521	H152	0.787800	0.908700	0.070700
H1531	H153	0.711700	0.828700	0.036300
H1541	H154	0.816400	0.820200	0.867500
H1551	H155	0.890900	0.903300	0.907200
H1561	H156	0.682900	0.779500	0.884000
H1571	H157	0.662300	0.763300	0.955000
H1581	H158	0.791900	0.583600	0.846800
H1591	H159	0.738200	0.660700	0.005400
H1601	H160	0.002100	0.289100	0.857100
H1611	H161	0.096400	0.126300	0.902000
H1621	H162	0.159000	0.343200	0.933100
H1631	H163	0.082800	0.371200	0.914900
H1641	H164	0.186200	0.312600	0.043900
H1651	H165	0.165500	0.335500	0.150000
H1661	H166	0.961100	0.383600	0.107300
H1671	H167	0.988300	0.378400	0.999400
H1681	H168	0.087800	0.397200	0.225300
H1691	H169	0.045800	0.329800	0.229000
H1701	H170	0.827800	0.408900	0.253900
H1711	H171	0.993700	0.506600	0.211300
H1721	H172	0.453400	0.974400	0.016100
H1731	H173	0.326800	0.909800	0.882900
H1741	H174	0.570100	0.910700	0.982800
H1751	H175	0.551700	0.846500	0.944300
H1761	H176	0.639600	0.995200	0.933600
H1771	H177	0.728700	0.009200	0.859500
H1781	H178	0.645800	0.868300	0.754100
H1791	H179	0.556300	0.854500	0.826000
H1801	H180	0.793500	0.908200	0.767600
H1811	H181	0.739900	0.930200	0.714300
H1821	H182	0.908000	0.994300	0.766800
H1831	H183	0.789100	0.149900	0.749600
H1841	H184	0.762800	0.438500	0.126900
H1851	H185	0.823500	0.349900	0.974800
H1861	H186	0.773300	0.221700	0.079700
H1871	H187	0.804800	0.230000	0.010600
H1881	H188	0.931200	0.213300	0.994500
H1891	H189	0.037000	0.164600	0.029200
H1901	H190	0.972300	0.193800	0.207900
H1911	H191	0.867700	0.238300	0.173000
H1921	H192	0.083400	0.139100	0.193100
H1931	H193	0.121600	0.186600	0.144500
H1941	H194	0.212300	0.124700	0.082700
H1951	H195	0.119700	0.951000	0.069500
H1961	H196	0.871300	0.515600	0.235000
C11	C1	0.347200	0.395800	0.079100
C21	C2	0.435400	0.454300	0.073400
C31	C3	0.396300	0.533100	0.987100
C41	C4	0.345100	0.585500	0.009400
C51	C5	0.292900	0.608700	0.970300
C61	C6	0.248400	0.656400	0.990400
C71	C7	0.256700	0.684400	0.051800
C81	C8	0.309800	0.662400	0.091700
C91	C9	0.353600	0.612400	0.067300
C101	C10	0.202000	0.735300	0.075200
C111	C11	0.272300	0.887500	0.123100
C121	C12	0.244700	0.847700	0.038000
C131	C13	0.532600	0.242300	0.124700
C141	C14	0.584300	0.328900	0.099500
C151	C15	0.607700	0.162900	0.060800
C161	C16	0.590100	0.155700	0.991900
C171	C17	0.642000	0.169900	0.943900
C181	C18	0.629300	0.158600	0.880200
C191	C19	0.559100	0.137500	0.861400
C201	C20	0.507500	0.127300	0.905700
C211	C21	0.523200	0.133100	0.970700
C221	C22	0.547400	0.127300	0.792200
C231	C23	0.375700	0.081800	0.755300
C241	C24	0.462200	0.028000	0.779500
C251	C25	0.935100	0.547900	0.019400
C261	C26	0.868000	0.583300	0.092600
C271	C27	0.050100	0.605400	0.057200
C281	C28	0.097900	0.583300	0.109400
C291	C29	0.143300	0.533000	0.101500
C301	C30	0.194600	0.524300	0.145900
C311	C31	0.197300	0.562400	0.196800
C321	C32	0.145500	0.607300	0.208100
C331	C33	0.094200	0.616600	0.165600
C341	C34	0.259000	0.557800	0.244000
C351	C35	0.369300	0.476900	0.238600
C361	C36	0.303300	0.394400	0.250400
C371	C37	0.276100	0.094600	0.901700
C381	C38	0.308200	0.141300	0.983700
C391	C39	0.310900	0.256800	0.945000
C401	C40	0.384100	0.282300	0.921500
C411	C41	0.437600	0.295400	0.962200
C421	C42	0.502800	0.321700	0.941200
C431	C43	0.517000	0.327800	0.875800
C441	C44	0.463800	0.304700	0.836000
C451	C45	0.400200	0.279900	0.856000
C461	C46	0.587700	0.349900	0.851900
C471	C47	0.679800	0.410300	0.914100
C481	C48	0.629000	0.504800	0.920500
C491	C49	0.152800	0.604200	0.579100
C501	C50	0.064600	0.545700	0.573400
C511	C51	0.103700	0.466900	0.487100
C521	C52	0.154900	0.414500	0.509400
C531	C53	0.207100	0.391300	0.470300
C541	C54	0.251600	0.343600	0.490400
C551	C55	0.243300	0.315600	0.551800
C561	C56	0.190200	0.337600	0.591700
C571	C57	0.146400	0.387600	0.567300
C581	C58	0.298000	0.264700	0.575200
C591	C59	0.227700	0.112500	0.623100
C601	C60	0.255300	0.152300	0.538000
C611	C61	0.967400	0.757700	0.624700
C621	C62	0.915700	0.671100	0.599500
C631	C63	0.892300	0.837100	0.560800
C641	C64	0.909900	0.844300	0.491900
C651	C65	0.858000	0.830100	0.443900
C661	C66	0.870700	0.841400	0.380200
C671	C67	0.940900	0.862500	0.361400
C681	C68	0.992500	0.872700	0.405700
C691	C69	0.976800	0.866900	0.470700
C701	C70	0.952600	0.872700	0.292200
C711	C71	0.124300	0.918200	0.255300
C721	C72	0.037800	0.972000	0.279500
C731	C73	0.564900	0.452100	0.519400
C741	C74	0.632000	0.416700	0.592600
C751	C75	0.449900	0.394600	0.557200
C761	C76	0.402100	0.416700	0.609400
C771	C77	0.356700	0.467000	0.601500
C781	C78	0.305400	0.475700	0.645900
C791	C79	0.302700	0.437600	0.696800
C801	C80	0.354500	0.392700	0.708100
C811	C81	0.405800	0.383400	0.665600
C821	C82	0.241000	0.442200	0.744000
C831	C83	0.130700	0.523100	0.738600
C841	C84	0.196700	0.605600	0.750400
C851	C85	0.223900	0.905400	0.401700
C861	C86	0.191800	0.858700	0.483700
C871	C87	0.189100	0.743200	0.445000
C881	C88	0.115900	0.717700	0.421500
C891	C89	0.062400	0.704600	0.462200
C901	C90	0.997200	0.678300	0.441200
C911	C91	0.983000	0.672200	0.375800
C921	C92	0.036200	0.695300	0.336000
C931	C93	0.099800	0.720100	0.356000
C941	C94	0.912300	0.650100	0.351900
C951	C95	0.820200	0.589700	0.414100
C961	C96	0.871000	0.495200	0.420500
C971	C97	0.652800	0.895800	0.420900
C981	C98	0.564600	0.954300	0.426600
C991	C99	0.603700	0.033100	0.512900
C1001	C100	0.654900	0.085500	0.490600
C1011	C101	0.707100	0.108700	0.529700
C1021	C102	0.751600	0.156400	0.509600
C1031	C103	0.743300	0.184400	0.448200
C1041	C104	0.690200	0.162400	0.408300
C1051	C105	0.646400	0.112400	0.432700
C1061	C106	0.798000	0.235300	0.424800
C1071	C107	0.727700	0.387500	0.376900
C1081	C108	0.755300	0.347700	0.462000
C1091	C109	0.467400	0.742300	0.375300
C1101	C110	0.415700	0.828900	0.400500
C1111	C111	0.392300	0.662900	0.439200
C1121	C112	0.409900	0.655700	0.508100
C1131	C113	0.358000	0.669900	0.556100
C1141	C114	0.370700	0.658600	0.619800
C1151	C115	0.440900	0.637500	0.638600
C1161	C116	0.492500	0.627300	0.594300
C1171	C117	0.476800	0.633100	0.529300
C1181	C118	0.452600	0.627300	0.707800
C1191	C119	0.624300	0.581800	0.744700
C1201	C120	0.537800	0.528000	0.720500
C1211	C121	0.064900	0.047900	0.480600
C1221	C122	0.132000	0.083300	0.407400
C1231	C123	0.949900	0.105400	0.442800
C1241	C124	0.902100	0.083300	0.390600
C1251	C125	0.856700	0.033000	0.398500
C1261	C126	0.805400	0.024300	0.354100
C1271	C127	0.802700	0.062400	0.303200
C1281	C128	0.854500	0.107300	0.291900
C1291	C129	0.905800	0.116600	0.334400
C1301	C130	0.741000	0.057800	0.256000
C1311	C131	0.630700	0.976900	0.261400
C1321	C132	0.696700	0.894400	0.249600
C1331	C133	0.723900	0.594600	0.598300
C1341	C134	0.691800	0.641300	0.516300
C1351	C135	0.689100	0.756800	0.555000
C1361	C136	0.615900	0.782300	0.578500
C1371	C137	0.562400	0.795400	0.537800
C1381	C138	0.497200	0.821700	0.558800
C1391	C139	0.483000	0.827800	0.624200
C1401	C140	0.536200	0.804700	0.664000
C1411	C141	0.599800	0.779900	0.644000
C1421	C142	0.412300	0.849900	0.648100
C1431	C143	0.320200	0.910300	0.585900
C1441	C144	0.371000	0.004800	0.579500
C1451	C145	0.847200	0.104200	0.920900
C1461	C146	0.935400	0.045700	0.926600
C1471	C147	0.896300	0.966900	0.012900
C1481	C148	0.845100	0.914500	0.990600
C1491	C149	0.792900	0.891300	0.029700
C1501	C150	0.748400	0.843600	0.009600
C1511	C151	0.756700	0.815600	0.948200
C1521	C152	0.809800	0.837600	0.908300
C1531	C153	0.853600	0.887600	0.932700
C1541	C154	0.702000	0.764700	0.924800
C1551	C155	0.772300	0.612500	0.876900
C1561	C156	0.744700	0.652300	0.962000
C1571	C157	0.032600	0.257700	0.875300
C1581	C158	0.084300	0.171100	0.900500
C1591	C159	0.107700	0.337100	0.939200
C1601	C160	0.090100	0.344300	0.008100
C1611	C161	0.142000	0.330100	0.056100
C1621	C162	0.129300	0.341400	0.119800
C1631	C163	0.059100	0.362500	0.138600
C1641	C164	0.007500	0.372700	0.094300
C1651	C165	0.023200	0.366900	0.029300
C1661	C166	0.047400	0.372700	0.207800
C1671	C167	0.875700	0.418200	0.244700
C1681	C168	0.962200	0.472000	0.220500
C1691	C169	0.435100	0.952100	0.980600
C1701	C170	0.368000	0.916700	0.907400
C1711	C171	0.550100	0.894600	0.942800
C1721	C172	0.597900	0.916700	0.890600
C1731	C173	0.643300	0.967000	0.898500
C1741	C174	0.694600	0.975700	0.854100
C1751	C175	0.697300	0.937600	0.803200
C1761	C176	0.645500	0.892700	0.791900
C1771	C177	0.594200	0.883400	0.834400
C1781	C178	0.759000	0.942200	0.756000
C1791	C179	0.869300	0.023100	0.761400
C1801	C180	0.803300	0.105600	0.749600
C1811	C181	0.776100	0.405400	0.098300
C1821	C182	0.808200	0.358700	0.016300
C1831	C183	0.810900	0.243200	0.055000
C1841	C184	0.884100	0.217700	0.078500
C1851	C185	0.937600	0.204600	0.037800
C1861	C186	0.002800	0.178300	0.058800
C1871	C187	0.017000	0.172200	0.124200
C1881	C188	0.963800	0.195300	0.164000
C1891	C189	0.900200	0.220100	0.144000
C1901	C190	0.087700	0.150100	0.148100
C1911	C191	0.179800	0.089700	0.085900
C1921	C192	0.129000	0.995200	0.079500
N11	N1	0.411000	0.402300	0.104600
N21	N2	0.331100	0.435900	0.032000
N31	N3	0.391800	0.473300	0.029200
N41	N4	0.268400	0.904600	0.061000
N51	N5	0.247900	0.829300	0.140200
N61	N6	0.231100	0.804300	0.083100
N71	N7	0.529400	0.306600	0.134400
N81	N8	0.620800	0.283200	0.067100
N91	N9	0.586300	0.229300	0.084500
N101	N10	0.396200	0.020400	0.766300
N111	N11	0.422300	0.128400	0.757300
N121	N12	0.480500	0.091000	0.778400
N131	N13	0.869200	0.547100	0.036700
N141	N14	0.931900	0.606900	0.107400
N151	N15	0.974600	0.585300	0.059800
N161	N16	0.370700	0.411000	0.234800
N171	N17	0.258200	0.440400	0.265300
N181	N18	0.299700	0.493800	0.251900
N191	N19	0.290500	0.080300	0.962100
N201	N20	0.280800	0.156700	0.883200
N211	N21	0.301500	0.185100	0.940400
N221	N22	0.689800	0.472400	0.937600
N231	N23	0.583400	0.466000	0.887400
N241	N24	0.616900	0.407700	0.886200
N251	N25	0.089000	0.597700	0.604600
N261	N26	0.168900	0.564100	0.532000
N271	N27	0.108200	0.526700	0.529200
N281	N28	0.231600	0.095400	0.561000
N291	N29	0.252100	0.170700	0.640200
N301	N30	0.268900	0.195700	0.583100
N311	N31	0.970600	0.693400	0.634400
N321	N32	0.879200	0.716800	0.567100
N331	N33	0.913700	0.770700	0.584500
N341	N34	0.103800	0.979600	0.266300
N351	N35	0.077700	0.871600	0.257300
N361	N36	0.019500	0.909000	0.278400
N371	N37	0.630800	0.452900	0.536700
N381	N38	0.568100	0.393100	0.607400
N391	N39	0.525400	0.414700	0.559800
N401	N40	0.129300	0.589000	0.734800
N411	N41	0.241800	0.559600	0.765300
N421	N42	0.200300	0.506200	0.751900
N431	N43	0.209500	0.919700	0.462100
N441	N44	0.219200	0.843300	0.383200
N451	N45	0.198500	0.814900	0.440400
N461	N46	0.810200	0.527600	0.437600
N471	N47	0.916600	0.534000	0.387400
N481	N48	0.883100	0.592300	0.386200
N491	N49	0.589000	0.902300	0.395400
N501	N50	0.668900	0.935900	0.468000
N511	N51	0.608200	0.973300	0.470800
N521	N52	0.731600	0.404600	0.439000
N531	N53	0.752100	0.329300	0.359800
N541	N54	0.768900	0.304300	0.416900
N551	N55	0.470600	0.806600	0.365600
N561	N56	0.379200	0.783200	0.432900
N571	N57	0.413700	0.729300	0.415500
N581	N58	0.603800	0.520400	0.733700
N591	N59	0.577700	0.628400	0.742700
N601	N60	0.519500	0.591000	0.721600
N611	N61	0.130800	0.047100	0.463300
N621	N62	0.068100	0.106900	0.392600
N631	N63	0.025400	0.085300	0.440200
N641	N64	0.629300	0.911000	0.265200
N651	N65	0.741800	0.940400	0.234700
N661	N66	0.700300	0.993800	0.248100
N671	N67	0.709500	0.580300	0.537900
N681	N68	0.719200	0.656700	0.616800
N691	N69	0.698500	0.685100	0.559600
N701	N70	0.310200	0.972400	0.562400
N711	N71	0.416600	0.966000	0.612600
N721	N72	0.383100	0.907700	0.613800
N731	N73	0.911000	0.097700	0.895400
N741	N74	0.831100	0.064100	0.968000
N751	N75	0.891800	0.026700	0.970800
N761	N76	0.768400	0.595400	0.939000
N771	N77	0.747900	0.670700	0.859800
N781	N78	0.731100	0.695700	0.916900
N791	N79	0.029400	0.193400	0.865600
N801	N80	0.120800	0.216800	0.932900
N811	N81	0.086300	0.270700	0.915500
N821	N82	0.896200	0.479600	0.233700
N831	N83	0.922300	0.371600	0.242700
N841	N84	0.980500	0.409000	0.221600
N851	N85	0.369200	0.952900	0.963300
N861	N86	0.431900	0.893100	0.892600
N871	N87	0.474600	0.914700	0.940200
N881	N88	0.870700	0.089000	0.765200
N891	N89	0.758200	0.059600	0.734700
N901	N90	0.799700	0.006200	0.748100
N911	N91	0.790500	0.419700	0.037900
N921	N92	0.780800	0.343300	0.116800
N931	N93	0.801500	0.314900	0.059600
N941	N94	0.189800	0.027600	0.062400
N951	N95	0.083400	0.034000	0.112600
N961	N96	0.116900	0.092300	0.113800
O11	O1	0.266700	0.217500	0.122900
O21	O2	0.379800	0.278900	0.174800
O31	O3	0.396000	0.153300	0.128100
O41	O4	0.278200	0.221500	0.254600
O51	O5	0.410000	0.182300	0.271700
O61	O6	0.308700	0.101500	0.200200
O71	O7	0.233800	0.217300	0.381100
O81	O8	0.352600	0.284400	0.354100
O91	O9	0.366700	0.157700	0.401100
O101	O10	0.289300	0.101100	0.319400
O111	O11	0.288100	0.048500	0.445400
O121	O12	0.433200	0.050200	0.453000
O131	O13	0.362900	0.978500	0.359300
O141	O14	0.480000	0.934400	0.294800
O151	O15	0.356000	0.879200	0.265800
O161	O16	0.426200	0.065200	0.311600
O171	O17	0.480900	0.100300	0.208500
O181	O18	0.283800	0.996000	0.256600
O191	O19	0.407100	0.985000	0.191100
O201	O20	0.486200	0.044900	0.096700
O211	O21	0.345200	0.032400	0.083500
O221	O22	0.529300	0.143300	0.311000
O231	O23	0.187400	0.080200	0.243100
O241	O24	0.484700	0.310800	0.269800
O251	O25	0.233300	0.782500	0.622900
O261	O26	0.120200	0.721100	0.674800
O271	O27	0.104000	0.846700	0.628100
O281	O28	0.221800	0.778500	0.754600
O291	O29	0.090000	0.817700	0.771700
O301	O30	0.191300	0.898500	0.700200
O311	O31	0.266200	0.782700	0.881100
O321	O32	0.147400	0.715600	0.854100
O331	O33	0.133300	0.842300	0.901100
O341	O34	0.210700	0.898900	0.819400
O351	O35	0.211900	0.951500	0.945400
O361	O36	0.066800	0.949800	0.953000
O371	O37	0.137100	0.021500	0.859300
O381	O38	0.020000	0.065600	0.794800
O391	O39	0.144000	0.120800	0.765800
O401	O40	0.073800	0.934800	0.811600
O411	O41	0.019100	0.899700	0.708500
O421	O42	0.216200	0.004000	0.756600
O431	O43	0.092900	0.015000	0.691100
O441	O44	0.013800	0.955100	0.596700
O451	O45	0.154800	0.967600	0.583500
O461	O46	0.970700	0.856700	0.811000
O471	O47	0.312600	0.919800	0.743100
O481	O48	0.015300	0.689200	0.769800
O491	O49	0.733300	0.717500	0.377100
O501	O50	0.620200	0.778900	0.325200
O511	O51	0.604000	0.653300	0.371900
O521	O52	0.721800	0.721500	0.245400
O531	O53	0.590000	0.682300	0.228300
O541	O54	0.691300	0.601500	0.299800
O551	O55	0.766200	0.717300	0.118900
O561	O56	0.647400	0.784400	0.145900
O571	O57	0.633300	0.657700	0.098900
O581	O58	0.710700	0.601100	0.180600
O591	O59	0.711900	0.548500	0.054600
O601	O60	0.566800	0.550200	0.047000
O611	O61	0.637100	0.478500	0.140700
O621	O62	0.520000	0.434400	0.205200
O631	O63	0.644000	0.379200	0.234200
O641	O64	0.573800	0.565200	0.188400
O651	O65	0.519100	0.600300	0.291500
O661	O66	0.716200	0.496000	0.243400
O671	O67	0.592900	0.485000	0.308900
O681	O68	0.513800	0.544900	0.403300
O691	O69	0.654800	0.532400	0.416500
O701	O70	0.470700	0.643300	0.189000
O711	O71	0.812600	0.580200	0.256900
O721	O72	0.515300	0.810800	0.230200
O731	O73	0.766700	0.282500	0.877100
O741	O74	0.879800	0.221100	0.825200
O751	O75	0.896000	0.346700	0.871900
O761	O76	0.778200	0.278500	0.745400
O771	O77	0.910000	0.317700	0.728300
O781	O78	0.808700	0.398500	0.799800
O791	O79	0.733800	0.282700	0.618900
O801	O80	0.852600	0.215600	0.645900
O811	O81	0.866700	0.342300	0.598900
O821	O82	0.789300	0.398900	0.680600
O831	O83	0.788100	0.451500	0.554600
O841	O84	0.933200	0.449800	0.547000
O851	O85	0.862900	0.521500	0.640700
O861	O86	0.980000	0.565600	0.705200
O871	O87	0.856000	0.620800	0.734200
O881	O88	0.926200	0.434800	0.688400
O891	O89	0.980900	0.399700	0.791500
O901	O90	0.783800	0.504000	0.743400
O911	O91	0.907100	0.515000	0.808900
O921	O92	0.986200	0.455100	0.903300
O931	O93	0.845200	0.467600	0.916500
O941	O94	0.029300	0.356700	0.689000
O951	O95	0.687400	0.419800	0.756900
O961	O96	0.984700	0.189200	0.730200
