data_LORMOW_freeONLY_PM
_symmetry_space_group_name_H-M	'P1'
_cell_length_a	7.669000
_cell_length_b	15.588800
_cell_length_c	16.731900
_cell_angle_alpha	69.948000
_cell_angle_beta	80.155000
_cell_angle_gamma	81.116000
_symmetry_Int_Tables_number 1

loop_
_symmetry_equiv_pos_as_xyz
'x,y,z'

loop_
_atom_site_label
_atom_site_type_symbol
_atom_site_fract_x
_atom_site_fract_y
_atom_site_fract_z
Cd11	Cd1	0.367790	0.992610	0.857530
Cd21	Cd2	0.615100	0.176550	0.912630
Cd31	Cd3	0.632210	0.007390	0.142470
Cd41	Cd4	0.000000	0.000000	0.000000
Cd51	Cd5	0.384900	0.823450	0.087370
H11	H1	0.620500	0.498100	0.937100
H21	H2	0.881300	0.966000	0.470700
H31	H3	0.677100	0.005400	0.979100
H41	H4	0.514400	0.382800	0.911900
H51	H5	0.530500	0.254400	0.098500
H61	H6	0.113400	0.214300	0.519300
H71	H7	0.906300	0.650800	0.043900
H81	H8	0.647600	0.345400	0.152400
H91	H9	0.063100	0.713000	0.697300
H101	H10	0.606400	0.053800	0.326200
H111	H11	0.322900	0.994600	0.020900
H121	H12	0.022500	0.761500	0.073200
H131	H13	0.740500	0.033600	0.760100
H141	H14	0.469500	0.745600	0.901500
H151	H15	0.886600	0.785700	0.480700
H161	H16	0.049600	0.974300	0.350100
H171	H17	0.393600	0.946200	0.673800
H181	H18	0.051200	0.816900	0.350000
H191	H19	0.354000	0.748800	0.338500
H201	H20	0.192800	0.365900	0.305400
H211	H21	0.395600	0.253900	0.426000
H221	H22	0.259500	0.966400	0.239900
H231	H23	0.865800	0.563600	0.965500
H241	H24	0.948800	0.183100	0.650000
H251	H25	0.936900	0.287000	0.302700
H261	H26	0.093700	0.349200	0.956100
H271	H27	0.521600	0.600200	0.741600
H281	H28	0.352400	0.654600	0.847600
H291	H29	0.485600	0.617200	0.088100
H301	H30	0.406700	0.065700	0.440400
H311	H31	0.134200	0.436400	0.034500
H321	H32	0.819600	0.193800	0.251600
H331	H33	0.977500	0.238500	0.926800
H341	H34	0.950400	0.025700	0.649900
H351	H35	0.672600	0.298300	0.409100
H361	H36	0.180400	0.806200	0.748400
H371	H37	0.118700	0.034000	0.529300
H381	H38	0.807200	0.634100	0.694600
H391	H39	0.379500	0.501900	0.062900
H401	H40	0.202900	0.698300	0.473000
H411	H41	0.797100	0.301700	0.527000
H421	H42	0.478400	0.399800	0.258400
H431	H43	0.604400	0.746100	0.574000
H441	H44	0.327400	0.701700	0.590900
H451	H45	0.646000	0.251200	0.661500
H461	H46	0.593300	0.934300	0.559600
C11	C1	0.694900	0.444800	0.937800
C21	C2	0.283600	0.254300	0.166000
C31	C3	0.994800	0.735300	0.739000
C41	C4	0.005200	0.264700	0.261000
C51	C5	0.632400	0.375600	0.921600
C61	C6	0.740700	0.656800	0.736300
C71	C7	0.858200	0.815700	0.281600
C81	C8	0.716400	0.745700	0.834000
C91	C9	0.710100	0.013600	0.718500
C101	C10	0.507500	0.962700	0.668700
C111	C11	0.932300	0.807600	0.355300
C121	C12	0.584200	0.766900	0.372600
C131	C13	0.441800	0.256200	0.473100
C141	C14	0.539600	0.723000	0.860400
C151	C15	0.314000	0.205600	0.710100
C161	C16	0.682400	0.836100	0.934900
C171	C17	0.920400	0.986600	0.510000
C181	C18	0.315400	0.717500	0.465100
C191	C19	0.972500	0.848000	0.197500
C201	C20	0.067700	0.192400	0.644700
C211	C21	0.403500	0.203800	0.783900
C221	C22	0.338600	0.233200	0.555100
C231	C23	0.867800	0.436200	0.955200
C241	C24	0.531500	0.330600	0.172100
C251	C25	0.367600	0.624400	0.078400
C261	C26	0.591900	0.255300	0.614400
C271	C27	0.203500	0.014600	0.413100
C281	C28	0.164300	0.213300	0.566200
C291	C29	0.259300	0.343200	0.263700
C301	C30	0.968100	0.823200	0.835200
C311	C31	0.182000	0.288800	0.231100
C321	C32	0.289900	0.986400	0.281500
C331	C33	0.460400	0.277000	0.139600
C341	C34	0.570600	0.636300	0.764400
C351	C35	0.934300	0.209900	0.229800
C361	C36	0.317600	0.163900	0.065100
C371	C37	0.835700	0.786700	0.433800
C381	C38	0.203300	0.198800	0.133500
C391	C39	0.836800	0.010600	0.651600
C401	C40	0.305100	0.555200	0.062200
C411	C41	0.079600	0.013400	0.490000
C421	C42	0.558200	0.743800	0.526900
C431	C43	0.057200	0.879900	0.868500
C441	C44	0.796500	0.985400	0.586900
C451	C45	0.096200	0.709400	0.069200
C461	C46	0.415800	0.233100	0.627400
C471	C47	0.607600	0.281400	0.463400
C481	C48	0.661400	0.766800	0.444900
C491	C49	0.065700	0.790100	0.770200
C501	C50	0.686000	0.794400	0.289900
C511	C51	0.929800	0.505800	0.979600
C521	C52	0.796700	0.801200	0.866500
C531	C53	0.625900	0.957000	0.599000
C541	C54	0.492500	0.037300	0.331300
C551	C55	0.818000	0.711200	0.768900
C561	C56	0.429400	0.363700	0.235600
C571	C57	0.684600	0.282500	0.534900
C581	C58	0.942800	0.120100	0.131500
C591	C59	0.374100	0.043000	0.401000
C601	C60	0.132200	0.563800	0.044800
C611	C61	0.392400	0.718600	0.536600
C621	C62	0.468500	0.669400	0.827900
C631	C63	0.408100	0.744700	0.385600
C641	C64	0.903800	0.290600	0.930800
C651	C65	0.141800	0.184300	0.718400
C661	C66	0.596500	0.796200	0.216100
C671	C67	0.163200	0.989400	0.348400
C681	C68	0.031900	0.176800	0.164800
C691	C69	0.070200	0.494200	0.020400
C701	C70	0.027500	0.152000	0.802500
C711	C71	0.974300	0.357000	0.948500
C721	C72	0.025700	0.643000	0.051500
N11	N1	0.453100	0.009800	0.271100
N21	N2	0.267600	0.701800	0.080900
N31	N3	0.732400	0.298200	0.919100
N41	N4	0.546900	0.990200	0.728900
O11	O1	0.007400	0.109000	0.061500
O21	O2	0.711200	0.040600	0.998500
O31	O3	0.522700	0.872100	0.170800
O41	O4	0.896200	0.899900	0.133800
O51	O5	0.634800	0.781200	0.004500
O61	O6	0.288800	0.959400	0.001500
O71	O7	0.371100	0.077300	0.089300
O81	O8	0.803800	0.086700	0.176900
O91	O9	0.584400	0.723400	0.204400
O101	O10	0.628900	0.922700	0.910700
O111	O11	0.865500	0.175800	0.805800
O121	O12	0.103800	0.100100	0.866200
O131	O13	0.196200	0.913300	0.823100
O141	O14	0.477300	0.127900	0.829200
O151	O15	0.134500	0.824200	0.194200
O161	O16	0.365200	0.218800	0.995500
O171	O17	0.415600	0.276600	0.795600
O181	O18	0.992600	0.891000	0.938500
