data_LOSXIC_freeONLY_PM
_symmetry_space_group_name_H-M	'P1'
_cell_length_a	15.683000
_cell_length_b	15.683000
_cell_length_c	11.552600
_cell_angle_alpha	90.000000
_cell_angle_beta	90.000000
_cell_angle_gamma	120.000000
_symmetry_Int_Tables_number 1

loop_
_symmetry_equiv_pos_as_xyz
'x,y,z'

loop_
_atom_site_label
_atom_site_type_symbol
_atom_site_fract_x
_atom_site_fract_y
_atom_site_fract_z
O11	O1	0.934500	0.572000	0.775700
O21	O2	0.871800	0.415000	0.791100
C11	C1	0.874200	0.493100	0.823000
C21	C2	0.808200	0.496200	0.910400
C31	C3	0.732600	0.406700	0.956400
C41	C4	0.823800	0.585300	0.953500
N11	N1	0.897600	0.679000	0.913000
N21	N2	0.713000	0.313100	0.916000
O31	O3	0.428000	0.362500	0.442370
O41	O4	0.585000	0.456800	0.457770
C51	C5	0.506900	0.381100	0.489670
C61	C6	0.503800	0.312000	0.577070
C71	C7	0.593300	0.325900	0.623070
C81	C8	0.414700	0.238500	0.620170
N31	N3	0.321000	0.218600	0.579670
N41	N4	0.686900	0.399900	0.582670
O51	O5	0.637500	0.065500	0.109030
O61	O6	0.543200	0.128200	0.124430
C91	C9	0.618900	0.125800	0.156330
C101	C10	0.688000	0.191800	0.243730
C111	C11	0.674100	0.267400	0.289730
C121	C12	0.761500	0.176200	0.286830
N51	N5	0.781400	0.102400	0.246330
N61	N6	0.600100	0.287000	0.249330
O71	O7	0.065500	0.428000	0.775700
O81	O8	0.128200	0.585000	0.791100
C131	C13	0.125800	0.506900	0.823000
C141	C14	0.191800	0.503800	0.910400
C151	C15	0.267400	0.593300	0.956400
C161	C16	0.176200	0.414700	0.953500
N71	N7	0.102400	0.321000	0.913000
N81	N8	0.287000	0.686900	0.916000
O91	O9	0.572000	0.637500	0.442370
O101	O10	0.415000	0.543200	0.457770
C171	C17	0.493100	0.618900	0.489670
C181	C18	0.496200	0.688000	0.577070
C191	C19	0.406700	0.674100	0.623070
C201	C20	0.585300	0.761500	0.620170
N91	N9	0.679000	0.781400	0.579670
N101	N10	0.313100	0.600100	0.582670
O111	O11	0.362500	0.934500	0.109030
O121	O12	0.456800	0.871800	0.124430
C211	C21	0.381100	0.874200	0.156330
C221	C22	0.312000	0.808200	0.243730
C231	C23	0.325900	0.732600	0.289730
C241	C24	0.238500	0.823800	0.286830
N111	N11	0.218600	0.897600	0.246330
N121	N12	0.399900	0.713000	0.249330
O131	O13	0.572000	0.934500	0.890970
O141	O14	0.415000	0.871800	0.875570
C251	C25	0.493100	0.874200	0.843670
C261	C26	0.496200	0.808200	0.756270
C271	C27	0.406700	0.732600	0.710270
C281	C28	0.585300	0.823800	0.713170
N131	N13	0.679000	0.897600	0.753670
N141	N14	0.313100	0.713000	0.750670
O151	O15	0.362500	0.428000	0.224300
O161	O16	0.456800	0.585000	0.208900
C291	C29	0.381100	0.506900	0.177000
C301	C30	0.312000	0.503800	0.089600
C311	C31	0.325900	0.593300	0.043600
C321	C32	0.238500	0.414700	0.046500
N151	N15	0.218600	0.321000	0.087000
N161	N16	0.399900	0.686900	0.084000
O171	O17	0.065500	0.637500	0.557630
O181	O18	0.128200	0.543200	0.542230
C331	C33	0.125800	0.618900	0.510330
C341	C34	0.191800	0.688000	0.422930
C351	C35	0.267400	0.674100	0.376930
C361	C36	0.176200	0.761500	0.379830
N171	N17	0.102400	0.781400	0.420330
N181	N18	0.287000	0.600100	0.417330
O191	O19	0.428000	0.065500	0.890970
O201	O20	0.585000	0.128200	0.875570
C371	C37	0.506900	0.125800	0.843670
C381	C38	0.503800	0.191800	0.756270
C391	C39	0.593300	0.267400	0.710270
C401	C40	0.414700	0.176200	0.713170
N191	N19	0.321000	0.102400	0.753670
N201	N20	0.686900	0.287000	0.750670
O211	O21	0.637500	0.572000	0.224300
O221	O22	0.543200	0.415000	0.208900
C411	C41	0.618900	0.493100	0.177000
C421	C42	0.688000	0.496200	0.089600
C431	C43	0.674100	0.406700	0.043600
C441	C44	0.761500	0.585300	0.046500
N211	N21	0.781400	0.679000	0.087000
N221	N22	0.600100	0.313100	0.084000
O231	O23	0.934500	0.362500	0.557630
O241	O24	0.871800	0.456800	0.542230
C451	C45	0.874200	0.381100	0.510330
C461	C46	0.808200	0.312000	0.422930
C471	C47	0.732600	0.325900	0.376930
C481	C48	0.823800	0.238500	0.379830
N231	N23	0.897600	0.218600	0.420330
N241	N24	0.713000	0.399900	0.417330
In11	In1	0.000000	0.500000	0.666670
In21	In2	0.500000	0.500000	0.333330
In31	In3	0.500000	0.000000	0.000000
