data_LOXWEC_freeONLY_PM
_symmetry_space_group_name_H-M	'P1'
_cell_length_a	8.580000
_cell_length_b	13.176000
_cell_length_c	15.332100
_cell_angle_alpha	115.448000
_cell_angle_beta	95.220300
_cell_angle_gamma	90.000000
_symmetry_Int_Tables_number 1

loop_
_symmetry_equiv_pos_as_xyz
'x,y,z'

loop_
_atom_site_label
_atom_site_type_symbol
_atom_site_fract_x
_atom_site_fract_y
_atom_site_fract_z
Cu11	Cu1	0.037530	0.006050	0.421320
Cu21	Cu2	0.962470	0.993950	0.578680
Cu31	Cu3	0.462470	0.584730	0.578680
Cu41	Cu4	0.537530	0.415270	0.421320
H11	H1	0.792200	0.335100	0.593000
H21	H2	0.707800	0.742100	0.407000
H31	H3	0.588000	0.861900	0.900800
H41	H4	0.612500	0.213700	0.628200
H51	H5	0.887500	0.585500	0.371800
H61	H6	0.094600	0.641200	0.311200
H71	H7	0.292200	0.257900	0.593000
H81	H8	0.013900	0.376600	0.524600
H91	H9	0.405400	0.330000	0.688800
H101	H10	0.905400	0.358800	0.688800
H111	H11	0.986100	0.623400	0.475400
H121	H12	0.315800	0.876400	0.111800
H131	H13	0.684200	0.123600	0.888200
H141	H14	0.207800	0.664900	0.407000
H151	H15	0.986800	0.425400	0.385600
H161	H16	0.412000	0.138100	0.099200
H171	H17	0.278000	0.214200	0.247600
H181	H18	0.222000	0.966600	0.752400
H191	H19	0.172200	0.860100	0.226400
H201	H20	0.722000	0.785800	0.752400
H211	H21	0.387500	0.786300	0.371800
H221	H22	0.637200	0.171000	0.360000
H231	H23	0.778000	0.033400	0.247600
H241	H24	0.594600	0.670000	0.311200
H251	H25	0.438200	0.140500	0.700400
H261	H26	0.184200	0.764600	0.888200
H271	H27	0.088000	0.038900	0.900800
H281	H28	0.815800	0.235400	0.111800
H291	H29	0.362800	0.829000	0.640000
H301	H30	0.137200	0.189000	0.360000
H311	H31	0.561800	0.859500	0.299600
H321	H32	0.672200	0.366300	0.226400
H331	H33	0.513200	0.039800	0.614400
H341	H34	0.327800	0.633700	0.773600
H351	H35	0.112500	0.414500	0.628200
H361	H36	0.862800	0.811000	0.640000
H371	H37	0.486800	0.960200	0.385600
H381	H38	0.513900	0.148000	0.524600
H391	H39	0.827800	0.139900	0.773600
H401	H40	0.013200	0.574600	0.614400
H411	H41	0.938200	0.559900	0.700400
H421	H42	0.912000	0.961100	0.099200
H431	H43	0.061800	0.440100	0.299600
H441	H44	0.486100	0.852000	0.475400
C11	C1	0.306100	0.702310	0.769420
C21	C2	0.598400	0.713180	0.382480
C31	C3	0.441500	0.102720	0.629140
C41	C4	0.742200	0.859360	0.757920
C51	C5	0.098400	0.669300	0.382480
C61	C6	0.058500	0.473580	0.370860
C71	C7	0.673100	0.183710	0.308620
C81	C8	0.599500	0.935050	0.903900
C91	C9	0.806100	0.067110	0.769420
C101	C10	0.941500	0.526420	0.629140
C111	C11	0.221700	0.475170	0.419340
C121	C12	0.220300	0.779820	0.838040
C131	C13	0.279700	0.941780	0.161960
C141	C14	0.901600	0.330700	0.617520
C151	C15	0.443700	0.366760	0.574800
C161	C16	0.187600	0.880510	0.832420
C171	C17	0.505900	0.186520	0.595420
C181	C18	0.558500	0.897280	0.370860
C191	C19	0.099500	0.968850	0.903900
C201	C20	0.994100	0.591100	0.404580
C211	C21	0.193900	0.932890	0.230580
C221	C22	0.400500	0.064950	0.096100
C231	C23	0.687600	0.951910	0.832420
C241	C24	0.401600	0.286820	0.617520
C251	C25	0.326900	0.816290	0.691380
C261	C26	0.056300	0.791960	0.425200
C271	C27	0.312400	0.048090	0.167580
C281	C28	0.900500	0.031150	0.096100
C291	C29	0.242200	0.898560	0.757920
C301	C30	0.257800	0.140640	0.242080
C311	C31	0.720300	0.058220	0.838040
C321	C32	0.721700	0.944170	0.419340
C331	C33	0.556300	0.633240	0.425200
C341	C34	0.779700	0.220180	0.161960
C351	C35	0.778300	0.524830	0.580660
C361	C36	0.812400	0.119490	0.167580
C371	C37	0.757800	0.101440	0.242080
C381	C38	0.943700	0.208040	0.574800
C391	C39	0.278300	0.055830	0.580660
C401	C40	0.494100	0.813480	0.404580
C411	C41	0.693900	0.297690	0.230580
C421	C42	0.005900	0.408900	0.595420
C431	C43	0.173100	0.124910	0.308620
C441	C44	0.826900	0.875090	0.691380
N11	N1	0.360200	0.719250	0.696920
N21	N2	0.038900	0.952260	0.969720
N31	N3	0.639800	0.280750	0.303080
N41	N4	0.461100	0.982540	0.030280
N51	N5	0.860200	0.977670	0.696920
N61	N6	0.961100	0.047740	0.030280
N71	N7	0.139800	0.022330	0.303080
N81	N8	0.538900	0.017460	0.969720
O11	O1	0.573700	0.530360	0.374420
O21	O2	0.012000	0.834010	0.509080
O31	O3	0.747000	0.453130	0.494600
O41	O4	0.073700	0.844060	0.374420
O51	O5	0.753000	0.958530	0.505400
O61	O6	0.816000	0.964060	0.369180
O71	O7	0.512000	0.675070	0.509080
O81	O8	0.988000	0.165990	0.490920
O91	O9	0.184000	0.035940	0.630820
O101	O10	0.926300	0.155940	0.625580
O111	O11	0.247000	0.041470	0.494600
O121	O12	0.488000	0.324930	0.490920
O131	O13	0.253000	0.546870	0.505400
O141	O14	0.316000	0.405120	0.369180
O151	O15	0.684000	0.594880	0.630820
O161	O16	0.426300	0.469640	0.625580
