data_LOZSAW_freeONLY_PM
_symmetry_space_group_name_H-M	'P1'
_cell_length_a	8.715100
_cell_length_b	8.715100
_cell_length_c	19.011000
_cell_angle_alpha	90.000000
_cell_angle_beta	90.000000
_cell_angle_gamma	120.000000
_symmetry_Int_Tables_number 1

loop_
_symmetry_equiv_pos_as_xyz
'x,y,z'

loop_
_atom_site_label
_atom_site_type_symbol
_atom_site_fract_x
_atom_site_fract_y
_atom_site_fract_z
Co11	Co1	0.666670	0.333330	0.333330
Co21	Co2	0.333330	0.666670	0.666670
Co31	Co3	0.000000	0.000000	0.000000
K11	K1	0.000000	0.000000	0.500000
K21	K2	0.666670	0.333330	0.833330
K31	K3	0.333330	0.666670	0.166670
N11	N1	0.834250	0.668500	0.422660
C11	C1	0.770400	0.540800	0.390030
N21	N2	0.500920	0.001830	0.755990
C21	C2	0.437070	0.874130	0.723360
N31	N3	0.167580	0.335170	0.089330
C31	C3	0.103730	0.207470	0.056700
N41	N4	0.331500	0.165750	0.422660
C41	C4	0.459200	0.229600	0.390030
N51	N5	0.998170	0.499080	0.755990
C51	C5	0.125870	0.562930	0.723360
N61	N6	0.664830	0.832420	0.089330
C61	C6	0.792530	0.896270	0.056700
N71	N7	0.834250	0.165750	0.422660
C71	C7	0.770400	0.229600	0.390030
N81	N8	0.500920	0.499080	0.755990
C81	C8	0.437070	0.562930	0.723360
N91	N9	0.167580	0.832420	0.089330
C91	C9	0.103730	0.896270	0.056700
N101	N10	0.668500	0.834250	0.577340
C101	C10	0.540800	0.770400	0.609970
N111	N11	0.335170	0.167580	0.910670
C111	C11	0.207470	0.103730	0.943300
N121	N12	0.001830	0.500920	0.244010
C121	C12	0.874130	0.437070	0.276640
N131	N13	0.165750	0.331500	0.577340
C131	C13	0.229600	0.459200	0.609970
N141	N14	0.832420	0.664830	0.910670
C141	C14	0.896270	0.792530	0.943300
N151	N15	0.499080	0.998170	0.244010
C151	C15	0.562930	0.125870	0.276640
N161	N16	0.165750	0.834250	0.577340
C161	C16	0.229600	0.770400	0.609970
N171	N17	0.832420	0.167580	0.910670
C171	C17	0.896270	0.103730	0.943300
N181	N18	0.499080	0.500920	0.244010
C181	C18	0.562930	0.437070	0.276640
