data_LUBNAZ_freeONLY_PM
_symmetry_space_group_name_H-M	'P1'
_cell_length_a	17.206500
_cell_length_b	17.206500
_cell_length_c	17.206500
_cell_angle_alpha	62.564300
_cell_angle_beta	74.358100
_cell_angle_gamma	105.642000
_symmetry_Int_Tables_number 1

loop_
_symmetry_equiv_pos_as_xyz
'x,y,z'

loop_
_atom_site_label
_atom_site_type_symbol
_atom_site_fract_x
_atom_site_fract_y
_atom_site_fract_z
Zn11	Zn1	0.500000	0.684280	0.494380
Zn21	Zn2	0.500000	0.005620	0.815720
Zn31	Zn3	0.821340	0.505620	0.994380
Zn41	Zn4	0.178660	0.184280	0.315720
Co11	Co1	0.867180	0.321750	0.056010
Co21	Co2	0.377760	0.454570	0.678250
Co31	Co3	0.377760	0.821750	0.045430
Co41	Co4	0.132820	0.076810	0.545430
Co51	Co5	0.867180	0.443990	0.178250
Co61	Co6	0.622240	0.576810	0.556010
Co71	Co7	0.622240	0.943990	0.923190
Co81	Co8	0.132820	0.954570	0.423190
H11	H1	0.387000	0.177300	0.861500
H21	H2	0.298100	0.757400	0.547500
H31	H3	0.500000	0.204300	0.703300
H41	H4	0.298100	0.952500	0.742600
H51	H5	0.961200	0.251500	0.361500
H61	H6	0.701900	0.959300	0.345600
H71	H7	0.038800	0.790300	0.822700
H81	H8	0.308500	0.347800	0.504300
H91	H9	0.038800	0.677300	0.709700
H101	H10	0.304900	0.459300	0.242600
H111	H11	0.691500	0.187200	0.960700
H121	H12	0.961200	0.138500	0.248500
H131	H13	0.147900	0.495700	0.812800
H141	H14	0.695100	0.654400	0.047500
H151	H15	0.500000	0.796700	0.295700
H161	H16	0.852100	0.847800	0.460700
H171	H17	0.701900	0.154400	0.540700
H181	H18	0.613000	0.751500	0.209700
H191	H19	0.907600	0.704300	0.795700
H201	H20	0.852100	0.039300	0.652200
H211	H21	0.092400	0.296700	0.203300
H221	H22	0.147900	0.687200	0.004300
H231	H23	0.695100	0.452500	0.845600
H241	H24	0.308500	0.995700	0.152200
H251	H25	0.613000	0.290300	0.748500
H261	H26	0.304900	0.257400	0.040700
H271	H27	0.691500	0.539300	0.312800
H281	H28	0.387000	0.638500	0.322700
C11	C1	0.314680	0.600670	0.657190
C21	C2	0.912100	0.208700	0.424400
C31	C3	0.316300	0.468600	0.288300
C41	C4	0.009100	0.138900	0.487000
C51	C5	0.232600	0.622300	0.678700
C61	C6	0.366900	0.575600	0.336500
C71	C7	0.685320	0.785990	0.471870
C81	C8	0.355400	0.074100	0.003100
C91	C9	0.633100	0.296600	0.791300
C101	C10	0.640800	0.469800	0.715200
C111	C11	0.831000	0.061000	0.288200
C121	C12	0.152400	0.735000	0.945400
C131	C13	0.767400	0.889700	0.411300
C141	C14	0.680400	0.582600	0.265000
C151	C15	0.847600	0.082600	0.597800
C161	C16	0.922800	0.996900	0.358500
C171	C17	0.742140	0.342810	0.971870
C181	C18	0.077200	0.574100	0.781300
C191	C19	0.087900	0.796600	0.836500
C201	C20	0.815000	0.284800	0.356000
C211	C21	0.366900	0.163500	0.924400
C221	C22	0.922800	0.141500	0.503100
C231	C23	0.845000	0.679900	0.820100
C241	C24	0.288000	0.472100	0.027900
C251	C25	0.683700	0.652300	0.104600
C261	C26	0.087900	0.663500	0.703400
C271	C27	0.680400	0.235000	0.917400
C281	C28	0.349200	0.230000	0.939000
C291	C29	0.644600	0.218700	0.858500
C301	C30	0.232600	0.821300	0.877700
C311	C31	0.359200	0.329000	0.856000
C321	C32	0.319600	0.402200	0.445400
C331	C33	0.374100	0.003900	0.987000
C341	C34	0.500000	0.179900	0.665100
C351	C35	0.355400	0.496900	0.425900
C361	C36	0.374100	0.513000	0.496100
C371	C37	0.257860	0.100670	0.214010
C381	C38	0.767400	0.088700	0.610300
C391	C39	0.500000	0.934500	0.167100
C401	C40	0.756900	0.968600	0.347700
C411	C41	0.316300	0.211700	0.031400
C421	C42	0.815000	0.144000	0.215200
C431	C43	0.009100	0.013000	0.361100
C441	C44	0.683700	0.395400	0.847700
C451	C45	0.101600	0.434500	0.065500
C461	C46	0.990900	0.629800	0.996100
C471	C47	0.650800	0.711800	0.119200
C481	C48	0.359200	0.644000	0.171000
C491	C49	0.625900	0.129800	0.861100
C501	C50	0.699000	0.321300	0.911300
C511	C51	0.257860	0.285990	0.399330
C521	C52	0.243100	0.895400	0.788300
C531	C53	0.756900	0.152300	0.531400
C541	C54	0.301000	0.122300	0.110300
C551	C55	0.500000	0.972100	0.315900
C561	C56	0.640800	0.784800	0.030200
C571	C57	0.898400	0.832900	0.667100
C581	C58	0.169000	0.880800	0.770000
C591	C59	0.243100	0.711700	0.604600
C601	C60	0.185000	0.829000	0.530200
C611	C61	0.847600	0.902200	0.417400
C621	C62	0.712000	0.684100	0.815900
C631	C63	0.633100	0.708700	0.203400
C641	C64	0.644600	0.641500	0.281300
C651	C65	0.319600	0.054600	0.097800
C661	C66	0.500000	0.332900	0.565500
C671	C67	0.500000	0.834900	0.320100
C681	C68	0.685320	0.028130	0.714010
C691	C69	0.500000	0.184100	0.527900
C701	C70	0.077200	0.718700	0.925900
C711	C71	0.650800	0.380800	0.788200
C721	C72	0.301000	0.389700	0.377700
C731	C73	0.169000	0.730000	0.619200
C741	C74	0.912100	0.075600	0.291300
C751	C75	0.152400	0.554600	0.765000
C761	C76	0.185000	0.969800	0.671000
C771	C77	0.314680	0.842810	0.899330
C781	C78	0.349200	0.561000	0.270000
C791	C79	0.625900	0.638900	0.370200
C801	C80	0.831000	0.211800	0.439000
C811	C81	0.699000	0.588700	0.178700
C821	C82	0.990900	0.503900	0.870200
C831	C83	0.742140	0.528130	0.157190
C841	C84	0.155000	0.334900	0.165100
N11	N1	0.808400	0.732200	0.767800
N21	N2	0.500000	0.232200	0.576200
N31	N3	0.500000	0.923800	0.267800
N41	N4	0.191600	0.423800	0.076200
O11	O1	0.403300	0.601000	0.475500
O21	O2	0.500000	0.108050	0.690250
O31	O3	0.500000	0.809750	0.391950
O41	O4	0.363710	0.394500	0.862790
O51	O5	0.076500	0.101000	0.302300
O61	O6	0.729340	0.506700	0.101900
O71	O7	0.787240	0.499780	0.205300
O81	O8	0.636290	0.530790	0.726500
O91	O9	0.636290	0.773500	0.969210
O101	O10	0.270660	0.168760	0.222640
O111	O11	0.636690	0.572840	0.438630
O121	O12	0.895860	0.360860	0.276600
O131	O13	0.787240	0.294700	0.000220
O141	O14	0.257290	0.030790	0.605500
O151	O15	0.705080	0.999780	0.787460
O161	O16	0.104140	0.827540	0.535000
O171	O17	0.923500	0.524500	0.878800
O181	O18	0.798300	0.608050	0.891950
O191	O19	0.608600	0.777360	0.493300
O201	O20	0.174780	0.065490	0.434510
O211	O21	0.500000	0.565490	0.609290
O221	O22	0.742710	0.137210	0.226500
O231	O23	0.596700	0.121200	0.802300
O241	O24	0.201700	0.309750	0.190250
O251	O25	0.362540	0.327540	0.776600
O261	O26	0.270660	0.277360	0.331240
O271	O27	0.637460	0.465000	0.639140
O281	O28	0.363310	0.924680	0.063850
O291	O29	0.636690	0.061370	0.927160
O301	O30	0.294920	0.794700	0.992540
O311	O31	0.403300	0.024500	0.899000
O321	O32	0.608600	0.006700	0.722640
O331	O33	0.729340	0.398100	0.993300
O341	O34	0.362540	0.723400	0.172460
O351	O35	0.637460	0.860860	0.035000
O361	O36	0.988530	0.561370	0.075320
O371	O37	0.104140	0.965000	0.672460
O381	O38	0.212760	0.212540	0.492540
O391	O39	0.363710	0.637210	0.105500
O401	O40	0.596700	0.697700	0.378800
O411	O41	0.011470	0.936150	0.427160
O421	O42	0.363310	0.436150	0.575320
O431	O43	0.011470	0.072840	0.563850
O441	O44	0.391400	0.668760	0.601900
O451	O45	0.705080	0.712540	0.500220
O461	O46	0.257290	0.894500	0.469210
O471	O47	0.742710	0.273500	0.362790
O481	O48	0.988530	0.424680	0.938630
O491	O49	0.391400	0.898100	0.831240
O501	O50	0.825220	0.390710	0.109290
O511	O51	0.212760	0.007460	0.287460
O521	O52	0.500000	0.890710	0.934510
O531	O53	0.294920	0.507460	0.705300
O541	O54	0.923500	0.621200	0.975500
O551	O55	0.895860	0.223400	0.139140
O561	O56	0.076500	0.197700	0.399000
