data_LUFNAC05_freeONLY_PM
_symmetry_space_group_name_H-M	'P1'
_cell_length_a	11.864700
_cell_length_b	11.864700
_cell_length_c	16.343000
_cell_angle_alpha	73.311400
_cell_angle_beta	73.311400
_cell_angle_gamma	78.751100
_symmetry_Int_Tables_number 1

loop_
_symmetry_equiv_pos_as_xyz
'x,y,z'

loop_
_atom_site_label
_atom_site_type_symbol
_atom_site_fract_x
_atom_site_fract_y
_atom_site_fract_z
Mn11	Mn1	0.833280	0.615700	0.546880
Mn21	Mn2	0.384300	0.166720	0.953120
Mn31	Mn3	0.166720	0.384300	0.453120
Mn41	Mn4	0.615700	0.833280	0.046880
H11	H1	0.165200	0.453200	0.036600
H21	H2	0.812700	0.663500	0.274800
H31	H3	0.141300	0.485300	0.245200
H41	H4	0.326300	0.361900	0.076200
H51	H5	0.265200	0.376400	0.171700
H61	H6	0.979600	0.576800	0.045800
H71	H7	0.457300	0.422500	0.180100
H81	H8	0.293100	0.637100	0.001500
H91	H9	0.575700	0.565700	0.152600
H101	H10	0.410900	0.775500	0.984400
H111	H11	0.546800	0.834800	0.463400
H121	H12	0.336500	0.187300	0.225200
H131	H13	0.514700	0.858700	0.254800
H141	H14	0.638100	0.673700	0.423800
H151	H15	0.623600	0.734800	0.328300
H161	H16	0.423200	0.020400	0.454200
H171	H17	0.577500	0.542700	0.319900
H181	H18	0.362900	0.706900	0.498500
H191	H19	0.434300	0.424300	0.347400
H201	H20	0.224500	0.589100	0.515600
H211	H21	0.834800	0.546800	0.963400
H221	H22	0.187300	0.336500	0.725200
H231	H23	0.858700	0.514700	0.754800
H241	H24	0.673700	0.638100	0.923800
H251	H25	0.734800	0.623600	0.828300
H261	H26	0.020400	0.423200	0.954200
H271	H27	0.542700	0.577500	0.819900
H281	H28	0.706900	0.362900	0.998500
H291	H29	0.424300	0.434300	0.847400
H301	H30	0.589100	0.224500	0.015600
H311	H31	0.453200	0.165200	0.536600
H321	H32	0.663500	0.812700	0.774800
H331	H33	0.485300	0.141300	0.745200
H341	H34	0.361900	0.326300	0.576200
H351	H35	0.376400	0.265200	0.671700
H361	H36	0.576800	0.979600	0.545800
H371	H37	0.422500	0.457300	0.680100
H381	H38	0.637100	0.293100	0.501500
H391	H39	0.565700	0.575700	0.652600
H401	H40	0.775500	0.410900	0.484400
C11	C1	0.975800	0.574200	0.274200
C21	C2	0.077800	0.517800	0.136200
C31	C3	0.880600	0.627200	0.154800
C41	C4	0.878800	0.627600	0.240600
C51	C5	0.777600	0.690800	0.116600
C61	C6	0.358500	0.512700	0.096300
C71	C7	0.075800	0.520000	0.222400
C81	C8	0.975600	0.573800	0.366100
C91	C9	0.282100	0.418500	0.110000
C101	C10	0.979100	0.574500	0.103300
C111	C11	0.445300	0.494100	0.139500
C121	C12	0.348400	0.621000	0.035000
C131	C13	0.515900	0.582100	0.123100
C141	C14	0.420500	0.703100	0.024800
C151	C15	0.425800	0.024200	0.225800
C161	C16	0.482200	0.922200	0.363800
C171	C17	0.372800	0.119400	0.345200
C181	C18	0.372400	0.121200	0.259400
C191	C19	0.309200	0.222400	0.383400
C201	C20	0.487300	0.641500	0.403700
C211	C21	0.480000	0.924200	0.277600
C221	C22	0.426200	0.024400	0.133900
C231	C23	0.581500	0.717900	0.390000
C241	C24	0.425500	0.020900	0.396700
C251	C25	0.505900	0.554700	0.360500
C261	C26	0.379000	0.651600	0.465000
C271	C27	0.417900	0.484100	0.376900
C281	C28	0.296900	0.579500	0.475200
C291	C29	0.024200	0.425800	0.725800
C301	C30	0.922200	0.482200	0.863800
C311	C31	0.119400	0.372800	0.845200
C321	C32	0.121200	0.372400	0.759400
C331	C33	0.222400	0.309200	0.883400
C341	C34	0.641500	0.487300	0.903700
C351	C35	0.924200	0.480000	0.777600
C361	C36	0.024400	0.426200	0.633900
C371	C37	0.717900	0.581500	0.890000
C381	C38	0.020900	0.425500	0.896700
C391	C39	0.554700	0.505900	0.860500
C401	C40	0.651600	0.379000	0.965000
C411	C41	0.484100	0.417900	0.876900
C421	C42	0.579500	0.296900	0.975200
C431	C43	0.574200	0.975800	0.774200
C441	C44	0.517800	0.077800	0.636200
C451	C45	0.627200	0.880600	0.654800
C461	C46	0.627600	0.878800	0.740600
C471	C47	0.690800	0.777600	0.616600
C481	C48	0.512700	0.358500	0.596300
C491	C49	0.520000	0.075800	0.722400
C501	C50	0.573800	0.975600	0.866100
C511	C51	0.418500	0.282100	0.610000
C521	C52	0.574500	0.979100	0.603300
C531	C53	0.494100	0.445300	0.639500
C541	C54	0.621000	0.348400	0.535000
C551	C55	0.582100	0.515900	0.623100
C561	C56	0.703100	0.420500	0.524800
N11	N1	0.172200	0.462200	0.085300
N21	N2	0.504500	0.687300	0.068800
N31	N3	0.537800	0.827800	0.414700
N41	N4	0.312700	0.495500	0.431200
N51	N5	0.827800	0.537800	0.914700
N61	N6	0.495500	0.312700	0.931200
N71	N7	0.462200	0.172200	0.585300
N81	N8	0.687300	0.504500	0.568800
O11	O1	0.688500	0.738900	0.163800
O21	O2	0.784000	0.697800	0.036000
O31	O3	0.879500	0.613500	0.411900
O41	O4	0.069400	0.536200	0.391400
O51	O5	0.972100	0.729500	0.523200
O61	O6	0.261100	0.311500	0.336200
O71	O7	0.302200	0.216000	0.464000
O81	O8	0.386500	0.120500	0.088100
O91	O9	0.463800	0.930600	0.108600
O101	O10	0.270500	0.027900	0.976800
O111	O11	0.311500	0.261100	0.836200
O121	O12	0.216000	0.302200	0.964000
O131	O13	0.120500	0.386500	0.588100
O141	O14	0.930600	0.463800	0.608600
O151	O15	0.027900	0.270500	0.476800
O161	O16	0.738900	0.688500	0.663800
O171	O17	0.697800	0.784000	0.536000
O181	O18	0.613500	0.879500	0.911900
O191	O19	0.536200	0.069400	0.891400
O201	O20	0.729500	0.972100	0.023200
