data_LUJPUC_freeONLY_PM
_symmetry_space_group_name_H-M	'P1'
_cell_length_a	9.540000
_cell_length_b	19.812000
_cell_length_c	11.151000
_cell_angle_alpha	90.000000
_cell_angle_beta	113.684000
_cell_angle_gamma	90.000000
_symmetry_Int_Tables_number 1

loop_
_symmetry_equiv_pos_as_xyz
'x,y,z'

loop_
_atom_site_label
_atom_site_type_symbol
_atom_site_fract_x
_atom_site_fract_y
_atom_site_fract_z
O11	O1	0.654900	0.927400	0.006000
O21	O2	0.740700	0.890900	0.209500
O31	O3	0.049700	0.749500	0.331100
O41	O4	0.061400	0.846900	0.236900
H11	H1	0.853400	0.471600	0.761500
O51	O5	0.154900	0.684800	0.590000
H21	H2	0.067300	0.697600	0.594300
H31	H3	0.209900	0.669300	0.667900
O61	O6	0.164700	0.833500	0.555300
H41	H4	0.166000	0.872400	0.522700
H51	H5	0.174000	0.838200	0.635300
C11	C1	0.634400	0.792000	0.927300
H61	H6	0.555800	0.820900	0.877600
C21	C2	0.743700	0.816100	0.048000
C31	C3	0.863200	0.771300	0.121000
C41	C4	0.713800	0.883400	0.091600
C51	C5	0.002000	0.792200	0.236800
O71	O7	0.154900	0.427400	0.006000
O81	O8	0.240700	0.390900	0.209500
O91	O9	0.549700	0.249500	0.331100
O101	O10	0.561400	0.346900	0.236900
H71	H7	0.353400	0.971600	0.761500
O111	O11	0.654900	0.184800	0.590000
H81	H8	0.567300	0.197600	0.594300
H91	H9	0.709900	0.169300	0.667900
O121	O12	0.664700	0.333500	0.555300
H101	H10	0.666000	0.372400	0.522700
H111	H11	0.674000	0.338200	0.635300
C61	C6	0.134400	0.292000	0.927300
H121	H12	0.055800	0.320900	0.877600
C71	C7	0.243700	0.316100	0.048000
C81	C8	0.363200	0.271300	0.121000
C91	C9	0.213800	0.383400	0.091600
C101	C10	0.502000	0.292200	0.236800
O131	O13	0.345100	0.927400	0.994000
O141	O14	0.259300	0.890900	0.790500
O151	O15	0.950300	0.749500	0.668900
O161	O16	0.938600	0.846900	0.763100
H131	H13	0.146600	0.471600	0.238500
O171	O17	0.845100	0.684800	0.410000
H141	H14	0.932700	0.697600	0.405700
H151	H15	0.790100	0.669300	0.332100
O181	O18	0.835300	0.833500	0.444700
H161	H16	0.834000	0.872400	0.477300
H171	H17	0.826000	0.838200	0.364700
C111	C11	0.365600	0.792000	0.072700
H181	H18	0.444200	0.820900	0.122400
C121	C12	0.256300	0.816100	0.952000
C131	C13	0.136800	0.771300	0.879000
C141	C14	0.286200	0.883400	0.908400
C151	C15	0.998000	0.792200	0.763200
O191	O19	0.845100	0.427400	0.994000
O201	O20	0.759300	0.390900	0.790500
O211	O21	0.450300	0.249500	0.668900
O221	O22	0.438600	0.346900	0.763100
H191	H19	0.646600	0.971600	0.238500
O231	O23	0.345100	0.184800	0.410000
H201	H20	0.432700	0.197600	0.405700
H211	H21	0.290100	0.169300	0.332100
O241	O24	0.335300	0.333500	0.444700
H221	H22	0.334000	0.372400	0.477300
H231	H23	0.326000	0.338200	0.364700
C161	C16	0.865600	0.292000	0.072700
H241	H24	0.944200	0.320900	0.122400
C171	C17	0.756300	0.316100	0.952000
C181	C18	0.636800	0.271300	0.879000
C191	C19	0.786200	0.383400	0.908400
C201	C20	0.498000	0.292200	0.763200
O251	O25	0.345100	0.072600	0.994000
O261	O26	0.259300	0.109100	0.790500
O271	O27	0.950300	0.250500	0.668900
O281	O28	0.938600	0.153100	0.763100
H251	H25	0.146600	0.528400	0.238500
O291	O29	0.845100	0.315200	0.410000
H261	H26	0.932700	0.302400	0.405700
H271	H27	0.790100	0.330700	0.332100
O301	O30	0.835300	0.166500	0.444700
H281	H28	0.834000	0.127600	0.477300
H291	H29	0.826000	0.161800	0.364700
C211	C21	0.365600	0.208000	0.072700
H301	H30	0.444200	0.179100	0.122400
C221	C22	0.256300	0.183900	0.952000
C231	C23	0.136800	0.228700	0.879000
C241	C24	0.286200	0.116600	0.908400
C251	C25	0.998000	0.207800	0.763200
O311	O31	0.845100	0.572600	0.994000
O321	O32	0.759300	0.609100	0.790500
O331	O33	0.450300	0.750500	0.668900
O341	O34	0.438600	0.653100	0.763100
H311	H31	0.646600	0.028400	0.238500
O351	O35	0.345100	0.815200	0.410000
H321	H32	0.432700	0.802400	0.405700
H331	H33	0.290100	0.830700	0.332100
O361	O36	0.335300	0.666500	0.444700
H341	H34	0.334000	0.627600	0.477300
H351	H35	0.326000	0.661800	0.364700
C261	C26	0.865600	0.708000	0.072700
H361	H36	0.944200	0.679100	0.122400
C271	C27	0.756300	0.683900	0.952000
C281	C28	0.636800	0.728700	0.879000
C291	C29	0.786200	0.616600	0.908400
C301	C30	0.498000	0.707800	0.763200
O371	O37	0.654900	0.072600	0.006000
O381	O38	0.740700	0.109100	0.209500
O391	O39	0.049700	0.250500	0.331100
O401	O40	0.061400	0.153100	0.236900
H371	H37	0.853400	0.528400	0.761500
O411	O41	0.154900	0.315200	0.590000
H381	H38	0.067300	0.302400	0.594300
H391	H39	0.209900	0.330700	0.667900
O421	O42	0.164700	0.166500	0.555300
H401	H40	0.166000	0.127600	0.522700
H411	H41	0.174000	0.161800	0.635300
C311	C31	0.634400	0.208000	0.927300
H421	H42	0.555800	0.179100	0.877600
C321	C32	0.743700	0.183900	0.048000
C331	C33	0.863200	0.228700	0.121000
C341	C34	0.713800	0.116600	0.091600
C351	C35	0.002000	0.207800	0.236800
O431	O43	0.154900	0.572600	0.006000
O441	O44	0.240700	0.609100	0.209500
O451	O45	0.549700	0.750500	0.331100
O461	O46	0.561400	0.653100	0.236900
H431	H43	0.353400	0.028400	0.761500
O471	O47	0.654900	0.815200	0.590000
H441	H44	0.567300	0.802400	0.594300
H451	H45	0.709900	0.830700	0.667900
O481	O48	0.664700	0.666500	0.555300
H461	H46	0.666000	0.627600	0.522700
H471	H47	0.674000	0.661800	0.635300
C361	C36	0.134400	0.708000	0.927300
H481	H48	0.055800	0.679100	0.877600
C371	C37	0.243700	0.683900	0.048000
C381	C38	0.363200	0.728700	0.121000
C391	C39	0.213800	0.616600	0.091600
C401	C40	0.502000	0.707800	0.236800
Ni11	Ni1	0.000000	0.500000	0.000000
Ni21	Ni2	0.500000	0.000000	0.000000
Ni31	Ni3	0.250000	0.750000	0.500000
Ni41	Ni4	0.750000	0.750000	0.500000
Ni51	Ni5	0.750000	0.250000	0.500000
Ni61	Ni6	0.250000	0.250000	0.500000
O491	O49	0.932400	0.500000	0.799300
O501	O50	0.432400	0.000000	0.799300
O511	O51	0.067600	0.500000	0.200700
O521	O52	0.567600	0.000000	0.200700
