data_LUKREO_freeONLY_PM
_symmetry_space_group_name_H-M	'P1'
_cell_length_a	7.913700
_cell_length_b	12.730400
_cell_length_c	27.357000
_cell_angle_alpha	90.000000
_cell_angle_beta	90.000000
_cell_angle_gamma	90.000000
_symmetry_Int_Tables_number 1

loop_
_symmetry_equiv_pos_as_xyz
'x,y,z'

loop_
_atom_site_label
_atom_site_type_symbol
_atom_site_fract_x
_atom_site_fract_y
_atom_site_fract_z
Mn11	Mn1	0.344450	0.257530	0.022870
Mn21	Mn2	0.155550	0.742470	0.522870
Mn31	Mn3	0.655550	0.757530	0.477130
Mn41	Mn4	0.844450	0.242470	0.977130
P11	P1	0.593600	0.448480	0.967630
P21	P2	0.517300	0.628090	0.561030
P31	P3	0.906400	0.551520	0.467630
P41	P4	0.982700	0.371910	0.061030
P51	P5	0.406400	0.948480	0.532370
P61	P6	0.482700	0.128090	0.938970
P71	P7	0.093600	0.051520	0.032370
P81	P8	0.017300	0.871910	0.438970
H11	H1	0.130600	0.903100	0.912000
H21	H2	0.041900	0.012000	0.898100
H31	H3	0.965000	0.903700	0.878500
H41	H4	0.880300	0.837400	0.753100
H51	H5	0.702600	0.822900	0.780200
H61	H6	0.873600	0.788300	0.807000
H71	H7	0.394600	0.229200	0.143500
H81	H8	0.595500	0.225900	0.150000
H91	H9	0.500600	0.336200	0.144400
H101	H10	0.509000	0.686000	0.831400
H111	H11	0.774000	0.700000	0.712000
H121	H12	0.008000	0.462000	0.883000
H131	H13	0.469000	0.921000	0.694000
H141	H14	0.274000	0.537000	0.717600
H151	H15	0.708000	0.636000	0.776000
H161	H16	0.661000	0.610000	0.894000
H171	H17	0.364000	0.500000	0.640000
H181	H18	0.823000	0.510000	0.813000
H191	H19	0.530000	0.807000	0.625000
H201	H20	0.122000	0.973000	0.811000
H211	H21	0.285000	0.971000	0.854000
H221	H22	0.256000	0.435000	0.930000
H231	H23	0.397000	0.963000	0.766000
H241	H24	0.467000	0.470000	0.551000
H251	H25	0.739000	0.530000	0.013000
H261	H26	0.369400	0.096900	0.412000
H271	H27	0.458100	0.988000	0.398100
H281	H28	0.535000	0.096300	0.378500
H291	H29	0.619700	0.162600	0.253100
H301	H30	0.797400	0.177100	0.280200
H311	H31	0.626400	0.211700	0.307000
H321	H32	0.105400	0.770800	0.643500
H331	H33	0.904500	0.774100	0.650000
H341	H34	0.999400	0.663800	0.644400
H351	H35	0.991000	0.314000	0.331400
H361	H36	0.726000	0.300000	0.212000
H371	H37	0.492000	0.538000	0.383000
H381	H38	0.031000	0.079000	0.194000
H391	H39	0.226000	0.463000	0.217600
H401	H40	0.792000	0.364000	0.276000
H411	H41	0.839000	0.390000	0.394000
H421	H42	0.136000	0.500000	0.140000
H431	H43	0.677000	0.490000	0.313000
H441	H44	0.970000	0.193000	0.125000
H451	H45	0.378000	0.027000	0.311000
H461	H46	0.215000	0.029000	0.354000
H471	H47	0.244000	0.565000	0.430000
H481	H48	0.103000	0.037000	0.266000
H491	H49	0.033000	0.530000	0.051000
H501	H50	0.761000	0.470000	0.513000
H511	H51	0.869400	0.403100	0.588000
H521	H52	0.958100	0.512000	0.601900
H531	H53	0.035000	0.403700	0.621500
H541	H54	0.119700	0.337400	0.746900
H551	H55	0.297400	0.322900	0.719800
H561	H56	0.126400	0.288300	0.693000
H571	H57	0.605400	0.729200	0.356500
H581	H58	0.404500	0.725900	0.350000
H591	H59	0.499400	0.836200	0.355600
H601	H60	0.491000	0.186000	0.668600
H611	H61	0.226000	0.200000	0.788000
H621	H62	0.992000	0.962000	0.617000
H631	H63	0.531000	0.421000	0.806000
H641	H64	0.726000	0.037000	0.782400
H651	H65	0.292000	0.136000	0.724000
H661	H66	0.339000	0.110000	0.606000
H671	H67	0.636000	0.000000	0.860000
H681	H68	0.177000	0.010000	0.687000
H691	H69	0.470000	0.307000	0.875000
H701	H70	0.878000	0.473000	0.689000
H711	H71	0.715000	0.471000	0.646000
H721	H72	0.744000	0.935000	0.570000
H731	H73	0.603000	0.463000	0.734000
H741	H74	0.533000	0.970000	0.949000
H751	H75	0.261000	0.030000	0.487000
H761	H76	0.630600	0.596900	0.088000
H771	H77	0.541900	0.488000	0.101900
H781	H78	0.465000	0.596300	0.121500
H791	H79	0.380300	0.662600	0.246900
H801	H80	0.202600	0.677100	0.219800
H811	H81	0.373600	0.711700	0.193000
H821	H82	0.894600	0.270800	0.856500
H831	H83	0.095500	0.274100	0.850000
H841	H84	0.000600	0.163800	0.855600
H851	H85	0.009000	0.814000	0.168600
H861	H86	0.274000	0.800000	0.288000
H871	H87	0.508000	0.038000	0.117000
H881	H88	0.969000	0.579000	0.306000
H891	H89	0.774000	0.963000	0.282400
H901	H90	0.208000	0.864000	0.224000
H911	H91	0.161000	0.890000	0.106000
H921	H92	0.864000	0.000000	0.360000
H931	H93	0.323000	0.990000	0.187000
H941	H94	0.030000	0.693000	0.375000
H951	H95	0.622000	0.527000	0.189000
H961	H96	0.785000	0.529000	0.146000
H971	H97	0.756000	0.065000	0.070000
H981	H98	0.897000	0.537000	0.234000
H991	H99	0.967000	0.030000	0.449000
H1001	H100	0.239000	0.970000	0.987000
C11	C1	0.549900	0.588400	0.888900
C21	C2	0.479200	0.748800	0.643200
C31	C3	0.203800	0.639000	0.800000
C41	C4	0.364000	0.902100	0.753900
C51	C5	0.957900	0.536100	0.825300
C61	C6	0.421200	0.773300	0.690200
C71	C7	0.462300	0.630300	0.851300
C81	C8	0.328600	0.590200	0.699100
C91	C9	0.213700	0.529700	0.873800
C101	C10	0.040100	0.603600	0.791900
C111	C11	0.309100	0.486100	0.912500
C121	C12	0.431400	0.874300	0.709000
C131	C13	0.281400	0.719000	0.766900
C141	C14	0.288300	0.821200	0.782400
C151	C15	0.342900	0.693200	0.719000
C161	C16	0.475500	0.511200	0.920000
C171	C17	0.382900	0.569300	0.652400
C181	C18	0.044000	0.502300	0.865400
C191	C19	0.798600	0.683700	0.753700
C201	C20	0.180500	0.949200	0.840600
C211	C21	0.069500	0.941300	0.886500
C221	C22	0.293600	0.600800	0.840800
C231	C23	0.459900	0.650300	0.623500
C241	C24	0.815200	0.792700	0.775400
C251	C25	0.501400	0.262500	0.134100
C261	C26	0.950100	0.411600	0.388900
C271	C27	0.020800	0.251200	0.143200
C281	C28	0.296200	0.361000	0.300000
C291	C29	0.136000	0.097900	0.253900
C301	C30	0.542100	0.463900	0.325300
C311	C31	0.078800	0.226700	0.190200
C321	C32	0.037700	0.369700	0.351300
C331	C33	0.171400	0.409800	0.199100
C341	C34	0.286300	0.470300	0.373800
C351	C35	0.459900	0.396400	0.291900
C361	C36	0.190900	0.513900	0.412500
C371	C37	0.068600	0.125700	0.209000
C381	C38	0.218600	0.281000	0.266900
C391	C39	0.211700	0.178800	0.282400
C401	C40	0.157100	0.306800	0.219000
C411	C41	0.024500	0.488800	0.420000
C421	C42	0.117100	0.430700	0.152400
C431	C43	0.456000	0.497700	0.365400
C441	C44	0.701400	0.316300	0.253700
C451	C45	0.319500	0.050800	0.340600
C461	C46	0.430500	0.058700	0.386500
C471	C47	0.206400	0.399200	0.340800
C481	C48	0.040100	0.349700	0.123500
C491	C49	0.684800	0.207300	0.275400
C501	C50	0.998600	0.737500	0.634100
C511	C51	0.450100	0.088400	0.611100
C521	C52	0.520800	0.248800	0.856800
C531	C53	0.796200	0.139000	0.700000
C541	C54	0.636000	0.402100	0.746100
C551	C55	0.042100	0.036100	0.674700
C561	C56	0.578800	0.273300	0.809800
C571	C57	0.537700	0.130300	0.648700
C581	C58	0.671400	0.090200	0.800900
C591	C59	0.786300	0.029700	0.626200
C601	C60	0.959900	0.103600	0.708100
C611	C61	0.690900	0.986100	0.587500
C621	C62	0.568600	0.374300	0.791000
C631	C63	0.718600	0.219000	0.733100
C641	C64	0.711700	0.321200	0.717600
C651	C65	0.657100	0.193200	0.781000
C661	C66	0.524500	0.011200	0.580000
C671	C67	0.617100	0.069300	0.847600
C681	C68	0.956000	0.002300	0.634600
C691	C69	0.201400	0.183700	0.746300
C701	C70	0.819500	0.449200	0.659400
C711	C71	0.930500	0.441300	0.613500
C721	C72	0.706400	0.100800	0.659200
C731	C73	0.540100	0.150300	0.876500
C741	C74	0.184800	0.292700	0.724600
C751	C75	0.498600	0.762500	0.365900
C761	C76	0.049900	0.911600	0.111100
C771	C77	0.979200	0.751200	0.356800
C781	C78	0.703800	0.861000	0.200000
C791	C79	0.864000	0.597900	0.246100
C801	C80	0.457900	0.963900	0.174700
C811	C81	0.921200	0.726700	0.309800
C821	C82	0.962300	0.869700	0.148700
C831	C83	0.828600	0.909800	0.300900
C841	C84	0.713700	0.970300	0.126200
C851	C85	0.540100	0.896400	0.208100
C861	C86	0.809100	0.013900	0.087500
C871	C87	0.931400	0.625700	0.291000
C881	C88	0.781400	0.781000	0.233100
C891	C89	0.788300	0.678800	0.217600
C901	C90	0.842900	0.806800	0.281000
C911	C91	0.975500	0.988800	0.080000
C921	C92	0.882900	0.930700	0.347600
C931	C93	0.544000	0.997700	0.134600
C941	C94	0.298600	0.816300	0.246300
C951	C95	0.680500	0.550800	0.159400
C961	C96	0.569500	0.558700	0.113500
C971	C97	0.793600	0.899200	0.159200
C981	C98	0.959900	0.849700	0.376500
C991	C99	0.315200	0.707300	0.224600
C1001	C100	0.001400	0.237500	0.865900
O11	O1	0.521100	0.256900	0.082830
O21	O2	0.961400	0.634100	0.748760
O31	O3	0.468300	0.398200	0.002180
O41	O4	0.679400	0.546200	0.992940
O51	O5	0.218400	0.841000	0.827010
O61	O6	0.376400	0.655700	0.527030
O71	O7	0.677300	0.686800	0.549420
O81	O8	0.726200	0.377300	0.946560
O91	O9	0.552600	0.506800	0.555920
O101	O10	0.978900	0.743100	0.582830
O111	O11	0.538600	0.365900	0.248760
O121	O12	0.031700	0.601800	0.502180
O131	O13	0.820600	0.453800	0.492940
O141	O14	0.281600	0.159000	0.327010
O151	O15	0.123600	0.344300	0.027030
O161	O16	0.822700	0.313200	0.049420
O171	O17	0.773800	0.622700	0.446560
O181	O18	0.947400	0.493200	0.055920
O191	O19	0.478900	0.756900	0.417170
O201	O20	0.038600	0.134100	0.751240
O211	O21	0.531700	0.898200	0.497820
O221	O22	0.320600	0.046200	0.507060
O231	O23	0.781600	0.341000	0.672990
O241	O24	0.623600	0.155700	0.972970
O251	O25	0.322700	0.186800	0.950580
O261	O26	0.273800	0.877300	0.553440
O271	O27	0.447400	0.006800	0.944080
O281	O28	0.021100	0.243100	0.917170
O291	O29	0.461400	0.865900	0.251240
O301	O30	0.968300	0.101800	0.997820
O311	O31	0.179400	0.953800	0.007060
O321	O32	0.718400	0.659000	0.172990
O331	O33	0.876400	0.844300	0.472970
O341	O34	0.177300	0.813200	0.450580
O351	O35	0.226200	0.122700	0.053440
O361	O36	0.052600	0.993200	0.444080
