data_LUKRIS_freeONLY_PM
_symmetry_space_group_name_H-M	'P1'
_cell_length_a	12.342800
_cell_length_b	14.963000
_cell_length_c	16.137000
_cell_angle_alpha	116.589000
_cell_angle_beta	90.000000
_cell_angle_gamma	90.000000
_symmetry_Int_Tables_number 1

loop_
_symmetry_equiv_pos_as_xyz
'x,y,z'

loop_
_atom_site_label
_atom_site_type_symbol
_atom_site_fract_x
_atom_site_fract_y
_atom_site_fract_z
Co11	Co1	0.177570	0.749250	0.025020
Co21	Co2	0.548330	0.521420	0.993890
Co31	Co3	0.677570	0.250750	0.974980
Co41	Co4	0.048330	0.478580	0.006110
P11	P1	0.185900	0.640640	0.160280
P21	P2	0.391900	0.632370	0.911240
P31	P3	0.510960	0.430120	0.120700
P41	P4	0.247600	0.320090	0.916630
P51	P5	0.685900	0.359360	0.839720
P61	P6	0.891900	0.367630	0.088760
P71	P7	0.010960	0.569880	0.879300
P81	P8	0.747600	0.679910	0.083370
H11	H1	0.780200	0.568000	0.756300
H21	H2	0.874700	0.574900	0.635300
H31	H3	0.612600	0.593600	0.845500
H41	H4	0.337000	0.674600	0.757500
H51	H5	0.428300	0.786900	0.392500
H61	H6	0.091100	0.832800	0.282000
H71	H7	0.430600	0.682000	0.639200
H81	H8	0.201200	0.694300	0.626600
H91	H9	0.242000	0.612300	0.316400
H101	H10	0.788200	0.054000	0.631300
H111	H11	0.903400	0.516900	0.471100
H121	H12	0.958300	0.623600	0.533800
H131	H13	0.869500	0.189000	0.752800
H141	H14	0.252800	0.621500	0.473400
H151	H15	0.030300	0.272700	0.843800
H161	H16	0.461200	0.886300	0.548900
H171	H17	0.996700	0.741600	0.702600
H181	H18	0.988500	0.835600	0.801000
H191	H19	0.813800	0.783700	0.357300
H201	H20	0.686100	0.799800	0.374200
H211	H21	0.752000	0.738200	0.417100
H221	H22	0.052500	0.916600	0.437600
H231	H23	0.633700	0.491000	0.425100
H241	H24	0.236500	0.983700	0.675600
H251	H25	0.874900	0.567000	0.352200
H261	H26	0.001300	0.566700	0.374400
H271	H27	0.935900	0.670000	0.414100
H281	H28	0.562500	0.988500	0.727900
H291	H29	0.456500	0.932500	0.672700
H301	H30	0.777600	0.948500	0.475100
H311	H31	0.718200	0.901800	0.535500
H321	H32	0.316800	0.124400	0.786900
H331	H33	0.615300	0.397700	0.267700
H341	H34	0.453800	0.625800	0.252300
H351	H35	0.397400	0.932900	0.775100
H361	H36	0.495300	0.003900	0.832300
H371	H37	0.503500	0.885700	0.796800
H381	H38	0.836100	0.799800	0.730200
H391	H39	0.886100	0.813400	0.645100
H401	H40	0.877000	0.907400	0.745000
H411	H41	0.280200	0.432000	0.243700
H421	H42	0.374700	0.425100	0.364700
H431	H43	0.112600	0.406400	0.154500
H441	H44	0.837000	0.325400	0.242500
H451	H45	0.928300	0.213100	0.607500
H461	H46	0.591100	0.167200	0.718000
H471	H47	0.930600	0.318000	0.360800
H481	H48	0.701200	0.305700	0.373400
H491	H49	0.742000	0.387700	0.683600
H501	H50	0.288200	0.946000	0.368700
H511	H51	0.403400	0.483100	0.528900
H521	H52	0.458300	0.376400	0.466200
H531	H53	0.369500	0.811000	0.247200
H541	H54	0.752800	0.378500	0.526600
H551	H55	0.530300	0.727300	0.156200
H561	H56	0.961200	0.113700	0.451100
H571	H57	0.496700	0.258400	0.297400
H581	H58	0.488500	0.164400	0.199000
H591	H59	0.313800	0.216300	0.642700
H601	H60	0.186100	0.200200	0.625800
H611	H61	0.252000	0.261800	0.582900
H621	H62	0.552500	0.083400	0.562400
H631	H63	0.133700	0.509000	0.574900
H641	H64	0.736500	0.016300	0.324400
H651	H65	0.374900	0.433000	0.647800
H661	H66	0.501300	0.433300	0.625600
H671	H67	0.435900	0.330000	0.585900
H681	H68	0.062500	0.011500	0.272100
H691	H69	0.956500	0.067500	0.327300
H701	H70	0.277600	0.051500	0.524900
H711	H71	0.218200	0.098200	0.464500
H721	H72	0.816800	0.875600	0.213100
H731	H73	0.115300	0.602300	0.732300
H741	H74	0.953800	0.374200	0.747700
H751	H75	0.897400	0.067100	0.224900
H761	H76	0.995300	0.996100	0.167700
H771	H77	0.003500	0.114300	0.203200
H781	H78	0.336100	0.200200	0.269800
H791	H79	0.386100	0.186600	0.354900
H801	H80	0.377000	0.092600	0.255000
C11	C1	0.170600	0.712200	0.283800
C21	C2	0.578200	0.639800	0.665400
C31	C3	0.562300	0.621000	0.435900
C41	C4	0.463600	0.632700	0.815400
C51	C5	0.548500	0.780700	0.568800
C61	C6	0.744000	0.587500	0.715100
C71	C7	0.081400	0.041600	0.686700
C81	C8	0.746100	0.619900	0.582500
C91	C9	0.021700	0.130400	0.738700
C101	C10	0.182900	0.723600	0.438400
C111	C11	0.632200	0.612500	0.728000
C121	C12	0.119700	0.810500	0.622200
C131	C13	0.030600	0.956800	0.616700
C141	C14	0.799800	0.591400	0.643600
C151	C15	0.924100	0.963100	0.595400
C161	C16	0.575300	0.610300	0.802800
C171	C17	0.412200	0.659200	0.750900
C181	C18	0.467600	0.760400	0.427100
C191	C19	0.583000	0.683300	0.532100
C201	C20	0.113500	0.805000	0.321800
C211	C21	0.467900	0.662900	0.680300
C221	C22	0.637300	0.645800	0.593000
C231	C23	0.090300	0.859500	0.569500
C241	C24	0.180900	0.723700	0.587600
C251	C25	0.203800	0.674000	0.341400
C261	C26	0.862100	0.050800	0.646100
C271	C27	0.904300	0.588200	0.484500
C281	C28	0.504800	0.658800	0.382200
C291	C29	0.911400	0.131100	0.717200
C301	C30	0.121000	0.817000	0.476100
C311	C31	0.211300	0.681300	0.497300
C321	C32	0.071700	0.214400	0.808600
C331	C33	0.487800	0.819800	0.519200
C341	C34	0.989700	0.815300	0.733600
C351	C35	0.755100	0.794600	0.401700
C361	C36	0.090300	0.854800	0.414600
C371	C37	0.599400	0.519700	0.390000
C381	C38	0.194300	0.042200	0.708300
C391	C39	0.931500	0.598900	0.398900
C401	C40	0.515400	0.929800	0.713200
C411	C41	0.775900	0.890700	0.489300
C421	C42	0.179500	0.212700	0.826200
C431	C43	0.241600	0.124900	0.774600
C441	C44	0.586600	0.463600	0.296900
C451	C45	0.491400	0.599200	0.287700
C461	C46	0.530900	0.502400	0.243000
C471	C47	0.476000	0.938400	0.782100
C481	C48	0.890600	0.835300	0.712000
C491	C49	0.670600	0.287800	0.716200
C501	C50	0.078200	0.360200	0.334600
C511	C51	0.062300	0.379000	0.564100
C521	C52	0.963600	0.367300	0.184600
C531	C53	0.048500	0.219300	0.431200
C541	C54	0.244000	0.412500	0.284900
C551	C55	0.581400	0.958400	0.313300
C561	C56	0.246100	0.380100	0.417500
C571	C57	0.521700	0.869600	0.261300
C581	C58	0.682900	0.276400	0.561600
C591	C59	0.132200	0.387500	0.272000
C601	C60	0.619700	0.189500	0.377800
C611	C61	0.530600	0.043200	0.383300
C621	C62	0.299800	0.408600	0.356400
C631	C63	0.424100	0.036900	0.404600
C641	C64	0.075300	0.389700	0.197200
C651	C65	0.912200	0.340800	0.249100
C661	C66	0.967600	0.239600	0.572900
C671	C67	0.083000	0.316700	0.467900
C681	C68	0.613500	0.195000	0.678200
C691	C69	0.967900	0.337100	0.319700
C701	C70	0.137300	0.354200	0.407000
C711	C71	0.590300	0.140500	0.430500
C721	C72	0.680900	0.276300	0.412400
C731	C73	0.703800	0.326000	0.658600
C741	C74	0.362100	0.949200	0.353900
C751	C75	0.404300	0.411800	0.515500
C761	C76	0.004800	0.341200	0.617800
C771	C77	0.411400	0.868900	0.282800
C781	C78	0.621000	0.183000	0.523900
C791	C79	0.711300	0.318700	0.502700
C801	C80	0.571700	0.785600	0.191400
C811	C81	0.987800	0.180200	0.480800
C821	C82	0.489700	0.184700	0.266400
C831	C83	0.255100	0.205400	0.598300
C841	C84	0.590300	0.145200	0.585400
C851	C85	0.099400	0.480300	0.610000
C861	C86	0.694300	0.957800	0.291700
C871	C87	0.431500	0.401100	0.601100
C881	C88	0.015400	0.070200	0.286800
C891	C89	0.275900	0.109300	0.510700
C901	C90	0.679500	0.787300	0.173800
C911	C91	0.741600	0.875100	0.225400
C921	C92	0.086600	0.536400	0.703100
C931	C93	0.991400	0.400800	0.712300
C941	C94	0.030900	0.497600	0.757000
C951	C95	0.976000	0.061600	0.217900
C961	C96	0.390600	0.164700	0.288000
O11	O1	0.320000	0.722300	0.950300
O21	O2	0.471200	0.624700	0.977200
O31	O3	0.799400	0.631600	0.512900
O41	O4	0.262300	0.552600	0.151500
O51	O5	0.025500	0.782200	0.100600
O61	O6	0.579400	0.839800	0.659900
O71	O7	0.075500	0.596900	0.121100
O81	O8	0.878400	0.878900	0.524400
O91	O9	0.318500	0.532500	0.868700
O101	O10	0.087900	0.852900	0.716300
O111	O11	0.249400	0.893100	0.119300
O121	O12	0.235200	0.703400	0.119600
O131	O13	0.109500	0.822100	0.952900
O141	O14	0.432000	0.343000	0.109600
O151	O15	0.621100	0.389900	0.076100
O161	O16	0.282100	0.290200	0.988900
O171	O17	0.353900	0.337000	0.869400
O181	O18	0.458200	0.496100	0.082300
O191	O19	0.180700	0.410600	0.943500
O201	O20	0.820000	0.277700	0.049700
O211	O21	0.971200	0.375300	0.022800
O221	O22	0.299400	0.368400	0.487100
O231	O23	0.762300	0.447400	0.848500
O241	O24	0.525500	0.217800	0.899400
O251	O25	0.079400	0.160200	0.340100
O261	O26	0.575500	0.403100	0.878900
O271	O27	0.378400	0.121100	0.475600
O281	O28	0.818500	0.467500	0.131300
O291	O29	0.587900	0.147100	0.283700
O301	O30	0.749400	0.106900	0.880700
O311	O31	0.735200	0.296600	0.880400
O321	O32	0.609500	0.177900	0.047100
O331	O33	0.932000	0.657000	0.890400
O341	O34	0.121100	0.610100	0.923900
O351	O35	0.782100	0.709800	0.011100
O361	O36	0.853900	0.663000	0.130600
O371	O37	0.958200	0.503900	0.917700
O381	O38	0.680700	0.589400	0.056500
