data_LUMYUP_freeONLY_PM
_symmetry_space_group_name_H-M	'P1'
_cell_length_a	24.225000
_cell_length_b	9.625400
_cell_length_c	16.370000
_cell_angle_alpha	90.000000
_cell_angle_beta	118.540000
_cell_angle_gamma	90.000000
_symmetry_Int_Tables_number 1

loop_
_symmetry_equiv_pos_as_xyz
'x,y,z'

loop_
_atom_site_label
_atom_site_type_symbol
_atom_site_fract_x
_atom_site_fract_y
_atom_site_fract_z
Cu11	Cu1	0.041770	0.380010	0.377930
Cu21	Cu2	0.041780	0.180030	0.033910
N11	N1	0.136370	0.015500	0.525500
N21	N2	0.078390	0.002700	0.517400
N31	N3	0.045870	0.116100	0.480800
N41	N4	0.081050	0.206200	0.463200
N51	N5	0.140960	0.214200	0.244000
N61	N6	0.083220	0.237500	0.174400
N71	N7	0.048430	0.295600	0.206200
N81	N8	0.082350	0.309900	0.298700
N91	N9	0.040600	0.438800	0.925100
C11	C1	0.251300	0.301800	0.422600
H11	H1	0.252100	0.336600	0.370100
C21	C2	0.194600	0.254400	0.414300
C31	C3	0.192800	0.201000	0.492800
C41	C4	0.136300	0.141700	0.491400
C51	C5	0.138900	0.258100	0.320100
C61	C6	0.039400	0.336100	0.957900
Cu31	Cu3	0.541770	0.880010	0.377930
Cu41	Cu4	0.541780	0.680030	0.033910
N101	N10	0.636370	0.515500	0.525500
N111	N11	0.578390	0.502700	0.517400
N121	N12	0.545870	0.616100	0.480800
N131	N13	0.581050	0.706200	0.463200
N141	N14	0.640960	0.714200	0.244000
N151	N15	0.583220	0.737500	0.174400
N161	N16	0.548430	0.795600	0.206200
N171	N17	0.582350	0.809900	0.298700
N181	N18	0.540600	0.938800	0.925100
C71	C7	0.751300	0.801800	0.422600
H21	H2	0.752100	0.836600	0.370100
C81	C8	0.694600	0.754400	0.414300
C91	C9	0.692800	0.701000	0.492800
C101	C10	0.636300	0.641700	0.491400
C111	C11	0.638900	0.758100	0.320100
C121	C12	0.539400	0.836100	0.957900
Cu51	Cu5	0.958230	0.380010	0.122070
Cu61	Cu6	0.958220	0.180030	0.466090
N191	N19	0.863630	0.015500	0.974500
N201	N20	0.921610	0.002700	0.982600
N211	N21	0.954130	0.116100	0.019200
N221	N22	0.918950	0.206200	0.036800
N231	N23	0.859040	0.214200	0.256000
N241	N24	0.916780	0.237500	0.325600
N251	N25	0.951570	0.295600	0.293800
N261	N26	0.917650	0.309900	0.201300
N271	N27	0.959400	0.438800	0.574900
C131	C13	0.748700	0.301800	0.077400
H31	H3	0.747900	0.336600	0.129900
C141	C14	0.805400	0.254400	0.085700
C151	C15	0.807200	0.201000	0.007200
C161	C16	0.863700	0.141700	0.008600
C171	C17	0.861100	0.258100	0.179900
C181	C18	0.960600	0.336100	0.542100
Cu71	Cu7	0.458230	0.880010	0.122070
Cu81	Cu8	0.458220	0.680030	0.466090
N281	N28	0.363630	0.515500	0.974500
N291	N29	0.421610	0.502700	0.982600
N301	N30	0.454130	0.616100	0.019200
N311	N31	0.418950	0.706200	0.036800
N321	N32	0.359040	0.714200	0.256000
N331	N33	0.416780	0.737500	0.325600
N341	N34	0.451570	0.795600	0.293800
N351	N35	0.417650	0.809900	0.201300
N361	N36	0.459400	0.938800	0.574900
C191	C19	0.248700	0.801800	0.077400
H41	H4	0.247900	0.836600	0.129900
C201	C20	0.305400	0.754400	0.085700
C211	C21	0.307200	0.701000	0.007200
C221	C22	0.363700	0.641700	0.008600
C231	C23	0.361100	0.758100	0.179900
C241	C24	0.460600	0.836100	0.542100
Cu91	Cu9	0.958230	0.619990	0.622070
Cu101	Cu10	0.958220	0.819970	0.966090
N371	N37	0.863630	0.984500	0.474500
N381	N38	0.921610	0.997300	0.482600
N391	N39	0.954130	0.883900	0.519200
N401	N40	0.918950	0.793800	0.536800
N411	N41	0.859040	0.785800	0.756000
N421	N42	0.916780	0.762500	0.825600
N431	N43	0.951570	0.704400	0.793800
N441	N44	0.917650	0.690100	0.701300
N451	N45	0.959400	0.561200	0.074900
C251	C25	0.748700	0.698200	0.577400
H51	H5	0.747900	0.663400	0.629900
C261	C26	0.805400	0.745600	0.585700
C271	C27	0.807200	0.799000	0.507200
C281	C28	0.863700	0.858300	0.508600
C291	C29	0.861100	0.741900	0.679900
C301	C30	0.960600	0.663900	0.042100
Cu111	Cu11	0.458230	0.119990	0.622070
Cu121	Cu12	0.458220	0.319970	0.966090
N461	N46	0.363630	0.484500	0.474500
N471	N47	0.421610	0.497300	0.482600
N481	N48	0.454130	0.383900	0.519200
N491	N49	0.418950	0.293800	0.536800
N501	N50	0.359040	0.285800	0.756000
N511	N51	0.416780	0.262500	0.825600
N521	N52	0.451570	0.204400	0.793800
N531	N53	0.417650	0.190100	0.701300
N541	N54	0.459400	0.061200	0.074900
C311	C31	0.248700	0.198200	0.577400
H61	H6	0.247900	0.163400	0.629900
C321	C32	0.305400	0.245600	0.585700
C331	C33	0.307200	0.299000	0.507200
C341	C34	0.363700	0.358300	0.508600
C351	C35	0.361100	0.241900	0.679900
C361	C36	0.460600	0.163900	0.042100
Cu131	Cu13	0.041770	0.619990	0.877930
Cu141	Cu14	0.041780	0.819970	0.533910
N551	N55	0.136370	0.984500	0.025500
N561	N56	0.078390	0.997300	0.017400
N571	N57	0.045870	0.883900	0.980800
N581	N58	0.081050	0.793800	0.963200
N591	N59	0.140960	0.785800	0.744000
N601	N60	0.083220	0.762500	0.674400
N611	N61	0.048430	0.704400	0.706200
N621	N62	0.082350	0.690100	0.798700
N631	N63	0.040600	0.561200	0.425100
C371	C37	0.251300	0.698200	0.922600
H71	H7	0.252100	0.663400	0.870100
C381	C38	0.194600	0.745600	0.914300
C391	C39	0.192800	0.799000	0.992800
C401	C40	0.136300	0.858300	0.991400
C411	C41	0.138900	0.741900	0.820100
C421	C42	0.039400	0.663900	0.457900
Cu151	Cu15	0.541770	0.119990	0.877930
Cu161	Cu16	0.541780	0.319970	0.533910
N641	N64	0.636370	0.484500	0.025500
N651	N65	0.578390	0.497300	0.017400
N661	N66	0.545870	0.383900	0.980800
N671	N67	0.581050	0.293800	0.963200
N681	N68	0.640960	0.285800	0.744000
N691	N69	0.583220	0.262500	0.674400
N701	N70	0.548430	0.204400	0.706200
N711	N71	0.582350	0.190100	0.798700
N721	N72	0.540600	0.061200	0.425100
C431	C43	0.751300	0.198200	0.922600
H81	H8	0.752100	0.163400	0.870100
C441	C44	0.694600	0.245600	0.914300
C451	C45	0.692800	0.299000	0.992800
C461	C46	0.636300	0.358300	0.991400
C471	C47	0.638900	0.241900	0.820100
C481	C48	0.539400	0.163900	0.457900
