data_LUMYID_freeONLY_PM
_symmetry_space_group_name_H-M	'P1'
_cell_length_a	24.321000
_cell_length_b	9.409800
_cell_length_c	16.628000
_cell_angle_alpha	90.000000
_cell_angle_beta	119.240000
_cell_angle_gamma	90.000000
_symmetry_Int_Tables_number 1

loop_
_symmetry_equiv_pos_as_xyz
'x,y,z'

loop_
_atom_site_label
_atom_site_type_symbol
_atom_site_fract_x
_atom_site_fract_y
_atom_site_fract_z
Cu11	Cu1	0.042730	0.823570	0.041150
Cu21	Cu2	0.957230	0.614300	0.122540
N11	N1	0.918240	0.790700	0.037300
N21	N2	0.953580	0.880300	0.017200
N31	N3	0.920150	0.992700	0.976400
N41	N4	0.862400	0.981500	0.967500
N51	N5	0.860500	0.790700	0.251100
N61	N6	0.918000	0.763800	0.322200
N71	N7	0.952110	0.697400	0.292600
N81	N8	0.917690	0.681200	0.200900
N91	N9	0.044900	0.566100	0.930600
C11	C1	0.749300	0.696400	0.076400
H11	H1	0.749100	0.659300	0.128100
C21	C2	0.806400	0.743800	0.084500
C31	C3	0.806800	0.797000	0.006100
C41	C4	0.862800	0.855700	0.006000
C51	C5	0.862300	0.740100	0.177600
C61	C6	0.045200	0.668300	0.967400
Cu31	Cu3	0.542730	0.323570	0.041150
Cu41	Cu4	0.457230	0.114300	0.122540
N101	N10	0.418240	0.290700	0.037300
N111	N11	0.453580	0.380300	0.017200
N121	N12	0.420150	0.492700	0.976400
N131	N13	0.362400	0.481500	0.967500
N141	N14	0.360500	0.290700	0.251100
N151	N15	0.418000	0.263800	0.322200
N161	N16	0.452110	0.197400	0.292600
N171	N17	0.417690	0.181200	0.200900
N181	N18	0.544900	0.066100	0.930600
C71	C7	0.249300	0.196400	0.076400
H21	H2	0.249100	0.159300	0.128100
C81	C8	0.306400	0.243800	0.084500
C91	C9	0.306800	0.297000	0.006100
C101	C10	0.362800	0.355700	0.006000
C111	C11	0.362300	0.240100	0.177600
C121	C12	0.545200	0.168300	0.967400
Cu51	Cu5	0.957270	0.823570	0.458850
Cu61	Cu6	0.042770	0.614300	0.377460
N191	N19	0.081760	0.790700	0.462700
N201	N20	0.046420	0.880300	0.482800
N211	N21	0.079850	0.992700	0.523600
N221	N22	0.137600	0.981500	0.532500
N231	N23	0.139500	0.790700	0.248900
N241	N24	0.082000	0.763800	0.177800
N251	N25	0.047890	0.697400	0.207400
N261	N26	0.082310	0.681200	0.299100
N271	N27	0.955100	0.566100	0.569400
C131	C13	0.250700	0.696400	0.423600
H31	H3	0.250900	0.659300	0.371900
C141	C14	0.193600	0.743800	0.415500
C151	C15	0.193200	0.797000	0.493900
C161	C16	0.137200	0.855700	0.494000
C171	C17	0.137700	0.740100	0.322400
C181	C18	0.954800	0.668300	0.532600
Cu71	Cu7	0.457270	0.323570	0.458850
Cu81	Cu8	0.542770	0.114300	0.377460
N281	N28	0.581760	0.290700	0.462700
N291	N29	0.546420	0.380300	0.482800
N301	N30	0.579850	0.492700	0.523600
N311	N31	0.637600	0.481500	0.532500
N321	N32	0.639500	0.290700	0.248900
N331	N33	0.582000	0.263800	0.177800
N341	N34	0.547890	0.197400	0.207400
N351	N35	0.582310	0.181200	0.299100
N361	N36	0.455100	0.066100	0.569400
C191	C19	0.750700	0.196400	0.423600
H41	H4	0.750900	0.159300	0.371900
C201	C20	0.693600	0.243800	0.415500
C211	C21	0.693200	0.297000	0.493900
C221	C22	0.637200	0.355700	0.494000
C231	C23	0.637700	0.240100	0.322400
C241	C24	0.454800	0.168300	0.532600
Cu91	Cu9	0.957270	0.176430	0.958850
Cu101	Cu10	0.042770	0.385700	0.877460
N371	N37	0.081760	0.209300	0.962700
N381	N38	0.046420	0.119700	0.982800
N391	N39	0.079850	0.007300	0.023600
N401	N40	0.137600	0.018500	0.032500
N411	N41	0.139500	0.209300	0.748900
N421	N42	0.082000	0.236200	0.677800
N431	N43	0.047890	0.302600	0.707400
N441	N44	0.082310	0.318800	0.799100
N451	N45	0.955100	0.433900	0.069400
C251	C25	0.250700	0.303600	0.923600
H51	H5	0.250900	0.340700	0.871900
C261	C26	0.193600	0.256200	0.915500
C271	C27	0.193200	0.203000	0.993900
C281	C28	0.137200	0.144300	0.994000
C291	C29	0.137700	0.259900	0.822400
C301	C30	0.954800	0.331700	0.032600
Cu111	Cu11	0.457270	0.676430	0.958850
Cu121	Cu12	0.542770	0.885700	0.877460
N461	N46	0.581760	0.709300	0.962700
N471	N47	0.546420	0.619700	0.982800
N481	N48	0.579850	0.507300	0.023600
N491	N49	0.637600	0.518500	0.032500
N501	N50	0.639500	0.709300	0.748900
N511	N51	0.582000	0.736200	0.677800
N521	N52	0.547890	0.802600	0.707400
N531	N53	0.582310	0.818800	0.799100
N541	N54	0.455100	0.933900	0.069400
C311	C31	0.750700	0.803600	0.923600
H61	H6	0.750900	0.840700	0.871900
C321	C32	0.693600	0.756200	0.915500
C331	C33	0.693200	0.703000	0.993900
C341	C34	0.637200	0.644300	0.994000
C351	C35	0.637700	0.759900	0.822400
C361	C36	0.454800	0.831700	0.032600
Cu131	Cu13	0.042730	0.176430	0.541150
Cu141	Cu14	0.957230	0.385700	0.622540
N551	N55	0.918240	0.209300	0.537300
N561	N56	0.953580	0.119700	0.517200
N571	N57	0.920150	0.007300	0.476400
N581	N58	0.862400	0.018500	0.467500
N591	N59	0.860500	0.209300	0.751100
N601	N60	0.918000	0.236200	0.822200
N611	N61	0.952110	0.302600	0.792600
N621	N62	0.917690	0.318800	0.700900
N631	N63	0.044900	0.433900	0.430600
C371	C37	0.749300	0.303600	0.576400
H71	H7	0.749100	0.340700	0.628100
C381	C38	0.806400	0.256200	0.584500
C391	C39	0.806800	0.203000	0.506100
C401	C40	0.862800	0.144300	0.506000
C411	C41	0.862300	0.259900	0.677600
C421	C42	0.045200	0.331700	0.467400
Cu151	Cu15	0.542730	0.676430	0.541150
Cu161	Cu16	0.457230	0.885700	0.622540
N641	N64	0.418240	0.709300	0.537300
N651	N65	0.453580	0.619700	0.517200
N661	N66	0.420150	0.507300	0.476400
N671	N67	0.362400	0.518500	0.467500
N681	N68	0.360500	0.709300	0.751100
N691	N69	0.418000	0.736200	0.822200
N701	N70	0.452110	0.802600	0.792600
N711	N71	0.417690	0.818800	0.700900
N721	N72	0.544900	0.933900	0.430600
C431	C43	0.249300	0.803600	0.576400
H81	H8	0.249100	0.840700	0.628100
C441	C44	0.306400	0.756200	0.584500
C451	C45	0.306800	0.703000	0.506100
C461	C46	0.362800	0.644300	0.506000
C471	C47	0.362300	0.759900	0.677600
C481	C48	0.545200	0.831700	0.467400
