data_LUNBIF_freeONLY_PM
_symmetry_space_group_name_H-M	'P1'
_cell_length_a	11.035500
_cell_length_b	15.693000
_cell_length_c	16.914000
_cell_angle_alpha	90.000000
_cell_angle_beta	90.000000
_cell_angle_gamma	90.000000
_symmetry_Int_Tables_number 1

loop_
_symmetry_equiv_pos_as_xyz
'x,y,z'

loop_
_atom_site_label
_atom_site_type_symbol
_atom_site_fract_x
_atom_site_fract_y
_atom_site_fract_z
Zn11	Zn1	0.500000	0.835400	0.282300
Zn21	Zn2	0.500000	0.164600	0.717700
Zn31	Zn3	0.000000	0.664600	0.782300
Zn41	Zn4	0.000000	0.335400	0.217700
W11	W1	0.621220	0.449930	0.063590
W21	W2	0.621220	0.550070	0.936410
W31	W3	0.878780	0.050070	0.563590
W41	W4	0.878780	0.949930	0.436410
W51	W5	0.378780	0.550070	0.936410
W61	W6	0.378780	0.449930	0.063590
W71	W7	0.121220	0.949930	0.436410
W81	W8	0.121220	0.050070	0.563590
W91	W9	0.500000	0.597320	0.066080
W101	W10	0.500000	0.402680	0.933920
W111	W11	0.000000	0.902680	0.566080
W121	W12	0.000000	0.097320	0.433920
C11	C1	0.769000	0.397300	0.131600
C21	C2	0.769000	0.602700	0.868400
C31	C3	0.731000	0.102700	0.631600
C41	C4	0.731000	0.897300	0.368400
C51	C5	0.231000	0.602700	0.868400
C61	C6	0.231000	0.397300	0.131600
C71	C7	0.269000	0.897300	0.368400
C81	C8	0.269000	0.102700	0.631600
C91	C9	0.500000	0.700000	0.140000
C101	C10	0.500000	0.300000	0.860000
C111	C11	0.000000	0.800000	0.640000
C121	C12	0.000000	0.200000	0.360000
S11	S1	0.721700	0.590500	0.061200
S21	S2	0.721700	0.409500	0.938800
S31	S3	0.778300	0.909500	0.561200
S41	S4	0.778300	0.090500	0.438800
S51	S5	0.278300	0.409500	0.938800
S61	S6	0.278300	0.590500	0.061200
S71	S7	0.221700	0.090500	0.438800
S81	S8	0.221700	0.909500	0.561200
S91	S9	0.500000	0.681000	0.942900
S101	S10	0.500000	0.497300	0.176900
S111	S11	0.500000	0.319000	0.057100
S121	S12	0.500000	0.502700	0.823100
S131	S13	0.000000	0.819000	0.442900
S141	S14	0.000000	0.002700	0.676900
S151	S15	0.000000	0.181000	0.557100
S161	S16	0.000000	0.997300	0.323100
N11	N1	0.846200	0.372100	0.171700
N21	N2	0.846200	0.627900	0.828300
N31	N3	0.653800	0.127900	0.671700
N41	N4	0.653800	0.872100	0.328300
N51	N5	0.153800	0.627900	0.828300
N61	N6	0.153800	0.372100	0.171700
N71	N7	0.346200	0.872100	0.328300
N81	N8	0.346200	0.127900	0.671700
N91	N9	0.500000	0.758000	0.192000
N101	N10	0.500000	0.242000	0.808000
N111	N11	0.000000	0.742000	0.692000
N121	N12	0.000000	0.258000	0.308000
