data_LUQGAG_freeONLY_PM
_symmetry_space_group_name_H-M	'P1'
_cell_length_a	12.458000
_cell_length_b	17.314500
_cell_length_c	17.314500
_cell_angle_alpha	82.563700
_cell_angle_beta	68.914800
_cell_angle_gamma	68.914800
_symmetry_Int_Tables_number 1

loop_
_symmetry_equiv_pos_as_xyz
'x,y,z'

loop_
_atom_site_label
_atom_site_type_symbol
_atom_site_fract_x
_atom_site_fract_y
_atom_site_fract_z
Co11	Co1	0.161590	0.176820	0.750000
Co21	Co2	0.588410	0.323180	0.750000
Co31	Co3	0.411590	0.250000	0.676820
Co41	Co4	0.838410	0.250000	0.823180
Co51	Co5	0.838410	0.823180	0.250000
Co61	Co6	0.411590	0.676820	0.250000
Co71	Co7	0.588410	0.750000	0.323180
Co81	Co8	0.161590	0.750000	0.176820
H11	H1	0.181200	0.016900	0.661500
H21	H2	0.821000	0.105700	0.738100
H31	H3	0.806400	0.015900	0.659900
H41	H4	0.359600	0.483100	0.838500
H51	H5	0.164800	0.394300	0.761900
H61	H6	0.982200	0.484100	0.840100
H71	H7	0.342700	0.338500	0.516900
H81	H8	0.059100	0.261900	0.605700
H91	H9	0.966300	0.340100	0.515900
H101	H10	0.698100	0.161500	0.983100
H111	H11	0.426700	0.238100	0.894300
H121	H12	0.322300	0.159900	0.984100
H131	H13	0.640400	0.161500	0.516900
H141	H14	0.835200	0.238100	0.605700
H151	H15	0.017800	0.159900	0.515900
H161	H16	0.818800	0.338500	0.983100
H171	H17	0.179000	0.261900	0.894300
H181	H18	0.193600	0.340100	0.984100
H191	H19	0.301900	0.016900	0.838500
H201	H20	0.573300	0.105700	0.761900
H211	H21	0.677700	0.015900	0.840100
H221	H22	0.657300	0.483100	0.661500
H231	H23	0.940900	0.394300	0.738100
H241	H24	0.033700	0.484100	0.659900
H251	H25	0.818800	0.983100	0.338500
H261	H26	0.179000	0.894300	0.261900
H271	H27	0.193600	0.984100	0.340100
H281	H28	0.640400	0.516900	0.161500
H291	H29	0.835200	0.605700	0.238100
H301	H30	0.017800	0.515900	0.159900
H311	H31	0.657300	0.661500	0.483100
H321	H32	0.940900	0.738100	0.394300
H331	H33	0.033700	0.659900	0.484100
H341	H34	0.301900	0.838500	0.016900
H351	H35	0.573300	0.761900	0.105700
H361	H36	0.677700	0.840100	0.015900
H371	H37	0.359600	0.838500	0.483100
H381	H38	0.164800	0.761900	0.394300
H391	H39	0.982200	0.840100	0.484100
H401	H40	0.181200	0.661500	0.016900
H411	H41	0.821000	0.738100	0.105700
H421	H42	0.806400	0.659900	0.015900
H431	H43	0.698100	0.983100	0.161500
H441	H44	0.426700	0.894300	0.238100
H451	H45	0.322300	0.984100	0.159900
H461	H46	0.342700	0.516900	0.338500
H471	H47	0.059100	0.605700	0.261900
H481	H48	0.966300	0.515900	0.340100
H491	H49	0.151200	0.952900	0.547100
H501	H50	0.798100	0.927000	0.573000
H511	H51	0.151200	0.547100	0.952900
H521	H52	0.798100	0.573000	0.927000
H531	H53	0.198300	0.452900	0.452900
H541	H54	0.871100	0.427000	0.427000
H551	H55	0.604100	0.047100	0.047100
H561	H56	0.225100	0.073000	0.073000
H571	H57	0.848800	0.047100	0.452900
H581	H58	0.201900	0.073000	0.427000
H591	H59	0.848800	0.452900	0.047100
H601	H60	0.201900	0.427000	0.073000
H611	H61	0.395900	0.952900	0.952900
H621	H62	0.774900	0.927000	0.927000
H631	H63	0.801700	0.547100	0.547100
H641	H64	0.128900	0.573000	0.573000
C11	C1	0.100100	0.049300	0.687100
C21	C2	0.999500	0.034400	0.682000
C31	C3	0.902600	0.097400	0.729000
C41	C4	0.989800	0.984500	0.621500
C51	C5	0.878600	0.981600	0.623400
C61	C6	0.336500	0.450700	0.812900
C71	C7	0.215900	0.465600	0.818000
C81	C8	0.229000	0.402600	0.771000
C91	C9	0.095800	0.515500	0.878500
C101	C10	0.983600	0.518400	0.876600
C111	C11	0.287200	0.312900	0.549300
C121	C12	0.181500	0.318000	0.534400
C131	C13	0.131600	0.271000	0.597400
C141	C14	0.111300	0.378500	0.484500
C151	C15	0.002000	0.376600	0.481600
C161	C16	0.649400	0.187100	0.950700
C171	C17	0.533900	0.182000	0.965600
C181	C18	0.500000	0.229000	0.902600
C191	C19	0.474300	0.121500	0.015500
C201	C20	0.360200	0.123400	0.018400
C211	C21	0.663500	0.187100	0.549300
C221	C22	0.784100	0.182000	0.534400
C231	C23	0.771000	0.229000	0.597400
C241	C24	0.904200	0.121500	0.484500
C251	C25	0.016400	0.123400	0.481600
C261	C26	0.899900	0.312900	0.950700
C271	C27	0.000500	0.318000	0.965600
C281	C28	0.097400	0.271000	0.902600
C291	C29	0.010200	0.378500	0.015500
C301	C30	0.121400	0.376600	0.018400
C311	C31	0.350600	0.049300	0.812900
C321	C32	0.466100	0.034400	0.818000
C331	C33	0.500000	0.097400	0.771000
C341	C34	0.525700	0.984500	0.878500
C351	C35	0.639800	0.981600	0.876600
C361	C36	0.712800	0.450700	0.687100
C371	C37	0.818500	0.465600	0.682000
C381	C38	0.868400	0.402600	0.729000
C391	C39	0.888700	0.515500	0.621500
C401	C40	0.998000	0.518400	0.623400
C411	C41	0.899900	0.950700	0.312900
C421	C42	0.000500	0.965600	0.318000
C431	C43	0.097400	0.902600	0.271000
C441	C44	0.010200	0.015500	0.378500
C451	C45	0.121400	0.018400	0.376600
C461	C46	0.663500	0.549300	0.187100
C471	C47	0.784100	0.534400	0.182000
C481	C48	0.771000	0.597400	0.229000
C491	C49	0.904200	0.484500	0.121500
C501	C50	0.016400	0.481600	0.123400
C511	C51	0.712800	0.687100	0.450700
C521	C52	0.818500	0.682000	0.465600
C531	C53	0.868400	0.729000	0.402600
C541	C54	0.888700	0.621500	0.515500
C551	C55	0.998000	0.623400	0.518400
C561	C56	0.350600	0.812900	0.049300
C571	C57	0.466100	0.818000	0.034400
C581	C58	0.500000	0.771000	0.097400
C591	C59	0.525700	0.878500	0.984500
C601	C60	0.639800	0.876600	0.981600
C611	C61	0.336500	0.812900	0.450700
C621	C62	0.215900	0.818000	0.465600
C631	C63	0.229000	0.771000	0.402600
C641	C64	0.095800	0.878500	0.515500
C651	C65	0.983600	0.876600	0.518400
C661	C66	0.100100	0.687100	0.049300
C671	C67	0.999500	0.682000	0.034400
C681	C68	0.902600	0.729000	0.097400
C691	C69	0.989800	0.621500	0.984500
C701	C70	0.878600	0.623400	0.981600
C711	C71	0.649400	0.950700	0.187100
C721	C72	0.533900	0.965600	0.182000
C731	C73	0.500000	0.902600	0.229000
C741	C74	0.474300	0.015500	0.121500
C751	C75	0.360200	0.018400	0.123400
C761	C76	0.287200	0.549300	0.312900
C771	C77	0.181500	0.534400	0.318000
C781	C78	0.131600	0.597400	0.271000
C791	C79	0.111300	0.484500	0.378500
C801	C80	0.002000	0.481600	0.376600
C811	C81	0.104700	0.921100	0.578900
C821	C82	0.873000	0.928100	0.571900
C831	C83	0.104700	0.578900	0.921100
C841	C84	0.873000	0.571900	0.928100
C851	C85	0.183600	0.421100	0.421100
C861	C86	0.944900	0.428100	0.428100
C871	C87	0.525800	0.078900	0.078900
C881	C88	0.301100	0.071900	0.071900
C891	C89	0.895300	0.078900	0.421100
C901	C90	0.127000	0.071900	0.428100
C911	C91	0.895300	0.421100	0.078900
C921	C92	0.127000	0.428100	0.071900
C931	C93	0.474200	0.921100	0.921100
C941	C94	0.698900	0.928100	0.928100
C951	C95	0.816400	0.578900	0.578900
C961	C96	0.055100	0.571900	0.571900
N11	N1	0.064800	0.115800	0.733200
N21	N2	0.940900	0.145400	0.760000
N31	N3	0.413800	0.384200	0.766800
N41	N4	0.346300	0.354600	0.740000
N51	N5	0.298000	0.266800	0.615800
N61	N6	0.200900	0.240000	0.645400
N71	N7	0.680600	0.233200	0.884200
N81	N8	0.586300	0.260000	0.854600
N91	N9	0.586200	0.233200	0.615800
N101	N10	0.653700	0.260000	0.645400
N111	N11	0.935200	0.266800	0.884200
N121	N12	0.059100	0.240000	0.854600
N131	N13	0.319400	0.115800	0.766800
N141	N14	0.413700	0.145400	0.740000
N151	N15	0.702000	0.384200	0.733200
N161	N16	0.799100	0.354600	0.760000
N171	N17	0.935200	0.884200	0.266800
N181	N18	0.059100	0.854600	0.240000
N191	N19	0.586200	0.615800	0.233200
N201	N20	0.653700	0.645400	0.260000
N211	N21	0.702000	0.733200	0.384200
N221	N22	0.799100	0.760000	0.354600
N231	N23	0.319400	0.766800	0.115800
N241	N24	0.413700	0.740000	0.145400
N251	N25	0.413800	0.766800	0.384200
N261	N26	0.346300	0.740000	0.354600
N271	N27	0.064800	0.733200	0.115800
N281	N28	0.940900	0.760000	0.145400
N291	N29	0.680600	0.884200	0.233200
N301	N30	0.586300	0.854600	0.260000
N311	N31	0.298000	0.615800	0.266800
N321	N32	0.200900	0.645400	0.240000
