data_LUSHIR_freeONLY_PM
_symmetry_space_group_name_H-M	'P1'
_cell_length_a	12.699200
_cell_length_b	12.699200
_cell_length_c	13.378100
_cell_angle_alpha	63.532500
_cell_angle_beta	63.532500
_cell_angle_gamma	88.397500
_symmetry_Int_Tables_number 1

loop_
_symmetry_equiv_pos_as_xyz
'x,y,z'

loop_
_atom_site_label
_atom_site_type_symbol
_atom_site_fract_x
_atom_site_fract_y
_atom_site_fract_z
Mn11	Mn1	0.500000	0.000000	0.000000
Mn21	Mn2	0.000000	0.500000	0.500000
Mn31	Mn3	0.305160	0.694840	0.250000
Mn41	Mn4	0.694840	0.305160	0.750000
H11	H1	0.748500	0.836500	0.770300
H21	H2	0.856100	0.728300	0.674600
H31	H3	0.651300	0.421300	0.993100
H41	H4	0.546400	0.529600	0.090700
H51	H5	0.237700	0.804700	0.006300
H61	H6	0.087500	0.859300	0.954700
H71	H7	0.046500	0.090100	0.091200
H81	H8	0.201100	0.035300	0.134500
H91	H9	0.163500	0.251500	0.729700
H101	H10	0.271700	0.143900	0.825400
H111	H11	0.578700	0.348700	0.506900
H121	H12	0.470400	0.453600	0.409300
H131	H13	0.195300	0.762300	0.493700
H141	H14	0.140700	0.912500	0.545300
H151	H15	0.909900	0.953500	0.408800
H161	H16	0.964700	0.798900	0.365500
H171	H17	0.251500	0.163500	0.229700
H181	H18	0.143900	0.271700	0.325400
H191	H19	0.348700	0.578700	0.006900
H201	H20	0.453600	0.470400	0.909300
H211	H21	0.762300	0.195300	0.993700
H221	H22	0.912500	0.140700	0.045300
H231	H23	0.953500	0.909900	0.908800
H241	H24	0.798900	0.964700	0.865500
H251	H25	0.836500	0.748500	0.270300
H261	H26	0.728300	0.856100	0.174600
H271	H27	0.421300	0.651300	0.493100
H281	H28	0.529600	0.546400	0.590700
H291	H29	0.804700	0.237700	0.506300
H301	H30	0.859300	0.087500	0.454700
H311	H31	0.090100	0.046500	0.591200
H321	H32	0.035300	0.201100	0.634500
C11	C1	0.559470	0.764330	0.001100
C21	C2	0.634650	0.694950	0.939500
C31	C3	0.728400	0.752800	0.815500
C41	C4	0.792800	0.688000	0.757800
C51	C5	0.763510	0.563090	0.823100
C61	C6	0.671000	0.505000	0.947900
C71	C7	0.607530	0.569870	0.006300
C81	C8	0.826280	0.493120	0.756100
C91	C9	0.198400	0.862400	0.023300
C101	C10	0.108500	0.895300	0.992400
C111	C11	0.048410	0.981590	0.016700
C121	C12	0.084600	0.032600	0.072500
C131	C13	0.175900	0.998500	0.100000
C141	C14	0.235670	0.440530	0.498900
C151	C15	0.305050	0.365350	0.560500
C161	C16	0.247200	0.271600	0.684500
C171	C17	0.312000	0.207200	0.742200
C181	C18	0.436910	0.236490	0.676900
C191	C19	0.495000	0.329000	0.552100
C201	C20	0.430130	0.392470	0.493700
C211	C21	0.506880	0.173720	0.743900
C221	C22	0.137600	0.801600	0.476700
C231	C23	0.104700	0.891500	0.507600
C241	C24	0.018410	0.951590	0.483300
C251	C25	0.967400	0.915400	0.427500
C261	C26	0.001500	0.824100	0.400000
C271	C27	0.440530	0.235670	0.998900
C281	C28	0.365350	0.305050	0.060500
C291	C29	0.271600	0.247200	0.184500
C301	C30	0.207200	0.312000	0.242200
C311	C31	0.236490	0.436910	0.176900
C321	C32	0.329000	0.495000	0.052100
C331	C33	0.392470	0.430130	0.993700
C341	C34	0.173720	0.506880	0.243900
C351	C35	0.801600	0.137600	0.976700
C361	C36	0.891500	0.104700	0.007600
C371	C37	0.951590	0.018410	0.983300
C381	C38	0.915400	0.967400	0.927500
C391	C39	0.824100	0.001500	0.900000
C401	C40	0.764330	0.559470	0.501100
C411	C41	0.694950	0.634650	0.439500
C421	C42	0.752800	0.728400	0.315500
C431	C43	0.688000	0.792800	0.257800
C441	C44	0.563090	0.763510	0.323100
C451	C45	0.505000	0.671000	0.447900
C461	C46	0.569870	0.607530	0.506300
C471	C47	0.493120	0.826280	0.256100
C481	C48	0.862400	0.198400	0.523300
C491	C49	0.895300	0.108500	0.492400
C501	C50	0.981590	0.048410	0.516700
C511	C51	0.032600	0.084600	0.572500
C521	C52	0.998500	0.175900	0.600000
N11	N1	0.229360	0.913120	0.077800
N21	N2	0.086880	0.770640	0.422200
N31	N3	0.770640	0.086880	0.922200
N41	N4	0.913120	0.229360	0.577800
O11	O1	0.479790	0.703010	0.115600
O21	O2	0.582300	0.876340	0.934600
O31	O3	0.782350	0.381850	0.813800
O41	O4	0.916630	0.549410	0.647900
O51	O5	0.315510	0.879470	0.109600
O61	O6	0.296990	0.520210	0.384400
O71	O7	0.123660	0.417700	0.565400
O81	O8	0.618150	0.217650	0.686200
O91	O9	0.450590	0.083370	0.852100
O101	O10	0.120530	0.684490	0.390400
O111	O11	0.520210	0.296990	0.884400
O121	O12	0.417700	0.123660	0.065400
O131	O13	0.217650	0.618150	0.186200
O141	O14	0.083370	0.450590	0.352100
O151	O15	0.684490	0.120530	0.890400
O161	O16	0.703010	0.479790	0.615600
O171	O17	0.876340	0.582300	0.434600
O181	O18	0.381850	0.782350	0.313800
O191	O19	0.549410	0.916630	0.147900
O201	O20	0.879470	0.315510	0.609600
