data_LUSZIJ01_freeONLY_PM
_symmetry_space_group_name_H-M	'P1'
_cell_length_a	7.315000
_cell_length_b	10.219000
_cell_length_c	18.168000
_cell_angle_alpha	90.000000
_cell_angle_beta	90.000000
_cell_angle_gamma	94.163000
_symmetry_Int_Tables_number 1

loop_
_symmetry_equiv_pos_as_xyz
'x,y,z'

loop_
_atom_site_label
_atom_site_type_symbol
_atom_site_fract_x
_atom_site_fract_y
_atom_site_fract_z
Cu11	Cu1	0.864520	0.215560	0.905330
Cu21	Cu2	0.038530	0.929580	0.931570
Cu31	Cu3	0.635480	0.284440	0.405330
Cu41	Cu4	0.461470	0.570420	0.431570
Cu51	Cu5	0.135480	0.784440	0.094670
Cu61	Cu6	0.961470	0.070420	0.068430
Cu71	Cu7	0.364520	0.715560	0.594670
Cu81	Cu8	0.538530	0.429580	0.568430
H11	H1	0.781900	0.165000	0.691500
H21	H2	0.934000	0.797600	0.706600
H31	H3	0.771900	0.937300	0.510800
H41	H4	0.718100	0.335000	0.191500
H51	H5	0.566000	0.702400	0.206600
H61	H6	0.728100	0.562700	0.010800
H71	H7	0.218100	0.835000	0.308500
H81	H8	0.066000	0.202400	0.293400
H91	H9	0.228100	0.062700	0.489200
H101	H10	0.281900	0.665000	0.808500
H111	H11	0.434000	0.297600	0.793400
H121	H12	0.271900	0.437300	0.989200
C11	C1	0.856600	0.849700	0.604300
C21	C2	0.766800	0.067600	0.595200
C31	C3	0.801000	0.084700	0.669700
C41	C4	0.863000	0.984500	0.712400
C51	C5	0.898800	0.008100	0.792500
C61	C6	0.891600	0.866000	0.679100
C71	C7	0.794200	0.949500	0.560800
C81	C8	0.692700	0.178400	0.552500
C91	C9	0.643400	0.650300	0.104300
C101	C10	0.733200	0.432400	0.095200
C111	C11	0.699000	0.415300	0.169700
C121	C12	0.637000	0.515500	0.212400
C131	C13	0.601200	0.491900	0.292500
C141	C14	0.608400	0.634000	0.179100
C151	C15	0.705800	0.550500	0.060800
C161	C16	0.807300	0.321600	0.052500
C171	C17	0.143400	0.150300	0.395700
C181	C18	0.233200	0.932400	0.404800
C191	C19	0.199000	0.915300	0.330300
C201	C20	0.137000	0.015500	0.287600
C211	C21	0.101200	0.991900	0.207500
C221	C22	0.108400	0.134000	0.320900
C231	C23	0.205800	0.050500	0.439200
C241	C24	0.307300	0.821600	0.447500
C251	C25	0.356600	0.349700	0.895700
C261	C26	0.266800	0.567600	0.904800
C271	C27	0.301000	0.584700	0.830300
C281	C28	0.363000	0.484500	0.787600
C291	C29	0.398800	0.508100	0.707500
C301	C30	0.391600	0.366000	0.820900
C311	C31	0.294200	0.449500	0.939200
C321	C32	0.192700	0.678400	0.947500
S11	S1	0.875800	0.690630	0.564870
S21	S2	0.624200	0.809370	0.064870
S31	S3	0.124200	0.309370	0.435130
S41	S4	0.375800	0.190630	0.935130
O11	O1	0.942300	0.914800	0.832400
O21	O2	0.868100	0.058100	0.965500
O31	O3	0.657500	0.162600	0.485900
O41	O4	0.876700	0.124100	0.813700
O51	O5	0.856900	0.699700	0.486800
O61	O6	0.675000	0.281700	0.589400
O71	O7	0.725800	0.611000	0.599100
O81	O8	0.051300	0.646400	0.590800
O91	O9	0.880700	0.376200	0.844000
O101	O10	0.557700	0.585200	0.332400
O111	O11	0.631900	0.441900	0.465500
O121	O12	0.842500	0.337400	0.985900
O131	O13	0.623300	0.375900	0.313700
O141	O14	0.643100	0.800300	0.986800
O151	O15	0.825000	0.218300	0.089400
O161	O16	0.774200	0.889000	0.099100
O171	O17	0.448700	0.853600	0.090800
O181	O18	0.619300	0.123800	0.344000
O191	O19	0.057700	0.085200	0.167600
O201	O20	0.131900	0.941900	0.034500
O211	O21	0.342500	0.837400	0.514100
O221	O22	0.123300	0.875900	0.186300
O231	O23	0.143100	0.300300	0.513200
O241	O24	0.325000	0.718300	0.410600
O251	O25	0.274200	0.389000	0.400900
O261	O26	0.948700	0.353600	0.409200
O271	O27	0.119300	0.623800	0.156000
O281	O28	0.442300	0.414800	0.667600
O291	O29	0.368100	0.558100	0.534500
O301	O30	0.157500	0.662600	0.014100
O311	O31	0.376700	0.624100	0.686300
O321	O32	0.356900	0.199700	0.013200
O331	O33	0.175000	0.781700	0.910600
O341	O34	0.225800	0.111000	0.900900
O351	O35	0.551300	0.146400	0.909200
O361	O36	0.380700	0.876200	0.656000
