data_LUSZOP_freeONLY_PM
_symmetry_space_group_name_H-M	'P1'
_cell_length_a	7.333300
_cell_length_b	10.172900
_cell_length_c	18.153000
_cell_angle_alpha	90.000000
_cell_angle_beta	90.000000
_cell_angle_gamma	94.379000
_symmetry_Int_Tables_number 1

loop_
_symmetry_equiv_pos_as_xyz
'x,y,z'

loop_
_atom_site_label
_atom_site_type_symbol
_atom_site_fract_x
_atom_site_fract_y
_atom_site_fract_z
Cu11	Cu1	0.865570	0.217100	0.905730
Cu21	Cu2	0.044010	0.931940	0.931450
Cu31	Cu3	0.634430	0.282900	0.405730
Cu41	Cu4	0.455990	0.568060	0.431450
Cu51	Cu5	0.134430	0.782900	0.094270
Cu61	Cu6	0.955990	0.068060	0.068550
Cu71	Cu7	0.365570	0.717100	0.594270
Cu81	Cu8	0.544010	0.431940	0.568550
H11	H1	0.782500	0.165600	0.692200
H21	H2	0.937900	0.796200	0.706700
H31	H3	0.778900	0.938100	0.511600
H41	H4	0.717500	0.334400	0.192200
H51	H5	0.562100	0.703800	0.206700
H61	H6	0.721100	0.561900	0.011600
H71	H7	0.217500	0.834400	0.307800
H81	H8	0.062100	0.203800	0.293300
H91	H9	0.221100	0.061900	0.488400
H101	H10	0.282500	0.665600	0.807800
H111	H11	0.437900	0.296200	0.793300
H121	H12	0.278900	0.438100	0.988400
C11	C1	0.862800	0.849700	0.604500
C21	C2	0.771600	0.070100	0.595500
C31	C3	0.804300	0.085900	0.670000
C41	C4	0.869300	0.985200	0.713100
C51	C5	0.902300	0.009300	0.792400
C61	C6	0.896900	0.865300	0.679300
C71	C7	0.800700	0.950300	0.561700
C81	C8	0.699700	0.183000	0.553600
C91	C9	0.637200	0.650300	0.104500
C101	C10	0.728400	0.429900	0.095500
C111	C11	0.695700	0.414100	0.170000
C121	C12	0.630700	0.514800	0.213100
C131	C13	0.597700	0.490700	0.292400
C141	C14	0.603100	0.634700	0.179300
C151	C15	0.699300	0.549700	0.061700
C161	C16	0.800300	0.317000	0.053600
C171	C17	0.137200	0.150300	0.395500
C181	C18	0.228400	0.929900	0.404500
C191	C19	0.195700	0.914100	0.330000
C201	C20	0.130700	0.014800	0.286900
C211	C21	0.097700	0.990700	0.207600
C221	C22	0.103100	0.134700	0.320700
C231	C23	0.199300	0.049700	0.438300
C241	C24	0.300300	0.817000	0.446400
C251	C25	0.362800	0.349700	0.895500
C261	C26	0.271600	0.570100	0.904500
C271	C27	0.304300	0.585900	0.830000
C281	C28	0.369300	0.485200	0.786900
C291	C29	0.402300	0.509300	0.707600
C301	C30	0.396900	0.365300	0.820700
C311	C31	0.300700	0.450300	0.938300
C321	C32	0.199700	0.683000	0.946400
S11	S1	0.880170	0.691040	0.565480
S21	S2	0.619830	0.808960	0.065480
S31	S3	0.119830	0.308960	0.434520
S41	S4	0.380170	0.191040	0.934520
O11	O1	0.947300	0.914100	0.832200
O21	O2	0.870400	0.057100	0.965300
O31	O3	0.659500	0.163500	0.487000
O41	O4	0.881600	0.125400	0.814200
O51	O5	0.871800	0.702600	0.487200
O61	O6	0.686900	0.286200	0.590100
O71	O7	0.726000	0.613000	0.596800
O81	O8	0.049800	0.645000	0.593300
O91	O9	0.882300	0.377700	0.844900
O101	O10	0.552700	0.585900	0.332200
O111	O11	0.629600	0.442900	0.465300
O121	O12	0.840500	0.336500	0.987000
O131	O13	0.618400	0.374600	0.314200
O141	O14	0.628200	0.797400	0.987200
O151	O15	0.813100	0.213800	0.090100
O161	O16	0.774000	0.887000	0.096800
O171	O17	0.450200	0.855000	0.093300
O181	O18	0.617700	0.122300	0.344900
O191	O19	0.052700	0.085900	0.167800
O201	O20	0.129600	0.942900	0.034700
O211	O21	0.340500	0.836500	0.513000
O221	O22	0.118400	0.874600	0.185800
O231	O23	0.128200	0.297400	0.512800
O241	O24	0.313100	0.713800	0.409900
O251	O25	0.274000	0.387000	0.403200
O261	O26	0.950200	0.355000	0.406700
O271	O27	0.117700	0.622300	0.155100
O281	O28	0.447300	0.414100	0.667800
O291	O29	0.370400	0.557100	0.534700
O301	O30	0.159500	0.663500	0.013000
O311	O31	0.381600	0.625400	0.685800
O321	O32	0.371800	0.202600	0.012800
O331	O33	0.186900	0.786200	0.909900
O341	O34	0.226000	0.113000	0.903200
O351	O35	0.549800	0.145000	0.906700
O361	O36	0.382300	0.877700	0.655100
