data_LUWYUY_freeONLY_PM
_symmetry_space_group_name_H-M	'P1'
_cell_length_a	11.736800
_cell_length_b	11.736800
_cell_length_c	15.462000
_cell_angle_alpha	82.001100
_cell_angle_beta	82.001100
_cell_angle_gamma	76.690600
_symmetry_Int_Tables_number 1

loop_
_symmetry_equiv_pos_as_xyz
'x,y,z'

loop_
_atom_site_label
_atom_site_type_symbol
_atom_site_fract_x
_atom_site_fract_y
_atom_site_fract_z
Cd11	Cd1	0.971960	0.464230	0.128450
Cd21	Cd2	0.535770	0.028040	0.371550
H11	H1	0.884900	0.404700	0.453600
H21	H2	0.767400	0.362600	0.581200
H31	H3	0.577300	0.342900	0.576600
H41	H4	0.615500	0.422900	0.315400
H51	H5	0.315200	0.346000	0.495600
H61	H6	0.395900	0.383100	0.554500
H71	H7	0.817800	0.283200	0.116100
H81	H8	0.810500	0.090300	0.124500
H91	H9	0.809500	0.918300	0.109100
H101	H10	0.810200	0.722800	0.115900
H111	H11	0.133400	0.635200	0.166100
H121	H12	0.143600	0.827800	0.160600
H131	H13	0.153600	0.008400	0.131000
H141	H14	0.150400	0.203800	0.124900
H151	H15	0.595300	0.115100	0.046400
H161	H16	0.637400	0.232600	0.918800
H171	H17	0.657100	0.422700	0.923400
H181	H18	0.577100	0.384500	0.184600
H191	H19	0.654000	0.684800	0.004400
H201	H20	0.616900	0.604100	0.945500
H211	H21	0.716800	0.182200	0.383900
H221	H22	0.909700	0.189500	0.375500
H231	H23	0.081700	0.190500	0.390900
H241	H24	0.277200	0.189800	0.384100
H251	H25	0.364800	0.866600	0.333900
H261	H26	0.172200	0.856400	0.339400
H271	H27	0.991600	0.846400	0.369000
H281	H28	0.796200	0.849600	0.375100
C11	C1	0.837200	0.441660	0.286580
C21	C2	0.761610	0.417250	0.371270
C31	C3	0.807600	0.399140	0.451310
C41	C4	0.737480	0.372880	0.527340
C51	C5	0.623280	0.361520	0.524850
C61	C6	0.577690	0.377830	0.445350
C71	C7	0.646960	0.408340	0.368860
C81	C8	0.395450	0.332610	0.509960
C91	C9	0.432700	0.205660	0.547940
C101	C10	0.887920	0.227120	0.119100
C111	C11	0.882760	0.110360	0.123700
C121	C12	0.981150	0.024810	0.127170
C131	C13	0.977780	0.898500	0.131860
C141	C14	0.877850	0.862650	0.119800
C151	C15	0.879170	0.744370	0.123700
C161	C16	0.067630	0.693230	0.153000
C171	C17	0.074210	0.809210	0.150200
C181	C18	0.082480	0.062680	0.127800
C191	C19	0.079710	0.181310	0.123800
C201	C20	0.558340	0.162800	0.213420
C211	C21	0.582750	0.238390	0.128730
C221	C22	0.600860	0.192400	0.048690
C231	C23	0.627120	0.262520	0.972660
C241	C24	0.638480	0.376720	0.975150
C251	C25	0.622170	0.422310	0.054650
C261	C26	0.591660	0.353040	0.131140
C271	C27	0.667390	0.604550	0.990040
C281	C28	0.794340	0.567300	0.952060
C291	C29	0.772880	0.112080	0.380900
C301	C30	0.889640	0.117240	0.376300
C311	C31	0.975190	0.018850	0.372830
C321	C32	0.101500	0.022220	0.368140
C331	C33	0.137350	0.122150	0.380200
C341	C34	0.255630	0.120830	0.376300
C351	C35	0.306770	0.932370	0.347000
C361	C36	0.190790	0.925790	0.349800
C371	C37	0.937320	0.917520	0.372200
C381	C38	0.818690	0.920290	0.376200
N11	N1	0.984340	0.264500	0.118590
N21	N2	0.972410	0.660030	0.137850
N31	N3	0.735500	0.015660	0.381410
N41	N4	0.339970	0.027590	0.362150
O11	O1	0.788440	0.484640	0.218390
O21	O2	0.947330	0.413330	0.285080
O31	O3	0.467990	0.365770	0.433570
O41	O4	0.478990	0.126970	0.499180
O51	O5	0.410140	0.182120	0.629390
O61	O6	0.515360	0.211560	0.281610
O71	O7	0.586670	0.052670	0.214920
O81	O8	0.634230	0.532010	0.066430
O91	O9	0.873030	0.521010	0.000820
O101	O10	0.817880	0.589860	0.870610
Cd31	Cd3	0.028040	0.535770	0.871550
Cd41	Cd4	0.464230	0.971960	0.628450
H291	H29	0.115100	0.595300	0.546400
H301	H30	0.232600	0.637400	0.418800
H311	H31	0.422700	0.657100	0.423400
H321	H32	0.384500	0.577100	0.684600
H331	H33	0.684800	0.654000	0.504400
H341	H34	0.604100	0.616900	0.445500
H351	H35	0.182200	0.716800	0.883900
H361	H36	0.189500	0.909700	0.875500
H371	H37	0.190500	0.081700	0.890900
H381	H38	0.189800	0.277200	0.884100
H391	H39	0.866600	0.364800	0.833900
H401	H40	0.856400	0.172200	0.839400
H411	H41	0.846400	0.991600	0.869000
H421	H42	0.849600	0.796200	0.875100
H431	H43	0.404700	0.884900	0.953600
H441	H44	0.362600	0.767400	0.081200
H451	H45	0.342900	0.577300	0.076600
H461	H46	0.422900	0.615500	0.815400
H471	H47	0.346000	0.315200	0.995600
H481	H48	0.383100	0.395900	0.054500
H491	H49	0.283200	0.817800	0.616100
H501	H50	0.090300	0.810500	0.624500
H511	H51	0.918300	0.809500	0.609100
H521	H52	0.722800	0.810200	0.615900
H531	H53	0.635200	0.133400	0.666100
H541	H54	0.827800	0.143600	0.660600
H551	H55	0.008400	0.153600	0.631000
H561	H56	0.203800	0.150400	0.624900
C391	C39	0.162800	0.558340	0.713420
C401	C40	0.238390	0.582750	0.628730
C411	C41	0.192400	0.600860	0.548690
C421	C42	0.262520	0.627120	0.472660
C431	C43	0.376720	0.638480	0.475150
C441	C44	0.422310	0.622170	0.554650
C451	C45	0.353040	0.591660	0.631140
C461	C46	0.604550	0.667390	0.490040
C471	C47	0.567300	0.794340	0.452060
C481	C48	0.112080	0.772880	0.880900
C491	C49	0.117240	0.889640	0.876300
C501	C50	0.018850	0.975190	0.872830
C511	C51	0.022220	0.101500	0.868140
C521	C52	0.122150	0.137350	0.880200
C531	C53	0.120830	0.255630	0.876300
C541	C54	0.932370	0.306770	0.847000
C551	C55	0.925790	0.190790	0.849800
C561	C56	0.917520	0.937320	0.872200
C571	C57	0.920290	0.818690	0.876200
C581	C58	0.441660	0.837200	0.786580
C591	C59	0.417250	0.761610	0.871270
C601	C60	0.399140	0.807600	0.951310
C611	C61	0.372880	0.737480	0.027340
C621	C62	0.361520	0.623280	0.024850
C631	C63	0.377830	0.577690	0.945350
C641	C64	0.408340	0.646960	0.868860
C651	C65	0.332610	0.395450	0.009960
C661	C66	0.205660	0.432700	0.047940
C671	C67	0.227120	0.887920	0.619100
C681	C68	0.110360	0.882760	0.623700
C691	C69	0.024810	0.981150	0.627170
C701	C70	0.898500	0.977780	0.631860
C711	C71	0.862650	0.877850	0.619800
C721	C72	0.744370	0.879170	0.623700
C731	C73	0.693230	0.067630	0.653000
C741	C74	0.809210	0.074210	0.650200
C751	C75	0.062680	0.082480	0.627800
C761	C76	0.181310	0.079710	0.623800
N51	N5	0.015660	0.735500	0.881410
N61	N6	0.027590	0.339970	0.862150
N71	N7	0.264500	0.984340	0.618590
N81	N8	0.660030	0.972410	0.637850
O111	O11	0.211560	0.515360	0.781610
O121	O12	0.052670	0.586670	0.714920
O131	O13	0.532010	0.634230	0.566430
O141	O14	0.521010	0.873030	0.500820
O151	O15	0.589860	0.817880	0.370610
O161	O16	0.484640	0.788440	0.718390
O171	O17	0.413330	0.947330	0.785080
O181	O18	0.365770	0.467990	0.933570
O191	O19	0.126970	0.478990	0.999180
O201	O20	0.182120	0.410140	0.129390
