data_MABKIK_freeONLY_PM
_symmetry_space_group_name_H-M	'P1'
_cell_length_a	23.911000
_cell_length_b	11.868500
_cell_length_c	9.206300
_cell_angle_alpha	90.000000
_cell_angle_beta	90.350000
_cell_angle_gamma	90.000000
_symmetry_Int_Tables_number 1

loop_
_symmetry_equiv_pos_as_xyz
'x,y,z'

loop_
_atom_site_label
_atom_site_type_symbol
_atom_site_fract_x
_atom_site_fract_y
_atom_site_fract_z
Cu11	Cu1	0.204990	0.227690	0.421460
N11	N1	0.139810	0.166900	0.275900
O11	O1	0.234880	0.075200	0.454300
O21	O2	0.311990	0.110500	0.584700
O31	O3	0.335860	0.726100	0.892400
O41	O4	0.258110	0.750500	0.761300
C11	C1	0.278740	0.044900	0.520600
C21	C2	0.289700	0.920200	0.524700
H11	H1	0.289300	0.891500	0.423800
H21	H2	0.258500	0.883400	0.576700
C31	C3	0.344430	0.884100	0.596500
H31	H3	0.350900	0.930300	0.684500
H41	H4	0.375600	0.898400	0.528800
C41	C4	0.344380	0.758200	0.639300
H51	H5	0.328400	0.712700	0.559000
H61	H6	0.383200	0.732500	0.657100
C51	C5	0.310210	0.742300	0.774000
C61	C6	0.143930	0.064100	0.217600
H71	H7	0.173900	0.017000	0.247900
C71	C7	0.106730	0.023200	0.115700
H81	H8	0.111900	0.950300	0.075500
C81	C8	0.061490	0.089200	0.071800
C91	C9	0.056800	0.194800	0.132400
H91	H9	0.026700	0.242900	0.105400
C101	C10	0.096150	0.230300	0.233000
H101	H10	0.092100	0.303300	0.273900
C111	C11	0.019010	0.044400	0.964900
H111	H11	0.038600	0.010400	0.881300
H121	H12	0.995800	0.107500	0.928100
Cu21	Cu2	0.704990	0.727690	0.421460
N21	N2	0.639810	0.666900	0.275900
O51	O5	0.734880	0.575200	0.454300
O61	O6	0.811990	0.610500	0.584700
O71	O7	0.835860	0.226100	0.892400
O81	O8	0.758110	0.250500	0.761300
C121	C12	0.778740	0.544900	0.520600
C131	C13	0.789700	0.420200	0.524700
H131	H13	0.789300	0.391500	0.423800
H141	H14	0.758500	0.383400	0.576700
C141	C14	0.844430	0.384100	0.596500
H151	H15	0.850900	0.430300	0.684500
H161	H16	0.875600	0.398400	0.528800
C151	C15	0.844380	0.258200	0.639300
H171	H17	0.828400	0.212700	0.559000
H181	H18	0.883200	0.232500	0.657100
C161	C16	0.810210	0.242300	0.774000
C171	C17	0.643930	0.564100	0.217600
H191	H19	0.673900	0.517000	0.247900
C181	C18	0.606730	0.523200	0.115700
H201	H20	0.611900	0.450300	0.075500
C191	C19	0.561490	0.589200	0.071800
C201	C20	0.556800	0.694800	0.132400
H211	H21	0.526700	0.742900	0.105400
C211	C21	0.596150	0.730300	0.233000
H221	H22	0.592100	0.803300	0.273900
C221	C22	0.519010	0.544400	0.964900
H231	H23	0.538600	0.510400	0.881300
H241	H24	0.495800	0.607500	0.928100
Cu31	Cu3	0.795010	0.227690	0.078540
N31	N3	0.860190	0.166900	0.224100
O91	O9	0.765120	0.075200	0.045700
O101	O10	0.688010	0.110500	0.915300
O111	O11	0.664140	0.726100	0.607600
O121	O12	0.741890	0.750500	0.738700
C231	C23	0.721260	0.044900	0.979400
C241	C24	0.710300	0.920200	0.975300
H251	H25	0.710700	0.891500	0.076200
H261	H26	0.741500	0.883400	0.923300
C251	C25	0.655570	0.884100	0.903500
H271	H27	0.649100	0.930300	0.815500
H281	H28	0.624400	0.898400	0.971200
C261	C26	0.655620	0.758200	0.860700
H291	H29	0.671600	0.712700	0.941000
H301	H30	0.616800	0.732500	0.842900
C271	C27	0.689790	0.742300	0.726000
C281	C28	0.856070	0.064100	0.282400
H311	H31	0.826100	0.017000	0.252100
C291	C29	0.893270	0.023200	0.384300
H321	H32	0.888100	0.950300	0.424500
C301	C30	0.938510	0.089200	0.428200
C311	C31	0.943200	0.194800	0.367600
H331	H33	0.973300	0.242900	0.394600
C321	C32	0.903850	0.230300	0.267000
H341	H34	0.907900	0.303300	0.226100
C331	C33	0.980990	0.044400	0.535100
H351	H35	0.961400	0.010400	0.618700
H361	H36	0.004200	0.107500	0.571900
Cu41	Cu4	0.295010	0.727690	0.078540
N41	N4	0.360190	0.666900	0.224100
O131	O13	0.265120	0.575200	0.045700
O141	O14	0.188010	0.610500	0.915300
O151	O15	0.164140	0.226100	0.607600
O161	O16	0.241890	0.250500	0.738700
C341	C34	0.221260	0.544900	0.979400
C351	C35	0.210300	0.420200	0.975300
H371	H37	0.210700	0.391500	0.076200
H381	H38	0.241500	0.383400	0.923300
C361	C36	0.155570	0.384100	0.903500
H391	H39	0.149100	0.430300	0.815500
H401	H40	0.124400	0.398400	0.971200
C371	C37	0.155620	0.258200	0.860700
H411	H41	0.171600	0.212700	0.941000
H421	H42	0.116800	0.232500	0.842900
C381	C38	0.189790	0.242300	0.726000
C391	C39	0.356070	0.564100	0.282400
H431	H43	0.326100	0.517000	0.252100
C401	C40	0.393270	0.523200	0.384300
H441	H44	0.388100	0.450300	0.424500
C411	C41	0.438510	0.589200	0.428200
C421	C42	0.443200	0.694800	0.367600
H451	H45	0.473300	0.742900	0.394600
C431	C43	0.403850	0.730300	0.267000
H461	H46	0.407900	0.803300	0.226100
C441	C44	0.480990	0.544400	0.535100
H471	H47	0.461400	0.510400	0.618700
H481	H48	0.504200	0.607500	0.571900
Cu51	Cu5	0.795010	0.772310	0.578540
N51	N5	0.860190	0.833100	0.724100
O171	O17	0.765120	0.924800	0.545700
O181	O18	0.688010	0.889500	0.415300
O191	O19	0.664140	0.273900	0.107600
O201	O20	0.741890	0.249500	0.238700
C451	C45	0.721260	0.955100	0.479400
C461	C46	0.710300	0.079800	0.475300
H491	H49	0.710700	0.108500	0.576200
H501	H50	0.741500	0.116600	0.423300
C471	C47	0.655570	0.115900	0.403500
H511	H51	0.649100	0.069700	0.315500
H521	H52	0.624400	0.101600	0.471200
C481	C48	0.655620	0.241800	0.360700
H531	H53	0.671600	0.287300	0.441000
H541	H54	0.616800	0.267500	0.342900
C491	C49	0.689790	0.257700	0.226000
C501	C50	0.856070	0.935900	0.782400
H551	H55	0.826100	0.983000	0.752100
C511	C51	0.893270	0.976800	0.884300
H561	H56	0.888100	0.049700	0.924500
C521	C52	0.938510	0.910800	0.928200
C531	C53	0.943200	0.805200	0.867600
H571	H57	0.973300	0.757100	0.894600
C541	C54	0.903850	0.769700	0.767000
H581	H58	0.907900	0.696700	0.726100
C551	C55	0.980990	0.955600	0.035100
H591	H59	0.961400	0.989600	0.118700
H601	H60	0.004200	0.892500	0.071900
Cu61	Cu6	0.295010	0.272310	0.578540
N61	N6	0.360190	0.333100	0.724100
O211	O21	0.265120	0.424800	0.545700
O221	O22	0.188010	0.389500	0.415300
O231	O23	0.164140	0.773900	0.107600
O241	O24	0.241890	0.749500	0.238700
C561	C56	0.221260	0.455100	0.479400
C571	C57	0.210300	0.579800	0.475300
H611	H61	0.210700	0.608500	0.576200
H621	H62	0.241500	0.616600	0.423300
C581	C58	0.155570	0.615900	0.403500
H631	H63	0.149100	0.569700	0.315500
H641	H64	0.124400	0.601600	0.471200
C591	C59	0.155620	0.741800	0.360700
H651	H65	0.171600	0.787300	0.441000
H661	H66	0.116800	0.767500	0.342900
C601	C60	0.189790	0.757700	0.226000
C611	C61	0.356070	0.435900	0.782400
H671	H67	0.326100	0.483000	0.752100
C621	C62	0.393270	0.476800	0.884300
H681	H68	0.388100	0.549700	0.924500
C631	C63	0.438510	0.410800	0.928200
C641	C64	0.443200	0.305200	0.867600
H691	H69	0.473300	0.257100	0.894600
C651	C65	0.403850	0.269700	0.767000
H701	H70	0.407900	0.196700	0.726100
C661	C66	0.480990	0.455600	0.035100
H711	H71	0.461400	0.489600	0.118700
H721	H72	0.504200	0.392500	0.071900
Cu71	Cu7	0.204990	0.772310	0.921460
N71	N7	0.139810	0.833100	0.775900
O251	O25	0.234880	0.924800	0.954300
O261	O26	0.311990	0.889500	0.084700
O271	O27	0.335860	0.273900	0.392400
O281	O28	0.258110	0.249500	0.261300
C671	C67	0.278740	0.955100	0.020600
C681	C68	0.289700	0.079800	0.024700
H731	H73	0.289300	0.108500	0.923800
H741	H74	0.258500	0.116600	0.076700
C691	C69	0.344430	0.115900	0.096500
H751	H75	0.350900	0.069700	0.184500
H761	H76	0.375600	0.101600	0.028800
C701	C70	0.344380	0.241800	0.139300
H771	H77	0.328400	0.287300	0.059000
H781	H78	0.383200	0.267500	0.157100
C711	C71	0.310210	0.257700	0.274000
C721	C72	0.143930	0.935900	0.717600
H791	H79	0.173900	0.983000	0.747900
C731	C73	0.106730	0.976800	0.615700
H801	H80	0.111900	0.049700	0.575500
C741	C74	0.061490	0.910800	0.571800
C751	C75	0.056800	0.805200	0.632400
H811	H81	0.026700	0.757100	0.605400
C761	C76	0.096150	0.769700	0.733000
H821	H82	0.092100	0.696700	0.773900
C771	C77	0.019010	0.955600	0.464900
H831	H83	0.038600	0.989600	0.381300
H841	H84	0.995800	0.892500	0.428100
Cu81	Cu8	0.704990	0.272310	0.921460
N81	N8	0.639810	0.333100	0.775900
O291	O29	0.734880	0.424800	0.954300
O301	O30	0.811990	0.389500	0.084700
O311	O31	0.835860	0.773900	0.392400
O321	O32	0.758110	0.749500	0.261300
C781	C78	0.778740	0.455100	0.020600
C791	C79	0.789700	0.579800	0.024700
H851	H85	0.789300	0.608500	0.923800
H861	H86	0.758500	0.616600	0.076700
C801	C80	0.844430	0.615900	0.096500
H871	H87	0.850900	0.569700	0.184500
H881	H88	0.875600	0.601600	0.028800
C811	C81	0.844380	0.741800	0.139300
H891	H89	0.828400	0.787300	0.059000
H901	H90	0.883200	0.767500	0.157100
C821	C82	0.810210	0.757700	0.274000
C831	C83	0.643930	0.435900	0.717600
H911	H91	0.673900	0.483000	0.747900
C841	C84	0.606730	0.476800	0.615700
H921	H92	0.611900	0.549700	0.575500
C851	C85	0.561490	0.410800	0.571800
C861	C86	0.556800	0.305200	0.632400
H931	H93	0.526700	0.257100	0.605400
C871	C87	0.596150	0.269700	0.733000
H941	H94	0.592100	0.196700	0.773900
C881	C88	0.519010	0.455600	0.464900
H951	H95	0.538600	0.489600	0.381300
H961	H96	0.495800	0.392500	0.428100
