data_MAFLUD_freeONLY_PM
_symmetry_space_group_name_H-M	'P1'
_cell_length_a	9.176800
_cell_length_b	10.901700
_cell_length_c	11.396100
_cell_angle_alpha	117.938000
_cell_angle_beta	100.535000
_cell_angle_gamma	98.517000
_symmetry_Int_Tables_number 1

loop_
_symmetry_equiv_pos_as_xyz
'x,y,z'

loop_
_atom_site_label
_atom_site_type_symbol
_atom_site_fract_x
_atom_site_fract_y
_atom_site_fract_z
Zn11	Zn1	0.309860	0.374630	0.377050
O11	O1	0.203400	0.390500	0.225200
O21	O2	0.241500	0.213700	0.403600
O31	O3	0.039800	0.506400	0.326900
O41	O4	0.031600	0.291000	0.422400
N11	N1	0.347300	0.555500	0.560400
C11	C1	0.933300	0.549100	0.108400
H11	H1	0.888400	0.581500	0.180500
N21	N2	0.232200	0.596700	0.612500
N31	N3	0.482400	0.640700	0.655300
C21	C2	0.130800	0.998100	0.456400
H21	H2	0.219700	0.997600	0.428200
C31	C3	0.112000	0.209500	0.427900
C41	C4	0.923000	0.103700	0.509900
H31	H3	0.872000	0.173600	0.517800
C51	C5	0.113800	0.429400	0.001400
H41	H4	0.189700	0.381600	0.002100
C61	C6	0.295500	0.710000	0.741400
H51	H5	0.242500	0.760700	0.802200
C71	C7	0.053500	0.100400	0.464400
C81	C8	0.098300	0.456900	0.230600
C91	C9	0.048700	0.478400	0.111000
C101	C10	0.451300	0.737700	0.767400
H61	H6	0.523500	0.811200	0.849000
Zn21	Zn2	0.690140	0.625370	0.622950
O51	O5	0.796600	0.609500	0.774800
O61	O6	0.758500	0.786300	0.596400
O71	O7	0.960200	0.493600	0.673100
O81	O8	0.968400	0.709000	0.577600
N41	N4	0.652700	0.444500	0.439600
C111	C11	0.066700	0.450900	0.891600
H71	H7	0.111600	0.418500	0.819500
N51	N5	0.767800	0.403300	0.387500
N61	N6	0.517600	0.359300	0.344700
C121	C12	0.869200	0.001900	0.543600
H81	H8	0.780300	0.002400	0.571800
C131	C13	0.888000	0.790500	0.572100
C141	C14	0.077000	0.896300	0.490100
H91	H9	0.128000	0.826400	0.482200
C151	C15	0.886200	0.570600	0.998600
H101	H10	0.810300	0.618400	0.997900
C161	C16	0.704500	0.290000	0.258600
H111	H11	0.757500	0.239300	0.197800
C171	C17	0.946500	0.899600	0.535600
C181	C18	0.901700	0.543100	0.769400
C191	C19	0.951300	0.521600	0.889000
C201	C20	0.548700	0.262300	0.232600
H121	H12	0.476500	0.188800	0.151000
Zn31	Zn3	0.000000	0.500000	0.500000
