data_MAGCUU_freeONLY_PM
_symmetry_space_group_name_H-M	'P1'
_cell_length_a	10.946400
_cell_length_b	15.907600
_cell_length_c	16.160400
_cell_angle_alpha	89.592000
_cell_angle_beta	89.682000
_cell_angle_gamma	86.288000
_symmetry_Int_Tables_number 1

loop_
_symmetry_equiv_pos_as_xyz
'x,y,z'

loop_
_atom_site_label
_atom_site_type_symbol
_atom_site_fract_x
_atom_site_fract_y
_atom_site_fract_z
Fe11	Fe1	0.973320	0.279360	0.247600
N11	N1	0.010300	0.200690	0.140520
N21	N2	0.988300	0.027490	0.026120
N31	N3	0.939400	0.357470	0.354400
N41	N4	0.967100	0.487430	0.527690
N51	N5	0.953300	0.169810	0.322840
N61	N6	0.999500	0.033180	0.480140
N71	N7	0.999300	0.387670	0.173690
N81	N8	0.042300	0.522300	0.007430
N91	N9	0.167000	0.271820	0.277300
N101	N10	0.488300	0.264320	0.287730
N111	N11	0.779600	0.282120	0.220950
N121	N12	0.459900	0.262840	0.214580
C11	C1	0.036200	0.156100	0.086900
C21	C2	0.067100	0.100300	0.014200
C31	C3	0.203800	0.073600	0.013800
H11	H1	0.226300	0.047100	0.067600
H21	H2	0.221100	0.031200	0.970000
C41	C4	0.281100	0.147500	0.998700
H31	H3	0.368400	0.127200	0.995900
H41	H4	0.270800	0.187000	0.045600
C51	C5	0.246000	0.193900	0.918700
H51	H5	0.294700	0.243900	0.912700
H61	H6	0.265000	0.156400	0.871100
C61	C6	0.111000	0.221400	0.918600
H71	H7	0.089500	0.247500	0.864400
H81	H8	0.094700	0.264600	0.961700
C71	C7	0.030400	0.148700	0.934600
H91	H9	0.037000	0.109700	0.887100
H101	H10	0.944000	0.170800	0.939200
C81	C8	0.922700	0.386920	0.418100
C91	C9	0.898400	0.413330	0.504720
C101	C10	0.941100	0.339300	0.562070
H111	H11	0.027000	0.321000	0.548600
H121	H12	0.938200	0.358600	0.620200
C111	C11	0.861300	0.264900	0.553100
H131	H13	0.872100	0.241200	0.496900
H141	H14	0.887700	0.220400	0.593500
C121	C12	0.727400	0.291000	0.567400
H151	H15	0.715100	0.308600	0.625600
H161	H16	0.677800	0.242200	0.557700
C131	C13	0.684100	0.362900	0.510500
H171	H17	0.598200	0.380800	0.524300
H181	H18	0.686300	0.342800	0.452600
C141	C14	0.762300	0.438300	0.517200
H191	H19	0.749800	0.464100	0.572400
H201	H20	0.735600	0.481000	0.475100
C151	C15	0.942800	0.108900	0.358740
C161	C16	0.918100	0.031000	0.405780
C171	C17	0.945800	0.953000	0.352900
H211	H21	0.936800	0.901900	0.387200
H221	H22	0.031600	0.952000	0.333100
C181	C18	0.860100	0.951700	0.278800
H231	H23	0.876200	0.999000	0.241000
H241	H24	0.876700	0.898500	0.248100
C191	C19	0.727200	0.959100	0.305700
H251	H25	0.708600	0.908100	0.337600
H261	H26	0.674400	0.962200	0.256100
C201	C20	0.698500	0.036900	0.358700
H271	H27	0.706600	0.088100	0.324500
H281	H28	0.612700	0.037200	0.378500
C211	C21	0.783400	0.039100	0.432700
H291	H29	0.766900	0.992400	0.471100
H301	H30	0.766800	0.092700	0.462600
C221	C22	0.036400	0.442100	0.136840
C231	C23	0.094600	0.510320	0.091470
C241	C24	0.231700	0.486200	0.083800
H311	H31	0.243500	0.428900	0.060500
H321	H32	0.269100	0.525700	0.045000
C251	C25	0.296000	0.488400	0.166800
H331	H33	0.267400	0.443000	0.202800
H341	H34	0.385200	0.477500	0.158100
C261	C26	0.272300	0.572300	0.209800
H351	H35	0.309700	0.616900	0.177200
H361	H36	0.311200	0.569600	0.265000
C271	C27	0.136000	0.594400	0.219700
H371	H37	0.123300	0.650900	0.244800
H381	H38	0.100500	0.553100	0.257500
C281	C28	0.070500	0.594050	0.136660
H391	H39	0.098500	0.640300	0.101500
H401	H40	0.981300	0.604500	0.145900
C291	C29	0.263700	0.264830	0.303670
C301	C30	0.383800	0.259490	0.346140
C311	C31	0.404200	0.175100	0.392000
H411	H41	0.394300	0.128700	0.352700
H421	H42	0.489200	0.169600	0.413000
C321	C32	0.316300	0.166600	0.463800
H431	H43	0.337800	0.113300	0.493900
H441	H44	0.232200	0.163900	0.442200
C331	C33	0.319500	0.239900	0.523400
H451	H45	0.256700	0.234300	0.567000
H461	H46	0.400600	0.238500	0.550400
C341	C34	0.295800	0.323200	0.478800
H471	H47	0.303400	0.369700	0.518500
H481	H48	0.211000	0.327200	0.457500
C351	C35	0.385000	0.333600	0.406820
H491	H49	0.468800	0.337100	0.428800
H501	H50	0.362400	0.386900	0.377000
C361	C36	0.683000	0.273940	0.197010
C371	C37	0.565300	0.259460	0.156160
C381	C38	0.574300	0.170200	0.119900
H511	H51	0.602100	0.129500	0.163600
H521	H52	0.492100	0.155700	0.101800
C391	C39	0.662700	0.162200	0.046700
H531	H53	0.747200	0.167700	0.066600
H541	H54	0.659100	0.105600	0.022100
C401	C40	0.632600	0.228900	0.980700
H551	H55	0.695000	0.223900	0.936200
H561	H56	0.552100	0.219300	0.956100
C411	C41	0.629200	0.316600	0.016700
H571	H57	0.605500	0.358300	0.973000
H581	H58	0.712000	0.328200	0.036100
C421	C42	0.539200	0.326600	0.088500
H591	H59	0.455000	0.322200	0.067600
H601	H60	0.543900	0.383300	0.112700
Fe21	Fe2	0.026680	0.720640	0.752400
N131	N13	0.989700	0.799310	0.859480
N141	N14	0.011700	0.972510	0.973880
N151	N15	0.060600	0.642530	0.645600
N161	N16	0.032900	0.512570	0.472310
N171	N17	0.046700	0.830190	0.677160
N181	N18	0.000500	0.966820	0.519860
N191	N19	0.000700	0.612330	0.826310
N201	N20	0.957700	0.477700	0.992570
N211	N21	0.833000	0.728180	0.722700
N221	N22	0.511700	0.735680	0.712270
N231	N23	0.220400	0.717880	0.779050
N241	N24	0.540100	0.737160	0.785420
C431	C43	0.963800	0.843900	0.913100
C441	C44	0.932900	0.899700	0.985800
C451	C45	0.796200	0.926400	0.986200
H611	H61	0.773700	0.952900	0.932400
H621	H62	0.778900	0.968800	0.030000
C461	C46	0.718900	0.852500	0.001300
H631	H63	0.631600	0.872800	0.004100
H641	H64	0.729200	0.813000	0.954400
C471	C47	0.754000	0.806100	0.081300
H651	H65	0.705300	0.756100	0.087300
H661	H66	0.735000	0.843600	0.128900
C481	C48	0.889000	0.778600	0.081400
H671	H67	0.910500	0.752500	0.135600
H681	H68	0.905300	0.735400	0.038300
C491	C49	0.969600	0.851300	0.065400
H691	H69	0.963000	0.890300	0.112900
H701	H70	0.056000	0.829200	0.060800
C501	C50	0.077300	0.613080	0.581900
C511	C51	0.101600	0.586670	0.495280
C521	C52	0.058900	0.660700	0.437930
H711	H71	0.973000	0.679000	0.451400
H721	H72	0.061800	0.641400	0.379800
C531	C53	0.138700	0.735100	0.446900
H731	H73	0.127900	0.758800	0.503100
H741	H74	0.112300	0.779600	0.406500
C541	C54	0.272600	0.709000	0.432600
H751	H75	0.284900	0.691400	0.374400
H761	H76	0.322200	0.757800	0.442300
C551	C55	0.315900	0.637100	0.489500
H771	H77	0.401800	0.619200	0.475700
H781	H78	0.313700	0.657200	0.547400
C561	C56	0.237700	0.561700	0.482800
H791	H79	0.250200	0.535900	0.427600
H801	H80	0.264400	0.519000	0.524900
C571	C57	0.057200	0.891100	0.641260
C581	C58	0.081900	0.969000	0.594220
C591	C59	0.054200	0.047000	0.647100
H811	H81	0.063200	0.098100	0.612800
H821	H82	0.968400	0.048000	0.666900
C601	C60	0.139900	0.048300	0.721200
H831	H83	0.123800	0.001000	0.759000
H841	H84	0.123300	0.101500	0.751900
C611	C61	0.272800	0.040900	0.694300
H851	H85	0.291400	0.091900	0.662400
H861	H86	0.325600	0.037800	0.743900
C621	C62	0.301500	0.963100	0.641300
H871	H87	0.293400	0.911900	0.675500
H881	H88	0.387300	0.962800	0.621500
C631	C63	0.216600	0.960900	0.567300
H891	H89	0.233100	0.007600	0.528900
H901	H90	0.233200	0.907300	0.537400
C641	C64	0.963600	0.557900	0.863160
C651	C65	0.905400	0.489680	0.908530
C661	C66	0.768300	0.513800	0.916200
H911	H91	0.756500	0.571100	0.939500
H921	H92	0.730900	0.474300	0.955000
C671	C67	0.704000	0.511600	0.833200
H931	H93	0.732600	0.557000	0.797200
H941	H94	0.614800	0.522500	0.841900
C681	C68	0.727700	0.427700	0.790200
H951	H95	0.690300	0.383100	0.822800
H961	H96	0.688800	0.430400	0.735000
C691	C69	0.864000	0.405600	0.780300
H971	H97	0.876700	0.349100	0.755200
H981	H98	0.899500	0.446900	0.742500
C701	C70	0.929500	0.405950	0.863340
H991	H99	0.901500	0.359700	0.898500
H1001	H100	0.018700	0.395500	0.854100
C711	C71	0.736300	0.735170	0.696330
C721	C72	0.616200	0.740510	0.653860
C731	C73	0.595800	0.824900	0.608000
H1011	H101	0.605700	0.871300	0.647300
H1021	H102	0.510800	0.830400	0.587000
C741	C74	0.683700	0.833400	0.536200
H1031	H103	0.662200	0.886700	0.506100
H1041	H104	0.767800	0.836100	0.557800
C751	C75	0.680500	0.760100	0.476600
H1051	H105	0.743300	0.765700	0.433000
H1061	H106	0.599400	0.761500	0.449600
C761	C76	0.704200	0.676800	0.521200
H1071	H107	0.696600	0.630300	0.481500
H1081	H108	0.789000	0.672800	0.542500
C771	C77	0.615000	0.666400	0.593180
H1091	H109	0.531200	0.662900	0.571200
H1101	H110	0.637600	0.613100	0.623000
C781	C78	0.317000	0.726060	0.802990
C791	C79	0.434700	0.740540	0.843840
C801	C80	0.425700	0.829800	0.880100
H1111	H111	0.397900	0.870500	0.836400
H1121	H112	0.507900	0.844300	0.898200
C811	C81	0.337300	0.837800	0.953300
H1131	H113	0.252800	0.832300	0.933400
H1141	H114	0.340900	0.894400	0.977900
C821	C82	0.367400	0.771100	0.019300
H1151	H115	0.305000	0.776100	0.063800
H1161	H116	0.447900	0.780700	0.043900
C831	C83	0.370800	0.683400	0.983300
H1171	H117	0.394500	0.641700	0.027000
H1181	H118	0.288000	0.671800	0.963900
C841	C84	0.460800	0.673400	0.911500
H1191	H119	0.545000	0.677800	0.932400
H1201	H120	0.456100	0.616700	0.887300
