data_MAGDAB_freeONLY_PM
_symmetry_space_group_name_H-M	'P1'
_cell_length_a	10.906800
_cell_length_b	15.858000
_cell_length_c	16.104700
_cell_angle_alpha	89.575000
_cell_angle_beta	89.485000
_cell_angle_gamma	85.889000
_symmetry_Int_Tables_number 1

loop_
_symmetry_equiv_pos_as_xyz
'x,y,z'

loop_
_atom_site_label
_atom_site_type_symbol
_atom_site_fract_x
_atom_site_fract_y
_atom_site_fract_z
Fe11	Fe1	0.974260	0.279050	0.747110
N11	N1	0.013000	0.200300	0.638400
N21	N2	0.988900	0.027600	0.525400
N31	N3	0.938300	0.357300	0.855100
N41	N4	0.966000	0.487300	0.027700
N51	N5	0.952100	0.168000	0.820600
N61	N6	0.999900	0.033400	0.980200
N71	N7	0.001900	0.388200	0.673900
N81	N8	0.042200	0.523100	0.507700
N91	N9	0.166900	0.270000	0.778100
N101	N10	0.490400	0.264200	0.788600
N111	N11	0.780800	0.282700	0.718800
N121	N12	0.459900	0.262600	0.714600
C11	C1	0.039700	0.156500	0.585100
C21	C2	0.068600	0.100400	0.512800
C31	C3	0.205400	0.070000	0.511900
H11	H1	0.227400	0.043400	0.566100
H21	H2	0.220800	0.026800	0.468300
C41	C4	0.285400	0.142600	0.495500
H31	H3	0.372600	0.120700	0.492500
H41	H4	0.276400	0.183000	0.542200
C51	C5	0.250300	0.188600	0.414400
H51	H5	0.301500	0.237200	0.406800
H61	H6	0.267000	0.149700	0.367200
C61	C6	0.115700	0.219900	0.414600
H71	H7	0.094500	0.245400	0.359900
H81	H8	0.101500	0.264400	0.457200
C71	C7	0.031900	0.148600	0.432900
H91	H9	0.036100	0.108800	0.385700
H101	H10	0.945900	0.172600	0.438300
C81	C8	0.921500	0.385800	0.918700
C91	C9	0.898400	0.413200	0.005900
C101	C10	0.941600	0.339500	0.062500
H111	H11	0.939600	0.359000	0.120800
H121	H12	0.027800	0.320900	0.048300
C111	C11	0.861400	0.263600	0.055000
H131	H13	0.871400	0.239100	0.998800
H141	H14	0.888400	0.219400	0.095900
C121	C12	0.727800	0.291700	0.070300
H151	H15	0.677400	0.242800	0.063500
H161	H16	0.717400	0.311500	0.128300
C131	C13	0.682100	0.361600	0.012100
H171	H17	0.595200	0.379000	0.025500
H181	H18	0.686000	0.340600	0.954300
C141	C14	0.760100	0.438100	0.019300
H191	H19	0.747400	0.463400	0.075000
H201	H20	0.732500	0.481300	0.977500
C151	C15	0.942300	0.107100	0.857700
C161	C16	0.917900	0.030100	0.906100
C171	C17	0.943700	0.950300	0.853000
H211	H21	0.029800	0.947800	0.832700
H221	H22	0.933600	0.899600	0.887900
C181	C18	0.857900	0.949600	0.779300
H231	H23	0.874100	0.896200	0.748400
H241	H24	0.873500	0.997100	0.741400
C191	C19	0.724500	0.957600	0.808300
H251	H25	0.670400	0.960000	0.759200
H261	H26	0.707100	0.906800	0.841200
C201	C20	0.695700	0.035200	0.860200
H271	H27	0.609800	0.035500	0.880800
H281	H28	0.702500	0.086200	0.825100
C211	C21	0.781900	0.038900	0.934100
H291	H29	0.766100	0.992900	0.973800
H301	H30	0.765200	0.093500	0.963100
C221	C22	0.035800	0.443300	0.637500
C231	C23	0.093300	0.512100	0.591600
C241	C24	0.233900	0.489600	0.583200
H311	H31	0.247900	0.432400	0.559200
H321	H32	0.269700	0.530100	0.544500
C251	C25	0.298400	0.491700	0.665700
H331	H33	0.388100	0.481200	0.656800
H341	H34	0.270600	0.446100	0.702100
C261	C26	0.271800	0.577100	0.708500
H351	H35	0.310900	0.575400	0.763800
H361	H36	0.307900	0.622000	0.675100
C271	C27	0.133400	0.598100	0.718600
H371	H37	0.099100	0.556500	0.756900
H381	H38	0.118800	0.654800	0.743500
C281	C28	0.067800	0.596600	0.635900
H391	H39	0.095100	0.642700	0.599900
H401	H40	0.978200	0.607000	0.645300
C291	C29	0.264200	0.264400	0.804800
C301	C30	0.384900	0.259200	0.847300
C311	C31	0.407700	0.174600	0.893500
H411	H41	0.397900	0.127800	0.854300
H421	H42	0.493300	0.169400	0.913700
C321	C32	0.320100	0.166000	0.966900
H431	H43	0.342800	0.112700	0.997100
H441	H44	0.235300	0.163300	0.946200
C331	C33	0.323700	0.240800	0.027100
H451	H45	0.261900	0.235400	0.071900
H461	H46	0.405800	0.240200	0.052900
C341	C34	0.296400	0.323900	0.980100
H471	H47	0.211700	0.325900	0.958300
H481	H48	0.301200	0.371600	0.018900
C351	C35	0.386300	0.334000	0.908300
H491	H49	0.470300	0.337100	0.930300
H501	H50	0.363800	0.387600	0.878300
C361	C36	0.682500	0.274400	0.694700
C371	C37	0.563900	0.259800	0.654400
C381	C38	0.535500	0.327800	0.588600
H511	H51	0.541000	0.384200	0.613600
H521	H52	0.450300	0.324100	0.569000
C391	C39	0.624600	0.318500	0.514100
H531	H53	0.598900	0.360600	0.470800
H541	H54	0.708400	0.329800	0.532000
C401	C40	0.626300	0.229000	0.477600
H551	H55	0.544000	0.219500	0.455500
H561	H56	0.686200	0.223900	0.431000
C411	C41	0.661000	0.162600	0.543000
H571	H57	0.746100	0.169200	0.561500
H581	H58	0.658600	0.105700	0.518400
C421	C42	0.574000	0.170000	0.617500
H591	H59	0.603700	0.129100	0.660900
H601	H60	0.491400	0.155100	0.600400
Fe21	Fe2	0.025740	0.720950	0.252890
N131	N13	0.987000	0.799700	0.361600
N141	N14	0.011100	0.972400	0.474600
N151	N15	0.061700	0.642700	0.144900
N161	N16	0.034000	0.512700	0.972300
N171	N17	0.047900	0.832000	0.179400
N181	N18	0.000100	0.966600	0.019800
N191	N19	0.998100	0.611800	0.326100
N201	N20	0.957800	0.476900	0.492300
N211	N21	0.833100	0.730000	0.221900
N221	N22	0.509600	0.735800	0.211400
N231	N23	0.219200	0.717300	0.281200
N241	N24	0.540100	0.737400	0.285400
C431	C43	0.960300	0.843500	0.414900
C441	C44	0.931400	0.899600	0.487200
C451	C45	0.794600	0.930000	0.488100
H611	H61	0.772600	0.956600	0.433900
H621	H62	0.779200	0.973200	0.531700
C461	C46	0.714600	0.857400	0.504500
H631	H63	0.627400	0.879300	0.507500
H641	H64	0.723600	0.817000	0.457800
C471	C47	0.749700	0.811400	0.585600
H651	H65	0.698500	0.762800	0.593200
H661	H66	0.733000	0.850300	0.632800
C481	C48	0.884300	0.780100	0.585400
H671	H67	0.905500	0.754600	0.640100
H681	H68	0.898500	0.735600	0.542800
C491	C49	0.968100	0.851400	0.567100
H691	H69	0.963900	0.891200	0.614300
H701	H70	0.054100	0.827400	0.561700
C501	C50	0.078500	0.614200	0.081300
C511	C51	0.101600	0.586800	0.994100
C521	C52	0.058400	0.660500	0.937500
H711	H71	0.060400	0.641000	0.879200
H721	H72	0.972200	0.679100	0.951700
C531	C53	0.138600	0.736400	0.945000
H731	H73	0.128600	0.760900	0.001200
H741	H74	0.111600	0.780600	0.904100
C541	C54	0.272200	0.708300	0.929700
H751	H75	0.322600	0.757200	0.936500
H761	H76	0.282600	0.688500	0.871700
C551	C55	0.317900	0.638400	0.987900
H771	H77	0.404800	0.621000	0.974500
H781	H78	0.314000	0.659400	0.045700
C561	C56	0.239900	0.561900	0.980700
H791	H79	0.252600	0.536600	0.925000
H801	H80	0.267500	0.518700	0.022500
C571	C57	0.057700	0.892900	0.142300
C581	C58	0.082100	0.969900	0.093900
C591	C59	0.056300	0.049700	0.147000
H811	H81	0.970200	0.052200	0.167300
H821	H82	0.066400	0.100400	0.112100
C601	C60	0.142100	0.050400	0.220700
H831	H83	0.125900	0.103800	0.251600
H841	H84	0.126500	0.002900	0.258600
C611	C61	0.275500	0.042400	0.191700
H851	H85	0.329600	0.040000	0.240800
H861	H86	0.292900	0.093200	0.158800
C621	C62	0.304300	0.964800	0.139800
H871	H87	0.390200	0.964500	0.119200
H881	H88	0.297500	0.913800	0.174900
C631	C63	0.218100	0.961100	0.065900
H891	H89	0.233900	0.007100	0.026200
H901	H90	0.234800	0.906500	0.036900
C641	C64	0.964200	0.556700	0.362500
C651	C65	0.906700	0.487900	0.408400
C661	C66	0.766100	0.510400	0.416800
H911	H91	0.752100	0.567600	0.440800
H921	H92	0.730300	0.469900	0.455500
C671	C67	0.701600	0.508300	0.334300
H931	H93	0.611900	0.518800	0.343200
H941	H94	0.729400	0.553900	0.297900
C681	C68	0.728200	0.422900	0.291500
H951	H95	0.689100	0.424600	0.236200
H961	H96	0.692100	0.378000	0.324900
C691	C69	0.866600	0.401900	0.281400
H971	H97	0.900900	0.443500	0.243100
H981	H98	0.881200	0.345200	0.256500
C701	C70	0.932200	0.403400	0.364100
H991	H99	0.904900	0.357300	0.400100
H1001	H100	0.021800	0.393000	0.354700
C711	C71	0.735800	0.735600	0.195200
C721	C72	0.615100	0.740800	0.152700
C731	C73	0.592300	0.825400	0.106500
H1011	H101	0.602100	0.872200	0.145700
H1021	H102	0.506700	0.830600	0.086300
C741	C74	0.679900	0.834000	0.033100
H1031	H103	0.657200	0.887300	0.002900
H1041	H104	0.764700	0.836700	0.053800
C751	C75	0.676300	0.759200	0.972900
H1051	H105	0.738100	0.764600	0.928100
H1061	H106	0.594200	0.759800	0.947100
C761	C76	0.703600	0.676100	0.019900
H1071	H107	0.788300	0.674100	0.041700
H1081	H108	0.698800	0.628400	0.981100
C771	C77	0.613700	0.666000	0.091700
H1091	H109	0.529700	0.662900	0.069700
H1101	H110	0.636200	0.612400	0.121700
C781	C78	0.317500	0.725600	0.305300
C791	C79	0.436100	0.740200	0.345600
C801	C80	0.464500	0.672200	0.411400
H1111	H111	0.459000	0.615800	0.386400
H1121	H112	0.549700	0.675900	0.431000
C811	C81	0.375400	0.681500	0.485900
H1131	H113	0.401100	0.639400	0.529200
H1141	H114	0.291600	0.670200	0.468000
C821	C82	0.373700	0.771000	0.522400
H1151	H115	0.456000	0.780500	0.544500
H1161	H116	0.313800	0.776100	0.569000
C831	C83	0.339000	0.837400	0.457000
H1171	H117	0.253900	0.830800	0.438500
H1181	H118	0.341400	0.894300	0.481600
C841	C84	0.426000	0.830000	0.382500
H1191	H119	0.396300	0.870900	0.339100
H1201	H120	0.508600	0.844900	0.399600
