data_magnetochemistry3010001_PF362NdCl_freeONLY_PM
_symmetry_space_group_name_H-M	'P1'
_cell_length_a	7.987000
_cell_length_b	8.534000
_cell_length_c	11.259000
_cell_angle_alpha	71.961000
_cell_angle_beta	84.270000
_cell_angle_gamma	68.045000
_symmetry_Int_Tables_number 1

loop_
_symmetry_equiv_pos_as_xyz
'x,y,z'

loop_
_atom_site_label
_atom_site_type_symbol
_atom_site_fract_x
_atom_site_fract_y
_atom_site_fract_z
Nd11	Nd1	0.785910	0.258100	0.977970
O11	O1	0.937700	0.963400	0.120500
O21	O2	0.080000	0.272700	0.025100
O31	O3	0.761200	0.344000	0.172900
O41	O4	0.515900	0.457800	0.867000
O51	O5	0.902400	0.296400	0.755800
O61	O6	0.200800	0.439100	0.079300
O71	O7	0.541800	0.179400	0.109000
O81	O8	0.692100	0.070700	0.885100
C11	C1	0.084300	0.414100	0.030700
N11	N1	0.966900	0.183400	0.548300
N21	N2	0.768900	0.365100	0.406900
C21	C2	0.048100	0.056800	0.666500
H11	H1	0.178200	0.010900	0.658400
H21	H2	0.006800	0.958500	0.685700
C31	C3	0.798100	0.232400	0.511300
H31	H3	0.714600	0.182400	0.551600
C41	C4	0.596000	0.452000	0.337100
H41	H4	0.543800	0.574500	0.338200
H51	H5	0.512900	0.394400	0.378400
C51	C5	0.617300	0.447700	0.201800
C61	C6	0.047000	0.285000	0.465200
H61	H6	0.166900	0.275600	0.469000
C71	C7	0.928000	0.400000	0.378800
H71	H7	0.945900	0.487400	0.311300
C81	C8	0.001300	0.138600	0.773300
Nd21	Nd2	0.214090	0.741900	0.022030
O91	O9	0.062300	0.036600	0.879500
O101	O10	0.920000	0.727300	0.974900
O111	O11	0.238800	0.656000	0.827100
O121	O12	0.484100	0.542200	0.133000
O131	O13	0.097600	0.703600	0.244200
O141	O14	0.799200	0.560900	0.920700
O151	O15	0.458200	0.820600	0.891000
O161	O16	0.307900	0.929300	0.114900
C91	C9	0.915700	0.585900	0.969300
N31	N3	0.033100	0.816600	0.451700
N41	N4	0.231100	0.634900	0.593100
C101	C10	0.951900	0.943200	0.333500
H81	H8	0.821800	0.989100	0.341600
H91	H9	0.993200	0.041500	0.314300
C111	C11	0.201900	0.767600	0.488700
H101	H10	0.285400	0.817600	0.448400
C121	C12	0.404000	0.548000	0.662900
H111	H11	0.456200	0.425500	0.661800
H121	H12	0.487100	0.605600	0.621600
C131	C13	0.382700	0.552300	0.798200
C141	C14	0.953000	0.715000	0.534800
H131	H13	0.833100	0.724400	0.531000
C151	C15	0.072000	0.600000	0.621200
H141	H14	0.054100	0.512600	0.688700
C161	C16	0.998700	0.861400	0.226700
