data_MAGNEQ_freeONLY_PM
_symmetry_space_group_name_H-M	'P1'
_cell_length_a	10.033800
_cell_length_b	8.282700
_cell_length_c	11.158300
_cell_angle_alpha	90.000000
_cell_angle_beta	90.000000
_cell_angle_gamma	90.000000
_symmetry_Int_Tables_number 1

loop_
_symmetry_equiv_pos_as_xyz
'x,y,z'

loop_
_atom_site_label
_atom_site_type_symbol
_atom_site_fract_x
_atom_site_fract_y
_atom_site_fract_z
Cu11	Cu1	0.204370	0.001180	0.268440
O11	O1	0.462300	0.052300	0.330700
O21	O2	0.312900	0.188200	0.223400
O31	O3	0.014900	0.098300	0.185700
O41	O4	0.871900	0.301500	0.168400
O51	O5	0.182800	0.107900	0.428700
O61	O6	0.242800	0.115100	0.619600
C11	C1	0.426500	0.171800	0.270200
H11	H1	0.489400	0.256100	0.258700
C21	C2	0.969500	0.232100	0.217200
H21	H2	0.011500	0.285200	0.282600
C31	C3	0.230500	0.041600	0.521400
H31	H3	0.258100	0.932000	0.516700
Cu21	Cu2	0.295630	0.998820	0.768440
O71	O7	0.037700	0.947700	0.830700
O81	O8	0.187100	0.811800	0.723400
O91	O9	0.485100	0.901700	0.685700
O101	O10	0.628100	0.698500	0.668400
O111	O11	0.317200	0.892100	0.928700
O121	O12	0.257200	0.884900	0.119600
C41	C4	0.073500	0.828200	0.770200
H41	H4	0.010600	0.743900	0.758700
C51	C5	0.530500	0.767900	0.717200
H51	H5	0.488500	0.714800	0.782600
C61	C6	0.269500	0.958400	0.021400
H61	H6	0.241900	0.068000	0.016700
Cu31	Cu3	0.795630	0.501180	0.231560
O131	O13	0.537700	0.552300	0.169300
O141	O14	0.687100	0.688200	0.276600
O151	O15	0.985100	0.598300	0.314300
O161	O16	0.128100	0.801500	0.331600
O171	O17	0.817200	0.607900	0.071300
O181	O18	0.757200	0.615100	0.880400
C71	C7	0.573500	0.671800	0.229800
H71	H7	0.510600	0.756100	0.241300
C81	C8	0.030500	0.732100	0.282800
H81	H8	0.988500	0.785200	0.217400
C91	C9	0.769500	0.541600	0.978600
H91	H9	0.741900	0.432000	0.983300
Cu41	Cu4	0.704370	0.498820	0.731560
O191	O19	0.962300	0.447700	0.669300
O201	O20	0.812900	0.311800	0.776600
O211	O21	0.514900	0.401700	0.814300
O221	O22	0.371900	0.198500	0.831600
O231	O23	0.682800	0.392100	0.571300
O241	O24	0.742800	0.384900	0.380400
C101	C10	0.926500	0.328200	0.729800
H101	H10	0.989400	0.243900	0.741300
C111	C11	0.469500	0.267900	0.782800
H111	H11	0.511500	0.214800	0.717400
C121	C12	0.730500	0.458400	0.478600
H121	H12	0.758100	0.568000	0.483300
