data_MAGNEQ04_freeONLY_PM
_symmetry_space_group_name_H-M	'P1'
_cell_length_a	10.141000
_cell_length_b	8.232900
_cell_length_c	11.099000
_cell_angle_alpha	90.000000
_cell_angle_beta	90.000000
_cell_angle_gamma	90.000000
_symmetry_Int_Tables_number 1

loop_
_symmetry_equiv_pos_as_xyz
'x,y,z'

loop_
_atom_site_label
_atom_site_type_symbol
_atom_site_fract_x
_atom_site_fract_y
_atom_site_fract_z
Cu11	Cu1	0.204970	0.001060	0.265980
O11	O1	0.463300	0.055300	0.327800
O21	O2	0.312100	0.187900	0.223000
O31	O3	0.014600	0.102500	0.184500
O41	O4	0.872100	0.302000	0.175200
O51	O5	0.183300	0.103500	0.427600
O61	O6	0.243600	0.111300	0.616100
C11	C1	0.424800	0.173200	0.268300
H11	H1	0.484100	0.257800	0.256300
C21	C2	0.968300	0.232800	0.217700
H21	H2	0.010500	0.284100	0.281700
C31	C3	0.229900	0.040000	0.518500
H31	H3	0.256500	0.932000	0.513700
Cu21	Cu2	0.295030	0.998940	0.765980
O71	O7	0.036700	0.944700	0.827800
O81	O8	0.187900	0.812100	0.723000
O91	O9	0.485400	0.897500	0.684500
O101	O10	0.627900	0.698000	0.675200
O111	O11	0.316700	0.896500	0.927600
O121	O12	0.256400	0.888700	0.116100
C41	C4	0.075200	0.826800	0.768300
H41	H4	0.015900	0.742200	0.756300
C51	C5	0.531700	0.767200	0.717700
H51	H5	0.489500	0.715900	0.781700
C61	C6	0.270100	0.960000	0.018500
H61	H6	0.243500	0.068000	0.013700
Cu31	Cu3	0.795030	0.501060	0.234020
O131	O13	0.536700	0.555300	0.172200
O141	O14	0.687900	0.687900	0.277000
O151	O15	0.985400	0.602500	0.315500
O161	O16	0.127900	0.802000	0.324800
O171	O17	0.816700	0.603500	0.072400
O181	O18	0.756400	0.611300	0.883900
C71	C7	0.575200	0.673200	0.231700
H71	H7	0.515900	0.757800	0.243700
C81	C8	0.031700	0.732800	0.282300
H81	H8	0.989500	0.784100	0.218300
C91	C9	0.770100	0.540000	0.981500
H91	H9	0.743500	0.432000	0.986300
Cu41	Cu4	0.704970	0.498940	0.734020
O191	O19	0.963300	0.444700	0.672200
O201	O20	0.812100	0.312100	0.777000
O211	O21	0.514600	0.397500	0.815500
O221	O22	0.372100	0.198000	0.824800
O231	O23	0.683300	0.396500	0.572400
O241	O24	0.743600	0.388700	0.383900
C101	C10	0.924800	0.326800	0.731700
H101	H10	0.984100	0.242200	0.743700
C111	C11	0.468300	0.267200	0.782300
H111	H11	0.510500	0.215900	0.718300
C121	C12	0.729900	0.460000	0.481500
H121	H12	0.756500	0.568000	0.486300
