data_MAGNEQ01_freeONLY_PM
_symmetry_space_group_name_H-M	'P1'
_cell_length_a	10.072900
_cell_length_b	8.278900
_cell_length_c	11.153500
_cell_angle_alpha	90.000000
_cell_angle_beta	90.000000
_cell_angle_gamma	90.000000
_symmetry_Int_Tables_number 1

loop_
_symmetry_equiv_pos_as_xyz
'x,y,z'

loop_
_atom_site_label
_atom_site_type_symbol
_atom_site_fract_x
_atom_site_fract_y
_atom_site_fract_z
Cu11	Cu1	0.204350	0.000500	0.267150
O11	O1	0.461700	0.053000	0.329000
O21	O2	0.312400	0.187400	0.222300
O31	O3	0.014400	0.098600	0.185800
O41	O4	0.871400	0.300300	0.170300
O51	O5	0.183200	0.106100	0.427620
O61	O6	0.243800	0.114000	0.617800
C11	C1	0.425300	0.171700	0.268600
H11	H1	0.487500	0.256500	0.256600
C21	C2	0.969200	0.231400	0.217400
H21	H2	0.012000	0.284900	0.282100
C31	C3	0.231300	0.040900	0.519800
H31	H3	0.259300	0.931500	0.515100
Cu21	Cu2	0.295650	0.999500	0.767150
O71	O7	0.038300	0.947000	0.829000
O81	O8	0.187600	0.812600	0.722300
O91	O9	0.485600	0.901400	0.685800
O101	O10	0.628600	0.699700	0.670300
O111	O11	0.316800	0.893900	0.927620
O121	O12	0.256200	0.886000	0.117800
C41	C4	0.074700	0.828300	0.768600
H41	H4	0.012500	0.743500	0.756600
C51	C5	0.530800	0.768600	0.717400
H51	H5	0.488000	0.715100	0.782100
C61	C6	0.268700	0.959100	0.019800
H61	H6	0.240700	0.068500	0.015100
Cu31	Cu3	0.795650	0.500500	0.232850
O131	O13	0.538300	0.553000	0.171000
O141	O14	0.687600	0.687400	0.277700
O151	O15	0.985600	0.598600	0.314200
O161	O16	0.128600	0.800300	0.329700
O171	O17	0.816800	0.606100	0.072380
O181	O18	0.756200	0.614000	0.882200
C71	C7	0.574700	0.671700	0.231400
H71	H7	0.512500	0.756500	0.243400
C81	C8	0.030800	0.731400	0.282600
H81	H8	0.988000	0.784900	0.217900
C91	C9	0.768700	0.540900	0.980200
H91	H9	0.740700	0.431500	0.984900
Cu41	Cu4	0.704350	0.499500	0.732850
O191	O19	0.961700	0.447000	0.671000
O201	O20	0.812400	0.312600	0.777700
O211	O21	0.514400	0.401400	0.814200
O221	O22	0.371400	0.199700	0.829700
O231	O23	0.683200	0.393900	0.572380
O241	O24	0.743800	0.386000	0.382200
C101	C10	0.925300	0.328300	0.731400
H101	H10	0.987500	0.243500	0.743400
C111	C11	0.469200	0.268600	0.782600
H111	H11	0.512000	0.215100	0.717900
C121	C12	0.731300	0.459100	0.480200
H121	H12	0.759300	0.568500	0.484900
