data_MAGNEQ02_freeONLY_PM
_symmetry_space_group_name_H-M	'P1'
_cell_length_a	10.144300
_cell_length_b	8.288900
_cell_length_c	11.159600
_cell_angle_alpha	90.000000
_cell_angle_beta	90.000000
_cell_angle_gamma	90.000000
_symmetry_Int_Tables_number 1

loop_
_symmetry_equiv_pos_as_xyz
'x,y,z'

loop_
_atom_site_label
_atom_site_type_symbol
_atom_site_fract_x
_atom_site_fract_y
_atom_site_fract_z
Cu11	Cu1	0.204690	0.000610	0.266130
O11	O1	0.461600	0.054200	0.328000
O21	O2	0.312500	0.187100	0.222200
O31	O3	0.014400	0.100500	0.185900
O41	O4	0.871100	0.300200	0.172600
O51	O5	0.183400	0.104600	0.426900
O61	O6	0.243800	0.112400	0.616300
C11	C1	0.424500	0.171600	0.267500
H11	H1	0.484800	0.254400	0.254900
C21	C2	0.969000	0.232300	0.217200
H21	H2	0.011700	0.285400	0.279400
C31	C3	0.231300	0.040700	0.518500
H31	H3	0.259100	0.934000	0.513700
Cu21	Cu2	0.295310	0.999390	0.766130
O71	O7	0.038400	0.945800	0.828000
O81	O8	0.187500	0.812900	0.722200
O91	O9	0.485600	0.899500	0.685900
O101	O10	0.628900	0.699800	0.672600
O111	O11	0.316600	0.895400	0.926900
O121	O12	0.256200	0.887600	0.116300
C41	C4	0.075500	0.828400	0.767500
H41	H4	0.015200	0.745600	0.754900
C51	C5	0.531000	0.767700	0.717200
H51	H5	0.488300	0.714600	0.779400
C61	C6	0.268700	0.959300	0.018500
H61	H6	0.240900	0.066000	0.013700
Cu31	Cu3	0.795310	0.500610	0.233870
O131	O13	0.538400	0.554200	0.172000
O141	O14	0.687500	0.687100	0.277800
O151	O15	0.985600	0.600500	0.314100
O161	O16	0.128900	0.800200	0.327400
O171	O17	0.816600	0.604600	0.073100
O181	O18	0.756200	0.612400	0.883700
C71	C7	0.575500	0.671600	0.232500
H71	H7	0.515200	0.754400	0.245100
C81	C8	0.031000	0.732300	0.282800
H81	H8	0.988300	0.785400	0.220600
C91	C9	0.768700	0.540700	0.981500
H91	H9	0.740900	0.434000	0.986300
Cu41	Cu4	0.704690	0.499390	0.733870
O191	O19	0.961600	0.445800	0.672000
O201	O20	0.812500	0.312900	0.777800
O211	O21	0.514400	0.399500	0.814100
O221	O22	0.371100	0.199800	0.827400
O231	O23	0.683400	0.395400	0.573100
O241	O24	0.743800	0.387600	0.383700
C101	C10	0.924500	0.328400	0.732500
H101	H10	0.984800	0.245600	0.745100
C111	C11	0.469000	0.267700	0.782800
H111	H11	0.511700	0.214600	0.720600
C121	C12	0.731300	0.459300	0.481500
H121	H12	0.759100	0.566000	0.486300
