data_MAGVOG30_freeONLY_PM
_symmetry_space_group_name_H-M	'P1'
_cell_length_a	10.342800
_cell_length_b	10.574900
_cell_length_c	6.259700
_cell_angle_alpha	90.000000
_cell_angle_beta	114.852000
_cell_angle_gamma	90.000000
_symmetry_Int_Tables_number 1

loop_
_symmetry_equiv_pos_as_xyz
'x,y,z'

loop_
_atom_site_label
_atom_site_type_symbol
_atom_site_fract_x
_atom_site_fract_y
_atom_site_fract_z
C11	C1	0.317100	0.210700	0.545900
H11	H1	0.398900	0.265600	0.573400
H21	H2	0.330800	0.172900	0.696900
N11	N1	0.311500	0.109800	0.380700
H31	H3	0.296300	0.145100	0.239600
H41	H4	0.236400	0.058200	0.357800
C21	C2	0.817100	0.710700	0.545900
H51	H5	0.898900	0.765600	0.573400
H61	H6	0.830800	0.672900	0.696900
N21	N2	0.811500	0.609800	0.380700
H71	H7	0.796300	0.645100	0.239600
H81	H8	0.736400	0.558200	0.357800
C31	C3	0.682900	0.210700	0.954100
H91	H9	0.601100	0.265600	0.926600
H101	H10	0.669200	0.172900	0.803100
N31	N3	0.688500	0.109800	0.119300
H111	H11	0.703700	0.145100	0.260400
H121	H12	0.763600	0.058200	0.142200
C41	C4	0.182900	0.710700	0.954100
H131	H13	0.101100	0.765600	0.926600
H141	H14	0.169200	0.672900	0.803100
N41	N4	0.188500	0.609800	0.119300
H151	H15	0.203700	0.645100	0.260400
H161	H16	0.263600	0.558200	0.142200
C51	C5	0.682900	0.789300	0.454100
H171	H17	0.601100	0.734400	0.426600
H181	H18	0.669200	0.827100	0.303100
N51	N5	0.688500	0.890200	0.619300
H191	H19	0.703700	0.854900	0.760400
H201	H20	0.763600	0.941800	0.642200
C61	C6	0.182900	0.289300	0.454100
H211	H21	0.101100	0.234400	0.426600
H221	H22	0.169200	0.327100	0.303100
N61	N6	0.188500	0.390200	0.619300
H231	H23	0.203700	0.354900	0.760400
H241	H24	0.263600	0.441800	0.642200
C71	C7	0.317100	0.789300	0.045900
H251	H25	0.398900	0.734400	0.073400
H261	H26	0.330800	0.827100	0.196900
N71	N7	0.311500	0.890200	0.880700
H271	H27	0.296300	0.854900	0.739600
H281	H28	0.236400	0.941800	0.857800
C81	C8	0.817100	0.289300	0.045900
H291	H29	0.898900	0.234400	0.073400
H301	H30	0.830800	0.327100	0.196900
N81	N8	0.811500	0.390200	0.880700
H311	H31	0.796300	0.354900	0.739600
H321	H32	0.736400	0.441800	0.857800
Ag11	Ag1	0.500000	0.000000	0.500000
Ag21	Ag2	0.000000	0.500000	0.500000
Ag31	Ag3	0.500000	0.000000	0.000000
Ag41	Ag4	0.000000	0.500000	0.000000
