data_MAGVOG12_freeONLY_PM
_symmetry_space_group_name_H-M	'P1'
_cell_length_a	20.775000
_cell_length_b	19.479000
_cell_length_c	5.952000
_cell_angle_alpha	90.000000
_cell_angle_beta	114.100000
_cell_angle_gamma	90.000000
_symmetry_Int_Tables_number 1

loop_
_symmetry_equiv_pos_as_xyz
'x,y,z'

loop_
_atom_site_label
_atom_site_type_symbol
_atom_site_fract_x
_atom_site_fract_y
_atom_site_fract_z
N11	N1	0.608000	0.046100	0.153000
H11	H1	0.620700	0.060600	0.309100
H21	H2	0.640400	0.016500	0.146900
N21	N2	0.654000	0.203600	0.879000
H31	H3	0.620900	0.232800	0.886100
H41	H4	0.639800	0.189200	0.722100
N31	N3	0.853600	0.199300	0.641000
H51	H5	0.887600	0.228000	0.642200
H61	H6	0.865200	0.182600	0.794000
N41	N4	0.903000	0.052500	0.383000
H71	H7	0.890500	0.069600	0.230700
H81	H8	0.868500	0.023700	0.380400
C11	C1	0.596700	0.103200	0.984000
H91	H9	0.559900	0.132700	0.990300
H101	H10	0.581100	0.085700	0.817300
C21	C2	0.663200	0.144400	0.047000
H111	H11	0.679000	0.161300	0.214200
H121	H12	0.699800	0.114700	0.039500
C31	C3	0.841200	0.144200	0.463000
H131	H13	0.829100	0.162200	0.298500
H141	H14	0.804300	0.113500	0.460800
C41	C4	0.912100	0.109000	0.561000
H151	H15	0.948900	0.140300	0.566200
H161	H16	0.923800	0.091100	0.725500
N51	N5	0.108000	0.546100	0.153000
H171	H17	0.120700	0.560600	0.309100
H181	H18	0.140400	0.516500	0.146900
N61	N6	0.154000	0.703600	0.879000
H191	H19	0.120900	0.732800	0.886100
H201	H20	0.139800	0.689200	0.722100
N71	N7	0.353600	0.699300	0.641000
H211	H21	0.387600	0.728000	0.642200
H221	H22	0.365200	0.682600	0.794000
N81	N8	0.403000	0.552500	0.383000
H231	H23	0.390500	0.569600	0.230700
H241	H24	0.368500	0.523700	0.380400
C51	C5	0.096700	0.603200	0.984000
H251	H25	0.059900	0.632700	0.990300
H261	H26	0.081100	0.585700	0.817300
C61	C6	0.163200	0.644400	0.047000
H271	H27	0.179000	0.661300	0.214200
H281	H28	0.199800	0.614700	0.039500
C71	C7	0.341200	0.644200	0.463000
H291	H29	0.329100	0.662200	0.298500
H301	H30	0.304300	0.613500	0.460800
C81	C8	0.412100	0.609000	0.561000
H311	H31	0.448900	0.640300	0.566200
H321	H32	0.423800	0.591100	0.725500
N91	N9	0.392000	0.046100	0.347000
H331	H33	0.379300	0.060600	0.190900
H341	H34	0.359600	0.016500	0.353100
N101	N10	0.346000	0.203600	0.621000
H351	H35	0.379100	0.232800	0.613900
H361	H36	0.360200	0.189200	0.777900
N111	N11	0.146400	0.199300	0.859000
H371	H37	0.112400	0.228000	0.857800
H381	H38	0.134800	0.182600	0.706000
N121	N12	0.097000	0.052500	0.117000
H391	H39	0.109500	0.069600	0.269300
H401	H40	0.131500	0.023700	0.119600
C91	C9	0.403300	0.103200	0.516000
H411	H41	0.440100	0.132700	0.509700
H421	H42	0.418900	0.085700	0.682700
C101	C10	0.336800	0.144400	0.453000
H431	H43	0.321000	0.161300	0.285800
H441	H44	0.300200	0.114700	0.460500
C111	C11	0.158800	0.144200	0.037000
H451	H45	0.170900	0.162200	0.201500
H461	H46	0.195700	0.113500	0.039200
C121	C12	0.087900	0.109000	0.939000
H471	H47	0.051100	0.140300	0.933800
H481	H48	0.076200	0.091100	0.774500
N131	N13	0.892000	0.546100	0.347000
H491	H49	0.879300	0.560600	0.190900
H501	H50	0.859600	0.516500	0.353100
N141	N14	0.846000	0.703600	0.621000
H511	H51	0.879100	0.732800	0.613900
H521	H52	0.860200	0.689200	0.777900
N151	N15	0.646400	0.699300	0.859000
H531	H53	0.612400	0.728000	0.857800
H541	H54	0.634800	0.682600	0.706000
N161	N16	0.597000	0.552500	0.117000
H551	H55	0.609500	0.569600	0.269300
H561	H56	0.631500	0.523700	0.119600
C131	C13	0.903300	0.603200	0.516000
H571	H57	0.940100	0.632700	0.509700
H581	H58	0.918900	0.585700	0.682700
C141	C14	0.836800	0.644400	0.453000
H591	H59	0.821000	0.661300	0.285800
H601	H60	0.800200	0.614700	0.460500
C151	C15	0.658800	0.644200	0.037000
H611	H61	0.670900	0.662200	0.201500
H621	H62	0.695700	0.613500	0.039200
C161	C16	0.587900	0.609000	0.939000
H631	H63	0.551100	0.640300	0.933800
H641	H64	0.576200	0.591100	0.774500
N171	N17	0.392000	0.953900	0.847000
H651	H65	0.379300	0.939400	0.690900
H661	H66	0.359600	0.983500	0.853100
N181	N18	0.346000	0.796400	0.121000
H671	H67	0.379100	0.767200	0.113900
H681	H68	0.360200	0.810800	0.277900
N191	N19	0.146400	0.800700	0.359000
H691	H69	0.112400	0.772000	0.357800
H701	H70	0.134800	0.817400	0.206000
N201	N20	0.097000	0.947500	0.617000
H711	H71	0.109500	0.930400	0.769300
H721	H72	0.131500	0.976300	0.619600
C171	C17	0.403300	0.896800	0.016000
H731	H73	0.440100	0.867300	0.009700
H741	H74	0.418900	0.914300	0.182700
C181	C18	0.336800	0.855600	0.953000
H751	H75	0.321000	0.838700	0.785800
H761	H76	0.300200	0.885300	0.960500
C191	C19	0.158800	0.855800	0.537000
H771	H77	0.170900	0.837800	0.701500
H781	H78	0.195700	0.886500	0.539200
C201	C20	0.087900	0.891000	0.439000
H791	H79	0.051100	0.859700	0.433800
H801	H80	0.076200	0.908900	0.274500
N211	N21	0.892000	0.453900	0.847000
H811	H81	0.879300	0.439400	0.690900
H821	H82	0.859600	0.483500	0.853100
N221	N22	0.846000	0.296400	0.121000
H831	H83	0.879100	0.267200	0.113900
H841	H84	0.860200	0.310800	0.277900
N231	N23	0.646400	0.300700	0.359000
H851	H85	0.612400	0.272000	0.357800
H861	H86	0.634800	0.317400	0.206000
N241	N24	0.597000	0.447500	0.617000
H871	H87	0.609500	0.430400	0.769300
H881	H88	0.631500	0.476300	0.619600
C211	C21	0.903300	0.396800	0.016000
H891	H89	0.940100	0.367300	0.009700
H901	H90	0.918900	0.414300	0.182700
C221	C22	0.836800	0.355600	0.953000
H911	H91	0.821000	0.338700	0.785800
H921	H92	0.800200	0.385300	0.960500
C231	C23	0.658800	0.355800	0.537000
H931	H93	0.670900	0.337800	0.701500
H941	H94	0.695700	0.386500	0.539200
C241	C24	0.587900	0.391000	0.439000
H951	H95	0.551100	0.359700	0.433800
H961	H96	0.576200	0.408900	0.274500
N251	N25	0.608000	0.953900	0.653000
H971	H97	0.620700	0.939400	0.809100
H981	H98	0.640400	0.983500	0.646900
N261	N26	0.654000	0.796400	0.379000
H991	H99	0.620900	0.767200	0.386100
H1001	H100	0.639800	0.810800	0.222100
N271	N27	0.853600	0.800700	0.141000
H1011	H101	0.887600	0.772000	0.142200
H1021	H102	0.865200	0.817400	0.294000
N281	N28	0.903000	0.947500	0.883000
H1031	H103	0.890500	0.930400	0.730700
H1041	H104	0.868500	0.976300	0.880400
C251	C25	0.596700	0.896800	0.484000
H1051	H105	0.559900	0.867300	0.490300
H1061	H106	0.581100	0.914300	0.317300
C261	C26	0.663200	0.855600	0.547000
H1071	H107	0.679000	0.838700	0.714200
H1081	H108	0.699800	0.885300	0.539500
C271	C27	0.841200	0.855800	0.963000
H1091	H109	0.829100	0.837800	0.798500
H1101	H110	0.804300	0.886500	0.960800
C281	C28	0.912100	0.891000	0.061000
H1111	H111	0.948900	0.859700	0.066200
H1121	H112	0.923800	0.908900	0.225500
N291	N29	0.108000	0.453900	0.653000
H1131	H113	0.120700	0.439400	0.809100
H1141	H114	0.140400	0.483500	0.646900
N301	N30	0.154000	0.296400	0.379000
H1151	H115	0.120900	0.267200	0.386100
H1161	H116	0.139800	0.310800	0.222100
N311	N31	0.353600	0.300700	0.141000
H1171	H117	0.387600	0.272000	0.142200
H1181	H118	0.365200	0.317400	0.294000
N321	N32	0.403000	0.447500	0.883000
H1191	H119	0.390500	0.430400	0.730700
H1201	H120	0.368500	0.476300	0.880400
C291	C29	0.096700	0.396800	0.484000
H1211	H121	0.059900	0.367300	0.490300
H1221	H122	0.081100	0.414300	0.317300
C301	C30	0.163200	0.355600	0.547000
H1231	H123	0.179000	0.338700	0.714200
H1241	H124	0.199800	0.385300	0.539500
C311	C31	0.341200	0.355800	0.963000
H1251	H125	0.329100	0.337800	0.798500
H1261	H126	0.304300	0.386500	0.960800
C321	C32	0.412100	0.391000	0.061000
H1271	H127	0.448900	0.359700	0.066200
H1281	H128	0.423800	0.408900	0.225500
Ag11	Ag1	0.500000	0.000000	0.000000
Ag21	Ag2	0.000000	0.500000	0.000000
Ag31	Ag3	0.500000	0.000000	0.500000
Ag41	Ag4	0.000000	0.500000	0.500000
Ag51	Ag5	0.750000	0.250000	0.000000
Ag61	Ag6	0.250000	0.250000	0.500000
Ag71	Ag7	0.250000	0.750000	0.000000
Ag81	Ag8	0.750000	0.750000	0.500000
Ag91	Ag9	0.750000	0.250000	0.500000
Ag101	Ag10	0.250000	0.250000	0.000000
Ag111	Ag11	0.250000	0.750000	0.500000
Ag121	Ag12	0.750000	0.750000	0.000000
Ag131	Ag13	0.000000	0.000000	0.500000
Ag141	Ag14	0.500000	0.500000	0.500000
Ag151	Ag15	0.000000	0.000000	0.000000
Ag161	Ag16	0.500000	0.500000	0.000000
