data_MAGVOG01_freeONLY_PM
_symmetry_space_group_name_H-M	'P1'
_cell_length_a	19.202000
_cell_length_b	21.012000
_cell_length_c	6.277000
_cell_angle_alpha	90.000000
_cell_angle_beta	101.011000
_cell_angle_gamma	90.000000
_symmetry_Int_Tables_number 1

loop_
_symmetry_equiv_pos_as_xyz
'x,y,z'

loop_
_atom_site_label
_atom_site_type_symbol
_atom_site_fract_x
_atom_site_fract_y
_atom_site_fract_z
N11	N1	0.594200	0.945300	0.071200
H11	H1	0.602200	0.927400	0.947800
H21	H2	0.630900	0.971200	0.122000
N21	N2	0.657600	0.805500	0.434100
H31	H3	0.620300	0.779600	0.390100
H41	H4	0.651400	0.824300	0.558000
C11	C1	0.591100	0.895400	0.229800
H51	H5	0.550300	0.868400	0.179000
H61	H6	0.585200	0.914500	0.365900
C21	C2	0.657600	0.855500	0.267000
H71	H7	0.662500	0.835400	0.131400
H81	H8	0.698400	0.882900	0.311700
N31	N3	0.844100	0.805100	0.069400
H91	H9	0.881000	0.779100	0.118500
H101	H10	0.851700	0.823000	0.945500
N41	N4	0.907300	0.944400	0.436000
H111	H11	0.901100	0.925900	0.560300
H121	H12	0.869900	0.970100	0.390900
C31	C3	0.842400	0.854900	0.228100
H131	H13	0.835800	0.835700	0.363400
H141	H14	0.802100	0.882400	0.177400
C41	C4	0.908200	0.894000	0.269300
H151	H15	0.914300	0.913900	0.134500
H161	H16	0.948700	0.866400	0.317000
N51	N5	0.094200	0.445300	0.071200
H171	H17	0.102200	0.427400	0.947800
H181	H18	0.130900	0.471200	0.122000
N61	N6	0.157600	0.305500	0.434100
H191	H19	0.120300	0.279600	0.390100
H201	H20	0.151400	0.324300	0.558000
C51	C5	0.091100	0.395400	0.229800
H211	H21	0.050300	0.368400	0.179000
H221	H22	0.085200	0.414500	0.365900
C61	C6	0.157600	0.355500	0.267000
H231	H23	0.162500	0.335400	0.131400
H241	H24	0.198400	0.382900	0.311700
N71	N7	0.344100	0.305100	0.069400
H251	H25	0.381000	0.279100	0.118500
H261	H26	0.351700	0.323000	0.945500
N81	N8	0.407300	0.444400	0.436000
H271	H27	0.401100	0.425900	0.560300
H281	H28	0.369900	0.470100	0.390900
C71	C7	0.342400	0.354900	0.228100
H291	H29	0.335800	0.335700	0.363400
H301	H30	0.302100	0.382400	0.177400
C81	C8	0.408200	0.394000	0.269300
H311	H31	0.414300	0.413900	0.134500
H321	H32	0.448700	0.366400	0.317000
N91	N9	0.405800	0.945300	0.428800
H331	H33	0.397800	0.927400	0.552200
H341	H34	0.369100	0.971200	0.378000
N101	N10	0.342400	0.805500	0.065900
H351	H35	0.379700	0.779600	0.109900
H361	H36	0.348600	0.824300	0.942000
C91	C9	0.408900	0.895400	0.270200
H371	H37	0.449700	0.868400	0.321000
H381	H38	0.414800	0.914500	0.134100
C101	C10	0.342400	0.855500	0.233000
H391	H39	0.337500	0.835400	0.368600
H401	H40	0.301600	0.882900	0.188300
N111	N11	0.155900	0.805100	0.430600
H411	H41	0.119000	0.779100	0.381500
H421	H42	0.148300	0.823000	0.554500
N121	N12	0.092700	0.944400	0.064000
H431	H43	0.098900	0.925900	0.939700
H441	H44	0.130100	0.970100	0.109100
C111	C11	0.157600	0.854900	0.271900
H451	H45	0.164200	0.835700	0.136600
H461	H46	0.197900	0.882400	0.322600
C121	C12	0.091800	0.894000	0.230700
H471	H47	0.085700	0.913900	0.365500
H481	H48	0.051300	0.866400	0.183000
N131	N13	0.905800	0.445300	0.428800
H491	H49	0.897800	0.427400	0.552200
H501	H50	0.869100	0.471200	0.378000
N141	N14	0.842400	0.305500	0.065900
H511	H51	0.879700	0.279600	0.109900
H521	H52	0.848600	0.324300	0.942000
C131	C13	0.908900	0.395400	0.270200
H531	H53	0.949700	0.368400	0.321000
H541	H54	0.914800	0.414500	0.134100
C141	C14	0.842400	0.355500	0.233000
H551	H55	0.837500	0.335400	0.368600
H561	H56	0.801600	0.382900	0.188300
N151	N15	0.655900	0.305100	0.430600
H571	H57	0.619000	0.279100	0.381500
H581	H58	0.648300	0.323000	0.554500
N161	N16	0.592700	0.444400	0.064000
H591	H59	0.598900	0.425900	0.939700
H601	H60	0.630100	0.470100	0.109100
C151	C15	0.657600	0.354900	0.271900
H611	H61	0.664200	0.335700	0.136600
H621	H62	0.697900	0.382400	0.322600
C161	C16	0.591800	0.394000	0.230700
H631	H63	0.585700	0.413900	0.365500
H641	H64	0.551300	0.366400	0.183000
N171	N17	0.405800	0.054700	0.928800
H651	H65	0.397800	0.072600	0.052200
H661	H66	0.369100	0.028800	0.878000
N181	N18	0.342400	0.194500	0.565900
H671	H67	0.379700	0.220400	0.609900
H681	H68	0.348600	0.175700	0.442000
C171	C17	0.408900	0.104600	0.770200
H691	H69	0.449700	0.131600	0.821000
H701	H70	0.414800	0.085500	0.634100
C181	C18	0.342400	0.144500	0.733000
H711	H71	0.337500	0.164600	0.868600
H721	H72	0.301600	0.117100	0.688300
N191	N19	0.155900	0.194900	0.930600
H731	H73	0.119000	0.220900	0.881500
H741	H74	0.148300	0.177000	0.054500
N201	N20	0.092700	0.055600	0.564000
H751	H75	0.098900	0.074100	0.439700
H761	H76	0.130100	0.029900	0.609100
C191	C19	0.157600	0.145100	0.771900
H771	H77	0.164200	0.164300	0.636600
H781	H78	0.197900	0.117600	0.822600
C201	C20	0.091800	0.106000	0.730700
H791	H79	0.085700	0.086100	0.865500
H801	H80	0.051300	0.133600	0.683000
N211	N21	0.905800	0.554700	0.928800
H811	H81	0.897800	0.572600	0.052200
H821	H82	0.869100	0.528800	0.878000
N221	N22	0.842400	0.694500	0.565900
H831	H83	0.879700	0.720400	0.609900
H841	H84	0.848600	0.675700	0.442000
C211	C21	0.908900	0.604600	0.770200
H851	H85	0.949700	0.631600	0.821000
H861	H86	0.914800	0.585500	0.634100
C221	C22	0.842400	0.644500	0.733000
H871	H87	0.837500	0.664600	0.868600
H881	H88	0.801600	0.617100	0.688300
N231	N23	0.655900	0.694900	0.930600
H891	H89	0.619000	0.720900	0.881500
H901	H90	0.648300	0.677000	0.054500
N241	N24	0.592700	0.555600	0.564000
H911	H91	0.598900	0.574100	0.439700
H921	H92	0.630100	0.529900	0.609100
C231	C23	0.657600	0.645100	0.771900
H931	H93	0.664200	0.664300	0.636600
H941	H94	0.697900	0.617600	0.822600
C241	C24	0.591800	0.606000	0.730700
H951	H95	0.585700	0.586100	0.865500
H961	H96	0.551300	0.633600	0.683000
N251	N25	0.594200	0.054700	0.571200
H971	H97	0.602200	0.072600	0.447800
H981	H98	0.630900	0.028800	0.622000
N261	N26	0.657600	0.194500	0.934100
H991	H99	0.620300	0.220400	0.890100
H1001	H100	0.651400	0.175700	0.058000
C251	C25	0.591100	0.104600	0.729800
H1011	H101	0.550300	0.131600	0.679000
H1021	H102	0.585200	0.085500	0.865900
C261	C26	0.657600	0.144500	0.767000
H1031	H103	0.662500	0.164600	0.631400
H1041	H104	0.698400	0.117100	0.811700
N271	N27	0.844100	0.194900	0.569400
H1051	H105	0.881000	0.220900	0.618500
H1061	H106	0.851700	0.177000	0.445500
N281	N28	0.907300	0.055600	0.936000
H1071	H107	0.901100	0.074100	0.060300
H1081	H108	0.869900	0.029900	0.890900
C271	C27	0.842400	0.145100	0.728100
H1091	H109	0.835800	0.164300	0.863400
H1101	H110	0.802100	0.117600	0.677400
C281	C28	0.908200	0.106000	0.769300
H1111	H111	0.914300	0.086100	0.634500
H1121	H112	0.948700	0.133600	0.817000
N291	N29	0.094200	0.554700	0.571200
H1131	H113	0.102200	0.572600	0.447800
H1141	H114	0.130900	0.528800	0.622000
N301	N30	0.157600	0.694500	0.934100
H1151	H115	0.120300	0.720400	0.890100
H1161	H116	0.151400	0.675700	0.058000
C291	C29	0.091100	0.604600	0.729800
H1171	H117	0.050300	0.631600	0.679000
H1181	H118	0.085200	0.585500	0.865900
C301	C30	0.157600	0.644500	0.767000
H1191	H119	0.162500	0.664600	0.631400
H1201	H120	0.198400	0.617100	0.811700
N311	N31	0.344100	0.694900	0.569400
H1211	H121	0.381000	0.720900	0.618500
H1221	H122	0.351700	0.677000	0.445500
N321	N32	0.407300	0.555600	0.936000
H1231	H123	0.401100	0.574100	0.060300
H1241	H124	0.369900	0.529900	0.890900
C311	C31	0.342400	0.645100	0.728100
H1251	H125	0.335800	0.664300	0.863400
H1261	H126	0.302100	0.617600	0.677400
C321	C32	0.408200	0.606000	0.769300
H1271	H127	0.414300	0.586100	0.634500
H1281	H128	0.448700	0.633600	0.817000
Ag11	Ag1	0.500000	0.000000	0.000000
Ag21	Ag2	0.000000	0.500000	0.000000
Ag31	Ag3	0.500000	0.000000	0.500000
Ag41	Ag4	0.000000	0.500000	0.500000
Ag51	Ag5	0.750000	0.750000	0.500000
Ag61	Ag6	0.250000	0.750000	0.000000
Ag71	Ag7	0.250000	0.250000	0.500000
Ag81	Ag8	0.750000	0.250000	0.000000
Ag91	Ag9	0.750000	0.750000	0.000000
Ag101	Ag10	0.250000	0.750000	0.500000
Ag111	Ag11	0.250000	0.250000	0.000000
Ag121	Ag12	0.750000	0.250000	0.500000
Ag131	Ag13	0.000000	0.000000	0.500000
Ag141	Ag14	0.500000	0.500000	0.500000
Ag151	Ag15	0.000000	0.000000	0.000000
Ag161	Ag16	0.500000	0.500000	0.000000
