data_MAGVOG29_freeONLY_PM
_symmetry_space_group_name_H-M	'P1'
_cell_length_a	10.315900
_cell_length_b	10.593500
_cell_length_c	6.249500
_cell_angle_alpha	90.000000
_cell_angle_beta	114.772000
_cell_angle_gamma	90.000000
_symmetry_Int_Tables_number 1

loop_
_symmetry_equiv_pos_as_xyz
'x,y,z'

loop_
_atom_site_label
_atom_site_type_symbol
_atom_site_fract_x
_atom_site_fract_y
_atom_site_fract_z
C11	C1	0.317400	0.210900	0.545900
H11	H1	0.399200	0.265700	0.572200
H21	H2	0.331600	0.173600	0.697600
N11	N1	0.311500	0.109600	0.381000
H31	H3	0.296100	0.144500	0.239300
H41	H4	0.236300	0.058200	0.358800
C21	C2	0.817400	0.710900	0.545900
H51	H5	0.899200	0.765700	0.572200
H61	H6	0.831600	0.673600	0.697600
N21	N2	0.811500	0.609600	0.381000
H71	H7	0.796100	0.644500	0.239300
H81	H8	0.736300	0.558200	0.358800
C31	C3	0.682600	0.210900	0.954100
H91	H9	0.600800	0.265700	0.927800
H101	H10	0.668400	0.173600	0.802400
N31	N3	0.688500	0.109600	0.119000
H111	H11	0.703900	0.144500	0.260700
H121	H12	0.763700	0.058200	0.141200
C41	C4	0.182600	0.710900	0.954100
H131	H13	0.100800	0.765700	0.927800
H141	H14	0.168400	0.673600	0.802400
N41	N4	0.188500	0.609600	0.119000
H151	H15	0.203900	0.644500	0.260700
H161	H16	0.263700	0.558200	0.141200
C51	C5	0.682600	0.789100	0.454100
H171	H17	0.600800	0.734300	0.427800
H181	H18	0.668400	0.826400	0.302400
N51	N5	0.688500	0.890400	0.619000
H191	H19	0.703900	0.855500	0.760700
H201	H20	0.763700	0.941800	0.641200
C61	C6	0.182600	0.289100	0.454100
H211	H21	0.100800	0.234300	0.427800
H221	H22	0.168400	0.326400	0.302400
N61	N6	0.188500	0.390400	0.619000
H231	H23	0.203900	0.355500	0.760700
H241	H24	0.263700	0.441800	0.641200
C71	C7	0.317400	0.789100	0.045900
H251	H25	0.399200	0.734300	0.072200
H261	H26	0.331600	0.826400	0.197600
N71	N7	0.311500	0.890400	0.881000
H271	H27	0.296100	0.855500	0.739300
H281	H28	0.236300	0.941800	0.858800
C81	C8	0.817400	0.289100	0.045900
H291	H29	0.899200	0.234300	0.072200
H301	H30	0.831600	0.326400	0.197600
N81	N8	0.811500	0.390400	0.881000
H311	H31	0.796100	0.355500	0.739300
H321	H32	0.736300	0.441800	0.858800
Ag11	Ag1	0.500000	0.000000	0.500000
Ag21	Ag2	0.000000	0.500000	0.500000
Ag31	Ag3	0.500000	0.000000	0.000000
Ag41	Ag4	0.000000	0.500000	0.000000
