data_MAGVOG03_freeONLY_PM
_symmetry_space_group_name_H-M	'P1'
_cell_length_a	10.521000
_cell_length_b	10.426000
_cell_length_c	6.202000
_cell_angle_alpha	90.000000
_cell_angle_beta	115.000000
_cell_angle_gamma	90.000000
_symmetry_Int_Tables_number 1

loop_
_symmetry_equiv_pos_as_xyz
'x,y,z'

loop_
_atom_site_label
_atom_site_type_symbol
_atom_site_fract_x
_atom_site_fract_y
_atom_site_fract_z
C11	C1	0.314400	0.209800	0.546000
H11	H1	0.395400	0.263400	0.574500
H21	H2	0.326900	0.171300	0.696100
N11	N1	0.305000	0.108300	0.376000
H31	H3	0.287100	0.143600	0.233300
H41	H4	0.233800	0.055100	0.357300
C21	C2	0.814400	0.709800	0.546000
H51	H5	0.895400	0.763400	0.574500
H61	H6	0.826900	0.671300	0.696100
N21	N2	0.805000	0.608300	0.376000
H71	H7	0.787100	0.643600	0.233300
H81	H8	0.733800	0.555100	0.357300
C31	C3	0.685600	0.209800	0.954000
H91	H9	0.604600	0.263400	0.925500
H101	H10	0.673100	0.171300	0.803900
N31	N3	0.695000	0.108300	0.124000
H111	H11	0.712900	0.143600	0.266700
H121	H12	0.766200	0.055100	0.142700
C41	C4	0.185600	0.709800	0.954000
H131	H13	0.104600	0.763400	0.925500
H141	H14	0.173100	0.671300	0.803900
N41	N4	0.195000	0.608300	0.124000
H151	H15	0.212900	0.643600	0.266700
H161	H16	0.266200	0.555100	0.142700
C51	C5	0.685600	0.790200	0.454000
H171	H17	0.604600	0.736600	0.425500
H181	H18	0.673100	0.828700	0.303900
N51	N5	0.695000	0.891700	0.624000
H191	H19	0.712900	0.856400	0.766700
H201	H20	0.766200	0.944900	0.642700
C61	C6	0.185600	0.290200	0.454000
H211	H21	0.104600	0.236600	0.425500
H221	H22	0.173100	0.328700	0.303900
N61	N6	0.195000	0.391700	0.624000
H231	H23	0.212900	0.356400	0.766700
H241	H24	0.266200	0.444900	0.642700
C71	C7	0.314400	0.790200	0.046000
H251	H25	0.395400	0.736600	0.074500
H261	H26	0.326900	0.828700	0.196100
N71	N7	0.305000	0.891700	0.876000
H271	H27	0.287100	0.856400	0.733300
H281	H28	0.233800	0.944900	0.857300
C81	C8	0.814400	0.290200	0.046000
H291	H29	0.895400	0.236600	0.074500
H301	H30	0.826900	0.328700	0.196100
N81	N8	0.805000	0.391700	0.876000
H311	H31	0.787100	0.356400	0.733300
H321	H32	0.733800	0.444900	0.857300
Ag11	Ag1	0.500000	0.000000	0.500000
Ag21	Ag2	0.000000	0.500000	0.500000
Ag31	Ag3	0.500000	0.000000	0.000000
Ag41	Ag4	0.000000	0.500000	0.000000
