data_MAGVOG06_freeONLY_PM
_symmetry_space_group_name_H-M	'P1'
_cell_length_a	10.632000
_cell_length_b	10.219000
_cell_length_c	6.115000
_cell_angle_alpha	90.000000
_cell_angle_beta	114.460000
_cell_angle_gamma	90.000000
_symmetry_Int_Tables_number 1

loop_
_symmetry_equiv_pos_as_xyz
'x,y,z'

loop_
_atom_site_label
_atom_site_type_symbol
_atom_site_fract_x
_atom_site_fract_y
_atom_site_fract_z
C11	C1	0.315000	0.213900	0.536000
H11	H1	0.343700	0.182000	0.698600
H21	H2	0.386100	0.272000	0.532100
N11	N1	0.298000	0.103000	0.373000
H31	H3	0.273000	0.131800	0.221400
H41	H4	0.232100	0.048300	0.374900
C21	C2	0.815000	0.713900	0.536000
H51	H5	0.843700	0.682000	0.698600
H61	H6	0.886100	0.772000	0.532100
N21	N2	0.798000	0.603000	0.373000
H71	H7	0.773000	0.631800	0.221400
H81	H8	0.732100	0.548300	0.374900
C31	C3	0.685000	0.213900	0.964000
H91	H9	0.656300	0.182000	0.801400
H101	H10	0.613900	0.272000	0.967900
N31	N3	0.702000	0.103000	0.127000
H111	H11	0.727000	0.131800	0.278600
H121	H12	0.767900	0.048300	0.125100
C41	C4	0.185000	0.713900	0.964000
H131	H13	0.156300	0.682000	0.801400
H141	H14	0.113900	0.772000	0.967900
N41	N4	0.202000	0.603000	0.127000
H151	H15	0.227000	0.631800	0.278600
H161	H16	0.267900	0.548300	0.125100
C51	C5	0.685000	0.786100	0.464000
H171	H17	0.656300	0.818000	0.301400
H181	H18	0.613900	0.728000	0.467900
N51	N5	0.702000	0.897000	0.627000
H191	H19	0.727000	0.868200	0.778600
H201	H20	0.767900	0.951700	0.625100
C61	C6	0.185000	0.286100	0.464000
H211	H21	0.156300	0.318000	0.301400
H221	H22	0.113900	0.228000	0.467900
N61	N6	0.202000	0.397000	0.627000
H231	H23	0.227000	0.368200	0.778600
H241	H24	0.267900	0.451700	0.625100
C71	C7	0.315000	0.786100	0.036000
H251	H25	0.343700	0.818000	0.198600
H261	H26	0.386100	0.728000	0.032100
N71	N7	0.298000	0.897000	0.873000
H271	H27	0.273000	0.868200	0.721400
H281	H28	0.232100	0.951700	0.874900
C81	C8	0.815000	0.286100	0.036000
H291	H29	0.843700	0.318000	0.198600
H301	H30	0.886100	0.228000	0.032100
N81	N8	0.798000	0.397000	0.873000
H311	H31	0.773000	0.368200	0.721400
H321	H32	0.732100	0.451700	0.874900
Ag11	Ag1	0.500000	0.000000	0.500000
Ag21	Ag2	0.000000	0.500000	0.500000
Ag31	Ag3	0.500000	0.000000	0.000000
Ag41	Ag4	0.000000	0.500000	0.000000
