data_MAGVOG14_freeONLY_PM
_symmetry_space_group_name_H-M	'P1'
_cell_length_a	20.183000
_cell_length_b	19.607000
_cell_length_c	5.977800
_cell_angle_alpha	90.000000
_cell_angle_beta	113.920000
_cell_angle_gamma	90.000000
_symmetry_Int_Tables_number 1

loop_
_symmetry_equiv_pos_as_xyz
'x,y,z'

loop_
_atom_site_label
_atom_site_type_symbol
_atom_site_fract_x
_atom_site_fract_y
_atom_site_fract_z
N11	N1	0.593000	0.054100	0.141000
H11	H1	0.598900	0.073200	0.285000
H21	H2	0.631600	0.027200	0.165400
N21	N2	0.643900	0.208700	0.870000
H31	H3	0.612300	0.239100	0.882800
H41	H4	0.628700	0.195300	0.713100
N31	N3	0.842500	0.193500	0.608000
H51	H5	0.879700	0.220400	0.617300
H61	H6	0.852700	0.175800	0.756800
N41	N4	0.899400	0.047200	0.372000
H71	H7	0.886900	0.062400	0.218000
H81	H8	0.865200	0.017900	0.372800
C11	C1	0.585400	0.106200	0.959000
H91	H9	0.544100	0.134900	0.937700
H101	H10	0.576200	0.084500	0.803200
C21	C2	0.652700	0.149500	0.034000
H111	H11	0.665300	0.166000	0.199500
H121	H12	0.692400	0.121500	0.035800
C31	C3	0.833500	0.138900	0.434000
H131	H13	0.822700	0.156600	0.271000
H141	H14	0.795400	0.107600	0.426300
C41	C4	0.906900	0.105200	0.541000
H151	H15	0.944600	0.136400	0.544300
H161	H16	0.918100	0.089100	0.705800
N51	N5	0.093000	0.554100	0.141000
H171	H17	0.098900	0.573200	0.285000
H181	H18	0.131600	0.527200	0.165400
N61	N6	0.143900	0.708700	0.870000
H191	H19	0.112300	0.739100	0.882800
H201	H20	0.128700	0.695300	0.713100
N71	N7	0.342500	0.693500	0.608000
H211	H21	0.379700	0.720400	0.617300
H221	H22	0.352700	0.675800	0.756800
N81	N8	0.399400	0.547200	0.372000
H231	H23	0.386900	0.562400	0.218000
H241	H24	0.365200	0.517900	0.372800
C51	C5	0.085400	0.606200	0.959000
H251	H25	0.044100	0.634900	0.937700
H261	H26	0.076200	0.584500	0.803200
C61	C6	0.152700	0.649500	0.034000
H271	H27	0.165300	0.666000	0.199500
H281	H28	0.192400	0.621500	0.035800
C71	C7	0.333500	0.638900	0.434000
H291	H29	0.322700	0.656600	0.271000
H301	H30	0.295400	0.607600	0.426300
C81	C8	0.406900	0.605200	0.541000
H311	H31	0.444600	0.636400	0.544300
H321	H32	0.418100	0.589100	0.705800
N91	N9	0.407000	0.054100	0.359000
H331	H33	0.401100	0.073200	0.215000
H341	H34	0.368400	0.027200	0.334600
N101	N10	0.356100	0.208700	0.630000
H351	H35	0.387700	0.239100	0.617200
H361	H36	0.371300	0.195300	0.786900
N111	N11	0.157500	0.193500	0.892000
H371	H37	0.120300	0.220400	0.882700
H381	H38	0.147300	0.175800	0.743200
N121	N12	0.100600	0.047200	0.128000
H391	H39	0.113100	0.062400	0.282000
H401	H40	0.134800	0.017900	0.127200
C91	C9	0.414600	0.106200	0.541000
H411	H41	0.455900	0.134900	0.562300
H421	H42	0.423800	0.084500	0.696800
C101	C10	0.347300	0.149500	0.466000
H431	H43	0.334700	0.166000	0.300500
H441	H44	0.307600	0.121500	0.464200
C111	C11	0.166500	0.138900	0.066000
H451	H45	0.177300	0.156600	0.229000
H461	H46	0.204600	0.107600	0.073700
C121	C12	0.093100	0.105200	0.959000
H471	H47	0.055400	0.136400	0.955700
H481	H48	0.081900	0.089100	0.794200
N131	N13	0.907000	0.554100	0.359000
H491	H49	0.901100	0.573200	0.215000
H501	H50	0.868400	0.527200	0.334600
N141	N14	0.856100	0.708700	0.630000
H511	H51	0.887700	0.739100	0.617200
H521	H52	0.871300	0.695300	0.786900
N151	N15	0.657500	0.693500	0.892000
H531	H53	0.620300	0.720400	0.882700
H541	H54	0.647300	0.675800	0.743200
N161	N16	0.600600	0.547200	0.128000
H551	H55	0.613100	0.562400	0.282000
H561	H56	0.634800	0.517900	0.127200
C131	C13	0.914600	0.606200	0.541000
H571	H57	0.955900	0.634900	0.562300
H581	H58	0.923800	0.584500	0.696800
C141	C14	0.847300	0.649500	0.466000
H591	H59	0.834700	0.666000	0.300500
H601	H60	0.807600	0.621500	0.464200
C151	C15	0.666500	0.638900	0.066000
H611	H61	0.677300	0.656600	0.229000
H621	H62	0.704600	0.607600	0.073700
C161	C16	0.593100	0.605200	0.959000
H631	H63	0.555400	0.636400	0.955700
H641	H64	0.581900	0.589100	0.794200
N171	N17	0.407000	0.945900	0.859000
H651	H65	0.401100	0.926800	0.715000
H661	H66	0.368400	0.972800	0.834600
N181	N18	0.356100	0.791300	0.130000
H671	H67	0.387700	0.760900	0.117200
H681	H68	0.371300	0.804700	0.286900
N191	N19	0.157500	0.806500	0.392000
H691	H69	0.120300	0.779600	0.382700
H701	H70	0.147300	0.824200	0.243200
N201	N20	0.100600	0.952800	0.628000
H711	H71	0.113100	0.937600	0.782000
H721	H72	0.134800	0.982100	0.627200
C171	C17	0.414600	0.893800	0.041000
H731	H73	0.455900	0.865100	0.062300
H741	H74	0.423800	0.915500	0.196800
C181	C18	0.347300	0.850500	0.966000
H751	H75	0.334700	0.834000	0.800500
H761	H76	0.307600	0.878500	0.964200
C191	C19	0.166500	0.861100	0.566000
H771	H77	0.177300	0.843400	0.729000
H781	H78	0.204600	0.892400	0.573700
C201	C20	0.093100	0.894800	0.459000
H791	H79	0.055400	0.863600	0.455700
H801	H80	0.081900	0.910900	0.294200
N211	N21	0.907000	0.445900	0.859000
H811	H81	0.901100	0.426800	0.715000
H821	H82	0.868400	0.472800	0.834600
N221	N22	0.856100	0.291300	0.130000
H831	H83	0.887700	0.260900	0.117200
H841	H84	0.871300	0.304700	0.286900
N231	N23	0.657500	0.306500	0.392000
H851	H85	0.620300	0.279600	0.382700
H861	H86	0.647300	0.324200	0.243200
N241	N24	0.600600	0.452800	0.628000
H871	H87	0.613100	0.437600	0.782000
H881	H88	0.634800	0.482100	0.627200
C211	C21	0.914600	0.393800	0.041000
H891	H89	0.955900	0.365100	0.062300
H901	H90	0.923800	0.415500	0.196800
C221	C22	0.847300	0.350500	0.966000
H911	H91	0.834700	0.334000	0.800500
H921	H92	0.807600	0.378500	0.964200
C231	C23	0.666500	0.361100	0.566000
H931	H93	0.677300	0.343400	0.729000
H941	H94	0.704600	0.392400	0.573700
C241	C24	0.593100	0.394800	0.459000
H951	H95	0.555400	0.363600	0.455700
H961	H96	0.581900	0.410900	0.294200
N251	N25	0.593000	0.945900	0.641000
H971	H97	0.598900	0.926800	0.785000
H981	H98	0.631600	0.972800	0.665400
N261	N26	0.643900	0.791300	0.370000
H991	H99	0.612300	0.760900	0.382800
H1001	H100	0.628700	0.804700	0.213100
N271	N27	0.842500	0.806500	0.108000
H1011	H101	0.879700	0.779600	0.117300
H1021	H102	0.852700	0.824200	0.256800
N281	N28	0.899400	0.952800	0.872000
H1031	H103	0.886900	0.937600	0.718000
H1041	H104	0.865200	0.982100	0.872800
C251	C25	0.585400	0.893800	0.459000
H1051	H105	0.544100	0.865100	0.437700
H1061	H106	0.576200	0.915500	0.303200
C261	C26	0.652700	0.850500	0.534000
H1071	H107	0.665300	0.834000	0.699500
H1081	H108	0.692400	0.878500	0.535800
C271	C27	0.833500	0.861100	0.934000
H1091	H109	0.822700	0.843400	0.771000
H1101	H110	0.795400	0.892400	0.926300
C281	C28	0.906900	0.894800	0.041000
H1111	H111	0.944600	0.863600	0.044300
H1121	H112	0.918100	0.910900	0.205800
N291	N29	0.093000	0.445900	0.641000
H1131	H113	0.098900	0.426800	0.785000
H1141	H114	0.131600	0.472800	0.665400
N301	N30	0.143900	0.291300	0.370000
H1151	H115	0.112300	0.260900	0.382800
H1161	H116	0.128700	0.304700	0.213100
N311	N31	0.342500	0.306500	0.108000
H1171	H117	0.379700	0.279600	0.117300
H1181	H118	0.352700	0.324200	0.256800
N321	N32	0.399400	0.452800	0.872000
H1191	H119	0.386900	0.437600	0.718000
H1201	H120	0.365200	0.482100	0.872800
C291	C29	0.085400	0.393800	0.459000
H1211	H121	0.044100	0.365100	0.437700
H1221	H122	0.076200	0.415500	0.303200
C301	C30	0.152700	0.350500	0.534000
H1231	H123	0.165300	0.334000	0.699500
H1241	H124	0.192400	0.378500	0.535800
C311	C31	0.333500	0.361100	0.934000
H1251	H125	0.322700	0.343400	0.771000
H1261	H126	0.295400	0.392400	0.926300
C321	C32	0.406900	0.394800	0.041000
H1271	H127	0.444600	0.363600	0.044300
H1281	H128	0.418100	0.410900	0.205800
Ag11	Ag1	0.500000	0.000000	0.000000
Ag21	Ag2	0.000000	0.500000	0.000000
Ag31	Ag3	0.500000	0.000000	0.500000
Ag41	Ag4	0.000000	0.500000	0.500000
Ag51	Ag5	0.750000	0.250000	0.000000
Ag61	Ag6	0.250000	0.250000	0.500000
Ag71	Ag7	0.250000	0.750000	0.000000
Ag81	Ag8	0.750000	0.750000	0.500000
Ag91	Ag9	0.750000	0.250000	0.500000
Ag101	Ag10	0.250000	0.250000	0.000000
Ag111	Ag11	0.250000	0.750000	0.500000
Ag121	Ag12	0.750000	0.750000	0.000000
Ag131	Ag13	0.000000	0.000000	0.500000
Ag141	Ag14	0.500000	0.500000	0.500000
Ag151	Ag15	0.000000	0.000000	0.000000
Ag161	Ag16	0.500000	0.500000	0.000000
