data_MAGVOG31_freeONLY_PM
_symmetry_space_group_name_H-M	'P1'
_cell_length_a	10.361200
_cell_length_b	10.568600
_cell_length_c	6.266900
_cell_angle_alpha	90.000000
_cell_angle_beta	114.907000
_cell_angle_gamma	90.000000
_symmetry_Int_Tables_number 1

loop_
_symmetry_equiv_pos_as_xyz
'x,y,z'

loop_
_atom_site_label
_atom_site_type_symbol
_atom_site_fract_x
_atom_site_fract_y
_atom_site_fract_z
C11	C1	0.316700	0.210600	0.545200
H11	H1	0.398500	0.265600	0.573200
H21	H2	0.330500	0.172600	0.695900
N11	N1	0.311900	0.109900	0.380800
H31	H3	0.296800	0.145300	0.239900
H41	H4	0.236900	0.058100	0.357300
C21	C2	0.816700	0.710600	0.545200
H51	H5	0.898500	0.765600	0.573200
H61	H6	0.830500	0.672600	0.695900
N21	N2	0.811900	0.609900	0.380800
H71	H7	0.796800	0.645300	0.239900
H81	H8	0.736900	0.558100	0.357300
C31	C3	0.683300	0.210600	0.954800
H91	H9	0.601500	0.265600	0.926800
H101	H10	0.669500	0.172600	0.804100
N31	N3	0.688100	0.109900	0.119200
H111	H11	0.703200	0.145300	0.260100
H121	H12	0.763100	0.058100	0.142700
C41	C4	0.183300	0.710600	0.954800
H131	H13	0.101500	0.765600	0.926800
H141	H14	0.169500	0.672600	0.804100
N41	N4	0.188100	0.609900	0.119200
H151	H15	0.203200	0.645300	0.260100
H161	H16	0.263100	0.558100	0.142700
C51	C5	0.683300	0.789400	0.454800
H171	H17	0.601500	0.734400	0.426800
H181	H18	0.669500	0.827400	0.304100
N51	N5	0.688100	0.890100	0.619200
H191	H19	0.703200	0.854700	0.760100
H201	H20	0.763100	0.941900	0.642700
C61	C6	0.183300	0.289400	0.454800
H211	H21	0.101500	0.234400	0.426800
H221	H22	0.169500	0.327400	0.304100
N61	N6	0.188100	0.390100	0.619200
H231	H23	0.203200	0.354700	0.760100
H241	H24	0.263100	0.441900	0.642700
C71	C7	0.316700	0.789400	0.045200
H251	H25	0.398500	0.734400	0.073200
H261	H26	0.330500	0.827400	0.195900
N71	N7	0.311900	0.890100	0.880800
H271	H27	0.296800	0.854700	0.739900
H281	H28	0.236900	0.941900	0.857300
C81	C8	0.816700	0.289400	0.045200
H291	H29	0.898500	0.234400	0.073200
H301	H30	0.830500	0.327400	0.195900
N81	N8	0.811900	0.390100	0.880800
H311	H31	0.796800	0.354700	0.739900
H321	H32	0.736900	0.441900	0.857300
Ag11	Ag1	0.500000	0.000000	0.500000
Ag21	Ag2	0.000000	0.500000	0.500000
Ag31	Ag3	0.500000	0.000000	0.000000
Ag41	Ag4	0.000000	0.500000	0.000000
