data_MAGVOG19_freeONLY_PM
_symmetry_space_group_name_H-M	'P1'
_cell_length_a	10.476700
_cell_length_b	10.487400
_cell_length_c	6.322500
_cell_angle_alpha	90.000000
_cell_angle_beta	115.385000
_cell_angle_gamma	90.000000
_symmetry_Int_Tables_number 1

loop_
_symmetry_equiv_pos_as_xyz
'x,y,z'

loop_
_atom_site_label
_atom_site_type_symbol
_atom_site_fract_x
_atom_site_fract_y
_atom_site_fract_z
C11	C1	0.315700	0.209800	0.546700
H11	H1	0.397100	0.264500	0.582700
H21	H2	0.325900	0.169700	0.691300
N11	N1	0.314300	0.110900	0.382100
H31	H3	0.300900	0.148300	0.246100
H41	H4	0.240400	0.058800	0.353200
C21	C2	0.815700	0.709800	0.546700
H51	H5	0.897100	0.764500	0.582700
H61	H6	0.825900	0.669700	0.691300
N21	N2	0.814300	0.610900	0.382100
H71	H7	0.800900	0.648300	0.246100
H81	H8	0.740400	0.558800	0.353200
C31	C3	0.684300	0.209800	0.953300
H91	H9	0.602900	0.264500	0.917300
H101	H10	0.674100	0.169700	0.808700
N31	N3	0.685700	0.110900	0.117900
H111	H11	0.699100	0.148300	0.253900
H121	H12	0.759600	0.058800	0.146800
C41	C4	0.184300	0.709800	0.953300
H131	H13	0.102900	0.764500	0.917300
H141	H14	0.174100	0.669700	0.808700
N41	N4	0.185700	0.610900	0.117900
H151	H15	0.199100	0.648300	0.253900
H161	H16	0.259600	0.558800	0.146800
C51	C5	0.684300	0.790200	0.453300
H171	H17	0.602900	0.735500	0.417300
H181	H18	0.674100	0.830300	0.308700
N51	N5	0.685700	0.889100	0.617900
H191	H19	0.699100	0.851700	0.753900
H201	H20	0.759600	0.941200	0.646800
C61	C6	0.184300	0.290200	0.453300
H211	H21	0.102900	0.235500	0.417300
H221	H22	0.174100	0.330300	0.308700
N61	N6	0.185700	0.389100	0.617900
H231	H23	0.199100	0.351700	0.753900
H241	H24	0.259600	0.441200	0.646800
C71	C7	0.315700	0.790200	0.046700
H251	H25	0.397100	0.735500	0.082700
H261	H26	0.325900	0.830300	0.191300
N71	N7	0.314300	0.889100	0.882100
H271	H27	0.300900	0.851700	0.746100
H281	H28	0.240400	0.941200	0.853200
C81	C8	0.815700	0.290200	0.046700
H291	H29	0.897100	0.235500	0.082700
H301	H30	0.825900	0.330300	0.191300
N81	N8	0.814300	0.389100	0.882100
H311	H31	0.800900	0.351700	0.746100
H321	H32	0.740400	0.441200	0.853200
Ag11	Ag1	0.500000	0.000000	0.500000
Ag21	Ag2	0.000000	0.500000	0.500000
Ag31	Ag3	0.500000	0.000000	0.000000
Ag41	Ag4	0.000000	0.500000	0.000000
