data_MALRUM_freeONLY_PM
_symmetry_space_group_name_H-M	'P1'
_cell_length_a	15.945300
_cell_length_b	17.420200
_cell_length_c	11.079200
_cell_angle_alpha	90.000000
_cell_angle_beta	123.926000
_cell_angle_gamma	90.000000
_symmetry_Int_Tables_number 1

loop_
_symmetry_equiv_pos_as_xyz
'x,y,z'

loop_
_atom_site_label
_atom_site_type_symbol
_atom_site_fract_x
_atom_site_fract_y
_atom_site_fract_z
O11	O1	0.258600	0.008500	0.146500
O21	O2	0.287600	0.045610	0.907000
O31	O3	0.266100	0.179900	0.072500
C11	C1	0.188900	0.027900	0.185900
C21	C2	0.303300	0.934300	0.205200
C31	C3	0.242900	0.971500	0.848400
C41	C4	0.357000	0.064900	0.867400
C51	C5	0.320700	0.247700	0.151100
C61	C6	0.168500	0.199500	0.947300
Li11	Li1	0.328900	0.079900	0.099500
H11	H1	0.159100	0.079000	0.146400
H21	H2	0.133300	0.989800	0.143600
H31	H3	0.249900	0.894500	0.163000
H41	H4	0.351700	0.921700	0.178900
H51	H5	0.194600	0.958900	0.874900
H61	H6	0.296300	0.931700	0.890400
H71	H7	0.412600	0.026900	0.909700
H81	H8	0.386800	0.116100	0.907000
H91	H9	0.388400	0.233300	0.236000
H101	H10	0.284100	0.274500	0.187400
H111	H11	0.128100	0.225100	0.978500
H121	H12	0.132400	0.152200	0.893700
O41	O4	0.758600	0.508500	0.146500
O51	O5	0.787600	0.545610	0.907000
O61	O6	0.766100	0.679900	0.072500
C71	C7	0.688900	0.527900	0.185900
C81	C8	0.803300	0.434300	0.205200
C91	C9	0.742900	0.471500	0.848400
C101	C10	0.857000	0.564900	0.867400
C111	C11	0.820700	0.747700	0.151100
C121	C12	0.668500	0.699500	0.947300
Li21	Li2	0.828900	0.579900	0.099500
H131	H13	0.659100	0.579000	0.146400
H141	H14	0.633300	0.489800	0.143600
H151	H15	0.749900	0.394500	0.163000
H161	H16	0.851700	0.421700	0.178900
H171	H17	0.694600	0.458900	0.874900
H181	H18	0.796300	0.431700	0.890400
H191	H19	0.912600	0.526900	0.909700
H201	H20	0.886800	0.616100	0.907000
H211	H21	0.888400	0.733300	0.236000
H221	H22	0.784100	0.774500	0.187400
H231	H23	0.628100	0.725100	0.978500
H241	H24	0.632400	0.652200	0.893700
O71	O7	0.741400	0.008500	0.353500
O81	O8	0.712400	0.045610	0.593000
O91	O9	0.733900	0.179900	0.427500
C131	C13	0.811100	0.027900	0.314100
C141	C14	0.696700	0.934300	0.294800
C151	C15	0.757100	0.971500	0.651600
C161	C16	0.643000	0.064900	0.632600
C171	C17	0.679300	0.247700	0.348900
C181	C18	0.831500	0.199500	0.552700
Li31	Li3	0.671100	0.079900	0.400500
H251	H25	0.840900	0.079000	0.353600
H261	H26	0.866700	0.989800	0.356400
H271	H27	0.750100	0.894500	0.337000
H281	H28	0.648300	0.921700	0.321100
H291	H29	0.805400	0.958900	0.625100
H301	H30	0.703700	0.931700	0.609600
H311	H31	0.587400	0.026900	0.590300
H321	H32	0.613200	0.116100	0.593000
H331	H33	0.611600	0.233300	0.264000
H341	H34	0.715900	0.274500	0.312600
H351	H35	0.871900	0.225100	0.521500
H361	H36	0.867600	0.152200	0.606300
O101	O10	0.241400	0.508500	0.353500
O111	O11	0.212400	0.545610	0.593000
O121	O12	0.233900	0.679900	0.427500
C191	C19	0.311100	0.527900	0.314100
C201	C20	0.196700	0.434300	0.294800
C211	C21	0.257100	0.471500	0.651600
C221	C22	0.143000	0.564900	0.632600
C231	C23	0.179300	0.747700	0.348900
C241	C24	0.331500	0.699500	0.552700
Li41	Li4	0.171100	0.579900	0.400500
H371	H37	0.340900	0.579000	0.353600
H381	H38	0.366700	0.489800	0.356400
H391	H39	0.250100	0.394500	0.337000
H401	H40	0.148300	0.421700	0.321100
H411	H41	0.305400	0.458900	0.625100
H421	H42	0.203700	0.431700	0.609600
H431	H43	0.087400	0.526900	0.590300
H441	H44	0.113200	0.616100	0.593000
H451	H45	0.111600	0.733300	0.264000
H461	H46	0.215900	0.774500	0.312600
H471	H47	0.371900	0.725100	0.521500
H481	H48	0.367600	0.652200	0.606300
O131	O13	0.741400	0.991500	0.853500
O141	O14	0.712400	0.954390	0.093000
O151	O15	0.733900	0.820100	0.927500
C251	C25	0.811100	0.972100	0.814100
C261	C26	0.696700	0.065700	0.794800
C271	C27	0.757100	0.028500	0.151600
C281	C28	0.643000	0.935100	0.132600
C291	C29	0.679300	0.752300	0.848900
C301	C30	0.831500	0.800500	0.052700
Li51	Li5	0.671100	0.920100	0.900500
H491	H49	0.840900	0.921000	0.853600
H501	H50	0.866700	0.010200	0.856400
H511	H51	0.750100	0.105500	0.837000
H521	H52	0.648300	0.078300	0.821100
H531	H53	0.805400	0.041100	0.125100
H541	H54	0.703700	0.068300	0.109600
H551	H55	0.587400	0.973100	0.090300
H561	H56	0.613200	0.883900	0.093000
H571	H57	0.611600	0.766700	0.764000
H581	H58	0.715900	0.725500	0.812600
H591	H59	0.871900	0.774900	0.021500
H601	H60	0.867600	0.847800	0.106300
O161	O16	0.241400	0.491500	0.853500
O171	O17	0.212400	0.454390	0.093000
O181	O18	0.233900	0.320100	0.927500
C311	C31	0.311100	0.472100	0.814100
C321	C32	0.196700	0.565700	0.794800
C331	C33	0.257100	0.528500	0.151600
C341	C34	0.143000	0.435100	0.132600
C351	C35	0.179300	0.252300	0.848900
C361	C36	0.331500	0.300500	0.052700
Li61	Li6	0.171100	0.420100	0.900500
H611	H61	0.340900	0.421000	0.853600
H621	H62	0.366700	0.510200	0.856400
H631	H63	0.250100	0.605500	0.837000
H641	H64	0.148300	0.578300	0.821100
H651	H65	0.305400	0.541100	0.125100
H661	H66	0.203700	0.568300	0.109600
H671	H67	0.087400	0.473100	0.090300
H681	H68	0.113200	0.383900	0.093000
H691	H69	0.111600	0.266700	0.764000
H701	H70	0.215900	0.225500	0.812600
H711	H71	0.371900	0.274900	0.021500
H721	H72	0.367600	0.347800	0.106300
O191	O19	0.258600	0.991500	0.646500
O201	O20	0.287600	0.954390	0.407000
O211	O21	0.266100	0.820100	0.572500
C371	C37	0.188900	0.972100	0.685900
C381	C38	0.303300	0.065700	0.705200
C391	C39	0.242900	0.028500	0.348400
C401	C40	0.357000	0.935100	0.367400
C411	C41	0.320700	0.752300	0.651100
C421	C42	0.168500	0.800500	0.447300
Li71	Li7	0.328900	0.920100	0.599500
H731	H73	0.159100	0.921000	0.646400
H741	H74	0.133300	0.010200	0.643600
H751	H75	0.249900	0.105500	0.663000
H761	H76	0.351700	0.078300	0.678900
H771	H77	0.194600	0.041100	0.374900
H781	H78	0.296300	0.068300	0.390400
H791	H79	0.412600	0.973100	0.409700
H801	H80	0.386800	0.883900	0.407000
H811	H81	0.388400	0.766700	0.736000
H821	H82	0.284100	0.725500	0.687400
H831	H83	0.128100	0.774900	0.478500
H841	H84	0.132400	0.847800	0.393700
O221	O22	0.758600	0.491500	0.646500
O231	O23	0.787600	0.454390	0.407000
O241	O24	0.766100	0.320100	0.572500
C431	C43	0.688900	0.472100	0.685900
C441	C44	0.803300	0.565700	0.705200
C451	C45	0.742900	0.528500	0.348400
C461	C46	0.857000	0.435100	0.367400
C471	C47	0.820700	0.252300	0.651100
C481	C48	0.668500	0.300500	0.447300
Li81	Li8	0.828900	0.420100	0.599500
H851	H85	0.659100	0.421000	0.646400
H861	H86	0.633300	0.510200	0.643600
H871	H87	0.749900	0.605500	0.663000
H881	H88	0.851700	0.578300	0.678900
H891	H89	0.694600	0.541100	0.374900
H901	H90	0.796300	0.568300	0.390400
H911	H91	0.912600	0.473100	0.409700
H921	H92	0.886800	0.383900	0.407000
H931	H93	0.888400	0.266700	0.736000
H941	H94	0.784100	0.225500	0.687400
H951	H95	0.628100	0.274900	0.478500
H961	H96	0.632400	0.347800	0.393700
Cl11	Cl1	0.500000	0.088670	0.250000
Cl21	Cl2	0.000000	0.588670	0.250000
Cl31	Cl3	0.500000	0.911330	0.750000
Cl41	Cl4	0.000000	0.411330	0.750000
