data_MAPCIP_freeONLY_PM
_symmetry_space_group_name_H-M	'P1'
_cell_length_a	15.261000
_cell_length_b	15.261000
_cell_length_c	28.898000
_cell_angle_alpha	90.000000
_cell_angle_beta	90.000000
_cell_angle_gamma	90.000000
_symmetry_Int_Tables_number 1

loop_
_symmetry_equiv_pos_as_xyz
'x,y,z'

loop_
_atom_site_label
_atom_site_type_symbol
_atom_site_fract_x
_atom_site_fract_y
_atom_site_fract_z
Ga11	Ga1	0.199420	0.258670	0.296420
Ga21	Ga2	0.069920	0.155200	0.199300
P11	P1	0.227780	0.074860	0.251080
P21	P2	0.205450	0.179830	0.111710
O11	O1	0.212600	0.132700	0.294380
O21	O2	0.128300	0.143200	0.139020
O31	O3	0.294500	0.119500	0.218460
O41	O4	0.178500	0.228000	0.068030
O51	O5	0.235900	0.262300	0.358850
O61	O6	0.235900	0.400100	0.403680
O71	O7	0.492900	0.332300	0.242560
O81	O8	0.165800	0.243200	0.225170
O91	O9	0.580700	0.259400	0.181490
O101	O10	0.233400	0.511900	0.233280
O111	O11	0.359200	0.439600	0.274910
Ga31	Ga3	0.699420	0.758670	0.796420
Ga41	Ga4	0.569920	0.655200	0.699300
P31	P3	0.727780	0.574860	0.751080
P41	P4	0.705450	0.679830	0.611710
O121	O12	0.712600	0.632700	0.794380
O131	O13	0.628300	0.643200	0.639020
O141	O14	0.794500	0.619500	0.718460
O151	O15	0.678500	0.728000	0.568030
O161	O16	0.735900	0.762300	0.858850
O171	O17	0.735900	0.900100	0.903680
O181	O18	0.992900	0.832300	0.742560
O191	O19	0.665800	0.743200	0.725170
O201	O20	0.080700	0.759400	0.681490
O211	O21	0.733400	0.011900	0.733280
O221	O22	0.859200	0.939600	0.774910
Ga51	Ga5	0.300580	0.741330	0.796420
Ga61	Ga6	0.430080	0.844800	0.699300
P51	P5	0.272220	0.925140	0.751080
P61	P6	0.294550	0.820170	0.611710
O231	O23	0.287400	0.867300	0.794380
O241	O24	0.371700	0.856800	0.639020
O251	O25	0.205500	0.880500	0.718460
O261	O26	0.321500	0.772000	0.568030
O271	O27	0.264100	0.737700	0.858850
O281	O28	0.264100	0.599900	0.903680
O291	O29	0.007100	0.667700	0.742560
O301	O30	0.334200	0.756800	0.725170
O311	O31	0.919300	0.740600	0.681490
O321	O32	0.266600	0.488100	0.733280
O331	O33	0.140800	0.560400	0.774910
Ga71	Ga7	0.800580	0.241330	0.296420
Ga81	Ga8	0.930080	0.344800	0.199300
P71	P7	0.772220	0.425140	0.251080
P81	P8	0.794550	0.320170	0.111710
O341	O34	0.787400	0.367300	0.294380
O351	O35	0.871700	0.356800	0.139020
O361	O36	0.705500	0.380500	0.218460
O371	O37	0.821500	0.272000	0.068030
O381	O38	0.764100	0.237700	0.358850
O391	O39	0.764100	0.099900	0.403680
O401	O40	0.507100	0.167700	0.242560
O411	O41	0.834200	0.256800	0.225170
O421	O42	0.419300	0.240600	0.181490
O431	O43	0.766600	0.988100	0.233280
O441	O44	0.640800	0.060400	0.274910
Ga91	Ga9	0.491330	0.449420	0.546420
Ga101	Ga10	0.594800	0.319920	0.449300
P91	P9	0.675140	0.477780	0.501080
P101	P10	0.570170	0.455450	0.361710
O451	O45	0.617300	0.462600	0.544380
O461	O46	0.606800	0.378300	0.389020
O471	O47	0.630500	0.544500	0.468460
O481	O48	0.522000	0.428500	0.318030
O491	O49	0.487700	0.485900	0.608850
O501	O50	0.349900	0.485900	0.653680
O511	O51	0.417700	0.742900	0.492560
O521	O52	0.506800	0.415800	0.475170
O531	O53	0.490600	0.830700	0.431490
O541	O54	0.238100	0.483400	0.483280
O551	O55	0.310400	0.609200	0.524910
Ga111	Ga11	0.991330	0.949420	0.046420
Ga121	Ga12	0.094800	0.819920	0.949300
P111	P11	0.175140	0.977780	0.001080
P121	P12	0.070170	0.955450	0.861710
O561	O56	0.117300	0.962600	0.044380
O571	O57	0.106800	0.878300	0.889020
O581	O58	0.130500	0.044500	0.968460
O591	O59	0.022000	0.928500	0.818030
O601	O60	0.987700	0.985900	0.108850
O611	O61	0.849900	0.985900	0.153680
O621	O62	0.917700	0.242900	0.992560
O631	O63	0.006800	0.915800	0.975170
O641	O64	0.990600	0.330700	0.931490
O651	O65	0.738100	0.983400	0.983280
O661	O66	0.810400	0.109200	0.024910
Ga131	Ga13	0.008670	0.550580	0.046420
Ga141	Ga14	0.905200	0.680080	0.949300
P131	P13	0.824860	0.522220	0.001080
P141	P14	0.929830	0.544550	0.861710
O671	O67	0.882700	0.537400	0.044380
O681	O68	0.893200	0.621700	0.889020
O691	O69	0.869500	0.455500	0.968460
O701	O70	0.978000	0.571500	0.818030
O711	O71	0.012300	0.514100	0.108850
O721	O72	0.150100	0.514100	0.153680
O731	O73	0.082300	0.257100	0.992560
O741	O74	0.993200	0.584200	0.975170
O751	O75	0.009400	0.169300	0.931490
O761	O76	0.261900	0.516600	0.983280
O771	O77	0.189600	0.390800	0.024910
Ga151	Ga15	0.508670	0.050580	0.546420
Ga161	Ga16	0.405200	0.180080	0.449300
P151	P15	0.324860	0.022220	0.501080
P161	P16	0.429830	0.044550	0.361710
O781	O78	0.382700	0.037400	0.544380
O791	O79	0.393200	0.121700	0.389020
O801	O80	0.369500	0.955500	0.468460
O811	O81	0.478000	0.071500	0.318030
O821	O82	0.512300	0.014100	0.608850
O831	O83	0.650100	0.014100	0.653680
O841	O84	0.582300	0.757100	0.492560
O851	O85	0.493200	0.084200	0.475170
O861	O86	0.509400	0.669300	0.431490
O871	O87	0.761900	0.016600	0.483280
O881	O88	0.689600	0.890800	0.524910
Ga171	Ga17	0.800580	0.741330	0.703580
Ga181	Ga18	0.930080	0.844800	0.800700
P171	P17	0.772220	0.925140	0.748920
P181	P18	0.794550	0.820170	0.888290
O891	O89	0.787400	0.867300	0.705620
O901	O90	0.871700	0.856800	0.860980
O911	O91	0.705500	0.880500	0.781540
O921	O92	0.821500	0.772000	0.931970
O931	O93	0.764100	0.737700	0.641150
O941	O94	0.764100	0.599900	0.596320
O951	O95	0.507100	0.667700	0.757440
O961	O96	0.834200	0.756800	0.774830
O971	O97	0.419300	0.740600	0.818510
O981	O98	0.766600	0.488100	0.766720
O991	O99	0.640800	0.560400	0.725090
Ga191	Ga19	0.300580	0.241330	0.203580
Ga201	Ga20	0.430080	0.344800	0.300700
P191	P19	0.272220	0.425140	0.248920
P201	P20	0.294550	0.320170	0.388290
O1001	O100	0.287400	0.367300	0.205620
O1011	O101	0.371700	0.356800	0.360980
O1021	O102	0.205500	0.380500	0.281540
O1031	O103	0.321500	0.272000	0.431970
O1041	O104	0.264100	0.237700	0.141150
O1051	O105	0.264100	0.099900	0.096320
O1061	O106	0.007100	0.167700	0.257440
O1071	O107	0.334200	0.256800	0.274830
O1081	O108	0.919300	0.240600	0.318510
O1091	O109	0.266600	0.988100	0.266720
O1101	O110	0.140800	0.060400	0.225090
Ga211	Ga21	0.699420	0.258670	0.203580
Ga221	Ga22	0.569920	0.155200	0.300700
P211	P21	0.727780	0.074860	0.248920
P221	P22	0.705450	0.179830	0.388290
O1111	O111	0.712600	0.132700	0.205620
O1121	O112	0.628300	0.143200	0.360980
O1131	O113	0.794500	0.119500	0.281540
O1141	O114	0.678500	0.228000	0.431970
O1151	O115	0.735900	0.262300	0.141150
O1161	O116	0.735900	0.400100	0.096320
O1171	O117	0.992900	0.332300	0.257440
O1181	O118	0.665800	0.243200	0.274830
O1191	O119	0.080700	0.259400	0.318510
O1201	O120	0.733400	0.511900	0.266720
O1211	O121	0.859200	0.439600	0.225090
Ga231	Ga23	0.199420	0.758670	0.703580
Ga241	Ga24	0.069920	0.655200	0.800700
P231	P23	0.227780	0.574860	0.748920
P241	P24	0.205450	0.679830	0.888290
O1221	O122	0.212600	0.632700	0.705620
O1231	O123	0.128300	0.643200	0.860980
O1241	O124	0.294500	0.619500	0.781540
O1251	O125	0.178500	0.728000	0.931970
O1261	O126	0.235900	0.762300	0.641150
O1271	O127	0.235900	0.900100	0.596320
O1281	O128	0.492900	0.832300	0.757440
O1291	O129	0.165800	0.743200	0.774830
O1301	O130	0.580700	0.759400	0.818510
O1311	O131	0.233400	0.011900	0.766720
O1321	O132	0.359200	0.939600	0.725090
Ga251	Ga25	0.508670	0.550580	0.453580
Ga261	Ga26	0.405200	0.680080	0.550700
P251	P25	0.324860	0.522220	0.498920
P261	P26	0.429830	0.544550	0.638290
O1331	O133	0.382700	0.537400	0.455620
O1341	O134	0.393200	0.621700	0.610980
O1351	O135	0.369500	0.455500	0.531540
O1361	O136	0.478000	0.571500	0.681970
O1371	O137	0.512300	0.514100	0.391150
O1381	O138	0.650100	0.514100	0.346320
O1391	O139	0.582300	0.257100	0.507440
O1401	O140	0.493200	0.584200	0.524830
O1411	O141	0.509400	0.169300	0.568510
O1421	O142	0.761900	0.516600	0.516720
O1431	O143	0.689600	0.390800	0.475090
Ga271	Ga27	0.008670	0.050580	0.953580
Ga281	Ga28	0.905200	0.180080	0.050700
P271	P27	0.824860	0.022220	0.998920
P281	P28	0.929830	0.044550	0.138290
O1441	O144	0.882700	0.037400	0.955620
O1451	O145	0.893200	0.121700	0.110980
O1461	O146	0.869500	0.955500	0.031540
O1471	O147	0.978000	0.071500	0.181970
O1481	O148	0.012300	0.014100	0.891150
O1491	O149	0.150100	0.014100	0.846320
O1501	O150	0.082300	0.757100	0.007440
O1511	O151	0.993200	0.084200	0.024830
O1521	O152	0.009400	0.669300	0.068510
O1531	O153	0.261900	0.016600	0.016720
O1541	O154	0.189600	0.890800	0.975090
Ga291	Ga29	0.991330	0.449420	0.953580
Ga301	Ga30	0.094800	0.319920	0.050700
P291	P29	0.175140	0.477780	0.998920
P301	P30	0.070170	0.455450	0.138290
O1551	O155	0.117300	0.462600	0.955620
O1561	O156	0.106800	0.378300	0.110980
O1571	O157	0.130500	0.544500	0.031540
O1581	O158	0.022000	0.428500	0.181970
O1591	O159	0.987700	0.485900	0.891150
O1601	O160	0.849900	0.485900	0.846320
O1611	O161	0.917700	0.742900	0.007440
O1621	O162	0.006800	0.415800	0.024830
O1631	O163	0.990600	0.830700	0.068510
O1641	O164	0.738100	0.483400	0.016720
O1651	O165	0.810400	0.609200	0.975090
Ga311	Ga31	0.491330	0.949420	0.453580
Ga321	Ga32	0.594800	0.819920	0.550700
P311	P31	0.675140	0.977780	0.498920
P321	P32	0.570170	0.955450	0.638290
O1661	O166	0.617300	0.962600	0.455620
O1671	O167	0.606800	0.878300	0.610980
O1681	O168	0.630500	0.044500	0.531540
O1691	O169	0.522000	0.928500	0.681970
O1701	O170	0.487700	0.985900	0.391150
O1711	O171	0.349900	0.985900	0.346320
O1721	O172	0.417700	0.242900	0.507440
O1731	O173	0.506800	0.915800	0.524830
O1741	O174	0.490600	0.330700	0.568510
O1751	O175	0.238100	0.983400	0.516720
O1761	O176	0.310400	0.109200	0.475090
P331	P33	0.500000	0.250000	0.212560
P341	P34	0.000000	0.750000	0.712560
P351	P35	0.500000	0.750000	0.462560
P361	P36	0.000000	0.250000	0.962560
P371	P37	0.500000	0.750000	0.787440
P381	P38	0.000000	0.250000	0.287440
P391	P39	0.500000	0.250000	0.537440
P401	P40	0.000000	0.750000	0.037440
O1771	O177	0.000000	0.250000	0.174300
O1781	O178	0.500000	0.750000	0.674300
O1791	O179	0.500000	0.250000	0.424300
O1801	O180	0.000000	0.750000	0.924300
O1811	O181	0.000000	0.750000	0.825700
O1821	O182	0.500000	0.250000	0.325700
O1831	O183	0.500000	0.750000	0.575700
O1841	O184	0.000000	0.250000	0.075700
