data_MAPFIS_freeONLY_PM
_symmetry_space_group_name_H-M	'P1'
_cell_length_a	10.762000
_cell_length_b	16.137000
_cell_length_c	20.368000
_cell_angle_alpha	111.650000
_cell_angle_beta	90.000000
_cell_angle_gamma	90.000000
_symmetry_Int_Tables_number 1

loop_
_symmetry_equiv_pos_as_xyz
'x,y,z'

loop_
_atom_site_label
_atom_site_type_symbol
_atom_site_fract_x
_atom_site_fract_y
_atom_site_fract_z
Ti11	Ti1	0.359800	0.461800	0.788300
Ti21	Ti2	0.578500	0.540400	0.713800
Ti31	Ti3	0.859800	0.038200	0.711700
Ti41	Ti4	0.078500	0.959600	0.786200
Ti51	Ti5	0.640200	0.538200	0.211700
Ti61	Ti6	0.421500	0.459600	0.286200
Ti71	Ti7	0.140200	0.961800	0.288300
Ti81	Ti8	0.921500	0.040400	0.213800
H11	H1	0.587300	0.307300	0.631500
H21	H2	0.713900	0.183800	0.616900
H31	H3	0.277200	0.224200	0.675500
H41	H4	0.652500	0.398800	0.838500
H51	H5	0.162000	0.728300	0.682400
H61	H6	0.292500	0.607500	0.667400
H71	H7	0.358400	0.704000	0.875400
H81	H8	0.221400	0.819300	0.890200
H91	H9	0.073400	0.636300	0.807700
H101	H10	0.879600	0.637100	0.756400
H111	H11	0.871900	0.369700	0.689700
H121	H12	0.065900	0.368200	0.737700
H131	H13	0.445500	0.372900	0.904000
H141	H14	0.490000	0.638700	0.990700
H151	H15	0.316400	0.481700	0.552100
H161	H16	0.688500	0.511400	0.560100
H171	H17	0.087300	0.192700	0.868500
H181	H18	0.213900	0.316200	0.883100
H191	H19	0.777200	0.275800	0.824500
H201	H20	0.152500	0.101200	0.661500
H211	H21	0.662000	0.771700	0.817600
H221	H22	0.792500	0.892500	0.832600
H231	H23	0.858400	0.796000	0.624600
H241	H24	0.721400	0.680700	0.609800
H251	H25	0.573400	0.863700	0.692300
H261	H26	0.379600	0.862900	0.743600
H271	H27	0.371900	0.130300	0.810300
H281	H28	0.565900	0.131800	0.762300
H291	H29	0.945500	0.127100	0.596000
H301	H30	0.990000	0.861300	0.509300
H311	H31	0.816400	0.018300	0.947900
H321	H32	0.188500	0.988600	0.939900
H331	H33	0.412700	0.692700	0.368500
H341	H34	0.286100	0.816200	0.383100
H351	H35	0.722800	0.775800	0.324500
H361	H36	0.347500	0.601200	0.161500
H371	H37	0.838000	0.271700	0.317600
H381	H38	0.707500	0.392500	0.332600
H391	H39	0.641600	0.296000	0.124600
H401	H40	0.778600	0.180700	0.109800
H411	H41	0.926600	0.363700	0.192300
H421	H42	0.120400	0.362900	0.243600
H431	H43	0.128100	0.630300	0.310300
H441	H44	0.934100	0.631800	0.262300
H451	H45	0.554500	0.627100	0.096000
H461	H46	0.510000	0.361300	0.009300
H471	H47	0.683600	0.518300	0.447900
H481	H48	0.311500	0.488600	0.439900
H491	H49	0.912700	0.807300	0.131500
H501	H50	0.786100	0.683800	0.116900
H511	H51	0.222800	0.724200	0.175500
H521	H52	0.847500	0.898800	0.338500
H531	H53	0.338000	0.228300	0.182400
H541	H54	0.207500	0.107500	0.167400
H551	H55	0.141600	0.204000	0.375400
H561	H56	0.278600	0.319300	0.390200
H571	H57	0.426600	0.136300	0.307700
H581	H58	0.620400	0.137100	0.256400
H591	H59	0.628100	0.869700	0.189700
H601	H60	0.434100	0.868200	0.237700
H611	H61	0.054500	0.872900	0.404000
H621	H62	0.010000	0.138700	0.490700
H631	H63	0.183600	0.981700	0.052100
H641	H64	0.811500	0.011400	0.060100
C11	C1	0.602200	0.362600	0.736500
C21	C2	0.624100	0.300800	0.670600
C31	C3	0.702000	0.227200	0.661500
C41	C4	0.260800	0.279900	0.780400
C51	C5	0.240100	0.218000	0.714600
C61	C6	0.663000	0.355000	0.793900
C71	C7	0.177500	0.784900	0.787300
C81	C8	0.199800	0.722500	0.721500
C91	C9	0.278900	0.650100	0.712200
C101	C10	0.336200	0.642800	0.770300
C111	C11	0.316800	0.707500	0.836500
C121	C12	0.236200	0.777300	0.845200
C131	C13	0.088600	0.503900	0.778700
C141	C14	0.032700	0.582700	0.784000
C151	C15	0.915600	0.583800	0.754200
C161	C16	0.853600	0.501500	0.720900
C171	C17	0.911900	0.423500	0.714100
C181	C18	0.028200	0.422000	0.742400
C191	C19	0.456000	0.508900	0.938800
C201	C20	0.466100	0.423700	0.942700
C211	C21	0.492700	0.583200	0.994700
C221	C22	0.500500	0.486700	0.565500
C231	C23	0.390800	0.487000	0.530700
C241	C24	0.613700	0.505000	0.535800
C251	C25	0.102200	0.137400	0.763500
C261	C26	0.124100	0.199200	0.829400
C271	C27	0.202000	0.272800	0.838500
C281	C28	0.760800	0.220100	0.719600
C291	C29	0.740100	0.282000	0.785400
C301	C30	0.163000	0.145000	0.706100
C311	C31	0.677500	0.715100	0.712700
C321	C32	0.699800	0.777500	0.778500
C331	C33	0.778900	0.849900	0.787800
C341	C34	0.836200	0.857200	0.729700
C351	C35	0.816800	0.792500	0.663500
C361	C36	0.736200	0.722700	0.654800
C371	C37	0.588600	0.996100	0.721300
C381	C38	0.532700	0.917300	0.716000
C391	C39	0.415600	0.916200	0.745800
C401	C40	0.353600	0.998500	0.779100
C411	C41	0.411900	0.076500	0.785900
C421	C42	0.528200	0.078000	0.757600
C431	C43	0.956000	0.991100	0.561200
C441	C44	0.966100	0.076300	0.557300
C451	C45	0.992700	0.916800	0.505300
C461	C46	0.000500	0.013300	0.934500
C471	C47	0.890800	0.013000	0.969300
C481	C48	0.113700	0.995000	0.964200
C491	C49	0.397800	0.637400	0.263500
C501	C50	0.375900	0.699200	0.329400
C511	C51	0.298000	0.772800	0.338500
C521	C52	0.739200	0.720100	0.219600
C531	C53	0.759900	0.782000	0.285400
C541	C54	0.337000	0.645000	0.206100
C551	C55	0.822500	0.215100	0.212700
C561	C56	0.800200	0.277500	0.278500
C571	C57	0.721100	0.349900	0.287800
C581	C58	0.663800	0.357200	0.229700
C591	C59	0.683200	0.292500	0.163500
C601	C60	0.763800	0.222700	0.154800
C611	C61	0.911400	0.496100	0.221300
C621	C62	0.967300	0.417300	0.216000
C631	C63	0.084400	0.416200	0.245800
C641	C64	0.146400	0.498500	0.279100
C651	C65	0.088100	0.576500	0.285900
C661	C66	0.971800	0.578000	0.257600
C671	C67	0.544000	0.491100	0.061200
C681	C68	0.533900	0.576300	0.057300
C691	C69	0.507300	0.416800	0.005300
C701	C70	0.499500	0.513300	0.434500
C711	C71	0.609200	0.513000	0.469300
C721	C72	0.386300	0.495000	0.464200
C731	C73	0.897800	0.862600	0.236500
C741	C74	0.875900	0.800800	0.170600
C751	C75	0.798000	0.727200	0.161500
C761	C76	0.239200	0.779900	0.280400
C771	C77	0.259900	0.718000	0.214600
C781	C78	0.837000	0.855000	0.293900
C791	C79	0.322500	0.284900	0.287300
C801	C80	0.300200	0.222500	0.221500
C811	C81	0.221100	0.150100	0.212200
C821	C82	0.163800	0.142800	0.270300
C831	C83	0.183200	0.207500	0.336500
C841	C84	0.263800	0.277300	0.345200
C851	C85	0.411400	0.003900	0.278700
C861	C86	0.467300	0.082700	0.284000
C871	C87	0.584400	0.083800	0.254200
C881	C88	0.646400	0.001500	0.220900
C891	C89	0.588100	0.923500	0.214100
C901	C90	0.471800	0.922000	0.242400
C911	C91	0.044000	0.008900	0.438800
C921	C92	0.033900	0.923700	0.442700
C931	C93	0.007300	0.083200	0.494700
C941	C94	0.999500	0.986700	0.065500
C951	C95	0.109200	0.987000	0.030700
C961	C96	0.886300	0.005000	0.035800
O11	O1	0.201700	0.506200	0.810000
O21	O2	0.531500	0.436900	0.746200
O31	O3	0.419000	0.517200	0.876800
O41	O4	0.412300	0.570200	0.762900
O51	O5	0.300700	0.415200	0.677800
O61	O6	0.335000	0.352400	0.788100
O71	O7	0.633000	0.598300	0.824900
O81	O8	0.095400	0.853300	0.794700
O91	O9	0.738100	0.502900	0.695000
O101	O10	0.500900	0.479000	0.628300
O111	O11	0.701700	0.993800	0.690000
O121	O12	0.031500	0.063100	0.753800
O131	O13	0.919000	0.982800	0.623200
O141	O14	0.912300	0.929800	0.737100
O151	O15	0.800700	0.084800	0.822200
O161	O16	0.835000	0.147600	0.711900
O171	O17	0.133000	0.901700	0.675100
O181	O18	0.595400	0.646700	0.705300
O191	O19	0.238100	0.997100	0.805000
O201	O20	0.000900	0.021000	0.871700
O211	O21	0.798300	0.493800	0.190000
O221	O22	0.468500	0.563100	0.253800
O231	O23	0.581000	0.482800	0.123200
O241	O24	0.587700	0.429800	0.237100
O251	O25	0.699300	0.584800	0.322200
O261	O26	0.665000	0.647600	0.211900
O271	O27	0.367000	0.401700	0.175100
O281	O28	0.904600	0.146700	0.205300
O291	O29	0.261900	0.497100	0.305000
O301	O30	0.499100	0.521000	0.371700
O311	O31	0.298300	0.006200	0.310000
O321	O32	0.968500	0.936900	0.246200
O331	O33	0.081000	0.017200	0.376800
O341	O34	0.087700	0.070200	0.262900
O351	O35	0.199300	0.915200	0.177800
O361	O36	0.165000	0.852400	0.288100
O371	O37	0.867000	0.098300	0.324900
O381	O38	0.404600	0.353300	0.294700
O391	O39	0.761900	0.002900	0.195000
O401	O40	0.999100	0.979000	0.128300
