data_MASZUD_freeONLY_PM
_symmetry_space_group_name_H-M	'P1'
_cell_length_a	15.037300
_cell_length_b	15.037300
_cell_length_c	18.102600
_cell_angle_alpha	94.472300
_cell_angle_beta	94.472300
_cell_angle_gamma	90.085900
_symmetry_Int_Tables_number 1

loop_
_symmetry_equiv_pos_as_xyz
'x,y,z'

loop_
_atom_site_label
_atom_site_type_symbol
_atom_site_fract_x
_atom_site_fract_y
_atom_site_fract_z
Cu11	Cu1	0.406230	0.230470	0.474260
Cu21	Cu2	0.196310	0.374570	0.510480
Cu31	Cu3	0.281000	0.195100	0.641250
Cu41	Cu4	0.769530	0.593770	0.025740
Cu51	Cu5	0.625430	0.803690	0.989520
Cu61	Cu6	0.804900	0.719000	0.858750
Mo11	Mo1	0.232810	0.197690	0.495900
Mo21	Mo2	0.802310	0.767190	0.004100
H11	H1	0.566400	0.111800	0.432300
H21	H2	0.615500	0.033500	0.330100
H31	H3	0.420700	0.145300	0.206300
H41	H4	0.375100	0.216500	0.312300
H51	H5	0.716700	0.945900	0.105300
H61	H6	0.683600	0.034000	0.208100
H71	H7	0.426300	0.004500	0.139500
H81	H8	0.465400	0.913800	0.041100
H91	H9	0.620000	0.670000	0.807400
H101	H10	0.539300	0.572700	0.725300
H111	H11	0.767800	0.478400	0.653800
H121	H12	0.841800	0.581800	0.735500
H131	H13	0.405300	0.415500	0.532500
H141	H14	0.482900	0.520300	0.608700
H151	H15	0.684100	0.350500	0.621700
H161	H16	0.602300	0.252700	0.542000
H171	H17	0.842700	0.801700	0.711400
H181	H18	0.937100	0.899900	0.669000
H191	H19	0.080100	0.904500	0.864800
H201	H20	0.984400	0.801200	0.899800
H211	H21	0.888200	0.433600	0.067700
H221	H22	0.966500	0.384500	0.169900
H231	H23	0.854700	0.579300	0.293700
H241	H24	0.783500	0.624900	0.187700
H251	H25	0.054100	0.283300	0.394700
H261	H26	0.966000	0.316400	0.291900
H271	H27	0.995500	0.573700	0.360500
H281	H28	0.086200	0.534600	0.458900
H291	H29	0.330000	0.380000	0.692600
H301	H30	0.427300	0.460700	0.774700
H311	H31	0.521600	0.232200	0.846200
H321	H32	0.418200	0.158200	0.764500
H331	H33	0.584500	0.594700	0.967500
H341	H34	0.479700	0.517100	0.891300
H351	H35	0.649500	0.315900	0.878300
H361	H36	0.747300	0.397700	0.958000
H371	H37	0.198300	0.157300	0.788600
H381	H38	0.100100	0.062900	0.831000
H391	H39	0.095500	0.919900	0.635200
H401	H40	0.198800	0.015600	0.600200
C11	C1	0.536100	0.117700	0.386200
C21	C2	0.566700	0.070900	0.324700
C31	C3	0.524500	0.079700	0.255000
C41	C4	0.451300	0.136500	0.251800
C51	C5	0.424500	0.179500	0.315800
C61	C6	0.657100	0.956300	0.113200
C71	C7	0.637700	0.009900	0.175100
C81	C8	0.550900	0.027500	0.187800
C91	C9	0.486100	0.991700	0.134600
C101	C10	0.510100	0.937900	0.075300
C111	C11	0.650600	0.631200	0.775900
C121	C12	0.601200	0.572200	0.726900
C131	C13	0.643900	0.511900	0.680100
C141	C14	0.735800	0.516800	0.684400
C151	C15	0.779900	0.579300	0.734200
C161	C16	0.462500	0.401300	0.551300
C171	C17	0.508500	0.465100	0.597600
C181	C18	0.593000	0.446600	0.627600
C191	C19	0.626500	0.365700	0.604700
C201	C20	0.576300	0.306500	0.557100
C211	C21	0.891700	0.822100	0.742600
C221	C22	0.947600	0.881600	0.716800
C231	C23	0.021000	0.915000	0.762800
C241	C24	0.032500	0.883900	0.832000
C251	C25	0.974000	0.822400	0.853100
C261	C26	0.882300	0.463900	0.113800
C271	C27	0.929100	0.433300	0.175300
C281	C28	0.920300	0.475500	0.245000
C291	C29	0.863500	0.548700	0.248200
C301	C30	0.820500	0.575500	0.184200
C311	C31	0.043700	0.342900	0.386800
C321	C32	0.990100	0.362300	0.324900
C331	C33	0.972500	0.449100	0.312200
C341	C34	0.008300	0.513900	0.365400
C351	C35	0.062100	0.489900	0.424700
C361	C36	0.368800	0.349400	0.724100
C371	C37	0.427800	0.398800	0.773100
C381	C38	0.488100	0.356100	0.819900
C391	C39	0.483200	0.264200	0.815600
C401	C40	0.420700	0.220100	0.765800
C411	C41	0.598700	0.537500	0.948700
C421	C42	0.534900	0.491500	0.902400
C431	C43	0.553400	0.407000	0.872400
C441	C44	0.634300	0.373500	0.895300
C451	C45	0.693500	0.423700	0.942900
C461	C46	0.177900	0.108300	0.757400
C471	C47	0.118400	0.052400	0.783200
C481	C48	0.085000	0.979000	0.737200
C491	C49	0.116100	0.967500	0.668000
C501	C50	0.177600	0.026000	0.646900
S11	S1	0.281910	0.301250	0.425050
S21	S2	0.353750	0.127190	0.546420
S31	S3	0.162830	0.270390	0.589040
S41	S4	0.698750	0.718090	0.074950
S51	S5	0.872810	0.646250	0.953580
S61	S6	0.729610	0.837170	0.910960
I11	I1	0.246690	0.527590	0.570140
I21	I2	0.472410	0.753310	0.929860
N11	N1	0.465600	0.170800	0.383000
N21	N2	0.595200	0.918400	0.064000
N31	N3	0.739000	0.636200	0.780800
N41	N4	0.492900	0.321100	0.531300
N51	N5	0.902400	0.791200	0.809700
N61	N6	0.829200	0.534400	0.117000
N71	N7	0.081600	0.404800	0.436000
N81	N8	0.363800	0.261000	0.719200
N91	N9	0.678900	0.507100	0.968700
N101	N10	0.208800	0.097600	0.690300
O11	O1	0.161500	0.123900	0.445100
O21	O2	0.876100	0.838500	0.054900
Cu71	Cu7	0.593770	0.769530	0.525740
Cu81	Cu8	0.803690	0.625430	0.489520
Cu91	Cu9	0.719000	0.804900	0.358750
Cu101	Cu10	0.230470	0.406230	0.974260
Cu111	Cu11	0.374570	0.196310	0.010480
Cu121	Cu12	0.195100	0.281000	0.141250
Mo31	Mo3	0.767190	0.802310	0.504100
Mo41	Mo4	0.197690	0.232810	0.995900
H411	H41	0.433600	0.888200	0.567700
H421	H42	0.384500	0.966500	0.669900
H431	H43	0.579300	0.854700	0.793700
H441	H44	0.624900	0.783500	0.687700
H451	H45	0.283300	0.054100	0.894700
H461	H46	0.316400	0.966000	0.791900
H471	H47	0.573700	0.995500	0.860500
H481	H48	0.534600	0.086200	0.958900
H491	H49	0.380000	0.330000	0.192600
H501	H50	0.460700	0.427300	0.274700
H511	H51	0.232200	0.521600	0.346200
H521	H52	0.158200	0.418200	0.264500
H531	H53	0.594700	0.584500	0.467500
H541	H54	0.517100	0.479700	0.391300
H551	H55	0.315900	0.649500	0.378300
H561	H56	0.397700	0.747300	0.458000
H571	H57	0.157300	0.198300	0.288600
H581	H58	0.062900	0.100100	0.331000
H591	H59	0.919900	0.095500	0.135200
H601	H60	0.015600	0.198800	0.100200
H611	H61	0.111800	0.566400	0.932300
H621	H62	0.033500	0.615500	0.830100
H631	H63	0.145300	0.420700	0.706300
H641	H64	0.216500	0.375100	0.812300
H651	H65	0.945900	0.716700	0.605300
H661	H66	0.034000	0.683600	0.708100
H671	H67	0.004500	0.426300	0.639500
H681	H68	0.913800	0.465400	0.541100
H691	H69	0.670000	0.620000	0.307400
H701	H70	0.572700	0.539300	0.225300
H711	H71	0.478400	0.767800	0.153800
H721	H72	0.581800	0.841800	0.235500
H731	H73	0.415500	0.405300	0.032500
H741	H74	0.520300	0.482900	0.108700
H751	H75	0.350500	0.684100	0.121700
H761	H76	0.252700	0.602300	0.042000
H771	H77	0.801700	0.842700	0.211400
H781	H78	0.899900	0.937100	0.169000
H791	H79	0.904500	0.080100	0.364800
H801	H80	0.801200	0.984400	0.399800
C511	C51	0.463900	0.882300	0.613800
C521	C52	0.433300	0.929100	0.675300
C531	C53	0.475500	0.920300	0.745000
C541	C54	0.548700	0.863500	0.748200
C551	C55	0.575500	0.820500	0.684200
C561	C56	0.342900	0.043700	0.886800
C571	C57	0.362300	0.990100	0.824900
C581	C58	0.449100	0.972500	0.812200
C591	C59	0.513900	0.008300	0.865400
C601	C60	0.489900	0.062100	0.924700
C611	C61	0.349400	0.368800	0.224100
C621	C62	0.398800	0.427800	0.273100
C631	C63	0.356100	0.488100	0.319900
C641	C64	0.264200	0.483200	0.315600
C651	C65	0.220100	0.420700	0.265800
C661	C66	0.537500	0.598700	0.448700
C671	C67	0.491500	0.534900	0.402400
C681	C68	0.407000	0.553400	0.372400
C691	C69	0.373500	0.634300	0.395300
C701	C70	0.423700	0.693500	0.442900
C711	C71	0.108300	0.177900	0.257400
C721	C72	0.052400	0.118400	0.283200
C731	C73	0.979000	0.085000	0.237200
C741	C74	0.967500	0.116100	0.168000
C751	C75	0.026000	0.177600	0.146900
C761	C76	0.117700	0.536100	0.886200
C771	C77	0.070900	0.566700	0.824700
C781	C78	0.079700	0.524500	0.755000
C791	C79	0.136500	0.451300	0.751800
C801	C80	0.179500	0.424500	0.815800
C811	C81	0.956300	0.657100	0.613200
C821	C82	0.009900	0.637700	0.675100
C831	C83	0.027500	0.550900	0.687800
C841	C84	0.991700	0.486100	0.634600
C851	C85	0.937900	0.510100	0.575300
C861	C86	0.631200	0.650600	0.275900
C871	C87	0.572200	0.601200	0.226900
C881	C88	0.511900	0.643900	0.180100
C891	C89	0.516800	0.735800	0.184400
C901	C90	0.579300	0.779900	0.234200
C911	C91	0.401300	0.462500	0.051300
C921	C92	0.465100	0.508500	0.097600
C931	C93	0.446600	0.593000	0.127600
C941	C94	0.365700	0.626500	0.104700
C951	C95	0.306500	0.576300	0.057100
C961	C96	0.822100	0.891700	0.242600
C971	C97	0.881600	0.947600	0.216800
C981	C98	0.915000	0.021000	0.262800
C991	C99	0.883900	0.032500	0.332000
C1001	C100	0.822400	0.974000	0.353100
S71	S7	0.718090	0.698750	0.574950
S81	S8	0.646250	0.872810	0.453580
S91	S9	0.837170	0.729610	0.410960
S101	S10	0.301250	0.281910	0.925050
S111	S11	0.127190	0.353750	0.046420
S121	S12	0.270390	0.162830	0.089040
I31	I3	0.753310	0.472410	0.429860
I41	I4	0.527590	0.246690	0.070140
N111	N11	0.534400	0.829200	0.617000
N121	N12	0.404800	0.081600	0.936000
N131	N13	0.261000	0.363800	0.219200
N141	N14	0.507100	0.678900	0.468700
N151	N15	0.097600	0.208800	0.190300
N161	N16	0.170800	0.465600	0.883000
N171	N17	0.918400	0.595200	0.564000
N181	N18	0.636200	0.739000	0.280800
N191	N19	0.321100	0.492900	0.031300
N201	N20	0.791200	0.902400	0.309700
O31	O3	0.838500	0.876100	0.554900
O41	O4	0.123900	0.161500	0.945100
