data_MATTOR_freeONLY_PM
_symmetry_space_group_name_H-M	'P1'
_cell_length_a	10.886000
_cell_length_b	10.919000
_cell_length_c	14.091000
_cell_angle_alpha	89.294000
_cell_angle_beta	89.081000
_cell_angle_gamma	79.691000
_symmetry_Int_Tables_number 1

loop_
_symmetry_equiv_pos_as_xyz
'x,y,z'

loop_
_atom_site_label
_atom_site_type_symbol
_atom_site_fract_x
_atom_site_fract_y
_atom_site_fract_z
Zn11	Zn1	0.723480	0.835910	0.800740
Zn21	Zn2	0.727720	0.839200	0.591230
H11	H1	0.629700	0.254800	0.572700
H21	H2	0.628000	0.474700	0.579900
H31	H3	0.824100	0.416600	0.821800
H41	H4	0.794000	0.212900	0.829600
H51	H5	0.330900	0.873900	0.549700
H61	H6	0.114400	0.876500	0.552600
H71	H7	0.122000	0.796500	0.832200
H81	H8	0.336600	0.810700	0.836800
H91	H9	0.911700	0.808300	0.428700
H101	H10	0.920600	0.807000	0.266100
H111	H11	0.542700	0.857300	0.268700
H121	H12	0.547700	0.862400	0.433700
H131	H13	0.883400	0.703400	0.119100
H141	H14	0.858300	0.690700	0.957300
H151	H15	0.592400	0.978000	0.963100
H161	H16	0.579500	0.972200	0.125900
C11	C1	0.710000	0.076900	0.699800
C21	C2	0.722000	0.209600	0.700600
C31	C3	0.667200	0.289000	0.624100
C41	C4	0.669700	0.419000	0.626200
C51	C5	0.739400	0.462500	0.703100
C61	C6	0.781900	0.385800	0.771300
C71	C7	0.769200	0.261700	0.774600
C81	C8	0.743000	0.600300	0.702000
C91	C9	0.487700	0.847300	0.692900
C101	C10	0.352800	0.842500	0.693100
C111	C11	0.288700	0.860900	0.607500
C121	C12	0.160300	0.859400	0.609410
C131	C13	0.098400	0.833600	0.692100
C141	C14	0.164100	0.814400	0.775500
C151	C15	0.292600	0.820800	0.778700
C161	C16	0.961800	0.829300	0.691700
C171	C17	0.835700	0.818600	0.394900
C181	C18	0.842500	0.817400	0.298700
C191	C19	0.727700	0.832600	0.248200
C201	C20	0.620600	0.847700	0.299800
C211	C21	0.624000	0.849300	0.398400
C221	C22	0.727000	0.833400	0.142300
C231	C23	0.815700	0.755400	0.088800
C241	C24	0.805200	0.753600	0.992100
C251	C25	0.648100	0.915300	0.995800
C261	C26	0.642000	0.915600	0.093300
N11	N1	0.730600	0.833000	0.444300
N21	N2	0.723600	0.836600	0.945270
O11	O1	0.706700	0.025000	0.621120
O21	O2	0.705100	0.022100	0.777510
O31	O3	0.745200	0.654000	0.624830
O41	O4	0.742800	0.649980	0.781350
O51	O5	0.544700	0.852300	0.613010
O61	O6	0.541000	0.846800	0.770960
O71	O7	0.913130	0.828300	0.609880
O81	O8	0.907700	0.824800	0.770180
Zn31	Zn3	0.276520	0.164090	0.199260
Zn41	Zn4	0.272280	0.160800	0.408770
H171	H17	0.370300	0.745200	0.427300
H181	H18	0.372000	0.525300	0.420100
H191	H19	0.175900	0.583400	0.178200
H201	H20	0.206000	0.787100	0.170400
H211	H21	0.669100	0.126100	0.450300
H221	H22	0.885600	0.123500	0.447400
H231	H23	0.878000	0.203500	0.167800
H241	H24	0.663400	0.189300	0.163200
H251	H25	0.088300	0.191700	0.571300
H261	H26	0.079400	0.193000	0.733900
H271	H27	0.457300	0.142700	0.731300
H281	H28	0.452300	0.137600	0.566300
H291	H29	0.116600	0.296600	0.880900
H301	H30	0.141700	0.309300	0.042700
H311	H31	0.407600	0.022000	0.036900
H321	H32	0.420500	0.027800	0.874100
C271	C27	0.290000	0.923100	0.300200
C281	C28	0.278000	0.790400	0.299400
C291	C29	0.332800	0.711000	0.375900
C301	C30	0.330300	0.581000	0.373800
C311	C31	0.260600	0.537500	0.296900
C321	C32	0.218100	0.614200	0.228700
C331	C33	0.230800	0.738300	0.225400
C341	C34	0.257000	0.399700	0.298000
C351	C35	0.512300	0.152700	0.307100
C361	C36	0.647200	0.157500	0.306900
C371	C37	0.711300	0.139100	0.392500
C381	C38	0.839700	0.140600	0.390590
C391	C39	0.901600	0.166400	0.307900
C401	C40	0.835900	0.185600	0.224500
C411	C41	0.707400	0.179200	0.221300
C421	C42	0.038200	0.170700	0.308300
C431	C43	0.164300	0.181400	0.605100
C441	C44	0.157500	0.182600	0.701300
C451	C45	0.272300	0.167400	0.751800
C461	C46	0.379400	0.152300	0.700200
C471	C47	0.376000	0.150700	0.601600
C481	C48	0.273000	0.166600	0.857700
C491	C49	0.184300	0.244600	0.911200
C501	C50	0.194800	0.246400	0.007900
C511	C51	0.351900	0.084700	0.004200
C521	C52	0.358000	0.084400	0.906700
N31	N3	0.269400	0.167000	0.555700
N41	N4	0.276400	0.163400	0.054730
O91	O9	0.293300	0.975000	0.378880
O101	O10	0.294900	0.977900	0.222490
O111	O11	0.254800	0.346000	0.375170
O121	O12	0.257200	0.350020	0.218650
O131	O13	0.455300	0.147700	0.386990
O141	O14	0.459000	0.153200	0.229040
O151	O15	0.086870	0.171700	0.390120
O161	O16	0.092300	0.175200	0.229820
