data_MAXFIA_charged_PM
_symmetry_space_group_name_H-M	'P1'
_cell_length_a	11.396000
_cell_length_b	11.396000
_cell_length_c	13.913000
_cell_angle_alpha	90.000000
_cell_angle_beta	90.000000
_cell_angle_gamma	90.000000
_symmetry_Int_Tables_number 1

loop_
_symmetry_equiv_pos_as_xyz
'x,y,z'

loop_
_atom_site_label
_atom_site_type_symbol
_atom_site_fract_x
_atom_site_fract_y
_atom_site_fract_z
Ag11	Ag1	0.890810	0.890810	0.000000
Ag21	Ag2	0.109190	0.109190	0.500000
Ag31	Ag3	0.609190	0.390810	0.250000
Ag41	Ag4	0.390810	0.609190	0.750000
H11	H1	0.587400	0.553700	0.068800
H21	H2	0.584000	0.807500	0.714500
H31	H3	0.899900	0.735700	0.207100
H41	H4	0.412600	0.446300	0.568800
H51	H5	0.416000	0.192500	0.214500
H61	H6	0.100100	0.264300	0.707100
H71	H7	0.946300	0.087400	0.318800
H81	H8	0.692500	0.084000	0.964500
H91	H9	0.764300	0.399900	0.457100
H101	H10	0.053700	0.912600	0.818800
H111	H11	0.307500	0.916000	0.464500
H121	H12	0.235700	0.600100	0.957100
H131	H13	0.912600	0.053700	0.181200
H141	H14	0.916000	0.307500	0.535500
H151	H15	0.600100	0.235700	0.042900
H161	H16	0.087400	0.946300	0.681200
H171	H17	0.084000	0.692500	0.035500
H181	H18	0.399900	0.764300	0.542900
H191	H19	0.553700	0.587400	0.931200
H201	H20	0.807500	0.584000	0.285500
H211	H21	0.735700	0.899900	0.792900
H221	H22	0.446300	0.412600	0.431200
H231	H23	0.192500	0.416000	0.785500
H241	H24	0.264300	0.100100	0.292900
C11	C1	0.677200	0.712100	0.950300
C21	C2	0.589600	0.653200	0.901400
C31	C3	0.607700	0.779500	0.775800
C41	C4	0.836400	0.696600	0.176500
C51	C5	0.322800	0.287900	0.450300
C61	C6	0.410400	0.346800	0.401400
C71	C7	0.392300	0.220500	0.275800
C81	C8	0.163600	0.303400	0.676500
C91	C9	0.787900	0.177200	0.200300
C101	C10	0.846800	0.089600	0.151400
C111	C11	0.720500	0.107700	0.025800
C121	C12	0.803400	0.336400	0.426500
C131	C13	0.212100	0.822800	0.700300
C141	C14	0.153200	0.910400	0.651400
C151	C15	0.279500	0.892300	0.525800
C161	C16	0.196600	0.663600	0.926500
C171	C17	0.822800	0.212100	0.299700
C181	C18	0.910400	0.153200	0.348600
C191	C19	0.892300	0.279500	0.474200
C201	C20	0.663600	0.196600	0.073500
C211	C21	0.177200	0.787900	0.799700
C221	C22	0.089600	0.846800	0.848600
C231	C23	0.107700	0.720500	0.974200
C241	C24	0.336400	0.803400	0.573500
C251	C25	0.712100	0.677200	0.049700
C261	C26	0.653200	0.589600	0.098600
C271	C27	0.779500	0.607700	0.224200
C281	C28	0.696600	0.836400	0.823500
C291	C29	0.287900	0.322800	0.549700
C301	C30	0.346800	0.410400	0.598600
C311	C31	0.220500	0.392300	0.724200
C321	C32	0.303400	0.163600	0.323500
N11	N1	0.729100	0.804900	0.911300
N21	N2	0.553000	0.685200	0.813300
N31	N3	0.270900	0.195100	0.411300
N41	N4	0.447000	0.314800	0.313300
N51	N5	0.695100	0.229100	0.161300
N61	N6	0.814800	0.053000	0.063300
N71	N7	0.304900	0.770900	0.661300
N81	N8	0.185200	0.947000	0.563300
N91	N9	0.770900	0.304900	0.338700
N101	N10	0.947000	0.185200	0.436700
N111	N11	0.229100	0.695100	0.838700
N121	N12	0.053000	0.814800	0.936700
N131	N13	0.804900	0.729100	0.088700
N141	N14	0.685200	0.553000	0.186700
N151	N15	0.195100	0.270900	0.588700
N161	N16	0.314800	0.447000	0.686700
B11	B1	0.874200	0.125800	0.750000
F11	F1	0.942300	0.098600	0.673700
F21	F2	0.758600	0.107500	0.730400
F31	F3	0.901400	0.057700	0.826300
F41	F4	0.892500	0.241400	0.769600
B21	B2	0.125800	0.874200	0.250000
F51	F5	0.057700	0.901400	0.173700
F61	F6	0.241400	0.892500	0.230400
F71	F7	0.098600	0.942300	0.326300
F81	F8	0.107500	0.758600	0.269600
B31	B3	0.374200	0.374200	0.000000
F91	F9	0.401400	0.442300	0.923700
F101	F10	0.392500	0.258600	0.980400
F111	F11	0.442300	0.401400	0.076300
F121	F12	0.258600	0.392500	0.019600
B41	B4	0.625800	0.625800	0.500000
F131	F13	0.598600	0.557700	0.423700
F141	F14	0.607500	0.741400	0.480400
F151	F15	0.557700	0.598600	0.576300
F161	F16	0.741400	0.607500	0.519600
