data_MAYGAU_freeONLY_PM
_symmetry_space_group_name_H-M	'P1'
_cell_length_a	9.266400
_cell_length_b	15.204300
_cell_length_c	11.984000
_cell_angle_alpha	90.000000
_cell_angle_beta	102.167000
_cell_angle_gamma	90.000000
_symmetry_Int_Tables_number 1

loop_
_symmetry_equiv_pos_as_xyz
'x,y,z'

loop_
_atom_site_label
_atom_site_type_symbol
_atom_site_fract_x
_atom_site_fract_y
_atom_site_fract_z
P11	P1	0.894500	0.108000	0.890400
P21	P2	0.449200	0.002700	0.816300
O11	O1	0.518400	0.083800	0.773500
O21	O2	0.820900	0.102400	0.764500
O31	O3	0.599600	0.245400	0.690300
O41	O4	0.666300	0.993500	0.598300
O51	O5	0.738100	0.170500	0.544200
O61	O6	0.443800	0.104800	0.533800
O71	O7	0.819400	0.052300	0.964800
O81	O8	0.316000	0.030800	0.863200
O91	O9	0.556500	0.948000	0.901100
O101	O10	0.054700	0.086700	0.898300
O111	O11	0.795000	0.303400	0.482500
O121	O12	0.659000	0.378200	0.633200
O131	O13	0.886100	0.203800	0.934100
H11	H1	0.922500	0.237500	0.894200
O141	O14	0.388000	0.945200	0.708000
H21	H2	0.345700	0.901900	0.726500
C11	C1	0.563300	0.968900	0.518800
C21	C2	0.738200	0.253800	0.544400
C31	C3	0.659100	0.296700	0.630900
Fe11	Fe1	0.632000	0.114280	0.665200
Fe21	Fe2	0.752000	0.938360	0.999800
P31	P3	0.605500	0.608000	0.609600
P41	P4	0.050800	0.502700	0.683700
O151	O15	0.981600	0.583800	0.726500
O161	O16	0.679100	0.602400	0.735500
O171	O17	0.900400	0.745400	0.809700
O181	O18	0.833700	0.493500	0.901700
O191	O19	0.761900	0.670500	0.955800
O201	O20	0.056200	0.604800	0.966200
O211	O21	0.680600	0.552300	0.535200
O221	O22	0.184000	0.530800	0.636800
O231	O23	0.943500	0.448000	0.598900
O241	O24	0.445300	0.586700	0.601700
O251	O25	0.705000	0.803400	0.017500
O261	O26	0.841000	0.878200	0.866800
O271	O27	0.613900	0.703800	0.565900
H31	H3	0.577500	0.737500	0.605800
O281	O28	0.112000	0.445200	0.792000
H41	H4	0.154300	0.401900	0.773500
C41	C4	0.936700	0.468900	0.981200
C51	C5	0.761800	0.753800	0.955600
C61	C6	0.840900	0.796700	0.869100
Fe31	Fe3	0.868000	0.614280	0.834800
Fe41	Fe4	0.748000	0.438360	0.500200
P51	P5	0.105500	0.892000	0.109600
P61	P6	0.550800	0.997300	0.183700
O291	O29	0.481600	0.916200	0.226500
O301	O30	0.179100	0.897600	0.235500
O311	O31	0.400400	0.754600	0.309700
O321	O32	0.333700	0.006500	0.401700
O331	O33	0.261900	0.829500	0.455800
O341	O34	0.556200	0.895200	0.466200
O351	O35	0.180600	0.947700	0.035200
O361	O36	0.684000	0.969200	0.136800
O371	O37	0.443500	0.052000	0.098900
O381	O38	0.945300	0.913300	0.101700
O391	O39	0.205000	0.696600	0.517500
O401	O40	0.341000	0.621800	0.366800
O411	O41	0.113900	0.796200	0.065900
H51	H5	0.077500	0.762500	0.105800
O421	O42	0.612000	0.054800	0.292000
H61	H6	0.654300	0.098100	0.273500
C71	C7	0.436700	0.031100	0.481200
C81	C8	0.261800	0.746200	0.455600
C91	C9	0.340900	0.703300	0.369100
Fe51	Fe5	0.368000	0.885720	0.334800
Fe61	Fe6	0.248000	0.061640	0.000200
P71	P7	0.394500	0.392000	0.390400
P81	P8	0.949200	0.497300	0.316300
O431	O43	0.018400	0.416200	0.273500
O441	O44	0.320900	0.397600	0.264500
O451	O45	0.099600	0.254600	0.190300
O461	O46	0.166300	0.506500	0.098300
O471	O47	0.238100	0.329500	0.044200
O481	O48	0.943800	0.395200	0.033800
O491	O49	0.319400	0.447700	0.464800
O501	O50	0.816000	0.469200	0.363200
O511	O51	0.056500	0.552000	0.401100
O521	O52	0.554700	0.413300	0.398300
O531	O53	0.295000	0.196600	0.982500
O541	O54	0.159000	0.121800	0.133200
O551	O55	0.386100	0.296200	0.434100
H71	H7	0.422500	0.262500	0.394200
O561	O56	0.888000	0.554800	0.208000
H81	H8	0.845700	0.598100	0.226500
C101	C10	0.063300	0.531100	0.018800
C111	C11	0.238200	0.246200	0.044400
C121	C12	0.159100	0.203300	0.130900
Fe71	Fe7	0.132000	0.385720	0.165200
Fe81	Fe8	0.252000	0.561640	0.499800
