data_MAYYAN_freeONLY_PM
_symmetry_space_group_name_H-M	'P1'
_cell_length_a	6.100800
_cell_length_b	7.580200
_cell_length_c	28.044000
_cell_angle_alpha	90.000000
_cell_angle_beta	90.000000
_cell_angle_gamma	90.000000
_symmetry_Int_Tables_number 1

loop_
_symmetry_equiv_pos_as_xyz
'x,y,z'

loop_
_atom_site_label
_atom_site_type_symbol
_atom_site_fract_x
_atom_site_fract_y
_atom_site_fract_z
Pr11	Pr1	0.568220	0.901850	0.668890
Pr21	Pr2	0.568220	0.098150	0.331110
Pr31	Pr3	0.431780	0.598150	0.168890
Pr41	Pr4	0.431780	0.401850	0.831110
H11	H1	0.976700	0.097200	0.662400
H21	H2	0.910800	0.081700	0.615800
H31	H3	0.471600	0.538200	0.635700
H41	H4	0.145900	0.467000	0.645200
H51	H5	0.285100	0.627200	0.751100
H61	H6	0.045900	0.371000	0.719000
H71	H7	0.703300	0.844100	0.499900
H81	H8	0.441200	0.843000	0.499200
H91	H9	0.976700	0.902800	0.337600
H101	H10	0.910800	0.918300	0.384200
H111	H11	0.471600	0.461800	0.364300
H121	H12	0.145900	0.533000	0.354800
H131	H13	0.285100	0.372800	0.248900
H141	H14	0.045900	0.629000	0.281000
H151	H15	0.703300	0.155900	0.500100
H161	H16	0.441200	0.157000	0.500800
H171	H17	0.023300	0.402800	0.162400
H181	H18	0.089200	0.418300	0.115800
H191	H19	0.528400	0.961800	0.135700
H201	H20	0.854100	0.033000	0.145200
H211	H21	0.714900	0.872800	0.251100
H221	H22	0.954100	0.129000	0.219000
H231	H23	0.296700	0.655900	0.999900
H241	H24	0.558800	0.657000	0.999200
H251	H25	0.023300	0.597200	0.837600
H261	H26	0.089200	0.581700	0.884200
H271	H27	0.528400	0.038200	0.864300
H281	H28	0.854100	0.967000	0.854800
H291	H29	0.714900	0.127200	0.748900
H301	H30	0.954100	0.871000	0.781000
H311	H31	0.296700	0.344100	0.000100
H321	H32	0.558800	0.343000	0.000800
C11	C1	0.071700	0.710600	0.675200
C21	C2	0.205000	0.540000	0.672000
C31	C3	0.190900	0.432500	0.718100
C41	C4	0.372800	0.293200	0.716800
C51	C5	0.568200	0.910000	0.564600
C61	C6	0.571000	0.908100	0.510800
C71	C7	0.071700	0.289400	0.324800
C81	C8	0.205000	0.460000	0.328000
C91	C9	0.190900	0.567500	0.281900
C101	C10	0.372800	0.706800	0.283200
C111	C11	0.568200	0.090000	0.435400
C121	C12	0.571000	0.091900	0.489200
C131	C13	0.928300	0.789400	0.175200
C141	C14	0.795000	0.960000	0.172000
C151	C15	0.809100	0.067500	0.218100
C161	C16	0.627200	0.206800	0.216800
C171	C17	0.431800	0.590000	0.064600
C181	C18	0.429000	0.591900	0.010800
C191	C19	0.928300	0.210600	0.824800
C201	C20	0.795000	0.040000	0.828000
C211	C21	0.809100	0.932500	0.781900
C221	C22	0.627200	0.793200	0.783200
C231	C23	0.431800	0.410000	0.935400
C241	C24	0.429000	0.408100	0.989200
O11	O1	0.868500	0.110800	0.643600
O21	O2	0.172400	0.854000	0.671600
O31	O3	0.867400	0.695300	0.680900
O41	O4	0.426800	0.587600	0.661110
O51	O5	0.212500	0.537000	0.759720
O61	O6	0.374500	0.186000	0.682840
O71	O7	0.509000	0.294000	0.750600
O81	O8	0.678700	0.795800	0.586200
O91	O9	0.453000	0.022500	0.586600
O101	O10	0.868500	0.889200	0.356400
O111	O11	0.172400	0.146000	0.328400
O121	O12	0.867400	0.304700	0.319100
O131	O13	0.426800	0.412400	0.338890
O141	O14	0.212500	0.463000	0.240280
O151	O15	0.374500	0.814000	0.317160
O161	O16	0.509000	0.706000	0.249400
O171	O17	0.678700	0.204200	0.413800
O181	O18	0.453000	0.977500	0.413400
O191	O19	0.131500	0.389200	0.143600
O201	O20	0.827600	0.646000	0.171600
O211	O21	0.132600	0.804700	0.180900
O221	O22	0.573200	0.912400	0.161110
O231	O23	0.787500	0.963000	0.259720
O241	O24	0.625500	0.314000	0.182840
O251	O25	0.491000	0.206000	0.250600
O261	O26	0.321300	0.704200	0.086200
O271	O27	0.547000	0.477500	0.086600
O281	O28	0.131500	0.610800	0.856400
O291	O29	0.827600	0.354000	0.828400
O301	O30	0.132600	0.195300	0.819100
O311	O31	0.573200	0.087600	0.838890
O321	O32	0.787500	0.037000	0.740280
O331	O33	0.625500	0.686000	0.817160
O341	O34	0.491000	0.794000	0.749400
O351	O35	0.321300	0.295800	0.913800
O361	O36	0.547000	0.522500	0.913400
