data_MECVOG_freeONLY_PM
_symmetry_space_group_name_H-M	'P1'
_cell_length_a	16.870100
_cell_length_b	16.870100
_cell_length_c	16.870100
_cell_angle_alpha	90.000000
_cell_angle_beta	90.000000
_cell_angle_gamma	90.000000
_symmetry_Int_Tables_number 1

loop_
_symmetry_equiv_pos_as_xyz
'x,y,z'

loop_
_atom_site_label
_atom_site_type_symbol
_atom_site_fract_x
_atom_site_fract_y
_atom_site_fract_z
O11	O1	0.017040	0.594990	0.304140
O21	O2	0.517040	0.094990	0.804140
O31	O3	0.982960	0.405010	0.304140
O41	O4	0.482960	0.905010	0.804140
O51	O5	0.982960	0.594990	0.695860
O61	O6	0.482960	0.094990	0.195860
O71	O7	0.017040	0.405010	0.695860
O81	O8	0.517040	0.905010	0.195860
O91	O9	0.304140	0.017040	0.594990
O101	O10	0.804140	0.517040	0.094990
O111	O11	0.304140	0.982960	0.405010
O121	O12	0.804140	0.482960	0.905010
O131	O13	0.695860	0.982960	0.594990
O141	O14	0.195860	0.482960	0.094990
O151	O15	0.695860	0.017040	0.405010
O161	O16	0.195860	0.517040	0.905010
O171	O17	0.594990	0.304140	0.017040
O181	O18	0.094990	0.804140	0.517040
O191	O19	0.405010	0.304140	0.982960
O201	O20	0.905010	0.804140	0.482960
O211	O21	0.594990	0.695860	0.982960
O221	O22	0.094990	0.195860	0.482960
O231	O23	0.405010	0.695860	0.017040
O241	O24	0.905010	0.195860	0.517040
O251	O25	0.594990	0.017040	0.304140
O261	O26	0.094990	0.517040	0.804140
O271	O27	0.405010	0.982960	0.304140
O281	O28	0.905010	0.482960	0.804140
O291	O29	0.594990	0.982960	0.695860
O301	O30	0.094990	0.482960	0.195860
O311	O31	0.405010	0.017040	0.695860
O321	O32	0.905010	0.517040	0.195860
O331	O33	0.017040	0.304140	0.594990
O341	O34	0.517040	0.804140	0.094990
O351	O35	0.982960	0.304140	0.405010
O361	O36	0.482960	0.804140	0.905010
O371	O37	0.982960	0.695860	0.594990
O381	O38	0.482960	0.195860	0.094990
O391	O39	0.017040	0.695860	0.405010
O401	O40	0.517040	0.195860	0.905010
O411	O41	0.304140	0.594990	0.017040
O421	O42	0.804140	0.094990	0.517040
O431	O43	0.304140	0.405010	0.982960
O441	O44	0.804140	0.905010	0.482960
O451	O45	0.695860	0.594990	0.982960
O461	O46	0.195860	0.094990	0.482960
O471	O47	0.695860	0.405010	0.017040
O481	O48	0.195860	0.905010	0.517040
Ga11	Ga1	0.000000	0.500000	0.500000
Ga21	Ga2	0.500000	0.000000	0.000000
Ga31	Ga3	0.500000	0.000000	0.500000
Ga41	Ga4	0.000000	0.500000	0.000000
Ga51	Ga5	0.500000	0.500000	0.000000
Ga61	Ga6	0.000000	0.000000	0.500000
Fe11	Fe1	0.000000	0.500000	0.250000
Fe21	Fe2	0.000000	0.500000	0.750000
Fe31	Fe3	0.500000	0.000000	0.250000
Fe41	Fe4	0.250000	0.000000	0.500000
Fe51	Fe5	0.750000	0.000000	0.500000
Fe61	Fe6	0.250000	0.500000	0.000000
Fe71	Fe7	0.500000	0.250000	0.000000
Fe81	Fe8	0.500000	0.750000	0.000000
Fe91	Fe9	0.000000	0.250000	0.500000
Fe101	Fe10	0.500000	0.000000	0.750000
Fe111	Fe11	0.000000	0.750000	0.500000
Fe121	Fe12	0.750000	0.500000	0.000000
P11	P1	0.065410	0.624510	0.375490
O491	O49	0.148530	0.646310	0.353690
O501	O50	0.067840	0.560190	0.439810
P21	P2	0.565410	0.124510	0.875490
O511	O51	0.648530	0.146310	0.853690
O521	O52	0.567840	0.060190	0.939810
P31	P3	0.934590	0.375490	0.375490
O531	O53	0.851470	0.353690	0.353690
O541	O54	0.932160	0.439810	0.439810
P41	P4	0.434590	0.875490	0.875490
O551	O55	0.351470	0.853690	0.853690
O561	O56	0.432160	0.939810	0.939810
P51	P5	0.934590	0.624510	0.624510
O571	O57	0.851470	0.646310	0.646310
O581	O58	0.932160	0.560190	0.560190
P61	P6	0.434590	0.124510	0.124510
O591	O59	0.351470	0.146310	0.146310
O601	O60	0.432160	0.060190	0.060190
P71	P7	0.065410	0.375490	0.624510
O611	O61	0.148530	0.353690	0.646310
O621	O62	0.067840	0.439810	0.560190
P81	P8	0.565410	0.875490	0.124510
O631	O63	0.648530	0.853690	0.146310
O641	O64	0.567840	0.939810	0.060190
P91	P9	0.375490	0.065410	0.624510
O651	O65	0.353690	0.148530	0.646310
O661	O66	0.439810	0.067840	0.560190
P101	P10	0.875490	0.565410	0.124510
O671	O67	0.853690	0.648530	0.146310
O681	O68	0.939810	0.567840	0.060190
P111	P11	0.375490	0.934590	0.375490
O691	O69	0.353690	0.851470	0.353690
O701	O70	0.439810	0.932160	0.439810
P121	P12	0.875490	0.434590	0.875490
O711	O71	0.853690	0.351470	0.853690
O721	O72	0.939810	0.432160	0.939810
P131	P13	0.624510	0.934590	0.624510
O731	O73	0.646310	0.851470	0.646310
O741	O74	0.560190	0.932160	0.560190
P141	P14	0.124510	0.434590	0.124510
O751	O75	0.146310	0.351470	0.146310
O761	O76	0.060190	0.432160	0.060190
P151	P15	0.624510	0.065410	0.375490
O771	O77	0.646310	0.148530	0.353690
O781	O78	0.560190	0.067840	0.439810
P161	P16	0.124510	0.565410	0.875490
O791	O79	0.146310	0.648530	0.853690
O801	O80	0.060190	0.567840	0.939810
P171	P17	0.624510	0.375490	0.065410
O811	O81	0.646310	0.353690	0.148530
O821	O82	0.560190	0.439810	0.067840
P181	P18	0.124510	0.875490	0.565410
O831	O83	0.146310	0.853690	0.648530
O841	O84	0.060190	0.939810	0.567840
P191	P19	0.375490	0.375490	0.934590
O851	O85	0.353690	0.353690	0.851470
O861	O86	0.439810	0.439810	0.932160
P201	P20	0.875490	0.875490	0.434590
O871	O87	0.853690	0.853690	0.351470
O881	O88	0.939810	0.939810	0.432160
P211	P21	0.624510	0.624510	0.934590
O891	O89	0.646310	0.646310	0.851470
O901	O90	0.560190	0.560190	0.932160
P221	P22	0.124510	0.124510	0.434590
O911	O91	0.146310	0.146310	0.351470
O921	O92	0.060190	0.060190	0.432160
P231	P23	0.375490	0.624510	0.065410
O931	O93	0.353690	0.646310	0.148530
O941	O94	0.439810	0.560190	0.067840
P241	P24	0.875490	0.124510	0.565410
O951	O95	0.853690	0.146310	0.648530
O961	O96	0.939810	0.060190	0.567840
