data_MECWEX_manual_PM
_symmetry_space_group_name_H-M	'P1'
_cell_length_a	14.732800
_cell_length_b	14.732800
_cell_length_c	14.732800
_cell_angle_alpha	109.471000
_cell_angle_beta	109.471000
_cell_angle_gamma	109.471000
_symmetry_Int_Tables_number 1

loop_
_symmetry_equiv_pos_as_xyz
'x,y,z'

loop_
_atom_site_label
_atom_site_type_symbol
_atom_site_fract_x
_atom_site_fract_y
_atom_site_fract_z
H11	H1	0.897020	0.426890	0.779380
C11	C1	0.944400	0.415000	0.733200
N11	N1	0.907170	0.348900	0.621330
H21	H2	0.647510	0.117640	0.220620
C21	C2	0.681800	0.211200	0.266800
N21	N2	0.727570	0.285840	0.378670
H31	H3	0.352490	0.573110	0.470130
C31	C3	0.318200	0.585000	0.529400
N31	N3	0.272430	0.651100	0.558270
H41	H4	0.102980	0.882360	0.529870
C41	C4	0.055600	0.788800	0.470600
N41	N4	0.092830	0.714160	0.441730
H51	H5	0.779380	0.897020	0.426890
C51	C5	0.733200	0.944400	0.415000
N51	N5	0.621330	0.907170	0.348900
H61	H6	0.220620	0.647510	0.117640
C61	C6	0.266800	0.681800	0.211200
N61	N6	0.378670	0.727570	0.285840
H71	H7	0.470130	0.352490	0.573110
C71	C7	0.529400	0.318200	0.585000
N71	N7	0.558270	0.272430	0.651100
H81	H8	0.529870	0.102980	0.882360
C81	C8	0.470600	0.055600	0.788800
N81	N8	0.441730	0.092830	0.714160
H91	H9	0.426890	0.779380	0.897020
C91	C9	0.415000	0.733200	0.944400
N91	N9	0.348900	0.621330	0.907170
H101	H10	0.117640	0.220620	0.647510
C101	C10	0.211200	0.266800	0.681800
N101	N10	0.285840	0.378670	0.727570
H111	H11	0.573110	0.470130	0.352490
C111	C11	0.585000	0.529400	0.318200
N111	N11	0.651100	0.558270	0.272430
H121	H12	0.882360	0.529870	0.102980
C121	C12	0.788800	0.470600	0.055600
N121	N12	0.714160	0.441730	0.092830
H131	H13	0.426890	0.897020	0.779380
C131	C13	0.415000	0.944400	0.733200
N131	N13	0.348900	0.907170	0.621330
H141	H14	0.117640	0.647510	0.220620
C141	C14	0.211200	0.681800	0.266800
N141	N14	0.285840	0.727570	0.378670
H151	H15	0.573110	0.352490	0.470130
C151	C15	0.585000	0.318200	0.529400
N151	N15	0.651100	0.272430	0.558270
H161	H16	0.882360	0.102980	0.529870
C161	C16	0.788800	0.055600	0.470600
N161	N16	0.714160	0.092830	0.441730
H171	H17	0.897020	0.779380	0.426890
C171	C17	0.944400	0.733200	0.415000
N171	N17	0.907170	0.621330	0.348900
H181	H18	0.647510	0.220620	0.117640
C181	C18	0.681800	0.266800	0.211200
N181	N18	0.727570	0.378670	0.285840
H191	H19	0.352490	0.470130	0.573110
C191	C19	0.318200	0.529400	0.585000
N191	N19	0.272430	0.558270	0.651100
H201	H20	0.102980	0.529870	0.882360
C201	C20	0.055600	0.470600	0.788800
N201	N20	0.092830	0.441730	0.714160
H211	H21	0.779380	0.426890	0.897020
C211	C21	0.733200	0.415000	0.944400
N211	N21	0.621330	0.348900	0.907170
H221	H22	0.220620	0.117640	0.647510
C221	C22	0.266800	0.211200	0.681800
N221	N22	0.378670	0.285840	0.727570
H231	H23	0.470130	0.573110	0.352490
C231	C23	0.529400	0.585000	0.318200
N231	N23	0.558270	0.651100	0.272430
H241	H24	0.529870	0.882360	0.102980
C241	C24	0.470600	0.788800	0.055600
N241	N24	0.441730	0.714160	0.092830
Zn11	Zn1	0.750000	0.250000	0.500000
Zn21	Zn2	0.250000	0.750000	0.500000
Zn31	Zn3	0.500000	0.750000	0.250000
Zn41	Zn4	0.500000	0.250000	0.750000
Zn51	Zn5	0.250000	0.500000	0.750000
Zn61	Zn6	0.750000	0.500000	0.250000
C251	C25	0.000000	0.368750	0.614650
C261	C26	0.754100	0.385350	0.385350
C271	C27	0.245900	0.631250	0.631250
C281	C28	0.000000	0.614650	0.368750
C291	C29	0.614650	0.000000	0.368750
C301	C30	0.385350	0.754100	0.385350
C311	C31	0.631250	0.245900	0.631250
C321	C32	0.368750	0.000000	0.614650
C331	C33	0.368750	0.614650	0.000000
C341	C34	0.385350	0.385350	0.754100
C351	C35	0.631250	0.631250	0.245900
C361	C36	0.614650	0.368750	0.000000
C371	C37	0.000000	0.319000	0.509400
C381	C38	0.809600	0.490600	0.490600
C391	C39	0.190400	0.681000	0.681000
C401	C40	0.000000	0.509400	0.319000
C411	C41	0.509400	0.000000	0.319000
C421	C42	0.490600	0.809600	0.490600
C431	C43	0.681000	0.190400	0.681000
C441	C44	0.319000	0.000000	0.509400
C451	C45	0.319000	0.509400	0.000000
C461	C46	0.490600	0.490600	0.809600
C471	C47	0.681000	0.681000	0.190400
C481	C48	0.509400	0.319000	0.000000
H251	H25	0.557240	0.471620	0.801080
H261	H26	0.518320	0.539010	0.901420
H271	H27	0.477430	0.542360	0.769110
H281	H28	0.923980	0.232260	0.450270
H291	H29	0.078670	0.313110	0.527030
H301	H30	0.997360	0.373250	0.469710
H311	H31	0.903060	0.523790	0.534010
H321	H32	0.776380	0.475040	0.546800
H331	H33	0.792170	0.554150	0.472170
H341	H34	0.246380	0.775180	0.732970
H351	H35	0.173620	0.646980	0.736290
H361	H36	0.108390	0.659210	0.612120
H371	H37	0.979310	0.460990	0.362400
H381	H38	0.085620	0.528380	0.329460
H391	H39	0.935070	0.457640	0.226760
H401	H40	0.514470	0.044670	0.269310
H411	H41	0.494880	0.044670	0.387780
H421	H42	0.437660	0.910650	0.261530
H431	H43	0.548110	0.778800	0.474420
H441	H44	0.472480	0.789470	0.553080
H451	H45	0.532400	0.903340	0.525490
H461	H46	0.683010	0.210530	0.763610
H471	H47	0.769310	0.221200	0.695620
H481	H48	0.629050	0.096660	0.622150
H491	H49	0.387780	0.044670	0.494880
H501	H50	0.269310	0.044670	0.514470
H511	H51	0.261530	0.910650	0.437660
H521	H52	0.301340	0.524960	0.071760
H531	H53	0.379270	0.476210	0.010220
H541	H54	0.238020	0.445850	0.918020
H551	H55	0.765560	0.686890	0.213920
H561	H56	0.691720	0.767740	0.218010
H571	H57	0.624100	0.626750	0.096450
H581	H58	0.526630	0.353020	0.089300
H591	H59	0.471200	0.224820	0.957790
H601	H60	0.449180	0.340790	0.952910
