data_MEJQID_freeONLY_PM
_symmetry_space_group_name_H-M	'P1'
_cell_length_a	8.908200
_cell_length_b	10.553300
_cell_length_c	18.662700
_cell_angle_alpha	90.000000
_cell_angle_beta	90.000000
_cell_angle_gamma	90.000000
_symmetry_Int_Tables_number 1

loop_
_symmetry_equiv_pos_as_xyz
'x,y,z'

loop_
_atom_site_label
_atom_site_type_symbol
_atom_site_fract_x
_atom_site_fract_y
_atom_site_fract_z
Zn11	Zn1	0.870500	0.984710	0.399070
Zn21	Zn2	0.370500	0.015290	0.600930
Zn31	Zn3	0.870500	0.515290	0.899070
Zn41	Zn4	0.370500	0.484710	0.100930
H11	H1	0.178800	0.037600	0.470000
H21	H2	0.760800	0.641300	0.600400
H31	H3	0.158200	0.698100	0.727700
H41	H4	0.249900	0.797800	0.691900
H51	H5	0.027100	0.323900	0.287000
H61	H6	0.149800	0.468300	0.213200
H71	H7	0.407600	0.207200	0.136200
H81	H8	0.295600	0.055000	0.208300
H91	H9	0.678800	0.962400	0.530000
H101	H10	0.260800	0.358700	0.399600
H111	H11	0.658200	0.301900	0.272300
H121	H12	0.749900	0.202200	0.308100
H131	H13	0.527100	0.676100	0.713000
H141	H14	0.649800	0.531700	0.786800
H151	H15	0.907600	0.792800	0.863800
H161	H16	0.795600	0.945000	0.791700
H171	H17	0.178800	0.462400	0.970000
H181	H18	0.760800	0.858700	0.100400
H191	H19	0.158200	0.801900	0.227700
H201	H20	0.249900	0.702200	0.191900
H211	H21	0.027100	0.176100	0.787000
H221	H22	0.149800	0.031700	0.713200
H231	H23	0.407600	0.292800	0.636200
H241	H24	0.295600	0.445000	0.708300
H251	H25	0.678800	0.537600	0.030000
H261	H26	0.260800	0.141300	0.899600
H271	H27	0.658200	0.198100	0.772300
H281	H28	0.749900	0.297800	0.808100
H291	H29	0.527100	0.823900	0.213000
H301	H30	0.649800	0.968300	0.286800
H311	H31	0.907600	0.707200	0.363800
H321	H32	0.795600	0.555000	0.291700
C11	C1	0.130300	0.976500	0.497400
C21	C2	0.843600	0.694100	0.594800
C31	C3	0.065200	0.760900	0.640200
C41	C4	0.079600	0.843100	0.581200
C51	C5	0.966800	0.840200	0.532300
C61	C6	0.077600	0.075300	0.304300
C71	C7	0.104800	0.298000	0.257000
C81	C8	0.154300	0.172500	0.256000
C91	C9	0.177200	0.383300	0.211100
C101	C10	0.328700	0.230200	0.166200
C111	C11	0.263400	0.138800	0.210400
C121	C12	0.630300	0.023500	0.502600
C131	C13	0.343600	0.305900	0.405200
C141	C14	0.565200	0.239100	0.359800
C151	C15	0.579600	0.156900	0.418800
C161	C16	0.466800	0.159800	0.467700
C171	C17	0.577600	0.924700	0.695700
C181	C18	0.604800	0.702000	0.743000
C191	C19	0.654300	0.827500	0.744000
C201	C20	0.677200	0.616700	0.788900
C211	C21	0.828700	0.769800	0.833800
C221	C22	0.763400	0.861200	0.789600
C231	C23	0.130300	0.523500	0.997400
C241	C24	0.843600	0.805900	0.094800
C251	C25	0.065200	0.739100	0.140200
C261	C26	0.079600	0.656900	0.081200
C271	C27	0.966800	0.659800	0.032300
C281	C28	0.077600	0.424700	0.804300
C291	C29	0.104800	0.202000	0.757000
C301	C30	0.154300	0.327500	0.756000
C311	C31	0.177200	0.116700	0.711100
C321	C32	0.328700	0.269800	0.666200
C331	C33	0.263400	0.361200	0.710400
C341	C34	0.630300	0.476500	0.002600
C351	C35	0.343600	0.194100	0.905200
C361	C36	0.565200	0.260900	0.859800
C371	C37	0.579600	0.343100	0.918800
C381	C38	0.466800	0.340200	0.967700
C391	C39	0.577600	0.575300	0.195700
C401	C40	0.604800	0.798000	0.243000
C411	C41	0.654300	0.672500	0.244000
C421	C42	0.677200	0.883300	0.288900
C431	C43	0.828700	0.730200	0.333800
C441	C44	0.763400	0.638800	0.289600
N11	N1	0.996100	0.925100	0.478200
N21	N2	0.843300	0.768800	0.536100
N31	N3	0.187300	0.931600	0.559300
N41	N4	0.944100	0.687200	0.643800
N51	N5	0.170900	0.751000	0.693200
N61	N6	0.280000	0.350300	0.165900
N71	N7	0.496100	0.074900	0.521800
N81	N8	0.343300	0.231200	0.463900
N91	N9	0.687300	0.068400	0.440700
N101	N10	0.444100	0.312800	0.356200
N111	N11	0.670900	0.249000	0.306800
N121	N12	0.780000	0.649700	0.834100
N131	N13	0.996100	0.574900	0.978200
N141	N14	0.843300	0.731200	0.036100
N151	N15	0.187300	0.568400	0.059300
N161	N16	0.944100	0.812800	0.143800
N171	N17	0.170900	0.749000	0.193200
N181	N18	0.280000	0.149700	0.665900
N191	N19	0.496100	0.425100	0.021800
N201	N20	0.343300	0.268800	0.963900
N211	N21	0.687300	0.431600	0.940700
N221	N22	0.444100	0.187200	0.856200
N231	N23	0.670900	0.251000	0.806800
N241	N24	0.780000	0.850300	0.334100
O11	O1	0.963200	0.115200	0.338700
O21	O2	0.127100	0.966800	0.306000
O31	O3	0.463200	0.884800	0.661300
O41	O4	0.627100	0.033200	0.694000
O51	O5	0.963200	0.384800	0.838700
O61	O6	0.127100	0.533200	0.806000
O71	O7	0.463200	0.615200	0.161300
O81	O8	0.627100	0.466800	0.194000
