data_MEMGAN_freeONLY_PM
_symmetry_space_group_name_H-M	'P1'
_cell_length_a	8.887100
_cell_length_b	11.493100
_cell_length_c	16.457000
_cell_angle_alpha	90.000000
_cell_angle_beta	90.000000
_cell_angle_gamma	90.000000
_symmetry_Int_Tables_number 1

loop_
_symmetry_equiv_pos_as_xyz
'x,y,z'

loop_
_atom_site_label
_atom_site_type_symbol
_atom_site_fract_x
_atom_site_fract_y
_atom_site_fract_z
O11	O1	0.015600	0.885100	0.089200
O21	O2	0.254100	0.883500	0.049200
O31	O3	0.471100	0.615500	0.086500
O41	O4	0.230600	0.615800	0.050700
C11	C1	0.195900	0.796200	0.174900
C21	C2	0.294700	0.701300	0.177700
C31	C3	0.154500	0.857000	0.098500
C41	C4	0.334200	0.640200	0.097600
O51	O5	0.515600	0.385100	0.089200
O61	O6	0.754100	0.383500	0.049200
O71	O7	0.971100	0.115500	0.086500
O81	O8	0.730600	0.115800	0.050700
C51	C5	0.695900	0.296200	0.174900
C61	C6	0.794700	0.201300	0.177700
C71	C7	0.654500	0.357000	0.098500
C81	C8	0.834200	0.140200	0.097600
O91	O9	0.984400	0.885100	0.910800
O101	O10	0.745900	0.883500	0.950800
O111	O11	0.528900	0.615500	0.913500
O121	O12	0.769400	0.615800	0.949300
C91	C9	0.804100	0.796200	0.825100
C101	C10	0.705300	0.701300	0.822300
C111	C11	0.845500	0.857000	0.901500
C121	C12	0.665800	0.640200	0.902400
O131	O13	0.484400	0.385100	0.910800
O141	O14	0.245900	0.383500	0.950800
O151	O15	0.028900	0.115500	0.913500
O161	O16	0.269400	0.115800	0.949300
C131	C13	0.304100	0.296200	0.825100
C141	C14	0.205300	0.201300	0.822300
C151	C15	0.345500	0.357000	0.901500
C161	C16	0.165800	0.140200	0.902400
O171	O17	0.984400	0.885100	0.589200
O181	O18	0.745900	0.883500	0.549200
O191	O19	0.528900	0.615500	0.586500
O201	O20	0.769400	0.615800	0.550700
C171	C17	0.804100	0.796200	0.674900
C181	C18	0.705300	0.701300	0.677700
C191	C19	0.845500	0.857000	0.598500
C201	C20	0.665800	0.640200	0.597600
O211	O21	0.484400	0.385100	0.589200
O221	O22	0.245900	0.383500	0.549200
O231	O23	0.028900	0.115500	0.586500
O241	O24	0.269400	0.115800	0.550700
C211	C21	0.304100	0.296200	0.674900
C221	C22	0.205300	0.201300	0.677700
C231	C23	0.345500	0.357000	0.598500
C241	C24	0.165800	0.140200	0.597600
O251	O25	0.015600	0.885100	0.410800
O261	O26	0.254100	0.883500	0.450800
O271	O27	0.471100	0.615500	0.413500
O281	O28	0.230600	0.615800	0.449300
C251	C25	0.195900	0.796200	0.325100
C261	C26	0.294700	0.701300	0.322300
C271	C27	0.154500	0.857000	0.401500
C281	C28	0.334200	0.640200	0.402400
O291	O29	0.515600	0.385100	0.410800
O301	O30	0.754100	0.383500	0.450800
O311	O31	0.971100	0.115500	0.413500
O321	O32	0.730600	0.115800	0.449300
C291	C29	0.695900	0.296200	0.325100
C301	C30	0.794700	0.201300	0.322300
C311	C31	0.654500	0.357000	0.401500
C321	C32	0.834200	0.140200	0.402400
Cu11	Cu1	0.000000	0.001910	0.000000
Cu21	Cu2	0.500000	0.501910	0.000000
Cu31	Cu3	0.000000	0.001910	0.500000
Cu41	Cu4	0.500000	0.501910	0.500000
C331	C33	0.148200	0.845700	0.250000
H11	H1	0.085600	0.910600	0.250000
C341	C34	0.340700	0.659000	0.250000
H21	H2	0.408100	0.597100	0.250000
C351	C35	0.648200	0.345700	0.250000
H31	H3	0.585600	0.410600	0.250000
C361	C36	0.840700	0.159000	0.250000
H41	H4	0.908100	0.097100	0.250000
C371	C37	0.851800	0.845700	0.750000
H51	H5	0.914400	0.910600	0.750000
C381	C38	0.659300	0.659000	0.750000
H61	H6	0.591900	0.597100	0.750000
C391	C39	0.351800	0.345700	0.750000
H71	H7	0.414400	0.410600	0.750000
C401	C40	0.159300	0.159000	0.750000
H81	H8	0.091900	0.097100	0.750000
