data_MEMYAF_freeONLY_PM
_symmetry_space_group_name_H-M	'P1'
_cell_length_a	8.660500
_cell_length_b	17.162000
_cell_length_c	12.174500
_cell_angle_alpha	90.000000
_cell_angle_beta	92.034000
_cell_angle_gamma	90.000000
_symmetry_Int_Tables_number 1

loop_
_symmetry_equiv_pos_as_xyz
'x,y,z'

loop_
_atom_site_label
_atom_site_type_symbol
_atom_site_fract_x
_atom_site_fract_y
_atom_site_fract_z
C11	C1	0.825900	0.264200	0.576100
C21	C2	0.341900	0.187900	0.423200
C31	C3	0.029200	0.073100	0.761500
C41	C4	0.868700	0.134500	0.246000
N11	N1	0.884400	0.210500	0.541000
N21	N2	0.229000	0.163200	0.456400
N31	N3	0.054000	0.090500	0.673600
N41	N4	0.927200	0.114000	0.326100
O11	O1	0.841700	0.009800	0.511400
S11	S1	0.745300	0.341790	0.632080
S21	S2	0.502400	0.223950	0.376260
S31	S3	0.991500	0.039290	0.885310
S41	S4	0.777000	0.166360	0.132670
Mn11	Mn1	0.014820	0.108500	0.496820
Hg11	Hg1	0.505090	0.339530	0.505940
H11	H1	0.776000	0.016000	0.470000
H21	H2	0.783000	0.003000	0.559000
C51	C5	0.674100	0.764200	0.923900
C61	C6	0.158100	0.687900	0.076800
C71	C7	0.470800	0.573100	0.738500
C81	C8	0.631300	0.634500	0.254000
N51	N5	0.615600	0.710500	0.959000
N61	N6	0.271000	0.663200	0.043600
N71	N7	0.446000	0.590500	0.826400
N81	N8	0.572800	0.614000	0.173900
O21	O2	0.658300	0.509800	0.988600
S51	S5	0.754700	0.841790	0.867920
S61	S6	0.997600	0.723950	0.123740
S71	S7	0.508500	0.539290	0.614690
S81	S8	0.723000	0.666360	0.367330
Mn21	Mn2	0.485180	0.608500	0.003180
Hg21	Hg2	0.994910	0.839530	0.994060
H31	H3	0.724000	0.516000	0.030000
H41	H4	0.717000	0.503000	0.941000
C91	C9	0.174100	0.735800	0.423900
C101	C10	0.658100	0.812100	0.576800
C111	C11	0.970800	0.926900	0.238500
C121	C12	0.131300	0.865500	0.754000
N91	N9	0.115600	0.789500	0.459000
N101	N10	0.771000	0.836800	0.543600
N111	N11	0.946000	0.909500	0.326400
N121	N12	0.072800	0.886000	0.673900
O31	O3	0.158300	0.990200	0.488600
S91	S9	0.254700	0.658210	0.367920
S101	S10	0.497600	0.776050	0.623740
S111	S11	0.008500	0.960710	0.114690
S121	S12	0.223000	0.833640	0.867330
Mn31	Mn3	0.985180	0.891500	0.503180
Hg31	Hg3	0.494910	0.660470	0.494060
H51	H5	0.224000	0.984000	0.530000
H61	H6	0.217000	0.997000	0.441000
C131	C13	0.325900	0.235800	0.076100
C141	C14	0.841900	0.312100	0.923200
C151	C15	0.529200	0.426900	0.261500
C161	C16	0.368700	0.365500	0.746000
N131	N13	0.384400	0.289500	0.041000
N141	N14	0.729000	0.336800	0.956400
N151	N15	0.554000	0.409500	0.173600
N161	N16	0.427200	0.386000	0.826100
O41	O4	0.341700	0.490200	0.011400
S131	S13	0.245300	0.158210	0.132080
S141	S14	0.002400	0.276050	0.876260
S151	S15	0.491500	0.460710	0.385310
S161	S16	0.277000	0.333640	0.632670
Mn41	Mn4	0.514820	0.391500	0.996820
Hg41	Hg4	0.005090	0.160470	0.005940
H71	H7	0.276000	0.484000	0.970000
H81	H8	0.283000	0.497000	0.059000
