data_METYIU_freeONLY_PM
_symmetry_space_group_name_H-M	'P1'
_cell_length_a	17.350400
_cell_length_b	17.350400
_cell_length_c	17.350400
_cell_angle_alpha	64.973000
_cell_angle_beta	81.146400
_cell_angle_gamma	115.027000
_symmetry_Int_Tables_number 1

loop_
_symmetry_equiv_pos_as_xyz
'x,y,z'

loop_
_atom_site_label
_atom_site_type_symbol
_atom_site_fract_x
_atom_site_fract_y
_atom_site_fract_z
Cd11	Cd1	0.334320	0.538520	0.051960
Cd21	Cd2	0.090480	0.038520	0.795800
H11	H1	0.204600	0.396000	0.287200
H21	H2	0.407800	0.392000	0.162000
H31	H3	0.177700	0.281400	0.466900
H41	H4	0.274800	0.189400	0.485600
H51	H5	0.164000	0.345800	0.040200
H61	H6	0.427900	0.546000	0.875700
H71	H7	0.122300	0.235100	0.954200
H81	H8	0.282500	0.301500	0.822600
H91	H9	0.363000	0.291900	0.322900
H101	H10	0.366300	0.435500	0.824800
H111	H11	0.183200	0.896000	0.808600
H121	H12	0.054000	0.892000	0.015800
H131	H13	0.248300	0.781400	0.896300
H141	H14	0.175000	0.689400	0.085400
H151	H15	0.886000	0.845800	0.818200
H161	H16	0.921700	0.046000	0.881900
H171	H17	0.689300	0.735100	0.887200
H181	H18	0.624100	0.801500	0.981000
H191	H19	0.114800	0.791900	0.071100
H201	H20	0.760300	0.935500	0.930800
C11	C1	0.265800	0.322600	0.345000
C21	C2	0.249200	0.381200	0.276800
C31	C3	0.360100	0.379200	0.208100
C41	C4	0.219800	0.268500	0.444100
C51	C5	0.231600	0.202400	0.505800
C61	C6	0.177800	0.148500	0.606100
C71	C7	0.241300	0.358100	0.929200
C81	C8	0.222100	0.380800	0.992900
C91	C9	0.366800	0.490900	0.902900
C101	C10	0.185900	0.277100	0.917400
C111	C11	0.218800	0.259500	0.859300
C121	C12	0.161300	0.176000	0.846900
C131	C13	0.167600	0.822600	0.943200
C141	C14	0.158000	0.881200	0.868000
C151	C15	0.087300	0.879200	0.980900
C161	C16	0.212600	0.768500	0.951300
C171	C17	0.208200	0.702400	0.029200
C181	C18	0.254600	0.648500	0.029300
C191	C19	0.787300	0.858100	0.883200
C201	C20	0.873700	0.880800	0.841300
C211	C21	0.893800	0.990900	0.875900
C221	C22	0.694500	0.777100	0.908800
C231	C23	0.618800	0.759500	0.959300
C241	C24	0.522900	0.676000	0.985300
N11	N1	0.306800	0.415100	0.191500
N21	N2	0.337400	0.323000	0.298000
N31	N3	0.300900	0.462600	0.976900
N41	N4	0.334700	0.430500	0.872000
N51	N5	0.106600	0.915100	0.891700
N61	N6	0.121000	0.823000	0.014400
N71	N7	0.939500	0.962600	0.838300
N81	N8	0.802500	0.930500	0.904200
O11	O1	0.076000	0.125700	0.883300
O21	O2	0.206900	0.160200	0.797900
O31	O3	0.134700	0.177400	0.638900
O41	O4	0.174600	0.067000	0.660800
O51	O5	0.509000	0.625700	0.950300
O61	O6	0.458100	0.660200	0.046700
O71	O7	0.316300	0.677400	0.957300
O81	O8	0.227800	0.567000	0.107600
Cd31	Cd3	0.909520	0.961480	0.204200
Cd41	Cd4	0.665680	0.461480	0.948040
H211	H21	0.816800	0.104000	0.191400
H221	H22	0.946000	0.108000	0.984200
H231	H23	0.751700	0.218600	0.103700
H241	H24	0.825000	0.310600	0.914600
H251	H25	0.114000	0.154200	0.181800
H261	H26	0.078300	0.954000	0.118100
H271	H27	0.310700	0.264900	0.112800
H281	H28	0.375900	0.198500	0.019000
H291	H29	0.885200	0.208100	0.928900
H301	H30	0.239700	0.064500	0.069200
H311	H31	0.795400	0.604000	0.712800
H321	H32	0.592200	0.608000	0.838000
H331	H33	0.822300	0.718600	0.533100
H341	H34	0.725200	0.810600	0.514400
H351	H35	0.836000	0.654200	0.959800
H361	H36	0.572100	0.454000	0.124300
H371	H37	0.877700	0.764900	0.045800
H381	H38	0.717500	0.698500	0.177400
H391	H39	0.637000	0.708100	0.677100
H401	H40	0.633700	0.564500	0.175200
C251	C25	0.832400	0.177400	0.056800
C261	C26	0.842000	0.118800	0.132000
C271	C27	0.912700	0.120800	0.019100
C281	C28	0.787400	0.231500	0.048700
C291	C29	0.791800	0.297600	0.970800
C301	C30	0.745400	0.351500	0.970700
C311	C31	0.212700	0.141900	0.116800
C321	C32	0.126300	0.119200	0.158700
C331	C33	0.106200	0.009100	0.124100
C341	C34	0.305500	0.222900	0.091200
C351	C35	0.381200	0.240500	0.040700
C361	C36	0.477100	0.324000	0.014700
C371	C37	0.734200	0.677400	0.655000
C381	C38	0.750800	0.618800	0.723200
C391	C39	0.639900	0.620800	0.791900
C401	C40	0.780200	0.731500	0.555900
C411	C41	0.768400	0.797600	0.494200
C421	C42	0.822200	0.851500	0.393900
C431	C43	0.758700	0.641900	0.070800
C441	C44	0.777900	0.619200	0.007100
C451	C45	0.633200	0.509100	0.097100
C461	C46	0.814100	0.722900	0.082600
C471	C47	0.781200	0.740500	0.140700
C481	C48	0.838700	0.824000	0.153100
N91	N9	0.893400	0.084900	0.108300
N101	N10	0.879000	0.177000	0.985600
N111	N11	0.060500	0.037400	0.161700
N121	N12	0.197500	0.069500	0.095800
N131	N13	0.693200	0.584900	0.808500
N141	N14	0.662600	0.677000	0.702000
N151	N15	0.699100	0.537400	0.023100
N161	N16	0.665300	0.569500	0.128000
O91	O9	0.491000	0.374300	0.049700
O101	O10	0.541900	0.339800	0.953300
O111	O11	0.683700	0.322600	0.042700
O121	O12	0.772200	0.433000	0.892400
O131	O13	0.924000	0.874300	0.116700
O141	O14	0.793100	0.839800	0.202100
O151	O15	0.865300	0.822600	0.361100
O161	O16	0.825400	0.933000	0.339200
Cd51	Cd5	0.295800	0.886280	0.165680
Cd61	Cd6	0.551960	0.386280	0.409520
H411	H41	0.308600	0.991800	0.295400
H421	H42	0.515800	0.069800	0.092200
H431	H43	0.396300	0.144600	0.322300
H441	H44	0.585400	0.260400	0.225200
H451	H45	0.318200	0.704200	0.336000
H461	H46	0.381900	0.803600	0.072100
H471	H47	0.387200	0.576500	0.377700
H481	H48	0.481000	0.605100	0.217500
H491	H49	0.571100	0.185900	0.137000
H501	H50	0.430800	0.691100	0.133700
H511	H51	0.787200	0.491800	0.316800
H521	H52	0.662000	0.569800	0.446000
H531	H53	0.966900	0.644600	0.251700
H541	H54	0.985600	0.760400	0.325000
H551	H55	0.540200	0.204200	0.614000
H561	H56	0.375700	0.303600	0.578300
H571	H57	0.454200	0.076500	0.810700
H581	H58	0.322600	0.105100	0.875900
H591	H59	0.822900	0.685900	0.385200
H601	H60	0.324800	0.191100	0.739700
C491	C49	0.443200	0.110800	0.234200
C501	C50	0.368000	0.026000	0.250800
C511	C51	0.480900	0.068200	0.139900
C521	C52	0.451300	0.163900	0.280200
C531	C53	0.529200	0.237400	0.268400
C541	C54	0.529300	0.283900	0.322200
C551	C55	0.383200	0.670500	0.258700
C561	C56	0.341300	0.715000	0.277900
C571	C57	0.375900	0.769700	0.133200
C581	C58	0.408800	0.603300	0.314100
C591	C59	0.459300	0.578100	0.281200
C601	C60	0.485300	0.508200	0.338700
C611	C61	0.845000	0.610800	0.332400
C621	C62	0.776800	0.526000	0.342000
C631	C63	0.708100	0.568200	0.412700
C641	C64	0.944100	0.663900	0.287400
C651	C65	0.005800	0.737400	0.291800
C661	C66	0.106100	0.783900	0.245400
C671	C67	0.429200	0.170500	0.712700
C681	C68	0.492900	0.215000	0.626300
C691	C69	0.402900	0.269700	0.606200
C701	C70	0.417400	0.103300	0.805500
C711	C71	0.359300	0.078100	0.881200
C721	C72	0.346900	0.008200	0.977100
N171	N17	0.391700	0.998300	0.193200
N181	N18	0.514400	0.135400	0.162600
N191	N19	0.338300	0.777800	0.199100
N201	N20	0.404200	0.706700	0.165300
N211	N21	0.691500	0.498300	0.393400
N221	N22	0.798000	0.635400	0.379000
N231	N23	0.476900	0.277800	0.560500
N241	N24	0.372000	0.206700	0.697500
O171	O17	0.450300	0.459300	0.424000
O181	O18	0.546700	0.504800	0.293100
O191	O19	0.457300	0.273600	0.365300
O201	O20	0.607600	0.335400	0.325400
O211	O21	0.383300	0.959300	0.991000
O221	O22	0.297900	0.004800	0.041900
O231	O23	0.138900	0.773600	0.183700
O241	O24	0.160800	0.835400	0.272200
Cd71	Cd7	0.448040	0.613720	0.590480
Cd81	Cd8	0.704200	0.113720	0.834320
H611	H61	0.212800	0.508200	0.683200
H621	H62	0.338000	0.430200	0.554000
H631	H63	0.033100	0.355400	0.748300
H641	H64	0.014400	0.239600	0.675000
H651	H65	0.459800	0.795800	0.386000
H661	H66	0.624300	0.696400	0.421700
H671	H67	0.545800	0.923500	0.189300
H681	H68	0.677400	0.894900	0.124100
H691	H69	0.177100	0.314100	0.614800
H701	H70	0.675200	0.808900	0.260300
H711	H71	0.691400	0.008200	0.704600
H721	H72	0.484200	0.930200	0.907800
H731	H73	0.603700	0.855400	0.677700
H741	H74	0.414600	0.739600	0.774800
H751	H75	0.681800	0.295800	0.664000
H761	H76	0.618100	0.196400	0.927900
H771	H77	0.612800	0.423500	0.622300
H781	H78	0.519000	0.394900	0.782500
H791	H79	0.428900	0.814100	0.863000
H801	H80	0.569200	0.308900	0.866300
C731	C73	0.155000	0.389200	0.667600
C741	C74	0.223200	0.474000	0.658000
C751	C75	0.291900	0.431800	0.587300
C761	C76	0.055900	0.336100	0.712600
C771	C77	0.994200	0.262600	0.708200
C781	C78	0.893900	0.216100	0.754600
C791	C79	0.570800	0.829500	0.287300
C801	C80	0.507100	0.785000	0.373700
C811	C81	0.597100	0.730300	0.393800
C821	C82	0.582600	0.896700	0.194500
C831	C83	0.640700	0.921900	0.118800
C841	C84	0.653100	0.991800	0.022900
C851	C85	0.556800	0.889200	0.765800
C861	C86	0.632000	0.974000	0.749200
C871	C87	0.519100	0.931800	0.860100
C881	C88	0.548700	0.836100	0.719800
C891	C89	0.470800	0.762600	0.731600
C901	C90	0.470700	0.716100	0.677800
C911	C91	0.616800	0.329500	0.741300
C921	C92	0.658700	0.285000	0.722100
C931	C93	0.624100	0.230300	0.866800
C941	C94	0.591200	0.396700	0.685900
C951	C95	0.540700	0.421900	0.718800
C961	C96	0.514700	0.491800	0.661300
N251	N25	0.308500	0.501700	0.606600
N261	N26	0.202000	0.364600	0.621000
N271	N27	0.523100	0.722200	0.439500
N281	N28	0.628000	0.793300	0.302500
N291	N29	0.608300	0.001700	0.806800
N301	N30	0.485600	0.864600	0.837400
N311	N31	0.661700	0.222200	0.800900
N321	N32	0.595800	0.293300	0.834700
O251	O25	0.616700	0.040700	0.009000
O261	O26	0.702100	0.995200	0.958100
O271	O27	0.861100	0.226400	0.816300
O281	O28	0.839200	0.164600	0.727800
O291	O29	0.549700	0.540700	0.576000
O301	O30	0.453300	0.495200	0.706900
O311	O31	0.542700	0.726400	0.634700
O321	O32	0.392400	0.664600	0.674600
