data_MICNUI_freeONLY_PM
_symmetry_space_group_name_H-M	'P1'
_cell_length_a	13.036600
_cell_length_b	13.036600
_cell_length_c	16.240000
_cell_angle_alpha	109.539000
_cell_angle_beta	109.539000
_cell_angle_gamma	95.474800
_symmetry_Int_Tables_number 1

loop_
_symmetry_equiv_pos_as_xyz
'x,y,z'

loop_
_atom_site_label
_atom_site_type_symbol
_atom_site_fract_x
_atom_site_fract_y
_atom_site_fract_z
Cd11	Cd1	0.621150	0.378850	0.250000
Cd21	Cd2	0.378850	0.621150	0.750000
H11	H1	0.431400	0.444400	0.327900
H21	H2	0.730100	0.632100	0.416600
H31	H3	0.379400	0.587600	0.423400
H41	H4	0.684400	0.782000	0.512300
H51	H5	0.544500	0.217300	0.029000
H61	H6	0.843000	0.312800	0.222800
H71	H7	0.612600	0.124000	0.920000
H81	H8	0.918600	0.222600	0.122000
H91	H9	0.755500	0.042500	0.877800
H101	H10	0.841100	0.154300	0.908500
H111	H11	0.415400	0.768400	0.534300
H121	H12	0.544100	0.815900	0.609000
H131	H13	0.555600	0.568600	0.172100
H141	H14	0.367900	0.269900	0.083400
H151	H15	0.412400	0.620600	0.076600
H161	H16	0.218000	0.315600	0.987700
H171	H17	0.782700	0.455500	0.471000
H181	H18	0.687200	0.157000	0.277200
H191	H19	0.876000	0.387400	0.580000
H201	H20	0.777400	0.081400	0.378000
H211	H21	0.957500	0.244500	0.622200
H221	H22	0.845700	0.158900	0.591500
H231	H23	0.231600	0.584600	0.965700
H241	H24	0.184100	0.455900	0.891000
H251	H25	0.568600	0.555600	0.672100
H261	H26	0.269900	0.367900	0.583400
H271	H27	0.620600	0.412400	0.576600
H281	H28	0.315600	0.218000	0.487700
H291	H29	0.455500	0.782700	0.971000
H301	H30	0.157000	0.687200	0.777200
H311	H31	0.387400	0.876000	0.080000
H321	H32	0.081400	0.777400	0.878000
H331	H33	0.244500	0.957500	0.122200
H341	H34	0.158900	0.845700	0.091500
H351	H35	0.584600	0.231600	0.465700
H361	H36	0.455900	0.184100	0.391000
H371	H37	0.444400	0.431400	0.827900
H381	H38	0.632100	0.730100	0.916600
H391	H39	0.587600	0.379400	0.923400
H401	H40	0.782000	0.684400	0.012300
H411	H41	0.217300	0.544500	0.529000
H421	H42	0.312800	0.843000	0.722800
H431	H43	0.124000	0.612600	0.420000
H441	H44	0.222600	0.918600	0.622000
H451	H45	0.042500	0.755500	0.377800
H461	H46	0.154300	0.841100	0.408500
H471	H47	0.768400	0.415400	0.034300
H481	H48	0.815900	0.544100	0.109000
C11	C1	0.622840	0.220140	0.047330
C21	C2	0.797910	0.275110	0.163650
C31	C3	0.661000	0.162800	0.979760
C41	C4	0.842620	0.219700	0.100230
C51	C5	0.773360	0.161920	0.005380
C61	C6	0.815210	0.100670	0.930270
C71	C7	0.910440	0.049540	0.966330
C81	C8	0.892030	0.946370	0.972520
C91	C9	0.978600	0.898360	0.004260
C101	C10	0.484400	0.514000	0.366500
C111	C11	0.657300	0.622500	0.417400
C121	C12	0.452000	0.599600	0.422800
C131	C13	0.630400	0.713000	0.475000
C141	C14	0.526190	0.702270	0.477820
C151	C15	0.494840	0.797220	0.542110
C161	C16	0.499530	0.901230	0.520060
C171	C17	0.415750	0.907490	0.443980
C181	C18	0.414840	0.002920	0.424530
C191	C19	0.779860	0.377160	0.452670
C201	C20	0.724890	0.202090	0.336350
C211	C21	0.837200	0.339000	0.520240
C221	C22	0.780300	0.157380	0.399770
C231	C23	0.838080	0.226640	0.494620
C241	C24	0.899330	0.184790	0.569730
C251	C25	0.950460	0.089560	0.533670
C261	C26	0.053630	0.107970	0.527480
C271	C27	0.101640	0.021400	0.495740
C281	C28	0.486000	0.515600	0.133500
C291	C29	0.377500	0.342700	0.082600
C301	C30	0.400400	0.548000	0.077200
C311	C31	0.287000	0.369600	0.025000
C321	C32	0.297730	0.473810	0.022180
C331	C33	0.202780	0.505160	0.957890
C341	C34	0.098770	0.500470	0.979940
C351	C35	0.092510	0.584250	0.056020
C361	C36	0.997080	0.585160	0.075470
C371	C37	0.377160	0.779860	0.952670
C381	C38	0.202090	0.724890	0.836350
C391	C39	0.339000	0.837200	0.020240
C401	C40	0.157380	0.780300	0.899770
C411	C41	0.226640	0.838080	0.994620
C421	C42	0.184790	0.899330	0.069730
C431	C43	0.089560	0.950460	0.033670
C441	C44	0.107970	0.053630	0.027480
C451	C45	0.021400	0.101640	0.995740
C461	C46	0.515600	0.486000	0.633500
C471	C47	0.342700	0.377500	0.582600
C481	C48	0.548000	0.400400	0.577200
C491	C49	0.369600	0.287000	0.525000
C501	C50	0.473810	0.297730	0.522180
C511	C51	0.505160	0.202780	0.457890
C521	C52	0.500470	0.098770	0.479940
C531	C53	0.584250	0.092510	0.556020
C541	C54	0.585160	0.997080	0.575470
C551	C55	0.220140	0.622840	0.547330
C561	C56	0.275110	0.797910	0.663650
C571	C57	0.162800	0.661000	0.479760
C581	C58	0.219700	0.842620	0.600230
C591	C59	0.161920	0.773360	0.505380
C601	C60	0.100670	0.815210	0.430270
C611	C61	0.049540	0.910440	0.466330
C621	C62	0.946370	0.892030	0.472520
C631	C63	0.898360	0.978600	0.504260
C641	C64	0.514000	0.484400	0.866500
C651	C65	0.622500	0.657300	0.917400
C661	C66	0.599600	0.452000	0.922800
C671	C67	0.713000	0.630400	0.975000
C681	C68	0.702270	0.526190	0.977820
C691	C69	0.797220	0.494840	0.042110
C701	C70	0.901230	0.499530	0.020060
C711	C71	0.907490	0.415750	0.943980
C721	C72	0.002920	0.414840	0.924530
N11	N1	0.689720	0.276960	0.139010
N21	N2	0.586160	0.524060	0.363780
N31	N3	0.723040	0.310280	0.360990
N41	N4	0.475940	0.413840	0.136220
N51	N5	0.310280	0.723040	0.860990
N61	N6	0.413840	0.475940	0.636220
N71	N7	0.276960	0.689720	0.639010
N81	N8	0.524060	0.586160	0.863780
F11	F1	0.786210	0.890910	0.946020
F21	F2	0.954030	0.796870	0.007220
F31	F3	0.330610	0.816670	0.386160
F41	F4	0.328940	0.001420	0.349660
F51	F5	0.109090	0.213790	0.553980
F61	F6	0.203130	0.045970	0.492780
F71	F7	0.183330	0.669390	0.113840
F81	F8	0.998580	0.671060	0.150340
F91	F9	0.213790	0.109090	0.053980
F101	F10	0.045970	0.203130	0.992780
F111	F11	0.669390	0.183330	0.613840
F121	F12	0.671060	0.998580	0.650340
F131	F13	0.890910	0.786210	0.446020
F141	F14	0.796870	0.954030	0.507220
F151	F15	0.816670	0.330610	0.886160
F161	F16	0.001420	0.328940	0.849660
