data_MICNOC_freeONLY_PM
_symmetry_space_group_name_H-M	'P1'
_cell_length_a	13.152300
_cell_length_b	13.152300
_cell_length_c	16.576500
_cell_angle_alpha	111.191000
_cell_angle_beta	111.191000
_cell_angle_gamma	94.180400
_symmetry_Int_Tables_number 1

loop_
_symmetry_equiv_pos_as_xyz
'x,y,z'

loop_
_atom_site_label
_atom_site_type_symbol
_atom_site_fract_x
_atom_site_fract_y
_atom_site_fract_z
Cd11	Cd1	0.123630	0.876370	0.250000
Cd21	Cd2	0.876370	0.123630	0.750000
H11	H1	0.928700	0.952300	0.314400
H21	H2	0.234700	0.138900	0.426700
H31	H3	0.875800	0.095800	0.409700
H41	H4	0.188400	0.284800	0.525000
H51	H5	0.353000	0.817800	0.231800
H61	H6	0.045900	0.718700	0.027500
H71	H7	0.421800	0.725200	0.124600
H81	H8	0.111700	0.621500	0.915800
H91	H9	0.340600	0.654600	0.911300
H101	H10	0.250300	0.538100	0.872500
H111	H11	0.040500	0.319500	0.602300
H121	H12	0.921500	0.270700	0.529900
H131	H13	0.047700	0.071300	0.185600
H141	H14	0.861100	0.765300	0.073300
H151	H15	0.904200	0.124200	0.090300
H161	H16	0.715200	0.811600	0.975000
H171	H17	0.182200	0.647000	0.268200
H181	H18	0.281300	0.954100	0.472500
H191	H19	0.274800	0.578200	0.375400
H201	H20	0.378500	0.888300	0.584200
H211	H21	0.345400	0.659400	0.588700
H221	H22	0.461900	0.749700	0.627500
H231	H23	0.680500	0.959500	0.897700
H241	H24	0.729300	0.078500	0.970100
H251	H25	0.071300	0.047700	0.685600
H261	H26	0.765300	0.861100	0.573300
H271	H27	0.124200	0.904200	0.590300
H281	H28	0.811600	0.715200	0.475000
H291	H29	0.647000	0.182200	0.768200
H301	H30	0.954100	0.281300	0.972500
H311	H31	0.578200	0.274800	0.875400
H321	H32	0.888300	0.378500	0.084200
H331	H33	0.659400	0.345400	0.088700
H341	H34	0.749700	0.461900	0.127500
H351	H35	0.959500	0.680500	0.397700
H361	H36	0.078500	0.729300	0.470100
H371	H37	0.952300	0.928700	0.814400
H381	H38	0.138900	0.234700	0.926700
H391	H39	0.095800	0.875800	0.909700
H401	H40	0.284800	0.188400	0.025000
H411	H41	0.817800	0.353000	0.731800
H421	H42	0.718700	0.045900	0.527500
H431	H43	0.725200	0.421800	0.624600
H441	H44	0.621500	0.111700	0.415800
H451	H45	0.654600	0.340600	0.411300
H461	H46	0.538100	0.250300	0.372500
H471	H47	0.319500	0.040500	0.102300
H481	H48	0.270700	0.921500	0.029900
C11	C1	0.301490	0.779030	0.164150
C21	C2	0.124360	0.721180	0.046360
C31	C3	0.345380	0.724200	0.100630
C41	C4	0.161740	0.664040	0.978580
C51	C5	0.274110	0.664370	0.004990
C61	C6	0.315000	0.601440	0.930420
C71	C7	0.410040	0.549660	0.966410
C81	C8	0.391810	0.444230	0.965240
C91	C9	0.478620	0.396460	0.997430
C101	C10	0.983430	0.020170	0.358500
C111	C11	0.160910	0.127690	0.423500
C121	C12	0.950120	0.105280	0.414000
C131	C13	0.133690	0.216710	0.481800
C141	C14	0.029470	0.204970	0.475980
C151	C15	0.994920	0.298900	0.538340
C161	C16	0.998590	0.402210	0.518470
C171	C17	0.913970	0.408290	0.442330
C181	C18	0.914370	0.502810	0.424360
C191	C19	0.220970	0.698510	0.335850
C201	C20	0.278820	0.875640	0.453640
C211	C21	0.275800	0.654620	0.399370
C221	C22	0.335960	0.838260	0.521420
C231	C23	0.335630	0.725890	0.495010
C241	C24	0.398560	0.685000	0.569580
C251	C25	0.450340	0.589960	0.533590
C261	C26	0.555770	0.608190	0.534760
C271	C27	0.603540	0.521380	0.502570
C281	C28	0.979830	0.016570	0.141500
C291	C29	0.872310	0.839090	0.076500
C301	C30	0.894720	0.049880	0.086000
C311	C31	0.783290	0.866310	0.018200
C321	C32	0.795030	0.970530	0.024020
C331	C33	0.701100	0.005080	0.961660
C341	C34	0.597790	0.001410	0.981530
C351	C35	0.591710	0.086030	0.057670
C361	C36	0.497190	0.085630	0.075640
C371	C37	0.698510	0.220970	0.835850
C381	C38	0.875640	0.278820	0.953640
C391	C39	0.654620	0.275800	0.899370
C401	C40	0.838260	0.335960	0.021420
C411	C41	0.725890	0.335630	0.995010
C421	C42	0.685000	0.398560	0.069580
C431	C43	0.589960	0.450340	0.033590
C441	C44	0.608190	0.555770	0.034760
C451	C45	0.521380	0.603540	0.002570
C461	C46	0.016570	0.979830	0.641500
C471	C47	0.839090	0.872310	0.576500
C481	C48	0.049880	0.894720	0.586000
C491	C49	0.866310	0.783290	0.518200
C501	C50	0.970530	0.795030	0.524020
C511	C51	0.005080	0.701100	0.461660
C521	C52	0.001410	0.597790	0.481530
C531	C53	0.086030	0.591710	0.557670
C541	C54	0.085630	0.497190	0.575640
C551	C55	0.779030	0.301490	0.664150
C561	C56	0.721180	0.124360	0.546360
C571	C57	0.724200	0.345380	0.600630
C581	C58	0.664040	0.161740	0.478580
C591	C59	0.664370	0.274110	0.504990
C601	C60	0.601440	0.315000	0.430420
C611	C61	0.549660	0.410040	0.466410
C621	C62	0.444230	0.391810	0.465240
C631	C63	0.396460	0.478620	0.497430
C641	C64	0.020170	0.983430	0.858500
C651	C65	0.127690	0.160910	0.923500
C661	C66	0.105280	0.950120	0.914000
C671	C67	0.216710	0.133690	0.981800
C681	C68	0.204970	0.029470	0.975980
C691	C69	0.298900	0.994920	0.038340
C701	C70	0.402210	0.998590	0.018470
C711	C71	0.408290	0.913970	0.942330
C721	C72	0.502810	0.914370	0.924360
N11	N1	0.192450	0.778250	0.138470
N21	N2	0.091040	0.026660	0.362800
N31	N3	0.221750	0.807550	0.361530
N41	N4	0.973340	0.908960	0.137200
N51	N5	0.807550	0.221750	0.861530
N61	N6	0.908960	0.973340	0.637200
N71	N7	0.778250	0.192450	0.638470
N81	N8	0.026660	0.091040	0.862800
F11	F1	0.285770	0.386830	0.931870
F21	F2	0.453740	0.293180	0.994150
F31	F3	0.827490	0.317950	0.382750
F41	F4	0.828520	0.501520	0.349170
F51	F5	0.613170	0.714230	0.568130
F61	F6	0.706820	0.546260	0.505850
F71	F7	0.682050	0.172510	0.117250
F81	F8	0.498480	0.171480	0.150830
F91	F9	0.714230	0.613170	0.068130
F101	F10	0.546260	0.706820	0.005850
F111	F11	0.172510	0.682050	0.617250
F121	F12	0.171480	0.498480	0.650830
F131	F13	0.386830	0.285770	0.431870
F141	F14	0.293180	0.453740	0.494150
F151	F15	0.317950	0.827490	0.882750
F161	F16	0.501520	0.828520	0.849170
