data_MICNAO_freeONLY_PM
_symmetry_space_group_name_H-M	'P1'
_cell_length_a	17.037000
_cell_length_b	19.255000
_cell_length_c	29.997000
_cell_angle_alpha	90.000000
_cell_angle_beta	90.922000
_cell_angle_gamma	90.000000
_symmetry_Int_Tables_number 1

loop_
_symmetry_equiv_pos_as_xyz
'x,y,z'

loop_
_atom_site_label
_atom_site_type_symbol
_atom_site_fract_x
_atom_site_fract_y
_atom_site_fract_z
Cd11	Cd1	0.123460	0.870770	0.125800
Cd21	Cd2	0.628580	0.619800	0.124210
F11	F1	0.792330	0.166750	0.186190
F21	F2	0.907620	0.184180	0.045360
F31	F3	0.833870	0.297790	0.203890
F41	F4	0.948920	0.314980	0.062900
F51	F5	0.429660	0.154390	0.059960
F61	F6	0.359960	0.198890	0.208490
F71	F7	0.397240	0.285920	0.038610
F81	F8	0.327870	0.330290	0.187230
F91	F9	0.246220	0.511070	0.155410
F101	F10	0.345690	0.579850	0.296080
F111	F11	0.166440	0.409320	0.193480
F121	F12	0.266150	0.477530	0.333980
F131	F13	0.913160	0.589880	0.950530
F141	F14	0.994970	0.491670	0.910130
F151	F15	0.514230	0.973660	0.088270
F161	F16	0.588970	0.081320	0.054140
O11	O1	0.033120	0.839190	0.186730
O21	O2	0.117950	0.909940	0.215300
O31	O3	0.016950	0.878340	0.253080
O41	O4	0.724190	0.653210	0.066870
O51	O5	0.638950	0.584940	0.035290
O61	O6	0.739030	0.621880	0.998030
O71	O7	0.532050	0.647500	0.182850
O81	O8	0.617490	0.577640	0.212330
O91	O9	0.515990	0.608110	0.249570
N11	N1	0.024530	0.957700	0.116160
N21	N2	0.724000	0.530620	0.134230
N31	N3	0.221010	0.955090	0.136550
N41	N4	0.534060	0.531650	0.111000
N51	N5	0.205400	0.780090	0.156320
N61	N6	0.294810	0.205840	0.338430
N71	N7	0.043900	0.780900	0.094390
N81	N8	0.550530	0.707290	0.088660
N91	N9	0.056350	0.875540	0.218840
N101	N10	0.700610	0.619920	0.032730
N111	N11	0.555060	0.611360	0.215490
C11	C1	0.003000	0.997910	0.149990
H11	H1	0.032600	0.995200	0.177100
C21	C2	0.982830	0.964470	0.077780
H21	H2	0.997800	0.937500	0.052800
C31	C3	0.940700	0.043050	0.148060
H31	H3	0.928200	0.070400	0.173300
C41	C4	0.919460	0.008740	0.072990
H41	H4	0.892100	0.011900	0.045200
C51	C5	0.895880	0.048690	0.109050
C61	C6	0.825690	0.097370	0.104920
H51	H5	0.803600	0.094700	0.074200
H61	H6	0.784600	0.082200	0.125700
C71	C7	0.848080	0.170950	0.115070
C81	C8	0.830820	0.202820	0.155030
C91	C9	0.888730	0.211570	0.085130
C101	C10	0.852130	0.270060	0.163850
C111	C11	0.909790	0.278700	0.093980
C121	C12	0.892470	0.310600	0.134210
C131	C13	0.915960	0.384290	0.144670
H71	H7	0.957100	0.399100	0.123800
H81	H8	0.938600	0.386300	0.175300
C141	C14	0.846950	0.434300	0.141150
C151	C15	0.823780	0.473030	0.177690
H91	H9	0.849200	0.466900	0.205800
C161	C16	0.805010	0.443240	0.101450
H101	H10	0.817800	0.416700	0.075900
C171	C17	0.763700	0.520470	0.172860
H111	H11	0.749600	0.547400	0.198000
C181	C18	0.744890	0.490800	0.099490
H121	H12	0.716600	0.495800	0.072100
C191	C19	0.231500	0.005200	0.107720
H131	H13	0.194500	0.009100	0.083800
C201	C20	0.271200	0.955300	0.170490
H141	H14	0.264500	0.921400	0.193100
C211	C21	0.333200	0.001600	0.175590
H151	H15	0.366400	0.999600	0.201300
C221	C22	0.291800	0.052600	0.109300
H161	H16	0.295700	0.087100	0.086800
C231	C23	0.346040	0.050010	0.143280
C241	C24	0.416060	0.098460	0.147490
H171	H17	0.436200	0.097400	0.178600
H181	H18	0.458300	0.081400	0.128000
C251	C25	0.396500	0.172300	0.134980
C261	C26	0.404020	0.197420	0.092030
C271	C27	0.369910	0.218980	0.166290
C281	C28	0.388160	0.265410	0.080820
C291	C29	0.353370	0.286900	0.155100
C301	C30	0.361890	0.312090	0.112190
C311	C31	0.342110	0.386510	0.099750
H191	H19	0.321400	0.387600	0.068700
H201	H20	0.300200	0.403500	0.119500
C321	C32	0.411820	0.434910	0.103490
C331	C33	0.457600	0.440100	0.142110
H211	H21	0.447800	0.410600	0.166800
C341	C34	0.431350	0.478110	0.068590
H221	H22	0.403200	0.475100	0.041100
C351	C35	0.516900	0.487950	0.144340
H231	H23	0.547800	0.490400	0.171000
C361	C36	0.491320	0.525450	0.073420
H241	H24	0.502900	0.555000	0.049000
C371	C37	0.231850	0.775640	0.198190
H251	H25	0.219000	0.812000	0.218200
C381	C38	0.224450	0.728330	0.128930
H261	H26	0.206400	0.730500	0.098800
C391	C39	0.276970	0.721220	0.214230
H271	H27	0.294500	0.720800	0.244400
C401	C40	0.269290	0.671450	0.142050
H281	H28	0.281200	0.635900	0.121200
C411	C41	0.296500	0.666890	0.185650
C421	C42	0.345900	0.605780	0.201560
H291	H29	0.386600	0.622900	0.222700
H301	H30	0.373000	0.585500	0.175700
C431	C43	0.298900	0.549070	0.224200
C441	C44	0.252300	0.503500	0.200010
C451	C45	0.301220	0.538520	0.269690
C461	C46	0.211100	0.450560	0.219780
C471	C47	0.260360	0.485340	0.289250
C481	C48	0.213360	0.439490	0.265120
C491	C49	0.166730	0.382540	0.287580
H311	H31	0.140000	0.402900	0.313600
H321	H32	0.125400	0.366400	0.266400
C501	C50	0.213180	0.320420	0.303230
C511	C51	0.174410	0.266010	0.323540
H331	H33	0.118800	0.266600	0.325500
C521	C52	0.293200	0.314340	0.299790
H341	H34	0.322300	0.349500	0.285200
C531	C53	0.216790	0.211120	0.340820
H351	H35	0.189000	0.175000	0.355200
C541	C54	0.331420	0.257070	0.317470
H361	H36	0.386700	0.254100	0.314500
C551	C55	0.016320	0.778610	0.052470
H371	H37	0.027600	0.816400	0.033200
C561	C56	0.026350	0.727080	0.120630
H381	H38	0.044400	0.727800	0.150800
C571	C57	0.971930	0.723740	0.035630
H391	H39	0.953300	0.724700	0.005600
C581	C58	0.983300	0.670580	0.106110
H401	H40	0.973000	0.633400	0.126000
C591	C59	0.955080	0.667990	0.062620
C601	C60	0.907380	0.606950	0.045680
H411	H41	0.865900	0.624200	0.025000
H421	H42	0.881200	0.584600	0.071200
C611	C61	0.956230	0.552870	0.021780
C621	C62	0.956200	0.546380	0.975980
C631	C63	0.999070	0.494950	0.954950
C641	C64	0.472150	0.709380	0.089860
H431	H43	0.445300	0.671600	0.103100
C651	C65	0.585330	0.760750	0.069070
H441	H44	0.640900	0.759900	0.066900
C661	C66	0.428510	0.763610	0.072870
H451	H45	0.372900	0.762300	0.074200
C671	C67	0.545830	0.817190	0.051680
H461	H46	0.574100	0.854000	0.038300
C681	C68	0.465300	0.820040	0.053820
C691	C69	0.415720	0.881630	0.038700
H471	H47	0.376400	0.865000	0.016600
H481	H48	0.386800	0.899300	0.064700
C701	C70	0.460100	0.941550	0.018380
C711	C71	0.506200	0.985720	0.044040
C721	C72	0.545150	0.042110	0.026440
Cd31	Cd3	0.876540	0.370770	0.374200
Cd41	Cd4	0.371420	0.119800	0.375790
F171	F17	0.207670	0.666750	0.313810
F181	F18	0.092380	0.684180	0.454640
F191	F19	0.166130	0.797790	0.296110
F201	F20	0.051080	0.814980	0.437100
F211	F21	0.570340	0.654390	0.440040
F221	F22	0.640040	0.698890	0.291510
F231	F23	0.602760	0.785920	0.461390
F241	F24	0.672130	0.830290	0.312770
F251	F25	0.753780	0.011070	0.344590
F261	F26	0.654310	0.079850	0.203920
F271	F27	0.833560	0.909320	0.306520
F281	F28	0.733850	0.977530	0.166020
F291	F29	0.086840	0.089880	0.549470
F301	F30	0.005030	0.991670	0.589870
F311	F31	0.485770	0.473660	0.411730
F321	F32	0.411030	0.581320	0.445860
O101	O10	0.966880	0.339190	0.313270
O111	O11	0.882050	0.409940	0.284700
O121	O12	0.983050	0.378340	0.246920
O131	O13	0.275810	0.153210	0.433130
O141	O14	0.361050	0.084940	0.464710
O151	O15	0.260970	0.121880	0.501970
O161	O16	0.467950	0.147500	0.317150
O171	O17	0.382510	0.077640	0.287670
O181	O18	0.484010	0.108110	0.250430
N121	N12	0.975470	0.457700	0.383840
N131	N13	0.276000	0.030620	0.365770
N141	N14	0.778990	0.455090	0.363450
N151	N15	0.465940	0.031650	0.389000
N161	N16	0.794600	0.280090	0.343680
N171	N17	0.705190	0.705840	0.161570
N181	N18	0.956100	0.280900	0.405610
N191	N19	0.449470	0.207290	0.411340
N201	N20	0.943650	0.375540	0.281160
N211	N21	0.299390	0.119920	0.467270
N221	N22	0.444940	0.111360	0.284510
C731	C73	0.997000	0.497910	0.350010
H491	H49	0.967400	0.495200	0.322900
C741	C74	0.017170	0.464470	0.422220
H501	H50	0.002200	0.437500	0.447200
C751	C75	0.059300	0.543050	0.351940
H511	H51	0.071800	0.570400	0.326700
C761	C76	0.080540	0.508740	0.427010
H521	H52	0.107900	0.511900	0.454800
C771	C77	0.104120	0.548690	0.390950
C781	C78	0.174310	0.597370	0.395080
H531	H53	0.196400	0.594700	0.425800
H541	H54	0.215400	0.582200	0.374300
C791	C79	0.151920	0.670950	0.384930
C801	C80	0.169180	0.702820	0.344970
C811	C81	0.111270	0.711570	0.414870
C821	C82	0.147870	0.770060	0.336150
C831	C83	0.090210	0.778700	0.406020
C841	C84	0.107530	0.810600	0.365790
C851	C85	0.084040	0.884290	0.355330
H551	H55	0.042900	0.899100	0.376200
H561	H56	0.061400	0.886300	0.324700
C861	C86	0.153050	0.934300	0.358850
C871	C87	0.176220	0.973030	0.322310
H571	H57	0.150800	0.966900	0.294200
C881	C88	0.194990	0.943240	0.398550
H581	H58	0.182200	0.916700	0.424100
C891	C89	0.236300	0.020470	0.327140
H591	H59	0.250400	0.047400	0.302000
C901	C90	0.255110	0.990800	0.400510
H601	H60	0.283400	0.995800	0.427900
C911	C91	0.768500	0.505200	0.392280
H611	H61	0.805500	0.509100	0.416200
C921	C92	0.728800	0.455300	0.329510
H621	H62	0.735500	0.421400	0.306900
C931	C93	0.666800	0.501600	0.324410
H631	H63	0.633600	0.499600	0.298700
C941	C94	0.708200	0.552600	0.390700
H641	H64	0.704300	0.587100	0.413200
C951	C95	0.653960	0.550010	0.356720
C961	C96	0.583940	0.598460	0.352510
H651	H65	0.563800	0.597400	0.321400
H661	H66	0.541700	0.581400	0.372000
C971	C97	0.603500	0.672300	0.365020
C981	C98	0.595980	0.697420	0.407970
C991	C99	0.630090	0.718980	0.333710
C1001	C100	0.611840	0.765410	0.419180
C1011	C101	0.646630	0.786900	0.344900
C1021	C102	0.638110	0.812090	0.387810
C1031	C103	0.657890	0.886510	0.400250
H671	H67	0.678600	0.887600	0.431300
H681	H68	0.699800	0.903500	0.380500
C1041	C104	0.588180	0.934910	0.396510
C1051	C105	0.542400	0.940100	0.357890
H691	H69	0.552200	0.910600	0.333200
C1061	C106	0.568650	0.978110	0.431410
H701	H70	0.596800	0.975100	0.458900
C1071	C107	0.483100	0.987950	0.355660
H711	H71	0.452200	0.990400	0.329000
C1081	C108	0.508680	0.025450	0.426580
H721	H72	0.497100	0.055000	0.451000
C1091	C109	0.768150	0.275640	0.301810
H731	H73	0.781000	0.312000	0.281800
C1101	C110	0.775550	0.228330	0.371070
H741	H74	0.793600	0.230500	0.401200
C1111	C111	0.723030	0.221220	0.285770
H751	H75	0.705500	0.220800	0.255600
C1121	C112	0.730710	0.171450	0.357950
H761	H76	0.718800	0.135900	0.378800
C1131	C113	0.703500	0.166890	0.314350
C1141	C114	0.654100	0.105780	0.298440
H771	H77	0.613400	0.122900	0.277300
H781	H78	0.627000	0.085500	0.324300
C1151	C115	0.701100	0.049070	0.275800
C1161	C116	0.747700	0.003500	0.299990
C1171	C117	0.698780	0.038520	0.230310
C1181	C118	0.788900	0.950560	0.280220
C1191	C119	0.739640	0.985340	0.210750
C1201	C120	0.786640	0.939490	0.234880
C1211	C121	0.833270	0.882540	0.212420
H791	H79	0.860000	0.902900	0.186400
H801	H80	0.874600	0.866400	0.233600
C1221	C122	0.786820	0.820420	0.196770
C1231	C123	0.825590	0.766010	0.176460
H811	H81	0.881200	0.766600	0.174500
C1241	C124	0.706800	0.814340	0.200210
H821	H82	0.677700	0.849500	0.214800
C1251	C125	0.783210	0.711120	0.159180
H831	H83	0.811000	0.675000	0.144800
C1261	C126	0.668580	0.757070	0.182530
H841	H84	0.613300	0.754100	0.185500
C1271	C127	0.983680	0.278610	0.447530
H851	H85	0.972400	0.316400	0.466800
C1281	C128	0.973650	0.227080	0.379370
H861	H86	0.955600	0.227800	0.349200
C1291	C129	0.028070	0.223740	0.464370
H871	H87	0.046700	0.224700	0.494400
C1301	C130	0.016700	0.170580	0.393890
H881	H88	0.027000	0.133400	0.374000
C1311	C131	0.044920	0.167990	0.437380
C1321	C132	0.092620	0.106950	0.454320
H891	H89	0.134100	0.124200	0.475000
H901	H90	0.118800	0.084600	0.428800
C1331	C133	0.043770	0.052870	0.478220
C1341	C134	0.043800	0.046380	0.524020
C1351	C135	0.000930	0.994950	0.545050
C1361	C136	0.527850	0.209380	0.410140
H911	H91	0.554700	0.171600	0.396900
C1371	C137	0.414670	0.260750	0.430930
H921	H92	0.359100	0.259900	0.433100
C1381	C138	0.571490	0.263610	0.427130
H931	H93	0.627100	0.262300	0.425800
C1391	C139	0.454170	0.317190	0.448320
H941	H94	0.425900	0.354000	0.461700
C1401	C140	0.534700	0.320040	0.446180
C1411	C141	0.584280	0.381630	0.461300
H951	H95	0.623600	0.365000	0.483400
H961	H96	0.613200	0.399300	0.435300
C1421	C142	0.539900	0.441550	0.481620
C1431	C143	0.493800	0.485720	0.455960
C1441	C144	0.454850	0.542110	0.473560
Cd51	Cd5	0.876540	0.129230	0.874200
Cd61	Cd6	0.371420	0.380200	0.875790
F331	F33	0.207670	0.833250	0.813810
F341	F34	0.092380	0.815820	0.954640
F351	F35	0.166130	0.702210	0.796110
F361	F36	0.051080	0.685020	0.937100
F371	F37	0.570340	0.845610	0.940040
F381	F38	0.640040	0.801110	0.791510
F391	F39	0.602760	0.714080	0.961390
F401	F40	0.672130	0.669710	0.812770
F411	F41	0.753780	0.488930	0.844590
F421	F42	0.654310	0.420150	0.703920
F431	F43	0.833560	0.590680	0.806520
F441	F44	0.733850	0.522470	0.666020
F451	F45	0.086840	0.410120	0.049470
F461	F46	0.005030	0.508330	0.089870
F471	F47	0.485770	0.026340	0.911730
F481	F48	0.411030	0.918680	0.945860
O191	O19	0.966880	0.160810	0.813270
O201	O20	0.882050	0.090060	0.784700
O211	O21	0.983050	0.121660	0.746920
O221	O22	0.275810	0.346790	0.933130
O231	O23	0.361050	0.415060	0.964710
O241	O24	0.260970	0.378120	0.001970
O251	O25	0.467950	0.352500	0.817150
O261	O26	0.382510	0.422360	0.787670
O271	O27	0.484010	0.391890	0.750430
N231	N23	0.975470	0.042300	0.883840
N241	N24	0.276000	0.469380	0.865770
N251	N25	0.778990	0.044910	0.863450
N261	N26	0.465940	0.468350	0.889000
N271	N27	0.794600	0.219910	0.843680
N281	N28	0.705190	0.794160	0.661570
N291	N29	0.956100	0.219100	0.905610
N301	N30	0.449470	0.292710	0.911340
N311	N31	0.943650	0.124460	0.781160
N321	N32	0.299390	0.380080	0.967270
N331	N33	0.444940	0.388640	0.784510
C1451	C145	0.997000	0.002090	0.850010
H971	H97	0.967400	0.004800	0.822900
C1461	C146	0.017170	0.035530	0.922220
H981	H98	0.002200	0.062500	0.947200
C1471	C147	0.059300	0.956950	0.851940
H991	H99	0.071800	0.929600	0.826700
C1481	C148	0.080540	0.991260	0.927010
H1001	H100	0.107900	0.988100	0.954800
C1491	C149	0.104120	0.951310	0.890950
C1501	C150	0.174310	0.902630	0.895080
H1011	H101	0.196400	0.905300	0.925800
H1021	H102	0.215400	0.917800	0.874300
C1511	C151	0.151920	0.829050	0.884930
C1521	C152	0.169180	0.797180	0.844970
C1531	C153	0.111270	0.788430	0.914870
C1541	C154	0.147870	0.729940	0.836150
C1551	C155	0.090210	0.721300	0.906020
C1561	C156	0.107530	0.689400	0.865790
C1571	C157	0.084040	0.615710	0.855330
H1031	H103	0.042900	0.600900	0.876200
H1041	H104	0.061400	0.613700	0.824700
C1581	C158	0.153050	0.565700	0.858850
C1591	C159	0.176220	0.526970	0.822310
H1051	H105	0.150800	0.533100	0.794200
C1601	C160	0.194990	0.556760	0.898550
H1061	H106	0.182200	0.583300	0.924100
C1611	C161	0.236300	0.479530	0.827140
H1071	H107	0.250400	0.452600	0.802000
C1621	C162	0.255110	0.509200	0.900510
H1081	H108	0.283400	0.504200	0.927900
C1631	C163	0.768500	0.994800	0.892280
H1091	H109	0.805500	0.990900	0.916200
C1641	C164	0.728800	0.044700	0.829510
H1101	H110	0.735500	0.078600	0.806900
C1651	C165	0.666800	0.998400	0.824410
H1111	H111	0.633600	0.000400	0.798700
C1661	C166	0.708200	0.947400	0.890700
H1121	H112	0.704300	0.912900	0.913200
C1671	C167	0.653960	0.949990	0.856720
C1681	C168	0.583940	0.901540	0.852510
H1131	H113	0.563800	0.902600	0.821400
H1141	H114	0.541700	0.918600	0.872000
C1691	C169	0.603500	0.827700	0.865020
C1701	C170	0.595980	0.802580	0.907970
C1711	C171	0.630090	0.781020	0.833710
C1721	C172	0.611840	0.734590	0.919180
C1731	C173	0.646630	0.713100	0.844900
C1741	C174	0.638110	0.687910	0.887810
C1751	C175	0.657890	0.613490	0.900250
H1151	H115	0.678600	0.612400	0.931300
H1161	H116	0.699800	0.596500	0.880500
C1761	C176	0.588180	0.565090	0.896510
C1771	C177	0.542400	0.559900	0.857890
H1171	H117	0.552200	0.589400	0.833200
C1781	C178	0.568650	0.521890	0.931410
H1181	H118	0.596800	0.524900	0.958900
C1791	C179	0.483100	0.512050	0.855660
H1191	H119	0.452200	0.509600	0.829000
C1801	C180	0.508680	0.474550	0.926580
H1201	H120	0.497100	0.445000	0.951000
C1811	C181	0.768150	0.224360	0.801810
H1211	H121	0.781000	0.188000	0.781800
C1821	C182	0.775550	0.271670	0.871070
H1221	H122	0.793600	0.269500	0.901200
C1831	C183	0.723030	0.278780	0.785770
H1231	H123	0.705500	0.279200	0.755600
C1841	C184	0.730710	0.328550	0.857950
H1241	H124	0.718800	0.364100	0.878800
C1851	C185	0.703500	0.333110	0.814350
C1861	C186	0.654100	0.394220	0.798440
H1251	H125	0.613400	0.377100	0.777300
H1261	H126	0.627000	0.414500	0.824300
C1871	C187	0.701100	0.450930	0.775800
C1881	C188	0.747700	0.496500	0.799990
C1891	C189	0.698780	0.461480	0.730310
C1901	C190	0.788900	0.549440	0.780220
C1911	C191	0.739640	0.514660	0.710750
C1921	C192	0.786640	0.560510	0.734880
C1931	C193	0.833270	0.617460	0.712420
H1271	H127	0.860000	0.597100	0.686400
H1281	H128	0.874600	0.633600	0.733600
C1941	C194	0.786820	0.679580	0.696770
C1951	C195	0.825590	0.733990	0.676460
H1291	H129	0.881200	0.733400	0.674500
C1961	C196	0.706800	0.685660	0.700210
H1301	H130	0.677700	0.650500	0.714800
C1971	C197	0.783210	0.788880	0.659180
H1311	H131	0.811000	0.825000	0.644800
C1981	C198	0.668580	0.742930	0.682530
H1321	H132	0.613300	0.745900	0.685500
C1991	C199	0.983680	0.221390	0.947530
H1331	H133	0.972400	0.183600	0.966800
C2001	C200	0.973650	0.272920	0.879370
H1341	H134	0.955600	0.272200	0.849200
C2011	C201	0.028070	0.276260	0.964370
H1351	H135	0.046700	0.275300	0.994400
C2021	C202	0.016700	0.329420	0.893890
H1361	H136	0.027000	0.366600	0.874000
C2031	C203	0.044920	0.332010	0.937380
C2041	C204	0.092620	0.393050	0.954320
H1371	H137	0.134100	0.375800	0.975000
H1381	H138	0.118800	0.415400	0.928800
C2051	C205	0.043770	0.447130	0.978220
C2061	C206	0.043800	0.453620	0.024020
C2071	C207	0.000930	0.505050	0.045050
C2081	C208	0.527850	0.290620	0.910140
H1391	H139	0.554700	0.328400	0.896900
C2091	C209	0.414670	0.239250	0.930930
H1401	H140	0.359100	0.240100	0.933100
C2101	C210	0.571490	0.236390	0.927130
H1411	H141	0.627100	0.237700	0.925800
C2111	C211	0.454170	0.182810	0.948320
H1421	H142	0.425900	0.146000	0.961700
C2121	C212	0.534700	0.179960	0.946180
C2131	C213	0.584280	0.118370	0.961300
H1431	H143	0.623600	0.135000	0.983400
H1441	H144	0.613200	0.100700	0.935300
C2141	C214	0.539900	0.058450	0.981620
C2151	C215	0.493800	0.014280	0.955960
C2161	C216	0.454850	0.957890	0.973560
Cd71	Cd7	0.123460	0.629230	0.625800
Cd81	Cd8	0.628580	0.880200	0.624210
F491	F49	0.792330	0.333250	0.686190
F501	F50	0.907620	0.315820	0.545360
F511	F51	0.833870	0.202210	0.703890
F521	F52	0.948920	0.185020	0.562900
F531	F53	0.429660	0.345610	0.559960
F541	F54	0.359960	0.301110	0.708490
F551	F55	0.397240	0.214080	0.538610
F561	F56	0.327870	0.169710	0.687230
F571	F57	0.246220	0.988930	0.655410
F581	F58	0.345690	0.920150	0.796080
F591	F59	0.166440	0.090680	0.693480
F601	F60	0.266150	0.022470	0.833980
F611	F61	0.913160	0.910120	0.450530
F621	F62	0.994970	0.008330	0.410130
F631	F63	0.514230	0.526340	0.588270
F641	F64	0.588970	0.418680	0.554140
O281	O28	0.033120	0.660810	0.686730
O291	O29	0.117950	0.590060	0.715300
O301	O30	0.016950	0.621660	0.753080
O311	O31	0.724190	0.846790	0.566870
O321	O32	0.638950	0.915060	0.535290
O331	O33	0.739030	0.878120	0.498030
O341	O34	0.532050	0.852500	0.682850
O351	O35	0.617490	0.922360	0.712330
O361	O36	0.515990	0.891890	0.749570
N341	N34	0.024530	0.542300	0.616160
N351	N35	0.724000	0.969380	0.634230
N361	N36	0.221010	0.544910	0.636550
N371	N37	0.534060	0.968350	0.611000
N381	N38	0.205400	0.719910	0.656320
N391	N39	0.294810	0.294160	0.838430
N401	N40	0.043900	0.719100	0.594390
N411	N41	0.550530	0.792710	0.588660
N421	N42	0.056350	0.624460	0.718840
N431	N43	0.700610	0.880080	0.532730
N441	N44	0.555060	0.888640	0.715490
C2171	C217	0.003000	0.502090	0.649990
H1451	H145	0.032600	0.504800	0.677100
C2181	C218	0.982830	0.535530	0.577780
H1461	H146	0.997800	0.562500	0.552800
C2191	C219	0.940700	0.456950	0.648060
H1471	H147	0.928200	0.429600	0.673300
C2201	C220	0.919460	0.491260	0.572990
H1481	H148	0.892100	0.488100	0.545200
C2211	C221	0.895880	0.451310	0.609050
C2221	C222	0.825690	0.402630	0.604920
H1491	H149	0.803600	0.405300	0.574200
H1501	H150	0.784600	0.417800	0.625700
C2231	C223	0.848080	0.329050	0.615070
C2241	C224	0.830820	0.297180	0.655030
C2251	C225	0.888730	0.288430	0.585130
C2261	C226	0.852130	0.229940	0.663850
C2271	C227	0.909790	0.221300	0.593980
C2281	C228	0.892470	0.189400	0.634210
C2291	C229	0.915960	0.115710	0.644670
H1511	H151	0.957100	0.100900	0.623800
H1521	H152	0.938600	0.113700	0.675300
C2301	C230	0.846950	0.065700	0.641150
C2311	C231	0.823780	0.026970	0.677690
H1531	H153	0.849200	0.033100	0.705800
C2321	C232	0.805010	0.056760	0.601450
H1541	H154	0.817800	0.083300	0.575900
C2331	C233	0.763700	0.979530	0.672860
H1551	H155	0.749600	0.952600	0.698000
C2341	C234	0.744890	0.009200	0.599490
H1561	H156	0.716600	0.004200	0.572100
C2351	C235	0.231500	0.494800	0.607720
H1571	H157	0.194500	0.490900	0.583800
C2361	C236	0.271200	0.544700	0.670490
H1581	H158	0.264500	0.578600	0.693100
C2371	C237	0.333200	0.498400	0.675590
H1591	H159	0.366400	0.500400	0.701300
C2381	C238	0.291800	0.447400	0.609300
H1601	H160	0.295700	0.412900	0.586800
C2391	C239	0.346040	0.449990	0.643280
C2401	C240	0.416060	0.401540	0.647490
H1611	H161	0.436200	0.402600	0.678600
H1621	H162	0.458300	0.418600	0.628000
C2411	C241	0.396500	0.327700	0.634980
C2421	C242	0.404020	0.302580	0.592030
C2431	C243	0.369910	0.281020	0.666290
C2441	C244	0.388160	0.234590	0.580820
C2451	C245	0.353370	0.213100	0.655100
C2461	C246	0.361890	0.187910	0.612190
C2471	C247	0.342110	0.113490	0.599750
H1631	H163	0.321400	0.112400	0.568700
H1641	H164	0.300200	0.096500	0.619500
C2481	C248	0.411820	0.065090	0.603490
C2491	C249	0.457600	0.059900	0.642110
H1651	H165	0.447800	0.089400	0.666800
C2501	C250	0.431350	0.021890	0.568590
H1661	H166	0.403200	0.024900	0.541100
C2511	C251	0.516900	0.012050	0.644340
H1671	H167	0.547800	0.009600	0.671000
C2521	C252	0.491320	0.974550	0.573420
H1681	H168	0.502900	0.945000	0.549000
C2531	C253	0.231850	0.724360	0.698190
H1691	H169	0.219000	0.688000	0.718200
C2541	C254	0.224450	0.771670	0.628930
H1701	H170	0.206400	0.769500	0.598800
C2551	C255	0.276970	0.778780	0.714230
H1711	H171	0.294500	0.779200	0.744400
C2561	C256	0.269290	0.828550	0.642050
H1721	H172	0.281200	0.864100	0.621200
C2571	C257	0.296500	0.833110	0.685650
C2581	C258	0.345900	0.894220	0.701560
H1731	H173	0.386600	0.877100	0.722700
H1741	H174	0.373000	0.914500	0.675700
C2591	C259	0.298900	0.950930	0.724200
C2601	C260	0.252300	0.996500	0.700010
C2611	C261	0.301220	0.961480	0.769690
C2621	C262	0.211100	0.049440	0.719780
C2631	C263	0.260360	0.014660	0.789250
C2641	C264	0.213360	0.060510	0.765120
C2651	C265	0.166730	0.117460	0.787580
H1751	H175	0.140000	0.097100	0.813600
H1761	H176	0.125400	0.133600	0.766400
C2661	C266	0.213180	0.179580	0.803230
C2671	C267	0.174410	0.233990	0.823540
H1771	H177	0.118800	0.233400	0.825500
C2681	C268	0.293200	0.185660	0.799790
H1781	H178	0.322300	0.150500	0.785200
C2691	C269	0.216790	0.288880	0.840820
H1791	H179	0.189000	0.325000	0.855200
C2701	C270	0.331420	0.242930	0.817470
H1801	H180	0.386700	0.245900	0.814500
C2711	C271	0.016320	0.721390	0.552470
H1811	H181	0.027600	0.683600	0.533200
C2721	C272	0.026350	0.772920	0.620630
H1821	H182	0.044400	0.772200	0.650800
C2731	C273	0.971930	0.776260	0.535630
H1831	H183	0.953300	0.775300	0.505600
C2741	C274	0.983300	0.829420	0.606110
H1841	H184	0.973000	0.866600	0.626000
C2751	C275	0.955080	0.832010	0.562620
C2761	C276	0.907380	0.893050	0.545680
H1851	H185	0.865900	0.875800	0.525000
H1861	H186	0.881200	0.915400	0.571200
C2771	C277	0.956230	0.947130	0.521780
C2781	C278	0.956200	0.953620	0.475980
C2791	C279	0.999070	0.005050	0.454950
C2801	C280	0.472150	0.790620	0.589860
H1871	H187	0.445300	0.828400	0.603100
C2811	C281	0.585330	0.739250	0.569070
H1881	H188	0.640900	0.740100	0.566900
C2821	C282	0.428510	0.736390	0.572870
H1891	H189	0.372900	0.737700	0.574200
C2831	C283	0.545830	0.682810	0.551680
H1901	H190	0.574100	0.646000	0.538300
C2841	C284	0.465300	0.679960	0.553820
C2851	C285	0.415720	0.618370	0.538700
H1911	H191	0.376400	0.635000	0.516600
H1921	H192	0.386800	0.600700	0.564700
C2861	C286	0.460100	0.558450	0.518380
C2871	C287	0.506200	0.514280	0.544040
C2881	C288	0.545150	0.457890	0.526440
