data_MICNIW_freeONLY_PM
_symmetry_space_group_name_H-M	'P1'
_cell_length_a	12.826700
_cell_length_b	12.826700
_cell_length_c	16.690000
_cell_angle_alpha	108.682000
_cell_angle_beta	108.682000
_cell_angle_gamma	95.972500
_symmetry_Int_Tables_number 1

loop_
_symmetry_equiv_pos_as_xyz
'x,y,z'

loop_
_atom_site_label
_atom_site_type_symbol
_atom_site_fract_x
_atom_site_fract_y
_atom_site_fract_z
Cd11	Cd1	0.620740	0.379260	0.250000
Cd21	Cd2	0.379260	0.620740	0.750000
H11	H1	0.849000	0.310600	0.226600
H21	H2	0.546100	0.229300	0.037000
H31	H3	0.921800	0.218800	0.120900
H41	H4	0.609600	0.133200	0.926200
H51	H5	0.840100	0.160100	0.911900
H61	H6	0.750400	0.046200	0.885200
H71	H7	0.730400	0.631800	0.406700
H81	H8	0.433200	0.440600	0.338400
H91	H9	0.691000	0.780000	0.506000
H101	H10	0.385600	0.584000	0.434400
H111	H11	0.562600	0.816800	0.608100
H121	H12	0.430900	0.769900	0.546200
H131	H13	0.689400	0.151000	0.273400
H141	H14	0.770700	0.453900	0.463000
H151	H15	0.781200	0.078200	0.379100
H161	H16	0.866800	0.390400	0.573800
H171	H17	0.839900	0.159900	0.588100
H181	H18	0.953800	0.249600	0.614800
H191	H19	0.368200	0.269600	0.093300
H201	H20	0.559400	0.566800	0.161600
H211	H21	0.220000	0.309000	0.994000
H221	H22	0.416000	0.614400	0.065600
H231	H23	0.183200	0.437400	0.891900
H241	H24	0.230100	0.569100	0.953800
H251	H25	0.151000	0.689400	0.773400
H261	H26	0.453900	0.770700	0.963000
H271	H27	0.078200	0.781200	0.879100
H281	H28	0.390400	0.866800	0.073800
H291	H29	0.159900	0.839900	0.088100
H301	H30	0.249600	0.953800	0.114800
H311	H31	0.269600	0.368200	0.593300
H321	H32	0.566800	0.559400	0.661600
H331	H33	0.309000	0.220000	0.494000
H341	H34	0.614400	0.416000	0.565600
H351	H35	0.437400	0.183200	0.391900
H361	H36	0.569100	0.230100	0.453800
H371	H37	0.310600	0.849000	0.726600
H381	H38	0.229300	0.546100	0.537000
H391	H39	0.218800	0.921800	0.620900
H401	H40	0.133200	0.609600	0.426200
H411	H41	0.160100	0.840100	0.411900
H421	H42	0.046200	0.750400	0.385200
H431	H43	0.631800	0.730400	0.906700
H441	H44	0.440600	0.433200	0.838400
H451	H45	0.780000	0.691000	0.006000
H461	H46	0.584000	0.385600	0.934400
H471	H47	0.816800	0.562600	0.108100
H481	H48	0.769900	0.430900	0.046200
C11	C1	0.799610	0.274450	0.164400
C21	C2	0.623750	0.226990	0.054410
C31	C3	0.843880	0.219640	0.101660
C41	C4	0.661110	0.169830	0.987650
C51	C5	0.773800	0.165840	0.010410
C61	C6	0.814580	0.105220	0.935950
C71	C7	0.909990	0.050830	0.968220
C81	C8	0.022090	0.108170	0.004770
C91	C9	0.109290	0.058910	0.035290
C101	C10	0.658670	0.621770	0.411790
C111	C11	0.486380	0.511340	0.372230
C121	C12	0.635500	0.710980	0.471230
C131	C13	0.457280	0.596520	0.429610
C141	C14	0.532640	0.700300	0.480230
C151	C15	0.505880	0.796420	0.545810
C161	C16	0.505210	0.901090	0.522410
C171	C17	0.418240	0.903760	0.448240
C181	C18	0.412890	0.999530	0.427180
C191	C19	0.725550	0.200390	0.335600
C201	C20	0.773010	0.376250	0.445590
C211	C21	0.780360	0.156120	0.398340
C221	C22	0.830170	0.338890	0.512350
C231	C23	0.834160	0.226200	0.489590
C241	C24	0.894780	0.185420	0.564050
C251	C25	0.949170	0.090010	0.531780
C261	C26	0.891830	0.977910	0.495230
C271	C27	0.941090	0.890710	0.464710
C281	C28	0.378230	0.341330	0.088210
C291	C29	0.488660	0.513620	0.127770
C301	C30	0.289020	0.364500	0.028770
C311	C31	0.403480	0.542720	0.070390
C321	C32	0.299700	0.467360	0.019770
C331	C33	0.203580	0.494120	0.954190
C341	C34	0.098910	0.494790	0.977590
C351	C35	0.096240	0.581760	0.051760
C361	C36	0.000470	0.587110	0.072820
C371	C37	0.200390	0.725550	0.835600
C381	C38	0.376250	0.773010	0.945590
C391	C39	0.156120	0.780360	0.898340
C401	C40	0.338890	0.830170	0.012350
C411	C41	0.226200	0.834160	0.989590
C421	C42	0.185420	0.894780	0.064050
C431	C43	0.090010	0.949170	0.031780
C441	C44	0.977910	0.891830	0.995230
C451	C45	0.890710	0.941090	0.964710
C461	C46	0.341330	0.378230	0.588210
C471	C47	0.513620	0.488660	0.627770
C481	C48	0.364500	0.289020	0.528770
C491	C49	0.542720	0.403480	0.570390
C501	C50	0.467360	0.299700	0.519770
C511	C51	0.494120	0.203580	0.454190
C521	C52	0.494790	0.098910	0.477590
C531	C53	0.581760	0.096240	0.551760
C541	C54	0.587110	0.000470	0.572820
C551	C55	0.274450	0.799610	0.664400
C561	C56	0.226990	0.623750	0.554410
C571	C57	0.219640	0.843880	0.601660
C581	C58	0.169830	0.661110	0.487650
C591	C59	0.165840	0.773800	0.510410
C601	C60	0.105220	0.814580	0.435950
C611	C61	0.050830	0.909990	0.468220
C621	C62	0.108170	0.022090	0.504770
C631	C63	0.058910	0.109290	0.535290
C641	C64	0.621770	0.658670	0.911790
C651	C65	0.511340	0.486380	0.872230
C661	C66	0.710980	0.635500	0.971230
C671	C67	0.596520	0.457280	0.929610
C681	C68	0.700300	0.532640	0.980230
C691	C69	0.796420	0.505880	0.045810
C701	C70	0.901090	0.505210	0.022410
C711	C71	0.903760	0.418240	0.948240
C721	C72	0.999530	0.412890	0.927180
N11	N1	0.691020	0.279240	0.142290
N21	N2	0.585340	0.522480	0.361340
N31	N3	0.720760	0.308980	0.357710
N41	N4	0.477520	0.414660	0.138660
N51	N5	0.308980	0.720760	0.857710
N61	N6	0.414660	0.477520	0.638660
N71	N7	0.279240	0.691020	0.642290
N81	N8	0.522480	0.585340	0.861340
F11	F1	0.047190	0.216010	0.011110
F21	F2	0.216860	0.119960	0.069750
F31	F3	0.335960	0.809140	0.394400
F41	F4	0.324040	0.993000	0.353840
F51	F5	0.783990	0.952810	0.488890
F61	F6	0.880040	0.783140	0.430250
F71	F7	0.190860	0.664040	0.105600
F81	F8	0.007000	0.675960	0.146160
F91	F9	0.952810	0.783990	0.988890
F101	F10	0.783140	0.880040	0.930250
F111	F11	0.664040	0.190860	0.605600
F121	F12	0.675960	0.007000	0.646160
F131	F13	0.216010	0.047190	0.511110
F141	F14	0.119960	0.216860	0.569750
F151	F15	0.809140	0.335960	0.894400
F161	F16	0.993000	0.324040	0.853840
