data_MICPAQ_freeONLY_PM
_symmetry_space_group_name_H-M	'P1'
_cell_length_a	13.047000
_cell_length_b	13.279000
_cell_length_c	16.614500
_cell_angle_alpha	111.121000
_cell_angle_beta	109.442000
_cell_angle_gamma	92.734000
_symmetry_Int_Tables_number 1

loop_
_symmetry_equiv_pos_as_xyz
'x,y,z'

loop_
_atom_site_label
_atom_site_type_symbol
_atom_site_fract_x
_atom_site_fract_y
_atom_site_fract_z
Cd11	Cd1	0.617480	0.379190	0.250770
Cd21	Cd2	0.382520	0.620810	0.749230
H11	H1	0.541900	0.221000	0.030900
H21	H2	0.846200	0.317300	0.220100
H31	H3	0.605200	0.125300	0.918300
H41	H4	0.915900	0.220600	0.112800
H51	H5	0.748700	0.036000	0.874200
H61	H6	0.831900	0.144900	0.898800
H71	H7	0.359100	0.271700	0.097100
H81	H8	0.542800	0.554100	0.162200
H91	H9	0.216100	0.307900	0.987400
H101	H10	0.398400	0.601900	0.065600
H111	H11	0.217600	0.560800	0.949000
H121	H12	0.173600	0.432600	0.883600
H131	H13	0.449800	0.449900	0.357000
H141	H14	0.719500	0.637800	0.398000
H151	H15	0.396900	0.596300	0.452700
H161	H16	0.673200	0.790200	0.492200
H171	H17	0.558300	0.826000	0.615700
H181	H18	0.429700	0.783500	0.550300
H191	H19	0.693000	0.159900	0.271900
H201	H20	0.769900	0.456000	0.470800
H211	H21	0.791900	0.088700	0.376300
H221	H22	0.873600	0.395900	0.579800
H231	H23	0.971100	0.256900	0.614800
H241	H24	0.859600	0.182700	0.597400
H251	H25	0.458100	0.779000	0.969100
H261	H26	0.153800	0.682700	0.779900
H271	H27	0.394800	0.874700	0.081700
H281	H28	0.084100	0.779400	0.887200
H291	H29	0.251300	0.964000	0.125800
H301	H30	0.168100	0.855100	0.101200
H311	H31	0.640900	0.728300	0.902900
H321	H32	0.457200	0.445900	0.837800
H331	H33	0.783900	0.692100	0.012600
H341	H34	0.601600	0.398100	0.934400
H351	H35	0.782400	0.439200	0.051000
H361	H36	0.826400	0.567400	0.116400
H371	H37	0.550200	0.550100	0.643000
H381	H38	0.280500	0.362200	0.602000
H391	H39	0.603100	0.403700	0.547300
H401	H40	0.326800	0.209800	0.507800
H411	H41	0.441700	0.174000	0.384300
H421	H42	0.570300	0.216500	0.449700
H431	H43	0.307000	0.840100	0.728100
H441	H44	0.230100	0.544000	0.529200
H451	H45	0.208100	0.911300	0.623700
H461	H46	0.126400	0.604100	0.420200
H471	H47	0.028900	0.743100	0.385200
H481	H48	0.140400	0.817300	0.402600
C11	C1	0.619200	0.221400	0.048000
C21	C2	0.796000	0.276800	0.157800
C31	C3	0.656600	0.163700	0.980400
C41	C4	0.838600	0.219800	0.094000
C51	C5	0.768500	0.159900	0.000400
C61	C6	0.809700	0.095500	0.925100
C71	C7	0.907100	0.045800	0.962800
C81	C8	0.015900	0.102400	0.995900
C91	C9	0.104500	0.057800	0.031800
C101	C10	0.369600	0.338600	0.089700
C111	C11	0.474400	0.503400	0.128300
C121	C12	0.281800	0.361900	0.025100
C131	C13	0.388300	0.532400	0.069000
C141	C14	0.289000	0.459900	0.015600
C151	C15	0.193200	0.488300	0.947700
C161	C16	0.092500	0.491300	0.973700
C171	C17	0.087300	0.583700	0.045300
C181	C18	0.997900	0.592300	0.069800
C191	C19	0.495700	0.520600	0.384800
C201	C20	0.652700	0.629700	0.408200
C211	C21	0.463200	0.606900	0.442400
C221	C22	0.626300	0.720200	0.465600
C231	C23	0.532600	0.709400	0.484400
C241	C24	0.504000	0.805600	0.551600
C251	C25	0.505100	0.906700	0.525100
C261	C26	0.416900	0.913100	0.452100
C271	C27	0.411100	0.002700	0.426900
C281	C28	0.730400	0.208500	0.335300
C291	C29	0.776000	0.380700	0.451400
C301	C30	0.789100	0.164800	0.397200
C311	C31	0.836800	0.345300	0.517000
C321	C32	0.844200	0.235500	0.491500
C331	C33	0.909000	0.196600	0.566900
C341	C34	0.955600	0.093900	0.532800
C351	C35	0.060000	0.105600	0.531700
C361	C36	0.103400	0.011900	0.500300
C371	C37	0.380800	0.778600	0.952000
C381	C38	0.204000	0.723200	0.842200
C391	C39	0.343400	0.836300	0.019600
C401	C40	0.161400	0.780200	0.906000
C411	C41	0.231500	0.840100	0.999600
C421	C42	0.190300	0.904500	0.074900
C431	C43	0.092900	0.954200	0.037200
C441	C44	0.984100	0.897600	0.004100
C451	C45	0.895500	0.942200	0.968200
C461	C46	0.630400	0.661400	0.910300
C471	C47	0.525600	0.496600	0.871700
C481	C48	0.718200	0.638100	0.974900
C491	C49	0.611700	0.467600	0.931000
C501	C50	0.711000	0.540100	0.984400
C511	C51	0.806800	0.511700	0.052300
C521	C52	0.907500	0.508700	0.026300
C531	C53	0.912700	0.416300	0.954700
C541	C54	0.002100	0.407700	0.930200
C551	C55	0.504300	0.479400	0.615200
C561	C56	0.347300	0.370300	0.591800
C571	C57	0.536800	0.393100	0.557600
C581	C58	0.373700	0.279800	0.534400
C591	C59	0.467400	0.290600	0.515600
C601	C60	0.496000	0.194400	0.448400
C611	C61	0.494900	0.093300	0.474900
C621	C62	0.583100	0.086900	0.547900
C631	C63	0.588900	0.997300	0.573100
C641	C64	0.269600	0.791500	0.664700
C651	C65	0.224000	0.619300	0.548600
C661	C66	0.210900	0.835200	0.602800
C671	C67	0.163200	0.654700	0.483000
C681	C68	0.155800	0.764500	0.508500
C691	C69	0.091000	0.803400	0.433100
C701	C70	0.044400	0.906100	0.467200
C711	C71	0.940000	0.894400	0.468300
C721	C72	0.896600	0.988100	0.499700
N11	N1	0.686900	0.279600	0.138500
N21	N2	0.467600	0.409300	0.140900
N31	N3	0.585300	0.529400	0.365900
N41	N4	0.723500	0.313300	0.359200
N51	N5	0.313100	0.720400	0.861500
N61	N6	0.532400	0.590700	0.859100
N71	N7	0.414700	0.470600	0.634100
N81	N8	0.276500	0.686700	0.640800
F11	F1	0.033100	0.202800	0.993600
F21	F2	0.206700	0.116300	0.060600
F31	F3	0.175000	0.669800	0.091300
F41	F4	0.001900	0.685000	0.139500
F51	F5	0.331200	0.826100	0.401000
F61	F6	0.322300	0.001000	0.354200
F71	F7	0.121300	0.204900	0.561600
F81	F8	0.205100	0.026600	0.501100
F91	F9	0.966900	0.797200	0.006400
F101	F10	0.793300	0.883700	0.939400
F111	F11	0.825000	0.330200	0.908700
F121	F12	0.998100	0.315000	0.860500
F131	F13	0.668800	0.173900	0.599000
F141	F14	0.677700	0.999000	0.645800
F151	F15	0.878700	0.795100	0.438400
F161	F16	0.794900	0.973400	0.498900
