data_MIHBAG_freeONLY_PM
_symmetry_space_group_name_H-M	'P1'
_cell_length_a	11.705600
_cell_length_b	12.321600
_cell_length_c	12.781200
_cell_angle_alpha	90.000000
_cell_angle_beta	98.154000
_cell_angle_gamma	90.000000
_symmetry_Int_Tables_number 1

loop_
_symmetry_equiv_pos_as_xyz
'x,y,z'

loop_
_atom_site_label
_atom_site_type_symbol
_atom_site_fract_x
_atom_site_fract_y
_atom_site_fract_z
Mn11	Mn1	0.359600	0.876200	0.335100
Mn21	Mn2	0.640400	0.376200	0.164900
Mn31	Mn3	0.640400	0.123800	0.664900
Mn41	Mn4	0.359600	0.623800	0.835100
Mn51	Mn5	0.500000	0.500000	0.500000
Mn61	Mn6	0.500000	0.000000	0.000000
H11	H1	0.407500	0.663600	0.276500
H21	H2	0.420400	0.792200	0.147200
H31	H3	0.560900	0.001500	0.368900
H41	H4	0.547300	0.874200	0.497700
H51	H5	0.278000	0.647800	0.459700
H61	H6	0.082900	0.654800	0.456300
H71	H7	0.093200	0.344300	0.543500
H81	H8	0.287700	0.348200	0.544100
H91	H9	0.592500	0.163600	0.223500
H101	H10	0.579600	0.292200	0.352800
H111	H11	0.439100	0.501500	0.131100
H121	H12	0.452700	0.374200	0.002300
H131	H13	0.722000	0.147800	0.040300
H141	H14	0.917100	0.154800	0.043700
H151	H15	0.906800	0.844300	0.956500
H161	H16	0.712300	0.848200	0.955900
H171	H17	0.592500	0.336400	0.723500
H181	H18	0.579600	0.207800	0.852800
H191	H19	0.439100	0.998500	0.631100
H201	H20	0.452700	0.125800	0.502300
H211	H21	0.722000	0.352200	0.540300
H221	H22	0.917100	0.345200	0.543700
H231	H23	0.906800	0.655700	0.456500
H241	H24	0.712300	0.651800	0.455900
H251	H25	0.407500	0.836400	0.776500
H261	H26	0.420400	0.707800	0.647200
H271	H27	0.560900	0.498500	0.868900
H281	H28	0.547300	0.625800	0.997700
H291	H29	0.278000	0.852200	0.959700
H301	H30	0.082900	0.845200	0.956300
H311	H31	0.093200	0.155700	0.043500
H321	H32	0.287700	0.151800	0.044100
C11	C1	0.493300	0.743900	0.402400
C21	C2	0.446000	0.728200	0.295500
C31	C3	0.454600	0.806800	0.216000
C41	C4	0.513500	0.907100	0.237400
C51	C5	0.538200	0.931400	0.348500
C61	C6	0.529300	0.854000	0.427100
C71	C7	0.300500	0.871100	0.456800
C81	C8	0.228000	0.824800	0.262500
C91	C9	0.315900	0.014700	0.309100
C101	C10	0.240200	0.585300	0.477100
C111	C11	0.122400	0.590700	0.474900
C121	C12	0.063900	0.499700	0.500600
C131	C13	0.128500	0.408100	0.526200
C141	C14	0.245900	0.411300	0.526100
C151	C15	0.506700	0.243900	0.097600
C161	C16	0.554000	0.228200	0.204500
C171	C17	0.545400	0.306800	0.284000
C181	C18	0.486500	0.407100	0.262600
C191	C19	0.461800	0.431400	0.151500
C201	C20	0.470700	0.354000	0.072900
C211	C21	0.699500	0.371100	0.043200
C221	C22	0.772000	0.324800	0.237500
C231	C23	0.684100	0.514700	0.190900
C241	C24	0.759800	0.085300	0.022900
C251	C25	0.877600	0.090700	0.025100
C261	C26	0.936100	0.999700	0.999400
C271	C27	0.871500	0.908100	0.973800
C281	C28	0.754100	0.911300	0.973900
C291	C29	0.506700	0.256100	0.597600
C301	C30	0.554000	0.271800	0.704500
C311	C31	0.545400	0.193200	0.784000
C321	C32	0.486500	0.092900	0.762600
C331	C33	0.461800	0.068600	0.651500
C341	C34	0.470700	0.146000	0.572900
C351	C35	0.699500	0.128900	0.543200
C361	C36	0.772000	0.175200	0.737500
C371	C37	0.684100	0.985300	0.690900
C381	C38	0.759800	0.414700	0.522900
C391	C39	0.877600	0.409300	0.525100
C401	C40	0.936100	0.500300	0.499400
C411	C41	0.871500	0.591900	0.473800
C421	C42	0.754100	0.588700	0.473900
C431	C43	0.493300	0.756100	0.902400
C441	C44	0.446000	0.771800	0.795500
C451	C45	0.454600	0.693200	0.716000
C461	C46	0.513500	0.592900	0.737400
C471	C47	0.538200	0.568600	0.848500
C481	C48	0.529300	0.646000	0.927100
C491	C49	0.300500	0.628900	0.956800
C501	C50	0.228000	0.675200	0.762500
C511	C51	0.315900	0.485300	0.809100
C521	C52	0.240200	0.914700	0.977100
C531	C53	0.122400	0.909300	0.974900
C541	C54	0.063900	0.000300	0.000600
C551	C55	0.128500	0.091900	0.026200
C561	C56	0.245900	0.088700	0.026100
N11	N1	0.303500	0.498100	0.502100
N21	N2	0.696500	0.998100	0.997900
N31	N3	0.696500	0.501900	0.497900
N41	N4	0.303500	0.001900	0.002100
O11	O1	0.495500	0.673100	0.475500
O21	O2	0.535600	0.975600	0.168400
O31	O3	0.267100	0.865800	0.536600
O41	O4	0.146900	0.789200	0.215600
O51	O5	0.289900	0.103000	0.293300
O61	O6	0.504500	0.173100	0.024500
O71	O7	0.464400	0.475600	0.331600
O81	O8	0.732900	0.365800	0.963400
O91	O9	0.853100	0.289200	0.284400
O101	O10	0.710100	0.603000	0.206700
O111	O11	0.504500	0.326900	0.524500
O121	O12	0.464400	0.024400	0.831600
O131	O13	0.732900	0.134200	0.463400
O141	O14	0.853100	0.210800	0.784400
O151	O15	0.710100	0.897000	0.706700
O161	O16	0.495500	0.826900	0.975500
O171	O17	0.535600	0.524400	0.668400
O181	O18	0.267100	0.634200	0.036600
O191	O19	0.146900	0.710800	0.715600
O201	O20	0.289900	0.397000	0.793300
