data_MIHLAR_freeONLY_PM
_symmetry_space_group_name_H-M	'P1'
_cell_length_a	9.854800
_cell_length_b	13.813800
_cell_length_c	33.792500
_cell_angle_alpha	90.000000
_cell_angle_beta	90.000000
_cell_angle_gamma	92.862700
_symmetry_Int_Tables_number 1

loop_
_symmetry_equiv_pos_as_xyz
'x,y,z'

loop_
_atom_site_label
_atom_site_type_symbol
_atom_site_fract_x
_atom_site_fract_y
_atom_site_fract_z
La11	La1	0.264080	0.020190	0.751050
La21	La2	0.235920	0.979810	0.251050
La31	La3	0.735920	0.979810	0.248950
La41	La4	0.764080	0.020190	0.748950
H11	H1	0.282400	0.228000	0.458500
H21	H2	0.392400	0.238300	0.524500
H31	H3	0.512400	0.523400	0.626200
H41	H4	0.515900	0.701300	0.620900
H51	H5	0.259300	0.947500	0.528700
H61	H6	0.093700	0.929800	0.474100
H71	H7	0.929900	0.636600	0.379500
H81	H8	0.981800	0.464500	0.374400
H91	H9	0.607400	0.314500	0.558000
H101	H10	0.681600	0.195500	0.601200
H111	H11	0.563100	0.159400	0.659300
H121	H12	0.295400	0.361500	0.632700
H131	H13	0.545600	0.901900	0.528700
H141	H14	0.698900	0.006000	0.562300
H151	H15	0.685100	0.022600	0.630800
H161	H16	0.346800	0.844300	0.631500
H171	H17	0.833300	0.834900	0.459600
H181	H18	0.706500	0.932300	0.418800
H191	H19	0.777800	0.969200	0.354400
H201	H20	0.101700	0.803900	0.370300
H211	H21	0.974800	0.257500	0.446200
H221	H22	0.904200	0.123200	0.407900
H231	H23	0.009900	0.096500	0.347300
H241	H24	0.246600	0.341600	0.362200
H251	H25	0.122900	0.814700	0.758300
H261	H26	0.028700	0.871400	0.729900
H271	H27	0.154400	0.226300	0.740800
H281	H28	0.057200	0.175400	0.772100
H291	H29	0.217600	0.772000	0.958500
H301	H30	0.107600	0.761700	0.024500
H311	H31	0.987600	0.476600	0.126200
H321	H32	0.984100	0.298700	0.120900
H331	H33	0.240700	0.052500	0.028700
H341	H34	0.406300	0.070200	0.974100
H351	H35	0.570100	0.363400	0.879500
H361	H36	0.518200	0.535500	0.874400
H371	H37	0.892600	0.685500	0.058000
H381	H38	0.818400	0.804500	0.101200
H391	H39	0.936900	0.840600	0.159300
H401	H40	0.204600	0.638500	0.132700
H411	H41	0.954400	0.098100	0.028700
H421	H42	0.801100	0.994000	0.062300
H431	H43	0.814900	0.977400	0.130800
H441	H44	0.153200	0.155700	0.131500
H451	H45	0.666700	0.165100	0.959600
H461	H46	0.793500	0.067700	0.918800
H471	H47	0.722200	0.030800	0.854400
H481	H48	0.398300	0.196100	0.870300
H491	H49	0.525200	0.742500	0.946200
H501	H50	0.595800	0.876800	0.907900
H511	H51	0.490100	0.903500	0.847300
H521	H52	0.253400	0.658400	0.862200
H531	H53	0.377100	0.185300	0.258300
H541	H54	0.471300	0.128600	0.229900
H551	H55	0.345600	0.773700	0.240800
H561	H56	0.442800	0.824600	0.272100
H571	H57	0.717600	0.772000	0.541500
H581	H58	0.607600	0.761700	0.475500
H591	H59	0.487600	0.476600	0.373800
H601	H60	0.484100	0.298700	0.379100
H611	H61	0.740700	0.052500	0.471300
H621	H62	0.906300	0.070200	0.525900
H631	H63	0.070100	0.363400	0.620500
H641	H64	0.018200	0.535500	0.625600
H651	H65	0.392600	0.685500	0.442000
H661	H66	0.318400	0.804500	0.398800
H671	H67	0.436900	0.840600	0.340700
H681	H68	0.704600	0.638500	0.367300
H691	H69	0.454400	0.098100	0.471300
H701	H70	0.301100	0.994000	0.437700
H711	H71	0.314900	0.977400	0.369200
H721	H72	0.653200	0.155700	0.368500
H731	H73	0.166700	0.165100	0.540400
H741	H74	0.293500	0.067700	0.581200
H751	H75	0.222200	0.030800	0.645600
H761	H76	0.898300	0.196100	0.629700
H771	H77	0.025200	0.742500	0.553800
H781	H78	0.095800	0.876800	0.592100
H791	H79	0.990100	0.903500	0.652700
H801	H80	0.753400	0.658400	0.637800
H811	H81	0.877100	0.185300	0.241700
H821	H82	0.971300	0.128600	0.270100
H831	H83	0.845600	0.773700	0.259200
H841	H84	0.942800	0.824600	0.227900
H851	H85	0.782400	0.228000	0.041500
H861	H86	0.892400	0.238300	0.975500
H871	H87	0.012400	0.523400	0.873800
H881	H88	0.015900	0.701300	0.879100
H891	H89	0.759300	0.947500	0.971300
H901	H90	0.593700	0.929800	0.025900
H911	H91	0.429900	0.636600	0.120500
H921	H92	0.481800	0.464500	0.125600
H931	H93	0.107400	0.314500	0.942000
H941	H94	0.181600	0.195500	0.898800
H951	H95	0.063100	0.159400	0.840700
H961	H96	0.795400	0.361500	0.867300
H971	H97	0.045600	0.901900	0.971300
H981	H98	0.198900	0.006000	0.937700
H991	H99	0.185100	0.022600	0.869200
H1001	H100	0.846800	0.844300	0.868500
H1011	H101	0.333300	0.834900	0.040400
H1021	H102	0.206500	0.932300	0.081200
H1031	H103	0.277800	0.969200	0.145600
H1041	H104	0.601700	0.803900	0.129700
H1051	H105	0.474800	0.257500	0.053800
H1061	H106	0.404200	0.123200	0.092100
H1071	H107	0.509900	0.096500	0.152700
H1081	H108	0.746600	0.341600	0.137800
H1091	H109	0.622900	0.814700	0.741700
H1101	H110	0.528700	0.871400	0.770100
H1111	H111	0.654400	0.226300	0.759200
H1121	H112	0.557200	0.175400	0.727900
C11	C1	0.237400	0.377500	0.467700
C21	C2	0.289500	0.283100	0.475320
C31	C3	0.349900	0.289100	0.511010
C41	C4	0.337800	0.387200	0.525050
C51	C5	0.387500	0.421100	0.561570
C61	C6	0.395900	0.518800	0.573420
C71	C7	0.470000	0.559100	0.606030
C81	C8	0.470300	0.656500	0.603490
C91	C9	0.388800	0.680900	0.569690
C101	C10	0.362200	0.774100	0.556570
C111	C11	0.275500	0.794300	0.525080
C121	C12	0.230800	0.888700	0.515860
C131	C13	0.141700	0.879400	0.486010
C141	C14	0.132700	0.778500	0.475500
C151	C15	0.058100	0.739900	0.443550
C161	C16	0.058300	0.643400	0.430590
C171	C17	0.987000	0.602800	0.396800
C181	C18	0.015400	0.508800	0.394050
C191	C19	0.106000	0.486900	0.426150
C201	C20	0.157500	0.397400	0.434580
C211	C21	0.440700	0.349800	0.590380
C221	C22	0.558100	0.300000	0.581620
C231	C23	0.602700	0.229200	0.607430
C241	C24	0.532300	0.208000	0.642000
C251	C25	0.418100	0.256400	0.651630
C261	C26	0.373500	0.327500	0.625900
C271	C27	0.334900	0.229200	0.688590
C281	C28	0.438200	0.855300	0.577460
C291	C29	0.539000	0.908700	0.556610
C301	C30	0.629100	0.971200	0.576500
C311	C31	0.618500	0.983500	0.617070
C321	C32	0.511400	0.939100	0.637470
C331	C33	0.420900	0.874900	0.617540
C341	C34	0.493700	0.959200	0.680860
C351	C35	0.979700	0.807800	0.419030
C361	C36	0.862500	0.847800	0.433240
C371	C37	0.787600	0.906700	0.408980
C381	C38	0.829200	0.928700	0.370760
C391	C39	0.947000	0.890500	0.356790
C401	C40	0.021500	0.830200	0.380490
C411	C41	0.000400	0.914900	0.316090
C421	C42	0.116100	0.313300	0.408020
C431	C43	0.016100	0.247600	0.421210
C441	C44	0.974500	0.167100	0.398700
C451	C45	0.037100	0.151800	0.362540
C461	C46	0.138000	0.215300	0.348410
C471	C47	0.177400	0.297100	0.371550
C481	C48	0.205500	0.196300	0.309820
C491	C49	0.262600	0.622500	0.967700
C501	C50	0.210500	0.716900	0.975320
C511	C51	0.150100	0.710900	0.011010
C521	C52	0.162200	0.612800	0.025050
C531	C53	0.112500	0.578900	0.061570
C541	C54	0.104100	0.481200	0.073420
C551	C55	0.030000	0.440900	0.106030
C561	C56	0.029700	0.343500	0.103490
C571	C57	0.111200	0.319100	0.069690
C581	C58	0.137800	0.225900	0.056570
C591	C59	0.224500	0.205700	0.025080
C601	C60	0.269200	0.111300	0.015860
C611	C61	0.358300	0.120600	0.986010
C621	C62	0.367300	0.221500	0.975500
C631	C63	0.441900	0.260100	0.943550
C641	C64	0.441700	0.356600	0.930590
C651	C65	0.513000	0.397200	0.896800
C661	C66	0.484600	0.491200	0.894050
C671	C67	0.394000	0.513100	0.926150
C681	C68	0.342500	0.602600	0.934580
C691	C69	0.059300	0.650200	0.090380
C701	C70	0.941900	0.700000	0.081620
C711	C71	0.897300	0.770800	0.107430
C721	C72	0.967700	0.792000	0.142000
C731	C73	0.081900	0.743600	0.151630
C741	C74	0.126500	0.672500	0.125900
C751	C75	0.165100	0.770800	0.188590
C761	C76	0.061800	0.144700	0.077460
C771	C77	0.961000	0.091300	0.056610
C781	C78	0.870900	0.028800	0.076500
C791	C79	0.881500	0.016500	0.117070
C801	C80	0.988600	0.060900	0.137470
C811	C81	0.079100	0.125100	0.117540
C821	C82	0.006300	0.040800	0.180860
C831	C83	0.520300	0.192200	0.919030
C841	C84	0.637500	0.152200	0.933240
C851	C85	0.712400	0.093300	0.908980
C861	C86	0.670800	0.071300	0.870760
C871	C87	0.553000	0.109500	0.856790
C881	C88	0.478500	0.169800	0.880490
C891	C89	0.499600	0.085100	0.816090
C901	C90	0.383900	0.686700	0.908020
C911	C91	0.483900	0.752400	0.921210
C921	C92	0.525500	0.832900	0.898700
C931	C93	0.462900	0.848200	0.862540
C941	C94	0.362000	0.784700	0.848410
C951	C95	0.322600	0.702900	0.871550
C961	C96	0.294500	0.803700	0.809820
C971	C97	0.762600	0.622500	0.532300
C981	C98	0.710500	0.716900	0.524680
C991	C99	0.650100	0.710900	0.488990
C1001	C100	0.662200	0.612800	0.474950
C1011	C101	0.612500	0.578900	0.438430
C1021	C102	0.604100	0.481200	0.426580
C1031	C103	0.530000	0.440900	0.393970
C1041	C104	0.529700	0.343500	0.396510
C1051	C105	0.611200	0.319100	0.430310
C1061	C106	0.637800	0.225900	0.443430
C1071	C107	0.724500	0.205700	0.474920
C1081	C108	0.769200	0.111300	0.484140
C1091	C109	0.858300	0.120600	0.513990
C1101	C110	0.867300	0.221500	0.524500
C1111	C111	0.941900	0.260100	0.556450
C1121	C112	0.941700	0.356600	0.569410
C1131	C113	0.013000	0.397200	0.603200
C1141	C114	0.984600	0.491200	0.605950
C1151	C115	0.894000	0.513100	0.573850
C1161	C116	0.842500	0.602600	0.565420
C1171	C117	0.559300	0.650200	0.409620
C1181	C118	0.441900	0.700000	0.418380
C1191	C119	0.397300	0.770800	0.392570
C1201	C120	0.467700	0.792000	0.358000
C1211	C121	0.581900	0.743600	0.348370
C1221	C122	0.626500	0.672500	0.374100
C1231	C123	0.665100	0.770800	0.311410
C1241	C124	0.561800	0.144700	0.422540
C1251	C125	0.461000	0.091300	0.443390
C1261	C126	0.370900	0.028800	0.423500
C1271	C127	0.381500	0.016500	0.382930
C1281	C128	0.488600	0.060900	0.362530
C1291	C129	0.579100	0.125100	0.382460
C1301	C130	0.506300	0.040800	0.319140
C1311	C131	0.020300	0.192200	0.580970
C1321	C132	0.137500	0.152200	0.566760
C1331	C133	0.212400	0.093300	0.591020
C1341	C134	0.170800	0.071300	0.629240
C1351	C135	0.053000	0.109500	0.643210
C1361	C136	0.978500	0.169800	0.619510
C1371	C137	0.999600	0.085100	0.683910
C1381	C138	0.883900	0.686700	0.591980
C1391	C139	0.983900	0.752400	0.578790
C1401	C140	0.025500	0.832900	0.601300
C1411	C141	0.962900	0.848200	0.637460
C1421	C142	0.862000	0.784700	0.651590
C1431	C143	0.822600	0.702900	0.628450
C1441	C144	0.794500	0.803700	0.690180
C1451	C145	0.737400	0.377500	0.032300
C1461	C146	0.789500	0.283100	0.024680
C1471	C147	0.849900	0.289100	0.988990
C1481	C148	0.837800	0.387200	0.974950
C1491	C149	0.887500	0.421100	0.938430
C1501	C150	0.895900	0.518800	0.926580
C1511	C151	0.970000	0.559100	0.893970
C1521	C152	0.970300	0.656500	0.896510
C1531	C153	0.888800	0.680900	0.930310
C1541	C154	0.862200	0.774100	0.943430
C1551	C155	0.775500	0.794300	0.974920
C1561	C156	0.730800	0.888700	0.984140
C1571	C157	0.641700	0.879400	0.013990
C1581	C158	0.632700	0.778500	0.024500
C1591	C159	0.558100	0.739900	0.056450
C1601	C160	0.558300	0.643400	0.069410
C1611	C161	0.487000	0.602800	0.103200
C1621	C162	0.515400	0.508800	0.105950
C1631	C163	0.606000	0.486900	0.073850
C1641	C164	0.657500	0.397400	0.065420
C1651	C165	0.940700	0.349800	0.909620
C1661	C166	0.058100	0.300000	0.918380
C1671	C167	0.102700	0.229200	0.892570
C1681	C168	0.032300	0.208000	0.858000
C1691	C169	0.918100	0.256400	0.848370
C1701	C170	0.873500	0.327500	0.874100
C1711	C171	0.834900	0.229200	0.811410
C1721	C172	0.938200	0.855300	0.922540
C1731	C173	0.039000	0.908700	0.943390
C1741	C174	0.129100	0.971200	0.923500
C1751	C175	0.118500	0.983500	0.882930
C1761	C176	0.011400	0.939100	0.862530
C1771	C177	0.920900	0.874900	0.882460
C1781	C178	0.993700	0.959200	0.819140
C1791	C179	0.479700	0.807800	0.080970
C1801	C180	0.362500	0.847800	0.066760
C1811	C181	0.287600	0.906700	0.091020
C1821	C182	0.329200	0.928700	0.129240
C1831	C183	0.447000	0.890500	0.143210
C1841	C184	0.521500	0.830200	0.119510
C1851	C185	0.500400	0.914900	0.183910
C1861	C186	0.616100	0.313300	0.091980
C1871	C187	0.516100	0.247600	0.078790
C1881	C188	0.474500	0.167100	0.101300
C1891	C189	0.537100	0.151800	0.137460
C1901	C190	0.638000	0.215300	0.151590
C1911	C191	0.677400	0.297100	0.128450
C1921	C192	0.705500	0.196300	0.190180
N11	N1	0.271500	0.440400	0.497790
N21	N2	0.343600	0.594900	0.552300
N31	N3	0.214500	0.727100	0.500330
N41	N4	0.128800	0.570000	0.447750
N51	N5	0.228500	0.559600	0.997790
N61	N6	0.156400	0.405100	0.052300
N71	N7	0.285500	0.272900	0.000330
N81	N8	0.371200	0.430000	0.947750
N91	N9	0.728500	0.559600	0.502210
N101	N10	0.656400	0.405100	0.447700
N111	N11	0.785500	0.272900	0.499670
N121	N12	0.871200	0.430000	0.552250
N131	N13	0.771500	0.440400	0.002210
N141	N14	0.843600	0.594900	0.947700
N151	N15	0.714500	0.727100	0.999670
N161	N16	0.628800	0.570000	0.052250
O11	O1	0.235000	0.277400	0.696800
O21	O2	0.374400	0.157900	0.708880
O31	O3	0.380200	0.934600	0.696570
O41	O4	0.592000	0.001500	0.698640
O51	O5	0.925200	0.961300	0.293080
O61	O6	0.116600	0.890300	0.306620
O71	O7	0.153800	0.123500	0.289370
O81	O8	0.307200	0.246400	0.299280
O91	O9	0.121100	0.857000	0.735700
O101	O10	0.150600	0.187800	0.764490
O111	O11	0.265000	0.722600	0.196800
O121	O12	0.125600	0.842100	0.208880
O131	O13	0.119800	0.065400	0.196570
O141	O14	0.908000	0.998500	0.198640
O151	O15	0.574800	0.038700	0.793080
O161	O16	0.383400	0.109700	0.806620
O171	O17	0.346200	0.876500	0.789370
O181	O18	0.192800	0.753600	0.799280
O191	O19	0.378900	0.143000	0.235700
O201	O20	0.349400	0.812200	0.264490
O211	O21	0.765000	0.722600	0.303200
O221	O22	0.625600	0.842100	0.291120
O231	O23	0.619800	0.065400	0.303430
O241	O24	0.408000	0.998500	0.301360
O251	O25	0.074800	0.038700	0.706920
O261	O26	0.883400	0.109700	0.693380
O271	O27	0.846200	0.876500	0.710630
O281	O28	0.692800	0.753600	0.700720
O291	O29	0.878900	0.143000	0.264300
O301	O30	0.849400	0.812200	0.235510
O311	O31	0.735000	0.277400	0.803200
O321	O32	0.874400	0.157900	0.791120
O331	O33	0.880200	0.934600	0.803430
O341	O34	0.092000	0.001500	0.801360
O351	O35	0.425200	0.961300	0.206920
O361	O36	0.616600	0.890300	0.193380
O371	O37	0.653800	0.123500	0.210630
O381	O38	0.807200	0.246400	0.200720
O391	O39	0.621100	0.857000	0.764300
O401	O40	0.650600	0.187800	0.735510
