data_MIHMEW_freeONLY_PM
_symmetry_space_group_name_H-M	'P1'
_cell_length_a	16.206800
_cell_length_b	16.206800
_cell_length_c	31.377300
_cell_angle_alpha	99.483900
_cell_angle_beta	99.483900
_cell_angle_gamma	96.257200
_symmetry_Int_Tables_number 1

loop_
_symmetry_equiv_pos_as_xyz
'x,y,z'

loop_
_atom_site_label
_atom_site_type_symbol
_atom_site_fract_x
_atom_site_fract_y
_atom_site_fract_z
Nd11	Nd1	0.812930	0.356590	0.799120
Nd21	Nd2	0.978300	0.359360	0.913000
Nd31	Nd3	0.643410	0.187070	0.700880
Nd41	Nd4	0.640640	0.021700	0.587000
Nd51	Nd5	0.187070	0.643410	0.200880
Nd61	Nd6	0.021700	0.640640	0.087000
Nd71	Nd7	0.356590	0.812930	0.299120
Nd81	Nd8	0.359360	0.978300	0.413000
H11	H1	0.981600	0.715400	0.664000
H21	H2	0.036300	0.624300	0.713400
H31	H3	0.201500	0.356700	0.693000
H41	H4	0.294000	0.309200	0.642800
H51	H5	0.367400	0.397400	0.495700
H61	H6	0.298300	0.477900	0.442600
H71	H7	0.035900	0.653900	0.437000
H81	H8	0.947100	0.697100	0.488800
H91	H9	0.174200	0.580200	0.759200
H101	H10	0.139300	0.543900	0.824000
H111	H11	0.994000	0.331400	0.756200
H121	H12	0.031300	0.364100	0.690800
H131	H13	0.449300	0.417700	0.608600
H141	H14	0.544100	0.321100	0.624100
H151	H15	0.380400	0.136600	0.541400
H161	H16	0.287500	0.235500	0.528200
H171	H17	0.275700	0.673700	0.446500
H181	H18	0.289000	0.700800	0.377900
H191	H19	0.095600	0.523200	0.320900
H201	H20	0.080900	0.490100	0.388000
H211	H21	0.009900	0.825700	0.557900
H221	H22	0.915200	0.924200	0.563900
H231	H23	0.752000	0.753200	0.600300
H241	H24	0.846800	0.654600	0.594400
H251	H25	0.809000	0.005000	0.564500
H261	H26	0.026300	0.937700	0.831200
H271	H27	0.089900	0.852100	0.882800
H281	H28	0.315200	0.641200	0.885800
H291	H29	0.400100	0.584700	0.835300
H301	H30	0.103300	0.078900	0.789000
H311	H31	0.006100	0.177500	0.789500
H321	H32	0.280700	0.807300	0.938900
H331	H33	0.230300	0.784700	0.003200
H341	H34	0.035300	0.619100	0.930700
H351	H35	0.077500	0.648500	0.867700
H361	H36	0.521200	0.638000	0.796300
H371	H37	0.619900	0.542700	0.797600
H381	H38	0.895600	0.540600	0.766900
H391	H39	0.932000	0.668200	0.751200
H401	H40	0.900200	0.746600	0.778900
H411	H41	0.993300	0.724500	0.793700
H421	H42	0.942900	0.693500	0.871200
H431	H43	0.874400	0.743000	0.847300
H441	H44	0.845300	0.653700	0.859500
H451	H45	0.899800	0.198200	0.846600
H461	H46	0.827200	0.221400	0.874800
H471	H47	0.284600	0.018400	0.836000
H481	H48	0.375700	0.963700	0.786600
H491	H49	0.643300	0.798500	0.807000
H501	H50	0.690800	0.706000	0.857200
H511	H51	0.602600	0.632600	0.004300
H521	H52	0.522100	0.701700	0.057400
H531	H53	0.346100	0.964100	0.063000
H541	H54	0.302900	0.052900	0.011200
H551	H55	0.419800	0.825800	0.740800
H561	H56	0.456100	0.860700	0.676000
H571	H57	0.668600	0.006000	0.743800
H581	H58	0.635900	0.968700	0.809200
H591	H59	0.582300	0.550700	0.891400
H601	H60	0.678900	0.455900	0.875900
H611	H61	0.863400	0.619600	0.958600
H621	H62	0.764500	0.712500	0.971800
H631	H63	0.326300	0.724300	0.053500
H641	H64	0.299200	0.711000	0.122100
H651	H65	0.476800	0.904400	0.179100
H661	H66	0.509900	0.919100	0.112000
H671	H67	0.174300	0.990100	0.942100
H681	H68	0.075800	0.084800	0.936100
H691	H69	0.246800	0.248000	0.899700
H701	H70	0.345400	0.153200	0.905600
H711	H71	0.995000	0.191000	0.935500
H721	H72	0.062300	0.973700	0.668800
H731	H73	0.147900	0.910100	0.617200
H741	H74	0.358800	0.684800	0.614200
H751	H75	0.415300	0.599900	0.664700
H761	H76	0.921100	0.896700	0.711000
H771	H77	0.822500	0.993900	0.710500
H781	H78	0.192700	0.719300	0.561100
H791	H79	0.215300	0.769700	0.496800
H801	H80	0.380900	0.964700	0.569300
H811	H81	0.351500	0.922500	0.632300
H821	H82	0.362000	0.478800	0.703700
H831	H83	0.457300	0.380100	0.702400
H841	H84	0.459400	0.104400	0.733100
H851	H85	0.331800	0.068000	0.748800
H861	H86	0.253400	0.099800	0.721100
H871	H87	0.275500	0.006700	0.706300
H881	H88	0.306500	0.057100	0.628800
H891	H89	0.257000	0.125600	0.652700
H901	H90	0.346300	0.154700	0.640500
H911	H91	0.801800	0.100200	0.653400
H921	H92	0.778600	0.172800	0.625200
H931	H93	0.018400	0.284600	0.336000
H941	H94	0.963700	0.375700	0.286600
H951	H95	0.798500	0.643300	0.307000
H961	H96	0.706000	0.690800	0.357200
H971	H97	0.632600	0.602600	0.504300
H981	H98	0.701700	0.522100	0.557400
H991	H99	0.964100	0.346100	0.563000
H1001	H100	0.052900	0.302900	0.511200
H1011	H101	0.825800	0.419800	0.240800
H1021	H102	0.860700	0.456100	0.176000
H1031	H103	0.006000	0.668600	0.243800
H1041	H104	0.968700	0.635900	0.309200
H1051	H105	0.550700	0.582300	0.391400
H1061	H106	0.455900	0.678900	0.375900
H1071	H107	0.619600	0.863400	0.458600
H1081	H108	0.712500	0.764500	0.471800
H1091	H109	0.724300	0.326300	0.553500
H1101	H110	0.711000	0.299200	0.622100
H1111	H111	0.904400	0.476800	0.679100
H1121	H112	0.919100	0.509900	0.612000
H1131	H113	0.990100	0.174300	0.442100
H1141	H114	0.084800	0.075800	0.436100
H1151	H115	0.248000	0.246800	0.399700
H1161	H116	0.153200	0.345400	0.405600
H1171	H117	0.191000	0.995000	0.435500
H1181	H118	0.973700	0.062300	0.168800
H1191	H119	0.910100	0.147900	0.117200
H1201	H120	0.684800	0.358800	0.114200
H1211	H121	0.599900	0.415300	0.164700
H1221	H122	0.896700	0.921100	0.211000
H1231	H123	0.993900	0.822500	0.210500
H1241	H124	0.719300	0.192700	0.061100
H1251	H125	0.769700	0.215300	0.996800
H1261	H126	0.964700	0.380900	0.069300
H1271	H127	0.922500	0.351500	0.132300
H1281	H128	0.478800	0.362000	0.203700
H1291	H129	0.380100	0.457300	0.202400
H1301	H130	0.104400	0.459400	0.233100
H1311	H131	0.068000	0.331800	0.248800
H1321	H132	0.099800	0.253400	0.221100
H1331	H133	0.006700	0.275500	0.206300
H1341	H134	0.057100	0.306500	0.128800
H1351	H135	0.125600	0.257000	0.152700
H1361	H136	0.154700	0.346300	0.140500
H1371	H137	0.100200	0.801800	0.153400
H1381	H138	0.172800	0.778600	0.125200
H1391	H139	0.715400	0.981600	0.164000
H1401	H140	0.624300	0.036300	0.213400
H1411	H141	0.356700	0.201500	0.193000
H1421	H142	0.309200	0.294000	0.142800
H1431	H143	0.397400	0.367400	0.995700
H1441	H144	0.477900	0.298300	0.942600
H1451	H145	0.653900	0.035900	0.937000
H1461	H146	0.697100	0.947100	0.988800
H1471	H147	0.580200	0.174200	0.259200
H1481	H148	0.543900	0.139300	0.324000
H1491	H149	0.331400	0.994000	0.256200
H1501	H150	0.364100	0.031300	0.190800
H1511	H151	0.417700	0.449300	0.108600
H1521	H152	0.321100	0.544100	0.124100
H1531	H153	0.136600	0.380400	0.041400
H1541	H154	0.235500	0.287500	0.028200
H1551	H155	0.673700	0.275700	0.946500
H1561	H156	0.700800	0.289000	0.877900
H1571	H157	0.523200	0.095600	0.820900
H1581	H158	0.490100	0.080900	0.888000
H1591	H159	0.825700	0.009900	0.057900
H1601	H160	0.924200	0.915200	0.063900
H1611	H161	0.753200	0.752000	0.100300
H1621	H162	0.654600	0.846800	0.094400
H1631	H163	0.005000	0.809000	0.064500
H1641	H164	0.937700	0.026300	0.331200
H1651	H165	0.852100	0.089900	0.382800
H1661	H166	0.641200	0.315200	0.385800
H1671	H167	0.584700	0.400100	0.335300
H1681	H168	0.078900	0.103300	0.289000
H1691	H169	0.177500	0.006100	0.289500
H1701	H170	0.807300	0.280700	0.438900
H1711	H171	0.784700	0.230300	0.503200
H1721	H172	0.619100	0.035300	0.430700
H1731	H173	0.648500	0.077500	0.367700
H1741	H174	0.638000	0.521200	0.296300
H1751	H175	0.542700	0.619900	0.297600
H1761	H176	0.540600	0.895600	0.266900
H1771	H177	0.668200	0.932000	0.251200
H1781	H178	0.746600	0.900200	0.278900
H1791	H179	0.724500	0.993300	0.293700
H1801	H180	0.693500	0.942900	0.371200
H1811	H181	0.743000	0.874400	0.347300
H1821	H182	0.653700	0.845300	0.359500
H1831	H183	0.198200	0.899800	0.346600
H1841	H184	0.221400	0.827200	0.374800
Pt11	Pt1	0.143960	0.528320	0.572050
Pt21	Pt2	0.471680	0.856040	0.927950
Pt31	Pt3	0.856040	0.471680	0.427950
Pt41	Pt4	0.528320	0.143960	0.072050
Pt51	Pt5	0.227250	0.772750	0.750000
Pt61	Pt6	0.772750	0.227250	0.250000
C11	C1	0.030800	0.642200	0.614300
C21	C2	0.011600	0.669600	0.656400
C31	C3	0.042400	0.621000	0.683600
C41	C4	0.086300	0.562700	0.659700
C51	C5	0.120300	0.497100	0.675400
C61	C6	0.168800	0.444200	0.653200
C71	C7	0.208600	0.378600	0.667300
C81	C8	0.258200	0.351200	0.639700
C91	C9	0.247300	0.397100	0.604700
C101	C10	0.290600	0.390200	0.570000
C111	C11	0.276200	0.434000	0.534400
C121	C12	0.320900	0.427500	0.498800
C131	C13	0.284000	0.472400	0.470200
C141	C14	0.219700	0.509900	0.489000
C151	C15	0.164900	0.559300	0.468200
C161	C16	0.101500	0.593500	0.486500
C171	C17	0.040500	0.642300	0.466000
C181	C18	0.993900	0.667300	0.494300
C191	C19	0.024300	0.642700	0.535000
C201	C20	0.000500	0.670700	0.575400
C211	C21	0.103500	0.476500	0.718900
C221	C22	0.137200	0.530000	0.758200
C231	C23	0.115200	0.508400	0.796500
C241	C24	0.060400	0.438200	0.795700
C251	C25	0.029600	0.382400	0.756800
C261	C26	0.051800	0.402000	0.717900
C271	C27	0.031300	0.422900	0.837300
C281	C28	0.355400	0.331800	0.572000
C291	C29	0.433300	0.359300	0.596700
C301	C30	0.491200	0.302000	0.604900
C311	C31	0.470600	0.219400	0.585300
C321	C32	0.394600	0.193600	0.556400
C331	C33	0.338200	0.252400	0.549300
C341	C34	0.527700	0.157300	0.595100
C351	C35	0.176300	0.576300	0.424200
C361	C36	0.239000	0.641800	0.420900
C371	C37	0.245800	0.658200	0.380200
C381	C38	0.193200	0.616200	0.342800
C391	C39	0.132700	0.553700	0.346700
C401	C40	0.123800	0.533800	0.386500
C411	C41	0.198200	0.638200	0.299100
C421	C42	0.937300	0.730900	0.575600
C431	C43	0.957600	0.811000	0.566530
C441	C44	0.901300	0.869500	0.570050
C451	C45	0.824700	0.847900	0.582650
C461	C46	0.804340	0.767940	0.591730
C471	C47	0.860700	0.709300	0.588200
C481	C48	0.761900	0.909300	0.589290
C491	C49	0.102160	0.880840	0.786820
C501	C50	0.066060	0.899940	0.826180
C511	C51	0.101000	0.852800	0.854100
C521	C52	0.156300	0.805300	0.834200
C531	C53	0.203600	0.749000	0.853500
C541	C54	0.264000	0.707000	0.836400
C551	C55	0.314900	0.652700	0.857100
C561	C56	0.360100	0.622100	0.829700
C571	C57	0.340000	0.654600	0.787700
C581	C58	0.047100	0.061700	0.773300
C591	C59	0.989300	0.121100	0.773700
C601	C60	0.182000	0.732200	0.896500
C611	C61	0.229600	0.771000	0.936900
C621	C62	0.200200	0.755400	0.975300
C631	C63	0.129400	0.699000	0.973300
C641	C64	0.084200	0.658600	0.932700
C651	C65	0.110000	0.676000	0.895500
C661	C66	0.101300	0.677900	0.015900
C671	C67	0.508100	0.584700	0.777000
C681	C68	0.567200	0.528000	0.777800
C691	C69	0.885900	0.563700	0.795200
C701	C70	0.934500	0.700700	0.780800
C711	C71	0.890300	0.687100	0.849800
C721	C72	0.357800	0.969200	0.885700
C731	C73	0.330400	0.988400	0.843600
C741	C74	0.379000	0.957600	0.816400
C751	C75	0.437300	0.913700	0.840300
C761	C76	0.502900	0.879700	0.824600
C771	C77	0.555800	0.831200	0.846800
C781	C78	0.621400	0.791400	0.832700
C791	C79	0.648800	0.741800	0.860300
C801	C80	0.602900	0.752700	0.895300
C811	C81	0.609800	0.709400	0.930000
C821	C82	0.566000	0.723800	0.965600
C831	C83	0.572500	0.679100	0.001200
C841	C84	0.527600	0.716000	0.029800
C851	C85	0.490100	0.780300	0.011000
C861	C86	0.440700	0.835100	0.031800
C871	C87	0.406500	0.898500	0.013500
C881	C88	0.357700	0.959500	0.034000
C891	C89	0.332700	0.006100	0.005700
C901	C90	0.357300	0.975700	0.965000
C911	C91	0.329300	0.999500	0.924600
C921	C92	0.523500	0.896500	0.781100
C931	C93	0.470000	0.862800	0.741800
C941	C94	0.491600	0.884800	0.703500
C951	C95	0.561800	0.939600	0.704300
C961	C96	0.617600	0.970400	0.743200
C971	C97	0.598000	0.948200	0.782100
C981	C98	0.577100	0.968700	0.662700
C991	C99	0.668200	0.644600	0.928000
C1001	C100	0.640700	0.566700	0.903300
C1011	C101	0.698000	0.508800	0.895100
C1021	C102	0.780600	0.529400	0.914700
C1031	C103	0.806400	0.605400	0.943600
C1041	C104	0.747600	0.661800	0.950700
C1051	C105	0.842700	0.472300	0.904900
C1061	C106	0.423700	0.823700	0.075800
C1071	C107	0.358200	0.761000	0.079100
C1081	C108	0.341800	0.754200	0.119800
C1091	C109	0.383800	0.806800	0.157200
C1101	C110	0.446300	0.867300	0.153300
C1111	C111	0.466200	0.876200	0.113500
C1121	C112	0.361800	0.801800	0.200900
C1131	C113	0.269100	0.062700	0.924400
C1141	C114	0.189000	0.042400	0.933470
C1151	C115	0.130500	0.098700	0.929950
C1161	C116	0.152100	0.175300	0.917350
C1171	C117	0.232060	0.195660	0.908270
C1181	C118	0.290700	0.139300	0.911800
C1191	C119	0.090700	0.238100	0.910710
C1201	C120	0.119160	0.897840	0.713180
C1211	C121	0.100060	0.933940	0.673820
C1221	C122	0.147200	0.899000	0.645900
C1231	C123	0.194700	0.843700	0.665800
C1241	C124	0.251000	0.796400	0.646500
C1251	C125	0.293000	0.736000	0.663600
C1261	C126	0.347300	0.685100	0.642900
C1271	C127	0.377900	0.639900	0.670300
C1281	C128	0.345400	0.660000	0.712300
C1291	C129	0.938300	0.952900	0.726700
C1301	C130	0.878900	0.010700	0.726300
C1311	C131	0.267800	0.818000	0.603500
C1321	C132	0.229000	0.770400	0.563100
C1331	C133	0.244600	0.799800	0.524700
C1341	C134	0.301000	0.870600	0.526700
C1351	C135	0.341400	0.915800	0.567300
C1361	C136	0.324000	0.890000	0.604500
C1371	C137	0.322100	0.898700	0.484100
C1381	C138	0.415300	0.491900	0.723000
C1391	C139	0.472000	0.432800	0.722200
C1401	C140	0.436300	0.114100	0.704800
C1411	C141	0.299300	0.065500	0.719200
C1421	C142	0.312900	0.109700	0.650200
C1431	C143	0.969200	0.357800	0.385700
C1441	C144	0.988400	0.330400	0.343600
C1451	C145	0.957600	0.379000	0.316400
C1461	C146	0.913700	0.437300	0.340300
C1471	C147	0.879700	0.502900	0.324600
C1481	C148	0.831200	0.555800	0.346800
C1491	C149	0.791400	0.621400	0.332700
C1501	C150	0.741800	0.648800	0.360300
C1511	C151	0.752700	0.602900	0.395300
C1521	C152	0.709400	0.609800	0.430000
C1531	C153	0.723800	0.566000	0.465600
C1541	C154	0.679100	0.572500	0.501200
C1551	C155	0.716000	0.527600	0.529800
C1561	C156	0.780300	0.490100	0.511000
C1571	C157	0.835100	0.440700	0.531800
C1581	C158	0.898500	0.406500	0.513500
C1591	C159	0.959500	0.357700	0.534000
C1601	C160	0.006100	0.332700	0.505700
C1611	C161	0.975700	0.357300	0.465000
C1621	C162	0.999500	0.329300	0.424600
C1631	C163	0.896500	0.523500	0.281100
C1641	C164	0.862800	0.470000	0.241800
C1651	C165	0.884800	0.491600	0.203500
C1661	C166	0.939600	0.561800	0.204300
C1671	C167	0.970400	0.617600	0.243200
C1681	C168	0.948200	0.598000	0.282100
C1691	C169	0.968700	0.577100	0.162700
C1701	C170	0.644600	0.668200	0.428000
C1711	C171	0.566700	0.640700	0.403300
C1721	C172	0.508800	0.698000	0.395100
C1731	C173	0.529400	0.780600	0.414700
C1741	C174	0.605400	0.806400	0.443600
C1751	C175	0.661800	0.747600	0.450700
C1761	C176	0.472300	0.842700	0.404900
C1771	C177	0.823700	0.423700	0.575800
C1781	C178	0.761000	0.358200	0.579100
C1791	C179	0.754200	0.341800	0.619800
C1801	C180	0.806800	0.383800	0.657200
C1811	C181	0.867300	0.446300	0.653300
C1821	C182	0.876200	0.466200	0.613500
C1831	C183	0.801800	0.361800	0.700900
C1841	C184	0.062700	0.269100	0.424400
C1851	C185	0.042400	0.189000	0.433470
C1861	C186	0.098700	0.130500	0.429950
C1871	C187	0.175300	0.152100	0.417350
C1881	C188	0.195660	0.232060	0.408270
C1891	C189	0.139300	0.290700	0.411800
C1901	C190	0.238100	0.090700	0.410710
C1911	C191	0.897840	0.119160	0.213180
C1921	C192	0.933940	0.100060	0.173820
C1931	C193	0.899000	0.147200	0.145900
C1941	C194	0.843700	0.194700	0.165800
C1951	C195	0.796400	0.251000	0.146500
C1961	C196	0.736000	0.293000	0.163600
C1971	C197	0.685100	0.347300	0.142900
C1981	C198	0.639900	0.377900	0.170300
C1991	C199	0.660000	0.345400	0.212300
C2001	C200	0.952900	0.938300	0.226700
C2011	C201	0.010700	0.878900	0.226300
C2021	C202	0.818000	0.267800	0.103500
C2031	C203	0.770400	0.229000	0.063100
C2041	C204	0.799800	0.244600	0.024700
C2051	C205	0.870600	0.301000	0.026700
C2061	C206	0.915800	0.341400	0.067300
C2071	C207	0.890000	0.324000	0.104500
C2081	C208	0.898700	0.322100	0.984100
C2091	C209	0.491900	0.415300	0.223000
C2101	C210	0.432800	0.472000	0.222200
C2111	C211	0.114100	0.436300	0.204800
C2121	C212	0.065500	0.299300	0.219200
C2131	C213	0.109700	0.312900	0.150200
C2141	C214	0.642200	0.030800	0.114300
C2151	C215	0.669600	0.011600	0.156400
C2161	C216	0.621000	0.042400	0.183600
C2171	C217	0.562700	0.086300	0.159700
C2181	C218	0.497100	0.120300	0.175400
C2191	C219	0.444200	0.168800	0.153200
C2201	C220	0.378600	0.208600	0.167300
C2211	C221	0.351200	0.258200	0.139700
C2221	C222	0.397100	0.247300	0.104700
C2231	C223	0.390200	0.290600	0.070000
C2241	C224	0.434000	0.276200	0.034400
C2251	C225	0.427500	0.320900	0.998800
C2261	C226	0.472400	0.284000	0.970200
C2271	C227	0.509900	0.219700	0.989000
C2281	C228	0.559300	0.164900	0.968200
C2291	C229	0.593500	0.101500	0.986500
C2301	C230	0.642300	0.040500	0.966000
C2311	C231	0.667300	0.993900	0.994300
C2321	C232	0.642700	0.024300	0.035000
C2331	C233	0.670700	0.000500	0.075400
C2341	C234	0.476500	0.103500	0.218900
C2351	C235	0.530000	0.137200	0.258200
C2361	C236	0.508400	0.115200	0.296500
C2371	C237	0.438200	0.060400	0.295700
C2381	C238	0.382400	0.029600	0.256800
C2391	C239	0.402000	0.051800	0.217900
C2401	C240	0.422900	0.031300	0.337300
C2411	C241	0.331800	0.355400	0.072000
C2421	C242	0.359300	0.433300	0.096700
C2431	C243	0.302000	0.491200	0.104900
C2441	C244	0.219400	0.470600	0.085300
C2451	C245	0.193600	0.394600	0.056400
C2461	C246	0.252400	0.338200	0.049300
C2471	C247	0.157300	0.527700	0.095100
C2481	C248	0.576300	0.176300	0.924200
C2491	C249	0.641800	0.239000	0.920900
C2501	C250	0.658200	0.245800	0.880200
C2511	C251	0.616200	0.193200	0.842800
C2521	C252	0.553700	0.132700	0.846700
C2531	C253	0.533800	0.123800	0.886500
C2541	C254	0.638200	0.198200	0.799100
C2551	C255	0.730900	0.937300	0.075600
C2561	C256	0.811000	0.957600	0.066530
C2571	C257	0.869500	0.901300	0.070050
C2581	C258	0.847900	0.824700	0.082650
C2591	C259	0.767940	0.804340	0.091730
C2601	C260	0.709300	0.860700	0.088200
C2611	C261	0.909300	0.761900	0.089290
C2621	C262	0.880840	0.102160	0.286820
C2631	C263	0.899940	0.066060	0.326180
C2641	C264	0.852800	0.101000	0.354100
C2651	C265	0.805300	0.156300	0.334200
C2661	C266	0.749000	0.203600	0.353500
C2671	C267	0.707000	0.264000	0.336400
C2681	C268	0.652700	0.314900	0.357100
C2691	C269	0.622100	0.360100	0.329700
C2701	C270	0.654600	0.340000	0.287700
C2711	C271	0.061700	0.047100	0.273300
C2721	C272	0.121100	0.989300	0.273700
C2731	C273	0.732200	0.182000	0.396500
C2741	C274	0.771000	0.229600	0.436900
C2751	C275	0.755400	0.200200	0.475300
C2761	C276	0.699000	0.129400	0.473300
C2771	C277	0.658600	0.084200	0.432700
C2781	C278	0.676000	0.110000	0.395500
C2791	C279	0.677900	0.101300	0.515900
C2801	C280	0.584700	0.508100	0.277000
C2811	C281	0.528000	0.567200	0.277800
C2821	C282	0.563700	0.885900	0.295200
C2831	C283	0.700700	0.934500	0.280800
C2841	C284	0.687100	0.890300	0.349800
C2851	C285	0.084710	0.915290	0.750000
C2861	C286	0.369800	0.630200	0.750000
C2871	C287	0.023200	0.976800	0.750000
C2881	C288	0.905300	0.094700	0.750000
C2891	C289	0.842100	0.157900	0.750000
C2901	C290	0.434500	0.565500	0.750000
C2911	C291	0.549000	0.451000	0.750000
C2921	C292	0.611500	0.388500	0.750000
C2931	C293	0.915290	0.084710	0.250000
C2941	C294	0.630200	0.369800	0.250000
C2951	C295	0.976800	0.023200	0.250000
C2961	C296	0.094700	0.905300	0.250000
C2971	C297	0.157900	0.842100	0.250000
C2981	C298	0.565500	0.434500	0.250000
C2991	C299	0.451000	0.549000	0.250000
C3001	C300	0.388500	0.611500	0.250000
N11	N1	0.081700	0.579700	0.617900
N21	N2	0.191300	0.453300	0.613000
N31	N3	0.216100	0.485900	0.528200
N41	N4	0.088300	0.593300	0.528800
N51	N5	0.159700	0.823900	0.794100
N61	N6	0.281000	0.707600	0.793600
N71	N7	0.902100	0.645500	0.808100
N81	N8	0.420300	0.918300	0.882100
N91	N9	0.546700	0.808700	0.887000
N101	N10	0.514100	0.783900	0.971800
N111	N11	0.406700	0.911700	0.971200
N121	N12	0.176100	0.840300	0.705900
N131	N13	0.292400	0.719000	0.706400
N141	N14	0.354500	0.097900	0.691900
N151	N15	0.918300	0.420300	0.382100
N161	N16	0.808700	0.546700	0.387000
N171	N17	0.783900	0.514100	0.471800
N181	N18	0.911700	0.406700	0.471200
N191	N19	0.840300	0.176100	0.205900
N201	N20	0.719000	0.292400	0.206400
N211	N21	0.097900	0.354500	0.191900
N221	N22	0.579700	0.081700	0.117900
N231	N23	0.453300	0.191300	0.113000
N241	N24	0.485900	0.216100	0.028200
N251	N25	0.593300	0.088300	0.028800
N261	N26	0.823900	0.159700	0.294100
N271	N27	0.707600	0.281000	0.293600
N281	N28	0.645500	0.902100	0.308100
O11	O1	0.961100	0.371500	0.832380
O21	O2	0.071200	0.457400	0.874300
O31	O3	0.509400	0.082000	0.575400
O41	O4	0.595700	0.180500	0.622990
O51	O5	0.151900	0.596100	0.265900
O61	O6	0.249900	0.700700	0.296130
O71	O7	0.726400	0.916000	0.617680
O81	O8	0.757800	0.962800	0.559820
O91	O9	0.869500	0.231300	0.770250
O101	O10	0.141200	0.706400	0.048400
O111	O11	0.033600	0.633800	0.010000
O121	O12	0.683700	0.410900	0.773900
O131	O13	0.858300	0.513300	0.818000
O141	O14	0.872600	0.244600	0.860700
O151	O15	0.628500	0.038900	0.667620
O161	O16	0.542600	0.928800	0.625700
O171	O17	0.918000	0.490600	0.924600
O181	O18	0.819500	0.404300	0.877010
O191	O19	0.403900	0.848100	0.234100
O201	O20	0.299300	0.750100	0.203870
O211	O21	0.084000	0.273600	0.882320
O221	O22	0.037200	0.242200	0.940180
O231	O23	0.768700	0.130500	0.729750
O241	O24	0.293600	0.858800	0.451600
O251	O25	0.366200	0.966400	0.490000
O261	O26	0.589100	0.316300	0.726100
O271	O27	0.486700	0.141700	0.682000
O281	O28	0.755400	0.127400	0.639300
O291	O29	0.038900	0.628500	0.167620
O301	O30	0.928800	0.542600	0.125700
O311	O31	0.490600	0.918000	0.424600
O321	O32	0.404300	0.819500	0.377010
O331	O33	0.848100	0.403900	0.734100
O341	O34	0.750100	0.299300	0.703870
O351	O35	0.273600	0.084000	0.382320
O361	O36	0.242200	0.037200	0.440180
O371	O37	0.130500	0.768700	0.229750
O381	O38	0.858800	0.293600	0.951600
O391	O39	0.966400	0.366200	0.990000
O401	O40	0.316300	0.589100	0.226100
O411	O41	0.141700	0.486700	0.182000
O421	O42	0.127400	0.755400	0.139300
O431	O43	0.371500	0.961100	0.332380
O441	O44	0.457400	0.071200	0.374300
O451	O45	0.082000	0.509400	0.075400
O461	O46	0.180500	0.595700	0.122990
O471	O47	0.596100	0.151900	0.765900
O481	O48	0.700700	0.249900	0.796130
O491	O49	0.916000	0.726400	0.117680
O501	O50	0.962800	0.757800	0.059820
O511	O51	0.231300	0.869500	0.270250
O521	O52	0.706400	0.141200	0.548400
O531	O53	0.633800	0.033600	0.510000
O541	O54	0.410900	0.683700	0.273900
O551	O55	0.513300	0.858300	0.318000
O561	O56	0.244600	0.872600	0.360700
