data_MIJHOD_freeONLY_PM
_symmetry_space_group_name_H-M	'P1'
_cell_length_a	18.818400
_cell_length_b	9.484300
_cell_length_c	17.349000
_cell_angle_alpha	90.000000
_cell_angle_beta	90.000000
_cell_angle_gamma	90.000000
_symmetry_Int_Tables_number 1

loop_
_symmetry_equiv_pos_as_xyz
'x,y,z'

loop_
_atom_site_label
_atom_site_type_symbol
_atom_site_fract_x
_atom_site_fract_y
_atom_site_fract_z
Mg11	Mg1	0.255190	0.262140	0.304100
C11	C1	0.155300	0.327000	0.129390
C21	C2	0.130210	0.271900	0.060190
C31	C3	0.156870	0.313700	0.989060
C41	C4	0.209730	0.417400	0.986930
C51	C5	0.234420	0.475000	0.056210
C61	C6	0.209010	0.429000	0.127280
C71	C7	0.241890	0.494800	0.198840
C81	C8	0.121740	0.274400	0.203130
C91	C9	0.123790	0.248400	0.917840
C101	C10	0.243600	0.471400	0.913270
O11	O1	0.154210	0.291300	0.265540
O21	O2	0.062110	0.216600	0.196800
O31	O3	0.071300	0.171100	0.928330
O41	O4	0.149090	0.276450	0.852790
O51	O5	0.286090	0.391570	0.878880
O61	O6	0.229160	0.595910	0.894630
O71	O7	0.220800	0.615010	0.216970
O81	O8	0.289920	0.425180	0.232410
O91	O9	0.061860	0.917700	0.190680
O101	O10	0.928650	0.052100	0.159610
H11	H1	0.092400	0.201000	0.062200
H21	H2	0.270900	0.544000	0.054200
Mg21	Mg2	0.244810	0.237860	0.804100
C111	C11	0.344700	0.173000	0.629390
C121	C12	0.369790	0.228100	0.560190
C131	C13	0.343130	0.186300	0.489060
C141	C14	0.290270	0.082600	0.486930
C151	C15	0.265580	0.025000	0.556210
C161	C16	0.290990	0.071000	0.627280
C171	C17	0.258110	0.005200	0.698840
C181	C18	0.378260	0.225600	0.703130
C191	C19	0.376210	0.251600	0.417840
C201	C20	0.256400	0.028600	0.413270
O111	O11	0.345790	0.208700	0.765540
O121	O12	0.437890	0.283400	0.696800
O131	O13	0.428700	0.328900	0.428330
O141	O14	0.350910	0.223550	0.352790
O151	O15	0.213910	0.108430	0.378880
O161	O16	0.270840	0.904090	0.394630
O171	O17	0.279200	0.884990	0.716970
O181	O18	0.210080	0.074820	0.732410
O191	O19	0.438140	0.582300	0.690680
O201	O20	0.571350	0.447900	0.659610
H31	H3	0.407600	0.299000	0.562200
H41	H4	0.229100	0.956000	0.554200
Mg31	Mg3	0.744810	0.262140	0.195900
C211	C21	0.844700	0.327000	0.370610
C221	C22	0.869790	0.271900	0.439810
C231	C23	0.843130	0.313700	0.510940
C241	C24	0.790270	0.417400	0.513070
C251	C25	0.765580	0.475000	0.443790
C261	C26	0.790990	0.429000	0.372720
C271	C27	0.758110	0.494800	0.301160
C281	C28	0.878260	0.274400	0.296870
C291	C29	0.876210	0.248400	0.582160
C301	C30	0.756400	0.471400	0.586730
O211	O21	0.845790	0.291300	0.234460
O221	O22	0.937890	0.216600	0.303200
O231	O23	0.928700	0.171100	0.571670
O241	O24	0.850910	0.276450	0.647210
O251	O25	0.713910	0.391570	0.621120
O261	O26	0.770840	0.595910	0.605370
O271	O27	0.779200	0.615010	0.283030
O281	O28	0.710080	0.425180	0.267590
O291	O29	0.938140	0.917700	0.309320
O301	O30	0.071350	0.052100	0.340390
H51	H5	0.907600	0.201000	0.437800
H61	H6	0.729100	0.544000	0.445800
Mg41	Mg4	0.755190	0.237860	0.695900
C311	C31	0.655300	0.173000	0.870610
C321	C32	0.630210	0.228100	0.939810
C331	C33	0.656870	0.186300	0.010940
C341	C34	0.709730	0.082600	0.013070
C351	C35	0.734420	0.025000	0.943790
C361	C36	0.709010	0.071000	0.872720
C371	C37	0.741890	0.005200	0.801160
C381	C38	0.621740	0.225600	0.796870
C391	C39	0.623790	0.251600	0.082160
C401	C40	0.743600	0.028600	0.086730
O311	O31	0.654210	0.208700	0.734460
O321	O32	0.562110	0.283400	0.803200
O331	O33	0.571300	0.328900	0.071670
O341	O34	0.649090	0.223550	0.147210
O351	O35	0.786090	0.108430	0.121120
O361	O36	0.729160	0.904090	0.105370
O371	O37	0.720800	0.884990	0.783030
O381	O38	0.789920	0.074820	0.767590
O391	O39	0.561860	0.582300	0.809320
O401	O40	0.428650	0.447900	0.840390
H71	H7	0.592400	0.299000	0.937800
H81	H8	0.770900	0.956000	0.945800
Mg51	Mg5	0.744810	0.737860	0.695900
C411	C41	0.844700	0.673000	0.870610
C421	C42	0.869790	0.728100	0.939810
C431	C43	0.843130	0.686300	0.010940
C441	C44	0.790270	0.582600	0.013070
C451	C45	0.765580	0.525000	0.943790
C461	C46	0.790990	0.571000	0.872720
C471	C47	0.758110	0.505200	0.801160
C481	C48	0.878260	0.725600	0.796870
C491	C49	0.876210	0.751600	0.082160
C501	C50	0.756400	0.528600	0.086730
O411	O41	0.845790	0.708700	0.734460
O421	O42	0.937890	0.783400	0.803200
O431	O43	0.928700	0.828900	0.071670
O441	O44	0.850910	0.723550	0.147210
O451	O45	0.713910	0.608430	0.121120
O461	O46	0.770840	0.404090	0.105370
O471	O47	0.779200	0.384990	0.783030
O481	O48	0.710080	0.574820	0.767590
O491	O49	0.938140	0.082300	0.809320
O501	O50	0.071350	0.947900	0.840390
H91	H9	0.907600	0.799000	0.937800
H101	H10	0.729100	0.456000	0.945800
Mg61	Mg6	0.755190	0.762140	0.195900
C511	C51	0.655300	0.827000	0.370610
C521	C52	0.630210	0.771900	0.439810
C531	C53	0.656870	0.813700	0.510940
C541	C54	0.709730	0.917400	0.513070
C551	C55	0.734420	0.975000	0.443790
C561	C56	0.709010	0.929000	0.372720
C571	C57	0.741890	0.994800	0.301160
C581	C58	0.621740	0.774400	0.296870
C591	C59	0.623790	0.748400	0.582160
C601	C60	0.743600	0.971400	0.586730
O511	O51	0.654210	0.791300	0.234460
O521	O52	0.562110	0.716600	0.303200
O531	O53	0.571300	0.671100	0.571670
O541	O54	0.649090	0.776450	0.647210
O551	O55	0.786090	0.891570	0.621120
O561	O56	0.729160	0.095910	0.605370
O571	O57	0.720800	0.115010	0.283030
O581	O58	0.789920	0.925180	0.267590
O591	O59	0.561860	0.417700	0.309320
O601	O60	0.428650	0.552100	0.340390
H111	H11	0.592400	0.701000	0.437800
H121	H12	0.770900	0.044000	0.445800
Mg71	Mg7	0.255190	0.737860	0.804100
C611	C61	0.155300	0.673000	0.629390
C621	C62	0.130210	0.728100	0.560190
C631	C63	0.156870	0.686300	0.489060
C641	C64	0.209730	0.582600	0.486930
C651	C65	0.234420	0.525000	0.556210
C661	C66	0.209010	0.571000	0.627280
C671	C67	0.241890	0.505200	0.698840
C681	C68	0.121740	0.725600	0.703130
C691	C69	0.123790	0.751600	0.417840
C701	C70	0.243600	0.528600	0.413270
O611	O61	0.154210	0.708700	0.765540
O621	O62	0.062110	0.783400	0.696800
O631	O63	0.071300	0.828900	0.428330
O641	O64	0.149090	0.723550	0.352790
O651	O65	0.286090	0.608430	0.378880
O661	O66	0.229160	0.404090	0.394630
O671	O67	0.220800	0.384990	0.716970
O681	O68	0.289920	0.574820	0.732410
O691	O69	0.061860	0.082300	0.690680
O701	O70	0.928650	0.947900	0.659610
H131	H13	0.092400	0.799000	0.562200
H141	H14	0.270900	0.456000	0.554200
Mg81	Mg8	0.244810	0.762140	0.304100
C711	C71	0.344700	0.827000	0.129390
C721	C72	0.369790	0.771900	0.060190
C731	C73	0.343130	0.813700	0.989060
C741	C74	0.290270	0.917400	0.986930
C751	C75	0.265580	0.975000	0.056210
C761	C76	0.290990	0.929000	0.127280
C771	C77	0.258110	0.994800	0.198840
C781	C78	0.378260	0.774400	0.203130
C791	C79	0.376210	0.748400	0.917840
C801	C80	0.256400	0.971400	0.913270
O711	O71	0.345790	0.791300	0.265540
O721	O72	0.437890	0.716600	0.196800
O731	O73	0.428700	0.671100	0.928330
O741	O74	0.350910	0.776450	0.852790
O751	O75	0.213910	0.891570	0.878880
O761	O76	0.270840	0.095910	0.894630
O771	O77	0.279200	0.115010	0.216970
O781	O78	0.210080	0.925180	0.232410
O791	O79	0.438140	0.417700	0.190680
O801	O80	0.571350	0.552100	0.159610
H151	H15	0.407600	0.701000	0.062200
H161	H16	0.229100	0.044000	0.054200
Mg91	Mg9	0.000000	0.070760	0.250000
Mg101	Mg10	0.500000	0.429240	0.750000
Mg111	Mg11	0.000000	0.929240	0.750000
Mg121	Mg12	0.500000	0.570760	0.250000
