data_MIKJAR_freeONLY_PM
_symmetry_space_group_name_H-M	'P1'
_cell_length_a	13.466400
_cell_length_b	14.444900
_cell_length_c	14.444900
_cell_angle_alpha	69.197400
_cell_angle_beta	71.895400
_cell_angle_gamma	108.105000
_symmetry_Int_Tables_number 1

loop_
_symmetry_equiv_pos_as_xyz
'x,y,z'

loop_
_atom_site_label
_atom_site_type_symbol
_atom_site_fract_x
_atom_site_fract_y
_atom_site_fract_z
Ga11	Ga1	0.146400	0.173900	0.373200
Ga21	Ga2	0.192500	0.864200	0.543200
Ga31	Ga3	0.519600	0.373200	0.452900
Ga41	Ga4	0.735700	0.543200	0.592600
Ga51	Ga5	0.972500	0.452900	0.173900
Ga61	Ga6	0.328300	0.592600	0.864200
Ga71	Ga7	0.853600	0.826100	0.626800
Ga81	Ga8	0.807500	0.135800	0.456800
Ga91	Ga9	0.480400	0.626800	0.547100
Ga101	Ga10	0.264300	0.456800	0.407400
Ga111	Ga11	0.027500	0.547100	0.826100
Ga121	Ga12	0.671700	0.407400	0.135800
P11	P1	0.063900	0.946600	0.399100
P21	P2	0.061600	0.352300	0.333500
P31	P3	0.463000	0.399100	0.654300
P41	P4	0.395100	0.333500	0.314200
P51	P5	0.117300	0.654300	0.946600
P61	P6	0.709300	0.314200	0.352300
P71	P7	0.936100	0.053400	0.600900
P81	P8	0.938400	0.647700	0.666500
P91	P9	0.537000	0.600900	0.345700
P101	P10	0.604900	0.666500	0.685800
P111	P11	0.882700	0.345700	0.053400
P121	P12	0.290700	0.685800	0.647700
H11	H1	0.325100	0.847400	0.391100
H21	H2	0.255700	0.887400	0.349800
H31	H3	0.307900	0.082300	0.458600
H41	H4	0.111900	0.817200	0.750000
H51	H5	0.049600	0.869400	0.701400
H61	H6	0.463300	0.016000	0.267200
H71	H7	0.369700	0.067500	0.291400
H81	H8	0.379500	0.093500	0.575400
H91	H9	0.353600	0.968700	0.625500
H101	H10	0.498400	0.113500	0.368300
H111	H11	0.457100	0.977400	0.450000
H121	H12	0.195700	0.970900	0.742000
H131	H13	0.170000	0.035300	0.641700
H141	H14	0.716200	0.391100	0.761500
H151	H15	0.605500	0.349800	0.762800
H161	H16	0.766500	0.458600	0.459100
H171	H17	0.861900	0.750000	0.432800
H181	H18	0.751000	0.701400	0.429200
H191	H19	0.730500	0.267200	0.716800
H201	H20	0.661100	0.291400	0.641100
H211	H21	0.954900	0.575400	0.331100
H221	H22	0.979100	0.625500	0.405800
H231	H23	0.866700	0.368300	0.518200
H241	H24	0.907100	0.450000	0.572600
H251	H25	0.937700	0.742000	0.287100
H261	H26	0.811700	0.641700	0.323000
H271	H27	0.477700	0.761500	0.847400
H281	H28	0.368300	0.762800	0.887400
H291	H29	0.225600	0.459100	0.082300
H301	H30	0.294700	0.432800	0.817200
H311	H31	0.180200	0.429200	0.869400
H321	H32	0.447300	0.716800	0.016000
H331	H33	0.302200	0.641100	0.067500
H341	H34	0.286000	0.331100	0.093500
H351	H35	0.384900	0.405800	0.968700
H361	H36	0.384900	0.518200	0.113500
H371	H37	0.479700	0.572600	0.977400
H381	H38	0.224800	0.287100	0.970900
H391	H39	0.134700	0.323000	0.035300
H401	H40	0.674900	0.152600	0.608900
H411	H41	0.744300	0.112600	0.650200
H421	H42	0.692100	0.917700	0.541400
H431	H43	0.888100	0.182800	0.250000
H441	H44	0.950400	0.130600	0.298600
H451	H45	0.536700	0.984000	0.732800
H461	H46	0.630300	0.932500	0.708600
H471	H47	0.620500	0.906500	0.424600
H481	H48	0.646400	0.031300	0.374500
H491	H49	0.501600	0.886500	0.631700
H501	H50	0.542900	0.022600	0.550000
H511	H51	0.804300	0.029100	0.258000
H521	H52	0.830000	0.964700	0.358300
H531	H53	0.283800	0.608900	0.238500
H541	H54	0.394500	0.650200	0.237200
H551	H55	0.233500	0.541400	0.540900
H561	H56	0.138100	0.250000	0.567200
H571	H57	0.249000	0.298600	0.570800
H581	H58	0.269500	0.732800	0.283200
H591	H59	0.338900	0.708600	0.358900
H601	H60	0.045100	0.424600	0.668900
H611	H61	0.020900	0.374500	0.594200
H621	H62	0.133300	0.631700	0.481800
H631	H63	0.092900	0.550000	0.427400
H641	H64	0.062300	0.258000	0.712900
H651	H65	0.188300	0.358300	0.677000
H661	H66	0.522300	0.238500	0.152600
H671	H67	0.631700	0.237200	0.112600
H681	H68	0.774400	0.540900	0.917700
H691	H69	0.705300	0.567200	0.182800
H701	H70	0.819800	0.570800	0.130600
H711	H71	0.552700	0.283200	0.984000
H721	H72	0.697800	0.358900	0.932500
H731	H73	0.714000	0.668900	0.906500
H741	H74	0.615100	0.594200	0.031300
H751	H75	0.615100	0.481800	0.886500
H761	H76	0.520300	0.427400	0.022600
H771	H77	0.775200	0.712900	0.029100
H781	H78	0.865300	0.677000	0.964700
C11	C1	0.398500	0.010100	0.323400
C21	C2	0.432500	0.039500	0.403200
C31	C3	0.325100	0.019900	0.593000
C41	C4	0.199600	0.980400	0.673500
C51	C5	0.721900	0.323400	0.666500
C61	C6	0.835700	0.403200	0.557300
C71	C7	0.918100	0.593000	0.387100
C81	C8	0.873100	0.673500	0.346100
C91	C9	0.388400	0.666500	0.010100
C101	C10	0.393000	0.557300	0.039500
C111	C11	0.305200	0.387100	0.019900
C121	C12	0.219200	0.346100	0.980400
C131	C13	0.601500	0.989900	0.676600
C141	C14	0.567500	0.960500	0.596800
C151	C15	0.674900	0.980100	0.407000
C161	C16	0.800400	0.019600	0.326500
C171	C17	0.278100	0.676600	0.333500
C181	C18	0.164300	0.596800	0.442700
C191	C19	0.081900	0.407000	0.612900
C201	C20	0.126900	0.326500	0.653900
C211	C21	0.611600	0.333500	0.989900
C221	C22	0.607000	0.442700	0.960500
C231	C23	0.694800	0.612900	0.980100
C241	C24	0.780800	0.653900	0.019600
N11	N1	0.299700	0.893700	0.387000
N21	N2	0.325100	0.019100	0.492000
N31	N3	0.121800	0.872700	0.687000
N41	N4	0.686700	0.387000	0.719300
N51	N5	0.817100	0.492000	0.488900
N61	N6	0.808800	0.687000	0.440300
N71	N7	0.406000	0.719300	0.893700
N81	N8	0.306000	0.488900	0.019100
N91	N9	0.249100	0.440300	0.872700
N101	N10	0.700300	0.106300	0.613000
N111	N11	0.674900	0.980900	0.508000
N121	N12	0.878200	0.127300	0.313000
N131	N13	0.313300	0.613000	0.280700
N141	N14	0.182900	0.508000	0.511100
N151	N15	0.191200	0.313000	0.559700
N161	N16	0.594000	0.280700	0.106300
N171	N17	0.694000	0.511100	0.980900
N181	N18	0.750900	0.559700	0.127300
O11	O1	0.119500	0.946600	0.476800
O21	O2	0.090600	0.071200	0.332000
O31	O3	0.926100	0.873600	0.476100
O41	O4	0.106700	0.905500	0.322000
O51	O5	0.118100	0.285500	0.294900
O61	O6	0.081500	0.448100	0.224400
O71	O7	0.118200	0.401500	0.391400
O81	O8	0.928400	0.278500	0.410300
O91	O9	0.596300	0.476800	0.576600
O101	O10	0.422600	0.332000	0.596800
O111	O11	0.402200	0.476100	0.650300
O121	O12	0.428700	0.322000	0.772500
O131	O13	0.413000	0.294900	0.419600
O141	O14	0.305900	0.224400	0.327500
O151	O15	0.509600	0.391400	0.207100
O161	O16	0.338700	0.410300	0.311200
O171	O17	0.172900	0.576600	0.946600
O181	O18	0.019400	0.596800	0.071200
O191	O19	0.052500	0.650300	0.873600
O201	O20	0.201200	0.772500	0.905500
O211	O21	0.832600	0.419600	0.285500
O221	O22	0.633400	0.327500	0.448100
O231	O23	0.716700	0.207100	0.401500
O241	O24	0.649900	0.311200	0.278500
O251	O25	0.880500	0.053400	0.523200
O261	O26	0.909400	0.928800	0.668000
O271	O27	0.073900	0.126400	0.523900
O281	O28	0.893300	0.094500	0.678000
O291	O29	0.881900	0.714500	0.705100
O301	O30	0.918500	0.551900	0.775600
O311	O31	0.881800	0.598500	0.608600
O321	O32	0.071600	0.721500	0.589700
O331	O33	0.403700	0.523200	0.423400
O341	O34	0.577400	0.668000	0.403200
O351	O35	0.597800	0.523900	0.349700
O361	O36	0.571300	0.678000	0.227500
O371	O37	0.587000	0.705100	0.580400
O381	O38	0.694100	0.775600	0.672500
O391	O39	0.490400	0.608600	0.792900
O401	O40	0.661300	0.589700	0.688800
O411	O41	0.827100	0.423400	0.053400
O421	O42	0.980600	0.403200	0.928800
O431	O43	0.947500	0.349700	0.126400
O441	O44	0.798800	0.227500	0.094500
O451	O45	0.167400	0.580400	0.714500
O461	O46	0.366600	0.672500	0.551900
O471	O47	0.283300	0.792900	0.598500
O481	O48	0.350100	0.688800	0.721500
