data_MIMDAP_freeONLY_PM
_symmetry_space_group_name_H-M	'P1'
_cell_length_a	10.661000
_cell_length_b	11.998000
_cell_length_c	13.878000
_cell_angle_alpha	72.774000
_cell_angle_beta	79.859000
_cell_angle_gamma	81.106000
_symmetry_Int_Tables_number 1

loop_
_symmetry_equiv_pos_as_xyz
'x,y,z'

loop_
_atom_site_label
_atom_site_type_symbol
_atom_site_fract_x
_atom_site_fract_y
_atom_site_fract_z
Ni11	Ni1	0.000000	0.000000	0.000000
Ni21	Ni2	0.000000	0.500000	0.500000
Mo11	Mo1	0.876850	0.214040	0.545770
Mo21	Mo2	0.148170	0.012470	0.531830
Mo31	Mo3	0.909150	0.000610	0.746270
Mo41	Mo4	0.090850	0.999390	0.253730
Mo51	Mo5	0.123150	0.785960	0.454230
Mo61	Mo6	0.878510	0.221370	0.263380
Mo71	Mo7	0.121490	0.778630	0.736620
Mo81	Mo8	0.851830	0.987530	0.468170
H11	H1	0.612300	0.192600	0.188300
H21	H2	0.257300	0.601700	0.348400
H31	H3	0.487100	0.945800	0.286600
H41	H4	0.742700	0.398300	0.651600
H51	H5	0.303700	0.990200	0.039000
H61	H6	0.518900	0.755700	0.390600
H71	H7	0.710600	0.825200	0.684500
H81	H8	0.059400	0.422200	0.734300
H91	H9	0.078100	0.518100	0.903500
H101	H10	0.372600	0.153900	0.215900
H111	H11	0.640600	0.639100	0.857200
H121	H12	0.386300	0.749400	0.552800
H131	H13	0.126300	0.441400	0.005900
H141	H14	0.915800	0.653300	0.659200
H151	H15	0.224900	0.313700	0.165700
H161	H16	0.387700	0.807400	0.811700
H171	H17	0.696300	0.009800	0.961000
H181	H18	0.826000	0.248100	0.882800
H191	H19	0.822800	0.952400	0.214300
H201	H20	0.177200	0.047600	0.785700
H211	H21	0.731600	0.685200	0.483400
H221	H22	0.612000	0.935700	0.335400
H231	H23	0.921900	0.481900	0.096500
H241	H24	0.268400	0.314800	0.516600
H251	H25	0.880500	0.777100	0.979500
H261	H26	0.084200	0.346700	0.340800
H271	H27	0.460900	0.250600	0.722300
H281	H28	0.119500	0.222900	0.020500
H291	H29	0.539100	0.749400	0.277700
H301	H30	0.289400	0.174800	0.315500
H311	H31	0.775100	0.686300	0.834300
H321	H32	0.940600	0.577800	0.265700
H331	H33	0.388000	0.064300	0.664600
H341	H34	0.174000	0.751900	0.117200
H351	H35	0.359400	0.360900	0.142800
H361	H36	0.873700	0.558600	0.994100
H371	H37	0.627400	0.846100	0.784100
H381	H38	0.481100	0.244300	0.609400
H391	H39	0.512900	0.054200	0.713400
H401	H40	0.613700	0.250600	0.447200
C11	C1	0.351800	0.207600	0.258100
C21	C2	0.769900	0.960300	0.165500
C31	C3	0.143500	0.400300	0.328400
C41	C4	0.574700	0.909000	0.288300
C51	C5	0.705300	0.674700	0.803200
C61	C6	0.110900	0.733000	0.088100
C71	C7	0.298600	0.008500	0.969800
C81	C8	0.762300	0.670400	0.420900
C91	C9	0.238000	0.537600	0.331400
C101	C10	0.412700	0.791000	0.749200
C111	C11	0.762000	0.462400	0.668600
C121	C12	0.425300	0.091000	0.711700
C131	C13	0.051900	0.466500	0.970200
C141	C14	0.585500	0.241000	0.390700
C151	C15	0.230100	0.039700	0.834500
C161	C16	0.587300	0.209000	0.250800
C171	C17	0.648200	0.792400	0.741900
C181	C18	0.048700	0.251900	0.986300
C191	C19	0.701400	0.991500	0.030200
C201	C20	0.889100	0.267000	0.911900
C211	C21	0.873200	0.614200	0.301700
C221	C22	0.414500	0.759000	0.609300
C231	C23	0.574600	0.775400	0.326100
C241	C24	0.948100	0.533500	0.029800
C251	C25	0.294700	0.325300	0.196800
C261	C26	0.425400	0.224600	0.673900
C271	C27	0.951300	0.748100	0.013700
C281	C28	0.126800	0.385800	0.698300
C291	C29	0.237700	0.329600	0.579100
C301	C30	0.856500	0.599700	0.671600
N11	N1	0.901300	0.374400	0.911800
N21	N2	0.870500	0.606500	0.402100
N31	N3	0.979400	0.186500	0.959500
N41	N4	0.332100	0.774600	0.690200
N51	N5	0.996000	0.637300	0.041800
N61	N6	0.098700	0.625600	0.088200
N71	N7	0.191900	0.010900	0.935300
N81	N8	0.297200	0.289200	0.660300
N91	N9	0.667900	0.225400	0.309800
N101	N10	0.598700	0.965500	0.101700
N111	N11	0.004000	0.362700	0.958200
N121	N12	0.311200	0.493400	0.259700
N131	N13	0.776000	0.675500	0.259700
N141	N14	0.648200	0.944900	0.186000
N151	N15	0.351800	0.055100	0.814000
N161	N16	0.865200	0.518100	0.623600
N171	N17	0.468900	0.220100	0.295500
N181	N18	0.753600	0.595000	0.738800
N191	N19	0.129500	0.393500	0.597900
N201	N20	0.246400	0.405000	0.261200
N211	N21	0.134800	0.481900	0.376400
N221	N22	0.401300	0.034500	0.898300
N231	N23	0.531100	0.779900	0.704500
N241	N24	0.535300	0.757700	0.613300
N251	N25	0.702800	0.710800	0.339700
N261	N26	0.808100	0.989100	0.064700
N271	N27	0.224000	0.324500	0.740300
N281	N28	0.020600	0.813500	0.040500
N291	N29	0.464700	0.242300	0.386700
N301	N30	0.688800	0.506600	0.740300
O11	O1	0.748200	0.006300	0.770900
O21	O2	0.054000	0.166700	0.245800
O31	O3	0.097200	0.161100	0.499600
O41	O4	0.837400	0.225900	0.150100
O51	O5	0.902800	0.838900	0.500400
O61	O6	0.089400	0.977300	0.419100
O71	O7	0.691700	0.995300	0.498400
O81	O8	0.067300	0.839200	0.322500
O91	O9	0.879200	0.028800	0.324700
O101	O10	0.946000	0.833300	0.754200
O111	O11	0.954300	0.998900	0.860200
O121	O12	0.910600	0.022700	0.580900
O131	O13	0.283700	0.767000	0.414500
O141	O14	0.919800	0.355800	0.500200
O151	O15	0.120800	0.971200	0.675300
O161	O16	0.114800	0.634900	0.741900
O171	O17	0.885200	0.365100	0.258100
O181	O18	0.308300	0.004700	0.501600
O191	O19	0.251800	0.993700	0.229100
O201	O20	0.080200	0.644200	0.499800
O211	O21	0.162600	0.774100	0.849900
O221	O22	0.716300	0.233000	0.585500
O231	O23	0.932700	0.160800	0.677500
O241	O24	0.045700	0.001100	0.139800
O251	O25	0.133900	0.826600	0.575800
O261	O26	0.866100	0.173400	0.424200
