data_MIMSUY_freeONLY_PM
_symmetry_space_group_name_H-M	'P1'
_cell_length_a	12.311100
_cell_length_b	20.013900
_cell_length_c	20.013900
_cell_angle_alpha	102.552000
_cell_angle_beta	95.122700
_cell_angle_gamma	95.122700
_symmetry_Int_Tables_number 1

loop_
_symmetry_equiv_pos_as_xyz
'x,y,z'

loop_
_atom_site_label
_atom_site_type_symbol
_atom_site_fract_x
_atom_site_fract_y
_atom_site_fract_z
Zn11	Zn1	0.401890	0.529850	0.017540
Zn21	Zn2	0.098110	0.982460	0.470150
Zn31	Zn3	0.796210	0.208350	0.942560
Zn41	Zn4	0.296210	0.942560	0.208350
Zn51	Zn5	0.598110	0.470150	0.982460
Zn61	Zn6	0.901890	0.017540	0.529850
Zn71	Zn7	0.703790	0.057440	0.791650
Zn81	Zn8	0.203790	0.791650	0.057440
H11	H1	0.217300	0.862000	0.613400
H21	H2	0.168800	0.545400	0.954000
H31	H3	0.979800	0.328000	0.966000
H41	H4	0.844900	0.070500	0.673500
H51	H5	0.390600	0.847000	0.297200
H61	H6	0.410700	0.809800	0.887400
H71	H7	0.967400	0.842300	0.901300
H81	H8	0.569600	0.778700	0.309700
H91	H9	0.286800	0.653600	0.994800
H101	H10	0.655100	0.326500	0.929500
H111	H11	0.331200	0.046000	0.454600
H121	H12	0.263100	0.833100	0.297300
H131	H13	0.034400	0.042500	0.750900
H141	H14	0.786800	0.994800	0.653600
H151	H15	0.545300	0.096500	0.526300
H161	H16	0.236900	0.702700	0.166900
H171	H17	0.281000	0.253900	0.958500
H181	H18	0.760600	0.473400	0.878200
H191	H19	0.719000	0.746100	0.041500
H201	H20	0.239400	0.526600	0.121800
H211	H21	0.552700	0.680100	0.206900
H221	H22	0.155100	0.929500	0.326500
H231	H23	0.930400	0.690300	0.221300
H241	H24	0.228600	0.779900	0.811700
H251	H25	0.588800	0.910400	0.207200
H261	H26	0.109400	0.702800	0.153000
H271	H27	0.506500	0.891300	0.403900
H281	H28	0.020200	0.672000	0.034000
H291	H29	0.411200	0.089600	0.792800
H301	H30	0.479800	0.966000	0.328000
H311	H31	0.465600	0.249100	0.957500
H321	H32	0.520200	0.034000	0.672000
H331	H33	0.089300	0.112600	0.190200
H341	H34	0.650200	0.003700	0.495700
H351	H35	0.684900	0.403500	0.851900
H361	H36	0.736900	0.166900	0.702700
H371	H37	0.717300	0.613400	0.862000
H381	H38	0.006500	0.403900	0.891300
H391	H39	0.282700	0.386600	0.138000
H401	H40	0.260600	0.878200	0.473400
H411	H41	0.591000	0.972800	0.652400
H421	H42	0.713200	0.346400	0.005200
H431	H43	0.532600	0.098700	0.157700
H441	H44	0.765800	0.700500	0.809900
H451	H45	0.910700	0.887400	0.809800
H461	H46	0.734200	0.190100	0.299500
H471	H47	0.739400	0.121800	0.526600
H481	H48	0.054400	0.085100	0.302700
H491	H49	0.175500	0.392100	0.860100
H501	H50	0.763100	0.297300	0.833100
H511	H51	0.454700	0.903500	0.473700
H521	H52	0.234200	0.299500	0.190100
H531	H53	0.668800	0.954000	0.545400
H541	H54	0.045300	0.526300	0.096500
H551	H55	0.824500	0.607900	0.139900
H561	H56	0.430400	0.221300	0.690300
H571	H57	0.447300	0.319900	0.793100
H581	H58	0.324500	0.139900	0.607900
H591	H59	0.911200	0.792800	0.089600
H601	H60	0.467400	0.901300	0.842300
H611	H61	0.993500	0.596100	0.108700
H621	H62	0.947300	0.793100	0.319900
H631	H63	0.781000	0.958500	0.253900
H641	H64	0.849800	0.504300	0.996300
H651	H65	0.052700	0.206900	0.680100
H661	H66	0.954700	0.473700	0.903500
H671	H67	0.831200	0.454600	0.046000
H681	H68	0.032600	0.157700	0.098700
H691	H69	0.589300	0.190200	0.112600
H701	H70	0.265800	0.809900	0.700500
H711	H71	0.945600	0.914900	0.697300
H721	H72	0.493500	0.108700	0.596100
H731	H73	0.609400	0.153000	0.702800
H741	H74	0.150200	0.495700	0.003700
H751	H75	0.315100	0.596500	0.148100
H761	H76	0.965600	0.957500	0.249100
H771	H77	0.445600	0.697300	0.914900
H781	H78	0.534400	0.750900	0.042500
H791	H79	0.909000	0.347600	0.027200
H801	H80	0.184900	0.851900	0.403500
H811	H81	0.091000	0.652400	0.972800
H821	H82	0.554400	0.302700	0.085100
H831	H83	0.728600	0.811700	0.779900
H841	H84	0.271400	0.188300	0.220100
H851	H85	0.771400	0.220100	0.188300
H861	H86	0.344900	0.673500	0.070500
H871	H87	0.213200	0.005200	0.346400
H881	H88	0.675500	0.860100	0.392100
H891	H89	0.782700	0.138000	0.386600
H901	H90	0.349800	0.996300	0.504300
H911	H91	0.815100	0.148100	0.596500
H921	H92	0.069600	0.309700	0.778700
H931	H93	0.219000	0.041500	0.746100
H941	H94	0.409000	0.027200	0.347600
H951	H95	0.890600	0.297200	0.847000
H961	H96	0.088800	0.207200	0.910400
C11	C1	0.009000	0.839230	0.864390
C21	C2	0.475500	0.810040	0.866880
C31	C3	0.975500	0.866880	0.810040
C41	C4	0.165800	0.802450	0.811290
C51	C5	0.871200	0.789880	0.317660
C61	C6	0.298200	0.299220	0.168580
C71	C7	0.576300	0.647440	0.894720
C81	C8	0.708800	0.829930	0.360070
C91	C9	0.916300	0.350420	0.980000
C101	C10	0.363300	0.244770	0.168570
C111	C11	0.615700	0.877710	0.174110
C121	C12	0.577300	0.165670	0.872850
C131	C13	0.307600	0.267110	0.737090
C141	C14	0.176400	0.163850	0.636750
C151	C15	0.604500	0.865080	0.806640
C161	C16	0.306500	0.220700	0.925360
C171	C17	0.730700	0.876820	0.173880
C181	C18	0.147100	0.783420	0.928540
C191	C19	0.057100	0.574170	0.093830
C201	C20	0.076300	0.894720	0.647440
C211	C21	0.269300	0.123180	0.826120
C221	C22	0.645500	0.780800	0.311240
C231	C23	0.838700	0.456330	0.998530
C241	C24	0.354500	0.219200	0.688760
C251	C25	0.609400	0.584900	0.106280
C261	C26	0.043900	0.126680	0.831640
C271	C27	0.230700	0.173880	0.876820
C281	C28	0.128800	0.210120	0.682340
C291	C29	0.193500	0.074640	0.779300
C301	C30	0.884300	0.825890	0.122290
C311	C31	0.201800	0.831420	0.700780
C321	C32	0.661300	0.001470	0.543670
C331	C33	0.916500	0.924580	0.218240
C341	C34	0.109400	0.106280	0.584900
C351	C35	0.510600	0.698890	0.894570
C361	C36	0.989400	0.105430	0.301110
C371	C37	0.046900	0.930400	0.590600
C381	C38	0.104500	0.806640	0.865080
C391	C39	0.827200	0.137650	0.351350
C401	C40	0.172800	0.862350	0.648650
C411	C41	0.701800	0.700780	0.831420
C421	C42	0.509000	0.864390	0.839230
C431	C43	0.416500	0.218240	0.924580
C441	C44	0.557100	0.093830	0.574170
C451	C45	0.863300	0.168570	0.244770
C461	C46	0.278500	0.650710	0.041830
C471	C47	0.291200	0.170070	0.639930
C481	C48	0.583700	0.020000	0.649580
C491	C49	0.491000	0.135610	0.160770
C501	C50	0.798200	0.168580	0.299220
C511	C51	0.942900	0.425830	0.906170
C521	C52	0.693500	0.779300	0.074640
C531	C53	0.769300	0.826120	0.123180
C541	C54	0.852900	0.216580	0.071460
C551	C55	0.628800	0.682340	0.210120
C561	C56	0.039500	0.864200	0.754340
C571	C57	0.692400	0.732890	0.262910
C581	C58	0.991000	0.160770	0.135610
C591	C59	0.423700	0.352560	0.105280
C601	C60	0.442900	0.906170	0.425830
C611	C61	0.923700	0.105280	0.352560
C621	C62	0.221500	0.958170	0.349290
C631	C63	0.136700	0.831430	0.755230
C641	C64	0.636700	0.755230	0.831430
C651	C65	0.338700	0.998530	0.456330
C661	C66	0.778500	0.041830	0.650710
C671	C67	0.077300	0.872850	0.165670
C681	C68	0.208800	0.360070	0.829930
C691	C69	0.546900	0.590600	0.930400
C701	C70	0.145500	0.311240	0.780800
C711	C71	0.327200	0.351350	0.137650
C721	C72	0.010600	0.894570	0.698890
C731	C73	0.489400	0.301110	0.105430
C741	C74	0.453100	0.409400	0.069600
C751	C75	0.583500	0.781760	0.075420
C761	C76	0.323600	0.363250	0.836150
C771	C77	0.192400	0.262910	0.732890
C781	C78	0.083700	0.649580	0.020000
C791	C79	0.749400	0.118380	0.574380
C801	C80	0.828400	0.320030	0.863010
C811	C81	0.956100	0.873320	0.168360
C821	C82	0.161300	0.543670	0.001470
C831	C83	0.854500	0.688760	0.219200
C841	C84	0.953100	0.069600	0.409400
C851	C85	0.024500	0.133120	0.189960
C861	C86	0.676400	0.636750	0.163850
C871	C87	0.539500	0.754340	0.864200
C881	C88	0.895500	0.193360	0.134920
C891	C89	0.422700	0.834330	0.127150
C901	C90	0.416300	0.980000	0.350420
C911	C91	0.083500	0.075420	0.781760
C921	C92	0.750600	0.425620	0.881620
C931	C93	0.543900	0.831640	0.126680
C941	C94	0.328400	0.863010	0.320030
C951	C95	0.823600	0.836150	0.363250
C961	C96	0.249400	0.574380	0.118380
C971	C97	0.834200	0.197550	0.188710
C981	C98	0.960500	0.135800	0.245660
C991	C99	0.334200	0.188710	0.197550
C1001	C100	0.352900	0.071460	0.216580
C1011	C101	0.395500	0.134920	0.193360
C1021	C102	0.672800	0.648650	0.862350
C1031	C103	0.524500	0.189960	0.133120
C1041	C104	0.721500	0.349290	0.958170
C1051	C105	0.460500	0.245660	0.135800
C1061	C106	0.250600	0.881620	0.425620
C1071	C107	0.671600	0.136990	0.679970
C1081	C108	0.115700	0.174110	0.877710
C1091	C109	0.791200	0.639930	0.170070
C1101	C110	0.807600	0.737090	0.267110
C1111	C111	0.371200	0.317660	0.789880
C1121	C112	0.890600	0.893720	0.415100
C1131	C113	0.806500	0.925360	0.220700
C1141	C114	0.384300	0.122290	0.825890
C1151	C115	0.665800	0.811290	0.802450
C1161	C116	0.171600	0.679970	0.136990
C1171	C117	0.390600	0.415100	0.893720
C1181	C118	0.456100	0.168360	0.873320
C1191	C119	0.922700	0.127150	0.834330
C1201	C120	0.647100	0.928540	0.783420
N11	N1	0.316480	0.935020	0.313380
N21	N2	0.066400	0.577370	0.023230
N31	N3	0.655600	0.141530	0.608190
N41	N4	0.933600	0.422630	0.976770
N51	N5	0.344400	0.858470	0.391810
N61	N6	0.736020	0.422820	0.954380
N71	N7	0.566400	0.023230	0.577370
N81	N8	0.816480	0.313380	0.935020
N91	N9	0.183520	0.686620	0.064980
N101	N10	0.844400	0.391810	0.858470
N111	N11	0.683520	0.064980	0.686620
N121	N12	0.236020	0.954380	0.422820
N131	N13	0.763980	0.045620	0.577180
N141	N14	0.433600	0.976770	0.422630
N151	N15	0.155600	0.608190	0.141530
N161	N16	0.263980	0.577180	0.045620
O11	O1	0.612800	0.545890	0.930450
O21	O2	0.159800	0.068720	0.542140
O31	O3	0.863060	0.073940	0.802160
O41	O4	0.340200	0.457860	0.931280
O51	O5	0.222500	0.747110	0.927510
O61	O6	0.887200	0.069550	0.454110
O71	O7	0.492240	0.411830	0.901790
O81	O8	0.363060	0.802160	0.073940
O91	O9	0.387200	0.454110	0.069550
O101	O10	0.507760	0.588170	0.098210
O111	O11	0.603900	0.982430	0.805370
O121	O12	0.396100	0.017570	0.194630
O131	O13	0.636940	0.197840	0.926060
O141	O14	0.960900	0.958750	0.591890
O151	O15	0.611740	0.133100	0.819520
O161	O16	0.992240	0.901790	0.411830
O171	O17	0.007760	0.098210	0.588170
O181	O18	0.777500	0.252890	0.072490
O191	O19	0.659800	0.542140	0.068720
O201	O20	0.388260	0.866900	0.180480
O211	O21	0.039100	0.041250	0.408110
O221	O22	0.136940	0.926060	0.197840
O231	O23	0.277500	0.072490	0.252890
O241	O24	0.840200	0.931280	0.457860
O251	O25	0.111740	0.819520	0.133100
O261	O26	0.460900	0.591890	0.958750
O271	O27	0.539100	0.408110	0.041250
O281	O28	0.103900	0.805370	0.982430
O291	O29	0.888260	0.180480	0.866900
O301	O30	0.896100	0.194630	0.017570
O311	O31	0.722500	0.927510	0.747110
O321	O32	0.112800	0.930450	0.545890
