data_MIMVEJ_freeONLY_PM
_symmetry_space_group_name_H-M	'P1'
_cell_length_a	6.918320
_cell_length_b	15.488700
_cell_length_c	15.488700
_cell_angle_alpha	87.141000
_cell_angle_beta	77.095100
_cell_angle_gamma	77.095100
_symmetry_Int_Tables_number 1

loop_
_symmetry_equiv_pos_as_xyz
'x,y,z'

loop_
_atom_site_label
_atom_site_type_symbol
_atom_site_fract_x
_atom_site_fract_y
_atom_site_fract_z
Zn11	Zn1	0.125000	0.760770	0.739230
Zn21	Zn2	0.625000	0.239230	0.260770
Zn31	Zn3	0.135770	0.739230	0.239230
Zn41	Zn4	0.114230	0.260770	0.760770
H11	H1	0.573800	0.737500	0.152500
H21	H2	0.776600	0.747400	0.011200
H31	H3	0.636900	0.752100	0.887500
H41	H4	0.097200	0.745500	0.050900
H51	H5	0.463800	0.262500	0.847500
H61	H6	0.535200	0.252600	0.988800
H71	H7	0.276500	0.247900	0.112500
H81	H8	0.893600	0.254500	0.949100
H91	H9	0.273700	0.152500	0.262500
H101	H10	0.212200	0.011200	0.252600
H111	H11	0.475600	0.887500	0.247900
H121	H12	0.851900	0.050900	0.254500
H131	H13	0.688700	0.847500	0.737500
H141	H14	0.476000	0.988800	0.747400
H151	H15	0.611000	0.112500	0.752100
H161	H16	0.157300	0.949100	0.745500
H171	H17	0.786200	0.652500	0.237500
H181	H18	0.714800	0.511200	0.247400
H191	H19	0.973500	0.387500	0.252100
H201	H20	0.356400	0.550900	0.245500
H211	H21	0.676200	0.347500	0.762500
H221	H22	0.473400	0.488800	0.752600
H231	H23	0.613100	0.612500	0.747900
H241	H24	0.152800	0.449100	0.754500
H251	H25	0.561300	0.762500	0.652500
H261	H26	0.774000	0.752600	0.511200
H271	H27	0.639000	0.747900	0.387500
H281	H28	0.092700	0.754500	0.550900
H291	H29	0.976300	0.237500	0.347500
H301	H30	0.037800	0.247400	0.488800
H311	H31	0.774400	0.252100	0.612500
H321	H32	0.398100	0.245500	0.449100
C11	C1	0.514300	0.741700	0.102500
C21	C2	0.637100	0.746700	0.017900
C31	C3	0.554500	0.750400	0.945200
C41	C4	0.348000	0.751700	0.956300
C51	C5	0.237000	0.746500	0.042500
C61	C6	0.247300	0.758100	0.880900
C71	C7	0.358500	0.258300	0.897500
C81	C8	0.401700	0.253300	0.982100
C91	C9	0.250100	0.249600	0.054800
C101	C10	0.056000	0.248300	0.043700
C111	C11	0.026000	0.253500	0.957500
C121	C12	0.886300	0.241900	0.119100
C131	C13	0.383200	0.102500	0.258300
C141	C14	0.345000	0.017900	0.253300
C151	C15	0.500300	0.945200	0.249600
C161	C16	0.695700	0.956300	0.248300
C171	C17	0.720500	0.042500	0.253500
C181	C18	0.871800	0.880900	0.241900
C191	C19	0.744000	0.897500	0.741700
C201	C20	0.616200	0.982100	0.746700
C211	C21	0.695100	0.054800	0.750400
C221	C22	0.900300	0.043700	0.751700
C231	C23	0.016500	0.957500	0.746500
C241	C24	0.994600	0.119100	0.758100
C251	C25	0.891500	0.602500	0.241700
C261	C26	0.848300	0.517900	0.246700
C271	C27	0.999900	0.445200	0.250400
C281	C28	0.194000	0.456300	0.251700
C291	C29	0.224000	0.542500	0.246500
C301	C30	0.363700	0.380900	0.258100
C311	C31	0.735700	0.397500	0.758300
C321	C32	0.612900	0.482100	0.753300
C331	C33	0.695500	0.554800	0.749600
C341	C34	0.902000	0.543700	0.748300
C351	C35	0.013000	0.457500	0.753500
C361	C36	0.002700	0.619100	0.741900
C371	C37	0.506000	0.758300	0.602500
C381	C38	0.633800	0.753300	0.517900
C391	C39	0.554900	0.749600	0.445200
C401	C40	0.349700	0.748300	0.456300
C411	C41	0.233500	0.753500	0.542500
C421	C42	0.255400	0.741900	0.380900
C431	C43	0.866800	0.241700	0.397500
C441	C44	0.905000	0.246700	0.482100
C451	C45	0.749700	0.250400	0.554800
C461	C46	0.554300	0.251700	0.543700
C471	C47	0.529500	0.246500	0.457500
C481	C48	0.378200	0.258100	0.619100
N11	N1	0.316700	0.742700	0.114700
N21	N2	0.174100	0.257300	0.885300
N31	N3	0.568600	0.114700	0.257300
N41	N4	0.940600	0.885300	0.742700
N51	N5	0.075900	0.614700	0.242700
N61	N6	0.933300	0.385300	0.757300
N71	N7	0.309400	0.757300	0.614700
N81	N8	0.681400	0.242700	0.385300
O11	O1	0.346890	0.771610	0.804410
O21	O2	0.065670	0.750870	0.893990
O31	O3	0.922910	0.228390	0.195590
O41	O4	0.710530	0.249130	0.106010
O51	O5	0.848700	0.804410	0.228390
O61	O6	0.040340	0.893990	0.249130
O71	O7	0.881500	0.195590	0.771610
O81	O8	0.183460	0.106010	0.750870
O91	O9	0.327090	0.304410	0.271610
O101	O10	0.539470	0.393990	0.250870
O111	O11	0.903110	0.695590	0.728390
O121	O12	0.184330	0.606010	0.749130
O131	O13	0.368500	0.728390	0.304410
O141	O14	0.066540	0.749130	0.393990
O151	O15	0.401300	0.271610	0.695590
O161	O16	0.209660	0.250870	0.606010
