data_MINVOU_freeONLY_PM
_symmetry_space_group_name_H-M	'P1'
_cell_length_a	17.340000
_cell_length_b	6.822000
_cell_length_c	12.178000
_cell_angle_alpha	90.000000
_cell_angle_beta	90.000000
_cell_angle_gamma	90.000000
_symmetry_Int_Tables_number 1

loop_
_symmetry_equiv_pos_as_xyz
'x,y,z'

loop_
_atom_site_label
_atom_site_type_symbol
_atom_site_fract_x
_atom_site_fract_y
_atom_site_fract_z
O11	O1	0.089000	0.913000	0.089000
O21	O2	0.427000	0.910000	0.388000
C11	C1	0.229000	0.922000	0.198000
C21	C2	0.295000	0.920000	0.264000
O31	O3	0.411000	0.087000	0.589000
O41	O4	0.073000	0.090000	0.888000
C31	C3	0.271000	0.078000	0.698000
C41	C4	0.205000	0.080000	0.764000
O51	O5	0.911000	0.413000	0.911000
O61	O6	0.573000	0.410000	0.612000
C51	C5	0.771000	0.422000	0.802000
C61	C6	0.705000	0.420000	0.736000
O71	O7	0.589000	0.587000	0.411000
O81	O8	0.927000	0.590000	0.112000
C71	C7	0.729000	0.578000	0.302000
C81	C8	0.795000	0.580000	0.236000
O91	O9	0.911000	0.087000	0.911000
O101	O10	0.573000	0.090000	0.612000
C91	C9	0.771000	0.078000	0.802000
C101	C10	0.705000	0.080000	0.736000
O111	O11	0.589000	0.913000	0.411000
O121	O12	0.927000	0.910000	0.112000
C111	C11	0.729000	0.922000	0.302000
C121	C12	0.795000	0.920000	0.236000
O131	O13	0.089000	0.587000	0.089000
O141	O14	0.427000	0.590000	0.388000
C131	C13	0.229000	0.578000	0.198000
C141	C14	0.295000	0.580000	0.264000
O151	O15	0.411000	0.413000	0.589000
O161	O16	0.073000	0.410000	0.888000
C151	C15	0.271000	0.422000	0.698000
C161	C16	0.205000	0.420000	0.764000
Cr11	Cr1	0.000000	0.000000	0.000000
Cr21	Cr2	0.500000	0.000000	0.500000
Cr31	Cr3	0.000000	0.500000	0.000000
Cr41	Cr4	0.500000	0.500000	0.500000
O171	O17	0.002000	0.750000	0.922000
C171	C17	0.392000	0.750000	0.357000
C181	C18	0.123000	0.750000	0.117000
C191	C19	0.329000	0.750000	0.287000
C201	C20	0.191000	0.750000	0.180000
O181	O18	0.498000	0.250000	0.422000
C211	C21	0.108000	0.250000	0.857000
C221	C22	0.377000	0.250000	0.617000
C231	C23	0.171000	0.250000	0.787000
C241	C24	0.309000	0.250000	0.680000
O191	O19	0.998000	0.250000	0.078000
C251	C25	0.608000	0.250000	0.643000
C261	C26	0.877000	0.250000	0.883000
C271	C27	0.671000	0.250000	0.713000
C281	C28	0.809000	0.250000	0.820000
O201	O20	0.502000	0.750000	0.578000
C291	C29	0.892000	0.750000	0.143000
C301	C30	0.623000	0.750000	0.383000
C311	C31	0.829000	0.750000	0.213000
C321	C32	0.691000	0.750000	0.320000
