data_MISQIQ02_freeONLY_PM
_symmetry_space_group_name_H-M	'P1'
_cell_length_a	9.339200
_cell_length_b	9.339200
_cell_length_c	6.994200
_cell_angle_alpha	90.000000
_cell_angle_beta	90.000000
_cell_angle_gamma	120.000000
_symmetry_Int_Tables_number 1

loop_
_symmetry_equiv_pos_as_xyz
'x,y,z'

loop_
_atom_site_label
_atom_site_type_symbol
_atom_site_fract_x
_atom_site_fract_y
_atom_site_fract_z
O11	O1	0.851500	0.278400	0.126000
O21	O2	0.967300	0.533170	0.336400
Al11	Al1	0.640880	0.161990	0.222980
O31	O3	0.571100	0.301300	0.126800
H11	H1	0.536700	0.351000	0.209300
O41	O4	0.721600	0.573100	0.459330
O51	O5	0.466830	0.434130	0.669730
Al21	Al2	0.838010	0.478890	0.556310
O61	O6	0.698700	0.269800	0.460130
H21	H2	0.649000	0.185700	0.542630
O71	O7	0.426900	0.148500	0.792670
O81	O8	0.565870	0.032700	0.003070
Al31	Al3	0.521110	0.359120	0.889650
O91	O9	0.730200	0.428900	0.793470
H31	H3	0.814300	0.463300	0.875970
O101	O10	0.278400	0.851500	0.874000
O111	O11	0.533170	0.967300	0.663600
Al41	Al4	0.161990	0.640880	0.777020
O121	O12	0.301300	0.571100	0.873200
H41	H4	0.351000	0.536700	0.790700
O131	O13	0.573100	0.721600	0.540670
O141	O14	0.434130	0.466830	0.330270
Al51	Al5	0.478890	0.838010	0.443690
O151	O15	0.269800	0.698700	0.539870
H51	H5	0.185700	0.649000	0.457370
O161	O16	0.148500	0.426900	0.207330
O171	O17	0.032700	0.565870	0.996930
Al61	Al6	0.359120	0.521110	0.110350
O181	O18	0.428900	0.730200	0.206530
H61	H6	0.463300	0.814300	0.124030
P11	P1	0.000000	0.449420	0.166670
P21	P2	0.550580	0.550580	0.500000
P31	P3	0.449420	0.000000	0.833330
F11	F1	0.682200	0.000000	0.333330
F21	F2	0.431600	0.000000	0.333330
F31	F3	0.000000	0.682200	0.666670
F41	F4	0.000000	0.431600	0.666670
F51	F5	0.317800	0.317800	0.000000
F61	F6	0.568400	0.568400	0.000000
