data_MITSIS_charged_PM
_symmetry_space_group_name_H-M	'P1'
_cell_length_a	10.243000
_cell_length_b	17.971000
_cell_length_c	36.485000
_cell_angle_alpha	90.000000
_cell_angle_beta	90.000000
_cell_angle_gamma	99.753000
_symmetry_Int_Tables_number 1

loop_
_symmetry_equiv_pos_as_xyz
'x,y,z'

loop_
_atom_site_label
_atom_site_type_symbol
_atom_site_fract_x
_atom_site_fract_y
_atom_site_fract_z
Cd11	Cd1	0.374500	0.552700	0.969390
Cd21	Cd2	0.157810	0.004190	0.995200
Cd31	Cd3	0.475080	0.153010	0.796920
Cd41	Cd4	0.625500	0.947300	0.469390
Cd51	Cd5	0.842190	0.495810	0.495200
Cd61	Cd6	0.524920	0.346990	0.296920
Cd71	Cd7	0.625500	0.447300	0.030610
Cd81	Cd8	0.842190	0.995810	0.004800
Cd91	Cd9	0.524920	0.846990	0.203080
Cd101	Cd10	0.374500	0.052700	0.530610
Cd111	Cd11	0.157810	0.504190	0.504800
Cd121	Cd12	0.475080	0.653010	0.703080
H11	H1	0.262800	0.258200	0.011700
H21	H2	0.869700	0.244900	0.016900
H31	H3	0.106400	0.445600	0.021800
H41	H4	0.421300	0.378500	0.874900
H51	H5	0.484200	0.416200	0.767800
H61	H6	0.423800	0.584700	0.834100
H71	H7	0.754500	0.067700	0.887400
H81	H8	0.144500	0.064800	0.882100
H91	H9	0.969800	0.149900	0.798500
H101	H10	0.737200	0.241800	0.511700
H111	H11	0.130300	0.255100	0.516900
H121	H12	0.893600	0.054400	0.521800
H131	H13	0.578700	0.121500	0.374900
H141	H14	0.515800	0.083800	0.267800
H151	H15	0.576200	0.915300	0.334100
H161	H16	0.245500	0.432300	0.387400
H171	H17	0.855500	0.435200	0.382100
H181	H18	0.030200	0.350100	0.298500
H191	H19	0.737200	0.741800	0.988300
H201	H20	0.130300	0.755100	0.983100
H211	H21	0.893600	0.554400	0.978200
H221	H22	0.578700	0.621500	0.125100
H231	H23	0.515800	0.583800	0.232200
H241	H24	0.576200	0.415300	0.165900
H251	H25	0.245500	0.932300	0.112600
H261	H26	0.855500	0.935200	0.117900
H271	H27	0.030200	0.850100	0.201500
H281	H28	0.262800	0.758200	0.488300
H291	H29	0.869700	0.744900	0.483100
H301	H30	0.106400	0.945600	0.478200
H311	H31	0.421300	0.878500	0.625100
H321	H32	0.484200	0.916200	0.732200
H331	H33	0.423800	0.084700	0.665900
H341	H34	0.754500	0.567700	0.612600
H351	H35	0.144500	0.564800	0.617900
H361	H36	0.969800	0.649900	0.701500
C11	C1	0.342300	0.404500	0.017460
C21	C2	0.204900	0.358700	0.016900
C31	C3	0.188500	0.281400	0.013420
C41	C4	0.064700	0.238000	0.012420
C51	C5	0.047400	0.153200	0.009570
C61	C6	0.954200	0.273700	0.016400
C71	C7	0.969300	0.350500	0.019620
C81	C8	0.849300	0.387400	0.023840
C91	C9	0.095800	0.393300	0.019760
C101	C10	0.401900	0.513300	0.898100
C111	C11	0.421400	0.485100	0.860800
C121	C12	0.431700	0.411500	0.855020
C131	C13	0.457200	0.383400	0.820520
C141	C14	0.473800	0.303200	0.815480
C151	C15	0.467100	0.433300	0.791040
C161	C16	0.451800	0.508600	0.795720
C171	C17	0.459200	0.559600	0.763300
C181	C18	0.431200	0.534300	0.830570
C191	C19	0.717600	0.128400	0.822700
C201	C20	0.840200	0.109200	0.840210
C211	C21	0.834700	0.077700	0.874840
C221	C22	0.948400	0.061100	0.890700
C231	C23	0.942800	0.030500	0.929400
C241	C24	0.067900	0.076200	0.871400
C251	C25	0.074200	0.106700	0.837900
C261	C26	0.209500	0.121800	0.819500
C271	C27	0.963900	0.126300	0.821300
C281	C28	0.657700	0.095500	0.517460
C291	C29	0.795100	0.141300	0.516900
C301	C30	0.811500	0.218600	0.513420
C311	C31	0.935300	0.262000	0.512420
C321	C32	0.952600	0.346800	0.509570
C331	C33	0.045800	0.226300	0.516400
C341	C34	0.030700	0.149500	0.519620
C351	C35	0.150700	0.112600	0.523840
C361	C36	0.904200	0.106700	0.519760
C371	C37	0.598100	0.986700	0.398100
C381	C38	0.578600	0.014900	0.360800
C391	C39	0.568300	0.088500	0.355020
C401	C40	0.542800	0.116600	0.320520
C411	C41	0.526200	0.196800	0.315480
C421	C42	0.532900	0.066700	0.291040
C431	C43	0.548200	0.991400	0.295720
C441	C44	0.540800	0.940400	0.263300
C451	C45	0.568800	0.965700	0.330570
C461	C46	0.282400	0.371600	0.322700
C471	C47	0.159800	0.390800	0.340210
C481	C48	0.165300	0.422300	0.374840
C491	C49	0.051600	0.438900	0.390700
C501	C50	0.057200	0.469500	0.429400
C511	C51	0.932100	0.423800	0.371400
C521	C52	0.925800	0.393300	0.337900
C531	C53	0.790500	0.378200	0.319500
C541	C54	0.036100	0.373700	0.321300
C551	C55	0.657700	0.595500	0.982540
C561	C56	0.795100	0.641300	0.983100
C571	C57	0.811500	0.718600	0.986580
C581	C58	0.935300	0.762000	0.987580
C591	C59	0.952600	0.846800	0.990430
C601	C60	0.045800	0.726300	0.983600
C611	C61	0.030700	0.649500	0.980380
C621	C62	0.150700	0.612600	0.976160
C631	C63	0.904200	0.606700	0.980240
C641	C64	0.598100	0.486700	0.101900
C651	C65	0.578600	0.514900	0.139200
C661	C66	0.568300	0.588500	0.144980
C671	C67	0.542800	0.616600	0.179480
C681	C68	0.526200	0.696800	0.184520
C691	C69	0.532900	0.566700	0.208960
C701	C70	0.548200	0.491400	0.204280
C711	C71	0.540800	0.440400	0.236700
C721	C72	0.568800	0.465700	0.169430
C731	C73	0.282400	0.871600	0.177300
C741	C74	0.159800	0.890800	0.159790
C751	C75	0.165300	0.922300	0.125160
C761	C76	0.051600	0.938900	0.109300
C771	C77	0.057200	0.969500	0.070600
C781	C78	0.932100	0.923800	0.128600
C791	C79	0.925800	0.893300	0.162100
C801	C80	0.790500	0.878200	0.180500
C811	C81	0.036100	0.873700	0.178700
C821	C82	0.342300	0.904500	0.482540
C831	C83	0.204900	0.858700	0.483100
C841	C84	0.188500	0.781400	0.486580
C851	C85	0.064700	0.738000	0.487580
C861	C86	0.047400	0.653200	0.490430
C871	C87	0.954200	0.773700	0.483600
C881	C88	0.969300	0.850500	0.480380
C891	C89	0.849300	0.887400	0.476160
C901	C90	0.095800	0.893300	0.480240
C911	C91	0.401900	0.013300	0.601900
C921	C92	0.421400	0.985100	0.639200
C931	C93	0.431700	0.911500	0.644980
C941	C94	0.457200	0.883400	0.679480
C951	C95	0.473800	0.803200	0.684520
C961	C96	0.467100	0.933300	0.708960
C971	C97	0.451800	0.008600	0.704280
C981	C98	0.459200	0.059600	0.736700
C991	C99	0.431200	0.034300	0.669430
C1001	C100	0.717600	0.628400	0.677300
C1011	C101	0.840200	0.609200	0.659790
C1021	C102	0.834700	0.577700	0.625160
C1031	C103	0.948400	0.561100	0.609300
C1041	C104	0.942800	0.530500	0.570600
C1051	C105	0.067900	0.576200	0.628600
C1061	C106	0.074200	0.606700	0.662100
C1071	C107	0.209500	0.621800	0.680500
C1081	C108	0.963900	0.626300	0.678700
O11	O1	0.356200	0.474930	0.018150
O21	O2	0.437800	0.369300	0.018700
O31	O3	0.386700	0.466300	0.924380
O41	O4	0.400000	0.581100	0.904010
O51	O5	0.150700	0.125700	0.004600
O61	O6	0.931700	0.117900	0.010940
O71	O7	0.480700	0.278000	0.784040
O81	O8	0.480600	0.263400	0.843020
O91	O9	0.723000	0.164400	0.794240
O101	O10	0.609000	0.105300	0.839370
O111	O11	0.467700	0.629900	0.767940
O121	O12	0.459300	0.531200	0.732150
O131	O13	0.861600	0.454000	0.034350
O141	O14	0.738200	0.350100	0.016160
O151	O15	0.218200	0.154300	0.789500
O161	O16	0.301700	0.101400	0.833500
O171	O17	0.054200	0.021000	0.942110
O181	O18	0.832300	0.019200	0.945930
O191	O19	0.643800	0.025070	0.518150
O201	O20	0.562200	0.130700	0.518700
O211	O21	0.613300	0.033700	0.424380
O221	O22	0.600000	0.918900	0.404010
O231	O23	0.849300	0.374300	0.504600
O241	O24	0.068300	0.382100	0.510940
O251	O25	0.519300	0.222000	0.284040
O261	O26	0.519400	0.236600	0.343020
O271	O27	0.277000	0.335600	0.294240
O281	O28	0.391000	0.394700	0.339370
O291	O29	0.532300	0.870100	0.267940
O301	O30	0.540700	0.968800	0.232150
O311	O31	0.138400	0.046000	0.534350
O321	O32	0.261800	0.149900	0.516160
O331	O33	0.781800	0.345700	0.289500
O341	O34	0.698300	0.398600	0.333500
O351	O35	0.945800	0.479000	0.442110
O361	O36	0.167700	0.480800	0.445930
O371	O37	0.643800	0.525070	0.981850
O381	O38	0.562200	0.630700	0.981300
O391	O39	0.613300	0.533700	0.075620
O401	O40	0.600000	0.418900	0.095990
O411	O41	0.849300	0.874300	0.995400
O421	O42	0.068300	0.882100	0.989060
O431	O43	0.519300	0.722000	0.215960
O441	O44	0.519400	0.736600	0.156980
O451	O45	0.277000	0.835600	0.205760
O461	O46	0.391000	0.894700	0.160630
O471	O47	0.532300	0.370100	0.232060
O481	O48	0.540700	0.468800	0.267850
O491	O49	0.138400	0.546000	0.965650
O501	O50	0.261800	0.649900	0.983840
O511	O51	0.781800	0.845700	0.210500
O521	O52	0.698300	0.898600	0.166500
O531	O53	0.945800	0.979000	0.057890
O541	O54	0.167700	0.980800	0.054070
O551	O55	0.356200	0.974930	0.481850
O561	O56	0.437800	0.869300	0.481300
O571	O57	0.386700	0.966300	0.575620
O581	O58	0.400000	0.081100	0.595990
O591	O59	0.150700	0.625700	0.495400
O601	O60	0.931700	0.617900	0.489060
O611	O61	0.480700	0.778000	0.715960
O621	O62	0.480600	0.763400	0.656980
O631	O63	0.723000	0.664400	0.705760
O641	O64	0.609000	0.605300	0.660630
O651	O65	0.467700	0.129900	0.732060
O661	O66	0.459300	0.031200	0.767850
O671	O67	0.861600	0.954000	0.465650
O681	O68	0.738200	0.850100	0.483840
O691	O69	0.218200	0.654300	0.710500
O701	O70	0.301700	0.601400	0.666500
O711	O71	0.054200	0.521000	0.557890
O721	O72	0.832300	0.519200	0.554070
H371	H37	0.496000	0.357600	0.936400
H381	H38	0.585700	0.319000	0.962400
H391	H39	0.692400	0.418900	0.938400
H401	H40	0.658900	0.386100	0.899000
H411	H41	0.748900	0.347600	0.925200
H421	H42	0.702500	0.235500	0.902500
H431	H43	0.594300	0.162400	0.900600
H441	H44	0.731700	0.152500	0.953500
H451	H45	0.589100	0.158100	0.967600
H461	H46	0.701100	0.229300	0.968800
H471	H47	0.381100	0.157200	0.919300
H481	H48	0.392400	0.203200	0.955700
H491	H49	0.180700	0.202100	0.929000
H501	H50	0.246400	0.241500	0.893600
H511	H51	0.255400	0.285700	0.930800
C1091	C109	0.569200	0.329800	0.937000
C1101	C110	0.674400	0.373500	0.924000
C1111	C111	0.625400	0.207700	0.914800
C1121	C112	0.665900	0.184600	0.955200
C1131	C113	0.388600	0.207800	0.929200
C1141	C114	0.255000	0.237200	0.919700
N11	N1	0.524900	0.252600	0.916500
H521	H52	0.504000	0.142400	0.436400
H531	H53	0.414300	0.181000	0.462400
H541	H54	0.307600	0.081100	0.438400
H551	H55	0.341100	0.113900	0.399000
H561	H56	0.251100	0.152400	0.425200
H571	H57	0.297500	0.264500	0.402500
H581	H58	0.405700	0.337600	0.400600
H591	H59	0.268300	0.347500	0.453500
H601	H60	0.410900	0.341900	0.467600
H611	H61	0.298900	0.270700	0.468800
H621	H62	0.618900	0.342800	0.419300
H631	H63	0.607600	0.296800	0.455700
H641	H64	0.819300	0.297900	0.429000
H651	H65	0.753600	0.258500	0.393600
H661	H66	0.744600	0.214300	0.430800
C1151	C115	0.430800	0.170200	0.437000
C1161	C116	0.325600	0.126500	0.424000
C1171	C117	0.374600	0.292300	0.414800
C1181	C118	0.334100	0.315400	0.455200
C1191	C119	0.611400	0.292200	0.429200
C1201	C120	0.745000	0.262800	0.419700
N21	N2	0.475100	0.247400	0.416500
H671	H67	0.504000	0.642400	0.063600
H681	H68	0.414300	0.681000	0.037600
H691	H69	0.307600	0.581100	0.061600
H701	H70	0.341100	0.613900	0.101000
H711	H71	0.251100	0.652400	0.074800
H721	H72	0.297500	0.764500	0.097500
H731	H73	0.405700	0.837600	0.099400
H741	H74	0.268300	0.847500	0.046500
H751	H75	0.410900	0.841900	0.032400
H761	H76	0.298900	0.770700	0.031200
H771	H77	0.618900	0.842800	0.080700
H781	H78	0.607600	0.796800	0.044300
H791	H79	0.819300	0.797900	0.071000
H801	H80	0.753600	0.758500	0.106400
H811	H81	0.744600	0.714300	0.069200
C1211	C121	0.430800	0.670200	0.063000
C1221	C122	0.325600	0.626500	0.076000
C1231	C123	0.374600	0.792300	0.085200
C1241	C124	0.334100	0.815400	0.044800
C1251	C125	0.611400	0.792200	0.070800
C1261	C126	0.745000	0.762800	0.080300
N31	N3	0.475100	0.747400	0.083500
H821	H82	0.496000	0.857600	0.563600
H831	H83	0.585700	0.819000	0.537600
H841	H84	0.692400	0.918900	0.561600
H851	H85	0.658900	0.886100	0.601000
H861	H86	0.748900	0.847600	0.574800
H871	H87	0.702500	0.735500	0.597500
H881	H88	0.594300	0.662400	0.599400
H891	H89	0.731700	0.652500	0.546500
H901	H90	0.589100	0.658100	0.532400
H911	H91	0.701100	0.729300	0.531200
H921	H92	0.381100	0.657200	0.580700
H931	H93	0.392400	0.703200	0.544300
H941	H94	0.180700	0.702100	0.571000
H951	H95	0.246400	0.741500	0.606400
H961	H96	0.255400	0.785700	0.569200
C1271	C127	0.569200	0.829800	0.563000
C1281	C128	0.674400	0.873500	0.576000
C1291	C129	0.625400	0.707700	0.585200
C1301	C130	0.665900	0.684600	0.544800
C1311	C131	0.388600	0.707800	0.570800
C1321	C132	0.255000	0.737200	0.580300
N41	N4	0.524900	0.752600	0.583500
