data_MIXKUB_freeONLY_PM
_symmetry_space_group_name_H-M	'P1'
_cell_length_a	8.570700
_cell_length_b	9.898500
_cell_length_c	14.281200
_cell_angle_alpha	104.986000
_cell_angle_beta	102.291000
_cell_angle_gamma	91.286000
_symmetry_Int_Tables_number 1

loop_
_symmetry_equiv_pos_as_xyz
'x,y,z'

loop_
_atom_site_label
_atom_site_type_symbol
_atom_site_fract_x
_atom_site_fract_y
_atom_site_fract_z
Zn11	Zn1	0.336950	0.639360	0.661210
Zn21	Zn2	0.663050	0.360640	0.338790
Zn31	Zn3	0.332200	0.416130	0.461720
Zn41	Zn4	0.667800	0.583870	0.538280
H11	H1	0.888200	0.764700	0.314200
H21	H2	0.981000	0.341800	0.701900
H31	H3	0.019000	0.658200	0.298100
H41	H4	0.801700	0.564300	0.752300
H51	H5	0.108600	0.151600	0.377900
H61	H6	0.317600	0.937600	0.121800
H71	H7	0.198300	0.435700	0.247700
H81	H8	0.986000	0.146200	0.518400
H91	H9	0.014000	0.853800	0.481600
H101	H10	0.633500	0.770100	0.013700
H111	H11	0.140900	0.861000	0.418000
H121	H12	0.587700	0.038900	0.599000
H131	H13	0.503200	0.928300	0.738600
H141	H14	0.859100	0.139000	0.582000
H151	H15	0.682400	0.062400	0.878200
H161	H16	0.412300	0.961100	0.401000
H171	H17	0.975000	0.681900	0.897700
H181	H18	0.496800	0.071700	0.261400
H191	H19	0.454100	0.641600	0.872800
H201	H20	0.923900	0.029200	0.233100
H211	H21	0.545900	0.358400	0.127200
H221	H22	0.025000	0.318100	0.102300
H231	H23	0.076100	0.970800	0.766900
H241	H24	0.597700	0.998800	0.432600
H251	H25	0.891400	0.848400	0.622100
H261	H26	0.366500	0.229900	0.986300
H271	H27	0.402300	0.001200	0.567400
H281	H28	0.111800	0.235300	0.685800
C11	C1	0.074500	0.797600	0.437800
C21	C2	0.143800	0.351900	0.244800
C31	C3	0.980500	0.111200	0.234600
C41	C4	0.529900	0.894600	0.794500
C51	C5	0.637100	0.976200	0.878400
C61	C6	0.957700	0.160400	0.152800
C71	C7	0.391800	0.195400	0.041900
C81	C8	0.925500	0.202400	0.562200
C91	C9	0.608200	0.804600	0.958100
C101	C10	0.820300	0.289500	0.507100
C111	C11	0.019500	0.888800	0.765400
C121	C12	0.508300	0.957000	0.450100
C131	C13	0.674500	0.928800	0.960400
C141	C14	0.958600	0.705600	0.345400
C151	C15	0.534700	0.804200	0.443800
C161	C16	0.042300	0.839600	0.847200
C171	C17	0.908700	0.813800	0.677800
C181	C18	0.362900	0.023800	0.121600
C191	C19	0.465300	0.195800	0.556200
C201	C20	0.856200	0.648100	0.755200
C211	C21	0.141000	0.401900	0.630000
C221	C22	0.501400	0.727100	0.872800
C231	C23	0.039600	0.282400	0.157500
C241	C24	0.960400	0.717600	0.842500
C251	C25	0.498600	0.272900	0.127200
C261	C26	0.041400	0.294400	0.654600
C271	C27	0.325500	0.071200	0.039600
C281	C28	0.091300	0.186200	0.322200
C291	C29	0.859000	0.598100	0.370000
C301	C30	0.491700	0.043000	0.549900
C311	C31	0.179700	0.710500	0.492900
C321	C32	0.470100	0.105400	0.205500
N11	N1	0.170900	0.304600	0.326400
N21	N2	0.847700	0.096000	0.054200
N31	N3	0.211900	0.003100	0.940400
N41	N4	0.464700	0.771000	0.791200
N51	N5	0.535300	0.229000	0.208800
N61	N6	0.829100	0.695400	0.673600
N71	N7	0.788100	0.996900	0.059600
N81	N8	0.152300	0.904000	0.945800
O11	O1	0.505800	0.719100	0.359300
O21	O2	0.494200	0.280900	0.640700
O31	O3	0.845500	0.615500	0.456000
O41	O4	0.154500	0.384500	0.544000
O51	O5	0.776700	0.241300	0.413200
O61	O6	0.584900	0.772800	0.524300
O71	O7	0.511700	0.470900	0.400600
O81	O8	0.793200	0.491900	0.297700
O91	O9	0.218100	0.598700	0.443600
O101	O10	0.781900	0.401300	0.556400
O111	O11	0.415100	0.227200	0.475700
O121	O12	0.488300	0.529100	0.599400
O131	O13	0.206800	0.508100	0.702300
O141	O14	0.223300	0.758700	0.586800
