data_MODNOI_ion_b_PM
_symmetry_space_group_name_H-M	'P1'
_cell_length_a	13.718000
_cell_length_b	27.232000
_cell_length_c	13.639000
_cell_angle_alpha	90.000000
_cell_angle_beta	90.000000
_cell_angle_gamma	90.000000
_symmetry_Int_Tables_number 1

loop_
_symmetry_equiv_pos_as_xyz
'x,y,z'

loop_
_atom_site_label
_atom_site_type_symbol
_atom_site_fract_x
_atom_site_fract_y
_atom_site_fract_z
Cd11	Cd1	0.833740	0.873670	0.995990
Cd21	Cd2	0.470480	0.807520	0.137430
Cd31	Cd3	0.222450	0.925300	0.891990
N41	N4	0.680300	0.849800	0.042900
C51	C5	0.610300	0.834900	0.075100
N61	N6	0.894200	0.858100	0.153800
C71	C7	0.920100	0.841700	0.224500
N81	N8	0.990800	0.898200	0.948200
C91	C9	0.069800	0.904500	0.927500
N101	N10	0.779200	0.901400	0.841000
C111	C11	0.757100	0.910700	0.765400
N121	N12	0.377100	0.866900	0.037400
C131	C13	0.327700	0.887600	0.990000
N141	N14	0.800100	0.955300	0.050000
C151	C15	0.788100	0.994000	0.073600
N161	N16	0.871100	0.794900	0.944700
C171	C17	0.902400	0.760700	0.917100
N191	N19	0.545700	0.984100	0.248900
C201	C20	0.566400	0.948700	0.185600
H211	H21	0.592500	0.919400	0.208700
C221	C22	0.550300	0.954100	0.086400
H231	H23	0.568200	0.929400	0.043000
C241	C24	0.508200	0.995900	0.052900
C251	C25	0.488000	0.033400	0.119600
H261	H26	0.459900	0.062500	0.097700
C271	C27	0.508000	0.027600	0.216000
H281	H28	0.496600	0.053100	0.259800
C291	C29	0.564600	0.977000	0.357200
H301	H30	0.517900	0.954300	0.383600
H311	H31	0.558800	0.008000	0.390300
H321	H32	0.629200	0.964200	0.366500
Cd331	Cd33	0.666260	0.126330	0.495990
Cd341	Cd34	0.029520	0.192480	0.637430
Cd351	Cd35	0.277550	0.074700	0.391990
N361	N36	0.819700	0.150200	0.542900
C371	C37	0.889700	0.165100	0.575100
N381	N38	0.605800	0.141900	0.653800
C391	C39	0.579900	0.158300	0.724500
N401	N40	0.509200	0.101800	0.448200
C411	C41	0.430200	0.095500	0.427500
N421	N42	0.720800	0.098600	0.341000
C431	C43	0.742900	0.089300	0.265400
N441	N44	0.122900	0.133100	0.537400
C451	C45	0.172300	0.112400	0.490000
N461	N46	0.699900	0.044700	0.550000
C471	C47	0.711900	0.006000	0.573600
N481	N48	0.628900	0.205100	0.444700
C491	C49	0.597600	0.239300	0.417100
N511	N51	0.954300	0.015900	0.748900
C521	C52	0.933600	0.051300	0.685600
H531	H53	0.907500	0.080600	0.708700
C541	C54	0.949700	0.045900	0.586400
H551	H55	0.931800	0.070600	0.543000
C561	C56	0.991800	0.004100	0.552900
C571	C57	0.012000	0.966600	0.619600
H581	H58	0.040100	0.937500	0.597700
C591	C59	0.992000	0.972400	0.716000
H601	H60	0.003400	0.946900	0.759800
C611	C61	0.935400	0.023000	0.857200
H621	H62	0.982100	0.045700	0.883600
H631	H63	0.941200	0.992000	0.890300
H641	H64	0.870800	0.035800	0.866500
Cd651	Cd65	0.166260	0.373670	0.504010
Cd661	Cd66	0.529520	0.307520	0.362570
Cd671	Cd67	0.777550	0.425300	0.608010
N681	N68	0.319700	0.349800	0.457100
C691	C69	0.389700	0.334900	0.424900
N701	N70	0.105800	0.358100	0.346200
C711	C71	0.079900	0.341700	0.275500
N721	N72	0.009200	0.398200	0.551800
C731	C73	0.930200	0.404500	0.572500
N741	N74	0.220800	0.401400	0.659000
C751	C75	0.242900	0.410700	0.734600
N761	N76	0.622900	0.366900	0.462600
C771	C77	0.672300	0.387600	0.510000
N781	N78	0.199900	0.455300	0.450000
C791	C79	0.211900	0.494000	0.426400
N801	N80	0.128900	0.294900	0.555300
C811	C81	0.097600	0.260700	0.582900
N831	N83	0.454300	0.484100	0.251100
C841	C84	0.433600	0.448700	0.314400
H851	H85	0.407500	0.419400	0.291300
C861	C86	0.449700	0.454100	0.413600
H871	H87	0.431800	0.429400	0.457000
C881	C88	0.491800	0.495900	0.447100
C891	C89	0.512000	0.533400	0.380400
H901	H90	0.540100	0.562500	0.402300
C911	C91	0.492000	0.527600	0.284000
H921	H92	0.503400	0.553100	0.240200
C931	C93	0.435400	0.477000	0.142800
H941	H94	0.482100	0.454300	0.116400
H951	H95	0.441200	0.508000	0.109700
H961	H96	0.370800	0.464200	0.133500
Cd971	Cd97	0.333740	0.626330	0.004010
Cd981	Cd98	0.970480	0.692480	0.862570
Cd991	Cd99	0.722450	0.574700	0.108010
N1001	N100	0.180300	0.650200	0.957100
C1011	C101	0.110300	0.665100	0.924900
N1021	N102	0.394200	0.641900	0.846200
C1031	C103	0.420100	0.658300	0.775500
N1041	N104	0.490800	0.601800	0.051800
C1051	C105	0.569800	0.595500	0.072500
N1061	N106	0.279200	0.598600	0.159000
C1071	C107	0.257100	0.589300	0.234600
N1081	N108	0.877100	0.633100	0.962600
C1091	C109	0.827700	0.612400	0.010000
N1101	N110	0.300100	0.544700	0.950000
C1111	C111	0.288100	0.506000	0.926400
N1121	N112	0.371100	0.705100	0.055300
C1131	C113	0.402400	0.739300	0.082900
N1151	N115	0.045700	0.515900	0.751100
C1161	C116	0.066400	0.551300	0.814400
H1171	H117	0.092500	0.580600	0.791300
C1181	C118	0.050300	0.545900	0.913600
H1191	H119	0.068200	0.570600	0.957000
C1201	C120	0.008200	0.504100	0.947100
C1211	C121	0.988000	0.466600	0.880400
H1221	H122	0.959900	0.437500	0.902300
C1231	C123	0.008000	0.472400	0.784000
H1241	H124	0.996600	0.446900	0.740200
C1251	C125	0.064600	0.523000	0.642800
H1261	H126	0.017900	0.545700	0.616400
H1271	H127	0.058800	0.492000	0.609700
H1281	H128	0.129200	0.535800	0.633500
Cd1291	Cd129	0.166260	0.126330	0.004010
Cd1301	Cd130	0.529520	0.192480	0.862570
Cd1311	Cd131	0.777550	0.074700	0.108010
N1321	N132	0.319700	0.150200	0.957100
C1331	C133	0.389700	0.165100	0.924900
N1341	N134	0.105800	0.141900	0.846200
C1351	C135	0.079900	0.158300	0.775500
N1361	N136	0.009200	0.101800	0.051800
C1371	C137	0.930200	0.095500	0.072500
N1381	N138	0.220800	0.098600	0.159000
C1391	C139	0.242900	0.089300	0.234600
N1401	N140	0.622900	0.133100	0.962600
C1411	C141	0.672300	0.112400	0.010000
N1421	N142	0.199900	0.044700	0.950000
C1431	C143	0.211900	0.006000	0.926400
N1441	N144	0.128900	0.205100	0.055300
C1451	C145	0.097600	0.239300	0.082900
N1471	N147	0.454300	0.015900	0.751100
C1481	C148	0.433600	0.051300	0.814400
H1491	H149	0.407500	0.080600	0.791300
C1501	C150	0.449700	0.045900	0.913600
H1511	H151	0.431800	0.070600	0.957000
C1521	C152	0.491800	0.004100	0.947100
C1531	C153	0.512000	0.966600	0.880400
H1541	H154	0.540100	0.937500	0.902300
C1551	C155	0.492000	0.972400	0.784000
H1561	H156	0.503400	0.946900	0.740200
C1571	C157	0.435400	0.023000	0.642800
H1581	H158	0.482100	0.045700	0.616400
H1591	H159	0.441200	0.992000	0.609700
H1601	H160	0.370800	0.035800	0.633500
Cd1611	Cd161	0.333740	0.873670	0.504010
Cd1621	Cd162	0.970480	0.807520	0.362570
Cd1631	Cd163	0.722450	0.925300	0.608010
N1641	N164	0.180300	0.849800	0.457100
C1651	C165	0.110300	0.834900	0.424900
N1661	N166	0.394200	0.858100	0.346200
C1671	C167	0.420100	0.841700	0.275500
N1681	N168	0.490800	0.898200	0.551800
C1691	C169	0.569800	0.904500	0.572500
N1701	N170	0.279200	0.901400	0.659000
C1711	C171	0.257100	0.910700	0.734600
N1721	N172	0.877100	0.866900	0.462600
C1731	C173	0.827700	0.887600	0.510000
N1741	N174	0.300100	0.955300	0.450000
C1751	C175	0.288100	0.994000	0.426400
N1761	N176	0.371100	0.794900	0.555300
C1771	C177	0.402400	0.760700	0.582900
N1791	N179	0.045700	0.984100	0.251100
C1801	C180	0.066400	0.948700	0.314400
H1811	H181	0.092500	0.919400	0.291300
C1821	C182	0.050300	0.954100	0.413600
H1831	H183	0.068200	0.929400	0.457000
C1841	C184	0.008200	0.995900	0.447100
C1851	C185	0.988000	0.033400	0.380400
H1861	H186	0.959900	0.062500	0.402300
C1871	C187	0.008000	0.027600	0.284000
H1881	H188	0.996600	0.053100	0.240200
C1891	C189	0.064600	0.977000	0.142800
H1901	H190	0.017900	0.954300	0.116400
H1911	H191	0.058800	0.008000	0.109700
H1921	H192	0.129200	0.964200	0.133500
Cd1931	Cd193	0.833740	0.626330	0.495990
Cd1941	Cd194	0.470480	0.692480	0.637430
Cd1951	Cd195	0.222450	0.574700	0.391990
N1961	N196	0.680300	0.650200	0.542900
C1971	C197	0.610300	0.665100	0.575100
N1981	N198	0.894200	0.641900	0.653800
C1991	C199	0.920100	0.658300	0.724500
N2001	N200	0.990800	0.601800	0.448200
C2011	C201	0.069800	0.595500	0.427500
N2021	N202	0.779200	0.598600	0.341000
C2031	C203	0.757100	0.589300	0.265400
N2041	N204	0.377100	0.633100	0.537400
C2051	C205	0.327700	0.612400	0.490000
N2061	N206	0.800100	0.544700	0.550000
C2071	C207	0.788100	0.506000	0.573600
N2081	N208	0.871100	0.705100	0.444700
C2091	C209	0.902400	0.739300	0.417100
N2111	N211	0.545700	0.515900	0.748900
C2121	C212	0.566400	0.551300	0.685600
H2131	H213	0.592500	0.580600	0.708700
C2141	C214	0.550300	0.545900	0.586400
H2151	H215	0.568200	0.570600	0.543000
C2161	C216	0.508200	0.504100	0.552900
C2171	C217	0.488000	0.466600	0.619600
H2181	H218	0.459900	0.437500	0.597700
C2191	C219	0.508000	0.472400	0.716000
H2201	H220	0.496600	0.446900	0.759800
C2211	C221	0.564600	0.523000	0.857200
H2221	H222	0.517900	0.545700	0.883600
H2231	H223	0.558800	0.492000	0.890300
H2241	H224	0.629200	0.535800	0.866500
Cd2251	Cd225	0.666260	0.373670	0.995990
Cd2261	Cd226	0.029520	0.307520	0.137430
Cd2271	Cd227	0.277550	0.425300	0.891990
N2281	N228	0.819700	0.349800	0.042900
C2291	C229	0.889700	0.334900	0.075100
N2301	N230	0.605800	0.358100	0.153800
C2311	C231	0.579900	0.341700	0.224500
N2321	N232	0.509200	0.398200	0.948200
C2331	C233	0.430200	0.404500	0.927500
N2341	N234	0.720800	0.401400	0.841000
C2351	C235	0.742900	0.410700	0.765400
N2361	N236	0.122900	0.366900	0.037400
C2371	C237	0.172300	0.387600	0.990000
N2381	N238	0.699900	0.455300	0.050000
C2391	C239	0.711900	0.494000	0.073600
N2401	N240	0.628900	0.294900	0.944700
C2411	C241	0.597600	0.260700	0.917100
N2431	N243	0.954300	0.484100	0.248900
C2441	C244	0.933600	0.448700	0.185600
H2451	H245	0.907500	0.419400	0.208700
C2461	C246	0.949700	0.454100	0.086400
H2471	H247	0.931800	0.429400	0.043000
C2481	C248	0.991800	0.495900	0.052900
C2491	C249	0.012000	0.533400	0.119600
H2501	H250	0.040100	0.562500	0.097700
C2511	C251	0.992000	0.527600	0.216000
H2521	H252	0.003400	0.553100	0.259800
C2531	C253	0.935400	0.477000	0.357200
H2541	H254	0.982100	0.454300	0.383600
H2551	H255	0.941200	0.508000	0.390300
H2561	H256	0.870800	0.464200	0.366500
