data_MOLLII_freeONLY_PM
_symmetry_space_group_name_H-M	'P1'
_cell_length_a	12.815000
_cell_length_b	15.979000
_cell_length_c	6.770500
_cell_angle_alpha	90.000000
_cell_angle_beta	90.000000
_cell_angle_gamma	90.000000
_symmetry_Int_Tables_number 1

loop_
_symmetry_equiv_pos_as_xyz
'x,y,z'

loop_
_atom_site_label
_atom_site_type_symbol
_atom_site_fract_x
_atom_site_fract_y
_atom_site_fract_z
N11	N1	0.500000	0.290500	0.958000
C11	C1	0.500000	0.360000	0.851700
C21	C2	0.500000	0.219000	0.852200
N21	N2	0.000000	0.790500	0.958000
C31	C3	0.000000	0.860000	0.851700
C41	C4	0.000000	0.719000	0.852200
N31	N3	0.500000	0.290500	0.542000
C51	C5	0.500000	0.360000	0.648300
C61	C6	0.500000	0.219000	0.647800
N41	N4	0.000000	0.790500	0.542000
C71	C7	0.000000	0.860000	0.648300
C81	C8	0.000000	0.719000	0.647800
Fe11	Fe1	0.500000	0.289200	0.250000
Fe21	Fe2	0.000000	0.789200	0.250000
Ag11	Ag1	0.252600	0.038190	0.250000
N51	N5	0.395500	0.204300	0.250000
N61	N6	0.109000	0.877000	0.250000
C91	C9	0.336000	0.150000	0.250000
C101	C10	0.162000	0.934000	0.250000
Ag21	Ag2	0.752600	0.538190	0.250000
N71	N7	0.895500	0.704300	0.250000
N81	N8	0.609000	0.377000	0.250000
C111	C11	0.836000	0.650000	0.250000
C121	C12	0.662000	0.434000	0.250000
Ag31	Ag3	0.747400	0.038190	0.250000
N91	N9	0.604500	0.204300	0.250000
N101	N10	0.891000	0.877000	0.250000
C131	C13	0.664000	0.150000	0.250000
C141	C14	0.838000	0.934000	0.250000
Ag41	Ag4	0.247400	0.538190	0.250000
N111	N11	0.104500	0.704300	0.250000
N121	N12	0.391000	0.377000	0.250000
C151	C15	0.164000	0.650000	0.250000
C161	C16	0.338000	0.434000	0.250000
N131	N13	0.500000	0.709500	0.458000
C171	C17	0.500000	0.640000	0.351700
C181	C18	0.500000	0.781000	0.352200
N141	N14	0.000000	0.209500	0.458000
C191	C19	0.000000	0.140000	0.351700
C201	C20	0.000000	0.281000	0.352200
N151	N15	0.500000	0.709500	0.042000
C211	C21	0.500000	0.640000	0.148300
C221	C22	0.500000	0.781000	0.147800
N161	N16	0.000000	0.209500	0.042000
C231	C23	0.000000	0.140000	0.148300
C241	C24	0.000000	0.281000	0.147800
Fe31	Fe3	0.500000	0.710800	0.750000
Fe41	Fe4	0.000000	0.210800	0.750000
Ag51	Ag5	0.747400	0.961810	0.750000
N171	N17	0.604500	0.795700	0.750000
N181	N18	0.891000	0.123000	0.750000
C251	C25	0.664000	0.850000	0.750000
C261	C26	0.838000	0.066000	0.750000
Ag61	Ag6	0.247400	0.461810	0.750000
N191	N19	0.104500	0.295700	0.750000
N201	N20	0.391000	0.623000	0.750000
C271	C27	0.164000	0.350000	0.750000
C281	C28	0.338000	0.566000	0.750000
Ag71	Ag7	0.252600	0.961810	0.750000
N211	N21	0.395500	0.795700	0.750000
N221	N22	0.109000	0.123000	0.750000
C291	C29	0.336000	0.850000	0.750000
C301	C30	0.162000	0.066000	0.750000
Ag81	Ag8	0.752600	0.461810	0.750000
N231	N23	0.895500	0.295700	0.750000
N241	N24	0.609000	0.623000	0.750000
C311	C31	0.836000	0.350000	0.750000
C321	C32	0.662000	0.566000	0.750000
