data_MOPKEJ_freeONLY_PM
_symmetry_space_group_name_H-M	'P1'
_cell_length_a	9.151000
_cell_length_b	9.167100
_cell_length_c	9.313600
_cell_angle_alpha	77.930000
_cell_angle_beta	86.220000
_cell_angle_gamma	88.360000
_symmetry_Int_Tables_number 1

loop_
_symmetry_equiv_pos_as_xyz
'x,y,z'

loop_
_atom_site_label
_atom_site_type_symbol
_atom_site_fract_x
_atom_site_fract_y
_atom_site_fract_z
P11	P1	0.353350	0.831500	0.856170
P21	P2	0.187030	0.383040	0.899470
P31	P3	0.618760	0.371930	0.678520
Al11	Al1	0.437840	0.132940	0.911990
Al21	Al2	0.625820	0.396520	0.342370
Al31	Al3	0.841590	0.367830	0.923760
F11	F1	0.391700	0.988800	0.080200
O11	O1	0.202600	0.778400	0.929500
O21	O2	0.374900	0.771200	0.713600
O31	O3	0.470200	0.765800	0.960800
O41	O4	0.354400	0.000400	0.811300
O51	O5	0.265200	0.235600	0.929100
O61	O6	0.026800	0.358700	0.881800
O71	O7	0.200600	0.461000	0.028500
O81	O8	0.245700	0.484600	0.757900
O91	O9	0.506700	0.255900	0.740100
O101	O10	0.550800	0.528300	0.669000
O111	O11	0.753300	0.360000	0.767400
O121	O12	0.672400	0.356700	0.523800
O131	O13	0.387000	0.991000	0.097000
P41	P4	0.646650	0.168500	0.143830
P51	P5	0.812970	0.616960	0.100530
P61	P6	0.381240	0.628070	0.321480
Al41	Al4	0.562160	0.867060	0.088010
Al51	Al5	0.374180	0.603480	0.657630
Al61	Al6	0.158410	0.632170	0.076240
F21	F2	0.608300	0.011200	0.919800
O141	O14	0.797400	0.221600	0.070500
O151	O15	0.625100	0.228800	0.286400
O161	O16	0.529800	0.234200	0.039200
O171	O17	0.645600	0.999600	0.188700
O181	O18	0.734800	0.764400	0.070900
O191	O19	0.973200	0.641300	0.118200
O201	O20	0.799400	0.539000	0.971500
O211	O21	0.754300	0.515400	0.242100
O221	O22	0.493300	0.744100	0.259900
O231	O23	0.449200	0.471700	0.331000
O241	O24	0.246700	0.640000	0.232600
O251	O25	0.327600	0.643300	0.476200
O261	O26	0.613000	0.009000	0.903000
