data_MOQSIV_freeONLY_PM
_symmetry_space_group_name_H-M	'P1'
_cell_length_a	10.590300
_cell_length_b	13.362000
_cell_length_c	20.907000
_cell_angle_alpha	90.000000
_cell_angle_beta	90.000000
_cell_angle_gamma	113.346000
_symmetry_Int_Tables_number 1

loop_
_symmetry_equiv_pos_as_xyz
'x,y,z'

loop_
_atom_site_label
_atom_site_type_symbol
_atom_site_fract_x
_atom_site_fract_y
_atom_site_fract_z
Cd11	Cd1	0.403920	0.535200	0.435660
Cd21	Cd2	0.596080	0.464800	0.935660
Cd31	Cd3	0.131280	0.535200	0.064340
Cd41	Cd4	0.868720	0.464800	0.564340
H11	H1	0.219100	0.463200	0.646200
H21	H2	0.362700	0.374200	0.802200
H31	H3	0.554600	0.386000	0.747600
H41	H4	0.560100	0.378400	0.476100
H51	H5	0.420700	0.377200	0.304400
H61	H6	0.525100	0.246000	0.305900
H71	H7	0.722600	0.271400	0.451800
H81	H8	0.582100	0.169800	0.455600
H91	H9	0.510500	0.037200	0.368100
H101	H10	0.578000	0.958400	0.283100
H111	H11	0.951400	0.196800	0.288500
H121	H12	0.885600	0.283600	0.369600
H131	H13	0.917000	0.656800	0.047000
H141	H14	0.295200	0.812200	0.106600
H151	H15	0.189500	0.947000	0.102700
H161	H16	0.952900	0.914600	0.025600
H171	H17	0.833700	0.803600	0.043700
H181	H18	0.754500	0.777000	0.159900
H191	H19	0.714100	0.861600	0.249800
H201	H20	0.942500	0.151000	0.178900
H211	H21	0.000400	0.070400	0.092900
H221	H22	0.780900	0.536800	0.146200
H231	H23	0.637300	0.625800	0.302200
H241	H24	0.445400	0.614000	0.247600
H251	H25	0.439900	0.621600	0.976100
H261	H26	0.579300	0.622800	0.804400
H271	H27	0.474900	0.754000	0.805900
H281	H28	0.277400	0.728600	0.951800
H291	H29	0.417900	0.830200	0.955600
H301	H30	0.489500	0.962800	0.868100
H311	H31	0.422000	0.041600	0.783100
H321	H32	0.048600	0.803200	0.788500
H331	H33	0.114400	0.716400	0.869600
H341	H34	0.083000	0.343200	0.547000
H351	H35	0.704800	0.187800	0.606600
H361	H36	0.810500	0.053000	0.602700
H371	H37	0.047100	0.085400	0.525600
H381	H38	0.166300	0.196400	0.543700
H391	H39	0.245500	0.223000	0.659900
H401	H40	0.285900	0.138400	0.749800
H411	H41	0.057500	0.849000	0.678900
H421	H42	0.999600	0.929600	0.592900
H431	H43	0.244100	0.463200	0.853800
H441	H44	0.011500	0.374200	0.697800
H451	H45	0.831400	0.386000	0.752400
H461	H46	0.818300	0.378400	0.023900
H471	H47	0.956500	0.377200	0.195600
H481	H48	0.720900	0.246000	0.194100
H491	H49	0.548800	0.271400	0.048200
H501	H50	0.587700	0.169800	0.044400
H511	H51	0.526700	0.037200	0.131900
H521	H52	0.380400	0.958400	0.216900
H531	H53	0.245400	0.196800	0.211500
H541	H54	0.398000	0.283600	0.130400
H551	H55	0.739800	0.656800	0.453000
H561	H56	0.517000	0.812200	0.393400
H571	H57	0.757500	0.947000	0.397300
H581	H58	0.961700	0.914600	0.474400
H591	H59	0.969900	0.803600	0.456300
H601	H60	0.022500	0.777000	0.340100
H611	H61	0.147500	0.861600	0.250200
H621	H62	0.208500	0.151000	0.321100
H631	H63	0.070000	0.070400	0.407100
H641	H64	0.755900	0.536800	0.353800
H651	H65	0.988500	0.625800	0.197800
H661	H66	0.168600	0.614000	0.252400
H671	H67	0.181700	0.621600	0.523900
H681	H68	0.043500	0.622800	0.695600
H691	H69	0.279100	0.754000	0.694100
H701	H70	0.451200	0.728600	0.548200
H711	H71	0.412300	0.830200	0.544400
H721	H72	0.473300	0.962800	0.631900
H731	H73	0.619600	0.041600	0.716900
H741	H74	0.754600	0.803200	0.711500
H751	H75	0.602000	0.716400	0.630400
H761	H76	0.260200	0.343200	0.953000
H771	H77	0.483000	0.187800	0.893400
H781	H78	0.242500	0.053000	0.897300
H791	H79	0.038300	0.085400	0.974400
H801	H80	0.030100	0.196400	0.956300
H811	H81	0.977500	0.223000	0.840100
H821	H82	0.852500	0.138400	0.750200
H831	H83	0.791500	0.849000	0.821100
H841	H84	0.930000	0.929600	0.907100
C11	C1	0.416900	0.489200	0.562700
C21	C2	0.401800	0.455200	0.631800
C31	C3	0.288000	0.449000	0.666900
C41	C4	0.271500	0.422400	0.731800
C51	C5	0.372500	0.396200	0.759700
C61	C6	0.487400	0.401800	0.726600
C71	C7	0.505100	0.430600	0.662600
C81	C8	0.632100	0.433200	0.627700
C91	C9	0.538400	0.362000	0.433200
C101	C10	0.462100	0.361200	0.340000
C111	C11	0.520500	0.289000	0.340100
C121	C12	0.643900	0.224600	0.427000
C131	C13	0.690900	0.170400	0.376100
C141	C14	0.598700	0.070800	0.351300
C151	C15	0.641200	0.022600	0.300800
C161	C16	0.774800	0.066800	0.275800
C171	C17	0.861600	0.164600	0.303700
C181	C18	0.823400	0.218000	0.353000
C191	C19	0.998200	0.711000	0.061600
C201	C20	0.205100	0.797200	0.094400
C211	C21	0.148900	0.873400	0.092300
C221	C22	0.918100	0.860400	0.059200
C231	C23	0.883600	0.915000	0.119000
C241	C24	0.795600	0.852400	0.164200
C251	C25	0.768500	0.904000	0.217000
C261	C26	0.819300	0.015000	0.222200
C271	C27	0.905700	0.075400	0.175700
C281	C28	0.940200	0.027800	0.124000
C291	C29	0.583100	0.510800	0.062700
C301	C30	0.598200	0.544800	0.131800
C311	C31	0.712000	0.551000	0.166900
C321	C32	0.728500	0.577600	0.231800
C331	C33	0.627500	0.603800	0.259700
C341	C34	0.512600	0.598200	0.226600
C351	C35	0.494900	0.569400	0.162600
C361	C36	0.367900	0.566800	0.127700
C371	C37	0.461600	0.638000	0.933200
C381	C38	0.537900	0.638800	0.840000
C391	C39	0.479500	0.711000	0.840100
C401	C40	0.356100	0.775400	0.927000
C411	C41	0.309100	0.829600	0.876100
C421	C42	0.401300	0.929200	0.851300
C431	C43	0.358800	0.977400	0.800800
C441	C44	0.225200	0.933200	0.775800
C451	C45	0.138400	0.835400	0.803700
C461	C46	0.176600	0.782000	0.853000
C471	C47	0.001800	0.289000	0.561600
C481	C48	0.794900	0.202800	0.594400
C491	C49	0.851100	0.126600	0.592300
C501	C50	0.081900	0.139600	0.559200
C511	C51	0.116400	0.085000	0.619000
C521	C52	0.204400	0.147600	0.664200
C531	C53	0.231500	0.096000	0.717000
C541	C54	0.180700	0.985000	0.722200
C551	C55	0.094300	0.924600	0.675700
C561	C56	0.059800	0.972200	0.624000
C571	C57	0.072300	0.489200	0.937300
C581	C58	0.053400	0.455200	0.868200
C591	C59	0.161000	0.449000	0.833100
C601	C60	0.150900	0.422400	0.768200
C611	C61	0.023700	0.396200	0.740300
C621	C62	0.914400	0.401800	0.773400
C631	C63	0.925500	0.430600	0.837400
C641	C64	0.801100	0.433200	0.872300
C651	C65	0.823600	0.362000	0.066800
C661	C66	0.899100	0.361200	0.160000
C671	C67	0.768500	0.289000	0.159900
C681	C68	0.580700	0.224600	0.073000
C691	C69	0.479500	0.170400	0.123900
C701	C70	0.472100	0.070800	0.148700
C711	C71	0.381400	0.022600	0.199200
C721	C72	0.292000	0.066800	0.224200
C731	C73	0.303000	0.164600	0.196300
C741	C74	0.394600	0.218000	0.147000
C751	C75	0.712800	0.711000	0.438400
C761	C76	0.592100	0.797200	0.405600
C771	C77	0.724500	0.873400	0.407700
C781	C78	0.942300	0.860400	0.440800
C791	C79	0.031400	0.915000	0.381000
C801	C80	0.056800	0.852400	0.335800
C811	C81	0.135500	0.904000	0.283000
C821	C82	0.195700	0.015000	0.277800
C831	C83	0.169700	0.075400	0.324300
C841	C84	0.087600	0.027800	0.376000
C851	C85	0.927700	0.510800	0.437300
C861	C86	0.946600	0.544800	0.368200
C871	C87	0.839000	0.551000	0.333100
C881	C88	0.849100	0.577600	0.268200
C891	C89	0.976300	0.603800	0.240300
C901	C90	0.085600	0.598200	0.273400
C911	C91	0.074500	0.569400	0.337400
C921	C92	0.198900	0.566800	0.372300
C931	C93	0.176400	0.638000	0.566800
C941	C94	0.100900	0.638800	0.660000
C951	C95	0.231500	0.711000	0.659900
C961	C96	0.419300	0.775400	0.573000
C971	C97	0.520500	0.829600	0.623900
C981	C98	0.527900	0.929200	0.648700
C991	C99	0.618600	0.977400	0.699200
C1001	C100	0.708000	0.933200	0.724200
C1011	C101	0.697000	0.835400	0.696300
C1021	C102	0.605400	0.782000	0.647000
C1031	C103	0.287200	0.289000	0.938400
C1041	C104	0.407900	0.202800	0.905600
C1051	C105	0.275500	0.126600	0.907700
C1061	C106	0.057700	0.139600	0.940800
C1071	C107	0.968600	0.085000	0.881000
C1081	C108	0.943200	0.147600	0.835800
C1091	C109	0.864500	0.096000	0.783000
C1101	C110	0.804300	0.985000	0.777800
C1111	C111	0.830300	0.924600	0.824300
C1121	C112	0.912400	0.972200	0.876000
N11	N1	0.470600	0.407800	0.398300
N21	N2	0.572600	0.290200	0.400600
N31	N3	0.111400	0.695000	0.076300
N41	N4	0.016500	0.813600	0.070600
N51	N5	0.529400	0.592200	0.898300
N61	N6	0.427400	0.709800	0.900600
N71	N7	0.888600	0.305000	0.576300
N81	N8	0.983500	0.186400	0.570600
N91	N9	0.937200	0.407800	0.101700
N101	N10	0.717600	0.290200	0.099400
N111	N11	0.583600	0.695000	0.423700
N121	N12	0.797100	0.813600	0.429400
N131	N13	0.062800	0.592200	0.601700
N141	N14	0.282400	0.709800	0.599400
N151	N15	0.416400	0.305000	0.923700
N161	N16	0.202900	0.186400	0.929400
O11	O1	0.308000	0.459200	0.529600
O21	O2	0.531300	0.544800	0.541180
O31	O3	0.619500	0.369000	0.582500
O41	O4	0.746000	0.500600	0.646000
O51	O5	0.692000	0.540800	0.029600
O61	O6	0.468700	0.455200	0.041180
O71	O7	0.380500	0.631000	0.082500
O81	O8	0.254000	0.499400	0.146000
O91	O9	0.151200	0.459200	0.970400
O101	O10	0.013500	0.544800	0.958820
O111	O11	0.749500	0.369000	0.917500
O121	O12	0.754600	0.500600	0.854000
O131	O13	0.848800	0.540800	0.470400
O141	O14	0.986500	0.455200	0.458820
O151	O15	0.250500	0.631000	0.417500
O161	O16	0.245400	0.499400	0.354000
