data_MOSGIM_freeONLY_PM
_symmetry_space_group_name_H-M	'P1'
_cell_length_a	13.870000
_cell_length_b	19.023000
_cell_length_c	19.238000
_cell_angle_alpha	90.000000
_cell_angle_beta	90.000000
_cell_angle_gamma	90.000000
_symmetry_Int_Tables_number 1

loop_
_symmetry_equiv_pos_as_xyz
'x,y,z'

loop_
_atom_site_label
_atom_site_type_symbol
_atom_site_fract_x
_atom_site_fract_y
_atom_site_fract_z
Zn11	Zn1	0.404360	0.483790	0.955680
Zn21	Zn2	0.595640	0.983790	0.544320
Zn31	Zn3	0.364520	0.603220	0.067440
Zn41	Zn4	0.635480	0.103220	0.432560
Zn51	Zn5	0.364520	0.896780	0.567440
Zn61	Zn6	0.595640	0.516210	0.044320
Zn71	Zn7	0.635480	0.396780	0.932560
Zn81	Zn8	0.404360	0.016210	0.455680
H11	H1	0.622700	0.023600	0.705500
H21	H2	0.623700	0.131900	0.156400
H31	H3	0.411300	0.781700	0.200500
H41	H4	0.346600	0.179700	0.988300
H51	H5	0.383500	0.366600	0.076200
H61	H6	0.425100	0.016200	0.590700
H71	H7	0.425100	0.483800	0.090700
H81	H8	0.651600	0.649800	0.318700
H91	H9	0.653400	0.679700	0.511700
H101	H10	0.951400	0.090600	0.429200
H111	H11	0.888200	0.567800	0.056800
H121	H12	0.588700	0.281700	0.299500
H131	H13	0.355600	0.470800	0.687900
H141	H14	0.348400	0.350200	0.681300
H151	H15	0.377300	0.523600	0.794500
H161	H16	0.376300	0.631900	0.343600
H171	H17	0.355600	0.029200	0.187900
H181	H18	0.951400	0.409400	0.929200
H191	H19	0.576700	0.135600	0.711600
H201	H20	0.111800	0.432200	0.943200
H211	H21	0.653400	0.820300	0.011700
H221	H22	0.346600	0.320300	0.488300
H231	H23	0.411300	0.718300	0.700500
H241	H24	0.354900	0.252200	0.588300
H251	H25	0.376300	0.868100	0.843600
H261	H26	0.574900	0.983800	0.409300
H271	H27	0.377300	0.976400	0.294500
H281	H28	0.423300	0.635600	0.788400
H291	H29	0.616500	0.866600	0.423800
H301	H30	0.588700	0.218300	0.799500
H311	H31	0.888200	0.932200	0.556800
H321	H32	0.644400	0.970800	0.812100
H331	H33	0.623700	0.368100	0.656400
H341	H34	0.380700	0.785700	0.931300
H351	H35	0.383500	0.133400	0.576200
H361	H36	0.619300	0.285700	0.568700
H371	H37	0.651600	0.850200	0.818700
H381	H38	0.111800	0.067800	0.443200
H391	H39	0.574900	0.516200	0.909300
H401	H40	0.048600	0.909400	0.570800
H411	H41	0.354900	0.247800	0.088300
H421	H42	0.619300	0.214300	0.068700
H431	H43	0.348400	0.149800	0.181300
H441	H44	0.048600	0.590600	0.070800
H451	H45	0.380700	0.714300	0.431300
H461	H46	0.423300	0.864400	0.288400
H471	H47	0.616500	0.633400	0.923800
H481	H48	0.644400	0.529200	0.312100
H491	H49	0.622700	0.476400	0.205500
H501	H50	0.645100	0.747800	0.411700
H511	H51	0.645100	0.752200	0.911700
H521	H52	0.576700	0.364400	0.211600
C11	C1	0.933300	0.959800	0.533700
C21	C2	0.933300	0.540200	0.033700
C31	C3	0.373500	0.025200	0.292600
C41	C4	0.392200	0.698100	0.262700
C51	C5	0.601700	0.201400	0.630800
C61	C6	0.622700	0.839200	0.463500
C71	C7	0.373500	0.474800	0.792600
C81	C8	0.601700	0.298600	0.130800
C91	C9	0.066700	0.040200	0.466300
C101	C10	0.405700	0.767800	0.246700
C111	C11	0.607800	0.198100	0.237300
C121	C12	0.363100	0.258800	0.920200
C131	C13	0.355800	0.127500	0.224100
C141	C14	0.643700	0.716400	0.645900
C151	C15	0.638000	0.832800	0.714200
C161	C16	0.398300	0.798600	0.369200
C171	C17	0.097800	0.985600	0.508400
C181	C18	0.638600	0.768000	0.455500
C191	C19	0.588900	0.182300	0.700500
C201	C20	0.203100	0.971100	0.515100
C211	C21	0.616100	0.320900	0.667700
C221	C22	0.602900	0.353400	0.074200
C231	C23	0.066700	0.459800	0.966300
C241	C24	0.607800	0.301900	0.737300
C251	C25	0.639300	0.943500	0.772200
C261	C26	0.353700	0.255300	0.783800
C271	C27	0.626500	0.974800	0.707400
C281	C28	0.397100	0.646600	0.925800
C291	C29	0.613300	0.271600	0.614700
C301	C30	0.353700	0.244700	0.283800
C311	C31	0.355800	0.372500	0.724100
C321	C32	0.029400	0.554000	0.042000
C331	C33	0.355600	0.272000	0.484900
C341	C34	0.362000	0.332800	0.785800
C351	C35	0.602900	0.146600	0.574200
C361	C36	0.796900	0.028900	0.484900
C371	C37	0.383900	0.679100	0.332300
C381	C38	0.386700	0.771600	0.885300
C391	C39	0.355600	0.228000	0.984900
C401	C40	0.377300	0.339200	0.036500
C411	C41	0.902200	0.485600	0.991600
C421	C42	0.029400	0.946000	0.542000
C431	C43	0.386000	0.855600	0.705100
C441	C44	0.625800	0.868900	0.651100
C451	C45	0.646300	0.744700	0.216200
C461	C46	0.614000	0.144400	0.294900
C471	C47	0.362000	0.167200	0.285800
C481	C48	0.626500	0.525200	0.207400
C491	C49	0.397100	0.853400	0.425800
C501	C50	0.639300	0.556500	0.272200
C511	C51	0.636900	0.758800	0.579800
C521	C52	0.374200	0.368900	0.848900
C531	C53	0.360700	0.056500	0.227800
C541	C54	0.644400	0.728000	0.515100
C551	C55	0.356300	0.283600	0.354100
C561	C56	0.594300	0.232200	0.753300
C571	C57	0.097800	0.514400	0.008400
C581	C58	0.970600	0.054000	0.458000
C591	C59	0.902200	0.014400	0.491600
C601	C60	0.383900	0.820900	0.832300
C611	C61	0.622700	0.660800	0.963500
C621	C62	0.638600	0.732000	0.955500
C631	C63	0.644200	0.872500	0.775900
C641	C64	0.638000	0.667200	0.214200
C651	C65	0.203100	0.528900	0.015100
C661	C66	0.796900	0.471100	0.984900
C671	C67	0.360700	0.443500	0.727800
C681	C68	0.613300	0.228400	0.114700
C691	C69	0.375900	0.331400	0.916100
C701	C70	0.361400	0.268000	0.044500
C711	C71	0.386700	0.728400	0.385300
C721	C72	0.644400	0.772000	0.015100
C731	C73	0.374200	0.131100	0.348900
C741	C74	0.636900	0.741200	0.079800
C751	C75	0.588900	0.317700	0.200500
C761	C76	0.624100	0.668600	0.083900
C771	C77	0.377300	0.160800	0.536500
C781	C78	0.616100	0.179100	0.167700
C791	C79	0.398300	0.701400	0.869200
C801	C80	0.624100	0.831400	0.583900
C811	C81	0.392200	0.801900	0.762700
C821	C82	0.970600	0.446000	0.958000
C831	C83	0.614000	0.355600	0.794900
C841	C84	0.646300	0.755300	0.716200
C851	C85	0.375900	0.168600	0.416100
C861	C86	0.363100	0.241200	0.420200
C871	C87	0.386000	0.644400	0.205100
C881	C88	0.644200	0.627500	0.275900
C891	C89	0.625800	0.631100	0.151100
C901	C90	0.643700	0.783600	0.145900
C911	C91	0.405700	0.732200	0.746700
C921	C92	0.411100	0.817700	0.299500
C931	C93	0.361400	0.232000	0.544500
C941	C94	0.594300	0.267800	0.253300
C951	C95	0.356300	0.216400	0.854100
C961	C96	0.411100	0.682300	0.799500
N11	N1	0.384300	0.370900	0.974600
N21	N2	0.384300	0.129100	0.474600
N31	N3	0.615700	0.870900	0.525400
N41	N4	0.619400	0.561000	0.147500
N51	N5	0.380600	0.061000	0.352500
N61	N6	0.619400	0.939000	0.647500
N71	N7	0.615700	0.629100	0.025400
N81	N8	0.380600	0.439000	0.852500
O11	O1	0.655100	0.778200	0.271000
O21	O2	0.620600	0.418500	0.779500
O31	O3	0.387300	0.667800	0.143100
O41	O4	0.409600	0.583770	0.908030
O51	O5	0.379400	0.581500	0.220500
O61	O6	0.612700	0.332200	0.856900
O71	O7	0.350400	0.151900	0.855000
O81	O8	0.387300	0.832200	0.643100
O91	O9	0.649600	0.651900	0.645000
O101	O10	0.228000	0.924530	0.559800
O111	O11	0.655100	0.721800	0.771000
O121	O12	0.590400	0.083770	0.591970
O131	O13	0.444500	0.980980	0.556270
O141	O14	0.555500	0.480980	0.943730
O151	O15	0.344900	0.278200	0.229000
O161	O16	0.741300	0.505800	0.022700
O171	O17	0.379400	0.918500	0.720500
O181	O18	0.772000	0.424530	0.940200
O191	O19	0.383000	0.667300	0.987730
O201	O20	0.228000	0.575470	0.059800
O211	O21	0.258700	0.005800	0.477300
O221	O22	0.590400	0.416230	0.091970
O231	O23	0.383000	0.832700	0.487730
O241	O24	0.772000	0.075470	0.440200
O251	O25	0.617000	0.332700	0.012270
O261	O26	0.350400	0.348100	0.355000
O271	O27	0.649600	0.848100	0.145000
O281	O28	0.258700	0.494200	0.977300
O291	O29	0.741300	0.994200	0.522700
O301	O30	0.620600	0.081500	0.279500
O311	O31	0.612700	0.167800	0.356900
O321	O32	0.555500	0.019020	0.443730
O331	O33	0.617000	0.167300	0.512270
O341	O34	0.444500	0.519020	0.056270
O351	O35	0.344900	0.221800	0.729000
O361	O36	0.409600	0.916230	0.408030
Zn91	Zn9	0.864520	0.603220	0.432560
Zn101	Zn10	0.904360	0.016210	0.044320
Zn111	Zn11	0.095640	0.516210	0.455680
Zn121	Zn12	0.135480	0.396780	0.567440
Zn131	Zn13	0.095640	0.983790	0.955680
Zn141	Zn14	0.904360	0.483790	0.544320
Zn151	Zn15	0.864520	0.896780	0.932560
Zn161	Zn16	0.135480	0.103220	0.067440
H531	H53	0.854900	0.247800	0.411700
H541	H54	0.074900	0.516200	0.590700
H551	H55	0.925100	0.016200	0.909300
H561	H56	0.153400	0.820300	0.488300
H571	H57	0.854900	0.252200	0.911700
H581	H58	0.911300	0.781700	0.299500
H591	H59	0.611800	0.432200	0.556800
H601	H60	0.145100	0.747800	0.088300
H611	H61	0.846600	0.320300	0.011700
H621	H62	0.151600	0.850200	0.681300
H631	H63	0.088700	0.281700	0.200500
H641	H64	0.151600	0.649800	0.181300
H651	H65	0.119300	0.214300	0.431300
H661	H66	0.877300	0.976400	0.205500
H671	H67	0.848400	0.149800	0.318700
H681	H68	0.848400	0.350200	0.818700
H691	H69	0.123700	0.368100	0.843600
H701	H70	0.116500	0.633400	0.576200
H711	H71	0.883500	0.366600	0.423800
H721	H72	0.088700	0.218300	0.700500
H731	H73	0.388200	0.567800	0.443200
H741	H74	0.548600	0.909400	0.929200
H751	H75	0.923300	0.864400	0.211600
H761	H76	0.153400	0.679700	0.988300
H771	H77	0.880700	0.785700	0.568700
H781	H78	0.548600	0.590600	0.429200
H791	H79	0.074900	0.983800	0.090700
H801	H80	0.123700	0.131900	0.343600
H811	H81	0.144400	0.970800	0.687900
H821	H82	0.076700	0.135600	0.788400
H831	H83	0.116500	0.866600	0.076200
H841	H84	0.451400	0.090600	0.070800
H851	H85	0.076700	0.364400	0.288400
H861	H86	0.122700	0.476400	0.294500
H871	H87	0.388200	0.932200	0.943200
H881	H88	0.144400	0.529200	0.187900
H891	H89	0.122700	0.023600	0.794500
H901	H90	0.880700	0.714300	0.068700
H911	H91	0.451400	0.409400	0.570800
H921	H92	0.855600	0.029200	0.312100
H931	H93	0.923300	0.635600	0.711600
H941	H94	0.876300	0.631900	0.156400
H951	H95	0.611800	0.067800	0.056800
H961	H96	0.876300	0.868100	0.656400
H971	H97	0.846600	0.179700	0.511700
H981	H98	0.911300	0.718300	0.799500
H991	H99	0.855600	0.470800	0.812100
H1001	H100	0.119300	0.285700	0.931300
H1011	H101	0.883500	0.133400	0.923800
H1021	H102	0.145100	0.752200	0.588300
H1031	H103	0.925100	0.483800	0.409300
H1041	H104	0.877300	0.523600	0.705500
C971	C97	0.875900	0.168600	0.083900
C981	C98	0.873500	0.474800	0.707400
C991	C99	0.136900	0.758800	0.920200
C1001	C100	0.402200	0.485600	0.508400
C1011	C101	0.125800	0.868900	0.848900
C1021	C102	0.529400	0.554000	0.458000
C1031	C103	0.856300	0.216400	0.645900
C1041	C104	0.088900	0.182300	0.799500
C1051	C105	0.126500	0.525200	0.292600
C1061	C106	0.113300	0.271600	0.885300
C1071	C107	0.886700	0.771600	0.614700
C1081	C108	0.122700	0.660800	0.536500
C1091	C109	0.853700	0.244700	0.216200
C1101	C110	0.296900	0.028900	0.015100
C1111	C111	0.136900	0.741200	0.420200
C1121	C112	0.861400	0.268000	0.455500
C1131	C113	0.860700	0.056500	0.272200
C1141	C114	0.433300	0.540200	0.466300
C1151	C115	0.897100	0.646600	0.574200
C1161	C116	0.433300	0.959800	0.966300
C1171	C117	0.124100	0.668600	0.416100
C1181	C118	0.886000	0.855600	0.794900
C1191	C119	0.107800	0.301900	0.762700
C1201	C120	0.855800	0.127500	0.275900
C1211	C121	0.122700	0.839200	0.036500
C1221	C122	0.143700	0.783600	0.354100
C1231	C123	0.566700	0.040200	0.033700
C1241	C124	0.905700	0.732200	0.753300
C1251	C125	0.138600	0.732000	0.544500
C1261	C126	0.088900	0.317700	0.299500
C1271	C127	0.911100	0.817700	0.200500
C1281	C128	0.853700	0.255300	0.716200
C1291	C129	0.897100	0.853400	0.074200
C1301	C130	0.126500	0.974800	0.792600
C1311	C131	0.124100	0.831400	0.916100
C1321	C132	0.883900	0.820900	0.667700
C1331	C133	0.146300	0.744700	0.283800
C1341	C134	0.101700	0.298600	0.369200
C1351	C135	0.138000	0.832800	0.785800
C1361	C136	0.862000	0.332800	0.714200
C1371	C137	0.402200	0.014400	0.008400
C1381	C138	0.911100	0.682300	0.700500
C1391	C139	0.116100	0.320900	0.832300
C1401	C140	0.139300	0.556500	0.227800
C1411	C141	0.886000	0.644400	0.294900
C1421	C142	0.146300	0.755300	0.783800
C1431	C143	0.101700	0.201400	0.869200
C1441	C144	0.877300	0.160800	0.963500
C1451	C145	0.703100	0.971100	0.984900
C1461	C146	0.296900	0.471100	0.515100
C1471	C147	0.139300	0.943500	0.727800
C1481	C148	0.874200	0.368900	0.651100
C1491	C149	0.125800	0.631100	0.348900
C1501	C150	0.898300	0.798600	0.130800
C1511	C151	0.860700	0.443500	0.772200
C1521	C152	0.144400	0.728000	0.984900
C1531	C153	0.116100	0.179100	0.332300
C1541	C154	0.470600	0.054000	0.042000
C1551	C155	0.861400	0.232000	0.955500
C1561	C156	0.855600	0.228000	0.515100
C1571	C157	0.877300	0.339200	0.463500
C1581	C158	0.114000	0.355600	0.705100
C1591	C159	0.144200	0.872500	0.724100
C1601	C160	0.855800	0.372500	0.775900
C1611	C161	0.144200	0.627500	0.224100
C1621	C162	0.144400	0.772000	0.484900
C1631	C163	0.102900	0.146600	0.925800
C1641	C164	0.529400	0.946000	0.958000
C1651	C165	0.905700	0.767800	0.253300
C1661	C166	0.863100	0.258800	0.579800
C1671	C167	0.886700	0.728400	0.114700
C1681	C168	0.892200	0.801900	0.737300
C1691	C169	0.597800	0.985600	0.991600
C1701	C170	0.873500	0.025200	0.207400
C1711	C171	0.094300	0.267800	0.246700
C1721	C172	0.898300	0.701400	0.630800
C1731	C173	0.875900	0.331400	0.583900
C1741	C174	0.703100	0.528900	0.484900
C1751	C175	0.113300	0.228400	0.385300
C1761	C176	0.863100	0.241200	0.079800
C1771	C177	0.856300	0.283600	0.145900
C1781	C178	0.892200	0.698100	0.237300
C1791	C179	0.874200	0.131100	0.151100
C1801	C180	0.862000	0.167200	0.214200
C1811	C181	0.143700	0.716400	0.854100
C1821	C182	0.102900	0.353400	0.425800
C1831	C183	0.138000	0.667200	0.285800
C1841	C184	0.470600	0.446000	0.542000
C1851	C185	0.114000	0.144400	0.205100
C1861	C186	0.855600	0.272000	0.015100
C1871	C187	0.107800	0.198100	0.262700
C1881	C188	0.597800	0.514400	0.491600
C1891	C189	0.883900	0.679100	0.167700
C1901	C190	0.094300	0.232200	0.746700
C1911	C191	0.138600	0.768000	0.044500
C1921	C192	0.566700	0.459800	0.533700
N91	N9	0.115700	0.629100	0.474600
N101	N10	0.884300	0.370900	0.525400
N111	N11	0.880600	0.439000	0.647500
N121	N12	0.119400	0.939000	0.852500
N131	N13	0.115700	0.870900	0.974600
N141	N14	0.880600	0.061000	0.147500
N151	N15	0.884300	0.129100	0.025400
N161	N16	0.119400	0.561000	0.352500
O371	O37	0.844900	0.278200	0.271000
O381	O38	0.758700	0.005800	0.022700
O391	O39	0.117000	0.332700	0.487730
O401	O40	0.117000	0.167300	0.987730
O411	O41	0.887300	0.667800	0.356900
O421	O42	0.149600	0.848100	0.355000
O431	O43	0.112700	0.167800	0.143100
O441	O44	0.909600	0.916230	0.091970
O451	O45	0.155100	0.721800	0.729000
O461	O46	0.879400	0.581500	0.279500
O471	O47	0.909600	0.583770	0.591970
O481	O48	0.090400	0.416230	0.408030
O491	O49	0.879400	0.918500	0.779500
O501	O50	0.844900	0.221800	0.771000
O511	O51	0.944500	0.980980	0.943730
O521	O52	0.090400	0.083770	0.908030
O531	O53	0.155100	0.778200	0.229000
O541	O54	0.758700	0.494200	0.522700
O551	O55	0.272000	0.424530	0.559800
O561	O56	0.241300	0.994200	0.977300
O571	O57	0.728000	0.575470	0.440200
O581	O58	0.850400	0.348100	0.145000
O591	O59	0.850400	0.151900	0.645000
O601	O60	0.112700	0.332200	0.643100
O611	O61	0.944500	0.519020	0.443730
O621	O62	0.241300	0.505800	0.477300
O631	O63	0.272000	0.075470	0.059800
O641	O64	0.055500	0.480980	0.556270
O651	O65	0.120600	0.418500	0.720500
O661	O66	0.120600	0.081500	0.220500
O671	O67	0.887300	0.832200	0.856900
O681	O68	0.883000	0.667300	0.512270
O691	O69	0.728000	0.924530	0.940200
O701	O70	0.055500	0.019020	0.056270
O711	O71	0.883000	0.832700	0.012270
O721	O72	0.149600	0.651900	0.855000
