data_MOWQIZ_freeONLY_PM
_symmetry_space_group_name_H-M	'P1'
_cell_length_a	8.523000
_cell_length_b	28.628000
_cell_length_c	9.306000
_cell_angle_alpha	90.000000
_cell_angle_beta	96.497000
_cell_angle_gamma	90.000000
_symmetry_Int_Tables_number 1

loop_
_symmetry_equiv_pos_as_xyz
'x,y,z'

loop_
_atom_site_label
_atom_site_type_symbol
_atom_site_fract_x
_atom_site_fract_y
_atom_site_fract_z
C11	C1	0.233100	0.244240	0.602100
C21	C2	0.387900	0.264790	0.677800
C31	C3	0.033400	0.025490	0.505100
C41	C4	0.033100	0.025050	0.000100
O11	O1	0.174000	0.210340	0.661600
O21	O2	0.435000	0.249970	0.800400
O31	O3	0.173300	0.264050	0.487900
O41	O4	0.454000	0.295080	0.608100
O51	O5	0.121200	0.037610	0.413000
O61	O6	0.145400	0.034450	0.093600
O71	O7	0.988300	0.050590	0.604500
O81	O8	0.967800	0.052610	0.907300
O91	O9	0.448700	0.033090	0.646000
O101	O10	0.555100	0.959600	0.714800
O111	O11	0.316300	0.962290	0.547500
O121	O12	0.302800	0.982620	0.793100
O131	O13	0.593900	0.147640	0.895600
O141	O14	0.498700	0.165040	0.654000
O151	O15	0.765000	0.189060	0.748100
O161	O16	0.710500	0.108220	0.704700
O171	O17	0.616400	0.042750	0.934300
O181	O18	0.316400	0.115980	0.073100
O191	O19	0.262900	0.099400	0.744500
O201	O20	0.039600	0.148770	0.883800
S11	S1	0.401760	0.984180	0.676520
S21	S2	0.644710	0.152720	0.749030
Nd11	Nd1	0.747520	0.024800	0.715680
Nd21	Nd2	0.319290	0.173870	0.871680
H11	H1	0.279000	0.088400	0.074000
H21	H2	0.353000	0.120900	0.161000
H31	H3	0.632000	0.030200	0.018000
H41	H4	0.586000	0.069600	0.945000
H51	H5	0.171000	0.085900	0.723000
H61	H6	0.325000	0.077300	0.723000
H71	H7	0.010000	0.120600	0.887000
H81	H8	0.962000	0.163100	0.839000
C51	C5	0.766900	0.744240	0.897900
C61	C6	0.612100	0.764790	0.822200
C71	C7	0.966600	0.525490	0.994900
C81	C8	0.966900	0.525050	0.499900
O211	O21	0.826000	0.710340	0.838400
O221	O22	0.565000	0.749970	0.699600
O231	O23	0.826700	0.764050	0.012100
O241	O24	0.546000	0.795080	0.891900
O251	O25	0.878800	0.537610	0.087000
O261	O26	0.854600	0.534450	0.406400
O271	O27	0.011700	0.550590	0.895500
O281	O28	0.032200	0.552610	0.592700
O291	O29	0.551300	0.533090	0.854000
O301	O30	0.444900	0.459600	0.785200
O311	O31	0.683700	0.462290	0.952500
O321	O32	0.697200	0.482620	0.706900
O331	O33	0.406100	0.647640	0.604400
O341	O34	0.501300	0.665040	0.846000
O351	O35	0.235000	0.689060	0.751900
O361	O36	0.289500	0.608220	0.795300
O371	O37	0.383600	0.542750	0.565700
O381	O38	0.683600	0.615980	0.426900
O391	O39	0.737100	0.599400	0.755500
O401	O40	0.960400	0.648770	0.616200
S31	S3	0.598240	0.484180	0.823480
S41	S4	0.355290	0.652720	0.750970
Nd31	Nd3	0.252480	0.524800	0.784320
Nd41	Nd4	0.680710	0.673870	0.628320
H91	H9	0.721000	0.588400	0.426000
H101	H10	0.647000	0.620900	0.339000
H111	H11	0.368000	0.530200	0.482000
H121	H12	0.414000	0.569600	0.555000
H131	H13	0.829000	0.585900	0.777000
H141	H14	0.675000	0.577300	0.777000
H151	H15	0.990000	0.620600	0.613000
H161	H16	0.038000	0.663100	0.661000
C91	C9	0.766900	0.755760	0.397900
C101	C10	0.612100	0.735210	0.322200
C111	C11	0.966600	0.974510	0.494900
C121	C12	0.966900	0.974950	0.999900
O411	O41	0.826000	0.789660	0.338400
O421	O42	0.565000	0.750030	0.199600
O431	O43	0.826700	0.735950	0.512100
O441	O44	0.546000	0.704920	0.391900
O451	O45	0.878800	0.962390	0.587000
O461	O46	0.854600	0.965550	0.906400
O471	O47	0.011700	0.949410	0.395500
O481	O48	0.032200	0.947390	0.092700
O491	O49	0.551300	0.966910	0.354000
O501	O50	0.444900	0.040400	0.285200
O511	O51	0.683700	0.037710	0.452500
O521	O52	0.697200	0.017380	0.206900
O531	O53	0.406100	0.852360	0.104400
O541	O54	0.501300	0.834960	0.346000
O551	O55	0.235000	0.810940	0.251900
O561	O56	0.289500	0.891780	0.295300
O571	O57	0.383600	0.957250	0.065700
O581	O58	0.683600	0.884020	0.926900
O591	O59	0.737100	0.900600	0.255500
O601	O60	0.960400	0.851230	0.116200
S51	S5	0.598240	0.015820	0.323480
S61	S6	0.355290	0.847280	0.250970
Nd51	Nd5	0.252480	0.975200	0.284320
Nd61	Nd6	0.680710	0.826130	0.128320
H171	H17	0.721000	0.911600	0.926000
H181	H18	0.647000	0.879100	0.839000
H191	H19	0.368000	0.969800	0.982000
H201	H20	0.414000	0.930400	0.055000
H211	H21	0.829000	0.914100	0.277000
H221	H22	0.675000	0.922700	0.277000
H231	H23	0.990000	0.879400	0.113000
H241	H24	0.038000	0.836900	0.161000
C131	C13	0.233100	0.255760	0.102100
C141	C14	0.387900	0.235210	0.177800
C151	C15	0.033400	0.474510	0.005100
C161	C16	0.033100	0.474950	0.500100
O611	O61	0.174000	0.289660	0.161600
O621	O62	0.435000	0.250030	0.300400
O631	O63	0.173300	0.235950	0.987900
O641	O64	0.454000	0.204920	0.108100
O651	O65	0.121200	0.462390	0.913000
O661	O66	0.145400	0.465550	0.593600
O671	O67	0.988300	0.449410	0.104500
O681	O68	0.967800	0.447390	0.407300
O691	O69	0.448700	0.466910	0.146000
O701	O70	0.555100	0.540400	0.214800
O711	O71	0.316300	0.537710	0.047500
O721	O72	0.302800	0.517380	0.293100
O731	O73	0.593900	0.352360	0.395600
O741	O74	0.498700	0.334960	0.154000
O751	O75	0.765000	0.310940	0.248100
O761	O76	0.710500	0.391780	0.204700
O771	O77	0.616400	0.457250	0.434300
O781	O78	0.316400	0.384020	0.573100
O791	O79	0.262900	0.400600	0.244500
O801	O80	0.039600	0.351230	0.383800
S71	S7	0.401760	0.515820	0.176520
S81	S8	0.644710	0.347280	0.249030
Nd71	Nd7	0.747520	0.475200	0.215680
Nd81	Nd8	0.319290	0.326130	0.371680
H251	H25	0.279000	0.411600	0.574000
H261	H26	0.353000	0.379100	0.661000
H271	H27	0.632000	0.469800	0.518000
H281	H28	0.586000	0.430400	0.445000
H291	H29	0.171000	0.414100	0.223000
H301	H30	0.325000	0.422700	0.223000
H311	H31	0.010000	0.379400	0.387000
H321	H32	0.962000	0.336900	0.339000
