data_MUGFOK_freeONLY_PM
_symmetry_space_group_name_H-M	'P1'
_cell_length_a	15.481000
_cell_length_b	15.865700
_cell_length_c	15.865700
_cell_angle_alpha	76.230200
_cell_angle_beta	60.799000
_cell_angle_gamma	60.799000
_symmetry_Int_Tables_number 1

loop_
_symmetry_equiv_pos_as_xyz
'x,y,z'

loop_
_atom_site_label
_atom_site_type_symbol
_atom_site_fract_x
_atom_site_fract_y
_atom_site_fract_z
Ni11	Ni1	0.500000	0.000000	0.000000
Ni21	Ni2	0.000000	0.500000	0.500000
Ni31	Ni3	0.000000	0.000000	0.500000
Ni41	Ni4	0.000000	0.500000	0.000000
Mo11	Mo1	0.875000	0.750000	0.750000
Mo21	Mo2	0.125000	0.250000	0.250000
H11	H1	0.289600	0.977100	0.088500
H21	H2	0.322600	0.869000	0.073200
H31	H3	0.474400	0.811800	0.891800
H41	H4	0.419900	0.835600	0.176400
H51	H5	0.388600	0.946800	0.173600
H61	H6	0.498000	0.838200	0.006800
H71	H7	0.855200	0.522900	0.411500
H81	H8	0.764800	0.631000	0.426800
H91	H9	0.678000	0.688200	0.608200
H101	H10	0.931900	0.664400	0.323600
H111	H11	0.009000	0.553200	0.326400
H121	H12	0.843000	0.661800	0.493200
H131	H13	0.878100	0.911500	0.477100
H141	H14	0.895800	0.926800	0.369000
H151	H15	0.866200	0.108200	0.311800
H161	H16	0.096300	0.823600	0.335600
H171	H17	0.062200	0.826400	0.446800
H181	H18	0.004800	0.993200	0.338200
H191	H19	0.766700	0.588500	0.022900
H201	H20	0.691600	0.573200	0.131000
H211	H21	0.786200	0.391800	0.188200
H221	H22	0.755500	0.676400	0.164400
H231	H23	0.835400	0.673600	0.053200
H241	H24	0.836200	0.506800	0.161800
H251	H25	0.144800	0.588500	0.477100
H261	H26	0.235200	0.573200	0.369000
H271	H27	0.322000	0.391800	0.311800
H281	H28	0.068100	0.676400	0.335600
H291	H29	0.991000	0.673600	0.446800
H301	H30	0.157000	0.506800	0.338200
H311	H31	0.710400	0.911500	0.022900
H321	H32	0.677400	0.926800	0.131000
H331	H33	0.525600	0.108200	0.188200
H341	H34	0.580100	0.823600	0.164400
H351	H35	0.611400	0.826400	0.053200
H361	H36	0.502000	0.993200	0.161800
H371	H37	0.233300	0.977100	0.411500
H381	H38	0.308400	0.869000	0.426800
H391	H39	0.213800	0.811800	0.608200
H401	H40	0.244500	0.835600	0.323600
H411	H41	0.164600	0.946800	0.326400
H421	H42	0.163800	0.838200	0.493200
H431	H43	0.121900	0.522900	0.088500
H441	H44	0.104200	0.631000	0.073200
H451	H45	0.133800	0.688200	0.891800
H461	H46	0.903700	0.664400	0.176400
H471	H47	0.937800	0.553200	0.173600
H481	H48	0.995200	0.661800	0.006800
H491	H49	0.710400	0.022900	0.911500
H501	H50	0.677400	0.131000	0.926800
H511	H51	0.525600	0.188200	0.108200
H521	H52	0.580100	0.164400	0.823600
H531	H53	0.611400	0.053200	0.826400
H541	H54	0.502000	0.161800	0.993200
H551	H55	0.144800	0.477100	0.588500
H561	H56	0.235200	0.369000	0.573200
H571	H57	0.322000	0.311800	0.391800
H581	H58	0.068100	0.335600	0.676400
H591	H59	0.991000	0.446800	0.673600
H601	H60	0.157000	0.338200	0.506800
H611	H61	0.121900	0.088500	0.522900
H621	H62	0.104200	0.073200	0.631000
H631	H63	0.133800	0.891800	0.688200
H641	H64	0.903700	0.176400	0.664400
H651	H65	0.937800	0.173600	0.553200
H661	H66	0.995200	0.006800	0.661800
H671	H67	0.233300	0.411500	0.977100
H681	H68	0.308400	0.426800	0.869000
H691	H69	0.213800	0.608200	0.811800
H701	H70	0.244500	0.323600	0.835600
H711	H71	0.164600	0.326400	0.946800
H721	H72	0.163800	0.493200	0.838200
H731	H73	0.855200	0.411500	0.522900
H741	H74	0.764800	0.426800	0.631000
H751	H75	0.678000	0.608200	0.688200
H761	H76	0.931900	0.323600	0.664400
H771	H77	0.009000	0.326400	0.553200
H781	H78	0.843000	0.493200	0.661800
H791	H79	0.289600	0.088500	0.977100
H801	H80	0.322600	0.073200	0.869000
H811	H81	0.474400	0.891800	0.811800
H821	H82	0.419900	0.176400	0.835600
H831	H83	0.388600	0.173600	0.946800
H841	H84	0.498000	0.006800	0.838200
H851	H85	0.766700	0.022900	0.588500
H861	H86	0.691600	0.131000	0.573200
H871	H87	0.786200	0.188200	0.391800
H881	H88	0.755500	0.164400	0.676400
H891	H89	0.835400	0.053200	0.673600
H901	H90	0.836200	0.161800	0.506800
H911	H91	0.878100	0.477100	0.911500
H921	H92	0.895800	0.369000	0.926800
H931	H93	0.866200	0.311800	0.108200
H941	H94	0.096300	0.335600	0.823600
H951	H95	0.062200	0.446800	0.826400
H961	H96	0.004800	0.338200	0.993200
H971	H97	0.281000	0.956100	0.956100
H981	H98	0.693200	0.543900	0.543900
H991	H99	0.737100	0.043900	0.456100
H1001	H100	0.737100	0.456100	0.043900
H1011	H101	0.306800	0.456100	0.456100
H1021	H102	0.719000	0.043900	0.043900
H1031	H103	0.262900	0.956100	0.543900
H1041	H104	0.262900	0.543900	0.956100
C11	C1	0.344170	0.921220	0.046740
C21	C2	0.440220	0.886370	0.138570
C31	C3	0.812130	0.578780	0.453260
C41	C4	0.965160	0.613630	0.361430
C51	C5	0.890910	0.953260	0.421220
C61	C6	0.078790	0.861430	0.386370
C71	C7	0.765390	0.546740	0.078780
C81	C8	0.826590	0.638570	0.113630
C91	C9	0.187870	0.546740	0.421220
C101	C10	0.034840	0.638570	0.386370
C111	C11	0.655830	0.953260	0.078780
C121	C12	0.559780	0.861430	0.113630
C131	C13	0.234610	0.921220	0.453260
C141	C14	0.173410	0.886370	0.361430
C151	C15	0.109090	0.578780	0.046740
C161	C16	0.921210	0.613630	0.138570
C171	C17	0.655830	0.078780	0.953260
C181	C18	0.559780	0.113630	0.861430
C191	C19	0.187870	0.421220	0.546740
C201	C20	0.034840	0.386370	0.638570
C211	C21	0.109090	0.046740	0.578780
C221	C22	0.921210	0.138570	0.613630
C231	C23	0.234610	0.453260	0.921220
C241	C24	0.173410	0.361430	0.886370
C251	C25	0.812130	0.453260	0.578780
C261	C26	0.965160	0.361430	0.613630
C271	C27	0.344170	0.046740	0.921220
C281	C28	0.440220	0.138570	0.886370
C291	C29	0.765390	0.078780	0.546740
C301	C30	0.826590	0.113630	0.638570
C311	C31	0.890910	0.421220	0.953260
C321	C32	0.078790	0.386370	0.861430
C331	C33	0.915200	0.815500	0.815500
C341	C34	0.730300	0.852100	0.852100
C351	C35	0.353540	0.945360	0.945360
C361	C36	0.427330	0.868470	0.868470
C371	C37	0.365000	0.838800	0.838800
C381	C38	0.046200	0.684500	0.684500
C391	C39	0.934500	0.647900	0.647900
C401	C40	0.744260	0.554640	0.554640
C411	C41	0.664270	0.631530	0.631530
C421	C42	0.542600	0.661200	0.661200
C431	C43	0.230700	0.184500	0.315500
C441	C44	0.082400	0.147900	0.352100
C451	C45	0.798900	0.054640	0.445360
C461	C46	0.795800	0.131530	0.368470
C471	C47	0.703800	0.161200	0.338800
C481	C48	0.230700	0.315500	0.184500
C491	C49	0.082400	0.352100	0.147900
C501	C50	0.798900	0.445360	0.054640
C511	C51	0.795800	0.368470	0.131530
C521	C52	0.703800	0.338800	0.161200
C531	C53	0.953800	0.315500	0.315500
C541	C54	0.065500	0.352100	0.352100
C551	C55	0.255740	0.445360	0.445360
C561	C56	0.335730	0.368470	0.368470
C571	C57	0.457400	0.338800	0.338800
C581	C58	0.084800	0.184500	0.184500
C591	C59	0.269700	0.147900	0.147900
C601	C60	0.646460	0.054640	0.054640
C611	C61	0.572670	0.131530	0.131530
C621	C62	0.635000	0.161200	0.161200
C631	C63	0.769300	0.815500	0.684500
C641	C64	0.917600	0.852100	0.647900
C651	C65	0.201100	0.945360	0.554640
C661	C66	0.204200	0.868470	0.631530
C671	C67	0.296200	0.838800	0.661200
C681	C68	0.769300	0.684500	0.815500
C691	C69	0.917600	0.647900	0.852100
C701	C70	0.201100	0.554640	0.945360
C711	C71	0.204200	0.631530	0.868470
C721	C72	0.296200	0.661200	0.838800
N11	N1	0.445040	0.894400	0.039520
N21	N2	0.878960	0.605600	0.460480
N31	N3	0.984560	0.960480	0.394400
N41	N4	0.839440	0.539520	0.105600
N51	N5	0.121040	0.539520	0.394400
N61	N6	0.554960	0.960480	0.105600
N71	N7	0.160560	0.894400	0.460480
N81	N8	0.015440	0.605600	0.039520
N91	N9	0.554960	0.105600	0.960480
N101	N10	0.121040	0.394400	0.539520
N111	N11	0.015440	0.039520	0.605600
N121	N12	0.160560	0.460480	0.894400
N131	N13	0.878960	0.460480	0.605600
N141	N14	0.445040	0.039520	0.894400
N151	N15	0.839440	0.105600	0.539520
N161	N16	0.984560	0.394400	0.960480
N171	N17	0.939880	0.852400	0.852400
N181	N18	0.649850	0.907850	0.907850
N191	N19	0.144680	0.647600	0.647600
N201	N20	0.965550	0.592150	0.592150
N211	N21	0.292280	0.147600	0.352400
N221	N22	0.057700	0.092150	0.407850
N231	N23	0.292280	0.352400	0.147600
N241	N24	0.057700	0.407850	0.092150
N251	N25	0.855320	0.352400	0.352400
N261	N26	0.034450	0.407850	0.407850
N271	N27	0.060120	0.147600	0.147600
N281	N28	0.350150	0.092150	0.092150
N291	N29	0.707720	0.852400	0.647600
N301	N30	0.942300	0.907850	0.592150
N311	N31	0.707720	0.647600	0.852400
N321	N32	0.942300	0.592150	0.907850
