data_MUHNUA_freeONLY_PM
_symmetry_space_group_name_H-M	'P1'
_cell_length_a	19.003000
_cell_length_b	19.003000
_cell_length_c	16.916000
_cell_angle_alpha	90.000000
_cell_angle_beta	90.000000
_cell_angle_gamma	120.000000
_symmetry_Int_Tables_number 1

loop_
_symmetry_equiv_pos_as_xyz
'x,y,z'

loop_
_atom_site_label
_atom_site_type_symbol
_atom_site_fract_x
_atom_site_fract_y
_atom_site_fract_z
N11	N1	0.485700	0.229800	0.633800
H11	H1	0.507100	0.207700	0.661900
N21	N2	0.489000	0.300200	0.653600
N31	N3	0.280800	0.203300	0.375700
H21	H2	0.235700	0.174300	0.351200
C11	C1	0.374200	0.244300	0.466200
C21	C2	0.298400	0.182400	0.446200
C31	C3	0.241700	0.104900	0.485700
H31	H3	0.186800	0.091200	0.474400
H41	H4	0.250600	0.110800	0.541800
H51	H5	0.251000	0.062700	0.466600
C41	C4	0.401000	0.301000	0.402000
C51	C5	0.421500	0.251500	0.538300
C61	C6	0.445700	0.197700	0.565600
C71	C7	0.449800	0.314400	0.595300
C81	C8	0.437500	0.122400	0.531300
H61	H6	0.451000	0.094600	0.570500
H71	H7	0.473500	0.135900	0.487000
H81	H8	0.382500	0.087900	0.514100
C91	C9	0.437600	0.386000	0.598800
H91	H9	0.454900	0.411800	0.649500
H101	H10	0.381100	0.368400	0.591300
H111	H11	0.469000	0.423900	0.558000
C101	C10	0.479500	0.378000	0.390400
H121	H12	0.474900	0.422800	0.410400
H131	H13	0.492200	0.385900	0.335000
H141	H14	0.521900	0.374900	0.418100
N41	N4	0.342800	0.276000	0.347400
H151	H15	0.945400	0.701500	0.703700
N51	N5	0.770200	0.255900	0.633800
H161	H16	0.792300	0.299400	0.661900
N61	N6	0.699800	0.188800	0.653600
N71	N7	0.796700	0.077500	0.375700
H171	H17	0.825700	0.061400	0.351200
C111	C11	0.755700	0.129900	0.466200
C121	C12	0.817600	0.116000	0.446200
C131	C13	0.895100	0.136800	0.485700
H181	H18	0.908800	0.095600	0.474400
H191	H19	0.889200	0.139800	0.541800
H201	H20	0.937300	0.188300	0.466600
C141	C14	0.699000	0.100000	0.402000
C151	C15	0.748500	0.170000	0.538300
C161	C16	0.802300	0.248000	0.565600
C171	C17	0.685600	0.135400	0.595300
C181	C18	0.877600	0.315100	0.531300
H211	H21	0.905400	0.356400	0.570500
H221	H22	0.864100	0.337600	0.487000
H231	H23	0.912100	0.294600	0.514100
C191	C19	0.614000	0.051600	0.598800
H241	H24	0.588200	0.043100	0.649500
H251	H25	0.631600	0.012700	0.591300
H261	H26	0.576100	0.045100	0.558000
C201	C20	0.622000	0.101500	0.390400
H271	H27	0.577200	0.052100	0.410400
H281	H28	0.614100	0.106300	0.335000
H291	H29	0.625100	0.147000	0.418100
N81	N8	0.724000	0.066800	0.347400
H301	H30	0.298500	0.243900	0.703700
N91	N9	0.744100	0.514300	0.633800
H311	H31	0.700600	0.492900	0.661900
N101	N10	0.811200	0.511000	0.653600
N111	N11	0.922500	0.719200	0.375700
H321	H32	0.938600	0.764300	0.351200
C211	C21	0.870100	0.625800	0.466200
C221	C22	0.884000	0.701600	0.446200
C231	C23	0.863200	0.758300	0.485700
H331	H33	0.904400	0.813200	0.474400
H341	H34	0.860200	0.749400	0.541800
H351	H35	0.811700	0.749000	0.466600
C241	C24	0.900000	0.599000	0.402000
C251	C25	0.830000	0.578500	0.538300
C261	C26	0.752000	0.554300	0.565600
C271	C27	0.864600	0.550200	0.595300
C281	C28	0.684900	0.562500	0.531300
H361	H36	0.643600	0.549000	0.570500
H371	H37	0.662400	0.526500	0.487000
H381	H38	0.705400	0.617500	0.514100
C291	C29	0.948400	0.562400	0.598800
H391	H39	0.956900	0.545100	0.649500
H401	H40	0.987300	0.618900	0.591300
H411	H41	0.954900	0.531000	0.558000
C301	C30	0.898500	0.520500	0.390400
H421	H42	0.947900	0.525100	0.410400
H431	H43	0.893700	0.507800	0.335000
H441	H44	0.853000	0.478100	0.418100
N121	N12	0.933200	0.657200	0.347400
H451	H45	0.756100	0.054600	0.703700
N131	N13	0.514300	0.770200	0.133800
H461	H46	0.492900	0.792300	0.161900
N141	N14	0.511000	0.699800	0.153600
N151	N15	0.719200	0.796700	0.875700
H471	H47	0.764300	0.825700	0.851200
C311	C31	0.625800	0.755700	0.966200
C321	C32	0.701600	0.817600	0.946200
C331	C33	0.758300	0.895100	0.985700
H481	H48	0.813200	0.908800	0.974400
H491	H49	0.749400	0.889200	0.041800
H501	H50	0.749000	0.937300	0.966600
C341	C34	0.599000	0.699000	0.902000
C351	C35	0.578500	0.748500	0.038300
C361	C36	0.554300	0.802300	0.065600
C371	C37	0.550200	0.685600	0.095300
C381	C38	0.562500	0.877600	0.031300
H511	H51	0.549000	0.905400	0.070500
H521	H52	0.526500	0.864100	0.987000
H531	H53	0.617500	0.912100	0.014100
C391	C39	0.562400	0.614000	0.098800
H541	H54	0.545100	0.588200	0.149500
H551	H55	0.618900	0.631600	0.091300
H561	H56	0.531000	0.576100	0.058000
C401	C40	0.520500	0.622000	0.890400
H571	H57	0.525100	0.577200	0.910400
H581	H58	0.507800	0.614100	0.835000
H591	H59	0.478100	0.625100	0.918100
N161	N16	0.657200	0.724000	0.847400
H601	H60	0.054600	0.298500	0.203700
N171	N17	0.229800	0.744100	0.133800
H611	H61	0.207700	0.700600	0.161900
N181	N18	0.300200	0.811200	0.153600
N191	N19	0.203300	0.922500	0.875700
H621	H62	0.174300	0.938600	0.851200
C411	C41	0.244300	0.870100	0.966200
C421	C42	0.182400	0.884000	0.946200
C431	C43	0.104900	0.863200	0.985700
H631	H63	0.091200	0.904400	0.974400
H641	H64	0.110800	0.860200	0.041800
H651	H65	0.062700	0.811700	0.966600
C441	C44	0.301000	0.900000	0.902000
C451	C45	0.251500	0.830000	0.038300
C461	C46	0.197700	0.752000	0.065600
C471	C47	0.314400	0.864600	0.095300
C481	C48	0.122400	0.684900	0.031300
H661	H66	0.094600	0.643600	0.070500
H671	H67	0.135900	0.662400	0.987000
H681	H68	0.087900	0.705400	0.014100
C491	C49	0.386000	0.948400	0.098800
H691	H69	0.411800	0.956900	0.149500
H701	H70	0.368400	0.987300	0.091300
H711	H71	0.423900	0.954900	0.058000
C501	C50	0.378000	0.898500	0.890400
H721	H72	0.422800	0.947900	0.910400
H731	H73	0.385900	0.893700	0.835000
H741	H74	0.374900	0.853000	0.918100
N201	N20	0.276000	0.933200	0.847400
H751	H75	0.701500	0.756100	0.203700
N211	N21	0.255900	0.485700	0.133800
H761	H76	0.299400	0.507100	0.161900
N221	N22	0.188800	0.489000	0.153600
N231	N23	0.077500	0.280800	0.875700
H771	H77	0.061400	0.235700	0.851200
C511	C51	0.129900	0.374200	0.966200
C521	C52	0.116000	0.298400	0.946200
C531	C53	0.136800	0.241700	0.985700
H781	H78	0.095600	0.186800	0.974400
H791	H79	0.139800	0.250600	0.041800
H801	H80	0.188300	0.251000	0.966600
C541	C54	0.100000	0.401000	0.902000
C551	C55	0.170000	0.421500	0.038300
C561	C56	0.248000	0.445700	0.065600
C571	C57	0.135400	0.449800	0.095300
C581	C58	0.315100	0.437500	0.031300
H811	H81	0.356400	0.451000	0.070500
H821	H82	0.337600	0.473500	0.987000
H831	H83	0.294600	0.382500	0.014100
C591	C59	0.051600	0.437600	0.098800
H841	H84	0.043100	0.454900	0.149500
H851	H85	0.012700	0.381100	0.091300
H861	H86	0.045100	0.469000	0.058000
C601	C60	0.101500	0.479500	0.890400
H871	H87	0.052100	0.474900	0.910400
H881	H88	0.106300	0.492200	0.835000
H891	H89	0.147000	0.521900	0.918100
N241	N24	0.066800	0.342800	0.847400
H901	H90	0.243900	0.945400	0.203700
N251	N25	0.514300	0.770200	0.366200
H911	H91	0.492900	0.792300	0.338100
N261	N26	0.511000	0.699800	0.346400
N271	N27	0.719200	0.796700	0.624300
H921	H92	0.764300	0.825700	0.648800
C611	C61	0.625800	0.755700	0.533800
C621	C62	0.701600	0.817600	0.553800
C631	C63	0.758300	0.895100	0.514300
H931	H93	0.813200	0.908800	0.525600
H941	H94	0.749400	0.889200	0.458200
H951	H95	0.749000	0.937300	0.533400
C641	C64	0.599000	0.699000	0.598000
C651	C65	0.578500	0.748500	0.461700
C661	C66	0.554300	0.802300	0.434400
C671	C67	0.550200	0.685600	0.404700
C681	C68	0.562500	0.877600	0.468700
H961	H96	0.549000	0.905400	0.429500
H971	H97	0.526500	0.864100	0.513000
H981	H98	0.617500	0.912100	0.485900
C691	C69	0.562400	0.614000	0.401200
H991	H99	0.545100	0.588200	0.350500
H1001	H100	0.618900	0.631600	0.408700
H1011	H101	0.531000	0.576100	0.442000
C701	C70	0.520500	0.622000	0.609600
H1021	H102	0.525100	0.577200	0.589600
H1031	H103	0.507800	0.614100	0.665000
H1041	H104	0.478100	0.625100	0.581900
N281	N28	0.657200	0.724000	0.652600
H1051	H105	0.054600	0.298500	0.296300
N291	N29	0.229800	0.744100	0.366200
H1061	H106	0.207700	0.700600	0.338100
N301	N30	0.300200	0.811200	0.346400
N311	N31	0.203300	0.922500	0.624300
H1071	H107	0.174300	0.938600	0.648800
C711	C71	0.244300	0.870100	0.533800
C721	C72	0.182400	0.884000	0.553800
C731	C73	0.104900	0.863200	0.514300
H1081	H108	0.091200	0.904400	0.525600
H1091	H109	0.110800	0.860200	0.458200
H1101	H110	0.062700	0.811700	0.533400
C741	C74	0.301000	0.900000	0.598000
C751	C75	0.251500	0.830000	0.461700
C761	C76	0.197700	0.752000	0.434400
C771	C77	0.314400	0.864600	0.404700
C781	C78	0.122400	0.684900	0.468700
H1111	H111	0.094600	0.643600	0.429500
H1121	H112	0.135900	0.662400	0.513000
H1131	H113	0.087900	0.705400	0.485900
C791	C79	0.386000	0.948400	0.401200
H1141	H114	0.411800	0.956900	0.350500
H1151	H115	0.368400	0.987300	0.408700
H1161	H116	0.423900	0.954900	0.442000
C801	C80	0.378000	0.898500	0.609600
H1171	H117	0.422800	0.947900	0.589600
H1181	H118	0.385900	0.893700	0.665000
H1191	H119	0.374900	0.853000	0.581900
N321	N32	0.276000	0.933200	0.652600
H1201	H120	0.701500	0.756100	0.296300
N331	N33	0.255900	0.485700	0.366200
H1211	H121	0.299400	0.507100	0.338100
N341	N34	0.188800	0.489000	0.346400
N351	N35	0.077500	0.280800	0.624300
H1221	H122	0.061400	0.235700	0.648800
C811	C81	0.129900	0.374200	0.533800
C821	C82	0.116000	0.298400	0.553800
C831	C83	0.136800	0.241700	0.514300
H1231	H123	0.095600	0.186800	0.525600
H1241	H124	0.139800	0.250600	0.458200
H1251	H125	0.188300	0.251000	0.533400
C841	C84	0.100000	0.401000	0.598000
C851	C85	0.170000	0.421500	0.461700
C861	C86	0.248000	0.445700	0.434400
C871	C87	0.135400	0.449800	0.404700
C881	C88	0.315100	0.437500	0.468700
H1261	H126	0.356400	0.451000	0.429500
H1271	H127	0.337600	0.473500	0.513000
H1281	H128	0.294600	0.382500	0.485900
C891	C89	0.051600	0.437600	0.401200
H1291	H129	0.043100	0.454900	0.350500
H1301	H130	0.012700	0.381100	0.408700
H1311	H131	0.045100	0.469000	0.442000
C901	C90	0.101500	0.479500	0.609600
H1321	H132	0.052100	0.474900	0.589600
H1331	H133	0.106300	0.492200	0.665000
H1341	H134	0.147000	0.521900	0.581900
N361	N36	0.066800	0.342800	0.652600
H1351	H135	0.243900	0.945400	0.296300
N371	N37	0.485700	0.229800	0.866200
H1361	H136	0.507100	0.207700	0.838100
N381	N38	0.489000	0.300200	0.846400
N391	N39	0.280800	0.203300	0.124300
H1371	H137	0.235700	0.174300	0.148800
C911	C91	0.374200	0.244300	0.033800
C921	C92	0.298400	0.182400	0.053800
C931	C93	0.241700	0.104900	0.014300
H1381	H138	0.186800	0.091200	0.025600
H1391	H139	0.250600	0.110800	0.958200
H1401	H140	0.251000	0.062700	0.033400
C941	C94	0.401000	0.301000	0.098000
C951	C95	0.421500	0.251500	0.961700
C961	C96	0.445700	0.197700	0.934400
C971	C97	0.449800	0.314400	0.904700
C981	C98	0.437500	0.122400	0.968700
H1411	H141	0.451000	0.094600	0.929500
H1421	H142	0.473500	0.135900	0.013000
H1431	H143	0.382500	0.087900	0.985900
C991	C99	0.437600	0.386000	0.901200
H1441	H144	0.454900	0.411800	0.850500
H1451	H145	0.381100	0.368400	0.908700
H1461	H146	0.469000	0.423900	0.942000
C1001	C100	0.479500	0.378000	0.109600
H1471	H147	0.474900	0.422800	0.089600
H1481	H148	0.492200	0.385900	0.165000
H1491	H149	0.521900	0.374900	0.081900
N401	N40	0.342800	0.276000	0.152600
H1501	H150	0.945400	0.701500	0.796300
N411	N41	0.770200	0.255900	0.866200
H1511	H151	0.792300	0.299400	0.838100
N421	N42	0.699800	0.188800	0.846400
N431	N43	0.796700	0.077500	0.124300
H1521	H152	0.825700	0.061400	0.148800
C1011	C101	0.755700	0.129900	0.033800
C1021	C102	0.817600	0.116000	0.053800
C1031	C103	0.895100	0.136800	0.014300
H1531	H153	0.908800	0.095600	0.025600
H1541	H154	0.889200	0.139800	0.958200
H1551	H155	0.937300	0.188300	0.033400
C1041	C104	0.699000	0.100000	0.098000
C1051	C105	0.748500	0.170000	0.961700
C1061	C106	0.802300	0.248000	0.934400
C1071	C107	0.685600	0.135400	0.904700
C1081	C108	0.877600	0.315100	0.968700
H1561	H156	0.905400	0.356400	0.929500
H1571	H157	0.864100	0.337600	0.013000
H1581	H158	0.912100	0.294600	0.985900
C1091	C109	0.614000	0.051600	0.901200
H1591	H159	0.588200	0.043100	0.850500
H1601	H160	0.631600	0.012700	0.908700
H1611	H161	0.576100	0.045100	0.942000
C1101	C110	0.622000	0.101500	0.109600
H1621	H162	0.577200	0.052100	0.089600
H1631	H163	0.614100	0.106300	0.165000
H1641	H164	0.625100	0.147000	0.081900
N441	N44	0.724000	0.066800	0.152600
H1651	H165	0.298500	0.243900	0.796300
N451	N45	0.744100	0.514300	0.866200
H1661	H166	0.700600	0.492900	0.838100
N461	N46	0.811200	0.511000	0.846400
N471	N47	0.922500	0.719200	0.124300
H1671	H167	0.938600	0.764300	0.148800
C1111	C111	0.870100	0.625800	0.033800
C1121	C112	0.884000	0.701600	0.053800
C1131	C113	0.863200	0.758300	0.014300
H1681	H168	0.904400	0.813200	0.025600
H1691	H169	0.860200	0.749400	0.958200
H1701	H170	0.811700	0.749000	0.033400
C1141	C114	0.900000	0.599000	0.098000
C1151	C115	0.830000	0.578500	0.961700
C1161	C116	0.752000	0.554300	0.934400
C1171	C117	0.864600	0.550200	0.904700
C1181	C118	0.684900	0.562500	0.968700
H1711	H171	0.643600	0.549000	0.929500
H1721	H172	0.662400	0.526500	0.013000
H1731	H173	0.705400	0.617500	0.985900
C1191	C119	0.948400	0.562400	0.901200
H1741	H174	0.956900	0.545100	0.850500
H1751	H175	0.987300	0.618900	0.908700
H1761	H176	0.954900	0.531000	0.942000
C1201	C120	0.898500	0.520500	0.109600
H1771	H177	0.947900	0.525100	0.089600
H1781	H178	0.893700	0.507800	0.165000
H1791	H179	0.853000	0.478100	0.081900
N481	N48	0.933200	0.657200	0.152600
H1801	H180	0.756100	0.054600	0.796300
Cu11	Cu1	0.669320	0.667060	0.750000
Cu21	Cu2	0.547740	0.366670	0.750000
C1211	C121	0.618300	0.553700	0.750000
N491	N49	0.592900	0.482300	0.750000
N501	N50	0.792000	0.707900	0.750000
C1221	C122	0.852800	0.715100	0.750000
C1231	C123	0.938300	0.726400	0.750000
H1811	H181	0.977700	0.783400	0.750000
Cu31	Cu3	0.332940	0.002260	0.750000
Cu41	Cu4	0.633330	0.181070	0.750000
C1241	C124	0.446300	0.064600	0.750000
N511	N51	0.517700	0.110600	0.750000
N521	N52	0.292100	0.084100	0.750000
C1251	C125	0.284900	0.137700	0.750000
C1261	C126	0.273600	0.211900	0.750000
H1821	H182	0.216600	0.194300	0.750000
Cu51	Cu5	0.997740	0.330680	0.750000
Cu61	Cu6	0.818930	0.452260	0.750000
C1271	C127	0.935400	0.381700	0.750000
N531	N53	0.889400	0.407100	0.750000
N541	N54	0.915900	0.208000	0.750000
C1281	C128	0.862300	0.147200	0.750000
C1291	C129	0.788100	0.061700	0.750000
H1831	H183	0.805700	0.022300	0.750000
Cu71	Cu7	0.330680	0.332940	0.250000
Cu81	Cu8	0.452260	0.633330	0.250000
C1301	C130	0.381700	0.446300	0.250000
N551	N55	0.407100	0.517700	0.250000
N561	N56	0.208000	0.292100	0.250000
C1311	C131	0.147200	0.284900	0.250000
C1321	C132	0.061700	0.273600	0.250000
H1841	H184	0.022300	0.216600	0.250000
Cu91	Cu9	0.667060	0.997740	0.250000
Cu101	Cu10	0.366670	0.818930	0.250000
C1331	C133	0.553700	0.935400	0.250000
N571	N57	0.482300	0.889400	0.250000
N581	N58	0.707900	0.915900	0.250000
C1341	C134	0.715100	0.862300	0.250000
C1351	C135	0.726400	0.788100	0.250000
H1851	H185	0.783400	0.805700	0.250000
Cu111	Cu11	0.002260	0.669320	0.250000
Cu121	Cu12	0.181070	0.547740	0.250000
C1361	C136	0.064600	0.618300	0.250000
N591	N59	0.110600	0.592900	0.250000
N601	N60	0.084100	0.792000	0.250000
C1371	C137	0.137700	0.852800	0.250000
C1381	C138	0.211900	0.938300	0.250000
H1861	H186	0.194300	0.977700	0.250000
Br11	Br1	0.666670	0.333330	0.750000
Br21	Br2	0.333330	0.666670	0.250000
