data_MULSER_freeONLY_PM
_symmetry_space_group_name_H-M	'P1'
_cell_length_a	10.346600
_cell_length_b	18.541500
_cell_length_c	22.700100
_cell_angle_alpha	90.000000
_cell_angle_beta	90.000000
_cell_angle_gamma	90.000000
_symmetry_Int_Tables_number 1

loop_
_symmetry_equiv_pos_as_xyz
'x,y,z'

loop_
_atom_site_label
_atom_site_type_symbol
_atom_site_fract_x
_atom_site_fract_y
_atom_site_fract_z
O11	O1	0.856800	0.686200	0.483500
O21	O2	0.056400	0.801700	0.566200
O31	O3	0.937300	0.660200	0.603200
O41	O4	0.133700	0.666800	0.520000
O51	O5	0.078700	0.773300	0.437000
O61	O6	0.865600	0.849200	0.477000
O71	O7	0.782900	0.784800	0.584600
O81	O8	0.351600	0.680100	0.722400
O91	O9	0.128300	0.809100	0.772400
O101	O10	0.385400	0.843000	0.753300
O111	O11	0.272500	0.805400	0.646700
O121	O12	0.087100	0.703900	0.674900
O131	O13	0.880300	0.654300	0.704600
O141	O14	0.344100	0.731400	0.838900
O151	O15	0.252700	0.461300	0.661800
O161	O16	0.978900	0.479100	0.572200
O171	O17	0.237200	0.429700	0.533200
O181	O18	0.232700	0.568300	0.573300
O191	O19	0.048200	0.576100	0.668100
O201	O20	0.988100	0.432000	0.697100
O211	O21	0.084000	0.340100	0.613000
U11	U1	0.956700	0.743980	0.524520
U21	U2	0.239630	0.745460	0.746160
U31	U3	0.116350	0.470270	0.616370
S11	S1	0.989600	0.648570	0.663000
S21	S2	0.240500	0.614210	0.520640
S31	S3	0.150900	0.728850	0.395170
O221	O22	0.356800	0.186200	0.483500
O231	O23	0.556400	0.301700	0.566200
O241	O24	0.437300	0.160200	0.603200
O251	O25	0.633700	0.166800	0.520000
O261	O26	0.578700	0.273300	0.437000
O271	O27	0.365600	0.349200	0.477000
O281	O28	0.282900	0.284800	0.584600
O291	O29	0.851600	0.180100	0.722400
O301	O30	0.628300	0.309100	0.772400
O311	O31	0.885400	0.343000	0.753300
O321	O32	0.772500	0.305400	0.646700
O331	O33	0.587100	0.203900	0.674900
O341	O34	0.380300	0.154300	0.704600
O351	O35	0.844100	0.231400	0.838900
O361	O36	0.752700	0.961300	0.661800
O371	O37	0.478900	0.979100	0.572200
O381	O38	0.737200	0.929700	0.533200
O391	O39	0.732700	0.068300	0.573300
O401	O40	0.548200	0.076100	0.668100
O411	O41	0.488100	0.932000	0.697100
O421	O42	0.584000	0.840100	0.613000
U41	U4	0.456700	0.243980	0.524520
U51	U5	0.739630	0.245460	0.746160
U61	U6	0.616350	0.970270	0.616370
S41	S4	0.489600	0.148570	0.663000
S51	S5	0.740500	0.114210	0.520640
S61	S6	0.650900	0.228850	0.395170
O431	O43	0.143200	0.313800	0.983500
O441	O44	0.943600	0.198300	0.066200
O451	O45	0.062700	0.339800	0.103200
O461	O46	0.866300	0.333200	0.020000
O471	O47	0.921300	0.226700	0.937000
O481	O48	0.134400	0.150800	0.977000
O491	O49	0.217100	0.215200	0.084600
O501	O50	0.648400	0.319900	0.222400
O511	O51	0.871700	0.190900	0.272400
O521	O52	0.614600	0.157000	0.253300
O531	O53	0.727500	0.194600	0.146700
O541	O54	0.912900	0.296100	0.174900
O551	O55	0.119700	0.345700	0.204600
O561	O56	0.655900	0.268600	0.338900
O571	O57	0.747300	0.538700	0.161800
O581	O58	0.021100	0.520900	0.072200
O591	O59	0.762800	0.570300	0.033200
O601	O60	0.767300	0.431700	0.073300
O611	O61	0.951800	0.423900	0.168100
O621	O62	0.011900	0.568000	0.197100
O631	O63	0.916000	0.659900	0.113000
U71	U7	0.043300	0.256020	0.024520
U81	U8	0.760370	0.254540	0.246160
U91	U9	0.883650	0.529730	0.116370
S71	S7	0.010400	0.351430	0.163000
S81	S8	0.759500	0.385790	0.020640
S91	S9	0.849100	0.271150	0.895170
O641	O64	0.643200	0.813800	0.983500
O651	O65	0.443600	0.698300	0.066200
O661	O66	0.562700	0.839800	0.103200
O671	O67	0.366300	0.833200	0.020000
O681	O68	0.421300	0.726700	0.937000
O691	O69	0.634400	0.650800	0.977000
O701	O70	0.717100	0.715200	0.084600
O711	O71	0.148400	0.819900	0.222400
O721	O72	0.371700	0.690900	0.272400
O731	O73	0.114600	0.657000	0.253300
O741	O74	0.227500	0.694600	0.146700
O751	O75	0.412900	0.796100	0.174900
O761	O76	0.619700	0.845700	0.204600
O771	O77	0.155900	0.768600	0.338900
O781	O78	0.247300	0.038700	0.161800
O791	O79	0.521100	0.020900	0.072200
O801	O80	0.262800	0.070300	0.033200
O811	O81	0.267300	0.931700	0.073300
O821	O82	0.451800	0.923900	0.168100
O831	O83	0.511900	0.068000	0.197100
O841	O84	0.416000	0.159900	0.113000
U101	U10	0.543300	0.756020	0.024520
U111	U11	0.260370	0.754540	0.246160
U121	U12	0.383650	0.029730	0.116370
S101	S10	0.510400	0.851430	0.163000
S111	S11	0.259500	0.885790	0.020640
S121	S12	0.349100	0.771150	0.895170
O851	O85	0.143200	0.686200	0.016500
O861	O86	0.943600	0.801700	0.933800
O871	O87	0.062700	0.660200	0.896800
O881	O88	0.866300	0.666800	0.980000
O891	O89	0.921300	0.773300	0.063000
O901	O90	0.134400	0.849200	0.023000
O911	O91	0.217100	0.784800	0.915400
O921	O92	0.648400	0.680100	0.777600
O931	O93	0.871700	0.809100	0.727600
O941	O94	0.614600	0.843000	0.746700
O951	O95	0.727500	0.805400	0.853300
O961	O96	0.912900	0.703900	0.825100
O971	O97	0.119700	0.654300	0.795400
O981	O98	0.655900	0.731400	0.661100
O991	O99	0.747300	0.461300	0.838200
O1001	O100	0.021100	0.479100	0.927800
O1011	O101	0.762800	0.429700	0.966800
O1021	O102	0.767300	0.568300	0.926700
O1031	O103	0.951800	0.576100	0.831900
O1041	O104	0.011900	0.432000	0.802900
O1051	O105	0.916000	0.340100	0.887000
U131	U13	0.043300	0.743980	0.975480
U141	U14	0.760370	0.745460	0.753840
U151	U15	0.883650	0.470270	0.883630
S131	S13	0.010400	0.648570	0.837000
S141	S14	0.759500	0.614210	0.979360
S151	S15	0.849100	0.728850	0.104830
O1061	O106	0.643200	0.186200	0.016500
O1071	O107	0.443600	0.301700	0.933800
O1081	O108	0.562700	0.160200	0.896800
O1091	O109	0.366300	0.166800	0.980000
O1101	O110	0.421300	0.273300	0.063000
O1111	O111	0.634400	0.349200	0.023000
O1121	O112	0.717100	0.284800	0.915400
O1131	O113	0.148400	0.180100	0.777600
O1141	O114	0.371700	0.309100	0.727600
O1151	O115	0.114600	0.343000	0.746700
O1161	O116	0.227500	0.305400	0.853300
O1171	O117	0.412900	0.203900	0.825100
O1181	O118	0.619700	0.154300	0.795400
O1191	O119	0.155900	0.231400	0.661100
O1201	O120	0.247300	0.961300	0.838200
O1211	O121	0.521100	0.979100	0.927800
O1221	O122	0.262800	0.929700	0.966800
O1231	O123	0.267300	0.068300	0.926700
O1241	O124	0.451800	0.076100	0.831900
O1251	O125	0.511900	0.932000	0.802900
O1261	O126	0.416000	0.840100	0.887000
U161	U16	0.543300	0.243980	0.975480
U171	U17	0.260370	0.245460	0.753840
U181	U18	0.383650	0.970270	0.883630
S161	S16	0.510400	0.148570	0.837000
S171	S17	0.259500	0.114210	0.979360
S181	S18	0.349100	0.228850	0.104830
O1271	O127	0.856800	0.313800	0.516500
O1281	O128	0.056400	0.198300	0.433800
O1291	O129	0.937300	0.339800	0.396800
O1301	O130	0.133700	0.333200	0.480000
O1311	O131	0.078700	0.226700	0.563000
O1321	O132	0.865600	0.150800	0.523000
O1331	O133	0.782900	0.215200	0.415400
O1341	O134	0.351600	0.319900	0.277600
O1351	O135	0.128300	0.190900	0.227600
O1361	O136	0.385400	0.157000	0.246700
O1371	O137	0.272500	0.194600	0.353300
O1381	O138	0.087100	0.296100	0.325100
O1391	O139	0.880300	0.345700	0.295400
O1401	O140	0.344100	0.268600	0.161100
O1411	O141	0.252700	0.538700	0.338200
O1421	O142	0.978900	0.520900	0.427800
O1431	O143	0.237200	0.570300	0.466800
O1441	O144	0.232700	0.431700	0.426700
O1451	O145	0.048200	0.423900	0.331900
O1461	O146	0.988100	0.568000	0.302900
O1471	O147	0.084000	0.659900	0.387000
U191	U19	0.956700	0.256020	0.475480
U201	U20	0.239630	0.254540	0.253840
U211	U21	0.116350	0.529730	0.383630
S191	S19	0.989600	0.351430	0.337000
S201	S20	0.240500	0.385790	0.479360
S211	S21	0.150900	0.271150	0.604830
O1481	O148	0.356800	0.813800	0.516500
O1491	O149	0.556400	0.698300	0.433800
O1501	O150	0.437300	0.839800	0.396800
O1511	O151	0.633700	0.833200	0.480000
O1521	O152	0.578700	0.726700	0.563000
O1531	O153	0.365600	0.650800	0.523000
O1541	O154	0.282900	0.715200	0.415400
O1551	O155	0.851600	0.819900	0.277600
O1561	O156	0.628300	0.690900	0.227600
O1571	O157	0.885400	0.657000	0.246700
O1581	O158	0.772500	0.694600	0.353300
O1591	O159	0.587100	0.796100	0.325100
O1601	O160	0.380300	0.845700	0.295400
O1611	O161	0.844100	0.768600	0.161100
O1621	O162	0.752700	0.038700	0.338200
O1631	O163	0.478900	0.020900	0.427800
O1641	O164	0.737200	0.070300	0.466800
O1651	O165	0.732700	0.931700	0.426700
O1661	O166	0.548200	0.923900	0.331900
O1671	O167	0.488100	0.068000	0.302900
O1681	O168	0.584000	0.159900	0.387000
U221	U22	0.456700	0.756020	0.475480
U231	U23	0.739630	0.754540	0.253840
U241	U24	0.616350	0.029730	0.383630
S221	S22	0.489600	0.851430	0.337000
S231	S23	0.740500	0.885790	0.479360
S241	S24	0.650900	0.771150	0.604830
S251	S25	0.500000	0.886990	0.750000
S261	S26	0.000000	0.386990	0.750000
S271	S27	0.500000	0.113010	0.250000
S281	S28	0.000000	0.613010	0.250000
