data_MUMYAW_freeONLY_PM
_symmetry_space_group_name_H-M	'P1'
_cell_length_a	32.817100
_cell_length_b	32.817100
_cell_length_c	9.230500
_cell_angle_alpha	90.000000
_cell_angle_beta	90.000000
_cell_angle_gamma	120.000000
_symmetry_Int_Tables_number 1

loop_
_symmetry_equiv_pos_as_xyz
'x,y,z'

loop_
_atom_site_label
_atom_site_type_symbol
_atom_site_fract_x
_atom_site_fract_y
_atom_site_fract_z
N11	N1	0.535920	0.002740	0.177800
N21	N2	0.498610	0.056650	0.070600
N31	N3	0.623040	0.864200	0.235700
N41	N4	0.620300	0.208100	0.909800
C11	C1	0.556660	0.975850	0.204500
C21	C2	0.584910	0.992070	0.333800
H11	H1	0.602100	0.979500	0.374600
C31	C3	0.581740	0.028540	0.384300
H21	H2	0.596300	0.046100	0.466800
C41	C4	0.551540	0.035510	0.287300
C51	C5	0.541990	0.072580	0.300000
C61	C6	0.516740	0.081460	0.196900
C71	C7	0.504310	0.117460	0.210800
H31	H3	0.512800	0.139100	0.286000
C81	C8	0.478050	0.114070	0.094900
H41	H4	0.464800	0.132700	0.075000
C91	C9	0.474330	0.076240	0.007900
C101	C10	0.551890	0.939070	0.118700
C111	C11	0.577420	0.913750	0.163300
C121	C12	0.559430	0.879100	0.267500
H51	H5	0.531600	0.871700	0.315400
C131	C13	0.583230	0.855450	0.299800
H61	H6	0.570700	0.832100	0.370400
C141	C14	0.618770	0.923190	0.096800
H71	H7	0.632200	0.946400	0.026200
C151	C15	0.640170	0.897790	0.136100
H81	H8	0.668100	0.904500	0.090200
C161	C16	0.559520	0.103280	0.430500
C171	C17	0.541660	0.085320	0.565700
H91	H9	0.518900	0.053800	0.574800
C181	C18	0.557030	0.113340	0.687800
H101	H10	0.544400	0.100800	0.778000
C191	C19	0.591310	0.160100	0.675200
C201	C20	0.609380	0.178670	0.541800
H111	H11	0.632300	0.210200	0.533500
C211	C21	0.593610	0.150590	0.419200
H121	H12	0.605900	0.163400	0.328900
C221	C22	0.607900	0.187830	0.805500
N51	N5	0.202590	0.336070	0.511130
N61	N6	0.165280	0.389980	0.403930
N71	N7	0.289710	0.197530	0.569030
N81	N8	0.286970	0.541430	0.243130
C231	C23	0.223330	0.309180	0.537830
C241	C24	0.251580	0.325400	0.667130
H131	H13	0.268770	0.312830	0.707930
C251	C25	0.248410	0.361870	0.717630
H141	H14	0.262970	0.379430	0.800130
C261	C26	0.218210	0.368840	0.620630
C271	C27	0.208660	0.405910	0.633330
C281	C28	0.183410	0.414790	0.530230
C291	C29	0.170980	0.450790	0.544130
H151	H15	0.179470	0.472430	0.619330
C301	C30	0.144720	0.447400	0.428230
H161	H16	0.131470	0.466030	0.408330
C311	C31	0.141000	0.409570	0.341230
C321	C32	0.218560	0.272400	0.452030
C331	C33	0.244090	0.247080	0.496630
C341	C34	0.226100	0.212430	0.600830
H171	H17	0.198270	0.205030	0.648730
C351	C35	0.249900	0.188780	0.633130
H181	H18	0.237370	0.165430	0.703730
C361	C36	0.285440	0.256520	0.430130
H191	H19	0.298870	0.279730	0.359530
C371	C37	0.306840	0.231120	0.469430
H201	H20	0.334770	0.237830	0.423530
C381	C38	0.226190	0.436610	0.763830
C391	C39	0.208330	0.418650	0.899030
H211	H21	0.185570	0.387130	0.908130
C401	C40	0.223700	0.446670	0.021130
H221	H22	0.211070	0.434130	0.111330
C411	C41	0.257980	0.493430	0.008530
C421	C42	0.276050	0.512000	0.875130
H231	H23	0.298970	0.543530	0.866830
C431	C43	0.260280	0.483920	0.752530
H241	H24	0.272570	0.496730	0.662230
C441	C44	0.274570	0.521160	0.138830
N91	N9	0.869250	0.669410	0.844470
N101	N10	0.831940	0.723320	0.737270
N111	N11	0.956370	0.530870	0.902370
N121	N12	0.953630	0.874770	0.576470
C451	C45	0.889990	0.642520	0.871170
C461	C46	0.918240	0.658740	0.000470
H251	H25	0.935430	0.646170	0.041270
C471	C47	0.915070	0.695210	0.050970
H261	H26	0.929630	0.712770	0.133470
C481	C48	0.884870	0.702180	0.953970
C491	C49	0.875320	0.739250	0.966670
C501	C50	0.850070	0.748130	0.863570
C511	C51	0.837640	0.784130	0.877470
H271	H27	0.846130	0.805770	0.952670
C521	C52	0.811380	0.780740	0.761570
H281	H28	0.798130	0.799370	0.741670
C531	C53	0.807660	0.742910	0.674570
C541	C54	0.885220	0.605740	0.785370
C551	C55	0.910750	0.580420	0.829970
C561	C56	0.892760	0.545770	0.934170
H291	H29	0.864930	0.538370	0.982070
C571	C57	0.916560	0.522120	0.966470
H301	H30	0.904030	0.498770	0.037070
C581	C58	0.952100	0.589860	0.763470
H311	H31	0.965530	0.613070	0.692870
C591	C59	0.973500	0.564460	0.802770
H321	H32	0.001430	0.571170	0.756870
C601	C60	0.892850	0.769950	0.097170
C611	C61	0.874990	0.751990	0.232370
H331	H33	0.852230	0.720470	0.241470
C621	C62	0.890360	0.780010	0.354470
H341	H34	0.877730	0.767470	0.444670
C631	C63	0.924640	0.826770	0.341870
C641	C64	0.942710	0.845340	0.208470
H351	H35	0.965630	0.876870	0.200170
C651	C65	0.926940	0.817260	0.085870
H361	H36	0.939230	0.830070	0.995570
C661	C66	0.941230	0.854500	0.472170
N131	N13	0.997260	0.533180	0.177800
N141	N14	0.943350	0.441960	0.070600
N151	N15	0.135800	0.758840	0.235700
N161	N16	0.791900	0.412200	0.909800
C671	C67	0.024150	0.580810	0.204500
C681	C68	0.007930	0.592840	0.333800
H371	H37	0.020500	0.622600	0.374600
C691	C69	0.971460	0.553200	0.384300
H381	H38	0.953900	0.550200	0.466800
C701	C70	0.964490	0.516030	0.287300
C711	C71	0.927420	0.469410	0.300000
C721	C72	0.918540	0.435280	0.196900
C731	C73	0.882540	0.386850	0.210800
H391	H39	0.860900	0.373700	0.286000
C741	C74	0.885930	0.363980	0.094900
H401	H40	0.867300	0.332100	0.075000
C751	C75	0.923760	0.398090	0.007900
C761	C76	0.060930	0.612820	0.118700
C771	C77	0.086250	0.663670	0.163300
C781	C78	0.120900	0.680330	0.267500
H411	H41	0.128300	0.659900	0.315400
C791	C79	0.144550	0.727780	0.299800
H421	H42	0.167900	0.738600	0.370400
C801	C80	0.076810	0.695580	0.096800
H431	H43	0.053600	0.685800	0.026200
C811	C81	0.102210	0.742380	0.136100
H441	H44	0.095500	0.763600	0.090200
C821	C82	0.896720	0.456240	0.430500
C831	C83	0.914680	0.456340	0.565700
H451	H45	0.946200	0.465100	0.574800
C841	C84	0.886660	0.443690	0.687800
H461	H46	0.899200	0.443600	0.778000
C851	C85	0.839900	0.431210	0.675200
C861	C86	0.821330	0.430710	0.541800
H471	H47	0.789800	0.422100	0.533500
C871	C87	0.849410	0.443020	0.419200
H481	H48	0.836600	0.442500	0.328900
C881	C88	0.812170	0.420070	0.805500
N171	N17	0.663930	0.866510	0.511130
N181	N18	0.610020	0.775290	0.403930
N191	N19	0.802470	0.092170	0.569030
N201	N20	0.458570	0.745530	0.243130
C891	C89	0.690820	0.914140	0.537830
C901	C90	0.674600	0.926170	0.667130
H491	H49	0.687170	0.955930	0.707930
C911	C91	0.638130	0.886530	0.717630
H501	H50	0.620570	0.883530	0.800130
C921	C92	0.631160	0.849360	0.620630
C931	C93	0.594090	0.802740	0.633330
C941	C94	0.585210	0.768610	0.530230
C951	C95	0.549210	0.720180	0.544130
H511	H51	0.527570	0.707030	0.619330
C961	C96	0.552600	0.697310	0.428230
H521	H52	0.533970	0.665430	0.408330
C971	C97	0.590430	0.731420	0.341230
C981	C98	0.727600	0.946150	0.452030
C991	C99	0.752920	0.997000	0.496630
C1001	C100	0.787570	0.013660	0.600830
H531	H53	0.794970	0.993230	0.648730
C1011	C101	0.811220	0.061110	0.633130
H541	H54	0.834570	0.071930	0.703730
C1021	C102	0.743480	0.028910	0.430130
H551	H55	0.720270	0.019130	0.359530
C1031	C103	0.768880	0.075710	0.469430
H561	H56	0.762170	0.096930	0.423530
C1041	C104	0.563390	0.789570	0.763830
C1051	C105	0.581350	0.789670	0.899030
H571	H57	0.612870	0.798430	0.908130
C1061	C106	0.553330	0.777020	0.021130
H581	H58	0.565870	0.776930	0.111330
C1071	C107	0.506570	0.764540	0.008530
C1081	C108	0.488000	0.764040	0.875130
H591	H59	0.456470	0.755430	0.866830
C1091	C109	0.516080	0.776350	0.752530
H601	H60	0.503270	0.775830	0.662230
C1101	C110	0.478840	0.753400	0.138830
N211	N21	0.330590	0.199850	0.844470
N221	N22	0.276680	0.108630	0.737270
N231	N23	0.469130	0.425510	0.902370
N241	N24	0.125230	0.078870	0.576470
C1111	C111	0.357480	0.247480	0.871170
C1121	C112	0.341260	0.259510	0.000470
H611	H61	0.353830	0.289270	0.041270
C1131	C113	0.304790	0.219870	0.050970
H621	H62	0.287230	0.216870	0.133470
C1141	C114	0.297820	0.182700	0.953970
C1151	C115	0.260750	0.136080	0.966670
C1161	C116	0.251870	0.101950	0.863570
C1171	C117	0.215870	0.053520	0.877470
H631	H63	0.194230	0.040370	0.952670
C1181	C118	0.219260	0.030650	0.761570
H641	H64	0.200630	0.998770	0.741670
C1191	C119	0.257090	0.064760	0.674570
C1201	C120	0.394260	0.279490	0.785370
C1211	C121	0.419580	0.330340	0.829970
C1221	C122	0.454230	0.347000	0.934170
H651	H65	0.461630	0.326570	0.982070
C1231	C123	0.477880	0.394450	0.966470
H661	H66	0.501230	0.405270	0.037070
C1241	C124	0.410140	0.362250	0.763470
H671	H67	0.386930	0.352470	0.692870
C1251	C125	0.435540	0.409050	0.802770
H681	H68	0.428830	0.430270	0.756870
C1261	C126	0.230050	0.122910	0.097170
C1271	C127	0.248010	0.123010	0.232370
H691	H69	0.279530	0.131770	0.241470
C1281	C128	0.219990	0.110360	0.354470
H701	H70	0.232530	0.110270	0.444670
C1291	C129	0.173230	0.097880	0.341870
C1301	C130	0.154660	0.097380	0.208470
H711	H71	0.123130	0.088770	0.200170
C1311	C131	0.182740	0.109690	0.085870
H721	H72	0.169930	0.109170	0.995570
C1321	C132	0.145500	0.086740	0.472170
N251	N25	0.466820	0.464080	0.177800
N261	N26	0.558040	0.501390	0.070600
N271	N27	0.241160	0.376960	0.235700
N281	N28	0.587800	0.379700	0.909800
C1331	C133	0.419190	0.443340	0.204500
C1341	C134	0.407160	0.415090	0.333800
H731	H73	0.377400	0.397900	0.374600
C1351	C135	0.446800	0.418260	0.384300
H741	H74	0.449800	0.403700	0.466800
C1361	C136	0.483970	0.448460	0.287300
C1371	C137	0.530590	0.458010	0.300000
C1381	C138	0.564720	0.483260	0.196900
C1391	C139	0.613150	0.495690	0.210800
H751	H75	0.626300	0.487200	0.286000
C1401	C140	0.636020	0.521950	0.094900
H761	H76	0.667900	0.535200	0.075000
C1411	C141	0.601910	0.525670	0.007900
C1421	C142	0.387180	0.448110	0.118700
C1431	C143	0.336330	0.422580	0.163300
C1441	C144	0.319670	0.440570	0.267500
H771	H77	0.340100	0.468400	0.315400
C1451	C145	0.272220	0.416770	0.299800
H781	H78	0.261400	0.429300	0.370400
C1461	C146	0.304420	0.381230	0.096800
H791	H79	0.314200	0.367800	0.026200
C1471	C147	0.257620	0.359830	0.136100
H801	H80	0.236400	0.331900	0.090200
C1481	C148	0.543760	0.440480	0.430500
C1491	C149	0.543660	0.458340	0.565700
H811	H81	0.534900	0.481100	0.574800
C1501	C150	0.556310	0.442970	0.687800
H821	H82	0.556400	0.455600	0.778000
C1511	C151	0.568790	0.408690	0.675200
C1521	C152	0.569290	0.390620	0.541800
H831	H83	0.577900	0.367700	0.533500
C1531	C153	0.556980	0.406390	0.419200
H841	H84	0.557500	0.394100	0.328900
C1541	C154	0.579930	0.392100	0.805500
N291	N29	0.133490	0.797410	0.511130
N301	N30	0.224710	0.834720	0.403930
N311	N31	0.907830	0.710290	0.569030
N321	N32	0.254470	0.713030	0.243130
C1551	C155	0.085860	0.776670	0.537830
C1561	C156	0.073830	0.748420	0.667130
H851	H85	0.044070	0.731230	0.707930
C1571	C157	0.113470	0.751590	0.717630
H861	H86	0.116470	0.737030	0.800130
C1581	C158	0.150640	0.781790	0.620630
C1591	C159	0.197260	0.791340	0.633330
C1601	C160	0.231390	0.816590	0.530230
C1611	C161	0.279820	0.829020	0.544130
H871	H87	0.292970	0.820530	0.619330
C1621	C162	0.302690	0.855280	0.428230
H881	H88	0.334570	0.868530	0.408330
C1631	C163	0.268580	0.859000	0.341230
C1641	C164	0.053850	0.781440	0.452030
C1651	C165	0.003000	0.755910	0.496630
C1661	C166	0.986340	0.773900	0.600830
H891	H89	0.006770	0.801730	0.648730
C1671	C167	0.938890	0.750100	0.633130
H901	H90	0.928070	0.762630	0.703730
C1681	C168	0.971090	0.714560	0.430130
H911	H91	0.980870	0.701130	0.359530
C1691	C169	0.924290	0.693160	0.469430
H921	H92	0.903070	0.665230	0.423530
C1701	C170	0.210430	0.773810	0.763830
C1711	C171	0.210330	0.791670	0.899030
H931	H93	0.201570	0.814430	0.908130
C1721	C172	0.222980	0.776300	0.021130
H941	H94	0.223070	0.788930	0.111330
C1731	C173	0.235460	0.742020	0.008530
C1741	C174	0.235960	0.723950	0.875130
H951	H95	0.244570	0.701030	0.866830
C1751	C175	0.223650	0.739720	0.752530
H961	H96	0.224170	0.727430	0.662230
C1761	C176	0.246600	0.725430	0.138830
N331	N33	0.800150	0.130750	0.844470
N341	N34	0.891370	0.168060	0.737270
N351	N35	0.574490	0.043630	0.902370
N361	N36	0.921130	0.046370	0.576470
C1771	C177	0.752520	0.110010	0.871170
C1781	C178	0.740490	0.081760	0.000470
H971	H97	0.710730	0.064570	0.041270
C1791	C179	0.780130	0.084930	0.050970
H981	H98	0.783130	0.070370	0.133470
C1801	C180	0.817300	0.115130	0.953970
C1811	C181	0.863920	0.124680	0.966670
C1821	C182	0.898050	0.149930	0.863570
C1831	C183	0.946480	0.162360	0.877470
H991	H99	0.959630	0.153870	0.952670
C1841	C184	0.969350	0.188620	0.761570
H1001	H100	0.001230	0.201870	0.741670
C1851	C185	0.935240	0.192340	0.674570
C1861	C186	0.720510	0.114780	0.785370
C1871	C187	0.669660	0.089250	0.829970
C1881	C188	0.653000	0.107240	0.934170
H1011	H101	0.673430	0.135070	0.982070
C1891	C189	0.605550	0.083440	0.966470
H1021	H102	0.594730	0.095970	0.037070
C1901	C190	0.637750	0.047900	0.763470
H1031	H103	0.647530	0.034470	0.692870
C1911	C191	0.590950	0.026500	0.802770
H1041	H104	0.569730	0.998570	0.756870
C1921	C192	0.877090	0.107150	0.097170
C1931	C193	0.876990	0.125010	0.232370
H1051	H105	0.868230	0.147770	0.241470
C1941	C194	0.889640	0.109640	0.354470
H1061	H106	0.889730	0.122270	0.444670
C1951	C195	0.902120	0.075360	0.341870
C1961	C196	0.902620	0.057290	0.208470
H1071	H107	0.911230	0.034370	0.200170
C1971	C197	0.890310	0.073060	0.085870
H1081	H108	0.890830	0.060770	0.995570
C1981	C198	0.913260	0.058770	0.472170
N371	N37	0.464080	0.997260	0.822200
N381	N38	0.501390	0.943350	0.929400
N391	N39	0.376960	0.135800	0.764300
N401	N40	0.379700	0.791900	0.090200
C1991	C199	0.443340	0.024150	0.795500
C2001	C200	0.415090	0.007930	0.666200
H1091	H109	0.397900	0.020500	0.625400
C2011	C201	0.418260	0.971460	0.615700
H1101	H110	0.403700	0.953900	0.533200
C2021	C202	0.448460	0.964490	0.712700
C2031	C203	0.458010	0.927420	0.700000
C2041	C204	0.483260	0.918540	0.803100
C2051	C205	0.495690	0.882540	0.789200
H1111	H111	0.487200	0.860900	0.714000
C2061	C206	0.521950	0.885930	0.905100
H1121	H112	0.535200	0.867300	0.925000
C2071	C207	0.525670	0.923760	0.992100
C2081	C208	0.448110	0.060930	0.881300
C2091	C209	0.422580	0.086250	0.836700
C2101	C210	0.440570	0.120900	0.732500
H1131	H113	0.468400	0.128300	0.684600
C2111	C211	0.416770	0.144550	0.700200
H1141	H114	0.429300	0.167900	0.629600
C2121	C212	0.381230	0.076810	0.903200
H1151	H115	0.367800	0.053600	0.973800
C2131	C213	0.359830	0.102210	0.863900
H1161	H116	0.331900	0.095500	0.909800
C2141	C214	0.440480	0.896720	0.569500
C2151	C215	0.458340	0.914680	0.434300
H1171	H117	0.481100	0.946200	0.425200
C2161	C216	0.442970	0.886660	0.312200
H1181	H118	0.455600	0.899200	0.222000
C2171	C217	0.408690	0.839900	0.324800
C2181	C218	0.390620	0.821330	0.458200
H1191	H119	0.367700	0.789800	0.466500
C2191	C219	0.406390	0.849410	0.580800
H1201	H120	0.394100	0.836600	0.671100
C2201	C220	0.392100	0.812170	0.194500
N411	N41	0.130750	0.330590	0.155530
N421	N42	0.168060	0.276680	0.262730
N431	N43	0.043630	0.469130	0.097630
N441	N44	0.046370	0.125230	0.423530
C2211	C221	0.110010	0.357480	0.128830
C2221	C222	0.081760	0.341260	0.999530
H1211	H121	0.064570	0.353830	0.958730
C2231	C223	0.084930	0.304790	0.949030
H1221	H122	0.070370	0.287230	0.866530
C2241	C224	0.115130	0.297820	0.046030
C2251	C225	0.124680	0.260750	0.033330
C2261	C226	0.149930	0.251870	0.136430
C2271	C227	0.162360	0.215870	0.122530
H1231	H123	0.153870	0.194230	0.047330
C2281	C228	0.188620	0.219260	0.238430
H1241	H124	0.201870	0.200630	0.258330
C2291	C229	0.192340	0.257090	0.325430
C2301	C230	0.114780	0.394260	0.214630
C2311	C231	0.089250	0.419580	0.170030
C2321	C232	0.107240	0.454230	0.065830
H1251	H125	0.135070	0.461630	0.017930
C2331	C233	0.083440	0.477880	0.033530
H1261	H126	0.095970	0.501230	0.962930
C2341	C234	0.047900	0.410140	0.236530
H1271	H127	0.034470	0.386930	0.307130
C2351	C235	0.026500	0.435540	0.197230
H1281	H128	0.998570	0.428830	0.243130
C2361	C236	0.107150	0.230050	0.902830
C2371	C237	0.125010	0.248010	0.767630
H1291	H129	0.147770	0.279530	0.758530
C2381	C238	0.109640	0.219990	0.645530
H1301	H130	0.122270	0.232530	0.555330
C2391	C239	0.075360	0.173230	0.658130
C2401	C240	0.057290	0.154660	0.791530
H1311	H131	0.034370	0.123130	0.799830
C2411	C241	0.073060	0.182740	0.914130
H1321	H132	0.060770	0.169930	0.004430
C2421	C242	0.058770	0.145500	0.527830
N451	N45	0.797410	0.663930	0.488870
N461	N46	0.834720	0.610020	0.596070
N471	N47	0.710290	0.802470	0.430970
N481	N48	0.713030	0.458570	0.756870
C2431	C243	0.776670	0.690820	0.462170
C2441	C244	0.748420	0.674600	0.332870
H1331	H133	0.731230	0.687170	0.292070
C2451	C245	0.751590	0.638130	0.282370
H1341	H134	0.737030	0.620570	0.199870
C2461	C246	0.781790	0.631160	0.379370
C2471	C247	0.791340	0.594090	0.366670
C2481	C248	0.816590	0.585210	0.469770
C2491	C249	0.829020	0.549210	0.455870
H1351	H135	0.820530	0.527570	0.380670
C2501	C250	0.855280	0.552600	0.571770
H1361	H136	0.868530	0.533970	0.591670
C2511	C251	0.859000	0.590430	0.658770
C2521	C252	0.781440	0.727600	0.547970
C2531	C253	0.755910	0.752920	0.503370
C2541	C254	0.773900	0.787570	0.399170
H1371	H137	0.801730	0.794970	0.351270
C2551	C255	0.750100	0.811220	0.366870
H1381	H138	0.762630	0.834570	0.296270
C2561	C256	0.714560	0.743480	0.569870
H1391	H139	0.701130	0.720270	0.640470
C2571	C257	0.693160	0.768880	0.530570
H1401	H140	0.665230	0.762170	0.576470
C2581	C258	0.773810	0.563390	0.236170
C2591	C259	0.791670	0.581350	0.100970
H1411	H141	0.814430	0.612870	0.091870
C2601	C260	0.776300	0.553330	0.978870
H1421	H142	0.788930	0.565870	0.888670
C2611	C261	0.742020	0.506570	0.991470
C2621	C262	0.723950	0.488000	0.124870
H1431	H143	0.701030	0.456470	0.133170
C2631	C263	0.739720	0.516080	0.247470
H1441	H144	0.727430	0.503270	0.337770
C2641	C264	0.725430	0.478840	0.861170
N491	N49	0.002740	0.466820	0.822200
N501	N50	0.056650	0.558040	0.929400
N511	N51	0.864200	0.241160	0.764300
N521	N52	0.208100	0.587800	0.090200
C2651	C265	0.975850	0.419190	0.795500
C2661	C266	0.992070	0.407160	0.666200
H1451	H145	0.979500	0.377400	0.625400
C2671	C267	0.028540	0.446800	0.615700
H1461	H146	0.046100	0.449800	0.533200
C2681	C268	0.035510	0.483970	0.712700
C2691	C269	0.072580	0.530590	0.700000
C2701	C270	0.081460	0.564720	0.803100
C2711	C271	0.117460	0.613150	0.789200
H1471	H147	0.139100	0.626300	0.714000
C2721	C272	0.114070	0.636020	0.905100
H1481	H148	0.132700	0.667900	0.925000
C2731	C273	0.076240	0.601910	0.992100
C2741	C274	0.939070	0.387180	0.881300
C2751	C275	0.913750	0.336330	0.836700
C2761	C276	0.879100	0.319670	0.732500
H1491	H149	0.871700	0.340100	0.684600
C2771	C277	0.855450	0.272220	0.700200
H1501	H150	0.832100	0.261400	0.629600
C2781	C278	0.923190	0.304420	0.903200
H1511	H151	0.946400	0.314200	0.973800
C2791	C279	0.897790	0.257620	0.863900
H1521	H152	0.904500	0.236400	0.909800
C2801	C280	0.103280	0.543760	0.569500
C2811	C281	0.085320	0.543660	0.434300
H1531	H153	0.053800	0.534900	0.425200
C2821	C282	0.113340	0.556310	0.312200
H1541	H154	0.100800	0.556400	0.222000
C2831	C283	0.160100	0.568790	0.324800
C2841	C284	0.178670	0.569290	0.458200
H1551	H155	0.210200	0.577900	0.466500
C2851	C285	0.150590	0.556980	0.580800
H1561	H156	0.163400	0.557500	0.671100
C2861	C286	0.187830	0.579930	0.194500
N531	N53	0.669410	0.800150	0.155530
N541	N54	0.723320	0.891370	0.262730
N551	N55	0.530870	0.574490	0.097630
N561	N56	0.874770	0.921130	0.423530
C2871	C287	0.642520	0.752520	0.128830
C2881	C288	0.658740	0.740490	0.999530
H1571	H157	0.646170	0.710730	0.958730
C2891	C289	0.695210	0.780130	0.949030
H1581	H158	0.712770	0.783130	0.866530
C2901	C290	0.702180	0.817300	0.046030
C2911	C291	0.739250	0.863920	0.033330
C2921	C292	0.748130	0.898050	0.136430
C2931	C293	0.784130	0.946480	0.122530
H1591	H159	0.805770	0.959630	0.047330
C2941	C294	0.780740	0.969350	0.238430
H1601	H160	0.799370	0.001230	0.258330
C2951	C295	0.742910	0.935240	0.325430
C2961	C296	0.605740	0.720510	0.214630
C2971	C297	0.580420	0.669660	0.170030
C2981	C298	0.545770	0.653000	0.065830
H1611	H161	0.538370	0.673430	0.017930
C2991	C299	0.522120	0.605550	0.033530
H1621	H162	0.498770	0.594730	0.962930
C3001	C300	0.589860	0.637750	0.236530
H1631	H163	0.613070	0.647530	0.307130
C3011	C301	0.564460	0.590950	0.197230
H1641	H164	0.571170	0.569730	0.243130
C3021	C302	0.769950	0.877090	0.902830
C3031	C303	0.751990	0.876990	0.767630
H1651	H165	0.720470	0.868230	0.758530
C3041	C304	0.780010	0.889640	0.645530
H1661	H166	0.767470	0.889730	0.555330
C3051	C305	0.826770	0.902120	0.658130
C3061	C306	0.845340	0.902620	0.791530
H1671	H167	0.876870	0.911230	0.799830
C3071	C307	0.817260	0.890310	0.914130
H1681	H168	0.830070	0.890830	0.004430
C3081	C308	0.854500	0.913260	0.527830
N571	N57	0.336070	0.133490	0.488870
N581	N58	0.389980	0.224710	0.596070
N591	N59	0.197530	0.907830	0.430970
N601	N60	0.541430	0.254470	0.756870
C3091	C309	0.309180	0.085860	0.462170
C3101	C310	0.325400	0.073830	0.332870
H1691	H169	0.312830	0.044070	0.292070
C3111	C311	0.361870	0.113470	0.282370
H1701	H170	0.379430	0.116470	0.199870
C3121	C312	0.368840	0.150640	0.379370
C3131	C313	0.405910	0.197260	0.366670
C3141	C314	0.414790	0.231390	0.469770
C3151	C315	0.450790	0.279820	0.455870
H1711	H171	0.472430	0.292970	0.380670
C3161	C316	0.447400	0.302690	0.571770
H1721	H172	0.466030	0.334570	0.591670
C3171	C317	0.409570	0.268580	0.658770
C3181	C318	0.272400	0.053850	0.547970
C3191	C319	0.247080	0.003000	0.503370
C3201	C320	0.212430	0.986340	0.399170
H1731	H173	0.205030	0.006770	0.351270
C3211	C321	0.188780	0.938890	0.366870
H1741	H174	0.165430	0.928070	0.296270
C3221	C322	0.256520	0.971090	0.569870
H1751	H175	0.279730	0.980870	0.640470
C3231	C323	0.231120	0.924290	0.530570
H1761	H176	0.237830	0.903070	0.576470
C3241	C324	0.436610	0.210430	0.236170
C3251	C325	0.418650	0.210330	0.100970
H1771	H177	0.387130	0.201570	0.091870
C3261	C326	0.446670	0.222980	0.978870
H1781	H178	0.434130	0.223070	0.888670
C3271	C327	0.493430	0.235460	0.991470
C3281	C328	0.512000	0.235960	0.124870
H1791	H179	0.543530	0.244570	0.133170
C3291	C329	0.483920	0.223650	0.247470
H1801	H180	0.496730	0.224170	0.337770
C3301	C330	0.521160	0.246600	0.861170
N611	N61	0.533180	0.535920	0.822200
N621	N62	0.441960	0.498610	0.929400
N631	N63	0.758840	0.623040	0.764300
N641	N64	0.412200	0.620300	0.090200
C3311	C331	0.580810	0.556660	0.795500
C3321	C332	0.592840	0.584910	0.666200
H1811	H181	0.622600	0.602100	0.625400
C3331	C333	0.553200	0.581740	0.615700
H1821	H182	0.550200	0.596300	0.533200
C3341	C334	0.516030	0.551540	0.712700
C3351	C335	0.469410	0.541990	0.700000
C3361	C336	0.435280	0.516740	0.803100
C3371	C337	0.386850	0.504310	0.789200
H1831	H183	0.373700	0.512800	0.714000
C3381	C338	0.363980	0.478050	0.905100
H1841	H184	0.332100	0.464800	0.925000
C3391	C339	0.398090	0.474330	0.992100
C3401	C340	0.612820	0.551890	0.881300
C3411	C341	0.663670	0.577420	0.836700
C3421	C342	0.680330	0.559430	0.732500
H1851	H185	0.659900	0.531600	0.684600
C3431	C343	0.727780	0.583230	0.700200
H1861	H186	0.738600	0.570700	0.629600
C3441	C344	0.695580	0.618770	0.903200
H1871	H187	0.685800	0.632200	0.973800
C3451	C345	0.742380	0.640170	0.863900
H1881	H188	0.763600	0.668100	0.909800
C3461	C346	0.456240	0.559520	0.569500
C3471	C347	0.456340	0.541660	0.434300
H1891	H189	0.465100	0.518900	0.425200
C3481	C348	0.443690	0.557030	0.312200
H1901	H190	0.443600	0.544400	0.222000
C3491	C349	0.431210	0.591310	0.324800
C3501	C350	0.430710	0.609380	0.458200
H1911	H191	0.422100	0.632300	0.466500
C3511	C351	0.443020	0.593610	0.580800
H1921	H192	0.442500	0.605900	0.671100
C3521	C352	0.420070	0.607900	0.194500
N651	N65	0.199850	0.869250	0.155530
N661	N66	0.108630	0.831940	0.262730
N671	N67	0.425510	0.956370	0.097630
N681	N68	0.078870	0.953630	0.423530
C3531	C353	0.247480	0.889990	0.128830
C3541	C354	0.259510	0.918240	0.999530
H1931	H193	0.289270	0.935430	0.958730
C3551	C355	0.219870	0.915070	0.949030
H1941	H194	0.216870	0.929630	0.866530
C3561	C356	0.182700	0.884870	0.046030
C3571	C357	0.136080	0.875320	0.033330
C3581	C358	0.101950	0.850070	0.136430
C3591	C359	0.053520	0.837640	0.122530
H1951	H195	0.040370	0.846130	0.047330
C3601	C360	0.030650	0.811380	0.238430
H1961	H196	0.998770	0.798130	0.258330
C3611	C361	0.064760	0.807660	0.325430
C3621	C362	0.279490	0.885220	0.214630
C3631	C363	0.330340	0.910750	0.170030
C3641	C364	0.347000	0.892760	0.065830
H1971	H197	0.326570	0.864930	0.017930
C3651	C365	0.394450	0.916560	0.033530
H1981	H198	0.405270	0.904030	0.962930
C3661	C366	0.362250	0.952100	0.236530
H1991	H199	0.352470	0.965530	0.307130
C3671	C367	0.409050	0.973500	0.197230
H2001	H200	0.430270	0.001430	0.243130
C3681	C368	0.122910	0.892850	0.902830
C3691	C369	0.123010	0.874990	0.767630
H2011	H201	0.131770	0.852230	0.758530
C3701	C370	0.110360	0.890360	0.645530
H2021	H202	0.110270	0.877730	0.555330
C3711	C371	0.097880	0.924640	0.658130
C3721	C372	0.097380	0.942710	0.791530
H2031	H203	0.088770	0.965630	0.799830
C3731	C373	0.109690	0.926940	0.914130
H2041	H204	0.109170	0.939230	0.004430
C3741	C374	0.086740	0.941230	0.527830
N691	N69	0.866510	0.202590	0.488870
N701	N70	0.775290	0.165280	0.596070
N711	N71	0.092170	0.289710	0.430970
N721	N72	0.745530	0.286970	0.756870
C3751	C375	0.914140	0.223330	0.462170
C3761	C376	0.926170	0.251580	0.332870
H2051	H205	0.955930	0.268770	0.292070
C3771	C377	0.886530	0.248410	0.282370
H2061	H206	0.883530	0.262970	0.199870
C3781	C378	0.849360	0.218210	0.379370
C3791	C379	0.802740	0.208660	0.366670
C3801	C380	0.768610	0.183410	0.469770
C3811	C381	0.720180	0.170980	0.455870
H2071	H207	0.707030	0.179470	0.380670
C3821	C382	0.697310	0.144720	0.571770
H2081	H208	0.665430	0.131470	0.591670
C3831	C383	0.731420	0.141000	0.658770
C3841	C384	0.946150	0.218560	0.547970
C3851	C385	0.997000	0.244090	0.503370
C3861	C386	0.013660	0.226100	0.399170
H2091	H209	0.993230	0.198270	0.351270
C3871	C387	0.061110	0.249900	0.366870
H2101	H210	0.071930	0.237370	0.296270
C3881	C388	0.028910	0.285440	0.569870
H2111	H211	0.019130	0.298870	0.640470
C3891	C389	0.075710	0.306840	0.530570
H2121	H212	0.096930	0.334770	0.576470
C3901	C390	0.789570	0.226190	0.236170
C3911	C391	0.789670	0.208330	0.100970
H2131	H213	0.798430	0.185570	0.091870
C3921	C392	0.777020	0.223700	0.978870
H2141	H214	0.776930	0.211070	0.888670
C3931	C393	0.764540	0.257980	0.991470
C3941	C394	0.764040	0.276050	0.124870
H2151	H215	0.755430	0.298970	0.133170
C3951	C395	0.776350	0.260280	0.247470
H2161	H216	0.775830	0.272570	0.337770
C3961	C396	0.753400	0.274570	0.861170
Co11	Co1	0.500000	0.000000	0.000000
Co21	Co2	0.166670	0.333330	0.333330
Co31	Co3	0.833330	0.666670	0.666670
Co41	Co4	0.000000	0.500000	0.000000
Co51	Co5	0.666670	0.833330	0.333330
Co61	Co6	0.333330	0.166670	0.666670
Co71	Co7	0.500000	0.500000	0.000000
Co81	Co8	0.166670	0.833330	0.333330
Co91	Co9	0.833330	0.166670	0.666670
