data_MUNDOQ_freeONLY_PM
_symmetry_space_group_name_H-M	'P1'
_cell_length_a	28.135000
_cell_length_b	28.135000
_cell_length_c	19.200000
_cell_angle_alpha	90.000000
_cell_angle_beta	90.000000
_cell_angle_gamma	120.000000
_symmetry_Int_Tables_number 1

loop_
_symmetry_equiv_pos_as_xyz
'x,y,z'

loop_
_atom_site_label
_atom_site_type_symbol
_atom_site_fract_x
_atom_site_fract_y
_atom_site_fract_z
I11	I1	0.228530	0.597480	0.423810
Cu11	Cu1	0.291460	0.686930	0.498090
O11	O1	0.215100	0.836500	0.676000
O21	O2	0.294200	0.834200	0.679100
O31	O3	0.951800	0.677000	0.320400
O41	O4	0.946900	0.594400	0.319700
N11	N1	0.242300	0.716000	0.529000
C11	C1	0.256700	0.753000	0.581700
H11	H1	0.288400	0.762100	0.607000
C21	C2	0.226400	0.777800	0.599500
C31	C3	0.176500	0.761200	0.563800
H21	H2	0.155200	0.777100	0.574200
C41	C4	0.160800	0.723000	0.515800
C51	C5	0.194600	0.702800	0.494800
H31	H3	0.184500	0.679600	0.456400
C61	C6	0.245600	0.820200	0.655800
C71	C7	0.109000	0.702000	0.471600
C81	C8	0.089200	0.736200	0.452200
H41	H4	0.106800	0.772400	0.467600
C91	C9	0.042900	0.716700	0.409700
H51	H5	0.030500	0.740400	0.396100
C101	C10	0.015300	0.663300	0.387700
C111	C11	0.032500	0.629300	0.408200
H61	H6	0.012700	0.592600	0.395300
C121	C12	0.079600	0.647500	0.448800
H71	H7	0.091600	0.623200	0.460900
C131	C13	0.965700	0.642600	0.338400
I21	I2	0.402520	0.631050	0.423810
Cu21	Cu2	0.313070	0.604530	0.498090
O51	O5	0.163500	0.378600	0.676000
O61	O6	0.165800	0.460000	0.679100
O71	O7	0.323000	0.274800	0.320400
O81	O8	0.405600	0.352500	0.319700
N21	N2	0.284000	0.526300	0.529000
C141	C14	0.247000	0.503700	0.581700
H81	H8	0.237900	0.526300	0.607000
C151	C15	0.222200	0.448600	0.599500
C161	C16	0.238800	0.415300	0.563800
H91	H9	0.222900	0.378100	0.574200
C171	C17	0.277000	0.437800	0.515800
C181	C18	0.297200	0.491800	0.494800
H101	H10	0.320400	0.504900	0.456400
C191	C19	0.179800	0.425400	0.655800
C201	C20	0.298000	0.407000	0.471600
C211	C21	0.263800	0.353000	0.452200
H111	H11	0.227600	0.334400	0.467600
C221	C22	0.283300	0.326200	0.409700
H121	H12	0.259600	0.290100	0.396100
C231	C23	0.336700	0.352000	0.387700
C241	C24	0.370700	0.403200	0.408200
H131	H13	0.407400	0.420100	0.395300
C251	C25	0.352500	0.432100	0.448800
H141	H14	0.376800	0.468400	0.460900
C261	C26	0.357400	0.323100	0.338400
I31	I3	0.368950	0.771470	0.423810
Cu31	Cu3	0.395470	0.708540	0.498090
O91	O9	0.621400	0.784900	0.676000
O101	O10	0.540000	0.705800	0.679100
O111	O11	0.725200	0.048200	0.320400
O121	O12	0.647500	0.053100	0.319700
N31	N3	0.473700	0.757700	0.529000
C271	C27	0.496300	0.743300	0.581700
H151	H15	0.473700	0.711600	0.607000
C281	C28	0.551400	0.773600	0.599500
C291	C29	0.584700	0.823500	0.563800
H161	H16	0.621900	0.844800	0.574200
C301	C30	0.562200	0.839200	0.515800
C311	C31	0.508200	0.805400	0.494800
H171	H17	0.495100	0.815500	0.456400
C321	C32	0.574600	0.754400	0.655800
C331	C33	0.593000	0.891000	0.471600
C341	C34	0.647000	0.910800	0.452200
H181	H18	0.665600	0.893200	0.467600
C351	C35	0.673800	0.957100	0.409700
H191	H19	0.709900	0.969500	0.396100
C361	C36	0.648000	0.984700	0.387700
C371	C37	0.596800	0.967500	0.408200
H201	H20	0.579900	0.987300	0.395300
C381	C38	0.567900	0.920400	0.448800
H211	H21	0.531600	0.908400	0.460900
C391	C39	0.676900	0.034300	0.338400
I41	I4	0.771470	0.402520	0.923810
Cu41	Cu4	0.708540	0.313070	0.998090
O131	O13	0.784900	0.163500	0.176000
O141	O14	0.705800	0.165800	0.179100
O151	O15	0.048200	0.323000	0.820400
O161	O16	0.053100	0.405600	0.819700
N41	N4	0.757700	0.284000	0.029000
C401	C40	0.743300	0.247000	0.081700
H221	H22	0.711600	0.237900	0.107000
C411	C41	0.773600	0.222200	0.099500
C421	C42	0.823500	0.238800	0.063800
H231	H23	0.844800	0.222900	0.074200
C431	C43	0.839200	0.277000	0.015800
C441	C44	0.805400	0.297200	0.994800
H241	H24	0.815500	0.320400	0.956400
C451	C45	0.754400	0.179800	0.155800
C461	C46	0.891000	0.298000	0.971600
C471	C47	0.910800	0.263800	0.952200
H251	H25	0.893200	0.227600	0.967600
C481	C48	0.957100	0.283300	0.909700
H261	H26	0.969500	0.259600	0.896100
C491	C49	0.984700	0.336700	0.887700
C501	C50	0.967500	0.370700	0.908200
H271	H27	0.987300	0.407400	0.895300
C511	C51	0.920400	0.352500	0.948800
H281	H28	0.908400	0.376800	0.960900
C521	C52	0.034300	0.357400	0.838400
I51	I5	0.597480	0.368950	0.923810
Cu51	Cu5	0.686930	0.395470	0.998090
O171	O17	0.836500	0.621400	0.176000
O181	O18	0.834200	0.540000	0.179100
O191	O19	0.677000	0.725200	0.820400
O201	O20	0.594400	0.647500	0.819700
N51	N5	0.716000	0.473700	0.029000
C531	C53	0.753000	0.496300	0.081700
H291	H29	0.762100	0.473700	0.107000
C541	C54	0.777800	0.551400	0.099500
C551	C55	0.761200	0.584700	0.063800
H301	H30	0.777100	0.621900	0.074200
C561	C56	0.723000	0.562200	0.015800
C571	C57	0.702800	0.508200	0.994800
H311	H31	0.679600	0.495100	0.956400
C581	C58	0.820200	0.574600	0.155800
C591	C59	0.702000	0.593000	0.971600
C601	C60	0.736200	0.647000	0.952200
H321	H32	0.772400	0.665600	0.967600
C611	C61	0.716700	0.673800	0.909700
H331	H33	0.740400	0.709900	0.896100
C621	C62	0.663300	0.648000	0.887700
C631	C63	0.629300	0.596800	0.908200
H341	H34	0.592600	0.579900	0.895300
C641	C64	0.647500	0.567900	0.948800
H351	H35	0.623200	0.531600	0.960900
C651	C65	0.642600	0.676900	0.838400
I61	I6	0.631050	0.228530	0.923810
Cu61	Cu6	0.604530	0.291460	0.998090
O211	O21	0.378600	0.215100	0.176000
O221	O22	0.460000	0.294200	0.179100
O231	O23	0.274800	0.951800	0.820400
O241	O24	0.352500	0.946900	0.819700
N61	N6	0.526300	0.242300	0.029000
C661	C66	0.503700	0.256700	0.081700
H361	H36	0.526300	0.288400	0.107000
C671	C67	0.448600	0.226400	0.099500
C681	C68	0.415300	0.176500	0.063800
H371	H37	0.378100	0.155200	0.074200
C691	C69	0.437800	0.160800	0.015800
C701	C70	0.491800	0.194600	0.994800
H381	H38	0.504900	0.184500	0.956400
C711	C71	0.425400	0.245600	0.155800
C721	C72	0.407000	0.109000	0.971600
C731	C73	0.353000	0.089200	0.952200
H391	H39	0.334400	0.106800	0.967600
C741	C74	0.326200	0.042900	0.909700
H401	H40	0.290100	0.030500	0.896100
C751	C75	0.352000	0.015300	0.887700
C761	C76	0.403200	0.032500	0.908200
H411	H41	0.420100	0.012700	0.895300
C771	C77	0.432100	0.079600	0.948800
H421	H42	0.468400	0.091600	0.960900
C781	C78	0.323100	0.965700	0.838400
I71	I7	0.771470	0.402520	0.576190
Cu71	Cu7	0.708540	0.313070	0.501910
O251	O25	0.784900	0.163500	0.324000
O261	O26	0.705800	0.165800	0.320900
O271	O27	0.048200	0.323000	0.679600
O281	O28	0.053100	0.405600	0.680300
N71	N7	0.757700	0.284000	0.471000
C791	C79	0.743300	0.247000	0.418300
H431	H43	0.711600	0.237900	0.393000
C801	C80	0.773600	0.222200	0.400500
C811	C81	0.823500	0.238800	0.436200
H441	H44	0.844800	0.222900	0.425800
C821	C82	0.839200	0.277000	0.484200
C831	C83	0.805400	0.297200	0.505200
H451	H45	0.815500	0.320400	0.543600
C841	C84	0.754400	0.179800	0.344200
C851	C85	0.891000	0.298000	0.528400
C861	C86	0.910800	0.263800	0.547800
H461	H46	0.893200	0.227600	0.532400
C871	C87	0.957100	0.283300	0.590300
H471	H47	0.969500	0.259600	0.603900
C881	C88	0.984700	0.336700	0.612300
C891	C89	0.967500	0.370700	0.591800
H481	H48	0.987300	0.407400	0.604700
C901	C90	0.920400	0.352500	0.551200
H491	H49	0.908400	0.376800	0.539100
C911	C91	0.034300	0.357400	0.661600
I81	I8	0.597480	0.368950	0.576190
Cu81	Cu8	0.686930	0.395470	0.501910
O291	O29	0.836500	0.621400	0.324000
O301	O30	0.834200	0.540000	0.320900
O311	O31	0.677000	0.725200	0.679600
O321	O32	0.594400	0.647500	0.680300
N81	N8	0.716000	0.473700	0.471000
C921	C92	0.753000	0.496300	0.418300
H501	H50	0.762100	0.473700	0.393000
C931	C93	0.777800	0.551400	0.400500
C941	C94	0.761200	0.584700	0.436200
H511	H51	0.777100	0.621900	0.425800
C951	C95	0.723000	0.562200	0.484200
C961	C96	0.702800	0.508200	0.505200
H521	H52	0.679600	0.495100	0.543600
C971	C97	0.820200	0.574600	0.344200
C981	C98	0.702000	0.593000	0.528400
C991	C99	0.736200	0.647000	0.547800
H531	H53	0.772400	0.665600	0.532400
C1001	C100	0.716700	0.673800	0.590300
H541	H54	0.740400	0.709900	0.603900
C1011	C101	0.663300	0.648000	0.612300
C1021	C102	0.629300	0.596800	0.591800
H551	H55	0.592600	0.579900	0.604700
C1031	C103	0.647500	0.567900	0.551200
H561	H56	0.623200	0.531600	0.539100
C1041	C104	0.642600	0.676900	0.661600
I91	I9	0.631050	0.228530	0.576190
Cu91	Cu9	0.604530	0.291460	0.501910
O331	O33	0.378600	0.215100	0.324000
O341	O34	0.460000	0.294200	0.320900
O351	O35	0.274800	0.951800	0.679600
O361	O36	0.352500	0.946900	0.680300
N91	N9	0.526300	0.242300	0.471000
C1051	C105	0.503700	0.256700	0.418300
H571	H57	0.526300	0.288400	0.393000
C1061	C106	0.448600	0.226400	0.400500
C1071	C107	0.415300	0.176500	0.436200
H581	H58	0.378100	0.155200	0.425800
C1081	C108	0.437800	0.160800	0.484200
C1091	C109	0.491800	0.194600	0.505200
H591	H59	0.504900	0.184500	0.543600
C1101	C110	0.425400	0.245600	0.344200
C1111	C111	0.407000	0.109000	0.528400
C1121	C112	0.353000	0.089200	0.547800
H601	H60	0.334400	0.106800	0.532400
C1131	C113	0.326200	0.042900	0.590300
H611	H61	0.290100	0.030500	0.603900
C1141	C114	0.352000	0.015300	0.612300
C1151	C115	0.403200	0.032500	0.591800
H621	H62	0.420100	0.012700	0.604700
C1161	C116	0.432100	0.079600	0.551200
H631	H63	0.468400	0.091600	0.539100
C1171	C117	0.323100	0.965700	0.661600
I101	I10	0.228530	0.597480	0.076190
Cu101	Cu10	0.291460	0.686930	0.001910
O371	O37	0.215100	0.836500	0.824000
O381	O38	0.294200	0.834200	0.820900
O391	O39	0.951800	0.677000	0.179600
O401	O40	0.946900	0.594400	0.180300
N101	N10	0.242300	0.716000	0.971000
C1181	C118	0.256700	0.753000	0.918300
H641	H64	0.288400	0.762100	0.893000
C1191	C119	0.226400	0.777800	0.900500
C1201	C120	0.176500	0.761200	0.936200
H651	H65	0.155200	0.777100	0.925800
C1211	C121	0.160800	0.723000	0.984200
C1221	C122	0.194600	0.702800	0.005200
H661	H66	0.184500	0.679600	0.043600
C1231	C123	0.245600	0.820200	0.844200
C1241	C124	0.109000	0.702000	0.028400
C1251	C125	0.089200	0.736200	0.047800
H671	H67	0.106800	0.772400	0.032400
C1261	C126	0.042900	0.716700	0.090300
H681	H68	0.030500	0.740400	0.103900
C1271	C127	0.015300	0.663300	0.112300
C1281	C128	0.032500	0.629300	0.091800
H691	H69	0.012700	0.592600	0.104700
C1291	C129	0.079600	0.647500	0.051200
H701	H70	0.091600	0.623200	0.039100
C1301	C130	0.965700	0.642600	0.161600
I111	I11	0.402520	0.631050	0.076190
Cu111	Cu11	0.313070	0.604530	0.001910
O411	O41	0.163500	0.378600	0.824000
O421	O42	0.165800	0.460000	0.820900
O431	O43	0.323000	0.274800	0.179600
O441	O44	0.405600	0.352500	0.180300
N111	N11	0.284000	0.526300	0.971000
C1311	C131	0.247000	0.503700	0.918300
H711	H71	0.237900	0.526300	0.893000
C1321	C132	0.222200	0.448600	0.900500
C1331	C133	0.238800	0.415300	0.936200
H721	H72	0.222900	0.378100	0.925800
C1341	C134	0.277000	0.437800	0.984200
C1351	C135	0.297200	0.491800	0.005200
H731	H73	0.320400	0.504900	0.043600
C1361	C136	0.179800	0.425400	0.844200
C1371	C137	0.298000	0.407000	0.028400
C1381	C138	0.263800	0.353000	0.047800
H741	H74	0.227600	0.334400	0.032400
C1391	C139	0.283300	0.326200	0.090300
H751	H75	0.259600	0.290100	0.103900
C1401	C140	0.336700	0.352000	0.112300
C1411	C141	0.370700	0.403200	0.091800
H761	H76	0.407400	0.420100	0.104700
C1421	C142	0.352500	0.432100	0.051200
H771	H77	0.376800	0.468400	0.039100
C1431	C143	0.357400	0.323100	0.161600
I121	I12	0.368950	0.771470	0.076190
Cu121	Cu12	0.395470	0.708540	0.001910
O451	O45	0.621400	0.784900	0.824000
O461	O46	0.540000	0.705800	0.820900
O471	O47	0.725200	0.048200	0.179600
O481	O48	0.647500	0.053100	0.180300
N121	N12	0.473700	0.757700	0.971000
C1441	C144	0.496300	0.743300	0.918300
H781	H78	0.473700	0.711600	0.893000
C1451	C145	0.551400	0.773600	0.900500
C1461	C146	0.584700	0.823500	0.936200
H791	H79	0.621900	0.844800	0.925800
C1471	C147	0.562200	0.839200	0.984200
C1481	C148	0.508200	0.805400	0.005200
H801	H80	0.495100	0.815500	0.043600
C1491	C149	0.574600	0.754400	0.844200
C1501	C150	0.593000	0.891000	0.028400
C1511	C151	0.647000	0.910800	0.047800
H811	H81	0.665600	0.893200	0.032400
C1521	C152	0.673800	0.957100	0.090300
H821	H82	0.709900	0.969500	0.103900
C1531	C153	0.648000	0.984700	0.112300
C1541	C154	0.596800	0.967500	0.091800
H831	H83	0.579900	0.987300	0.104700
C1551	C155	0.567900	0.920400	0.051200
H841	H84	0.531600	0.908400	0.039100
C1561	C156	0.676900	0.034300	0.161600
I131	I13	0.333330	0.666670	0.612590
Cu131	Cu13	0.333330	0.666670	0.379550
I141	I14	0.666670	0.333330	0.112590
Cu141	Cu14	0.666670	0.333330	0.879550
I151	I15	0.666670	0.333330	0.387410
Cu151	Cu15	0.666670	0.333330	0.620450
I161	I16	0.333330	0.666670	0.887410
Cu161	Cu16	0.333330	0.666670	0.120450
Cu171	Cu17	0.237970	0.894320	0.750000
Cu181	Cu18	0.329950	0.890040	0.750000
O491	O49	0.161900	0.894800	0.750000
O501	O50	0.405100	0.885900	0.750000
Cu191	Cu19	0.105680	0.343650	0.750000
Cu201	Cu20	0.109960	0.439910	0.750000
O511	O51	0.105200	0.267100	0.750000
O521	O52	0.114100	0.519200	0.750000
Cu211	Cu21	0.656350	0.762030	0.750000
Cu221	Cu22	0.560090	0.670050	0.750000
O531	O53	0.732900	0.838100	0.750000
O541	O54	0.480800	0.594900	0.750000
Cu231	Cu23	0.762030	0.105680	0.250000
Cu241	Cu24	0.670050	0.109960	0.250000
O551	O55	0.838100	0.105200	0.250000
O561	O56	0.594900	0.114100	0.250000
Cu251	Cu25	0.894320	0.656350	0.250000
Cu261	Cu26	0.890040	0.560090	0.250000
O571	O57	0.894800	0.732900	0.250000
O581	O58	0.885900	0.480800	0.250000
Cu271	Cu27	0.343650	0.237970	0.250000
Cu281	Cu28	0.439910	0.329950	0.250000
O591	O59	0.267100	0.161900	0.250000
O601	O60	0.519200	0.405100	0.250000
