data_MUNNUF_freeONLY_PM
_symmetry_space_group_name_H-M	'P1'
_cell_length_a	12.975000
_cell_length_b	13.060000
_cell_length_c	22.382000
_cell_angle_alpha	95.776000
_cell_angle_beta	92.004000
_cell_angle_gamma	112.678000
_symmetry_Int_Tables_number 1

loop_
_symmetry_equiv_pos_as_xyz
'x,y,z'

loop_
_atom_site_label
_atom_site_type_symbol
_atom_site_fract_x
_atom_site_fract_y
_atom_site_fract_z
Zn11	Zn1	0.860020	0.760820	0.299490
Zn21	Zn2	0.853660	0.715720	0.167220
O11	O1	0.888800	0.922700	0.289270
C11	C1	0.881500	0.943400	0.235630
O21	O2	0.880700	0.880700	0.189800
O31	O3	0.022200	0.786300	0.288740
C21	C2	0.062400	0.765700	0.241160
O41	O4	0.018500	0.753200	0.188540
O51	O5	0.825800	0.594400	0.281330
C31	C3	0.827100	0.533300	0.234700
O61	O6	0.827800	0.557700	0.181920
O71	O7	0.697900	0.726500	0.273690
C41	C4	0.648300	0.701400	0.221690
O81	O8	0.688700	0.681900	0.173740
N11	N1	0.861000	0.765400	0.390800
C51	C5	0.776500	0.690500	0.415390
H11	H1	0.716400	0.636600	0.389500
C61	C6	0.772600	0.687900	0.477150
H21	H2	0.710600	0.634600	0.493400
C71	C7	0.861800	0.765500	0.514300
C81	C8	0.950000	0.842600	0.489120
H31	H3	0.012200	0.896000	0.513900
C91	C9	0.945800	0.840600	0.427270
H41	H4	0.005500	0.894700	0.410000
N21	N2	0.863000	0.763600	0.578400
C101	C10	0.851800	0.853500	0.613740
C111	C11	0.850800	0.848100	0.679380
C121	C12	0.844800	0.935300	0.716710
H51	H5	0.840400	0.997800	0.700100
C131	C13	0.845200	0.932700	0.779530
H61	H6	0.841600	0.993600	0.805200
C141	C14	0.850700	0.841400	0.803740
C151	C15	0.853300	0.841100	0.869740
N31	N3	0.857200	0.744200	0.890970
C161	C16	0.863400	0.651800	0.855390
C171	C17	0.862600	0.656600	0.789370
C181	C18	0.868800	0.568700	0.751920
H71	H7	0.871400	0.505400	0.768300
C191	C19	0.871500	0.573300	0.689710
H81	H8	0.877700	0.513700	0.664000
C201	C20	0.865100	0.664500	0.665670
C211	C21	0.870100	0.668600	0.600170
C221	C22	0.856900	0.753800	0.703190
C231	C23	0.855900	0.750300	0.765990
O91	O9	0.844400	0.930100	0.590160
O101	O10	0.852500	0.917800	0.904640
O111	O11	0.870200	0.574900	0.878710
O121	O12	0.882600	0.597400	0.565750
C241	C24	0.173000	0.754400	0.247690
C251	C25	0.230200	0.776000	0.305100
H91	H9	0.198400	0.797000	0.339400
C261	C26	0.331600	0.766600	0.311700
H101	H10	0.369900	0.782000	0.350600
C271	C27	0.379900	0.734400	0.261090
C281	C28	0.486600	0.729000	0.266090
H111	H11	0.527800	0.747300	0.304300
C291	C29	0.531200	0.697600	0.216270
C301	C30	0.469200	0.667600	0.159300
H121	H12	0.499800	0.644700	0.125000
C311	C31	0.366300	0.671500	0.153600
H131	H13	0.325100	0.650100	0.115300
C321	C32	0.318900	0.707200	0.204000
C331	C33	0.215400	0.718900	0.198560
H141	H14	0.174700	0.701800	0.160300
C341	C34	0.871700	0.051900	0.226050
C351	C35	0.862000	0.120700	0.273130
H151	H15	0.862800	0.100600	0.312700
C361	C36	0.850800	0.222300	0.264480
C371	C37	0.840100	0.294100	0.313000
H161	H16	0.839600	0.274500	0.352800
C381	C38	0.830600	0.392300	0.303300
H171	H17	0.823800	0.440500	0.336300
C391	C39	0.830800	0.422000	0.243800
C401	C40	0.840200	0.352900	0.196400
H181	H18	0.840400	0.373800	0.156900
C411	C41	0.849600	0.250600	0.204630
C421	C42	0.859800	0.178200	0.156700
H191	H19	0.859000	0.197100	0.116800
C431	C43	0.870700	0.081000	0.166230
H201	H20	0.877600	0.033000	0.133200
N41	N4	0.856300	0.723700	0.076970
C441	C44	0.770900	0.654400	0.038940
H211	H21	0.709700	0.599300	0.054700
C451	C45	0.767400	0.659100	0.977890
H221	H22	0.705400	0.608400	0.951900
C461	C46	0.856800	0.739700	0.955250
C471	C47	0.944900	0.811800	0.993540
H231	H23	0.006900	0.867500	0.978700
C481	C48	0.941900	0.801700	0.054570
H241	H24	0.002700	0.851900	0.081500
Zn31	Zn3	0.139980	0.239180	0.700510
Zn41	Zn4	0.146340	0.284280	0.832780
O131	O13	0.111200	0.077300	0.710730
C491	C49	0.118500	0.056600	0.764370
O141	O14	0.119300	0.119300	0.810200
O151	O15	0.977800	0.213700	0.711260
C501	C50	0.937600	0.234300	0.758840
O161	O16	0.981500	0.246800	0.811460
O171	O17	0.174200	0.405600	0.718670
C511	C51	0.172900	0.466700	0.765300
O181	O18	0.172200	0.442300	0.818080
O191	O19	0.302100	0.273500	0.726310
C521	C52	0.351700	0.298600	0.778310
O201	O20	0.311300	0.318100	0.826260
N51	N5	0.139000	0.234600	0.609200
C531	C53	0.223500	0.309500	0.584610
H251	H25	0.283600	0.363400	0.610500
C541	C54	0.227400	0.312100	0.522850
H261	H26	0.289400	0.365400	0.506600
C551	C55	0.138200	0.234500	0.485700
C561	C56	0.050000	0.157400	0.510880
H271	H27	0.987800	0.104000	0.486100
C571	C57	0.054200	0.159400	0.572730
H281	H28	0.994500	0.105300	0.590000
N61	N6	0.137000	0.236400	0.421600
C581	C58	0.148200	0.146500	0.386260
C591	C59	0.149200	0.151900	0.320620
C601	C60	0.155200	0.064700	0.283290
H291	H29	0.159600	0.002200	0.299900
C611	C61	0.154800	0.067300	0.220470
H301	H30	0.158400	0.006400	0.194800
C621	C62	0.149300	0.158600	0.196260
C631	C63	0.146700	0.158900	0.130260
N71	N7	0.142800	0.255800	0.109030
C641	C64	0.136600	0.348200	0.144610
C651	C65	0.137400	0.343400	0.210630
C661	C66	0.131200	0.431300	0.248080
H311	H31	0.128600	0.494600	0.231700
C671	C67	0.128500	0.426700	0.310290
H321	H32	0.122300	0.486300	0.336000
C681	C68	0.134900	0.335500	0.334330
C691	C69	0.129900	0.331400	0.399830
C701	C70	0.143100	0.246200	0.296810
C711	C71	0.144100	0.249700	0.234010
O211	O21	0.155600	0.069900	0.409840
O221	O22	0.147500	0.082200	0.095360
O231	O23	0.129800	0.425100	0.121290
O241	O24	0.117400	0.402600	0.434250
C721	C72	0.827000	0.245600	0.752310
C731	C73	0.769800	0.224000	0.694900
H331	H33	0.801600	0.203000	0.660600
C741	C74	0.668400	0.233400	0.688300
H341	H34	0.630100	0.218000	0.649400
C751	C75	0.620100	0.265600	0.738910
C761	C76	0.513400	0.271000	0.733910
H351	H35	0.472200	0.252700	0.695700
C771	C77	0.468800	0.302400	0.783730
C781	C78	0.530800	0.332400	0.840700
H361	H36	0.500200	0.355300	0.875000
C791	C79	0.633700	0.328500	0.846400
H371	H37	0.674900	0.349900	0.884700
C801	C80	0.681100	0.292800	0.796000
C811	C81	0.784600	0.281100	0.801440
H381	H38	0.825300	0.298200	0.839700
C821	C82	0.128300	0.948100	0.773950
C831	C83	0.138000	0.879300	0.726870
H391	H39	0.137200	0.899400	0.687300
C841	C84	0.149200	0.777700	0.735520
C851	C85	0.159900	0.705900	0.687000
H401	H40	0.160400	0.725500	0.647200
C861	C86	0.169400	0.607700	0.696700
H411	H41	0.176200	0.559500	0.663700
C871	C87	0.169200	0.578000	0.756200
C881	C88	0.159800	0.647100	0.803600
H421	H42	0.159600	0.626200	0.843100
C891	C89	0.150400	0.749400	0.795370
C901	C90	0.140200	0.821800	0.843300
H431	H43	0.141000	0.802900	0.883200
C911	C91	0.129300	0.919000	0.833770
H441	H44	0.122400	0.967000	0.866800
N81	N8	0.143700	0.276300	0.923030
C921	C92	0.229100	0.345600	0.961060
H451	H45	0.290300	0.400700	0.945300
C931	C93	0.232600	0.340900	0.022110
H461	H46	0.294600	0.391600	0.048100
C941	C94	0.143200	0.260300	0.044750
C951	C95	0.055100	0.188200	0.006460
H471	H47	0.993100	0.132500	0.021300
C961	C96	0.058100	0.198300	0.945430
H481	H48	0.997300	0.148100	0.918500
