data_MURCIL_freeONLY_PM
_symmetry_space_group_name_H-M	'P1'
_cell_length_a	14.624200
_cell_length_b	14.624200
_cell_length_c	15.187000
_cell_angle_alpha	90.000000
_cell_angle_beta	90.000000
_cell_angle_gamma	120.000000
_symmetry_Int_Tables_number 1

loop_
_symmetry_equiv_pos_as_xyz
'x,y,z'

loop_
_atom_site_label
_atom_site_type_symbol
_atom_site_fract_x
_atom_site_fract_y
_atom_site_fract_z
Dy11	Dy1	0.333330	0.666660	0.750000
Dy21	Dy2	0.666670	0.333340	0.750000
Dy31	Dy3	0.666670	0.333340	0.250000
Dy41	Dy4	0.333330	0.666660	0.250000
Cu11	Cu1	0.000000	0.500000	0.500000
Cu21	Cu2	0.500000	0.000000	0.500000
Cu31	Cu3	0.500000	0.500000	0.500000
Cu41	Cu4	0.500000	0.500000	0.000000
Cu51	Cu5	0.500000	0.000000	0.000000
Cu61	Cu6	0.000000	0.500000	0.000000
H11	H1	0.162300	0.796300	0.659600
H21	H2	0.087500	0.717600	0.732000
H31	H3	0.634000	0.837700	0.659600
H41	H4	0.630100	0.912500	0.732000
H51	H5	0.203700	0.366000	0.659600
H61	H6	0.282400	0.369900	0.732000
H71	H7	0.837700	0.203700	0.659600
H81	H8	0.912500	0.282400	0.732000
H91	H9	0.366000	0.162300	0.659600
H101	H10	0.369900	0.087500	0.732000
H111	H11	0.796300	0.634000	0.659600
H121	H12	0.717600	0.630100	0.732000
H131	H13	0.366000	0.203700	0.840400
H141	H14	0.369900	0.282400	0.768000
H151	H15	0.796300	0.162300	0.840400
H161	H16	0.717600	0.087500	0.768000
H171	H17	0.837700	0.634000	0.840400
H181	H18	0.912500	0.630100	0.768000
H191	H19	0.634000	0.796300	0.840400
H201	H20	0.630100	0.717600	0.768000
H211	H21	0.203700	0.837700	0.840400
H221	H22	0.282400	0.912500	0.768000
H231	H23	0.162300	0.366000	0.840400
H241	H24	0.087500	0.369900	0.768000
H251	H25	0.837700	0.203700	0.340400
H261	H26	0.912500	0.282400	0.268000
H271	H27	0.366000	0.162300	0.340400
H281	H28	0.369900	0.087500	0.268000
H291	H29	0.796300	0.634000	0.340400
H301	H30	0.717600	0.630100	0.268000
H311	H31	0.162300	0.796300	0.340400
H321	H32	0.087500	0.717600	0.268000
H331	H33	0.634000	0.837700	0.340400
H341	H34	0.630100	0.912500	0.268000
H351	H35	0.203700	0.366000	0.340400
H361	H36	0.282400	0.369900	0.268000
H371	H37	0.634000	0.796300	0.159600
H381	H38	0.630100	0.717600	0.232000
H391	H39	0.203700	0.837700	0.159600
H401	H40	0.282400	0.912500	0.232000
H411	H41	0.162300	0.366000	0.159600
H421	H42	0.087500	0.369900	0.232000
H431	H43	0.366000	0.203700	0.159600
H441	H44	0.369900	0.282400	0.232000
H451	H45	0.796300	0.162300	0.159600
H461	H46	0.717600	0.087500	0.232000
H471	H47	0.837700	0.634000	0.159600
H481	H48	0.912500	0.630100	0.232000
C11	C1	0.130600	0.645000	0.639100
C21	C2	0.149400	0.736700	0.696200
C31	C3	0.514400	0.869400	0.639100
C41	C4	0.587300	0.850600	0.696200
C51	C5	0.355000	0.485600	0.639100
C61	C6	0.263300	0.412700	0.696200
C71	C7	0.869400	0.355000	0.639100
C81	C8	0.850600	0.263300	0.696200
C91	C9	0.485600	0.130600	0.639100
C101	C10	0.412700	0.149400	0.696200
C111	C11	0.645000	0.514400	0.639100
C121	C12	0.736700	0.587300	0.696200
C131	C13	0.485600	0.355000	0.860900
C141	C14	0.412700	0.263300	0.803800
C151	C15	0.645000	0.130600	0.860900
C161	C16	0.736700	0.149400	0.803800
C171	C17	0.869400	0.514400	0.860900
C181	C18	0.850600	0.587300	0.803800
C191	C19	0.514400	0.645000	0.860900
C201	C20	0.587300	0.736700	0.803800
C211	C21	0.355000	0.869400	0.860900
C221	C22	0.263300	0.850600	0.803800
C231	C23	0.130600	0.485600	0.860900
C241	C24	0.149400	0.412700	0.803800
C251	C25	0.869400	0.355000	0.360900
C261	C26	0.850600	0.263300	0.303800
C271	C27	0.485600	0.130600	0.360900
C281	C28	0.412700	0.149400	0.303800
C291	C29	0.645000	0.514400	0.360900
C301	C30	0.736700	0.587300	0.303800
C311	C31	0.130600	0.645000	0.360900
C321	C32	0.149400	0.736700	0.303800
C331	C33	0.514400	0.869400	0.360900
C341	C34	0.587300	0.850600	0.303800
C351	C35	0.355000	0.485600	0.360900
C361	C36	0.263300	0.412700	0.303800
C371	C37	0.514400	0.645000	0.139100
C381	C38	0.587300	0.736700	0.196200
C391	C39	0.355000	0.869400	0.139100
C401	C40	0.263300	0.850600	0.196200
C411	C41	0.130600	0.485600	0.139100
C421	C42	0.149400	0.412700	0.196200
C431	C43	0.485600	0.355000	0.139100
C441	C44	0.412700	0.263300	0.196200
C451	C45	0.645000	0.130600	0.139100
C461	C46	0.736700	0.149400	0.196200
C471	C47	0.869400	0.514400	0.139100
C481	C48	0.850600	0.587300	0.196200
O11	O1	0.195500	0.612500	0.644400
O21	O2	0.052900	0.610300	0.589400
O31	O3	0.417000	0.804500	0.644400
O41	O4	0.557400	0.947100	0.589400
O51	O5	0.387500	0.583000	0.644400
O61	O6	0.389700	0.442600	0.589400
O71	O7	0.804500	0.387500	0.644400
O81	O8	0.947100	0.389700	0.589400
O91	O9	0.583000	0.195500	0.644400
O101	O10	0.442600	0.052900	0.589400
O111	O11	0.612500	0.417000	0.644400
O121	O12	0.610300	0.557400	0.589400
O131	O13	0.583000	0.387500	0.855600
O141	O14	0.442600	0.389700	0.910600
O151	O15	0.612500	0.195500	0.855600
O161	O16	0.610300	0.052900	0.910600
O171	O17	0.804500	0.417000	0.855600
O181	O18	0.947100	0.557400	0.910600
O191	O19	0.417000	0.612500	0.855600
O201	O20	0.557400	0.610300	0.910600
O211	O21	0.387500	0.804500	0.855600
O221	O22	0.389700	0.947100	0.910600
O231	O23	0.195500	0.583000	0.855600
O241	O24	0.052900	0.442600	0.910600
O251	O25	0.804500	0.387500	0.355600
O261	O26	0.947100	0.389700	0.410600
O271	O27	0.583000	0.195500	0.355600
O281	O28	0.442600	0.052900	0.410600
O291	O29	0.612500	0.417000	0.355600
O301	O30	0.610300	0.557400	0.410600
O311	O31	0.195500	0.612500	0.355600
O321	O32	0.052900	0.610300	0.410600
O331	O33	0.417000	0.804500	0.355600
O341	O34	0.557400	0.947100	0.410600
O351	O35	0.387500	0.583000	0.355600
O361	O36	0.389700	0.442600	0.410600
O371	O37	0.417000	0.612500	0.144400
O381	O38	0.557400	0.610300	0.089400
O391	O39	0.387500	0.804500	0.144400
O401	O40	0.389700	0.947100	0.089400
O411	O41	0.195500	0.583000	0.144400
O421	O42	0.052900	0.442600	0.089400
O431	O43	0.583000	0.387500	0.144400
O441	O44	0.442600	0.389700	0.089400
O451	O45	0.612500	0.195500	0.144400
O461	O46	0.610300	0.052900	0.089400
O471	O47	0.804500	0.417000	0.144400
O481	O48	0.947100	0.557400	0.089400
O491	O49	0.236150	0.763850	0.750000
O501	O50	0.527700	0.763850	0.750000
O511	O51	0.236150	0.472300	0.750000
O521	O52	0.763850	0.236150	0.750000
O531	O53	0.472300	0.236150	0.750000
O541	O54	0.763850	0.527700	0.750000
O551	O55	0.763850	0.236150	0.250000
O561	O56	0.472300	0.236150	0.250000
O571	O57	0.763850	0.527700	0.250000
O581	O58	0.236150	0.763850	0.250000
O591	O59	0.527700	0.763850	0.250000
O601	O60	0.236150	0.472300	0.250000
