data_MURCOR_freeONLY_PM
_symmetry_space_group_name_H-M	'P1'
_cell_length_a	14.368300
_cell_length_b	14.368300
_cell_length_c	15.393000
_cell_angle_alpha	90.000000
_cell_angle_beta	90.000000
_cell_angle_gamma	120.000000
_symmetry_Int_Tables_number 1

loop_
_symmetry_equiv_pos_as_xyz
'x,y,z'

loop_
_atom_site_label
_atom_site_type_symbol
_atom_site_fract_x
_atom_site_fract_y
_atom_site_fract_z
Ho11	Ho1	0.666670	0.333340	0.750000
Ho21	Ho2	0.333330	0.666660	0.750000
Ho31	Ho3	0.333330	0.666660	0.250000
Ho41	Ho4	0.666670	0.333340	0.250000
Cu11	Cu1	0.000000	0.500000	0.000000
Cu21	Cu2	0.500000	0.000000	0.000000
Cu31	Cu3	0.500000	0.500000	0.000000
Cu41	Cu4	0.500000	0.500000	0.500000
Cu51	Cu5	0.500000	0.000000	0.500000
Cu61	Cu6	0.000000	0.500000	0.500000
H11	H1	0.915000	0.278300	0.772200
H21	H2	0.834800	0.198400	0.841900
H31	H3	0.363300	0.085000	0.772200
H41	H4	0.363600	0.165200	0.841900
H51	H5	0.721700	0.636700	0.772200
H61	H6	0.801600	0.636400	0.841900
H71	H7	0.085000	0.721700	0.772200
H81	H8	0.165200	0.801600	0.841900
H91	H9	0.636700	0.915000	0.772200
H101	H10	0.636400	0.834800	0.841900
H111	H11	0.278300	0.363300	0.772200
H121	H12	0.198400	0.363600	0.841900
H131	H13	0.636700	0.721700	0.727800
H141	H14	0.636400	0.801600	0.658100
H151	H15	0.278300	0.915000	0.727800
H161	H16	0.198400	0.834800	0.658100
H171	H17	0.085000	0.363300	0.727800
H181	H18	0.165200	0.363600	0.658100
H191	H19	0.363300	0.278300	0.727800
H201	H20	0.363600	0.198400	0.658100
H211	H21	0.721700	0.085000	0.727800
H221	H22	0.801600	0.165200	0.658100
H231	H23	0.915000	0.636700	0.727800
H241	H24	0.834800	0.636400	0.658100
H251	H25	0.085000	0.721700	0.227800
H261	H26	0.165200	0.801600	0.158100
H271	H27	0.636700	0.915000	0.227800
H281	H28	0.636400	0.834800	0.158100
H291	H29	0.278300	0.363300	0.227800
H301	H30	0.198400	0.363600	0.158100
H311	H31	0.915000	0.278300	0.227800
H321	H32	0.834800	0.198400	0.158100
H331	H33	0.363300	0.085000	0.227800
H341	H34	0.363600	0.165200	0.158100
H351	H35	0.721700	0.636700	0.227800
H361	H36	0.801600	0.636400	0.158100
H371	H37	0.363300	0.278300	0.272200
H381	H38	0.363600	0.198400	0.341900
H391	H39	0.721700	0.085000	0.272200
H401	H40	0.801600	0.165200	0.341900
H411	H41	0.915000	0.636700	0.272200
H421	H42	0.834800	0.636400	0.341900
H431	H43	0.636700	0.721700	0.272200
H441	H44	0.636400	0.801600	0.341900
H451	H45	0.278300	0.915000	0.272200
H461	H46	0.198400	0.834800	0.341900
H471	H47	0.085000	0.363300	0.272200
H481	H48	0.165200	0.363600	0.341900
C11	C1	0.869300	0.353300	0.861400
C21	C2	0.850900	0.259900	0.805700
C31	C3	0.484000	0.130700	0.861400
C41	C4	0.409000	0.149100	0.805700
C51	C5	0.646700	0.516000	0.861400
C61	C6	0.740100	0.591000	0.805700
C71	C7	0.130700	0.646700	0.861400
C81	C8	0.149100	0.740100	0.805700
C91	C9	0.516000	0.869300	0.861400
C101	C10	0.591000	0.850900	0.805700
C111	C11	0.353300	0.484000	0.861400
C121	C12	0.259900	0.409000	0.805700
C131	C13	0.516000	0.646700	0.638600
C141	C14	0.591000	0.740100	0.694300
C151	C15	0.353300	0.869300	0.638600
C161	C16	0.259900	0.850900	0.694300
C171	C17	0.130700	0.484000	0.638600
C181	C18	0.149100	0.409000	0.694300
C191	C19	0.484000	0.353300	0.638600
C201	C20	0.409000	0.259900	0.694300
C211	C21	0.646700	0.130700	0.638600
C221	C22	0.740100	0.149100	0.694300
C231	C23	0.869300	0.516000	0.638600
C241	C24	0.850900	0.591000	0.694300
C251	C25	0.130700	0.646700	0.138600
C261	C26	0.149100	0.740100	0.194300
C271	C27	0.516000	0.869300	0.138600
C281	C28	0.591000	0.850900	0.194300
C291	C29	0.353300	0.484000	0.138600
C301	C30	0.259900	0.409000	0.194300
C311	C31	0.869300	0.353300	0.138600
C321	C32	0.850900	0.259900	0.194300
C331	C33	0.484000	0.130700	0.138600
C341	C34	0.409000	0.149100	0.194300
C351	C35	0.646700	0.516000	0.138600
C361	C36	0.740100	0.591000	0.194300
C371	C37	0.484000	0.353300	0.361400
C381	C38	0.409000	0.259900	0.305700
C391	C39	0.646700	0.130700	0.361400
C401	C40	0.740100	0.149100	0.305700
C411	C41	0.869300	0.516000	0.361400
C421	C42	0.850900	0.591000	0.305700
C431	C43	0.516000	0.646700	0.361400
C441	C44	0.591000	0.740100	0.305700
C451	C45	0.353300	0.869300	0.361400
C461	C46	0.259900	0.850900	0.305700
C471	C47	0.130700	0.484000	0.361400
C481	C48	0.149100	0.409000	0.305700
O11	O1	0.805200	0.387500	0.854900
O21	O2	0.947900	0.388000	0.912000
O31	O3	0.582300	0.194800	0.854900
O41	O4	0.440100	0.052100	0.912000
O51	O5	0.612500	0.417700	0.854900
O61	O6	0.612000	0.559900	0.912000
O71	O7	0.194800	0.612500	0.854900
O81	O8	0.052100	0.612000	0.912000
O91	O9	0.417700	0.805200	0.854900
O101	O10	0.559900	0.947900	0.912000
O111	O11	0.387500	0.582300	0.854900
O121	O12	0.388000	0.440100	0.912000
O131	O13	0.417700	0.612500	0.645100
O141	O14	0.559900	0.612000	0.588000
O151	O15	0.387500	0.805200	0.645100
O161	O16	0.388000	0.947900	0.588000
O171	O17	0.194800	0.582300	0.645100
O181	O18	0.052100	0.440100	0.588000
O191	O19	0.582300	0.387500	0.645100
O201	O20	0.440100	0.388000	0.588000
O211	O21	0.612500	0.194800	0.645100
O221	O22	0.612000	0.052100	0.588000
O231	O23	0.805200	0.417700	0.645100
O241	O24	0.947900	0.559900	0.588000
O251	O25	0.194800	0.612500	0.145100
O261	O26	0.052100	0.612000	0.088000
O271	O27	0.417700	0.805200	0.145100
O281	O28	0.559900	0.947900	0.088000
O291	O29	0.387500	0.582300	0.145100
O301	O30	0.388000	0.440100	0.088000
O311	O31	0.805200	0.387500	0.145100
O321	O32	0.947900	0.388000	0.088000
O331	O33	0.582300	0.194800	0.145100
O341	O34	0.440100	0.052100	0.088000
O351	O35	0.612500	0.417700	0.145100
O361	O36	0.612000	0.559900	0.088000
O371	O37	0.582300	0.387500	0.354900
O381	O38	0.440100	0.388000	0.412000
O391	O39	0.612500	0.194800	0.354900
O401	O40	0.612000	0.052100	0.412000
O411	O41	0.805200	0.417700	0.354900
O421	O42	0.947900	0.559900	0.412000
O431	O43	0.417700	0.612500	0.354900
O441	O44	0.559900	0.612000	0.412000
O451	O45	0.387500	0.805200	0.354900
O461	O46	0.388000	0.947900	0.412000
O471	O47	0.194800	0.582300	0.354900
O481	O48	0.052100	0.440100	0.412000
O491	O49	0.765150	0.234850	0.750000
O501	O50	0.469700	0.234850	0.750000
O511	O51	0.765150	0.530300	0.750000
O521	O52	0.234850	0.765150	0.750000
O531	O53	0.530300	0.765150	0.750000
O541	O54	0.234850	0.469700	0.750000
O551	O55	0.234850	0.765150	0.250000
O561	O56	0.530300	0.765150	0.250000
O571	O57	0.234850	0.469700	0.250000
O581	O58	0.765150	0.234850	0.250000
O591	O59	0.469700	0.234850	0.250000
O601	O60	0.765150	0.530300	0.250000
