data_MURFIQ_freeONLY_PM
_symmetry_space_group_name_H-M	'P1'
_cell_length_a	33.320000
_cell_length_b	33.320000
_cell_length_c	9.285600
_cell_angle_alpha	90.000000
_cell_angle_beta	90.000000
_cell_angle_gamma	120.000000
_symmetry_Int_Tables_number 1

loop_
_symmetry_equiv_pos_as_xyz
'x,y,z'

loop_
_atom_site_label
_atom_site_type_symbol
_atom_site_fract_x
_atom_site_fract_y
_atom_site_fract_z
C11	C1	0.469590	0.928870	0.197000
C21	C2	0.434390	0.918390	0.299300
C31	C3	0.397750	0.922480	0.491600
C41	C4	0.388810	0.937670	0.622600
C51	C5	0.385910	0.883760	0.283600
H11	H1	0.372600	0.863600	0.206300
C61	C6	0.516060	0.966000	0.204900
C71	C7	0.580410	0.026280	0.287400
C81	C8	0.456940	0.897240	0.070600
C91	C9	0.363550	0.886090	0.401500
H21	H2	0.332100	0.867700	0.421100
C101	C10	0.553460	0.972010	0.111300
H31	H3	0.551100	0.954000	0.031700
C111	C11	0.457620	0.912530	0.931700
H41	H4	0.467100	0.943500	0.914600
C121	C12	0.592820	0.009340	0.162900
H51	H5	0.622400	0.021600	0.124300
C131	C13	0.442910	0.850700	0.087600
H61	H6	0.441700	0.838700	0.178900
C141	C14	0.430820	0.822530	0.968700
H71	H7	0.421900	0.791500	0.982100
C151	C15	0.444420	0.882160	0.820200
H81	H8	0.444500	0.893200	0.728100
C161	C16	0.338190	0.913070	0.665900
C171	C17	0.307260	0.923850	0.602900
H91	H9	0.317300	0.947100	0.533700
C181	C18	0.321360	0.878700	0.769300
H101	H10	0.340900	0.870500	0.816100
C191	C19	0.261380	0.899920	0.643200
H111	H11	0.241000	0.907500	0.599000
C201	C20	0.274630	0.856790	0.801100
H121	H12	0.263400	0.833300	0.869800
N11	N1	0.440290	0.940770	0.426600
N21	N2	0.533410	0.999650	0.308100
N31	N3	0.244790	0.866700	0.741400
N41	N4	0.431250	0.837250	0.835200
C211	C21	0.136260	0.262200	0.530330
C221	C22	0.101060	0.251720	0.632630
C231	C23	0.064420	0.255810	0.824930
C241	C24	0.055480	0.271000	0.955930
C251	C25	0.052580	0.217090	0.616930
H131	H13	0.039270	0.196930	0.539630
C261	C26	0.182730	0.299330	0.538230
C271	C27	0.247080	0.359610	0.620730
C281	C28	0.123610	0.230570	0.403930
C291	C29	0.030220	0.219420	0.734830
H141	H14	0.998770	0.201030	0.754430
C301	C30	0.220130	0.305340	0.444630
H151	H15	0.217770	0.287330	0.365030
C311	C31	0.124290	0.245860	0.265030
H161	H16	0.133770	0.276830	0.247930
C321	C32	0.259490	0.342670	0.496230
H171	H17	0.289070	0.354930	0.457630
C331	C33	0.109580	0.184030	0.420930
H181	H18	0.108370	0.172030	0.512230
C341	C34	0.097490	0.155860	0.302030
H191	H19	0.088570	0.124830	0.315430
C351	C35	0.111090	0.215490	0.153530
H201	H20	0.111170	0.226530	0.061430
C361	C36	0.004860	0.246400	0.999230
C371	C37	0.973930	0.257180	0.936230
H211	H21	0.983970	0.280430	0.867030
C381	C38	0.988030	0.212030	0.102630
H221	H22	0.007570	0.203830	0.149430
C391	C39	0.928050	0.233250	0.976530
H231	H23	0.907670	0.240830	0.932330
C401	C40	0.941300	0.190120	0.134430
H241	H24	0.930070	0.166630	0.203130
N51	N5	0.106960	0.274100	0.759930
N61	N6	0.200080	0.332980	0.641430
N71	N7	0.911460	0.200030	0.074730
N81	N8	0.097920	0.170580	0.168530
C411	C41	0.802920	0.595540	0.863670
C421	C42	0.767720	0.585060	0.965970
C431	C43	0.731080	0.589150	0.158270
C441	C44	0.722140	0.604340	0.289270
C451	C45	0.719240	0.550430	0.950270
H251	H25	0.705930	0.530270	0.872970
C461	C46	0.849390	0.632670	0.871570
C471	C47	0.913740	0.692950	0.954070
C481	C48	0.790270	0.563910	0.737270
C491	C49	0.696880	0.552760	0.068170
H261	H26	0.665430	0.534370	0.087770
C501	C50	0.886790	0.638680	0.777970
H271	H27	0.884430	0.620670	0.698370
C511	C51	0.790950	0.579200	0.598370
H281	H28	0.800430	0.610170	0.581270
C521	C52	0.926150	0.676010	0.829570
H291	H29	0.955730	0.688270	0.790970
C531	C53	0.776240	0.517370	0.754270
H301	H30	0.775030	0.505370	0.845570
C541	C54	0.764150	0.489200	0.635370
H311	H31	0.755230	0.458170	0.648770
C551	C55	0.777750	0.548830	0.486870
H321	H32	0.777830	0.559870	0.394770
C561	C56	0.671520	0.579740	0.332570
C571	C57	0.640590	0.590520	0.269570
H331	H33	0.650630	0.613770	0.200370
C581	C58	0.654690	0.545370	0.435970
H341	H34	0.674230	0.537170	0.482770
C591	C59	0.594710	0.566590	0.309870
H351	H35	0.574330	0.574170	0.265670
C601	C60	0.607960	0.523460	0.467770
H361	H36	0.596730	0.499970	0.536470
N91	N9	0.773620	0.607440	0.093270
N101	N10	0.866740	0.666320	0.974770
N111	N11	0.578120	0.533370	0.408070
N121	N12	0.764580	0.503920	0.501870
C611	C61	0.071130	0.540720	0.197000
C621	C62	0.081610	0.516000	0.299300
C631	C63	0.077520	0.475270	0.491600
C641	C64	0.062330	0.451140	0.622600
C651	C65	0.116240	0.502150	0.283600
H371	H37	0.136400	0.509000	0.206300
C661	C66	0.034000	0.550060	0.204900
C671	C67	0.973720	0.554130	0.287400
C681	C68	0.102760	0.559700	0.070600
C691	C69	0.113910	0.477460	0.401500
H381	H38	0.132300	0.464400	0.421100
C701	C70	0.027990	0.581450	0.111300
H391	H39	0.046000	0.597100	0.031700
C711	C71	0.087470	0.545090	0.931700
H401	H40	0.056500	0.523600	0.914600
C721	C72	0.990660	0.583480	0.162900
H411	H41	0.978400	0.600800	0.124300
C731	C73	0.149300	0.592210	0.087600
H421	H42	0.161300	0.603000	0.178900
C741	C74	0.177470	0.608290	0.968700
H431	H43	0.208500	0.630400	0.982100
C751	C75	0.117840	0.562260	0.820200
H441	H44	0.106800	0.551300	0.728100
C761	C76	0.086930	0.425120	0.665900
C771	C77	0.076150	0.383410	0.602900
H451	H45	0.052900	0.370200	0.533700
C781	C78	0.121300	0.442660	0.769300
H461	H46	0.129500	0.470400	0.816100
C791	C79	0.100080	0.361460	0.643200
H471	H47	0.092500	0.333500	0.599000
C801	C80	0.143210	0.417840	0.801100
H481	H48	0.166700	0.430100	0.869800
N131	N13	0.059230	0.499520	0.426600
N141	N14	0.000350	0.533760	0.308100
N151	N15	0.133300	0.378090	0.741400
N161	N16	0.162750	0.594000	0.835200
C811	C81	0.737800	0.874050	0.530330
C821	C82	0.748280	0.849330	0.632630
C831	C83	0.744190	0.808600	0.824930
C841	C84	0.729000	0.784470	0.955930
C851	C85	0.782910	0.835480	0.616930
H491	H49	0.803070	0.842330	0.539630
C861	C86	0.700670	0.883390	0.538230
C871	C87	0.640390	0.887460	0.620730
C881	C88	0.769430	0.893030	0.403930
C891	C89	0.780580	0.810790	0.734830
H501	H50	0.798970	0.797730	0.754430
C901	C90	0.694660	0.914780	0.444630
H511	H51	0.712670	0.930430	0.365030
C911	C91	0.754140	0.878420	0.265030
H521	H52	0.723170	0.856930	0.247930
C921	C92	0.657330	0.916810	0.496230
H531	H53	0.645070	0.934130	0.457630
C931	C93	0.815970	0.925540	0.420930
H541	H54	0.827970	0.936330	0.512230
C941	C94	0.844140	0.941620	0.302030
H551	H55	0.875170	0.963730	0.315430
C951	C95	0.784510	0.895590	0.153530
H561	H56	0.773470	0.884630	0.061430
C961	C96	0.753600	0.758450	0.999230
C971	C97	0.742820	0.716740	0.936230
H571	H57	0.719570	0.703530	0.867030
C981	C98	0.787970	0.775990	0.102630
H581	H58	0.796170	0.803730	0.149430
C991	C99	0.766750	0.694790	0.976530
H591	H59	0.759170	0.666830	0.932330
C1001	C100	0.809880	0.751170	0.134430
H601	H60	0.833370	0.763430	0.203130
N171	N17	0.725900	0.832850	0.759930
N181	N18	0.667020	0.867090	0.641430
N191	N19	0.799970	0.711420	0.074730
N201	N20	0.829420	0.927330	0.168530
C1011	C101	0.404460	0.207390	0.863670
C1021	C102	0.414940	0.182670	0.965970
C1031	C103	0.410850	0.141940	0.158270
C1041	C104	0.395660	0.117810	0.289270
C1051	C105	0.449570	0.168820	0.950270
H611	H61	0.469730	0.175670	0.872970
C1061	C106	0.367330	0.216730	0.871570
C1071	C107	0.307050	0.220800	0.954070
C1081	C108	0.436090	0.226370	0.737270
C1091	C109	0.447240	0.144130	0.068170
H621	H62	0.465630	0.131070	0.087770
C1101	C110	0.361320	0.248120	0.777970
H631	H63	0.379330	0.263770	0.698370
C1111	C111	0.420800	0.211760	0.598370
H641	H64	0.389830	0.190270	0.581270
C1121	C112	0.323990	0.250150	0.829570
H651	H65	0.311730	0.267470	0.790970
C1131	C113	0.482630	0.258880	0.754270
H661	H66	0.494630	0.269670	0.845570
C1141	C114	0.510800	0.274960	0.635370
H671	H67	0.541830	0.297070	0.648770
C1151	C115	0.451170	0.228930	0.486870
H681	H68	0.440130	0.217970	0.394770
C1161	C116	0.420260	0.091790	0.332570
C1171	C117	0.409480	0.050080	0.269570
H691	H69	0.386230	0.036870	0.200370
C1181	C118	0.454630	0.109330	0.435970
H701	H70	0.462830	0.137070	0.482770
C1191	C119	0.433410	0.028130	0.309870
H711	H71	0.425830	0.000170	0.265670
C1201	C120	0.476540	0.084510	0.467770
H721	H72	0.500030	0.096770	0.536470
N211	N21	0.392560	0.166190	0.093270
N221	N22	0.333680	0.200430	0.974770
N231	N23	0.466630	0.044760	0.408070
N241	N24	0.496080	0.260670	0.501870
C1211	C121	0.459280	0.530410	0.197000
C1221	C122	0.484000	0.565610	0.299300
C1231	C123	0.524730	0.602250	0.491600
C1241	C124	0.548860	0.611190	0.622600
C1251	C125	0.497850	0.614090	0.283600
H731	H73	0.491000	0.627400	0.206300
C1261	C126	0.449940	0.483940	0.204900
C1271	C127	0.445870	0.419590	0.287400
C1281	C128	0.440300	0.543060	0.070600
C1291	C129	0.522540	0.636450	0.401500
H741	H74	0.535600	0.667900	0.421100
C1301	C130	0.418550	0.446540	0.111300
H751	H75	0.402900	0.448900	0.031700
C1311	C131	0.454910	0.542380	0.931700
H761	H76	0.476400	0.532900	0.914600
C1321	C132	0.416520	0.407180	0.162900
H771	H77	0.399200	0.377600	0.124300
C1331	C133	0.407790	0.557090	0.087600
H781	H78	0.397000	0.558300	0.178900
C1341	C134	0.391710	0.569180	0.968700
H791	H79	0.369600	0.578100	0.982100
C1351	C135	0.437740	0.555580	0.820200
H801	H80	0.448700	0.555500	0.728100
C1361	C136	0.574880	0.661810	0.665900
C1371	C137	0.616590	0.692740	0.602900
H811	H81	0.629800	0.682700	0.533700
C1381	C138	0.557340	0.678640	0.769300
H821	H82	0.529600	0.659100	0.816100
C1391	C139	0.638540	0.738620	0.643200
H831	H83	0.666500	0.759000	0.599000
C1401	C140	0.582160	0.725370	0.801100
H841	H84	0.569900	0.736600	0.869800
N251	N25	0.500480	0.559710	0.426600
N261	N26	0.466240	0.466590	0.308100
N271	N27	0.621910	0.755210	0.741400
N281	N28	0.406000	0.568750	0.835200
C1411	C141	0.125950	0.863740	0.530330
C1421	C142	0.150670	0.898940	0.632630
C1431	C143	0.191400	0.935580	0.824930
C1441	C144	0.215530	0.944520	0.955930
C1451	C145	0.164520	0.947420	0.616930
H851	H85	0.157670	0.960730	0.539630
C1461	C146	0.116610	0.817270	0.538230
C1471	C147	0.112540	0.752920	0.620730
C1481	C148	0.106970	0.876390	0.403930
C1491	C149	0.189210	0.969780	0.734830
H861	H86	0.202270	0.001230	0.754430
C1501	C150	0.085220	0.779870	0.444630
H871	H87	0.069570	0.782230	0.365030
C1511	C151	0.121580	0.875710	0.265030
H881	H88	0.143070	0.866230	0.247930
C1521	C152	0.083190	0.740510	0.496230
H891	H89	0.065870	0.710930	0.457630
C1531	C153	0.074460	0.890420	0.420930
H901	H90	0.063670	0.891630	0.512230
C1541	C154	0.058380	0.902510	0.302030
H911	H91	0.036270	0.911430	0.315430
C1551	C155	0.104410	0.888910	0.153530
H921	H92	0.115370	0.888830	0.061430
C1561	C156	0.241550	0.995140	0.999230
C1571	C157	0.283260	0.026070	0.936230
H931	H93	0.296470	0.016030	0.867030
C1581	C158	0.224010	0.011970	0.102630
H941	H94	0.196270	0.992430	0.149430
C1591	C159	0.305210	0.071950	0.976530
H951	H95	0.333170	0.092330	0.932330
C1601	C160	0.248830	0.058700	0.134430
H961	H96	0.236570	0.069930	0.203130
N291	N29	0.167150	0.893040	0.759930
N301	N30	0.132910	0.799920	0.641430
N311	N31	0.288580	0.088540	0.074730
N321	N32	0.072670	0.902080	0.168530
C1611	C161	0.792610	0.197080	0.863670
C1621	C162	0.817330	0.232280	0.965970
C1631	C163	0.858060	0.268920	0.158270
C1641	C164	0.882190	0.277860	0.289270
C1651	C165	0.831180	0.280760	0.950270
H971	H97	0.824330	0.294070	0.872970
C1661	C166	0.783270	0.150610	0.871570
C1671	C167	0.779200	0.086260	0.954070
C1681	C168	0.773630	0.209730	0.737270
C1691	C169	0.855870	0.303120	0.068170
H981	H98	0.868930	0.334570	0.087770
C1701	C170	0.751880	0.113210	0.777970
H991	H99	0.736230	0.115570	0.698370
C1711	C171	0.788240	0.209050	0.598370
H1001	H100	0.809730	0.199570	0.581270
C1721	C172	0.749850	0.073850	0.829570
H1011	H101	0.732530	0.044270	0.790970
C1731	C173	0.741120	0.223760	0.754270
H1021	H102	0.730330	0.224970	0.845570
C1741	C174	0.725040	0.235850	0.635370
H1031	H103	0.702930	0.244770	0.648770
C1751	C175	0.771070	0.222250	0.486870
H1041	H104	0.782030	0.222170	0.394770
C1761	C176	0.908210	0.328480	0.332570
C1771	C177	0.949920	0.359410	0.269570
H1051	H105	0.963130	0.349370	0.200370
C1781	C178	0.890670	0.345310	0.435970
H1061	H106	0.862930	0.325770	0.482770
C1791	C179	0.971870	0.405290	0.309870
H1071	H107	0.999830	0.425670	0.265670
C1801	C180	0.915490	0.392040	0.467770
H1081	H108	0.903230	0.403270	0.536470
N331	N33	0.833810	0.226380	0.093270
N341	N34	0.799570	0.133260	0.974770
N351	N35	0.955240	0.421880	0.408070
N361	N36	0.739330	0.235420	0.501870
C1811	C181	0.530410	0.071130	0.803000
C1821	C182	0.565610	0.081610	0.700700
C1831	C183	0.602250	0.077520	0.508400
C1841	C184	0.611190	0.062330	0.377400
C1851	C185	0.614090	0.116240	0.716400
H1091	H109	0.627400	0.136400	0.793700
C1861	C186	0.483940	0.034000	0.795100
C1871	C187	0.419590	0.973720	0.712600
C1881	C188	0.543060	0.102760	0.929400
C1891	C189	0.636450	0.113910	0.598500
H1101	H110	0.667900	0.132300	0.578900
C1901	C190	0.446540	0.027990	0.888700
H1111	H111	0.448900	0.046000	0.968300
C1911	C191	0.542380	0.087470	0.068300
H1121	H112	0.532900	0.056500	0.085400
C1921	C192	0.407180	0.990660	0.837100
H1131	H113	0.377600	0.978400	0.875700
C1931	C193	0.557090	0.149300	0.912400
H1141	H114	0.558300	0.161300	0.821100
C1941	C194	0.569180	0.177470	0.031300
H1151	H115	0.578100	0.208500	0.017900
C1951	C195	0.555580	0.117840	0.179800
H1161	H116	0.555500	0.106800	0.271900
C1961	C196	0.661810	0.086930	0.334100
C1971	C197	0.692740	0.076150	0.397100
H1171	H117	0.682700	0.052900	0.466300
C1981	C198	0.678640	0.121300	0.230700
H1181	H118	0.659100	0.129500	0.183900
C1991	C199	0.738620	0.100080	0.356800
H1191	H119	0.759000	0.092500	0.401000
C2001	C200	0.725370	0.143210	0.198900
H1201	H120	0.736600	0.166700	0.130200
N371	N37	0.559710	0.059230	0.573400
N381	N38	0.466590	0.000350	0.691900
N391	N39	0.755210	0.133300	0.258600
N401	N40	0.568750	0.162750	0.164800
C2011	C201	0.197080	0.404460	0.136330
C2021	C202	0.232280	0.414940	0.034030
C2031	C203	0.268920	0.410850	0.841730
C2041	C204	0.277860	0.395660	0.710730
C2051	C205	0.280760	0.449570	0.049730
H1211	H121	0.294070	0.469730	0.127030
C2061	C206	0.150610	0.367330	0.128430
C2071	C207	0.086260	0.307050	0.045930
C2081	C208	0.209730	0.436090	0.262730
C2091	C209	0.303120	0.447240	0.931830
H1221	H122	0.334570	0.465630	0.912230
C2101	C210	0.113210	0.361320	0.222030
H1231	H123	0.115570	0.379330	0.301630
C2111	C211	0.209050	0.420800	0.401630
H1241	H124	0.199570	0.389830	0.418730
C2121	C212	0.073850	0.323990	0.170430
H1251	H125	0.044270	0.311730	0.209030
C2131	C213	0.223760	0.482630	0.245730
H1261	H126	0.224970	0.494630	0.154430
C2141	C214	0.235850	0.510800	0.364630
H1271	H127	0.244770	0.541830	0.351230
C2151	C215	0.222250	0.451170	0.513130
H1281	H128	0.222170	0.440130	0.605230
C2161	C216	0.328480	0.420260	0.667430
C2171	C217	0.359410	0.409480	0.730430
H1291	H129	0.349370	0.386230	0.799630
C2181	C218	0.345310	0.454630	0.564030
H1301	H130	0.325770	0.462830	0.517230
C2191	C219	0.405290	0.433410	0.690130
H1311	H131	0.425670	0.425830	0.734330
C2201	C220	0.392040	0.476540	0.532230
H1321	H132	0.403270	0.500030	0.463530
N411	N41	0.226380	0.392560	0.906730
N421	N42	0.133260	0.333680	0.025230
N431	N43	0.421880	0.466630	0.591930
N441	N44	0.235420	0.496080	0.498130
C2211	C221	0.863740	0.737800	0.469670
C2221	C222	0.898940	0.748280	0.367370
C2231	C223	0.935580	0.744190	0.175070
C2241	C224	0.944520	0.729000	0.044070
C2251	C225	0.947420	0.782910	0.383070
H1331	H133	0.960730	0.803070	0.460370
C2261	C226	0.817270	0.700670	0.461770
C2271	C227	0.752920	0.640390	0.379270
C2281	C228	0.876390	0.769430	0.596070
C2291	C229	0.969780	0.780580	0.265170
H1341	H134	0.001230	0.798970	0.245570
C2301	C230	0.779870	0.694660	0.555370
H1351	H135	0.782230	0.712670	0.634970
C2311	C231	0.875710	0.754140	0.734970
H1361	H136	0.866230	0.723170	0.752070
C2321	C232	0.740510	0.657330	0.503770
H1371	H137	0.710930	0.645070	0.542370
C2331	C233	0.890420	0.815970	0.579070
H1381	H138	0.891630	0.827970	0.487770
C2341	C234	0.902510	0.844140	0.697970
H1391	H139	0.911430	0.875170	0.684570
C2351	C235	0.888910	0.784510	0.846470
H1401	H140	0.888830	0.773470	0.938570
C2361	C236	0.995140	0.753600	0.000770
C2371	C237	0.026070	0.742820	0.063770
H1411	H141	0.016030	0.719570	0.132970
C2381	C238	0.011970	0.787970	0.897370
H1421	H142	0.992430	0.796170	0.850570
C2391	C239	0.071950	0.766750	0.023470
H1431	H143	0.092330	0.759170	0.067670
C2401	C240	0.058700	0.809880	0.865570
H1441	H144	0.069930	0.833370	0.796870
N451	N45	0.893040	0.725900	0.240070
N461	N46	0.799920	0.667020	0.358570
N471	N47	0.088540	0.799970	0.925270
N481	N48	0.902080	0.829420	0.831470
C2411	C241	0.928870	0.459280	0.803000
C2421	C242	0.918390	0.484000	0.700700
C2431	C243	0.922480	0.524730	0.508400
C2441	C244	0.937670	0.548860	0.377400
C2451	C245	0.883760	0.497850	0.716400
H1451	H145	0.863600	0.491000	0.793700
C2461	C246	0.966000	0.449940	0.795100
C2471	C247	0.026280	0.445870	0.712600
C2481	C248	0.897240	0.440300	0.929400
C2491	C249	0.886090	0.522540	0.598500
H1461	H146	0.867700	0.535600	0.578900
C2501	C250	0.972010	0.418550	0.888700
H1471	H147	0.954000	0.402900	0.968300
C2511	C251	0.912530	0.454910	0.068300
H1481	H148	0.943500	0.476400	0.085400
C2521	C252	0.009340	0.416520	0.837100
H1491	H149	0.021600	0.399200	0.875700
C2531	C253	0.850700	0.407790	0.912400
H1501	H150	0.838700	0.397000	0.821100
C2541	C254	0.822530	0.391710	0.031300
H1511	H151	0.791500	0.369600	0.017900
C2551	C255	0.882160	0.437740	0.179800
H1521	H152	0.893200	0.448700	0.271900
C2561	C256	0.913070	0.574880	0.334100
C2571	C257	0.923850	0.616590	0.397100
H1531	H153	0.947100	0.629800	0.466300
C2581	C258	0.878700	0.557340	0.230700
H1541	H154	0.870500	0.529600	0.183900
C2591	C259	0.899920	0.638540	0.356800
H1551	H155	0.907500	0.666500	0.401000
C2601	C260	0.856790	0.582160	0.198900
H1561	H156	0.833300	0.569900	0.130200
N491	N49	0.940770	0.500480	0.573400
N501	N50	0.999650	0.466240	0.691900
N511	N51	0.866700	0.621910	0.258600
N521	N52	0.837250	0.406000	0.164800
C2611	C261	0.595540	0.792610	0.136330
C2621	C262	0.585060	0.817330	0.034030
C2631	C263	0.589150	0.858060	0.841730
C2641	C264	0.604340	0.882190	0.710730
C2651	C265	0.550430	0.831180	0.049730
H1571	H157	0.530270	0.824330	0.127030
C2661	C266	0.632670	0.783270	0.128430
C2671	C267	0.692950	0.779200	0.045930
C2681	C268	0.563910	0.773630	0.262730
C2691	C269	0.552760	0.855870	0.931830
H1581	H158	0.534370	0.868930	0.912230
C2701	C270	0.638680	0.751880	0.222030
H1591	H159	0.620670	0.736230	0.301630
C2711	C271	0.579200	0.788240	0.401630
H1601	H160	0.610170	0.809730	0.418730
C2721	C272	0.676010	0.749850	0.170430
H1611	H161	0.688270	0.732530	0.209030
C2731	C273	0.517370	0.741120	0.245730
H1621	H162	0.505370	0.730330	0.154430
C2741	C274	0.489200	0.725040	0.364630
H1631	H163	0.458170	0.702930	0.351230
C2751	C275	0.548830	0.771070	0.513130
H1641	H164	0.559870	0.782030	0.605230
C2761	C276	0.579740	0.908210	0.667430
C2771	C277	0.590520	0.949920	0.730430
H1651	H165	0.613770	0.963130	0.799630
C2781	C278	0.545370	0.890670	0.564030
H1661	H166	0.537170	0.862930	0.517230
C2791	C279	0.566590	0.971870	0.690130
H1671	H167	0.574170	0.999830	0.734330
C2801	C280	0.523460	0.915490	0.532230
H1681	H168	0.499970	0.903230	0.463530
N531	N53	0.607440	0.833810	0.906730
N541	N54	0.666320	0.799570	0.025230
N551	N55	0.533370	0.955240	0.591930
N561	N56	0.503920	0.739330	0.498130
C2811	C281	0.262200	0.125950	0.469670
C2821	C282	0.251720	0.150670	0.367370
C2831	C283	0.255810	0.191400	0.175070
C2841	C284	0.271000	0.215530	0.044070
C2851	C285	0.217090	0.164520	0.383070
H1691	H169	0.196930	0.157670	0.460370
C2861	C286	0.299330	0.116610	0.461770
C2871	C287	0.359610	0.112540	0.379270
C2881	C288	0.230570	0.106970	0.596070
C2891	C289	0.219420	0.189210	0.265170
H1701	H170	0.201030	0.202270	0.245570
C2901	C290	0.305340	0.085220	0.555370
H1711	H171	0.287330	0.069570	0.634970
C2911	C291	0.245860	0.121580	0.734970
H1721	H172	0.276830	0.143070	0.752070
C2921	C292	0.342670	0.083190	0.503770
H1731	H173	0.354930	0.065870	0.542370
C2931	C293	0.184030	0.074460	0.579070
H1741	H174	0.172030	0.063670	0.487770
C2941	C294	0.155860	0.058380	0.697970
H1751	H175	0.124830	0.036270	0.684570
C2951	C295	0.215490	0.104410	0.846470
H1761	H176	0.226530	0.115370	0.938570
C2961	C296	0.246400	0.241550	0.000770
C2971	C297	0.257180	0.283260	0.063770
H1771	H177	0.280430	0.296470	0.132970
C2981	C298	0.212030	0.224010	0.897370
H1781	H178	0.203830	0.196270	0.850570
C2991	C299	0.233250	0.305210	0.023470
H1791	H179	0.240830	0.333170	0.067670
C3001	C300	0.190120	0.248830	0.865570
H1801	H180	0.166630	0.236570	0.796870
N571	N57	0.274100	0.167150	0.240070
N581	N58	0.332980	0.132910	0.358570
N591	N59	0.200030	0.288580	0.925270
N601	N60	0.170580	0.072670	0.831470
C3011	C301	0.540720	0.469590	0.803000
C3021	C302	0.516000	0.434390	0.700700
C3031	C303	0.475270	0.397750	0.508400
C3041	C304	0.451140	0.388810	0.377400
C3051	C305	0.502150	0.385910	0.716400
H1811	H181	0.509000	0.372600	0.793700
C3061	C306	0.550060	0.516060	0.795100
C3071	C307	0.554130	0.580410	0.712600
C3081	C308	0.559700	0.456940	0.929400
C3091	C309	0.477460	0.363550	0.598500
H1821	H182	0.464400	0.332100	0.578900
C3101	C310	0.581450	0.553460	0.888700
H1831	H183	0.597100	0.551100	0.968300
C3111	C311	0.545090	0.457620	0.068300
H1841	H184	0.523600	0.467100	0.085400
C3121	C312	0.583480	0.592820	0.837100
H1851	H185	0.600800	0.622400	0.875700
C3131	C313	0.592210	0.442910	0.912400
H1861	H186	0.603000	0.441700	0.821100
C3141	C314	0.608290	0.430820	0.031300
H1871	H187	0.630400	0.421900	0.017900
C3151	C315	0.562260	0.444420	0.179800
H1881	H188	0.551300	0.444500	0.271900
C3161	C316	0.425120	0.338190	0.334100
C3171	C317	0.383410	0.307260	0.397100
H1891	H189	0.370200	0.317300	0.466300
C3181	C318	0.442660	0.321360	0.230700
H1901	H190	0.470400	0.340900	0.183900
C3191	C319	0.361460	0.261380	0.356800
H1911	H191	0.333500	0.241000	0.401000
C3201	C320	0.417840	0.274630	0.198900
H1921	H192	0.430100	0.263400	0.130200
N611	N61	0.499520	0.440290	0.573400
N621	N62	0.533760	0.533410	0.691900
N631	N63	0.378090	0.244790	0.258600
N641	N64	0.594000	0.431250	0.164800
C3211	C321	0.207390	0.802920	0.136330
C3221	C322	0.182670	0.767720	0.034030
C3231	C323	0.141940	0.731080	0.841730
C3241	C324	0.117810	0.722140	0.710730
C3251	C325	0.168820	0.719240	0.049730
H1931	H193	0.175670	0.705930	0.127030
C3261	C326	0.216730	0.849390	0.128430
C3271	C327	0.220800	0.913740	0.045930
C3281	C328	0.226370	0.790270	0.262730
C3291	C329	0.144130	0.696880	0.931830
H1941	H194	0.131070	0.665430	0.912230
C3301	C330	0.248120	0.886790	0.222030
H1951	H195	0.263770	0.884430	0.301630
C3311	C331	0.211760	0.790950	0.401630
H1961	H196	0.190270	0.800430	0.418730
C3321	C332	0.250150	0.926150	0.170430
H1971	H197	0.267470	0.955730	0.209030
C3331	C333	0.258880	0.776240	0.245730
H1981	H198	0.269670	0.775030	0.154430
C3341	C334	0.274960	0.764150	0.364630
H1991	H199	0.297070	0.755230	0.351230
C3351	C335	0.228930	0.777750	0.513130
H2001	H200	0.217970	0.777830	0.605230
C3361	C336	0.091790	0.671520	0.667430
C3371	C337	0.050080	0.640590	0.730430
H2011	H201	0.036870	0.650630	0.799630
C3381	C338	0.109330	0.654690	0.564030
H2021	H202	0.137070	0.674230	0.517230
C3391	C339	0.028130	0.594710	0.690130
H2031	H203	0.000170	0.574330	0.734330
C3401	C340	0.084510	0.607960	0.532230
H2041	H204	0.096770	0.596730	0.463530
N651	N65	0.166190	0.773620	0.906730
N661	N66	0.200430	0.866740	0.025230
N671	N67	0.044760	0.578120	0.591930
N681	N68	0.260670	0.764580	0.498130
C3411	C341	0.874050	0.136260	0.469670
C3421	C342	0.849330	0.101060	0.367370
C3431	C343	0.808600	0.064420	0.175070
C3441	C344	0.784470	0.055480	0.044070
C3451	C345	0.835480	0.052580	0.383070
H2051	H205	0.842330	0.039270	0.460370
C3461	C346	0.883390	0.182730	0.461770
C3471	C347	0.887460	0.247080	0.379270
C3481	C348	0.893030	0.123610	0.596070
C3491	C349	0.810790	0.030220	0.265170
H2061	H206	0.797730	0.998770	0.245570
C3501	C350	0.914780	0.220130	0.555370
H2071	H207	0.930430	0.217770	0.634970
C3511	C351	0.878420	0.124290	0.734970
H2081	H208	0.856930	0.133770	0.752070
C3521	C352	0.916810	0.259490	0.503770
H2091	H209	0.934130	0.289070	0.542370
C3531	C353	0.925540	0.109580	0.579070
H2101	H210	0.936330	0.108370	0.487770
C3541	C354	0.941620	0.097490	0.697970
H2111	H211	0.963730	0.088570	0.684570
C3551	C355	0.895590	0.111090	0.846470
H2121	H212	0.884630	0.111170	0.938570
C3561	C356	0.758450	0.004860	0.000770
C3571	C357	0.716740	0.973930	0.063770
H2131	H213	0.703530	0.983970	0.132970
C3581	C358	0.775990	0.988030	0.897370
H2141	H214	0.803730	0.007570	0.850570
C3591	C359	0.694790	0.928050	0.023470
H2151	H215	0.666830	0.907670	0.067670
C3601	C360	0.751170	0.941300	0.865570
H2161	H216	0.763430	0.930070	0.796870
N691	N69	0.832850	0.106960	0.240070
N701	N70	0.867090	0.200080	0.358570
N711	N71	0.711420	0.911460	0.925270
N721	N72	0.927330	0.097920	0.831470
Mn11	Mn1	0.500000	0.000000	0.500000
Mn21	Mn2	0.166670	0.333330	0.833330
Mn31	Mn3	0.833330	0.666670	0.166670
Mn41	Mn4	0.000000	0.500000	0.500000
Mn51	Mn5	0.666670	0.833330	0.833330
Mn61	Mn6	0.333330	0.166670	0.166670
Mn71	Mn7	0.500000	0.500000	0.500000
Mn81	Mn8	0.166670	0.833330	0.833330
Mn91	Mn9	0.833330	0.166670	0.166670
