data_MURTUO_freeONLY_PM
_symmetry_space_group_name_H-M	'P1'
_cell_length_a	5.224000
_cell_length_b	8.800000
_cell_length_c	26.055000
_cell_angle_alpha	90.000000
_cell_angle_beta	90.000000
_cell_angle_gamma	97.380000
_symmetry_Int_Tables_number 1

loop_
_symmetry_equiv_pos_as_xyz
'x,y,z'

loop_
_atom_site_label
_atom_site_type_symbol
_atom_site_fract_x
_atom_site_fract_y
_atom_site_fract_z
Lu11	Lu1	0.596520	0.478560	0.659170
Lu21	Lu2	0.403480	0.021440	0.159170
Lu31	Lu3	0.403480	0.521440	0.340830
Lu41	Lu4	0.596520	0.978560	0.840830
H11	H1	0.995000	0.880000	0.644200
H21	H2	0.944000	0.851000	0.701600
H31	H3	0.414000	0.987000	0.664700
H41	H4	0.231000	0.079000	0.694300
H51	H5	0.776200	0.550000	0.483000
H61	H6	0.999500	0.652600	0.511100
H71	H7	0.304000	0.253000	0.597800
H81	H8	0.155000	0.340000	0.612300
H91	H9	0.935000	0.310000	0.701500
H101	H10	0.745000	0.213000	0.710400
H111	H11	0.005000	0.620000	0.144200
H121	H12	0.056000	0.649000	0.201600
H131	H13	0.586000	0.513000	0.164700
H141	H14	0.769000	0.421000	0.194300
H151	H15	0.223800	0.950000	0.983000
H161	H16	0.000500	0.847400	0.011100
H171	H17	0.696000	0.247000	0.097800
H181	H18	0.845000	0.160000	0.112300
H191	H19	0.065000	0.190000	0.201500
H201	H20	0.255000	0.287000	0.210400
H211	H21	0.005000	0.120000	0.355800
H221	H22	0.056000	0.149000	0.298400
H231	H23	0.586000	0.013000	0.335300
H241	H24	0.769000	0.921000	0.305700
H251	H25	0.223800	0.450000	0.517000
H261	H26	0.000500	0.347400	0.488900
H271	H27	0.696000	0.747000	0.402200
H281	H28	0.845000	0.660000	0.387700
H291	H29	0.065000	0.690000	0.298500
H301	H30	0.255000	0.787000	0.289600
H311	H31	0.995000	0.380000	0.855800
H321	H32	0.944000	0.351000	0.798400
H331	H33	0.414000	0.487000	0.835300
H341	H34	0.231000	0.579000	0.805700
H351	H35	0.776200	0.050000	0.017000
H361	H36	0.999500	0.152600	0.988900
H371	H37	0.304000	0.753000	0.902200
H381	H38	0.155000	0.840000	0.887700
H391	H39	0.935000	0.810000	0.798500
H401	H40	0.745000	0.713000	0.789600
C11	C1	0.165000	0.704600	0.668500
C21	C2	0.076400	0.858300	0.675970
C31	C3	0.290000	0.984100	0.689850
C41	C4	0.413200	0.967000	0.741400
C51	C5	0.780300	0.510500	0.559610
C61	C6	0.909700	0.549200	0.508860
C71	C7	0.835000	0.795400	0.168500
C81	C8	0.923600	0.641700	0.175970
C91	C9	0.710000	0.515900	0.189850
C101	C10	0.586800	0.533000	0.241400
C111	C11	0.219700	0.989500	0.059610
C121	C12	0.090300	0.950800	0.008860
C131	C13	0.835000	0.295400	0.331500
C141	C14	0.923600	0.141700	0.324030
C151	C15	0.710000	0.015900	0.310150
C161	C16	0.586800	0.033000	0.258600
C171	C17	0.219700	0.489500	0.440390
C181	C18	0.090300	0.450800	0.491140
C191	C19	0.165000	0.204600	0.831500
C201	C20	0.076400	0.358300	0.824030
C211	C21	0.290000	0.484100	0.810150
C221	C22	0.413200	0.467000	0.758600
C231	C23	0.780300	0.010500	0.940390
C241	C24	0.909700	0.049200	0.991140
O11	O1	0.400000	0.692400	0.666460
O21	O2	0.995900	0.589700	0.663870
O31	O3	0.626900	0.046100	0.751620
O41	O4	0.302300	0.880200	0.775860
O51	O5	0.811300	0.390100	0.584010
O61	O6	0.642200	0.603700	0.578210
O71	O7	0.286600	0.320600	0.616070
O81	O8	0.801300	0.282700	0.690770
O91	O9	0.600000	0.807600	0.166460
O101	O10	0.004100	0.910300	0.163870
O111	O11	0.373100	0.453900	0.251620
O121	O12	0.697700	0.619800	0.275860
O131	O13	0.188700	0.109900	0.084010
O141	O14	0.357800	0.896300	0.078210
O151	O15	0.713400	0.179400	0.116070
O161	O16	0.198700	0.217300	0.190770
O171	O17	0.600000	0.307600	0.333540
O181	O18	0.004100	0.410300	0.336130
O191	O19	0.373100	0.953900	0.248380
O201	O20	0.697700	0.119800	0.224140
O211	O21	0.188700	0.609900	0.415990
O221	O22	0.357800	0.396300	0.421790
O231	O23	0.713400	0.679400	0.383930
O241	O24	0.198700	0.717300	0.309230
O251	O25	0.400000	0.192400	0.833540
O261	O26	0.995900	0.089700	0.836130
O271	O27	0.626900	0.546100	0.748380
O281	O28	0.302300	0.380200	0.724140
O291	O29	0.811300	0.890100	0.915990
O301	O30	0.642200	0.103700	0.921790
O311	O31	0.286600	0.820600	0.883930
O321	O32	0.801300	0.782700	0.809230
