data_MUTDEM_freeONLY_PM
_symmetry_space_group_name_H-M	'P1'
_cell_length_a	19.623000
_cell_length_b	19.623000
_cell_length_c	19.147000
_cell_angle_alpha	90.000000
_cell_angle_beta	90.000000
_cell_angle_gamma	90.000000
_symmetry_Int_Tables_number 1

loop_
_symmetry_equiv_pos_as_xyz
'x,y,z'

loop_
_atom_site_label
_atom_site_type_symbol
_atom_site_fract_x
_atom_site_fract_y
_atom_site_fract_z
Fe11	Fe1	0.396240	0.521760	0.020030
N11	N1	0.382930	0.417540	0.071400
N21	N2	0.329190	0.539580	0.107160
N31	N3	0.270500	0.495980	0.198400
H11	H1	0.253900	0.467100	0.227600
N41	N4	0.262400	0.564830	0.198830
N51	N5	0.335000	0.696820	0.084890
N61	N6	0.276320	0.701400	0.184930
N71	N7	0.290980	0.766860	0.166370
C11	C1	0.412200	0.358000	0.053200
H21	H2	0.445600	0.356900	0.018700
C21	C2	0.392500	0.299500	0.085500
H31	H3	0.412400	0.258800	0.071200
C31	C3	0.347300	0.297100	0.135400
H41	H4	0.336300	0.256300	0.157500
C41	C4	0.317600	0.355500	0.153500
H51	H5	0.283500	0.355400	0.187100
C51	C5	0.336900	0.416800	0.122800
C61	C6	0.309900	0.482700	0.142900
C71	C7	0.298160	0.588530	0.144400
C81	C8	0.303150	0.662180	0.135320
C91	C9	0.324900	0.761200	0.106800
H61	H6	0.340400	0.798900	0.082000
O11	O1	0.394120	0.621680	0.981270
H71	H7	0.433800	0.633000	0.967600
H81	H8	0.381300	0.648500	0.013600
Fe21	Fe2	0.896240	0.021760	0.520030
N81	N8	0.882930	0.917540	0.571400
N91	N9	0.829190	0.039580	0.607160
N101	N10	0.770500	0.995980	0.698400
H91	H9	0.753900	0.967100	0.727600
N111	N11	0.762400	0.064830	0.698830
N121	N12	0.835000	0.196820	0.584890
N131	N13	0.776320	0.201400	0.684930
N141	N14	0.790980	0.266860	0.666370
C101	C10	0.912200	0.858000	0.553200
H101	H10	0.945600	0.856900	0.518700
C111	C11	0.892500	0.799500	0.585500
H111	H11	0.912400	0.758800	0.571200
C121	C12	0.847300	0.797100	0.635400
H121	H12	0.836300	0.756300	0.657500
C131	C13	0.817600	0.855500	0.653500
H131	H13	0.783500	0.855400	0.687100
C141	C14	0.836900	0.916800	0.622800
C151	C15	0.809900	0.982700	0.642900
C161	C16	0.798160	0.088530	0.644400
C171	C17	0.803150	0.162180	0.635320
C181	C18	0.824900	0.261200	0.606800
H141	H14	0.840400	0.298900	0.582000
O21	O2	0.894120	0.121680	0.481270
H151	H15	0.933800	0.133000	0.467600
H161	H16	0.881300	0.148500	0.513600
Fe31	Fe3	0.103760	0.478240	0.520030
N151	N15	0.117070	0.582460	0.571400
N161	N16	0.170810	0.460420	0.607160
N171	N17	0.229500	0.504020	0.698400
H171	H17	0.246100	0.532900	0.727600
N181	N18	0.237600	0.435170	0.698830
N191	N19	0.165000	0.303180	0.584890
N201	N20	0.223680	0.298600	0.684930
N211	N21	0.209020	0.233140	0.666370
C191	C19	0.087800	0.642000	0.553200
H181	H18	0.054400	0.643100	0.518700
C201	C20	0.107500	0.700500	0.585500
H191	H19	0.087600	0.741200	0.571200
C211	C21	0.152700	0.702900	0.635400
H201	H20	0.163700	0.743700	0.657500
C221	C22	0.182400	0.644500	0.653500
H211	H21	0.216500	0.644600	0.687100
C231	C23	0.163100	0.583200	0.622800
C241	C24	0.190100	0.517300	0.642900
C251	C25	0.201840	0.411470	0.644400
C261	C26	0.196850	0.337820	0.635320
C271	C27	0.175100	0.238800	0.606800
H221	H22	0.159600	0.201100	0.582000
O31	O3	0.105880	0.378320	0.481270
H231	H23	0.066200	0.367000	0.467600
H241	H24	0.118700	0.351500	0.513600
Fe41	Fe4	0.603760	0.978240	0.020030
N221	N22	0.617070	0.082460	0.071400
N231	N23	0.670810	0.960420	0.107160
N241	N24	0.729500	0.004020	0.198400
H251	H25	0.746100	0.032900	0.227600
N251	N25	0.737600	0.935170	0.198830
N261	N26	0.665000	0.803180	0.084890
N271	N27	0.723680	0.798600	0.184930
N281	N28	0.709020	0.733140	0.166370
C281	C28	0.587800	0.142000	0.053200
H261	H26	0.554400	0.143100	0.018700
C291	C29	0.607500	0.200500	0.085500
H271	H27	0.587600	0.241200	0.071200
C301	C30	0.652700	0.202900	0.135400
H281	H28	0.663700	0.243700	0.157500
C311	C31	0.682400	0.144500	0.153500
H291	H29	0.716500	0.144600	0.187100
C321	C32	0.663100	0.083200	0.122800
C331	C33	0.690100	0.017300	0.142900
C341	C34	0.701840	0.911470	0.144400
C351	C35	0.696850	0.837820	0.135320
C361	C36	0.675100	0.738800	0.106800
H301	H30	0.659600	0.701100	0.082000
O41	O4	0.605880	0.878320	0.981270
H311	H31	0.566200	0.867000	0.967600
H321	H32	0.618700	0.851500	0.013600
Fe51	Fe5	0.228240	0.646240	0.270030
N291	N29	0.332460	0.632930	0.321400
N301	N30	0.210420	0.579190	0.357160
N311	N31	0.254020	0.520500	0.448400
H331	H33	0.282900	0.503900	0.477600
N321	N32	0.185170	0.512400	0.448830
N331	N33	0.053180	0.585000	0.334890
N341	N34	0.048600	0.526320	0.434930
N351	N35	0.983140	0.540980	0.416370
C371	C37	0.392000	0.662200	0.303200
H341	H34	0.393100	0.695600	0.268700
C381	C38	0.450500	0.642500	0.335500
H351	H35	0.491200	0.662400	0.321200
C391	C39	0.452900	0.597300	0.385400
H361	H36	0.493700	0.586300	0.407500
C401	C40	0.394500	0.567600	0.403500
H371	H37	0.394600	0.533500	0.437100
C411	C41	0.333200	0.586900	0.372800
C421	C42	0.267300	0.559900	0.392900
C431	C43	0.161470	0.548160	0.394400
C441	C44	0.087820	0.553150	0.385320
C451	C45	0.988800	0.574900	0.356800
H381	H38	0.951100	0.590400	0.332000
O51	O5	0.128320	0.644120	0.231270
H391	H39	0.117000	0.683800	0.217600
H401	H40	0.101500	0.631300	0.263600
Fe61	Fe6	0.728240	0.146240	0.770030
N361	N36	0.832460	0.132930	0.821400
N371	N37	0.710420	0.079190	0.857160
N381	N38	0.754020	0.020500	0.948400
H411	H41	0.782900	0.003900	0.977600
N391	N39	0.685170	0.012400	0.948830
N401	N40	0.553180	0.085000	0.834890
N411	N41	0.548600	0.026320	0.934930
N421	N42	0.483140	0.040980	0.916370
C461	C46	0.892000	0.162200	0.803200
H421	H42	0.893100	0.195600	0.768700
C471	C47	0.950500	0.142500	0.835500
H431	H43	0.991200	0.162400	0.821200
C481	C48	0.952900	0.097300	0.885400
H441	H44	0.993700	0.086300	0.907500
C491	C49	0.894500	0.067600	0.903500
H451	H45	0.894600	0.033500	0.937100
C501	C50	0.833200	0.086900	0.872800
C511	C51	0.767300	0.059900	0.892900
C521	C52	0.661470	0.048160	0.894400
C531	C53	0.587820	0.053150	0.885320
C541	C54	0.488800	0.074900	0.856800
H461	H46	0.451100	0.090400	0.832000
O61	O6	0.628320	0.144120	0.731270
H471	H47	0.617000	0.183800	0.717600
H481	H48	0.601500	0.131300	0.763600
Fe71	Fe7	0.271760	0.353760	0.770030
N431	N43	0.167540	0.367070	0.821400
N441	N44	0.289580	0.420810	0.857160
N451	N45	0.245980	0.479500	0.948400
H491	H49	0.217100	0.496100	0.977600
N461	N46	0.314830	0.487600	0.948830
N471	N47	0.446820	0.415000	0.834890
N481	N48	0.451400	0.473680	0.934930
N491	N49	0.516860	0.459020	0.916370
C551	C55	0.108000	0.337800	0.803200
H501	H50	0.106900	0.304400	0.768700
C561	C56	0.049500	0.357500	0.835500
H511	H51	0.008800	0.337600	0.821200
C571	C57	0.047100	0.402700	0.885400
H521	H52	0.006300	0.413700	0.907500
C581	C58	0.105500	0.432400	0.903500
H531	H53	0.105400	0.466500	0.937100
C591	C59	0.166800	0.413100	0.872800
C601	C60	0.232700	0.440100	0.892900
C611	C61	0.338530	0.451840	0.894400
C621	C62	0.412180	0.446850	0.885320
C631	C63	0.511200	0.425100	0.856800
H541	H54	0.548900	0.409600	0.832000
O71	O7	0.371680	0.355880	0.731270
H551	H55	0.383000	0.316200	0.717600
H561	H56	0.398500	0.368700	0.763600
Fe81	Fe8	0.771760	0.853760	0.270030
N501	N50	0.667540	0.867070	0.321400
N511	N51	0.789580	0.920810	0.357160
N521	N52	0.745980	0.979500	0.448400
H571	H57	0.717100	0.996100	0.477600
N531	N53	0.814830	0.987600	0.448830
N541	N54	0.946820	0.915000	0.334890
N551	N55	0.951400	0.973680	0.434930
N561	N56	0.016860	0.959020	0.416370
C641	C64	0.608000	0.837800	0.303200
H581	H58	0.606900	0.804400	0.268700
C651	C65	0.549500	0.857500	0.335500
H591	H59	0.508800	0.837600	0.321200
C661	C66	0.547100	0.902700	0.385400
H601	H60	0.506300	0.913700	0.407500
C671	C67	0.605500	0.932400	0.403500
H611	H61	0.605400	0.966500	0.437100
C681	C68	0.666800	0.913100	0.372800
C691	C69	0.732700	0.940100	0.392900
C701	C70	0.838530	0.951840	0.394400
C711	C71	0.912180	0.946850	0.385320
C721	C72	0.011200	0.925100	0.356800
H621	H62	0.048900	0.909600	0.332000
O81	O8	0.871680	0.855880	0.231270
H631	H63	0.883000	0.816200	0.217600
H641	H64	0.898500	0.868700	0.263600
Fe91	Fe9	0.603760	0.478240	0.979970
N571	N57	0.617070	0.582460	0.928600
N581	N58	0.670810	0.460420	0.892840
N591	N59	0.729500	0.504020	0.801600
H651	H65	0.746100	0.532900	0.772400
N601	N60	0.737600	0.435170	0.801170
N611	N61	0.665000	0.303180	0.915110
N621	N62	0.723680	0.298600	0.815070
N631	N63	0.709020	0.233140	0.833630
C731	C73	0.587800	0.642000	0.946800
H661	H66	0.554400	0.643100	0.981300
C741	C74	0.607500	0.700500	0.914500
H671	H67	0.587600	0.741200	0.928800
C751	C75	0.652700	0.702900	0.864600
H681	H68	0.663700	0.743700	0.842500
C761	C76	0.682400	0.644500	0.846500
H691	H69	0.716500	0.644600	0.812900
C771	C77	0.663100	0.583200	0.877200
C781	C78	0.690100	0.517300	0.857100
C791	C79	0.701840	0.411470	0.855600
C801	C80	0.696850	0.337820	0.864680
C811	C81	0.675100	0.238800	0.893200
H701	H70	0.659600	0.201100	0.918000
O91	O9	0.605880	0.378320	0.018730
H711	H71	0.566200	0.367000	0.032400
H721	H72	0.618700	0.351500	0.986400
Fe101	Fe10	0.103760	0.978240	0.479970
N641	N64	0.117070	0.082460	0.428600
N651	N65	0.170810	0.960420	0.392840
N661	N66	0.229500	0.004020	0.301600
H731	H73	0.246100	0.032900	0.272400
N671	N67	0.237600	0.935170	0.301170
N681	N68	0.165000	0.803180	0.415110
N691	N69	0.223680	0.798600	0.315070
N701	N70	0.209020	0.733140	0.333630
C821	C82	0.087800	0.142000	0.446800
H741	H74	0.054400	0.143100	0.481300
C831	C83	0.107500	0.200500	0.414500
H751	H75	0.087600	0.241200	0.428800
C841	C84	0.152700	0.202900	0.364600
H761	H76	0.163700	0.243700	0.342500
C851	C85	0.182400	0.144500	0.346500
H771	H77	0.216500	0.144600	0.312900
C861	C86	0.163100	0.083200	0.377200
C871	C87	0.190100	0.017300	0.357100
C881	C88	0.201840	0.911470	0.355600
C891	C89	0.196850	0.837820	0.364680
C901	C90	0.175100	0.738800	0.393200
H781	H78	0.159600	0.701100	0.418000
O101	O10	0.105880	0.878320	0.518730
H791	H79	0.066200	0.867000	0.532400
H801	H80	0.118700	0.851500	0.486400
Fe111	Fe11	0.896240	0.521760	0.479970
N711	N71	0.882930	0.417540	0.428600
N721	N72	0.829190	0.539580	0.392840
N731	N73	0.770500	0.495980	0.301600
H811	H81	0.753900	0.467100	0.272400
N741	N74	0.762400	0.564830	0.301170
N751	N75	0.835000	0.696820	0.415110
N761	N76	0.776320	0.701400	0.315070
N771	N77	0.790980	0.766860	0.333630
C911	C91	0.912200	0.358000	0.446800
H821	H82	0.945600	0.356900	0.481300
C921	C92	0.892500	0.299500	0.414500
H831	H83	0.912400	0.258800	0.428800
C931	C93	0.847300	0.297100	0.364600
H841	H84	0.836300	0.256300	0.342500
C941	C94	0.817600	0.355500	0.346500
H851	H85	0.783500	0.355400	0.312900
C951	C95	0.836900	0.416800	0.377200
C961	C96	0.809900	0.482700	0.357100
C971	C97	0.798160	0.588530	0.355600
C981	C98	0.803150	0.662180	0.364680
C991	C99	0.824900	0.761200	0.393200
H861	H86	0.840400	0.798900	0.418000
O111	O11	0.894120	0.621680	0.518730
H871	H87	0.933800	0.633000	0.532400
H881	H88	0.881300	0.648500	0.486400
Fe121	Fe12	0.396240	0.021760	0.979970
N781	N78	0.382930	0.917540	0.928600
N791	N79	0.329190	0.039580	0.892840
N801	N80	0.270500	0.995980	0.801600
H891	H89	0.253900	0.967100	0.772400
N811	N81	0.262400	0.064830	0.801170
N821	N82	0.335000	0.196820	0.915110
N831	N83	0.276320	0.201400	0.815070
N841	N84	0.290980	0.266860	0.833630
C1001	C100	0.412200	0.858000	0.946800
H901	H90	0.445600	0.856900	0.981300
C1011	C101	0.392500	0.799500	0.914500
H911	H91	0.412400	0.758800	0.928800
C1021	C102	0.347300	0.797100	0.864600
H921	H92	0.336300	0.756300	0.842500
C1031	C103	0.317600	0.855500	0.846500
H931	H93	0.283500	0.855400	0.812900
C1041	C104	0.336900	0.916800	0.877200
C1051	C105	0.309900	0.982700	0.857100
C1061	C106	0.298160	0.088530	0.855600
C1071	C107	0.303150	0.162180	0.864680
C1081	C108	0.324900	0.261200	0.893200
H941	H94	0.340400	0.298900	0.918000
O121	O12	0.394120	0.121680	0.018730
H951	H95	0.433800	0.133000	0.032400
H961	H96	0.381300	0.148500	0.986400
Fe131	Fe13	0.771760	0.353760	0.729970
N851	N85	0.667540	0.367070	0.678600
N861	N86	0.789580	0.420810	0.642840
N871	N87	0.745980	0.479500	0.551600
H971	H97	0.717100	0.496100	0.522400
N881	N88	0.814830	0.487600	0.551170
N891	N89	0.946820	0.415000	0.665110
N901	N90	0.951400	0.473680	0.565070
N911	N91	0.016860	0.459020	0.583630
C1091	C109	0.608000	0.337800	0.696800
H981	H98	0.606900	0.304400	0.731300
C1101	C110	0.549500	0.357500	0.664500
H991	H99	0.508800	0.337600	0.678800
C1111	C111	0.547100	0.402700	0.614600
H1001	H100	0.506300	0.413700	0.592500
C1121	C112	0.605500	0.432400	0.596500
H1011	H101	0.605400	0.466500	0.562900
C1131	C113	0.666800	0.413100	0.627200
C1141	C114	0.732700	0.440100	0.607100
C1151	C115	0.838530	0.451840	0.605600
C1161	C116	0.912180	0.446850	0.614680
C1171	C117	0.011200	0.425100	0.643200
H1021	H102	0.048900	0.409600	0.668000
O131	O13	0.871680	0.355880	0.768730
H1031	H103	0.883000	0.316200	0.782400
H1041	H104	0.898500	0.368700	0.736400
Fe141	Fe14	0.271760	0.853760	0.229970
N921	N92	0.167540	0.867070	0.178600
N931	N93	0.289580	0.920810	0.142840
N941	N94	0.245980	0.979500	0.051600
H1051	H105	0.217100	0.996100	0.022400
N951	N95	0.314830	0.987600	0.051170
N961	N96	0.446820	0.915000	0.165110
N971	N97	0.451400	0.973680	0.065070
N981	N98	0.516860	0.959020	0.083630
C1181	C118	0.108000	0.837800	0.196800
H1061	H106	0.106900	0.804400	0.231300
C1191	C119	0.049500	0.857500	0.164500
H1071	H107	0.008800	0.837600	0.178800
C1201	C120	0.047100	0.902700	0.114600
H1081	H108	0.006300	0.913700	0.092500
C1211	C121	0.105500	0.932400	0.096500
H1091	H109	0.105400	0.966500	0.062900
C1221	C122	0.166800	0.913100	0.127200
C1231	C123	0.232700	0.940100	0.107100
C1241	C124	0.338530	0.951840	0.105600
C1251	C125	0.412180	0.946850	0.114680
C1261	C126	0.511200	0.925100	0.143200
H1101	H110	0.548900	0.909600	0.168000
O141	O14	0.371680	0.855880	0.268730
H1111	H111	0.383000	0.816200	0.282400
H1121	H112	0.398500	0.868700	0.236400
Fe151	Fe15	0.728240	0.646240	0.229970
N991	N99	0.832460	0.632930	0.178600
N1001	N100	0.710420	0.579190	0.142840
N1011	N101	0.754020	0.520500	0.051600
H1131	H113	0.782900	0.503900	0.022400
N1021	N102	0.685170	0.512400	0.051170
N1031	N103	0.553180	0.585000	0.165110
N1041	N104	0.548600	0.526320	0.065070
N1051	N105	0.483140	0.540980	0.083630
C1271	C127	0.892000	0.662200	0.196800
H1141	H114	0.893100	0.695600	0.231300
C1281	C128	0.950500	0.642500	0.164500
H1151	H115	0.991200	0.662400	0.178800
C1291	C129	0.952900	0.597300	0.114600
H1161	H116	0.993700	0.586300	0.092500
C1301	C130	0.894500	0.567600	0.096500
H1171	H117	0.894600	0.533500	0.062900
C1311	C131	0.833200	0.586900	0.127200
C1321	C132	0.767300	0.559900	0.107100
C1331	C133	0.661470	0.548160	0.105600
C1341	C134	0.587820	0.553150	0.114680
C1351	C135	0.488800	0.574900	0.143200
H1181	H118	0.451100	0.590400	0.168000
O151	O15	0.628320	0.644120	0.268730
H1191	H119	0.617000	0.683800	0.282400
H1201	H120	0.601500	0.631300	0.236400
Fe161	Fe16	0.228240	0.146240	0.729970
N1061	N106	0.332460	0.132930	0.678600
N1071	N107	0.210420	0.079190	0.642840
N1081	N108	0.254020	0.020500	0.551600
H1211	H121	0.282900	0.003900	0.522400
N1091	N109	0.185170	0.012400	0.551170
N1101	N110	0.053180	0.085000	0.665110
N1111	N111	0.048600	0.026320	0.565070
N1121	N112	0.983140	0.040980	0.583630
C1361	C136	0.392000	0.162200	0.696800
H1221	H122	0.393100	0.195600	0.731300
C1371	C137	0.450500	0.142500	0.664500
H1231	H123	0.491200	0.162400	0.678800
C1381	C138	0.452900	0.097300	0.614600
H1241	H124	0.493700	0.086300	0.592500
C1391	C139	0.394500	0.067600	0.596500
H1251	H125	0.394600	0.033500	0.562900
C1401	C140	0.333200	0.086900	0.627200
C1411	C141	0.267300	0.059900	0.607100
C1421	C142	0.161470	0.048160	0.605600
C1431	C143	0.087820	0.053150	0.614680
C1441	C144	0.988800	0.074900	0.643200
H1261	H126	0.951100	0.090400	0.668000
O161	O16	0.128320	0.144120	0.768730
H1271	H127	0.117000	0.183800	0.782400
H1281	H128	0.101500	0.131300	0.736400
