data_MUTVUT_freeONLY_PM
_symmetry_space_group_name_H-M	'P1'
_cell_length_a	9.334490
_cell_length_b	12.042700
_cell_length_c	27.514000
_cell_angle_alpha	90.000000
_cell_angle_beta	90.000000
_cell_angle_gamma	112.803000
_symmetry_Int_Tables_number 1

loop_
_symmetry_equiv_pos_as_xyz
'x,y,z'

loop_
_atom_site_label
_atom_site_type_symbol
_atom_site_fract_x
_atom_site_fract_y
_atom_site_fract_z
Cd11	Cd1	0.649160	0.000000	0.500000
Cd21	Cd2	0.350840	0.000000	0.000000
Cd31	Cd3	0.744040	0.488080	0.250000
Cd41	Cd4	0.255960	0.511920	0.750000
H11	H1	0.742900	0.628200	0.509000
H21	H2	0.889300	0.515400	0.493900
H31	H3	0.134800	0.751600	0.393400
H41	H4	0.979700	0.862200	0.406900
H51	H5	0.413300	0.645800	0.447400
H61	H6	0.590900	0.646200	0.389600
H71	H7	0.252600	0.520600	0.291100
H81	H8	0.074600	0.523400	0.349600
H91	H9	0.478600	0.237600	0.259100
H101	H10	0.320500	0.238800	0.240300
H111	H11	0.367100	0.130400	0.227600
H121	H12	0.745300	0.455200	0.125700
H131	H13	0.526400	0.325000	0.076300
H141	H14	0.273900	0.136000	0.096600
H151	H15	0.243300	0.095200	0.151100
H161	H16	0.149700	0.243800	0.166300
H171	H17	0.186100	0.290000	0.112700
H181	H18	0.995000	0.111400	0.083600
H191	H19	0.962500	0.059000	0.136600
H201	H20	0.906400	0.263200	0.106200
H211	H21	0.871700	0.209000	0.158700
H221	H22	0.618300	0.004800	0.168400
H231	H23	0.393800	0.910800	0.115800
H241	H24	0.697200	0.155600	0.994100
H251	H25	0.725400	0.267200	0.027800
H261	H26	0.847900	0.207800	0.026100
H271	H27	0.257100	0.371800	0.009000
H281	H28	0.110700	0.484600	0.993900
H291	H29	0.865200	0.248400	0.893400
H301	H30	0.020300	0.137800	0.906900
H311	H31	0.586700	0.354200	0.947400
H321	H32	0.409100	0.353800	0.889600
H331	H33	0.747400	0.479400	0.791100
H341	H34	0.925400	0.476600	0.849600
H351	H35	0.521400	0.762400	0.759100
H361	H36	0.679500	0.761200	0.740300
H371	H37	0.632900	0.869600	0.727600
H381	H38	0.254700	0.544800	0.625700
H391	H39	0.473600	0.675000	0.576300
H401	H40	0.726100	0.864000	0.596600
H411	H41	0.756700	0.904800	0.651100
H421	H42	0.850300	0.756200	0.666300
H431	H43	0.813900	0.710000	0.612700
H441	H44	0.005000	0.888600	0.583600
H451	H45	0.037500	0.941000	0.636600
H461	H46	0.093600	0.736800	0.606200
H471	H47	0.128300	0.791000	0.658700
H481	H48	0.381700	0.995200	0.668400
H491	H49	0.606200	0.089200	0.615800
H501	H50	0.302800	0.844400	0.494100
H511	H51	0.274600	0.732800	0.527800
H521	H52	0.152100	0.792200	0.526100
H531	H53	0.885300	0.628200	0.991000
H541	H54	0.626100	0.515400	0.006100
H551	H55	0.616800	0.751600	0.106600
H561	H56	0.882500	0.862200	0.093100
H571	H57	0.232500	0.645800	0.052600
H581	H58	0.055300	0.646200	0.110400
H591	H59	0.268000	0.520600	0.208900
H601	H60	0.448800	0.523400	0.150400
H611	H61	0.759000	0.237600	0.240900
H621	H62	0.918300	0.238800	0.259700
H631	H63	0.763300	0.130400	0.272400
H641	H64	0.709900	0.455200	0.374300
H651	H65	0.798600	0.325000	0.423700
H661	H66	0.862100	0.136000	0.403400
H671	H67	0.851900	0.095200	0.348900
H681	H68	0.094100	0.243800	0.333700
H691	H69	0.103900	0.290000	0.387300
H701	H70	0.116400	0.111400	0.416400
H711	H71	0.096500	0.059000	0.363400
H721	H72	0.356800	0.263200	0.393800
H731	H73	0.337300	0.209000	0.341300
H741	H74	0.386500	0.004800	0.331600
H751	H75	0.517000	0.910800	0.384200
H761	H76	0.458400	0.155600	0.505900
H771	H77	0.541800	0.267200	0.472200
H781	H78	0.359900	0.207800	0.473900
H791	H79	0.114700	0.371800	0.491000
H801	H80	0.373900	0.484600	0.506100
H811	H81	0.383200	0.248400	0.606600
H821	H82	0.117500	0.137800	0.593100
H831	H83	0.767500	0.354200	0.552600
H841	H84	0.944700	0.353800	0.610400
H851	H85	0.732000	0.479400	0.708900
H861	H86	0.551200	0.476600	0.650400
H871	H87	0.241000	0.762400	0.740900
H881	H88	0.081700	0.761200	0.759700
H891	H89	0.236700	0.869600	0.772400
H901	H90	0.290100	0.544800	0.874300
H911	H91	0.201400	0.675000	0.923700
H921	H92	0.137900	0.864000	0.903400
H931	H93	0.148100	0.904800	0.848900
H941	H94	0.905900	0.756200	0.833700
H951	H95	0.896100	0.710000	0.887300
H961	H96	0.883600	0.888600	0.916400
H971	H97	0.903500	0.941000	0.863400
H981	H98	0.643200	0.736800	0.893800
H991	H99	0.662700	0.791000	0.841300
H1001	H100	0.613500	0.995200	0.831600
H1011	H101	0.483000	0.089200	0.884200
H1021	H102	0.541600	0.844400	0.005900
H1031	H103	0.458200	0.732800	0.972200
H1041	H104	0.640100	0.792200	0.973900
C11	C1	0.756700	0.834000	0.469200
C21	C2	0.846700	0.755000	0.459600
C31	C3	0.820400	0.653000	0.485500
C41	C4	0.909200	0.586400	0.476800
C51	C5	0.025700	0.623800	0.443400
C61	C6	0.055700	0.726800	0.416400
C71	C7	0.963100	0.792800	0.424800
C81	C8	0.225500	0.576600	0.404200
C91	C9	0.380500	0.618400	0.416100
C101	C10	0.486200	0.619600	0.381500
C111	C11	0.439700	0.582000	0.334900
C121	C12	0.285300	0.545200	0.322700
C131	C13	0.178600	0.545200	0.357900
C141	C14	0.553900	0.568600	0.298800
C151	C15	0.405600	0.215800	0.232700
C161	C16	0.484100	0.279000	0.187600
C171	C17	0.655000	0.395400	0.137500
C181	C18	0.534800	0.323800	0.110000
C191	C19	0.272700	0.164400	0.129600
C201	C20	0.154200	0.218800	0.133000
C211	C21	0.992800	0.132400	0.117600
C221	C22	0.873900	0.188800	0.124600
C231	C23	0.609400	0.024800	0.136200
C241	C24	0.485700	0.973800	0.107000
C251	C25	0.656900	0.110800	0.064900
C261	C26	0.739100	0.192600	0.024700
C271	C27	0.243300	0.166000	0.969200
C281	C28	0.153300	0.245000	0.959600
C291	C29	0.179600	0.347000	0.985500
C301	C30	0.090800	0.413600	0.976800
C311	C31	0.974300	0.376200	0.943400
C321	C32	0.944300	0.273200	0.916400
C331	C33	0.036900	0.207200	0.924800
C341	C34	0.774500	0.423400	0.904200
C351	C35	0.619500	0.381600	0.916100
C361	C36	0.513800	0.380400	0.881500
C371	C37	0.560300	0.418000	0.834900
C381	C38	0.714700	0.454800	0.822700
C391	C39	0.821400	0.454800	0.857900
C401	C40	0.446100	0.431400	0.798800
C411	C41	0.594400	0.784200	0.732700
C421	C42	0.515900	0.721000	0.687600
C431	C43	0.345000	0.604600	0.637500
C441	C44	0.465200	0.676200	0.610000
C451	C45	0.727300	0.835600	0.629600
C461	C46	0.845800	0.781200	0.633000
C471	C47	0.007200	0.867600	0.617600
C481	C48	0.126100	0.811200	0.624600
C491	C49	0.390600	0.975200	0.636200
C501	C50	0.514300	0.026200	0.607000
C511	C51	0.343100	0.889200	0.564900
C521	C52	0.260900	0.807400	0.524700
C531	C53	0.077300	0.834000	0.030800
C541	C54	0.908300	0.755000	0.040400
C551	C55	0.832600	0.653000	0.014500
C561	C56	0.677200	0.586400	0.023200
C571	C57	0.598100	0.623800	0.056600
C581	C58	0.671100	0.726800	0.083600
C591	C59	0.829700	0.792800	0.075200
C601	C60	0.351100	0.576600	0.095800
C611	C61	0.237900	0.618400	0.083900
C621	C62	0.133400	0.619600	0.118500
C631	C63	0.142300	0.582000	0.165100
C641	C64	0.259900	0.545200	0.177300
C651	C65	0.366600	0.545200	0.142100
C661	C66	0.014700	0.568600	0.201200
C671	C67	0.810200	0.215800	0.267300
C681	C68	0.794900	0.279000	0.312400
C691	C69	0.740400	0.395400	0.362500
C701	C70	0.789000	0.323800	0.390000
C711	C71	0.891700	0.164400	0.370400
C721	C72	0.064600	0.218800	0.367000
C731	C73	0.139600	0.132400	0.382400
C741	C74	0.314900	0.188800	0.375400
C751	C75	0.415400	0.024800	0.363800
C761	C76	0.488100	0.973800	0.393000
C771	C77	0.453900	0.110800	0.435100
C781	C78	0.453500	0.192600	0.475300
C791	C79	0.922700	0.166000	0.530800
C801	C80	0.091700	0.245000	0.540400
C811	C81	0.167400	0.347000	0.514500
C821	C82	0.322800	0.413600	0.523200
C831	C83	0.401900	0.376200	0.556600
C841	C84	0.328900	0.273200	0.583600
C851	C85	0.170300	0.207200	0.575200
C861	C86	0.648900	0.423400	0.595800
C871	C87	0.762100	0.381600	0.583900
C881	C88	0.866600	0.380400	0.618500
C891	C89	0.857700	0.418000	0.665100
C901	C90	0.740100	0.454800	0.677300
C911	C91	0.633400	0.454800	0.642100
C921	C92	0.985300	0.431400	0.701200
C931	C93	0.189800	0.784200	0.767300
C941	C94	0.205100	0.721000	0.812400
C951	C95	0.259600	0.604600	0.862500
C961	C96	0.211000	0.676200	0.890000
C971	C97	0.108300	0.835600	0.870400
C981	C98	0.935400	0.781200	0.867000
C991	C99	0.860400	0.867600	0.882400
C1001	C100	0.685100	0.811200	0.875400
C1011	C101	0.584600	0.975200	0.863800
C1021	C102	0.511900	0.026200	0.893000
C1031	C103	0.546100	0.889200	0.935100
C1041	C104	0.546500	0.807400	0.975300
N11	N1	0.623700	0.366600	0.185700
N21	N2	0.426600	0.248000	0.142200
N31	N3	0.718800	0.111400	0.109600
N41	N4	0.514700	0.027600	0.062640
N51	N5	0.376300	0.633400	0.685700
N61	N6	0.573400	0.752000	0.642200
N71	N7	0.281200	0.888600	0.609600
N81	N8	0.485300	0.972400	0.562640
N91	N9	0.742900	0.366600	0.314300
N101	N10	0.821400	0.248000	0.357800
N111	N11	0.392600	0.111400	0.390400
N121	N12	0.512900	0.027600	0.437360
N131	N13	0.257100	0.633400	0.814300
N141	N14	0.178600	0.752000	0.857800
N151	N15	0.607400	0.888600	0.890400
N161	N16	0.487100	0.972400	0.937360
O11	O1	0.656300	0.805400	0.502800
O21	O2	0.786300	0.925400	0.444700
O31	O3	0.118500	0.558600	0.441880
O41	O4	0.698600	0.619800	0.308000
O51	O5	0.502200	0.502800	0.261900
O61	O6	0.343700	0.194600	0.002800
O71	O7	0.213700	0.074600	0.944700
O81	O8	0.881500	0.441400	0.941880
O91	O9	0.301400	0.380200	0.808000
O101	O10	0.497800	0.497200	0.761900
O111	O11	0.149100	0.805400	0.997200
O121	O12	0.139100	0.925400	0.055300
O131	O13	0.440100	0.558600	0.058120
O141	O14	0.921200	0.619800	0.192000
O151	O15	0.000600	0.502800	0.238100
O161	O16	0.850900	0.194600	0.497200
O171	O17	0.860900	0.074600	0.555300
O181	O18	0.559900	0.441400	0.558120
O191	O19	0.078800	0.380200	0.692000
O201	O20	0.999400	0.497200	0.738100
