data_MUVHAN_freeONLY_PM
_symmetry_space_group_name_H-M	'P1'
_cell_length_a	11.434100
_cell_length_b	12.579100
_cell_length_c	14.775900
_cell_angle_alpha	90.000000
_cell_angle_beta	90.000000
_cell_angle_gamma	90.000000
_symmetry_Int_Tables_number 1

loop_
_symmetry_equiv_pos_as_xyz
'x,y,z'

loop_
_atom_site_label
_atom_site_type_symbol
_atom_site_fract_x
_atom_site_fract_y
_atom_site_fract_z
Zn11	Zn1	0.500000	0.500000	0.250000
Zn21	Zn2	0.500000	0.500000	0.750000
H11	H1	0.696700	0.217900	0.136100
H21	H2	0.828600	0.079100	0.135900
H31	H3	0.910600	0.344400	0.280400
H41	H4	0.709300	0.349600	0.280800
H51	H5	0.303300	0.782100	0.136100
H61	H6	0.171400	0.920900	0.135900
H71	H7	0.089400	0.655600	0.280400
H81	H8	0.290700	0.650400	0.280800
H91	H9	0.303300	0.217900	0.363900
H101	H10	0.171400	0.079100	0.364100
H111	H11	0.089400	0.344400	0.219600
H121	H12	0.290700	0.349600	0.219200
H131	H13	0.696700	0.782100	0.363900
H141	H14	0.828600	0.920900	0.364100
H151	H15	0.910600	0.655600	0.219600
H161	H16	0.709300	0.650400	0.219200
H171	H17	0.303300	0.782100	0.863900
H181	H18	0.171400	0.920900	0.864100
H191	H19	0.089400	0.655600	0.719600
H201	H20	0.290700	0.650400	0.719200
H211	H21	0.696700	0.217900	0.863900
H221	H22	0.828600	0.079100	0.864100
H231	H23	0.910600	0.344400	0.719600
H241	H24	0.709300	0.349600	0.719200
H251	H25	0.696700	0.782100	0.636100
H261	H26	0.828600	0.920900	0.635900
H271	H27	0.910600	0.655600	0.780400
H281	H28	0.709300	0.650400	0.780800
H291	H29	0.303300	0.217900	0.636100
H301	H30	0.171400	0.079100	0.635900
H311	H31	0.089400	0.344400	0.780400
H321	H32	0.290700	0.349600	0.780800
C11	C1	0.871860	0.407780	0.268130
C21	C2	0.750220	0.411680	0.267990
C31	C3	0.538420	0.348990	0.080350
C41	C4	0.720700	0.188900	0.081330
C51	C5	0.801400	0.106600	0.081430
C61	C6	0.921400	0.909300	0.081000
C71	C7	0.128140	0.592220	0.268130
C81	C8	0.249780	0.588320	0.267990
C91	C9	0.461580	0.651010	0.080350
C101	C10	0.279300	0.811100	0.081330
C111	C11	0.198600	0.893400	0.081430
C121	C12	0.078600	0.090700	0.081000
C131	C13	0.128140	0.407780	0.231870
C141	C14	0.249780	0.411680	0.232010
C151	C15	0.461580	0.348990	0.419650
C161	C16	0.279300	0.188900	0.418670
C171	C17	0.198600	0.106600	0.418570
C181	C18	0.078600	0.909300	0.419000
C191	C19	0.871860	0.592220	0.231870
C201	C20	0.750220	0.588320	0.232010
C211	C21	0.538420	0.651010	0.419650
C221	C22	0.720700	0.811100	0.418670
C231	C23	0.801400	0.893400	0.418570
C241	C24	0.921400	0.090700	0.419000
C251	C25	0.128140	0.592220	0.731870
C261	C26	0.249780	0.588320	0.732010
C271	C27	0.461580	0.651010	0.919650
C281	C28	0.279300	0.811100	0.918670
C291	C29	0.198600	0.893400	0.918570
C301	C30	0.078600	0.090700	0.919000
C311	C31	0.871860	0.407780	0.731870
C321	C32	0.750220	0.411680	0.732010
C331	C33	0.538420	0.348990	0.919650
C341	C34	0.720700	0.188900	0.918670
C351	C35	0.801400	0.106600	0.918570
C361	C36	0.921400	0.909300	0.919000
C371	C37	0.871860	0.592220	0.768130
C381	C38	0.750220	0.588320	0.767990
C391	C39	0.538420	0.651010	0.580350
C401	C40	0.720700	0.811100	0.581330
C411	C41	0.801400	0.893400	0.581430
C421	C42	0.921400	0.090700	0.581000
C431	C43	0.128140	0.407780	0.768130
C441	C44	0.249780	0.411680	0.767990
C451	C45	0.461580	0.348990	0.580350
C461	C46	0.279300	0.188900	0.581330
C471	C47	0.198600	0.106600	0.581430
C481	C48	0.078600	0.909300	0.581000
C491	C49	0.935100	0.500000	0.250000
C501	C50	0.064900	0.500000	0.250000
C511	C51	0.064900	0.500000	0.750000
C521	C52	0.935100	0.500000	0.750000
C531	C53	0.585200	0.310600	0.000000
C541	C54	0.676400	0.230000	0.000000
C551	C55	0.841700	0.064800	0.000000
C561	C56	0.934000	0.976400	0.000000
C571	C57	0.414800	0.689400	0.000000
C581	C58	0.323600	0.770000	0.000000
C591	C59	0.158300	0.935200	0.000000
C601	C60	0.066000	0.023600	0.000000
C611	C61	0.414800	0.310600	0.500000
C621	C62	0.323600	0.230000	0.500000
C631	C63	0.158300	0.064800	0.500000
C641	C64	0.066000	0.976400	0.500000
C651	C65	0.585200	0.689400	0.500000
C661	C66	0.676400	0.770000	0.500000
C671	C67	0.841700	0.935200	0.500000
C681	C68	0.934000	0.023600	0.500000
N11	N1	0.501010	0.379810	0.147650
N21	N2	0.910800	0.859200	0.144700
N31	N3	0.498990	0.620190	0.147650
N41	N4	0.089200	0.140800	0.144700
N51	N5	0.498990	0.379810	0.352350
N61	N6	0.089200	0.859200	0.355300
N71	N7	0.501010	0.620190	0.352350
N81	N8	0.910800	0.140800	0.355300
N91	N9	0.498990	0.620190	0.852350
N101	N10	0.089200	0.140800	0.855300
N111	N11	0.501010	0.379810	0.852350
N121	N12	0.910800	0.859200	0.855300
N131	N13	0.501010	0.620190	0.647650
N141	N14	0.910800	0.140800	0.644700
N151	N15	0.498990	0.379810	0.647650
N161	N16	0.089200	0.859200	0.644700
N171	N17	0.689700	0.500000	0.250000
N181	N18	0.310300	0.500000	0.250000
N191	N19	0.310300	0.500000	0.750000
N201	N20	0.689700	0.500000	0.750000
