data_MUWQEB_freeONLY_PM
_symmetry_space_group_name_H-M	'P1'
_cell_length_a	18.823500
_cell_length_b	18.823500
_cell_length_c	18.823500
_cell_angle_alpha	90.000000
_cell_angle_beta	90.000000
_cell_angle_gamma	90.000000
_symmetry_Int_Tables_number 1

loop_
_symmetry_equiv_pos_as_xyz
'x,y,z'

loop_
_atom_site_label
_atom_site_type_symbol
_atom_site_fract_x
_atom_site_fract_y
_atom_site_fract_z
Fe11	Fe1	0.140710	0.000000	0.500000
Fe21	Fe2	0.859290	0.000000	0.500000
Fe31	Fe3	0.500000	0.140710	0.000000
Fe41	Fe4	0.500000	0.859290	0.000000
Fe51	Fe5	0.000000	0.500000	0.140710
Fe61	Fe6	0.000000	0.500000	0.859290
Fe71	Fe7	0.000000	0.140710	0.500000
Fe81	Fe8	0.000000	0.859290	0.500000
Fe91	Fe9	0.140710	0.500000	0.000000
Fe101	Fe10	0.859290	0.500000	0.000000
Fe111	Fe11	0.500000	0.000000	0.859290
Fe121	Fe12	0.500000	0.000000	0.140710
H11	H1	0.108100	0.260700	0.739300
H21	H2	0.891900	0.739300	0.739300
H31	H3	0.891900	0.260700	0.260700
H41	H4	0.108100	0.739300	0.260700
H51	H5	0.739300	0.108100	0.260700
H61	H6	0.739300	0.891900	0.739300
H71	H7	0.260700	0.891900	0.260700
H81	H8	0.260700	0.108100	0.739300
H91	H9	0.260700	0.739300	0.108100
H101	H10	0.739300	0.739300	0.891900
H111	H11	0.260700	0.260700	0.891900
H121	H12	0.739300	0.260700	0.108100
H131	H13	0.260700	0.108100	0.260700
H141	H14	0.739300	0.891900	0.260700
H151	H15	0.260700	0.891900	0.739300
H161	H16	0.739300	0.108100	0.739300
H171	H17	0.108100	0.739300	0.739300
H181	H18	0.891900	0.739300	0.260700
H191	H19	0.891900	0.260700	0.739300
H201	H20	0.108100	0.260700	0.260700
H211	H21	0.739300	0.260700	0.891900
H221	H22	0.739300	0.739300	0.108100
H231	H23	0.260700	0.260700	0.108100
H241	H24	0.260700	0.739300	0.891900
C11	C1	0.149560	0.240310	0.759690
C21	C2	0.850440	0.759690	0.759690
C31	C3	0.850440	0.240310	0.240310
C41	C4	0.149560	0.759690	0.240310
C51	C5	0.759690	0.149560	0.240310
C61	C6	0.759690	0.850440	0.759690
C71	C7	0.240310	0.850440	0.240310
C81	C8	0.240310	0.149560	0.759690
C91	C9	0.240310	0.759690	0.149560
C101	C10	0.759690	0.759690	0.850440
C111	C11	0.240310	0.240310	0.850440
C121	C12	0.759690	0.240310	0.149560
C131	C13	0.240310	0.149560	0.240310
C141	C14	0.759690	0.850440	0.240310
C151	C15	0.240310	0.850440	0.759690
C161	C16	0.759690	0.149560	0.759690
C171	C17	0.149560	0.759690	0.759690
C181	C18	0.850440	0.759690	0.240310
C191	C19	0.850440	0.240310	0.759690
C201	C20	0.149560	0.240310	0.240310
C211	C21	0.759690	0.240310	0.850440
C221	C22	0.759690	0.759690	0.149560
C231	C23	0.240310	0.240310	0.149560
C241	C24	0.240310	0.759690	0.850440
C251	C25	0.148810	0.148810	0.665720
C261	C26	0.180030	0.180030	0.729420
C271	C27	0.851190	0.851190	0.665720
C281	C28	0.819970	0.819970	0.729420
C291	C29	0.851190	0.148810	0.334280
C301	C30	0.819970	0.180030	0.270580
C311	C31	0.148810	0.851190	0.334280
C321	C32	0.180030	0.819970	0.270580
C331	C33	0.665720	0.148810	0.148810
C341	C34	0.729420	0.180030	0.180030
C351	C35	0.665720	0.851190	0.851190
C361	C36	0.729420	0.819970	0.819970
C371	C37	0.334280	0.851190	0.148810
C381	C38	0.270580	0.819970	0.180030
C391	C39	0.334280	0.148810	0.851190
C401	C40	0.270580	0.180030	0.819970
C411	C41	0.148810	0.665720	0.148810
C421	C42	0.180030	0.729420	0.180030
C431	C43	0.851190	0.665720	0.851190
C441	C44	0.819970	0.729420	0.819970
C451	C45	0.148810	0.334280	0.851190
C461	C46	0.180030	0.270580	0.819970
C471	C47	0.851190	0.334280	0.148810
C481	C48	0.819970	0.270580	0.180030
C491	C49	0.148810	0.148810	0.334280
C501	C50	0.180030	0.180030	0.270580
C511	C51	0.851190	0.851190	0.334280
C521	C52	0.819970	0.819970	0.270580
C531	C53	0.148810	0.851190	0.665720
C541	C54	0.180030	0.819970	0.729420
C551	C55	0.851190	0.148810	0.665720
C561	C56	0.819970	0.180030	0.729420
C571	C57	0.148810	0.665720	0.851190
C581	C58	0.180030	0.729420	0.819970
C591	C59	0.851190	0.665720	0.148810
C601	C60	0.819970	0.729420	0.180030
C611	C61	0.851190	0.334280	0.851190
C621	C62	0.819970	0.270580	0.819970
C631	C63	0.148810	0.334280	0.148810
C641	C64	0.180030	0.270580	0.180030
C651	C65	0.665720	0.148810	0.851190
C661	C66	0.729420	0.180030	0.819970
C671	C67	0.665720	0.851190	0.148810
C681	C68	0.729420	0.819970	0.180030
C691	C69	0.334280	0.148810	0.148810
C701	C70	0.270580	0.180030	0.180030
C711	C71	0.334280	0.851190	0.851190
C721	C72	0.270580	0.819970	0.819970
N11	N1	0.130830	0.081290	0.578310
N21	N2	0.174580	0.091250	0.633330
N31	N3	0.869170	0.918710	0.578310
N41	N4	0.825420	0.908750	0.633330
N51	N5	0.869170	0.081290	0.421690
N61	N6	0.825420	0.091250	0.366670
N71	N7	0.130830	0.918710	0.421690
N81	N8	0.174580	0.908750	0.366670
N91	N9	0.578310	0.130830	0.081290
N101	N10	0.633330	0.174580	0.091250
N111	N11	0.578310	0.869170	0.918710
N121	N12	0.633330	0.825420	0.908750
N131	N13	0.421690	0.869170	0.081290
N141	N14	0.366670	0.825420	0.091250
N151	N15	0.421690	0.130830	0.918710
N161	N16	0.366670	0.174580	0.908750
N171	N17	0.081290	0.578310	0.130830
N181	N18	0.091250	0.633330	0.174580
N191	N19	0.918710	0.578310	0.869170
N201	N20	0.908750	0.633330	0.825420
N211	N21	0.081290	0.421690	0.869170
N221	N22	0.091250	0.366670	0.825420
N231	N23	0.918710	0.421690	0.130830
N241	N24	0.908750	0.366670	0.174580
N251	N25	0.081290	0.130830	0.421690
N261	N26	0.091250	0.174580	0.366670
N271	N27	0.918710	0.869170	0.421690
N281	N28	0.908750	0.825420	0.366670
N291	N29	0.081290	0.869170	0.578310
N301	N30	0.091250	0.825420	0.633330
N311	N31	0.918710	0.130830	0.578310
N321	N32	0.908750	0.174580	0.633330
N331	N33	0.130830	0.578310	0.918710
N341	N34	0.174580	0.633330	0.908750
N351	N35	0.869170	0.578310	0.081290
N361	N36	0.825420	0.633330	0.091250
N371	N37	0.869170	0.421690	0.918710
N381	N38	0.825420	0.366670	0.908750
N391	N39	0.130830	0.421690	0.081290
N401	N40	0.174580	0.366670	0.091250
N411	N41	0.578310	0.081290	0.869170
N421	N42	0.633330	0.091250	0.825420
N431	N43	0.578310	0.918710	0.130830
N441	N44	0.633330	0.908750	0.174580
N451	N45	0.421690	0.081290	0.130830
N461	N46	0.366670	0.091250	0.174580
N471	N47	0.421690	0.918710	0.869170
N481	N48	0.366670	0.908750	0.825420
N491	N49	0.869170	0.918710	0.421690
N501	N50	0.825420	0.908750	0.366670
N511	N51	0.130830	0.081290	0.421690
N521	N52	0.174580	0.091250	0.366670
N531	N53	0.130830	0.918710	0.578310
N541	N54	0.174580	0.908750	0.633330
N551	N55	0.869170	0.081290	0.578310
N561	N56	0.825420	0.091250	0.633330
N571	N57	0.421690	0.869170	0.918710
N581	N58	0.366670	0.825420	0.908750
N591	N59	0.421690	0.130830	0.081290
N601	N60	0.366670	0.174580	0.091250
N611	N61	0.578310	0.130830	0.918710
N621	N62	0.633330	0.174580	0.908750
N631	N63	0.578310	0.869170	0.081290
N641	N64	0.633330	0.825420	0.091250
N651	N65	0.918710	0.421690	0.869170
N661	N66	0.908750	0.366670	0.825420
N671	N67	0.081290	0.421690	0.130830
N681	N68	0.091250	0.366670	0.174580
N691	N69	0.918710	0.578310	0.130830
N701	N70	0.908750	0.633330	0.174580
N711	N71	0.081290	0.578310	0.869170
N721	N72	0.091250	0.633330	0.825420
N731	N73	0.918710	0.869170	0.578310
N741	N74	0.908750	0.825420	0.633330
N751	N75	0.081290	0.130830	0.578310
N761	N76	0.091250	0.174580	0.633330
N771	N77	0.918710	0.130830	0.421690
N781	N78	0.908750	0.174580	0.366670
N791	N79	0.081290	0.869170	0.421690
N801	N80	0.091250	0.825420	0.366670
N811	N81	0.869170	0.421690	0.081290
N821	N82	0.825420	0.366670	0.091250
N831	N83	0.130830	0.421690	0.918710
N841	N84	0.174580	0.366670	0.908750
N851	N85	0.130830	0.578310	0.081290
N861	N86	0.174580	0.633330	0.091250
N871	N87	0.869170	0.578310	0.918710
N881	N88	0.825420	0.633330	0.908750
N891	N89	0.421690	0.918710	0.130830
N901	N90	0.366670	0.908750	0.174580
N911	N91	0.421690	0.081290	0.869170
N921	N92	0.366670	0.091250	0.825420
N931	N93	0.578310	0.918710	0.869170
N941	N94	0.633330	0.908750	0.825420
N951	N95	0.578310	0.081290	0.130830
N961	N96	0.633330	0.091250	0.174580
O11	O1	0.249800	0.000000	0.500000
O21	O2	0.750200	0.000000	0.500000
O31	O3	0.500000	0.249800	0.000000
O41	O4	0.500000	0.750200	0.000000
O51	O5	0.000000	0.500000	0.249800
O61	O6	0.000000	0.500000	0.750200
O71	O7	0.000000	0.249800	0.500000
O81	O8	0.000000	0.750200	0.500000
O91	O9	0.249800	0.500000	0.000000
O101	O10	0.750200	0.500000	0.000000
O111	O11	0.500000	0.000000	0.750200
O121	O12	0.500000	0.000000	0.249800
