data_MUZHUL_charged_PM
_symmetry_space_group_name_H-M	'P1'
_cell_length_a	7.356200
_cell_length_b	7.356200
_cell_length_c	16.300000
_cell_angle_alpha	90.756800
_cell_angle_beta	90.756800
_cell_angle_gamma	95.901100
_symmetry_Int_Tables_number 1

loop_
_symmetry_equiv_pos_as_xyz
'x,y,z'

loop_
_atom_site_label
_atom_site_type_symbol
_atom_site_fract_x
_atom_site_fract_y
_atom_site_fract_z
Zn11	Zn1	0.979580	0.020420	0.750000
Zn21	Zn2	0.020420	0.979580	0.250000
H11	H1	0.814400	0.037800	0.011400
H21	H2	0.962200	0.185600	0.488600
H31	H3	0.185600	0.962200	0.988600
H41	H4	0.037800	0.814400	0.511400
C11	C1	0.605100	0.035700	0.930100
C21	C2	0.416300	0.013700	0.922700
C31	C3	0.687600	0.022400	0.006800
C41	C4	0.732700	0.065500	0.858500
C51	C5	0.318600	0.033400	0.841500
C61	C6	0.964300	0.394900	0.569900
C71	C7	0.986300	0.583700	0.577300
C81	C8	0.977600	0.312400	0.493200
C91	C9	0.934500	0.267300	0.641500
C101	C10	0.966600	0.681400	0.658500
C111	C11	0.394900	0.964300	0.069900
C121	C12	0.583700	0.986300	0.077300
C131	C13	0.312400	0.977600	0.993200
C141	C14	0.267300	0.934500	0.141500
C151	C15	0.681400	0.966600	0.158500
C161	C16	0.035700	0.605100	0.430100
C171	C17	0.013700	0.416300	0.422700
C181	C18	0.022400	0.687600	0.506800
C191	C19	0.065500	0.732700	0.358500
C201	C20	0.033400	0.318600	0.341500
O11	O1	0.154100	0.972700	0.838100
O21	O2	0.757900	0.930100	0.814500
O31	O3	0.817100	0.215700	0.849800
O41	O4	0.404900	0.109300	0.785800
O51	O5	0.027300	0.845900	0.661900
O61	O6	0.069900	0.242100	0.685500
O71	O7	0.784300	0.182900	0.650200
O81	O8	0.890700	0.595100	0.714200
O91	O9	0.845900	0.027300	0.161900
O101	O10	0.242100	0.069900	0.185500
O111	O11	0.182900	0.784300	0.150200
O121	O12	0.595100	0.890700	0.214200
O131	O13	0.972700	0.154100	0.338100
O141	O14	0.930100	0.757900	0.314500
O151	O15	0.215700	0.817100	0.349800
O161	O16	0.109300	0.404900	0.285800
