data_MUZRIJ_freeONLY_PM
_symmetry_space_group_name_H-M	'P1'
_cell_length_a	18.853000
_cell_length_b	18.853000
_cell_length_c	20.639000
_cell_angle_alpha	90.000000
_cell_angle_beta	90.000000
_cell_angle_gamma	90.000000
_symmetry_Int_Tables_number 1

loop_
_symmetry_equiv_pos_as_xyz
'x,y,z'

loop_
_atom_site_label
_atom_site_type_symbol
_atom_site_fract_x
_atom_site_fract_y
_atom_site_fract_z
Cu11	Cu1	0.718490	0.071890	0.647760
Cu21	Cu2	0.637810	0.198340	0.731510
Cu31	Cu3	0.566220	0.146250	0.595610
O11	O1	0.626600	0.117500	0.670500
H11	H1	0.599300	0.081500	0.694000
N11	N1	0.749500	0.095000	0.733700
N21	N2	0.720000	0.147600	0.766600
C11	C1	0.749000	0.153200	0.825700
H21	H2	0.737600	0.187600	0.856200
C21	C2	0.798800	0.099600	0.834400
H31	H3	0.826400	0.090100	0.870800
C31	C3	0.797500	0.065900	0.779000
H41	H4	0.825500	0.026400	0.770300
N31	N3	0.541900	0.229000	0.711100
N41	N4	0.507800	0.199900	0.659000
C41	C4	0.445100	0.223000	0.658600
H51	H5	0.413200	0.214200	0.625200
C51	C5	0.428400	0.263100	0.713400
H61	H6	0.385500	0.283100	0.726100
C61	C6	0.491600	0.264700	0.742500
H71	H7	0.499800	0.288500	0.781200
N51	N5	0.627900	0.089900	0.538300
N61	N6	0.685400	0.061000	0.558700
C71	C7	0.714400	0.022000	0.510300
H81	H8	0.755200	0.994500	0.513600
C81	C8	0.674200	0.029500	0.456800
H91	H9	0.681400	0.008800	0.416500
C91	C9	0.618100	0.076300	0.475600
H101	H10	0.582100	0.093700	0.449300
N71	N7	0.664900	0.282300	0.788600
C101	C10	0.727100	0.318400	0.774000
H111	H11	0.749100	0.311500	0.734100
C111	C11	0.756600	0.364700	0.818900
H121	H12	0.798300	0.388900	0.809000
C121	C12	0.723900	0.375000	0.878500
C131	C13	0.661600	0.338900	0.893200
H131	H13	0.639700	0.345800	0.933000
C141	C14	0.632100	0.292600	0.848200
H141	H14	0.590500	0.268400	0.858100
C151	C15	0.758400	0.417600	0.929100
C161	C16	0.715900	0.464500	0.963700
H151	H15	0.667500	0.466900	0.955100
C171	C17	0.745600	0.507600	0.011100
H161	H16	0.717100	0.538900	0.034200
N81	N8	0.817800	0.503900	0.023900
C181	C18	0.860400	0.457100	0.989300
H171	H17	0.908800	0.454700	0.997900
C191	C19	0.830700	0.414000	0.942000
H181	H18	0.859200	0.382700	0.918800
N91	N9	0.816800	0.039400	0.626700
C201	C20	0.864600	0.092200	0.609400
H191	H19	0.848400	0.137600	0.599900
C211	C21	0.936700	0.077100	0.606200
H201	H20	0.968700	0.112400	0.594600
C221	C22	0.960900	0.009200	0.620300
C231	C23	0.913100	0.956400	0.637600
H211	H21	0.929300	0.911000	0.647100
C241	C24	0.841000	0.971500	0.640800
H221	H22	0.809000	0.936200	0.652400
Cu41	Cu4	0.281510	0.928110	0.647760
Cu51	Cu5	0.362190	0.801660	0.731510
Cu61	Cu6	0.433780	0.853750	0.595610
O21	O2	0.373400	0.882500	0.670500
H231	H23	0.400700	0.918500	0.694000
N101	N10	0.250500	0.905000	0.733700
N111	N11	0.280000	0.852400	0.766600
C251	C25	0.251000	0.846800	0.825700
H241	H24	0.262400	0.812400	0.856200
C261	C26	0.201200	0.900400	0.834400
H251	H25	0.173600	0.909900	0.870800
C271	C27	0.202500	0.934100	0.779000
H261	H26	0.174500	0.973600	0.770300
N121	N12	0.458100	0.771000	0.711100
N131	N13	0.492200	0.800100	0.659000
C281	C28	0.554900	0.777000	0.658600
H271	H27	0.586800	0.785800	0.625200
C291	C29	0.571600	0.736900	0.713400
H281	H28	0.614500	0.716900	0.726100
C301	C30	0.508400	0.735300	0.742500
H291	H29	0.500200	0.711500	0.781200
N141	N14	0.372100	0.910100	0.538300
N151	N15	0.314600	0.939000	0.558700
C311	C31	0.285600	0.978000	0.510300
H301	H30	0.244800	0.005500	0.513600
C321	C32	0.325800	0.970500	0.456800
H311	H31	0.318600	0.991200	0.416500
C331	C33	0.381900	0.923700	0.475600
H321	H32	0.417900	0.906300	0.449300
N161	N16	0.335100	0.717700	0.788600
C341	C34	0.272900	0.681600	0.774000
H331	H33	0.250900	0.688500	0.734100
C351	C35	0.243400	0.635300	0.818900
H341	H34	0.201700	0.611100	0.809000
C361	C36	0.276100	0.625000	0.878500
C371	C37	0.338400	0.661100	0.893200
H351	H35	0.360300	0.654200	0.933000
C381	C38	0.367900	0.707400	0.848200
H361	H36	0.409500	0.731600	0.858100
C391	C39	0.241600	0.582400	0.929100
C401	C40	0.284100	0.535500	0.963700
H371	H37	0.332500	0.533100	0.955100
C411	C41	0.254400	0.492400	0.011100
H381	H38	0.282900	0.461100	0.034200
N171	N17	0.182200	0.496100	0.023900
C421	C42	0.139600	0.542900	0.989300
H391	H39	0.091200	0.545300	0.997900
C431	C43	0.169300	0.586000	0.942000
H401	H40	0.140800	0.617300	0.918800
N181	N18	0.183200	0.960600	0.626700
C441	C44	0.135400	0.907800	0.609400
H411	H41	0.151600	0.862400	0.599900
C451	C45	0.063300	0.922900	0.606200
H421	H42	0.031300	0.887600	0.594600
C461	C46	0.039100	0.990800	0.620300
C471	C47	0.086900	0.043600	0.637600
H431	H43	0.070700	0.089000	0.647100
C481	C48	0.159000	0.028500	0.640800
H441	H44	0.191000	0.063800	0.652400
Cu71	Cu7	0.928110	0.718490	0.147760
Cu81	Cu8	0.801660	0.637810	0.231510
Cu91	Cu9	0.853750	0.566220	0.095610
O31	O3	0.882500	0.626600	0.170500
H451	H45	0.918500	0.599300	0.194000
N191	N19	0.905000	0.749500	0.233700
N201	N20	0.852400	0.720000	0.266600
C491	C49	0.846800	0.749000	0.325700
H461	H46	0.812400	0.737600	0.356200
C501	C50	0.900400	0.798800	0.334400
H471	H47	0.909900	0.826400	0.370800
C511	C51	0.934100	0.797500	0.279000
H481	H48	0.973600	0.825500	0.270300
N211	N21	0.771000	0.541900	0.211100
N221	N22	0.800100	0.507800	0.159000
C521	C52	0.777000	0.445100	0.158600
H491	H49	0.785800	0.413200	0.125200
C531	C53	0.736900	0.428400	0.213400
H501	H50	0.716900	0.385500	0.226100
C541	C54	0.735300	0.491600	0.242500
H511	H51	0.711500	0.499800	0.281200
N231	N23	0.910100	0.627900	0.038300
N241	N24	0.939000	0.685400	0.058700
C551	C55	0.978000	0.714400	0.010300
H521	H52	0.005500	0.755200	0.013600
C561	C56	0.970500	0.674200	0.956800
H531	H53	0.991200	0.681400	0.916500
C571	C57	0.923700	0.618100	0.975600
H541	H54	0.906300	0.582100	0.949300
N251	N25	0.717700	0.664900	0.288600
C581	C58	0.681600	0.727100	0.274000
H551	H55	0.688500	0.749100	0.234100
C591	C59	0.635300	0.756600	0.318900
H561	H56	0.611100	0.798300	0.309000
C601	C60	0.625000	0.723900	0.378500
C611	C61	0.661100	0.661600	0.393200
H571	H57	0.654200	0.639700	0.433000
C621	C62	0.707400	0.632100	0.348200
H581	H58	0.731600	0.590500	0.358100
C631	C63	0.582400	0.758400	0.429100
C641	C64	0.535500	0.715900	0.463700
H591	H59	0.533100	0.667500	0.455100
C651	C65	0.492400	0.745600	0.511100
H601	H60	0.461100	0.717100	0.534200
N261	N26	0.496100	0.817800	0.523900
C661	C66	0.542900	0.860400	0.489300
H611	H61	0.545300	0.908800	0.497900
C671	C67	0.586000	0.830700	0.442000
H621	H62	0.617300	0.859200	0.418800
N271	N27	0.960600	0.816800	0.126700
C681	C68	0.907800	0.864600	0.109400
H631	H63	0.862400	0.848400	0.099900
C691	C69	0.922900	0.936700	0.106200
H641	H64	0.887600	0.968700	0.094600
C701	C70	0.990800	0.960900	0.120300
C711	C71	0.043600	0.913100	0.137600
H651	H65	0.089000	0.929300	0.147100
C721	C72	0.028500	0.841000	0.140800
H661	H66	0.063800	0.809000	0.152400
Cu101	Cu10	0.071890	0.281510	0.147760
Cu111	Cu11	0.198340	0.362190	0.231510
Cu121	Cu12	0.146250	0.433780	0.095610
O41	O4	0.117500	0.373400	0.170500
H671	H67	0.081500	0.400700	0.194000
N281	N28	0.095000	0.250500	0.233700
N291	N29	0.147600	0.280000	0.266600
C731	C73	0.153200	0.251000	0.325700
H681	H68	0.187600	0.262400	0.356200
C741	C74	0.099600	0.201200	0.334400
H691	H69	0.090100	0.173600	0.370800
C751	C75	0.065900	0.202500	0.279000
H701	H70	0.026400	0.174500	0.270300
N301	N30	0.229000	0.458100	0.211100
N311	N31	0.199900	0.492200	0.159000
C761	C76	0.223000	0.554900	0.158600
H711	H71	0.214200	0.586800	0.125200
C771	C77	0.263100	0.571600	0.213400
H721	H72	0.283100	0.614500	0.226100
C781	C78	0.264700	0.508400	0.242500
H731	H73	0.288500	0.500200	0.281200
N321	N32	0.089900	0.372100	0.038300
N331	N33	0.061000	0.314600	0.058700
C791	C79	0.022000	0.285600	0.010300
H741	H74	0.994500	0.244800	0.013600
C801	C80	0.029500	0.325800	0.956800
H751	H75	0.008800	0.318600	0.916500
C811	C81	0.076300	0.381900	0.975600
H761	H76	0.093700	0.417900	0.949300
N341	N34	0.282300	0.335100	0.288600
C821	C82	0.318400	0.272900	0.274000
H771	H77	0.311500	0.250900	0.234100
C831	C83	0.364700	0.243400	0.318900
H781	H78	0.388900	0.201700	0.309000
C841	C84	0.375000	0.276100	0.378500
C851	C85	0.338900	0.338400	0.393200
H791	H79	0.345800	0.360300	0.433000
C861	C86	0.292600	0.367900	0.348200
H801	H80	0.268400	0.409500	0.358100
C871	C87	0.417600	0.241600	0.429100
C881	C88	0.464500	0.284100	0.463700
H811	H81	0.466900	0.332500	0.455100
C891	C89	0.507600	0.254400	0.511100
H821	H82	0.538900	0.282900	0.534200
N351	N35	0.503900	0.182200	0.523900
C901	C90	0.457100	0.139600	0.489300
H831	H83	0.454700	0.091200	0.497900
C911	C91	0.414000	0.169300	0.442000
H841	H84	0.382700	0.140800	0.418800
N361	N36	0.039400	0.183200	0.126700
C921	C92	0.092200	0.135400	0.109400
H851	H85	0.137600	0.151600	0.099900
C931	C93	0.077100	0.063300	0.106200
H861	H86	0.112400	0.031300	0.094600
C941	C94	0.009200	0.039100	0.120300
C951	C95	0.956400	0.086900	0.137600
H871	H87	0.911000	0.070700	0.147100
C961	C96	0.971500	0.159000	0.140800
H881	H88	0.936200	0.191000	0.152400
Cu131	Cu13	0.218490	0.428110	0.647760
Cu141	Cu14	0.137810	0.301660	0.731510
Cu151	Cu15	0.066220	0.353750	0.595610
O51	O5	0.126600	0.382500	0.670500
H891	H89	0.099300	0.418500	0.694000
N371	N37	0.249500	0.405000	0.733700
N381	N38	0.220000	0.352400	0.766600
C971	C97	0.249000	0.346800	0.825700
H901	H90	0.237600	0.312400	0.856200
C981	C98	0.298800	0.400400	0.834400
H911	H91	0.326400	0.409900	0.870800
C991	C99	0.297500	0.434100	0.779000
H921	H92	0.325500	0.473600	0.770300
N391	N39	0.041900	0.271000	0.711100
N401	N40	0.007800	0.300100	0.659000
C1001	C100	0.945100	0.277000	0.658600
H931	H93	0.913200	0.285800	0.625200
C1011	C101	0.928400	0.236900	0.713400
H941	H94	0.885500	0.216900	0.726100
C1021	C102	0.991600	0.235300	0.742500
H951	H95	0.999800	0.211500	0.781200
N411	N41	0.127900	0.410100	0.538300
N421	N42	0.185400	0.439000	0.558700
C1031	C103	0.214400	0.478000	0.510300
H961	H96	0.255200	0.505500	0.513600
C1041	C104	0.174200	0.470500	0.456800
H971	H97	0.181400	0.491200	0.416500
C1051	C105	0.118100	0.423700	0.475600
H981	H98	0.082100	0.406300	0.449300
N431	N43	0.164900	0.217700	0.788600
C1061	C106	0.227100	0.181600	0.774000
H991	H99	0.249100	0.188500	0.734100
C1071	C107	0.256600	0.135300	0.818900
H1001	H100	0.298300	0.111100	0.809000
C1081	C108	0.223900	0.125000	0.878500
C1091	C109	0.161600	0.161100	0.893200
H1011	H101	0.139700	0.154200	0.933000
C1101	C110	0.132100	0.207400	0.848200
H1021	H102	0.090500	0.231600	0.858100
C1111	C111	0.258400	0.082400	0.929100
C1121	C112	0.215900	0.035500	0.963700
H1031	H103	0.167500	0.033100	0.955100
C1131	C113	0.245600	0.992400	0.011100
H1041	H104	0.217100	0.961100	0.034200
N441	N44	0.317800	0.996100	0.023900
C1141	C114	0.360400	0.042900	0.989300
H1051	H105	0.408800	0.045300	0.997900
C1151	C115	0.330700	0.086000	0.942000
H1061	H106	0.359200	0.117300	0.918800
N451	N45	0.316800	0.460600	0.626700
C1161	C116	0.364600	0.407800	0.609400
H1071	H107	0.348400	0.362400	0.599900
C1171	C117	0.436700	0.422900	0.606200
H1081	H108	0.468700	0.387600	0.594600
C1181	C118	0.460900	0.490800	0.620300
C1191	C119	0.413100	0.543600	0.637600
H1091	H109	0.429300	0.589000	0.647100
C1201	C120	0.341000	0.528500	0.640800
H1101	H110	0.309000	0.563800	0.652400
Cu161	Cu16	0.781510	0.571890	0.647760
Cu171	Cu17	0.862190	0.698340	0.731510
Cu181	Cu18	0.933780	0.646250	0.595610
O61	O6	0.873400	0.617500	0.670500
H1111	H111	0.900700	0.581500	0.694000
N461	N46	0.750500	0.595000	0.733700
N471	N47	0.780000	0.647600	0.766600
C1211	C121	0.751000	0.653200	0.825700
H1121	H112	0.762400	0.687600	0.856200
C1221	C122	0.701200	0.599600	0.834400
H1131	H113	0.673600	0.590100	0.870800
C1231	C123	0.702500	0.565900	0.779000
H1141	H114	0.674500	0.526400	0.770300
N481	N48	0.958100	0.729000	0.711100
N491	N49	0.992200	0.699900	0.659000
C1241	C124	0.054900	0.723000	0.658600
H1151	H115	0.086800	0.714200	0.625200
C1251	C125	0.071600	0.763100	0.713400
H1161	H116	0.114500	0.783100	0.726100
C1261	C126	0.008400	0.764700	0.742500
H1171	H117	0.000200	0.788500	0.781200
N501	N50	0.872100	0.589900	0.538300
N511	N51	0.814600	0.561000	0.558700
C1271	C127	0.785600	0.522000	0.510300
H1181	H118	0.744800	0.494500	0.513600
C1281	C128	0.825800	0.529500	0.456800
H1191	H119	0.818600	0.508800	0.416500
C1291	C129	0.881900	0.576300	0.475600
H1201	H120	0.917900	0.593700	0.449300
N521	N52	0.835100	0.782300	0.788600
C1301	C130	0.772900	0.818400	0.774000
H1211	H121	0.750900	0.811500	0.734100
C1311	C131	0.743400	0.864700	0.818900
H1221	H122	0.701700	0.888900	0.809000
C1321	C132	0.776100	0.875000	0.878500
C1331	C133	0.838400	0.838900	0.893200
H1231	H123	0.860300	0.845800	0.933000
C1341	C134	0.867900	0.792600	0.848200
H1241	H124	0.909500	0.768400	0.858100
C1351	C135	0.741600	0.917600	0.929100
C1361	C136	0.784100	0.964500	0.963700
H1251	H125	0.832500	0.966900	0.955100
C1371	C137	0.754400	0.007600	0.011100
H1261	H126	0.782900	0.038900	0.034200
N531	N53	0.682200	0.003900	0.023900
C1381	C138	0.639600	0.957100	0.989300
H1271	H127	0.591200	0.954700	0.997900
C1391	C139	0.669300	0.914000	0.942000
H1281	H128	0.640800	0.882700	0.918800
N541	N54	0.683200	0.539400	0.626700
C1401	C140	0.635400	0.592200	0.609400
H1291	H129	0.651600	0.637600	0.599900
C1411	C141	0.563300	0.577100	0.606200
H1301	H130	0.531300	0.612400	0.594600
C1421	C142	0.539100	0.509200	0.620300
C1431	C143	0.586900	0.456400	0.637600
H1311	H131	0.570700	0.411000	0.647100
C1441	C144	0.659000	0.471500	0.640800
H1321	H132	0.691000	0.436200	0.652400
Cu191	Cu19	0.428110	0.781510	0.147760
Cu201	Cu20	0.301660	0.862190	0.231510
Cu211	Cu21	0.353750	0.933780	0.095610
O71	O7	0.382500	0.873400	0.170500
H1331	H133	0.418500	0.900700	0.194000
N551	N55	0.405000	0.750500	0.233700
N561	N56	0.352400	0.780000	0.266600
C1451	C145	0.346800	0.751000	0.325700
H1341	H134	0.312400	0.762400	0.356200
C1461	C146	0.400400	0.701200	0.334400
H1351	H135	0.409900	0.673600	0.370800
C1471	C147	0.434100	0.702500	0.279000
H1361	H136	0.473600	0.674500	0.270300
N571	N57	0.271000	0.958100	0.211100
N581	N58	0.300100	0.992200	0.159000
C1481	C148	0.277000	0.054900	0.158600
H1371	H137	0.285800	0.086800	0.125200
C1491	C149	0.236900	0.071600	0.213400
H1381	H138	0.216900	0.114500	0.226100
C1501	C150	0.235300	0.008400	0.242500
H1391	H139	0.211500	0.000200	0.281200
N591	N59	0.410100	0.872100	0.038300
N601	N60	0.439000	0.814600	0.058700
C1511	C151	0.478000	0.785600	0.010300
H1401	H140	0.505500	0.744800	0.013600
C1521	C152	0.470500	0.825800	0.956800
H1411	H141	0.491200	0.818600	0.916500
C1531	C153	0.423700	0.881900	0.975600
H1421	H142	0.406300	0.917900	0.949300
N611	N61	0.217700	0.835100	0.288600
C1541	C154	0.181600	0.772900	0.274000
H1431	H143	0.188500	0.750900	0.234100
C1551	C155	0.135300	0.743400	0.318900
H1441	H144	0.111100	0.701700	0.309000
C1561	C156	0.125000	0.776100	0.378500
C1571	C157	0.161100	0.838400	0.393200
H1451	H145	0.154200	0.860300	0.433000
C1581	C158	0.207400	0.867900	0.348200
H1461	H146	0.231600	0.909500	0.358100
C1591	C159	0.082400	0.741600	0.429100
C1601	C160	0.035500	0.784100	0.463700
H1471	H147	0.033100	0.832500	0.455100
C1611	C161	0.992400	0.754400	0.511100
H1481	H148	0.961100	0.782900	0.534200
N621	N62	0.996100	0.682200	0.523900
C1621	C162	0.042900	0.639600	0.489300
H1491	H149	0.045300	0.591200	0.497900
C1631	C163	0.086000	0.669300	0.442000
H1501	H150	0.117300	0.640800	0.418800
N631	N63	0.460600	0.683200	0.126700
C1641	C164	0.407800	0.635400	0.109400
H1511	H151	0.362400	0.651600	0.099900
C1651	C165	0.422900	0.563300	0.106200
H1521	H152	0.387600	0.531300	0.094600
C1661	C166	0.490800	0.539100	0.120300
C1671	C167	0.543600	0.586900	0.137600
H1531	H153	0.589000	0.570700	0.147100
C1681	C168	0.528500	0.659000	0.140800
H1541	H154	0.563800	0.691000	0.152400
Cu221	Cu22	0.571890	0.218490	0.147760
Cu231	Cu23	0.698340	0.137810	0.231510
Cu241	Cu24	0.646250	0.066220	0.095610
O81	O8	0.617500	0.126600	0.170500
H1551	H155	0.581500	0.099300	0.194000
N641	N64	0.595000	0.249500	0.233700
N651	N65	0.647600	0.220000	0.266600
C1691	C169	0.653200	0.249000	0.325700
H1561	H156	0.687600	0.237600	0.356200
C1701	C170	0.599600	0.298800	0.334400
H1571	H157	0.590100	0.326400	0.370800
C1711	C171	0.565900	0.297500	0.279000
H1581	H158	0.526400	0.325500	0.270300
N661	N66	0.729000	0.041900	0.211100
N671	N67	0.699900	0.007800	0.159000
C1721	C172	0.723000	0.945100	0.158600
H1591	H159	0.714200	0.913200	0.125200
C1731	C173	0.763100	0.928400	0.213400
H1601	H160	0.783100	0.885500	0.226100
C1741	C174	0.764700	0.991600	0.242500
H1611	H161	0.788500	0.999800	0.281200
N681	N68	0.589900	0.127900	0.038300
N691	N69	0.561000	0.185400	0.058700
C1751	C175	0.522000	0.214400	0.010300
H1621	H162	0.494500	0.255200	0.013600
C1761	C176	0.529500	0.174200	0.956800
H1631	H163	0.508800	0.181400	0.916500
C1771	C177	0.576300	0.118100	0.975600
H1641	H164	0.593700	0.082100	0.949300
N701	N70	0.782300	0.164900	0.288600
C1781	C178	0.818400	0.227100	0.274000
H1651	H165	0.811500	0.249100	0.234100
C1791	C179	0.864700	0.256600	0.318900
H1661	H166	0.888900	0.298300	0.309000
C1801	C180	0.875000	0.223900	0.378500
C1811	C181	0.838900	0.161600	0.393200
H1671	H167	0.845800	0.139700	0.433000
C1821	C182	0.792600	0.132100	0.348200
H1681	H168	0.768400	0.090500	0.358100
C1831	C183	0.917600	0.258400	0.429100
C1841	C184	0.964500	0.215900	0.463700
H1691	H169	0.966900	0.167500	0.455100
C1851	C185	0.007600	0.245600	0.511100
H1701	H170	0.038900	0.217100	0.534200
N711	N71	0.003900	0.317800	0.523900
C1861	C186	0.957100	0.360400	0.489300
H1711	H171	0.954700	0.408800	0.497900
C1871	C187	0.914000	0.330700	0.442000
H1721	H172	0.882700	0.359200	0.418800
N721	N72	0.539400	0.316800	0.126700
C1881	C188	0.592200	0.364600	0.109400
H1731	H173	0.637600	0.348400	0.099900
C1891	C189	0.577100	0.436700	0.106200
H1741	H174	0.612400	0.468700	0.094600
C1901	C190	0.509200	0.460900	0.120300
C1911	C191	0.456400	0.413100	0.137600
H1751	H175	0.411000	0.429300	0.147100
C1921	C192	0.471500	0.341000	0.140800
H1761	H176	0.436200	0.309000	0.152400
