data_NABCEA_charged_PM
_symmetry_space_group_name_H-M	'P1'
_cell_length_a	10.659700
_cell_length_b	18.849500
_cell_length_c	39.755200
_cell_angle_alpha	90.000000
_cell_angle_beta	90.000000
_cell_angle_gamma	90.000000
_symmetry_Int_Tables_number 1

loop_
_symmetry_equiv_pos_as_xyz
'x,y,z'

loop_
_atom_site_label
_atom_site_type_symbol
_atom_site_fract_x
_atom_site_fract_y
_atom_site_fract_z
Zn11	Zn1	0.499520	0.474020	0.520620
Zn21	Zn2	0.699400	0.726020	0.771470
Zn31	Zn3	0.500480	0.525980	0.020620
Zn41	Zn4	0.300600	0.273980	0.271470
Zn51	Zn5	0.000480	0.974020	0.520620
Zn61	Zn6	0.800600	0.226020	0.771470
Zn71	Zn7	0.999520	0.025980	0.020620
Zn81	Zn8	0.199400	0.773980	0.271470
H11	H1	0.517600	0.499000	0.443300
H21	H2	0.565100	0.588300	0.405000
H31	H3	0.607900	0.721200	0.482600
H41	H4	0.570500	0.631000	0.519100
H51	H5	0.264400	0.676000	0.331400
H61	H6	0.416000	0.654300	0.368900
H71	H7	0.608100	0.821000	0.332800
H81	H8	0.441400	0.841000	0.296500
H91	H9	0.942600	0.702600	0.284300
H101	H10	0.785900	0.695600	0.322200
H111	H11	0.974100	0.833900	0.381200
H121	H12	0.140700	0.828000	0.342600
H131	H13	0.063200	0.832300	0.487500
H141	H14	0.983700	0.748100	0.451900
H151	H15	0.670900	0.864600	0.443600
H161	H16	0.759300	0.944900	0.481500
H171	H17	0.575900	0.766400	0.421600
H181	H18	0.675800	0.669700	0.372900
H191	H19	0.718600	0.819400	0.379700
H201	H20	0.823800	0.704100	0.417500
H211	H21	0.289600	0.588300	0.525100
H221	H22	0.200800	0.666200	0.563000
H231	H23	0.440200	0.594200	0.632200
H241	H24	0.520300	0.520100	0.592500
H251	H25	0.625500	0.772700	0.700900
H261	H26	0.459200	0.763000	0.662700
H271	H27	0.306600	0.615300	0.721700
H281	H28	0.461500	0.634000	0.759700
H291	H29	0.812900	0.639000	0.711900
H301	H30	0.965800	0.643600	0.672400
H311	H31	0.083200	0.828700	0.712500
H321	H32	0.915200	0.820600	0.750200
H331	H33	0.875900	0.843500	0.554500
H341	H34	0.920400	0.754800	0.593700
H351	H35	0.264100	0.838600	0.603400
H361	H36	0.211000	0.922900	0.565300
H371	H37	0.330500	0.739900	0.623800
H381	H38	0.215200	0.635400	0.666700
H391	H39	0.193500	0.788700	0.666100
H401	H40	0.075900	0.685900	0.622300
H411	H41	0.482400	0.501000	0.943300
H421	H42	0.434900	0.411700	0.905000
H431	H43	0.392100	0.278800	0.982600
H441	H44	0.429500	0.369000	0.019100
H451	H45	0.735600	0.324000	0.831400
H461	H46	0.584000	0.345700	0.868900
H471	H47	0.391900	0.179000	0.832800
H481	H48	0.558600	0.159000	0.796500
H491	H49	0.057400	0.297400	0.784300
H501	H50	0.214100	0.304400	0.822200
H511	H51	0.025900	0.166100	0.881200
H521	H52	0.859300	0.172000	0.842600
H531	H53	0.936800	0.167700	0.987500
H541	H54	0.016300	0.251900	0.951900
H551	H55	0.329100	0.135400	0.943600
H561	H56	0.240700	0.055100	0.981500
H571	H57	0.424100	0.233600	0.921600
H581	H58	0.324200	0.330300	0.872900
H591	H59	0.281400	0.180600	0.879700
H601	H60	0.176200	0.295900	0.917500
H611	H61	0.710400	0.411700	0.025100
H621	H62	0.799200	0.333800	0.063000
H631	H63	0.559800	0.405800	0.132200
H641	H64	0.479700	0.479900	0.092500
H651	H65	0.374500	0.227300	0.200900
H661	H66	0.540800	0.237000	0.162700
H671	H67	0.693400	0.384700	0.221700
H681	H68	0.538500	0.366000	0.259700
H691	H69	0.187100	0.361000	0.211900
H701	H70	0.034200	0.356400	0.172400
H711	H71	0.916800	0.171300	0.212500
H721	H72	0.084800	0.179400	0.250200
H731	H73	0.124100	0.156500	0.054500
H741	H74	0.079600	0.245200	0.093700
H751	H75	0.735900	0.161400	0.103400
H761	H76	0.789000	0.077100	0.065300
H771	H77	0.669500	0.260100	0.123800
H781	H78	0.784800	0.364600	0.166700
H791	H79	0.806500	0.211300	0.166100
H801	H80	0.924100	0.314100	0.122300
H811	H81	0.982400	0.999000	0.443300
H821	H82	0.934900	0.088300	0.405000
H831	H83	0.892100	0.221200	0.482600
H841	H84	0.929500	0.131000	0.519100
H851	H85	0.235600	0.176000	0.331400
H861	H86	0.084000	0.154300	0.368900
H871	H87	0.891900	0.321000	0.332800
H881	H88	0.058600	0.341000	0.296500
H891	H89	0.557400	0.202600	0.284300
H901	H90	0.714100	0.195600	0.322200
H911	H91	0.525900	0.333900	0.381200
H921	H92	0.359300	0.328000	0.342600
H931	H93	0.436800	0.332300	0.487500
H941	H94	0.516300	0.248100	0.451900
H951	H95	0.829100	0.364600	0.443600
H961	H96	0.740700	0.444900	0.481500
H971	H97	0.924100	0.266400	0.421600
H981	H98	0.824200	0.169700	0.372900
H991	H99	0.781400	0.319400	0.379700
H1001	H100	0.676200	0.204100	0.417500
H1011	H101	0.210400	0.088300	0.525100
H1021	H102	0.299200	0.166200	0.563000
H1031	H103	0.059800	0.094200	0.632200
H1041	H104	0.979700	0.020100	0.592500
H1051	H105	0.874500	0.272700	0.700900
H1061	H106	0.040800	0.263000	0.662700
H1071	H107	0.193400	0.115300	0.721700
H1081	H108	0.038500	0.134000	0.759700
H1091	H109	0.687100	0.139000	0.711900
H1101	H110	0.534200	0.143600	0.672400
H1111	H111	0.416800	0.328700	0.712500
H1121	H112	0.584800	0.320600	0.750200
H1131	H113	0.624100	0.343500	0.554500
H1141	H114	0.579600	0.254800	0.593700
H1151	H115	0.235900	0.338600	0.603400
H1161	H116	0.289000	0.422900	0.565300
H1171	H117	0.169500	0.239900	0.623800
H1181	H118	0.284800	0.135400	0.666700
H1191	H119	0.306500	0.288700	0.666100
H1201	H120	0.424100	0.185900	0.622300
H1211	H121	0.017600	0.001000	0.943300
H1221	H122	0.065100	0.911700	0.905000
H1231	H123	0.107900	0.778800	0.982600
H1241	H124	0.070500	0.869000	0.019100
H1251	H125	0.764400	0.824000	0.831400
H1261	H126	0.916000	0.845700	0.868900
H1271	H127	0.108100	0.679000	0.832800
H1281	H128	0.941400	0.659000	0.796500
H1291	H129	0.442600	0.797400	0.784300
H1301	H130	0.285900	0.804400	0.822200
H1311	H131	0.474100	0.666100	0.881200
H1321	H132	0.640700	0.672000	0.842600
H1331	H133	0.563200	0.667700	0.987500
H1341	H134	0.483700	0.751900	0.951900
H1351	H135	0.170900	0.635400	0.943600
H1361	H136	0.259300	0.555100	0.981500
H1371	H137	0.075900	0.733600	0.921600
H1381	H138	0.175800	0.830300	0.872900
H1391	H139	0.218600	0.680600	0.879700
H1401	H140	0.323800	0.795900	0.917500
H1411	H141	0.789600	0.911700	0.025100
H1421	H142	0.700800	0.833800	0.063000
H1431	H143	0.940200	0.905800	0.132200
H1441	H144	0.020300	0.979900	0.092500
H1451	H145	0.125500	0.727300	0.200900
H1461	H146	0.959200	0.737000	0.162700
H1471	H147	0.806600	0.884700	0.221700
H1481	H148	0.961500	0.866000	0.259700
H1491	H149	0.312900	0.861000	0.211900
H1501	H150	0.465800	0.856400	0.172400
H1511	H151	0.583200	0.671300	0.212500
H1521	H152	0.415200	0.679400	0.250200
H1531	H153	0.375900	0.656500	0.054500
H1541	H154	0.420400	0.745200	0.093700
H1551	H155	0.764100	0.661400	0.103400
H1561	H156	0.711000	0.577100	0.065300
H1571	H157	0.830500	0.760100	0.123800
H1581	H158	0.715200	0.864600	0.166700
H1591	H159	0.693500	0.711300	0.166100
H1601	H160	0.575900	0.814100	0.122300
C11	C1	0.537400	0.544600	0.451200
C21	C2	0.565400	0.598100	0.428200
C31	C3	0.593500	0.665200	0.439600
C41	C4	0.591600	0.675700	0.474100
C51	C5	0.567100	0.622100	0.495890
C61	C6	0.335000	0.705900	0.331600
C71	C7	0.425500	0.692000	0.353600
C81	C8	0.538100	0.734200	0.354230
C91	C9	0.539200	0.789900	0.332900
C101	C10	0.438300	0.801600	0.311000
C111	C11	0.949800	0.728900	0.304300
C121	C12	0.855000	0.725200	0.326500
C131	C13	0.859200	0.765700	0.356020
C141	C14	0.967000	0.805800	0.361700
C151	C15	0.065700	0.803600	0.337900
C161	C16	0.982200	0.838800	0.478700
C171	C17	0.936100	0.788700	0.456900
C181	C18	0.820400	0.798000	0.442380
C191	C19	0.751900	0.856800	0.452100
C201	C20	0.805800	0.904700	0.475100
C211	C21	0.628800	0.724600	0.416470
C221	C22	0.642300	0.717400	0.378200
C231	C23	0.752600	0.770600	0.380120
C241	C24	0.771200	0.747400	0.417150
C251	C25	0.321000	0.590000	0.547200
C261	C26	0.268600	0.637500	0.569700
C271	C27	0.315500	0.642800	0.601530
C281	C28	0.408600	0.595400	0.610100
C291	C29	0.454400	0.550600	0.586300
C301	C30	0.559000	0.741500	0.705600
C311	C31	0.459200	0.734900	0.682280
C321	C32	0.364300	0.689000	0.687590
C331	C33	0.369000	0.649200	0.717190
C341	C34	0.463400	0.659500	0.739400
C351	C35	0.866500	0.678600	0.711540
C361	C36	0.959100	0.680300	0.688300
C371	C37	0.046900	0.737700	0.687900
C381	C38	0.028500	0.789700	0.711500
C391	C39	0.926700	0.784300	0.734300
C401	C40	0.955400	0.841900	0.564700
C411	C41	0.982100	0.788200	0.587900
C421	C42	0.101000	0.784800	0.602200
C431	C43	0.183900	0.837600	0.593500
C441	C44	0.151100	0.888200	0.570900
C451	C45	0.273800	0.698500	0.625910
C461	C46	0.255200	0.682400	0.663940
C471	C47	0.152000	0.742000	0.663600
C481	C48	0.134500	0.726100	0.625360
C491	C49	0.462600	0.455400	0.951200
C501	C50	0.434600	0.401900	0.928200
C511	C51	0.406500	0.334800	0.939600
C521	C52	0.408400	0.324300	0.974100
C531	C53	0.432900	0.377900	0.995890
C541	C54	0.665000	0.294100	0.831600
C551	C55	0.574500	0.308000	0.853600
C561	C56	0.461900	0.265800	0.854230
C571	C57	0.460800	0.210100	0.832900
C581	C58	0.561700	0.198400	0.811000
C591	C59	0.050200	0.271100	0.804300
C601	C60	0.145000	0.274800	0.826500
C611	C61	0.140800	0.234300	0.856020
C621	C62	0.033000	0.194200	0.861700
C631	C63	0.934300	0.196400	0.837900
C641	C64	0.017800	0.161200	0.978700
C651	C65	0.063900	0.211300	0.956900
C661	C66	0.179600	0.202000	0.942380
C671	C67	0.248100	0.143200	0.952100
C681	C68	0.194200	0.095300	0.975100
C691	C69	0.371200	0.275400	0.916470
C701	C70	0.357700	0.282600	0.878200
C711	C71	0.247400	0.229400	0.880120
C721	C72	0.228800	0.252600	0.917150
C731	C73	0.679000	0.410000	0.047200
C741	C74	0.731400	0.362500	0.069700
C751	C75	0.684500	0.357200	0.101530
C761	C76	0.591400	0.404600	0.110100
C771	C77	0.545600	0.449400	0.086300
C781	C78	0.441000	0.258500	0.205600
C791	C79	0.540800	0.265100	0.182280
C801	C80	0.635700	0.311000	0.187590
C811	C81	0.631000	0.350800	0.217190
C821	C82	0.536600	0.340500	0.239400
C831	C83	0.133500	0.321400	0.211540
C841	C84	0.040900	0.319700	0.188300
C851	C85	0.953100	0.262300	0.187900
C861	C86	0.971500	0.210300	0.211500
C871	C87	0.073300	0.215700	0.234300
C881	C88	0.044600	0.158100	0.064700
C891	C89	0.017900	0.211800	0.087900
C901	C90	0.899000	0.215200	0.102200
C911	C91	0.816100	0.162400	0.093500
C921	C92	0.848900	0.111800	0.070900
C931	C93	0.726200	0.301500	0.125910
C941	C94	0.744800	0.317600	0.163940
C951	C95	0.848000	0.258000	0.163600
C961	C96	0.865500	0.273900	0.125360
C971	C97	0.962600	0.044600	0.451200
C981	C98	0.934600	0.098100	0.428200
C991	C99	0.906500	0.165200	0.439600
C1001	C100	0.908400	0.175700	0.474100
C1011	C101	0.932900	0.122100	0.495890
C1021	C102	0.165000	0.205900	0.331600
C1031	C103	0.074500	0.192000	0.353600
C1041	C104	0.961900	0.234200	0.354230
C1051	C105	0.960800	0.289900	0.332900
C1061	C106	0.061700	0.301600	0.311000
C1071	C107	0.550200	0.228900	0.304300
C1081	C108	0.645000	0.225200	0.326500
C1091	C109	0.640800	0.265700	0.356020
C1101	C110	0.533000	0.305800	0.361700
C1111	C111	0.434300	0.303600	0.337900
C1121	C112	0.517800	0.338800	0.478700
C1131	C113	0.563900	0.288700	0.456900
C1141	C114	0.679600	0.298000	0.442380
C1151	C115	0.748100	0.356800	0.452100
C1161	C116	0.694200	0.404700	0.475100
C1171	C117	0.871200	0.224600	0.416470
C1181	C118	0.857700	0.217400	0.378200
C1191	C119	0.747400	0.270600	0.380120
C1201	C120	0.728800	0.247400	0.417150
C1211	C121	0.179000	0.090000	0.547200
C1221	C122	0.231400	0.137500	0.569700
C1231	C123	0.184500	0.142800	0.601530
C1241	C124	0.091400	0.095400	0.610100
C1251	C125	0.045600	0.050600	0.586300
C1261	C126	0.941000	0.241500	0.705600
C1271	C127	0.040800	0.234900	0.682280
C1281	C128	0.135700	0.189000	0.687590
C1291	C129	0.131000	0.149200	0.717190
C1301	C130	0.036600	0.159500	0.739400
C1311	C131	0.633500	0.178600	0.711540
C1321	C132	0.540900	0.180300	0.688300
C1331	C133	0.453100	0.237700	0.687900
C1341	C134	0.471500	0.289700	0.711500
C1351	C135	0.573300	0.284300	0.734300
C1361	C136	0.544600	0.341900	0.564700
C1371	C137	0.517900	0.288200	0.587900
C1381	C138	0.399000	0.284800	0.602200
C1391	C139	0.316100	0.337600	0.593500
C1401	C140	0.348900	0.388200	0.570900
C1411	C141	0.226200	0.198500	0.625910
C1421	C142	0.244800	0.182400	0.663940
C1431	C143	0.348000	0.242000	0.663600
C1441	C144	0.365500	0.226100	0.625360
C1451	C145	0.037400	0.955400	0.951200
C1461	C146	0.065400	0.901900	0.928200
C1471	C147	0.093500	0.834800	0.939600
C1481	C148	0.091600	0.824300	0.974100
C1491	C149	0.067100	0.877900	0.995890
C1501	C150	0.835000	0.794100	0.831600
C1511	C151	0.925500	0.808000	0.853600
C1521	C152	0.038100	0.765800	0.854230
C1531	C153	0.039200	0.710100	0.832900
C1541	C154	0.938300	0.698400	0.811000
C1551	C155	0.449800	0.771100	0.804300
C1561	C156	0.355000	0.774800	0.826500
C1571	C157	0.359200	0.734300	0.856020
C1581	C158	0.467000	0.694200	0.861700
C1591	C159	0.565700	0.696400	0.837900
C1601	C160	0.482200	0.661200	0.978700
C1611	C161	0.436100	0.711300	0.956900
C1621	C162	0.320400	0.702000	0.942380
C1631	C163	0.251900	0.643200	0.952100
C1641	C164	0.305800	0.595300	0.975100
C1651	C165	0.128800	0.775400	0.916470
C1661	C166	0.142300	0.782600	0.878200
C1671	C167	0.252600	0.729400	0.880120
C1681	C168	0.271200	0.752600	0.917150
C1691	C169	0.821000	0.910000	0.047200
C1701	C170	0.768600	0.862500	0.069700
C1711	C171	0.815500	0.857200	0.101530
C1721	C172	0.908600	0.904600	0.110100
C1731	C173	0.954400	0.949400	0.086300
C1741	C174	0.059000	0.758500	0.205600
C1751	C175	0.959200	0.765100	0.182280
C1761	C176	0.864300	0.811000	0.187590
C1771	C177	0.869000	0.850800	0.217190
C1781	C178	0.963400	0.840500	0.239400
C1791	C179	0.366500	0.821400	0.211540
C1801	C180	0.459100	0.819700	0.188300
C1811	C181	0.546900	0.762300	0.187900
C1821	C182	0.528500	0.710300	0.211500
C1831	C183	0.426700	0.715700	0.234300
C1841	C184	0.455400	0.658100	0.064700
C1851	C185	0.482100	0.711800	0.087900
C1861	C186	0.601000	0.715200	0.102200
C1871	C187	0.683900	0.662400	0.093500
C1881	C188	0.651100	0.611800	0.070900
C1891	C189	0.773800	0.801500	0.125910
C1901	C190	0.755200	0.817600	0.163940
C1911	C191	0.652000	0.758000	0.163600
C1921	C192	0.634500	0.773900	0.125360
N11	N1	0.538300	0.557200	0.485220
N21	N2	0.918200	0.896000	0.488070
N31	N3	0.055400	0.767900	0.308880
N41	N4	0.337800	0.759300	0.309870
N51	N5	0.413300	0.546900	0.555500
N61	N6	0.560300	0.704500	0.734020
N71	N7	0.846900	0.730300	0.734120
N81	N8	0.042000	0.891500	0.556690
N91	N9	0.461700	0.442800	0.985220
N101	N10	0.081800	0.104000	0.988070
N111	N11	0.944600	0.232100	0.808880
N121	N12	0.662200	0.240700	0.809870
N131	N13	0.586700	0.453100	0.055500
N141	N14	0.439700	0.295500	0.234020
N151	N15	0.153100	0.269700	0.234120
N161	N16	0.958000	0.108500	0.056690
N171	N17	0.961700	0.057200	0.485220
N181	N18	0.581800	0.396000	0.488070
N191	N19	0.444600	0.267900	0.308880
N201	N20	0.162200	0.259300	0.309870
N211	N21	0.086700	0.046900	0.555500
N221	N22	0.939700	0.204500	0.734020
N231	N23	0.653100	0.230300	0.734120
N241	N24	0.458000	0.391500	0.556690
N251	N25	0.038300	0.942800	0.985220
N261	N26	0.418200	0.604000	0.988070
N271	N27	0.555400	0.732100	0.808880
N281	N28	0.837800	0.740700	0.809870
N291	N29	0.913300	0.953100	0.055500
N301	N30	0.060300	0.795500	0.234020
N311	N31	0.346900	0.769700	0.234120
N321	N32	0.542000	0.608500	0.056690
O11	O1	0.721300	0.613100	0.776500
O21	O2	0.278700	0.386900	0.276500
O31	O3	0.778700	0.113100	0.776500
O41	O4	0.221300	0.886900	0.276500
Cl11	Cl1	0.564200	0.791500	0.560010
O51	O5	0.636000	0.729300	0.560700
O61	O6	0.538800	0.804800	0.594500
O71	O7	0.622000	0.853000	0.548400
O81	O8	0.440400	0.770900	0.546000
Cl21	Cl2	0.189200	0.375200	0.417690
O91	O9	0.273000	0.314000	0.410700
O101	O10	0.103100	0.368400	0.442800
O111	O11	0.295000	0.414800	0.428600
O121	O12	0.143000	0.404500	0.388300
Cl31	Cl3	0.354300	0.510400	0.838900
O131	O13	0.319000	0.440600	0.831300
O141	O14	0.364000	0.549900	0.809900
O151	O15	0.462000	0.510700	0.859500
O161	O16	0.252000	0.536700	0.860300
Cl41	Cl4	0.337200	0.957100	0.679200
O171	O17	0.425000	0.001600	0.694000
O181	O18	0.316000	0.994500	0.645400
O191	O19	0.383000	0.894400	0.667600
O201	O20	0.224200	0.959000	0.694500
Cl51	Cl5	0.435800	0.208500	0.060010
O211	O21	0.364000	0.270700	0.060700
O221	O22	0.461200	0.195200	0.094500
O231	O23	0.378000	0.147000	0.048400
O241	O24	0.559600	0.229100	0.046000
Cl61	Cl6	0.810800	0.624800	0.917690
O251	O25	0.727000	0.686000	0.910700
O261	O26	0.896900	0.631600	0.942800
O271	O27	0.705000	0.585200	0.928600
O281	O28	0.857000	0.595500	0.888300
Cl71	Cl7	0.645700	0.489600	0.338900
O291	O29	0.681000	0.559400	0.331300
O301	O30	0.636000	0.450100	0.309900
O311	O31	0.538000	0.489300	0.359500
O321	O32	0.748000	0.463300	0.360300
Cl81	Cl8	0.662800	0.042900	0.179200
O331	O33	0.575000	0.998400	0.194000
O341	O34	0.684000	0.005500	0.145400
O351	O35	0.617000	0.105600	0.167600
O361	O36	0.775800	0.041000	0.194500
Cl91	Cl9	0.935800	0.291500	0.560010
O371	O37	0.864000	0.229300	0.560700
O381	O38	0.961200	0.304800	0.594500
O391	O39	0.878000	0.353000	0.548400
O401	O40	0.059600	0.270900	0.546000
Cl101	Cl10	0.310800	0.875200	0.417690
O411	O41	0.227000	0.814000	0.410700
O421	O42	0.396900	0.868400	0.442800
O431	O43	0.205000	0.914800	0.428600
O441	O44	0.357000	0.904500	0.388300
Cl111	Cl11	0.145700	0.010400	0.838900
O451	O45	0.181000	0.940600	0.831300
O461	O46	0.136000	0.049900	0.809900
O471	O47	0.038000	0.010700	0.859500
O481	O48	0.248000	0.036700	0.860300
Cl121	Cl12	0.162800	0.457100	0.679200
O491	O49	0.075000	0.501600	0.694000
O501	O50	0.184000	0.494500	0.645400
O511	O51	0.117000	0.394400	0.667600
O521	O52	0.275800	0.459000	0.694500
Cl131	Cl13	0.064200	0.708500	0.060010
O531	O53	0.136000	0.770700	0.060700
O541	O54	0.038800	0.695200	0.094500
O551	O55	0.122000	0.647000	0.048400
O561	O56	0.940400	0.729100	0.046000
Cl141	Cl14	0.689200	0.124800	0.917690
O571	O57	0.773000	0.186000	0.910700
O581	O58	0.603100	0.131600	0.942800
O591	O59	0.795000	0.085200	0.928600
O601	O60	0.643000	0.095500	0.888300
Cl151	Cl15	0.854300	0.989600	0.338900
O611	O61	0.819000	0.059400	0.331300
O621	O62	0.864000	0.950100	0.309900
O631	O63	0.962000	0.989300	0.359500
O641	O64	0.752000	0.963300	0.360300
Cl161	Cl16	0.837200	0.542900	0.179200
O651	O65	0.925000	0.498400	0.194000
O661	O66	0.816000	0.505500	0.145400
O671	O67	0.883000	0.605600	0.167600
O681	O68	0.724200	0.541000	0.194500
