data_NABSEP_freeONLY_PM
_symmetry_space_group_name_H-M	'P1'
_cell_length_a	9.969100
_cell_length_b	12.401300
_cell_length_c	17.341000
_cell_angle_alpha	90.000000
_cell_angle_beta	103.762000
_cell_angle_gamma	90.000000
_symmetry_Int_Tables_number 1

loop_
_symmetry_equiv_pos_as_xyz
'x,y,z'

loop_
_atom_site_label
_atom_site_type_symbol
_atom_site_fract_x
_atom_site_fract_y
_atom_site_fract_z
Fe11	Fe1	0.866400	0.353400	0.923900
Fe21	Fe2	0.245300	0.422100	0.779700
Fe31	Fe3	0.059700	0.973900	0.869200
Fe41	Fe4	0.529300	0.109800	0.792000
P11	P1	0.915700	0.459300	0.106700
P21	P2	0.561900	0.372600	0.808000
P31	P3	0.219700	0.154500	0.795700
P41	P4	0.803600	0.087900	0.941800
O11	O1	0.839900	0.208300	0.956600
O21	O2	0.858100	0.400800	0.028700
O31	O3	0.682600	0.405300	0.877800
O41	O4	0.052500	0.515000	0.103600
O51	O5	0.078400	0.291800	0.944300
O61	O6	0.881500	0.289700	0.810600
O71	O7	0.429300	0.382500	0.837900
O81	O8	0.810700	0.545300	0.119600
F11	F1	0.285900	0.408200	0.672600
O91	O9	0.175900	0.269700	0.770100
F21	F2	0.051900	0.460900	0.720700
O101	O10	0.189600	0.078500	0.723900
O111	O11	0.894600	0.036300	0.894000
O121	O12	0.820300	0.031100	0.021700
O131	O13	0.130800	0.119500	0.854200
O141	O14	0.558200	0.450900	0.739500
O151	O15	0.003000	0.816000	0.891100
O161	O16	0.587400	0.258300	0.782900
O171	O17	0.374700	0.148900	0.837800
O181	O18	0.651200	0.078300	0.897700
O191	O19	0.944400	0.376600	0.173900
O201	O20	0.696000	0.057500	0.747700
Fe51	Fe5	0.633600	0.853400	0.576100
Fe61	Fe6	0.254700	0.922100	0.720300
Fe71	Fe7	0.440300	0.473900	0.630800
Fe81	Fe8	0.970700	0.609800	0.708000
P51	P5	0.584300	0.959300	0.393300
P61	P6	0.938100	0.872600	0.692000
P71	P7	0.280300	0.654500	0.704300
P81	P8	0.696400	0.587900	0.558200
O211	O21	0.660100	0.708300	0.543400
O221	O22	0.641900	0.900800	0.471300
O231	O23	0.817400	0.905300	0.622200
O241	O24	0.447500	0.015000	0.396400
O251	O25	0.421600	0.791800	0.555700
O261	O26	0.618500	0.789700	0.689400
O271	O27	0.070700	0.882500	0.662100
O281	O28	0.689300	0.045300	0.380400
F31	F3	0.214100	0.908200	0.827400
O291	O29	0.324100	0.769700	0.729900
F41	F4	0.448100	0.960900	0.779300
O301	O30	0.310400	0.578500	0.776100
O311	O31	0.605400	0.536300	0.606000
O321	O32	0.679700	0.531100	0.478300
O331	O33	0.369200	0.619500	0.645800
O341	O34	0.941800	0.950900	0.760500
O351	O35	0.497000	0.316000	0.608900
O361	O36	0.912600	0.758300	0.717100
O371	O37	0.125300	0.648900	0.662200
O381	O38	0.848800	0.578300	0.602300
O391	O39	0.555600	0.876600	0.326100
O401	O40	0.804000	0.557500	0.752300
Fe91	Fe9	0.133600	0.646600	0.076100
Fe101	Fe10	0.754700	0.577900	0.220300
Fe111	Fe11	0.940300	0.026100	0.130800
Fe121	Fe12	0.470700	0.890200	0.208000
P91	P9	0.084300	0.540700	0.893300
P101	P10	0.438100	0.627400	0.192000
P111	P11	0.780300	0.845500	0.204300
P121	P12	0.196400	0.912100	0.058200
O411	O41	0.160100	0.791700	0.043400
O421	O42	0.141900	0.599200	0.971300
O431	O43	0.317400	0.594700	0.122200
O441	O44	0.947500	0.485000	0.896400
O451	O45	0.921600	0.708200	0.055700
O461	O46	0.118500	0.710300	0.189400
O471	O47	0.570700	0.617500	0.162100
O481	O48	0.189300	0.454700	0.880400
F51	F5	0.714100	0.591800	0.327400
O491	O49	0.824100	0.730300	0.229900
F61	F6	0.948100	0.539100	0.279300
O501	O50	0.810400	0.921500	0.276100
O511	O51	0.105400	0.963700	0.106000
O521	O52	0.179700	0.968900	0.978300
O531	O53	0.869200	0.880500	0.145800
O541	O54	0.441800	0.549100	0.260500
O551	O55	0.997000	0.184000	0.108900
O561	O56	0.412600	0.741700	0.217100
O571	O57	0.625300	0.851100	0.162200
O581	O58	0.348800	0.921700	0.102300
O591	O59	0.055600	0.623400	0.826100
O601	O60	0.304000	0.942500	0.252300
Fe131	Fe13	0.366400	0.146600	0.423900
Fe141	Fe14	0.745300	0.077900	0.279700
Fe151	Fe15	0.559700	0.526100	0.369200
Fe161	Fe16	0.029300	0.390200	0.292000
P131	P13	0.415700	0.040700	0.606700
P141	P14	0.061900	0.127400	0.308000
P151	P15	0.719700	0.345500	0.295700
P161	P16	0.303600	0.412100	0.441800
O611	O61	0.339900	0.291700	0.456600
O621	O62	0.358100	0.099200	0.528700
O631	O63	0.182600	0.094700	0.377800
O641	O64	0.552500	0.985000	0.603600
O651	O65	0.578400	0.208200	0.444300
O661	O66	0.381500	0.210300	0.310600
O671	O67	0.929300	0.117500	0.337900
O681	O68	0.310700	0.954700	0.619600
F71	F7	0.785900	0.091800	0.172600
O691	O69	0.675900	0.230300	0.270100
F81	F8	0.551900	0.039100	0.220700
O701	O70	0.689600	0.421500	0.223900
O711	O71	0.394600	0.463700	0.394000
O721	O72	0.320300	0.468900	0.521700
O731	O73	0.630800	0.380500	0.354200
O741	O74	0.058200	0.049100	0.239500
O751	O75	0.503000	0.684000	0.391100
O761	O76	0.087400	0.241700	0.282900
O771	O77	0.874700	0.351100	0.337800
O781	O78	0.151200	0.421700	0.397700
O791	O79	0.444400	0.123400	0.673900
O801	O80	0.196000	0.442500	0.247700
