data_NACVUI_freeONLY_PM
_symmetry_space_group_name_H-M	'P1'
_cell_length_a	7.314000
_cell_length_b	12.758000
_cell_length_c	15.332000
_cell_angle_alpha	90.000000
_cell_angle_beta	90.000000
_cell_angle_gamma	94.500000
_symmetry_Int_Tables_number 1

loop_
_symmetry_equiv_pos_as_xyz
'x,y,z'

loop_
_atom_site_label
_atom_site_type_symbol
_atom_site_fract_x
_atom_site_fract_y
_atom_site_fract_z
Cu11	Cu1	0.732070	0.357710	0.879750
Cu21	Cu2	0.267930	0.142290	0.379750
Cu31	Cu3	0.267930	0.642290	0.120250
Cu41	Cu4	0.732070	0.857710	0.620250
H11	H1	0.914200	0.405000	0.583300
H21	H2	0.839000	0.423100	0.489400
H31	H3	0.745500	0.590200	0.582500
H41	H4	0.754900	0.538600	0.675100
H51	H5	0.567100	0.571300	0.638900
H61	H6	0.085800	0.095000	0.083300
H71	H7	0.161000	0.076900	0.989400
H81	H8	0.254500	0.909800	0.082500
H91	H9	0.245100	0.961400	0.175100
H101	H10	0.432900	0.928700	0.138900
H111	H11	0.085800	0.595000	0.416700
H121	H12	0.161000	0.576900	0.510600
H131	H13	0.254500	0.409800	0.417500
H141	H14	0.245100	0.461400	0.324900
H151	H15	0.432900	0.428700	0.361100
H161	H16	0.914200	0.905000	0.916700
H171	H17	0.839000	0.923100	0.010600
H181	H18	0.745500	0.090200	0.917500
H191	H19	0.754900	0.038600	0.824900
H201	H20	0.567100	0.071300	0.861100
C11	C1	0.768500	0.209700	0.616300
C21	C2	0.782900	0.269700	0.531100
C31	C3	0.759500	0.260200	0.695900
C41	C4	0.756300	0.101300	0.615500
C51	C5	0.619200	0.238900	0.476800
C61	C6	0.942400	0.235200	0.482200
C71	C7	0.810000	0.389700	0.545000
C81	C8	0.645100	0.437300	0.583600
C91	C9	0.681400	0.543900	0.623600
C101	C10	0.231500	0.290300	0.116300
C111	C11	0.217100	0.230300	0.031100
C121	C12	0.240500	0.239800	0.195900
C131	C13	0.243700	0.398700	0.115500
C141	C14	0.380800	0.261100	0.976800
C151	C15	0.057600	0.264800	0.982200
C161	C16	0.190000	0.110300	0.045000
C171	C17	0.354900	0.062700	0.083600
C181	C18	0.318600	0.956100	0.123600
C191	C19	0.231500	0.790300	0.383700
C201	C20	0.217100	0.730300	0.468900
C211	C21	0.240500	0.739800	0.304100
C221	C22	0.243700	0.898700	0.384500
C231	C23	0.380800	0.761100	0.523200
C241	C24	0.057600	0.764800	0.517800
C251	C25	0.190000	0.610300	0.455000
C261	C26	0.354900	0.562700	0.416400
C271	C27	0.318600	0.456100	0.376400
C281	C28	0.768500	0.709700	0.883700
C291	C29	0.782900	0.769700	0.968900
C301	C30	0.759500	0.760200	0.804100
C311	C31	0.756300	0.601300	0.884500
C321	C32	0.619200	0.738900	0.023200
C331	C33	0.942400	0.735200	0.017800
C341	C34	0.810000	0.889700	0.955000
C351	C35	0.645100	0.937300	0.916400
C361	C36	0.681400	0.043900	0.876400
N11	N1	0.750900	0.301500	0.762000
N21	N2	0.749300	0.009900	0.614200
N31	N3	0.498600	0.205000	0.436300
N41	N4	0.065100	0.204100	0.449100
N51	N5	0.249100	0.198500	0.262000
N61	N6	0.250700	0.490100	0.114200
N71	N7	0.501400	0.295000	0.936300
N81	N8	0.934900	0.295900	0.949100
N91	N9	0.249100	0.698500	0.238000
N101	N10	0.250700	0.990100	0.385800
N111	N11	0.501400	0.795000	0.563700
N121	N12	0.934900	0.795900	0.550900
N131	N13	0.750900	0.801500	0.738000
N141	N14	0.749300	0.509900	0.885800
N151	N15	0.498600	0.705000	0.063700
N161	N16	0.065100	0.704100	0.050900
O11	O1	0.495800	0.391600	0.580700
O21	O2	0.504200	0.108400	0.080700
O31	O3	0.504200	0.608400	0.419300
O41	O4	0.495800	0.891600	0.919300
