data_NACYUM_freeONLY_PM
_symmetry_space_group_name_H-M	'P1'
_cell_length_a	8.773400
_cell_length_b	15.507000
_cell_length_c	17.264000
_cell_angle_alpha	90.000000
_cell_angle_beta	90.000000
_cell_angle_gamma	93.940000
_symmetry_Int_Tables_number 1

loop_
_symmetry_equiv_pos_as_xyz
'x,y,z'

loop_
_atom_site_label
_atom_site_type_symbol
_atom_site_fract_x
_atom_site_fract_y
_atom_site_fract_z
V11	V1	0.941230	0.334160	0.982000
V21	V2	0.058770	0.165840	0.482000
V31	V3	0.058770	0.665840	0.018000
V41	V4	0.941230	0.834160	0.518000
Co11	Co1	0.808220	0.634450	0.760420
Co21	Co2	0.191780	0.865550	0.260420
Co31	Co3	0.191780	0.365550	0.239580
Co41	Co4	0.808220	0.134450	0.739580
P11	P1	0.943760	0.510200	0.893180
P21	P2	0.056240	0.989800	0.393180
P31	P3	0.056240	0.489800	0.106820
P41	P4	0.943760	0.010200	0.606820
H11	H1	0.765400	0.521000	0.994800
H21	H2	0.679500	0.522800	0.912800
H31	H3	0.687000	0.405100	0.833000
H41	H4	0.551000	0.351200	0.876700
H51	H5	0.502900	0.374700	0.992000
H61	H6	0.614700	0.427500	0.051100
H71	H7	0.463300	0.613100	0.807800
H81	H8	0.259100	0.510100	0.804700
H91	H9	0.513600	0.362400	0.668400
H101	H10	0.709300	0.470100	0.675900
H111	H11	0.871200	0.326100	0.709600
H121	H12	0.063500	0.435300	0.718500
H131	H13	0.364000	0.251500	0.750400
H141	H14	0.160900	0.147900	0.746400
H151	H15	0.962000	0.574000	0.634000
H161	H16	0.881000	0.645000	0.625000
H171	H17	0.791000	0.698000	0.902000
H181	H18	0.643000	0.699000	0.878000
H191	H19	0.234600	0.979000	0.494800
H201	H20	0.320500	0.977200	0.412800
H211	H21	0.313000	0.094900	0.333000
H221	H22	0.449000	0.148800	0.376700
H231	H23	0.497100	0.125300	0.492000
H241	H24	0.385300	0.072500	0.551100
H251	H25	0.536700	0.886900	0.307800
H261	H26	0.740900	0.989900	0.304700
H271	H27	0.486400	0.137600	0.168400
H281	H28	0.290700	0.029900	0.175900
H291	H29	0.128800	0.173900	0.209600
H301	H30	0.936500	0.064700	0.218500
H311	H31	0.636000	0.248500	0.250400
H321	H32	0.839100	0.352100	0.246400
H331	H33	0.038000	0.926000	0.134000
H341	H34	0.119000	0.855000	0.125000
H351	H35	0.209000	0.802000	0.402000
H361	H36	0.357000	0.801000	0.378000
H371	H37	0.234600	0.479000	0.005200
H381	H38	0.320500	0.477200	0.087200
H391	H39	0.313000	0.594900	0.167000
H401	H40	0.449000	0.648800	0.123300
H411	H41	0.497100	0.625300	0.008000
H421	H42	0.385300	0.572500	0.948900
H431	H43	0.536700	0.386900	0.192200
H441	H44	0.740900	0.489900	0.195300
H451	H45	0.486400	0.637600	0.331600
H461	H46	0.290700	0.529900	0.324100
H471	H47	0.128800	0.673900	0.290400
H481	H48	0.936500	0.564700	0.281500
H491	H49	0.636000	0.748500	0.249600
H501	H50	0.839100	0.852100	0.253600
H511	H51	0.038000	0.426000	0.366000
H521	H52	0.119000	0.355000	0.375000
H531	H53	0.209000	0.302000	0.098000
H541	H54	0.357000	0.301000	0.122000
H551	H55	0.765400	0.021000	0.505200
H561	H56	0.679500	0.022800	0.587200
H571	H57	0.687000	0.905100	0.667000
H581	H58	0.551000	0.851200	0.623300
H591	H59	0.502900	0.874700	0.508000
H601	H60	0.614700	0.927500	0.448900
H611	H61	0.463300	0.113100	0.692200
H621	H62	0.259100	0.010100	0.695300
H631	H63	0.513600	0.862400	0.831600
H641	H64	0.709300	0.970100	0.824100
H651	H65	0.871200	0.826100	0.790400
H661	H66	0.063500	0.935300	0.781500
H671	H67	0.364000	0.751500	0.749600
H681	H68	0.160900	0.647900	0.753600
H691	H69	0.962000	0.074000	0.866000
H701	H70	0.881000	0.145000	0.875000
H711	H71	0.791000	0.198000	0.598000
H721	H72	0.643000	0.199000	0.622000
C11	C1	0.758600	0.494500	0.942600
C21	C2	0.663400	0.362400	0.874700
C31	C3	0.734800	0.278900	0.854400
C41	C4	0.608200	0.379900	0.012800
C51	C5	0.641900	0.295700	0.053100
C61	C6	0.473800	0.561000	0.779900
C71	C7	0.351000	0.500000	0.778100
C81	C8	0.363900	0.423700	0.737000
C91	C9	0.500700	0.413100	0.698000
C101	C10	0.617100	0.477700	0.703100
C111	C11	0.972600	0.311100	0.719100
C121	C12	0.086700	0.376500	0.723200
C131	C13	0.236300	0.355000	0.734200
C141	C14	0.263000	0.268400	0.742700
C151	C15	0.141500	0.207000	0.739800
C161	C16	0.241400	0.005500	0.442600
C171	C17	0.336600	0.137600	0.374700
C181	C18	0.265200	0.221100	0.354400
C191	C19	0.391800	0.120100	0.512800
C201	C20	0.358100	0.204300	0.553100
C211	C21	0.526200	0.939000	0.279900
C221	C22	0.649000	0.000000	0.278100
C231	C23	0.636100	0.076300	0.237000
C241	C24	0.499300	0.086900	0.198000
C251	C25	0.382900	0.022300	0.203100
C261	C26	0.027400	0.188900	0.219100
C271	C27	0.913300	0.123500	0.223200
C281	C28	0.763700	0.145000	0.234200
C291	C29	0.737000	0.231600	0.242700
C301	C30	0.858500	0.293000	0.239800
C311	C31	0.241400	0.505500	0.057400
C321	C32	0.336600	0.637600	0.125300
C331	C33	0.265200	0.721100	0.145600
C341	C34	0.391800	0.620100	0.987200
C351	C35	0.358100	0.704300	0.946900
C361	C36	0.526200	0.439000	0.220100
C371	C37	0.649000	0.500000	0.221900
C381	C38	0.636100	0.576300	0.263000
C391	C39	0.499300	0.586900	0.302000
C401	C40	0.382900	0.522300	0.296900
C411	C41	0.027400	0.688900	0.280900
C421	C42	0.913300	0.623500	0.276800
C431	C43	0.763700	0.645000	0.265800
C441	C44	0.737000	0.731600	0.257300
C451	C45	0.858500	0.793000	0.260200
C461	C46	0.758600	0.994500	0.557400
C471	C47	0.663400	0.862400	0.625300
C481	C48	0.734800	0.778900	0.645600
C491	C49	0.608200	0.879900	0.487200
C501	C50	0.641900	0.795700	0.446900
C511	C51	0.473800	0.061000	0.720100
C521	C52	0.351000	0.000000	0.721900
C531	C53	0.363900	0.923700	0.763000
C541	C54	0.500700	0.913100	0.802000
C551	C55	0.617100	0.977700	0.796900
C561	C56	0.972600	0.811100	0.780900
C571	C57	0.086700	0.876500	0.776800
C581	C58	0.236300	0.855000	0.765800
C591	C59	0.263000	0.768400	0.757300
C601	C60	0.141500	0.707000	0.760200
N11	N1	0.716300	0.400460	0.949390
N21	N2	0.607100	0.550250	0.744230
N31	N3	0.997200	0.227270	0.728020
N41	N4	0.283700	0.099540	0.449390
N51	N5	0.392900	0.949750	0.244230
N61	N6	0.002800	0.272730	0.228020
N71	N7	0.283700	0.599540	0.050610
N81	N8	0.392900	0.449750	0.255770
N91	N9	0.002800	0.772730	0.271980
N101	N10	0.716300	0.900460	0.550610
N111	N11	0.607100	0.050250	0.755770
N121	N12	0.997200	0.727270	0.771980
O11	O1	0.918200	0.533100	0.809320
O21	O2	0.042100	0.580960	0.934480
O31	O3	0.012900	0.422740	0.903110
O41	O4	0.851000	0.260530	0.893960
O51	O5	0.682500	0.234430	0.799310
O61	O6	0.775800	0.269370	0.045140
O71	O7	0.539700	0.258400	0.092810
O81	O8	0.086400	0.278550	0.998650
O91	O9	0.884100	0.597700	0.649560
O101	O10	0.730300	0.683410	0.867450
O111	O11	0.081800	0.966900	0.309320
O121	O12	0.957900	0.919040	0.434480
O131	O13	0.987100	0.077260	0.403110
O141	O14	0.149000	0.239470	0.393960
O151	O15	0.317500	0.265570	0.299310
O161	O16	0.224200	0.230630	0.545140
O171	O17	0.460300	0.241600	0.592810
O181	O18	0.913600	0.221450	0.498650
O191	O19	0.115900	0.902300	0.149560
O201	O20	0.269700	0.816590	0.367450
O211	O21	0.081800	0.466900	0.190680
O221	O22	0.957900	0.419040	0.065520
O231	O23	0.987100	0.577260	0.096890
O241	O24	0.149000	0.739470	0.106040
O251	O25	0.317500	0.765570	0.200690
O261	O26	0.224200	0.730630	0.954860
O271	O27	0.460300	0.741600	0.907190
O281	O28	0.913600	0.721450	0.001350
O291	O29	0.115900	0.402300	0.350440
O301	O30	0.269700	0.316590	0.132550
O311	O31	0.918200	0.033100	0.690680
O321	O32	0.042100	0.080960	0.565520
O331	O33	0.012900	0.922740	0.596890
O341	O34	0.851000	0.760530	0.606040
O351	O35	0.682500	0.734430	0.700690
O361	O36	0.775800	0.769370	0.454860
O371	O37	0.539700	0.758400	0.407190
O381	O38	0.086400	0.778550	0.501350
O391	O39	0.884100	0.097700	0.850440
O401	O40	0.730300	0.183410	0.632550
