data_NACYOG_freeONLY_PM
_symmetry_space_group_name_H-M	'P1'
_cell_length_a	9.126700
_cell_length_b	15.361000
_cell_length_c	17.610000
_cell_angle_alpha	90.000000
_cell_angle_beta	90.000000
_cell_angle_gamma	93.060000
_symmetry_Int_Tables_number 1

loop_
_symmetry_equiv_pos_as_xyz
'x,y,z'

loop_
_atom_site_label
_atom_site_type_symbol
_atom_site_fract_x
_atom_site_fract_y
_atom_site_fract_z
V11	V1	0.070030	0.667580	0.988240
V21	V2	0.929970	0.832420	0.488240
V31	V3	0.929970	0.332420	0.011760
V41	V4	0.070030	0.167580	0.511760
Cd11	Cd1	0.179450	0.365910	0.756850
Cd21	Cd2	0.820550	0.134090	0.256850
Cd31	Cd3	0.820550	0.634090	0.243150
Cd41	Cd4	0.179450	0.865910	0.743150
P11	P1	0.048230	0.492770	0.895300
P21	P2	0.951770	0.007230	0.395300
P31	P3	0.951770	0.507230	0.104700
P41	P4	0.048230	0.992770	0.604700
H11	H1	0.217400	0.471100	0.994500
H21	H2	0.299600	0.468200	0.914000
H31	H3	0.309300	0.588300	0.838800
H41	H4	0.438400	0.640800	0.883500
H51	H5	0.483100	0.605900	0.995000
H61	H6	0.368000	0.560400	0.053300
H71	H7	0.521900	0.390600	0.807700
H81	H8	0.721500	0.490300	0.803500
H91	H9	0.484500	0.642300	0.666800
H101	H10	0.293900	0.536000	0.672900
H111	H11	0.103100	0.664900	0.720700
H121	H12	0.912000	0.559400	0.724200
H131	H13	0.629200	0.752800	0.743500
H141	H14	0.829100	0.852500	0.742200
H151	H15	0.025000	0.430000	0.624000
H161	H16	0.111000	0.359000	0.614000
H171	H17	0.195000	0.292000	0.904000
H181	H18	0.340000	0.284000	0.884000
H191	H19	0.782600	0.028900	0.494500
H201	H20	0.700400	0.031800	0.414000
H211	H21	0.690700	0.911700	0.338800
H221	H22	0.561600	0.859200	0.383500
H231	H23	0.516900	0.894100	0.495000
H241	H24	0.632000	0.939600	0.553300
H251	H25	0.478100	0.109400	0.307700
H261	H26	0.278500	0.009700	0.303500
H271	H27	0.515500	0.857700	0.166800
H281	H28	0.706100	0.964000	0.172900
H291	H29	0.896900	0.835100	0.220700
H301	H30	0.088000	0.940600	0.224200
H311	H31	0.370800	0.747200	0.243500
H321	H32	0.170900	0.647500	0.242200
H331	H33	0.975000	0.070000	0.124000
H341	H34	0.889000	0.141000	0.114000
H351	H35	0.805000	0.208000	0.404000
H361	H36	0.660000	0.216000	0.384000
H371	H37	0.782600	0.528900	0.005500
H381	H38	0.700400	0.531800	0.086000
H391	H39	0.690700	0.411700	0.161200
H401	H40	0.561600	0.359200	0.116500
H411	H41	0.516900	0.394100	0.005000
H421	H42	0.632000	0.439600	0.946700
H431	H43	0.478100	0.609400	0.192300
H441	H44	0.278500	0.509700	0.196500
H451	H45	0.515500	0.357700	0.333200
H461	H46	0.706100	0.464000	0.327100
H471	H47	0.896900	0.335100	0.279300
H481	H48	0.088000	0.440600	0.275800
H491	H49	0.370800	0.247200	0.256500
H501	H50	0.170900	0.147500	0.257800
H511	H51	0.975000	0.570000	0.376000
H521	H52	0.889000	0.641000	0.386000
H531	H53	0.805000	0.708000	0.096000
H541	H54	0.660000	0.716000	0.116000
H551	H55	0.217400	0.971100	0.505500
H561	H56	0.299600	0.968200	0.586000
H571	H57	0.309300	0.088300	0.661200
H581	H58	0.438400	0.140800	0.616500
H591	H59	0.483100	0.105900	0.505000
H601	H60	0.368000	0.060400	0.446700
H611	H61	0.521900	0.890600	0.692300
H621	H62	0.721500	0.990300	0.696500
H631	H63	0.484500	0.142300	0.833200
H641	H64	0.293900	0.036000	0.827100
H651	H65	0.103100	0.164900	0.779300
H661	H66	0.912000	0.059400	0.775800
H671	H67	0.629200	0.252800	0.756500
H681	H68	0.829100	0.352500	0.757800
H691	H69	0.025000	0.930000	0.876000
H701	H70	0.111000	0.859000	0.886000
H711	H71	0.195000	0.792000	0.596000
H721	H72	0.340000	0.784000	0.616000
C11	C1	0.226700	0.499100	0.944000
C21	C2	0.330600	0.630700	0.880200
C31	C3	0.263200	0.715900	0.860300
C41	C4	0.382000	0.607500	0.015100
C51	C5	0.362000	0.695300	0.053000
C61	C6	0.514700	0.442400	0.778800
C71	C7	0.634100	0.501600	0.776800
C81	C8	0.624700	0.578100	0.735100
C91	C9	0.495000	0.591000	0.696000
C101	C10	0.381400	0.527500	0.700500
C111	C11	0.005500	0.682700	0.726000
C121	C12	0.892100	0.619300	0.727300
C131	C13	0.749100	0.644400	0.733300
C141	C14	0.725800	0.733200	0.739100
C151	C15	0.845500	0.792100	0.738200
C161	C16	0.773300	0.000900	0.444000
C171	C17	0.669400	0.869300	0.380200
C181	C18	0.736800	0.784100	0.360300
C191	C19	0.618000	0.892500	0.515100
C201	C20	0.638000	0.804700	0.553000
C211	C21	0.485300	0.057600	0.278800
C221	C22	0.365900	0.998400	0.276800
C231	C23	0.375300	0.921900	0.235100
C241	C24	0.505000	0.909000	0.196000
C251	C25	0.618600	0.972500	0.200500
C261	C26	0.994500	0.817300	0.226000
C271	C27	0.107900	0.880700	0.227300
C281	C28	0.250900	0.855600	0.233300
C291	C29	0.274200	0.766800	0.239100
C301	C30	0.154500	0.707900	0.238200
C311	C31	0.773300	0.500900	0.056000
C321	C32	0.669400	0.369300	0.119800
C331	C33	0.736800	0.284100	0.139700
C341	C34	0.618000	0.392500	0.984900
C351	C35	0.638000	0.304700	0.947000
C361	C36	0.485300	0.557600	0.221200
C371	C37	0.365900	0.498400	0.223200
C381	C38	0.375300	0.421900	0.264900
C391	C39	0.505000	0.409000	0.304000
C401	C40	0.618600	0.472500	0.299500
C411	C41	0.994500	0.317300	0.274000
C421	C42	0.107900	0.380700	0.272700
C431	C43	0.250900	0.355600	0.266700
C441	C44	0.274200	0.266800	0.260900
C451	C45	0.154500	0.207900	0.261800
C461	C46	0.226700	0.999100	0.556000
C471	C47	0.330600	0.130700	0.619800
C481	C48	0.263200	0.215900	0.639700
C491	C49	0.382000	0.107500	0.484900
C501	C50	0.362000	0.195300	0.447000
C511	C51	0.514700	0.942400	0.721200
C521	C52	0.634100	0.001600	0.723200
C531	C53	0.624700	0.078100	0.764900
C541	C54	0.495000	0.091000	0.804000
C551	C55	0.381400	0.027500	0.799500
C561	C56	0.005500	0.182700	0.774000
C571	C57	0.892100	0.119300	0.772700
C581	C58	0.749100	0.144400	0.766700
C591	C59	0.725800	0.233200	0.760900
C601	C60	0.845500	0.292100	0.761800
N11	N1	0.275800	0.592550	0.952680
N21	N2	0.389200	0.454800	0.741790
N31	N3	0.984000	0.767800	0.731900
N41	N4	0.724200	0.907450	0.452680
N51	N5	0.610800	0.045200	0.241790
N61	N6	0.016000	0.732200	0.231900
N71	N7	0.724200	0.407450	0.047320
N81	N8	0.610800	0.545200	0.258210
N91	N9	0.016000	0.232200	0.268100
N101	N10	0.275800	0.092550	0.547320
N111	N11	0.389200	0.954800	0.758210
N121	N12	0.984000	0.267800	0.768100
O11	O1	0.071000	0.478500	0.811330
O21	O2	0.950900	0.419200	0.930220
O31	O3	0.985400	0.582080	0.912320
O41	O4	0.154900	0.739090	0.900030
O51	O5	0.313300	0.757650	0.804400
O61	O6	0.235800	0.726090	0.047500
O71	O7	0.466300	0.730800	0.088340
O81	O8	0.936900	0.729670	0.006370
O91	O9	0.105800	0.408560	0.637130
O101	O10	0.258100	0.302000	0.869960
O111	O11	0.929000	0.021500	0.311330
O121	O12	0.049100	0.080800	0.430220
O131	O13	0.014600	0.917920	0.412320
O141	O14	0.845100	0.760910	0.400030
O151	O15	0.686700	0.742350	0.304400
O161	O16	0.764200	0.773910	0.547500
O171	O17	0.533700	0.769200	0.588340
O181	O18	0.063100	0.770330	0.506370
O191	O19	0.894200	0.091440	0.137130
O201	O20	0.741900	0.198000	0.369960
O211	O21	0.929000	0.521500	0.188670
O221	O22	0.049100	0.580800	0.069780
O231	O23	0.014600	0.417920	0.087680
O241	O24	0.845100	0.260910	0.099970
O251	O25	0.686700	0.242350	0.195600
O261	O26	0.764200	0.273910	0.952500
O271	O27	0.533700	0.269200	0.911660
O281	O28	0.063100	0.270330	0.993630
O291	O29	0.894200	0.591440	0.362870
O301	O30	0.741900	0.698000	0.130040
O311	O31	0.071000	0.978500	0.688670
O321	O32	0.950900	0.919200	0.569780
O331	O33	0.985400	0.082080	0.587680
O341	O34	0.154900	0.239090	0.599970
O351	O35	0.313300	0.257650	0.695600
O361	O36	0.235800	0.226090	0.452500
O371	O37	0.466300	0.230800	0.411660
O381	O38	0.936900	0.229670	0.493630
O391	O39	0.105800	0.908560	0.862870
O401	O40	0.258100	0.802000	0.630040
