data_NAHGUB_freeONLY_PM
_symmetry_space_group_name_H-M	'P1'
_cell_length_a	10.097000
_cell_length_b	12.810100
_cell_length_c	10.922900
_cell_angle_alpha	90.000000
_cell_angle_beta	102.581000
_cell_angle_gamma	90.000000
_symmetry_Int_Tables_number 1

loop_
_symmetry_equiv_pos_as_xyz
'x,y,z'

loop_
_atom_site_label
_atom_site_type_symbol
_atom_site_fract_x
_atom_site_fract_y
_atom_site_fract_z
Zn11	Zn1	0.731240	0.355230	0.279880
N11	N1	0.258400	0.741100	0.573900
N21	N2	0.265500	0.846200	0.588100
N31	N3	0.280600	0.885900	0.481800
N41	N4	0.281800	0.810700	0.397700
O11	O1	0.889500	0.452800	0.305900
O21	O2	0.000200	0.306300	0.285900
O31	O3	0.475200	0.325400	0.249100
O41	O4	0.599500	0.466700	0.305400
C11	C1	0.996600	0.401000	0.303700
C21	C2	0.486700	0.416600	0.286100
C31	C3	0.267800	0.722900	0.457800
C41	C4	0.128600	0.463000	0.329300
C51	C5	0.242200	0.417400	0.298200
H11	H1	0.235600	0.351100	0.262900
C61	C6	0.365600	0.470600	0.319700
C71	C7	0.375200	0.571500	0.369600
H21	H2	0.456800	0.607800	0.382000
C81	C8	0.260500	0.617700	0.400900
C91	C9	0.137700	0.563100	0.380000
H31	H3	0.061700	0.593800	0.400000
Zn21	Zn2	0.268760	0.855230	0.220120
N51	N5	0.741600	0.241100	0.926100
N61	N6	0.734500	0.346200	0.911900
N71	N7	0.719400	0.385900	0.018200
N81	N8	0.718200	0.310700	0.102300
O51	O5	0.110500	0.952800	0.194100
O61	O6	0.999800	0.806300	0.214100
O71	O7	0.524800	0.825400	0.250900
O81	O8	0.400500	0.966700	0.194600
C101	C10	0.003400	0.901000	0.196300
C111	C11	0.513300	0.916600	0.213900
C121	C12	0.732200	0.222900	0.042200
C131	C13	0.871400	0.963000	0.170700
C141	C14	0.757800	0.917400	0.201800
H41	H4	0.764400	0.851100	0.237100
C151	C15	0.634400	0.970600	0.180300
C161	C16	0.624800	0.071500	0.130400
H51	H5	0.543200	0.107800	0.118000
C171	C17	0.739500	0.117700	0.099100
C181	C18	0.862300	0.063100	0.120000
H61	H6	0.938300	0.093800	0.100000
Zn31	Zn3	0.268760	0.644770	0.720120
N91	N9	0.741600	0.258900	0.426100
N101	N10	0.734500	0.153800	0.411900
N111	N11	0.719400	0.114100	0.518200
N121	N12	0.718200	0.189300	0.602300
O91	O9	0.110500	0.547200	0.694100
O101	O10	0.999800	0.693700	0.714100
O111	O11	0.524800	0.674600	0.750900
O121	O12	0.400500	0.533300	0.694600
C191	C19	0.003400	0.599000	0.696300
C201	C20	0.513300	0.583400	0.713900
C211	C21	0.732200	0.277100	0.542200
C221	C22	0.871400	0.537000	0.670700
C231	C23	0.757800	0.582600	0.701800
H71	H7	0.764400	0.648900	0.737100
C241	C24	0.634400	0.529400	0.680300
C251	C25	0.624800	0.428500	0.630400
H81	H8	0.543200	0.392200	0.618000
C261	C26	0.739500	0.382300	0.599100
C271	C27	0.862300	0.436900	0.620000
H91	H9	0.938300	0.406200	0.600000
Zn41	Zn4	0.731240	0.144770	0.779880
N131	N13	0.258400	0.758900	0.073900
N141	N14	0.265500	0.653800	0.088100
N151	N15	0.280600	0.614100	0.981800
N161	N16	0.281800	0.689300	0.897700
O131	O13	0.889500	0.047200	0.805900
O141	O14	0.000200	0.193700	0.785900
O151	O15	0.475200	0.174600	0.749100
O161	O16	0.599500	0.033300	0.805400
C281	C28	0.996600	0.099000	0.803700
C291	C29	0.486700	0.083400	0.786100
C301	C30	0.267800	0.777100	0.957800
C311	C31	0.128600	0.037000	0.829300
C321	C32	0.242200	0.082600	0.798200
H101	H10	0.235600	0.148900	0.762900
C331	C33	0.365600	0.029400	0.819700
C341	C34	0.375200	0.928500	0.869600
H111	H11	0.456800	0.892200	0.882000
C351	C35	0.260500	0.882300	0.900900
C361	C36	0.137700	0.936900	0.880000
H121	H12	0.061700	0.906200	0.900000
