data_NAHHAI_freeONLY_PM
_symmetry_space_group_name_H-M	'P1'
_cell_length_a	10.462200
_cell_length_b	7.187000
_cell_length_c	13.454400
_cell_angle_alpha	90.000000
_cell_angle_beta	112.694000
_cell_angle_gamma	90.000000
_symmetry_Int_Tables_number 1

loop_
_symmetry_equiv_pos_as_xyz
'x,y,z'

loop_
_atom_site_label
_atom_site_type_symbol
_atom_site_fract_x
_atom_site_fract_y
_atom_site_fract_z
N11	N1	0.135500	0.096400	0.260600
N21	N2	0.096400	0.157200	0.161800
O11	O1	0.802500	0.965800	0.042300
N31	N3	0.864500	0.596400	0.739400
N41	N4	0.903600	0.657200	0.838200
O21	O2	0.197500	0.465800	0.957700
N51	N5	0.864500	0.903600	0.739400
N61	N6	0.903600	0.842800	0.838200
O31	O3	0.197500	0.034200	0.957700
N71	N7	0.135500	0.403600	0.260600
N81	N8	0.096400	0.342800	0.161800
O41	O4	0.802500	0.534200	0.042300
Cd11	Cd1	0.856300	0.250000	0.725120
O51	O5	0.635000	0.250000	0.622600
O61	O6	0.605600	0.250000	0.776700
O71	O7	0.114300	0.250000	0.762700
O81	O8	0.943600	0.250000	0.601500
O91	O9	0.902500	0.250000	0.902400
C11	C1	0.564000	0.250000	0.679100
C21	C2	0.407800	0.250000	0.614500
C31	C3	0.359400	0.250000	0.505200
H11	H1	0.421500	0.250000	0.471000
C41	C4	0.214300	0.250000	0.442700
C51	C5	0.126400	0.250000	0.493000
H21	H2	0.031300	0.250000	0.453500
C61	C6	0.179600	0.250000	0.608000
C71	C7	0.314200	0.250000	0.667800
H31	H3	0.346400	0.250000	0.742600
C81	C8	0.071100	0.250000	0.659000
C91	C9	0.163900	0.250000	0.322600
Cd21	Cd2	0.143700	0.750000	0.274880
O101	O10	0.365000	0.750000	0.377400
O111	O11	0.394400	0.750000	0.223300
O121	O12	0.885700	0.750000	0.237300
O131	O13	0.056400	0.750000	0.398500
O141	O14	0.097500	0.750000	0.097600
C101	C10	0.436000	0.750000	0.320900
C111	C11	0.592200	0.750000	0.385500
C121	C12	0.640600	0.750000	0.494800
H41	H4	0.578500	0.750000	0.529000
C131	C13	0.785700	0.750000	0.557300
C141	C14	0.873600	0.750000	0.507000
H51	H5	0.968700	0.750000	0.546500
C151	C15	0.820400	0.750000	0.392000
C161	C16	0.685800	0.750000	0.332200
H61	H6	0.653600	0.750000	0.257400
C171	C17	0.928900	0.750000	0.341000
C181	C18	0.836100	0.750000	0.677400
Cd31	Cd3	0.000000	0.000000	0.000000
Cd41	Cd4	0.000000	0.500000	0.000000
