data_NANMAS_charged_PM
_symmetry_space_group_name_H-M	'P1'
_cell_length_a	18.473200
_cell_length_b	18.473200
_cell_length_c	18.473200
_cell_angle_alpha	60.000000
_cell_angle_beta	60.000000
_cell_angle_gamma	60.000000
_symmetry_Int_Tables_number 1

loop_
_symmetry_equiv_pos_as_xyz
'x,y,z'

loop_
_atom_site_label
_atom_site_type_symbol
_atom_site_fract_x
_atom_site_fract_y
_atom_site_fract_z
La11	La1	0.750000	0.750000	0.250000
La21	La2	0.250000	0.250000	0.250000
La31	La3	0.750000	0.250000	0.250000
La41	La4	0.750000	0.250000	0.750000
La51	La5	0.250000	0.250000	0.750000
La61	La6	0.750000	0.750000	0.750000
La71	La7	0.250000	0.750000	0.750000
La81	La8	0.250000	0.750000	0.250000
Mg11	Mg1	0.000000	0.000000	0.000000
Mg21	Mg2	0.500000	0.500000	0.000000
Mg31	Mg3	0.500000	0.000000	0.500000
Mg41	Mg4	0.500000	0.000000	0.000000
Mg51	Mg5	0.000000	0.000000	0.500000
Mg61	Mg6	0.500000	0.500000	0.500000
Mg71	Mg7	0.000000	0.500000	0.000000
Mg81	Mg8	0.000000	0.500000	0.500000
H11	H1	0.993200	0.779400	0.154200
H21	H2	0.932500	0.845900	0.207700
H31	H3	0.279400	0.493200	0.073200
H41	H4	0.345900	0.432500	0.013900
H51	H5	0.654200	0.073200	0.493200
H61	H6	0.707700	0.013900	0.432500
H71	H7	0.573200	0.154200	0.779400
H81	H8	0.513900	0.207700	0.845900
H91	H9	0.993200	0.154200	0.073200
H101	H10	0.932500	0.207700	0.013900
H111	H11	0.279400	0.073200	0.154200
H121	H12	0.345900	0.013900	0.207700
H131	H13	0.654200	0.493200	0.779400
H141	H14	0.707700	0.432500	0.845900
H151	H15	0.573200	0.779400	0.493200
H161	H16	0.513900	0.845900	0.432500
H171	H17	0.993200	0.073200	0.779400
H181	H18	0.932500	0.013900	0.845900
H191	H19	0.279400	0.154200	0.493200
H201	H20	0.345900	0.207700	0.432500
H211	H21	0.654200	0.779400	0.073200
H221	H22	0.707700	0.845900	0.013900
H231	H23	0.573200	0.493200	0.154200
H241	H24	0.513900	0.432500	0.207700
H251	H25	0.220600	0.006800	0.345800
H261	H26	0.154100	0.067500	0.292300
H271	H27	0.506800	0.720600	0.426800
H281	H28	0.567500	0.654100	0.486100
H291	H29	0.926800	0.345800	0.006800
H301	H30	0.986100	0.292300	0.067500
H311	H31	0.845800	0.426800	0.720600
H321	H32	0.792300	0.486100	0.654100
H331	H33	0.845800	0.006800	0.426800
H341	H34	0.792300	0.067500	0.486100
H351	H35	0.926800	0.720600	0.345800
H361	H36	0.986100	0.654100	0.292300
H371	H37	0.506800	0.345800	0.720600
H381	H38	0.567500	0.292300	0.654100
H391	H39	0.220600	0.426800	0.006800
H401	H40	0.154100	0.486100	0.067500
H411	H41	0.926800	0.006800	0.720600
H421	H42	0.986100	0.067500	0.654100
H431	H43	0.845800	0.720600	0.006800
H441	H44	0.792300	0.654100	0.067500
H451	H45	0.220600	0.345800	0.426800
H461	H46	0.154100	0.292300	0.486100
H471	H47	0.506800	0.426800	0.345800
H481	H48	0.567500	0.486100	0.292300
H491	H49	0.006800	0.220600	0.845800
H501	H50	0.067500	0.154100	0.792300
H511	H51	0.720600	0.506800	0.926800
H521	H52	0.654100	0.567500	0.986100
H531	H53	0.345800	0.926800	0.506800
H541	H54	0.292300	0.986100	0.567500
H551	H55	0.426800	0.845800	0.220600
H561	H56	0.486100	0.792300	0.154100
H571	H57	0.006800	0.845800	0.926800
H581	H58	0.067500	0.792300	0.986100
H591	H59	0.720600	0.926800	0.845800
H601	H60	0.654100	0.986100	0.792300
H611	H61	0.345800	0.506800	0.220600
H621	H62	0.292300	0.567500	0.154100
H631	H63	0.426800	0.220600	0.506800
H641	H64	0.486100	0.154100	0.567500
H651	H65	0.006800	0.926800	0.220600
H661	H66	0.067500	0.986100	0.154100
H671	H67	0.720600	0.845800	0.506800
H681	H68	0.654100	0.792300	0.567500
H691	H69	0.345800	0.220600	0.926800
H701	H70	0.292300	0.154100	0.986100
H711	H71	0.426800	0.506800	0.845800
H721	H72	0.486100	0.567500	0.792300
H731	H73	0.779400	0.993200	0.654200
H741	H74	0.845900	0.932500	0.707700
H751	H75	0.493200	0.279400	0.573200
H761	H76	0.432500	0.345900	0.513900
H771	H77	0.073200	0.654200	0.993200
H781	H78	0.013900	0.707700	0.932500
H791	H79	0.154200	0.573200	0.279400
H801	H80	0.207700	0.513900	0.345900
H811	H81	0.154200	0.993200	0.573200
H821	H82	0.207700	0.932500	0.513900
H831	H83	0.073200	0.279400	0.654200
H841	H84	0.013900	0.345900	0.707700
H851	H85	0.493200	0.654200	0.279400
H861	H86	0.432500	0.707700	0.345900
H871	H87	0.779400	0.573200	0.993200
H881	H88	0.845900	0.513900	0.932500
H891	H89	0.073200	0.993200	0.279400
H901	H90	0.013900	0.932500	0.345900
H911	H91	0.154200	0.279400	0.993200
H921	H92	0.207700	0.345900	0.932500
H931	H93	0.779400	0.654200	0.573200
H941	H94	0.845900	0.707700	0.513900
H951	H95	0.493200	0.573200	0.654200
H961	H96	0.432500	0.513900	0.707700
C11	C1	0.932100	0.811300	0.182100
C21	C2	0.887110	0.872290	0.113510
C31	C3	0.311300	0.432100	0.074500
C41	C4	0.372290	0.387110	0.127090
C51	C5	0.682100	0.074500	0.432100
C61	C6	0.613510	0.127090	0.387110
C71	C7	0.574500	0.182100	0.811300
C81	C8	0.627090	0.113510	0.872290
C91	C9	0.932100	0.182100	0.074500
C101	C10	0.887110	0.113510	0.127090
C111	C11	0.311300	0.074500	0.182100
C121	C12	0.372290	0.127090	0.113510
C131	C13	0.682100	0.432100	0.811300
C141	C14	0.613510	0.387110	0.872290
C151	C15	0.574500	0.811300	0.432100
C161	C16	0.627090	0.872290	0.387110
C171	C17	0.932100	0.074500	0.811300
C181	C18	0.887110	0.127090	0.872290
C191	C19	0.311300	0.182100	0.432100
C201	C20	0.372290	0.113510	0.387110
C211	C21	0.682100	0.811300	0.074500
C221	C22	0.613510	0.872290	0.127090
C231	C23	0.574500	0.432100	0.182100
C241	C24	0.627090	0.387110	0.113510
C251	C25	0.188700	0.067900	0.317900
C261	C26	0.127710	0.112890	0.386490
C271	C27	0.567900	0.688700	0.425500
C281	C28	0.612890	0.627710	0.372910
C291	C29	0.925500	0.317900	0.067900
C301	C30	0.872910	0.386490	0.112890
C311	C31	0.817900	0.425500	0.688700
C321	C32	0.886490	0.372910	0.627710
C331	C33	0.817900	0.067900	0.425500
C341	C34	0.886490	0.112890	0.372910
C351	C35	0.925500	0.688700	0.317900
C361	C36	0.872910	0.627710	0.386490
C371	C37	0.567900	0.317900	0.688700
C381	C38	0.612890	0.386490	0.627710
C391	C39	0.188700	0.425500	0.067900
C401	C40	0.127710	0.372910	0.112890
C411	C41	0.925500	0.067900	0.688700
C421	C42	0.872910	0.112890	0.627710
C431	C43	0.817900	0.688700	0.067900
C441	C44	0.886490	0.627710	0.112890
C451	C45	0.188700	0.317900	0.425500
C461	C46	0.127710	0.386490	0.372910
C471	C47	0.567900	0.425500	0.317900
C481	C48	0.612890	0.372910	0.386490
C491	C49	0.067900	0.188700	0.817900
C501	C50	0.112890	0.127710	0.886490
C511	C51	0.688700	0.567900	0.925500
C521	C52	0.627710	0.612890	0.872910
C531	C53	0.317900	0.925500	0.567900
C541	C54	0.386490	0.872910	0.612890
C551	C55	0.425500	0.817900	0.188700
C561	C56	0.372910	0.886490	0.127710
C571	C57	0.067900	0.817900	0.925500
C581	C58	0.112890	0.886490	0.872910
C591	C59	0.688700	0.925500	0.817900
C601	C60	0.627710	0.872910	0.886490
C611	C61	0.317900	0.567900	0.188700
C621	C62	0.386490	0.612890	0.127710
C631	C63	0.425500	0.188700	0.567900
C641	C64	0.372910	0.127710	0.612890
C651	C65	0.067900	0.925500	0.188700
C661	C66	0.112890	0.872910	0.127710
C671	C67	0.688700	0.817900	0.567900
C681	C68	0.627710	0.886490	0.612890
C691	C69	0.317900	0.188700	0.925500
C701	C70	0.386490	0.127710	0.872910
C711	C71	0.425500	0.567900	0.817900
C721	C72	0.372910	0.612890	0.886490
C731	C73	0.811300	0.932100	0.682100
C741	C74	0.872290	0.887110	0.613510
C751	C75	0.432100	0.311300	0.574500
C761	C76	0.387110	0.372290	0.627090
C771	C77	0.074500	0.682100	0.932100
C781	C78	0.127090	0.613510	0.887110
C791	C79	0.182100	0.574500	0.311300
C801	C80	0.113510	0.627090	0.372290
C811	C81	0.182100	0.932100	0.574500
C821	C82	0.113510	0.887110	0.627090
C831	C83	0.074500	0.311300	0.682100
C841	C84	0.127090	0.372290	0.613510
C851	C85	0.432100	0.682100	0.311300
C861	C86	0.387110	0.613510	0.372290
C871	C87	0.811300	0.574500	0.932100
C881	C88	0.872290	0.627090	0.887110
C891	C89	0.074500	0.932100	0.311300
C901	C90	0.127090	0.887110	0.372290
C911	C91	0.182100	0.311300	0.932100
C921	C92	0.113510	0.372290	0.887110
C931	C93	0.811300	0.682100	0.574500
C941	C94	0.872290	0.613510	0.627090
C951	C95	0.432100	0.574500	0.682100
C961	C96	0.387110	0.627090	0.613510
O11	O1	0.918950	0.928690	0.048410
O21	O2	0.820480	0.862220	0.123040
O31	O3	0.428690	0.418950	0.103950
O41	O4	0.362220	0.320480	0.194260
O51	O5	0.548410	0.103950	0.418950
O61	O6	0.623040	0.194260	0.320480
O71	O7	0.603950	0.048410	0.928690
O81	O8	0.694260	0.123040	0.862220
O91	O9	0.918950	0.048410	0.103950
O101	O10	0.820480	0.123040	0.194260
O111	O11	0.428690	0.103950	0.048410
O121	O12	0.362220	0.194260	0.123040
O131	O13	0.548410	0.418950	0.928690
O141	O14	0.623040	0.320480	0.862220
O151	O15	0.603950	0.928690	0.418950
O161	O16	0.694260	0.862220	0.320480
O171	O17	0.918950	0.103950	0.928690
O181	O18	0.820480	0.194260	0.862220
O191	O19	0.428690	0.048410	0.418950
O201	O20	0.362220	0.123040	0.320480
O211	O21	0.548410	0.928690	0.103950
O221	O22	0.623040	0.862220	0.194260
O231	O23	0.603950	0.418950	0.048410
O241	O24	0.694260	0.320480	0.123040
O251	O25	0.071310	0.081050	0.451590
O261	O26	0.137780	0.179520	0.376960
O271	O27	0.581050	0.571310	0.396050
O281	O28	0.679520	0.637780	0.305740
O291	O29	0.896050	0.451590	0.081050
O301	O30	0.805740	0.376960	0.179520
O311	O31	0.951590	0.396050	0.571310
O321	O32	0.876960	0.305740	0.637780
O331	O33	0.951590	0.081050	0.396050
O341	O34	0.876960	0.179520	0.305740
O351	O35	0.896050	0.571310	0.451590
O361	O36	0.805740	0.637780	0.376960
O371	O37	0.581050	0.451590	0.571310
O381	O38	0.679520	0.376960	0.637780
O391	O39	0.071310	0.396050	0.081050
O401	O40	0.137780	0.305740	0.179520
O411	O41	0.896050	0.081050	0.571310
O421	O42	0.805740	0.179520	0.637780
O431	O43	0.951590	0.571310	0.081050
O441	O44	0.876960	0.637780	0.179520
O451	O45	0.071310	0.451590	0.396050
O461	O46	0.137780	0.376960	0.305740
O471	O47	0.581050	0.396050	0.451590
O481	O48	0.679520	0.305740	0.376960
O491	O49	0.081050	0.071310	0.951590
O501	O50	0.179520	0.137780	0.876960
O511	O51	0.571310	0.581050	0.896050
O521	O52	0.637780	0.679520	0.805740
O531	O53	0.451590	0.896050	0.581050
O541	O54	0.376960	0.805740	0.679520
O551	O55	0.396050	0.951590	0.071310
O561	O56	0.305740	0.876960	0.137780
O571	O57	0.081050	0.951590	0.896050
O581	O58	0.179520	0.876960	0.805740
O591	O59	0.571310	0.896050	0.951590
O601	O60	0.637780	0.805740	0.876960
O611	O61	0.451590	0.581050	0.071310
O621	O62	0.376960	0.679520	0.137780
O631	O63	0.396050	0.071310	0.581050
O641	O64	0.305740	0.137780	0.679520
O651	O65	0.081050	0.896050	0.071310
O661	O66	0.179520	0.805740	0.137780
O671	O67	0.571310	0.951590	0.581050
O681	O68	0.637780	0.876960	0.679520
O691	O69	0.451590	0.071310	0.896050
O701	O70	0.376960	0.137780	0.805740
O711	O71	0.396050	0.581050	0.951590
O721	O72	0.305740	0.679520	0.876960
O731	O73	0.928690	0.918950	0.548410
O741	O74	0.862220	0.820480	0.623040
O751	O75	0.418950	0.428690	0.603950
O761	O76	0.320480	0.362220	0.694260
O771	O77	0.103950	0.548410	0.918950
O781	O78	0.194260	0.623040	0.820480
O791	O79	0.048410	0.603950	0.428690
O801	O80	0.123040	0.694260	0.362220
O811	O81	0.048410	0.918950	0.603950
O821	O82	0.123040	0.820480	0.694260
O831	O83	0.103950	0.428690	0.548410
O841	O84	0.194260	0.362220	0.623040
O851	O85	0.418950	0.548410	0.428690
O861	O86	0.320480	0.623040	0.362220
O871	O87	0.928690	0.603950	0.918950
O881	O88	0.862220	0.694260	0.820480
O891	O89	0.103950	0.918950	0.428690
O901	O90	0.194260	0.820480	0.362220
O911	O91	0.048410	0.428690	0.918950
O921	O92	0.123040	0.362220	0.820480
O931	O93	0.928690	0.548410	0.603950
O941	O94	0.862220	0.623040	0.694260
O951	O95	0.418950	0.603950	0.548410
O961	O96	0.320480	0.694260	0.623040
O971	O97	0.887500	0.750000	0.250000
O981	O98	0.250000	0.387500	0.112500
O991	O99	0.750000	0.112500	0.387500
O1001	O100	0.612500	0.250000	0.750000
O1011	O101	0.887500	0.250000	0.112500
O1021	O102	0.250000	0.112500	0.250000
O1031	O103	0.750000	0.387500	0.750000
O1041	O104	0.612500	0.750000	0.387500
O1051	O105	0.887500	0.112500	0.750000
O1061	O106	0.250000	0.250000	0.387500
O1071	O107	0.750000	0.750000	0.112500
O1081	O108	0.612500	0.387500	0.250000
O1091	O109	0.112500	0.250000	0.750000
O1101	O110	0.750000	0.612500	0.887500
O1111	O111	0.250000	0.887500	0.612500
O1121	O112	0.387500	0.750000	0.250000
O1131	O113	0.112500	0.750000	0.887500
O1141	O114	0.750000	0.887500	0.750000
O1151	O115	0.250000	0.612500	0.250000
O1161	O116	0.387500	0.250000	0.612500
O1171	O117	0.112500	0.887500	0.250000
O1181	O118	0.750000	0.750000	0.612500
O1191	O119	0.250000	0.250000	0.887500
O1201	O120	0.387500	0.612500	0.750000
