data_NANMEW_freeONLY_PM
_symmetry_space_group_name_H-M	'P1'
_cell_length_a	15.100000
_cell_length_b	15.677000
_cell_length_c	15.677000
_cell_angle_alpha	120.000000
_cell_angle_beta	90.000000
_cell_angle_gamma	90.000000
_symmetry_Int_Tables_number 1

loop_
_symmetry_equiv_pos_as_xyz
'x,y,z'

loop_
_atom_site_label
_atom_site_type_symbol
_atom_site_fract_x
_atom_site_fract_y
_atom_site_fract_z
La11	La1	0.750000	0.333330	0.666660
La21	La2	0.750000	0.666670	0.333340
La31	La3	0.250000	0.666670	0.333340
La41	La4	0.250000	0.333330	0.666660
Mg11	Mg1	0.000000	0.500000	0.000000
Mg21	Mg2	0.000000	0.500000	0.500000
Mg31	Mg3	0.000000	0.000000	0.500000
Mg41	Mg4	0.500000	0.500000	0.000000
Mg51	Mg5	0.500000	0.000000	0.500000
Mg61	Mg6	0.500000	0.500000	0.500000
H11	H1	0.953700	0.477500	0.842300
H21	H2	0.844000	0.235000	0.946600
H31	H3	0.953700	0.364800	0.522500
H41	H4	0.844000	0.711600	0.765000
H51	H5	0.953700	0.157700	0.635200
H61	H6	0.844000	0.053400	0.288400
H71	H7	0.953700	0.522500	0.157700
H81	H8	0.844000	0.765000	0.053400
H91	H9	0.953700	0.635200	0.477500
H101	H10	0.844000	0.288400	0.235000
H111	H11	0.953700	0.842300	0.364800
H121	H12	0.844000	0.946600	0.711600
H131	H13	0.546300	0.635200	0.157700
H141	H14	0.656000	0.288400	0.053400
H151	H15	0.546300	0.842300	0.477500
H161	H16	0.656000	0.946600	0.235000
H171	H17	0.546300	0.522500	0.364800
H181	H18	0.656000	0.765000	0.711600
H191	H19	0.546300	0.364800	0.842300
H201	H20	0.656000	0.711600	0.946600
H211	H21	0.546300	0.157700	0.522500
H221	H22	0.656000	0.053400	0.765000
H231	H23	0.546300	0.477500	0.635200
H241	H24	0.656000	0.235000	0.288400
H251	H25	0.046300	0.522500	0.157700
H261	H26	0.156000	0.765000	0.053400
H271	H27	0.046300	0.635200	0.477500
H281	H28	0.156000	0.288400	0.235000
H291	H29	0.046300	0.842300	0.364800
H301	H30	0.156000	0.946600	0.711600
H311	H31	0.046300	0.477500	0.842300
H321	H32	0.156000	0.235000	0.946600
H331	H33	0.046300	0.364800	0.522500
H341	H34	0.156000	0.711600	0.765000
H351	H35	0.046300	0.157700	0.635200
H361	H36	0.156000	0.053400	0.288400
H371	H37	0.453700	0.364800	0.842300
H381	H38	0.344000	0.711600	0.946600
H391	H39	0.453700	0.157700	0.522500
H401	H40	0.344000	0.053400	0.765000
H411	H41	0.453700	0.477500	0.635200
H421	H42	0.344000	0.235000	0.288400
H431	H43	0.453700	0.635200	0.157700
H441	H44	0.344000	0.288400	0.053400
H451	H45	0.453700	0.842300	0.477500
H461	H46	0.344000	0.946600	0.235000
H471	H47	0.453700	0.522500	0.364800
H481	H48	0.344000	0.765000	0.711600
H491	H49	0.750000	0.101000	0.899000
H501	H50	0.750000	0.798000	0.899000
H511	H51	0.750000	0.101000	0.202000
H521	H52	0.750000	0.899000	0.101000
H531	H53	0.750000	0.202000	0.101000
H541	H54	0.750000	0.899000	0.798000
H551	H55	0.250000	0.899000	0.101000
H561	H56	0.250000	0.202000	0.101000
H571	H57	0.250000	0.899000	0.798000
H581	H58	0.250000	0.101000	0.899000
H591	H59	0.250000	0.798000	0.899000
H601	H60	0.250000	0.101000	0.202000
C11	C1	0.805740	0.215110	0.893480
C21	C2	0.803060	0.264690	0.841080
C31	C3	0.860940	0.352560	0.865980
C41	C4	0.805740	0.678370	0.784890
C51	C5	0.803060	0.576390	0.735310
C61	C6	0.860940	0.513420	0.647440
C71	C7	0.805740	0.106520	0.321630
C81	C8	0.803060	0.158920	0.423610
C91	C9	0.860940	0.134020	0.486580
C101	C10	0.805740	0.784890	0.106520
C111	C11	0.803060	0.735310	0.158920
C121	C12	0.860940	0.647440	0.134020
C131	C13	0.805740	0.321630	0.215110
C141	C14	0.803060	0.423610	0.264690
C151	C15	0.860940	0.486580	0.352560
C161	C16	0.805740	0.893480	0.678370
C171	C17	0.803060	0.841080	0.576390
C181	C18	0.860940	0.865980	0.513420
C191	C19	0.694260	0.321630	0.106520
C201	C20	0.696940	0.423610	0.158920
C211	C21	0.639060	0.486580	0.134020
C221	C22	0.694260	0.893480	0.215110
C231	C23	0.696940	0.841080	0.264690
C241	C24	0.639060	0.865980	0.352560
C251	C25	0.694260	0.784890	0.678370
C261	C26	0.696940	0.735310	0.576390
C271	C27	0.639060	0.647440	0.513420
C281	C28	0.694260	0.678370	0.893480
C291	C29	0.696940	0.576390	0.841080
C301	C30	0.639060	0.513420	0.865980
C311	C31	0.694260	0.106520	0.784890
C321	C32	0.696940	0.158920	0.735310
C331	C33	0.639060	0.134020	0.647440
C341	C34	0.694260	0.215110	0.321630
C351	C35	0.696940	0.264690	0.423610
C361	C36	0.639060	0.352560	0.486580
C371	C37	0.194260	0.784890	0.106520
C381	C38	0.196940	0.735310	0.158920
C391	C39	0.139060	0.647440	0.134020
C401	C40	0.194260	0.321630	0.215110
C411	C41	0.196940	0.423610	0.264690
C421	C42	0.139060	0.486580	0.352560
C431	C43	0.194260	0.893480	0.678370
C441	C44	0.196940	0.841080	0.576390
C451	C45	0.139060	0.865980	0.513420
C461	C46	0.194260	0.215110	0.893480
C471	C47	0.196940	0.264690	0.841080
C481	C48	0.139060	0.352560	0.865980
C491	C49	0.194260	0.678370	0.784890
C501	C50	0.196940	0.576390	0.735310
C511	C51	0.139060	0.513420	0.647440
C521	C52	0.194260	0.106520	0.321630
C531	C53	0.196940	0.158920	0.423610
C541	C54	0.139060	0.134020	0.486580
C551	C55	0.305740	0.678370	0.893480
C561	C56	0.303060	0.576390	0.841080
C571	C57	0.360940	0.513420	0.865980
C581	C58	0.305740	0.106520	0.784890
C591	C59	0.303060	0.158920	0.735310
C601	C60	0.360940	0.134020	0.647440
C611	C61	0.305740	0.215110	0.321630
C621	C62	0.303060	0.264690	0.423610
C631	C63	0.360940	0.352560	0.486580
C641	C64	0.305740	0.321630	0.106520
C651	C65	0.303060	0.423610	0.158920
C661	C66	0.360940	0.486580	0.134020
C671	C67	0.305740	0.893480	0.215110
C681	C68	0.303060	0.841080	0.264690
C691	C69	0.360940	0.865980	0.352560
C701	C70	0.305740	0.784890	0.678370
C711	C71	0.303060	0.735310	0.576390
C721	C72	0.360940	0.647440	0.513420
C731	C73	0.750000	0.135250	0.864750
C741	C74	0.750000	0.729500	0.864750
C751	C75	0.750000	0.135250	0.270500
C761	C76	0.750000	0.864750	0.135250
C771	C77	0.750000	0.270500	0.135250
C781	C78	0.750000	0.864750	0.729500
C791	C79	0.250000	0.864750	0.135250
C801	C80	0.250000	0.270500	0.135250
C811	C81	0.250000	0.864750	0.729500
C821	C82	0.250000	0.135250	0.864750
C831	C83	0.250000	0.729500	0.864750
C841	C84	0.250000	0.135250	0.270500
N11	N1	0.750000	0.236530	0.763480
N21	N2	0.750000	0.526950	0.763480
N31	N3	0.750000	0.236530	0.473060
N41	N4	0.750000	0.763470	0.236520
N51	N5	0.750000	0.473050	0.236520
N61	N6	0.750000	0.763470	0.526940
N71	N7	0.250000	0.763470	0.236520
N81	N8	0.250000	0.473050	0.236520
N91	N9	0.250000	0.763470	0.526940
N101	N10	0.250000	0.236530	0.763480
N111	N11	0.250000	0.526950	0.763480
N121	N12	0.250000	0.236530	0.473060
O11	O1	0.905390	0.388430	0.942610
O21	O2	0.859380	0.383440	0.804930
O31	O3	0.905390	0.554180	0.611570
O41	O4	0.859380	0.421490	0.616560
O51	O5	0.905390	0.057390	0.445820
O61	O6	0.859380	0.195070	0.578510
O71	O7	0.905390	0.611570	0.057390
O81	O8	0.859380	0.616560	0.195070
O91	O9	0.905390	0.445820	0.388430
O101	O10	0.859380	0.578510	0.383440
O111	O11	0.905390	0.942610	0.554180
O121	O12	0.859380	0.804930	0.421490
O131	O13	0.594610	0.445820	0.057390
O141	O14	0.640620	0.578510	0.195070
O151	O15	0.594610	0.942610	0.388430
O161	O16	0.640620	0.804930	0.383440
O171	O17	0.594610	0.611570	0.554180
O181	O18	0.640620	0.616560	0.421490
O191	O19	0.594610	0.554180	0.942610
O201	O20	0.640620	0.421490	0.804930
O211	O21	0.594610	0.057390	0.611570
O221	O22	0.640620	0.195070	0.616560
O231	O23	0.594610	0.388430	0.445820
O241	O24	0.640620	0.383440	0.578510
O251	O25	0.094610	0.611570	0.057390
O261	O26	0.140620	0.616560	0.195070
O271	O27	0.094610	0.445820	0.388430
O281	O28	0.140620	0.578510	0.383440
O291	O29	0.094610	0.942610	0.554180
O301	O30	0.140620	0.804930	0.421490
O311	O31	0.094610	0.388430	0.942610
O321	O32	0.140620	0.383440	0.804930
O331	O33	0.094610	0.554180	0.611570
O341	O34	0.140620	0.421490	0.616560
O351	O35	0.094610	0.057390	0.445820
O361	O36	0.140620	0.195070	0.578510
O371	O37	0.405390	0.554180	0.942610
O381	O38	0.359380	0.421490	0.804930
O391	O39	0.405390	0.057390	0.611570
O401	O40	0.359380	0.195070	0.616560
O411	O41	0.405390	0.388430	0.445820
O421	O42	0.359380	0.383440	0.578510
O431	O43	0.405390	0.445820	0.057390
O441	O44	0.359380	0.578510	0.195070
O451	O45	0.405390	0.942610	0.388430
O461	O46	0.359380	0.804930	0.383440
O471	O47	0.405390	0.611570	0.554180
O481	O48	0.359380	0.616560	0.421490
O491	O49	0.000000	0.510360	0.870840
O501	O50	0.000000	0.360480	0.489640
O511	O51	0.000000	0.129160	0.639520
O521	O52	0.000000	0.489640	0.129160
O531	O53	0.000000	0.639520	0.510360
O541	O54	0.000000	0.870840	0.360480
O551	O55	0.500000	0.639520	0.129160
O561	O56	0.500000	0.870840	0.510360
O571	O57	0.500000	0.489640	0.360480
O581	O58	0.500000	0.360480	0.870840
O591	O59	0.500000	0.129160	0.489640
O601	O60	0.500000	0.510360	0.639520
