data_NANNEY_freeONLY_PM
_symmetry_space_group_name_H-M	'P1'
_cell_length_a	9.327200
_cell_length_b	21.377000
_cell_length_c	21.377000
_cell_angle_alpha	90.000000
_cell_angle_beta	90.000000
_cell_angle_gamma	90.000000
_symmetry_Int_Tables_number 1

loop_
_symmetry_equiv_pos_as_xyz
'x,y,z'

loop_
_atom_site_label
_atom_site_type_symbol
_atom_site_fract_x
_atom_site_fract_y
_atom_site_fract_z
Zn11	Zn1	0.422720	0.996940	0.646940
C11	C1	0.136600	0.951290	0.602660
H11	H1	0.106860	0.940200	0.642680
C21	C2	0.255400	0.985730	0.525910
H21	H2	0.328730	0.004270	0.503000
C31	C3	0.252000	0.937500	0.249050
H31	H3	0.317360	0.970000	0.253890
C41	C4	0.082700	0.878980	0.218140
H41	H4	0.004870	0.864840	0.194900
C51	C5	0.059800	0.786600	0.727600
H51	H5	0.031100	0.825880	0.713640
C61	C6	0.078500	0.703800	0.776200
H61	H6	0.060610	0.672520	0.805410
C71	C7	0.929000	0.910190	0.541590
C81	C8	0.903200	0.881440	0.484380
H71	H7	0.972680	0.882100	0.453180
C91	C9	0.773200	0.851750	0.474170
H81	H8	0.756010	0.832240	0.436020
C101	C10	0.667600	0.850800	0.520500
C111	C11	0.697600	0.878180	0.578020
H91	H9	0.629820	0.876510	0.609880
C121	C12	0.827200	0.907860	0.588340
H101	H10	0.845830	0.926290	0.626900
C131	C13	0.329700	0.869030	0.337840
C141	C14	0.330100	0.807030	0.358310
H111	H11	0.284660	0.776080	0.335040
C151	C15	0.398500	0.792340	0.413230
H121	H12	0.397460	0.751420	0.427990
C161	C16	0.469700	0.838930	0.446920
C171	C17	0.474000	0.900170	0.424450
H131	H13	0.525000	0.930700	0.446020
C181	C18	0.402500	0.915140	0.370310
H141	H14	0.403110	0.956060	0.355540
C191	C19	0.438800	0.803580	0.554280
C201	C20	0.488700	0.766630	0.603400
H151	H15	0.583430	0.753080	0.603240
C211	C21	0.400100	0.749800	0.652190
H161	H16	0.435650	0.726390	0.685420
C221	C22	0.257500	0.768130	0.651220
C231	C23	0.204200	0.801640	0.601380
H171	H17	0.107330	0.811930	0.600080
C241	C24	0.293600	0.820070	0.553270
H181	H18	0.257240	0.843460	0.520190
C251	C25	0.635400	0.045770	0.560600
C261	C26	0.599500	0.400420	0.769460
C271	C27	0.783200	0.075280	0.556030
C281	C28	0.879100	0.072400	0.605300
H191	H19	0.852010	0.052970	0.642400
C291	C29	0.016400	0.098250	0.600000
H201	H20	0.079280	0.096220	0.633720
C301	C30	0.059700	0.127020	0.544700
C311	C31	0.964100	0.127900	0.494900
H211	H21	0.991640	0.145710	0.457090
C321	C32	0.828000	0.102700	0.501100
H221	H22	0.765320	0.104250	0.467250
C331	C33	0.545600	0.352430	0.723610
C341	C34	0.641000	0.319900	0.685150
H231	H23	0.738840	0.327520	0.688730
C351	C35	0.593300	0.276630	0.641950
H241	H24	0.659410	0.255370	0.617300
C361	C36	0.445600	0.264220	0.634650
C371	C37	0.351200	0.295400	0.674700
H251	H25	0.253460	0.287380	0.671540
C381	C38	0.399200	0.338000	0.719030
H261	H26	0.334010	0.357080	0.745840
C391	C39	0.394100	0.221230	0.584490
C401	C40	0.473500	0.212300	0.530340
H271	H27	0.563780	0.230550	0.527010
C411	C41	0.421100	0.176900	0.481100
H281	H28	0.475240	0.171980	0.444900
C421	C42	0.287700	0.148700	0.486000
H291	H29	0.253330	0.124470	0.453120
C431	C43	0.204700	0.156260	0.539430
C441	C44	0.260100	0.191990	0.588050
H301	H30	0.206140	0.196640	0.624330
N11	N1	0.260700	0.978960	0.588310
N21	N2	0.062400	0.942210	0.550210
N31	N3	0.137900	0.963990	0.499940
N41	N4	0.148300	0.935550	0.206840
N51	N5	0.248100	0.885600	0.283530
N61	N6	0.138500	0.846500	0.264310
N71	N7	0.002300	0.757100	0.775600
N81	N8	0.165900	0.752370	0.701530
N91	N9	0.180800	0.697800	0.733300
N101	N10	0.532400	0.823710	0.506510
O11	O1	0.592700	0.038590	0.617520
O21	O2	0.570300	0.029700	0.514440
O31	O3	0.504000	0.425410	0.805200
O41	O4	0.728200	0.414970	0.770380
Zn21	Zn2	0.077280	0.003060	0.146940
C451	C45	0.363400	0.048710	0.102660
H311	H31	0.393140	0.059800	0.142680
C461	C46	0.244600	0.014270	0.025910
H321	H32	0.171270	0.995730	0.003000
C471	C47	0.248000	0.062500	0.749050
H331	H33	0.182640	0.030000	0.753890
C481	C48	0.417300	0.121020	0.718140
H341	H34	0.495130	0.135160	0.694900
C491	C49	0.440200	0.213400	0.227600
H351	H35	0.468900	0.174120	0.213640
C501	C50	0.421500	0.296200	0.276200
H361	H36	0.439390	0.327480	0.305410
C511	C51	0.571000	0.089810	0.041590
C521	C52	0.596800	0.118560	0.984380
H371	H37	0.527320	0.117900	0.953180
C531	C53	0.726800	0.148250	0.974170
H381	H38	0.743990	0.167760	0.936020
C541	C54	0.832400	0.149200	0.020500
C551	C55	0.802400	0.121820	0.078020
H391	H39	0.870180	0.123490	0.109880
C561	C56	0.672800	0.092140	0.088340
H401	H40	0.654170	0.073710	0.126900
C571	C57	0.170300	0.130970	0.837840
C581	C58	0.169900	0.192970	0.858310
H411	H41	0.215340	0.223920	0.835040
C591	C59	0.101500	0.207660	0.913230
H421	H42	0.102540	0.248580	0.927990
C601	C60	0.030300	0.161070	0.946920
C611	C61	0.026000	0.099830	0.924450
H431	H43	0.975000	0.069300	0.946020
C621	C62	0.097500	0.084860	0.870310
H441	H44	0.096890	0.043940	0.855540
C631	C63	0.061200	0.196420	0.054280
C641	C64	0.011300	0.233370	0.103400
H451	H45	0.916570	0.246920	0.103240
C651	C65	0.099900	0.250200	0.152190
H461	H46	0.064350	0.273610	0.185420
C661	C66	0.242500	0.231870	0.151220
C671	C67	0.295800	0.198360	0.101380
H471	H47	0.392670	0.188070	0.100080
C681	C68	0.206400	0.179930	0.053270
H481	H48	0.242760	0.156540	0.020190
C691	C69	0.864600	0.954230	0.060600
C701	C70	0.900500	0.599580	0.269460
C711	C71	0.716800	0.924720	0.056030
C721	C72	0.620900	0.927600	0.105300
H491	H49	0.647990	0.947030	0.142400
C731	C73	0.483600	0.901750	0.100000
H501	H50	0.420720	0.903780	0.133720
C741	C74	0.440300	0.872980	0.044700
C751	C75	0.535900	0.872100	0.994900
H511	H51	0.508360	0.854290	0.957090
C761	C76	0.672000	0.897300	0.001100
H521	H52	0.734680	0.895750	0.967250
C771	C77	0.954400	0.647570	0.223610
C781	C78	0.859000	0.680100	0.185150
H531	H53	0.761160	0.672480	0.188730
C791	C79	0.906700	0.723370	0.141950
H541	H54	0.840590	0.744630	0.117300
C801	C80	0.054400	0.735780	0.134650
C811	C81	0.148800	0.704600	0.174700
H551	H55	0.246540	0.712620	0.171540
C821	C82	0.100800	0.662000	0.219030
H561	H56	0.165990	0.642920	0.245840
C831	C83	0.105900	0.778770	0.084490
C841	C84	0.026500	0.787700	0.030340
H571	H57	0.936220	0.769450	0.027010
C851	C85	0.078900	0.823100	0.981100
H581	H58	0.024760	0.828020	0.944900
C861	C86	0.212300	0.851300	0.986000
H591	H59	0.246670	0.875530	0.953120
C871	C87	0.295300	0.843740	0.039430
C881	C88	0.239900	0.808010	0.088050
H601	H60	0.293860	0.803360	0.124330
N111	N11	0.239300	0.021040	0.088310
N121	N12	0.437600	0.057790	0.050210
N131	N13	0.362100	0.036010	0.999940
N141	N14	0.351700	0.064450	0.706840
N151	N15	0.251900	0.114400	0.783530
N161	N16	0.361500	0.153500	0.764310
N171	N17	0.497700	0.242900	0.275600
N181	N18	0.334100	0.247630	0.201530
N191	N19	0.319200	0.302200	0.233300
N201	N20	0.967600	0.176290	0.006510
O51	O5	0.907300	0.961410	0.117520
O61	O6	0.929700	0.970300	0.014440
O71	O7	0.996000	0.574590	0.305200
O81	O8	0.771800	0.585030	0.270380
Zn31	Zn3	0.577280	0.496940	0.853060
C891	C89	0.863400	0.451290	0.897340
H611	H61	0.893140	0.440200	0.857320
C901	C90	0.744600	0.485730	0.974090
H621	H62	0.671270	0.504270	0.997000
C911	C91	0.748000	0.437500	0.250950
H631	H63	0.682640	0.470000	0.246110
C921	C92	0.917300	0.378980	0.281860
H641	H64	0.995130	0.364840	0.305100
C931	C93	0.940200	0.286600	0.772400
H651	H65	0.968900	0.325880	0.786360
C941	C94	0.921500	0.203800	0.723800
H661	H66	0.939390	0.172520	0.694590
C951	C95	0.071000	0.410190	0.958410
C961	C96	0.096800	0.381440	0.015620
H671	H67	0.027320	0.382100	0.046820
C971	C97	0.226800	0.351750	0.025830
H681	H68	0.243990	0.332240	0.063980
C981	C98	0.332400	0.350800	0.979500
C991	C99	0.302400	0.378180	0.921980
H691	H69	0.370180	0.376510	0.890120
C1001	C100	0.172800	0.407860	0.911660
H701	H70	0.154170	0.426290	0.873100
C1011	C101	0.670300	0.369030	0.162160
C1021	C102	0.669900	0.307030	0.141690
H711	H71	0.715340	0.276080	0.164960
C1031	C103	0.601500	0.292340	0.086770
H721	H72	0.602540	0.251420	0.072010
C1041	C104	0.530300	0.338930	0.053080
C1051	C105	0.526000	0.400170	0.075550
H731	H73	0.475000	0.430700	0.053980
C1061	C106	0.597500	0.415140	0.129690
H741	H74	0.596890	0.456060	0.144460
C1071	C107	0.561200	0.303580	0.945720
C1081	C108	0.511300	0.266630	0.896600
H751	H75	0.416570	0.253080	0.896760
C1091	C109	0.599900	0.249800	0.847810
H761	H76	0.564350	0.226390	0.814580
C1101	C110	0.742500	0.268130	0.848780
C1111	C111	0.795800	0.301640	0.898620
H771	H77	0.892670	0.311930	0.899920
C1121	C112	0.706400	0.320070	0.946730
H781	H78	0.742760	0.343460	0.979810
C1131	C113	0.364600	0.545770	0.939400
C1141	C114	0.400500	0.900420	0.730540
C1151	C115	0.216800	0.575280	0.943970
C1161	C116	0.120900	0.572400	0.894700
H791	H79	0.147990	0.552970	0.857600
C1171	C117	0.983600	0.598250	0.900000
H801	H80	0.920720	0.596220	0.866280
C1181	C118	0.940300	0.627020	0.955300
C1191	C119	0.035900	0.627900	0.005100
H811	H81	0.008360	0.645710	0.042910
C1201	C120	0.172000	0.602700	0.998900
H821	H82	0.234680	0.604250	0.032750
C1211	C121	0.454400	0.852430	0.776390
C1221	C122	0.359000	0.819900	0.814850
H831	H83	0.261160	0.827520	0.811270
C1231	C123	0.406700	0.776630	0.858050
H841	H84	0.340590	0.755370	0.882700
C1241	C124	0.554400	0.764220	0.865350
C1251	C125	0.648800	0.795400	0.825300
H851	H85	0.746540	0.787380	0.828460
C1261	C126	0.600800	0.838000	0.780970
H861	H86	0.665990	0.857080	0.754160
C1271	C127	0.605900	0.721230	0.915510
C1281	C128	0.526500	0.712300	0.969660
H871	H87	0.436220	0.730550	0.972990
C1291	C129	0.578900	0.676900	0.018900
H881	H88	0.524760	0.671980	0.055100
C1301	C130	0.712300	0.648700	0.014000
H891	H89	0.746670	0.624470	0.046880
C1311	C131	0.795300	0.656260	0.960570
C1321	C132	0.739900	0.691990	0.911950
H901	H90	0.793860	0.696640	0.875670
N211	N21	0.739300	0.478960	0.911690
N221	N22	0.937600	0.442210	0.949790
N231	N23	0.862100	0.463990	0.000060
N241	N24	0.851700	0.435550	0.293160
N251	N25	0.751900	0.385600	0.216470
N261	N26	0.861500	0.346500	0.235690
N271	N27	0.997700	0.257100	0.724400
N281	N28	0.834100	0.252370	0.798470
N291	N29	0.819200	0.197800	0.766700
N301	N30	0.467600	0.323710	0.993490
O91	O9	0.407300	0.538590	0.882480
O101	O10	0.429700	0.529700	0.985560
O111	O11	0.496000	0.925410	0.694800
O121	O12	0.271800	0.914970	0.729620
Zn41	Zn4	0.922720	0.503060	0.353060
C1331	C133	0.636600	0.548710	0.397340
H911	H91	0.606860	0.559800	0.357320
C1341	C134	0.755400	0.514270	0.474090
H921	H92	0.828730	0.495730	0.497000
C1351	C135	0.752000	0.562500	0.750950
H931	H93	0.817360	0.530000	0.746110
C1361	C136	0.582700	0.621020	0.781860
H941	H94	0.504870	0.635160	0.805100
C1371	C137	0.559800	0.713400	0.272400
H951	H95	0.531100	0.674120	0.286360
C1381	C138	0.578500	0.796200	0.223800
H961	H96	0.560610	0.827480	0.194590
C1391	C139	0.429000	0.589810	0.458410
C1401	C140	0.403200	0.618560	0.515620
H971	H97	0.472680	0.617900	0.546820
C1411	C141	0.273200	0.648250	0.525830
H981	H98	0.256010	0.667760	0.563980
C1421	C142	0.167600	0.649200	0.479500
C1431	C143	0.197600	0.621820	0.421980
H991	H99	0.129820	0.623490	0.390120
C1441	C144	0.327200	0.592140	0.411660
H1001	H100	0.345830	0.573710	0.373100
C1451	C145	0.829700	0.630970	0.662160
C1461	C146	0.830100	0.692970	0.641690
H1011	H101	0.784660	0.723920	0.664960
C1471	C147	0.898500	0.707660	0.586770
H1021	H102	0.897460	0.748580	0.572010
C1481	C148	0.969700	0.661070	0.553080
C1491	C149	0.974000	0.599830	0.575550
H1031	H103	0.025000	0.569300	0.553980
C1501	C150	0.902500	0.584860	0.629690
H1041	H104	0.903110	0.543940	0.644460
C1511	C151	0.938800	0.696420	0.445720
C1521	C152	0.988700	0.733370	0.396600
H1051	H105	0.083430	0.746920	0.396760
C1531	C153	0.900100	0.750200	0.347810
H1061	H106	0.935650	0.773610	0.314580
C1541	C154	0.757500	0.731870	0.348780
C1551	C155	0.704200	0.698360	0.398620
H1071	H107	0.607330	0.688070	0.399920
C1561	C156	0.793600	0.679930	0.446730
H1081	H108	0.757240	0.656540	0.479810
C1571	C157	0.135400	0.454230	0.439400
C1581	C158	0.099500	0.099580	0.230540
C1591	C159	0.283200	0.424720	0.443970
C1601	C160	0.379100	0.427600	0.394700
H1091	H109	0.352010	0.447030	0.357600
C1611	C161	0.516400	0.401750	0.400000
H1101	H110	0.579280	0.403780	0.366280
C1621	C162	0.559700	0.372980	0.455300
C1631	C163	0.464100	0.372100	0.505100
H1111	H111	0.491640	0.354290	0.542910
C1641	C164	0.328000	0.397300	0.498900
H1121	H112	0.265320	0.395750	0.532750
C1651	C165	0.045600	0.147570	0.276390
C1661	C166	0.141000	0.180100	0.314850
H1131	H113	0.238840	0.172480	0.311270
C1671	C167	0.093300	0.223370	0.358050
H1141	H114	0.159410	0.244630	0.382700
C1681	C168	0.945600	0.235780	0.365350
C1691	C169	0.851200	0.204600	0.325300
H1151	H115	0.753460	0.212620	0.328460
C1701	C170	0.899200	0.162000	0.280970
H1161	H116	0.834010	0.142920	0.254160
C1711	C171	0.894100	0.278770	0.415510
C1721	C172	0.973500	0.287700	0.469660
H1171	H117	0.063780	0.269450	0.472990
C1731	C173	0.921100	0.323100	0.518900
H1181	H118	0.975240	0.328020	0.555100
C1741	C174	0.787700	0.351300	0.514000
H1191	H119	0.753330	0.375530	0.546880
C1751	C175	0.704700	0.343740	0.460570
C1761	C176	0.760100	0.308010	0.411950
H1201	H120	0.706140	0.303360	0.375670
N311	N31	0.760700	0.521040	0.411690
N321	N32	0.562400	0.557790	0.449790
N331	N33	0.637900	0.536010	0.500060
N341	N34	0.648300	0.564450	0.793160
N351	N35	0.748100	0.614400	0.716470
N361	N36	0.638500	0.653500	0.735690
N371	N37	0.502300	0.742900	0.224400
N381	N38	0.665900	0.747630	0.298470
N391	N39	0.680800	0.802200	0.266700
N401	N40	0.032400	0.676290	0.493490
O131	O13	0.092700	0.461410	0.382480
O141	O14	0.070300	0.470300	0.485560
O151	O15	0.004000	0.074590	0.194800
O161	O16	0.228200	0.085030	0.229620
