data_NANNAU_freeONLY_PM
_symmetry_space_group_name_H-M	'P1'
_cell_length_a	9.308600
_cell_length_b	21.182900
_cell_length_c	21.456000
_cell_angle_alpha	90.000000
_cell_angle_beta	90.000000
_cell_angle_gamma	90.000000
_symmetry_Int_Tables_number 1

loop_
_symmetry_equiv_pos_as_xyz
'x,y,z'

loop_
_atom_site_label
_atom_site_type_symbol
_atom_site_fract_x
_atom_site_fract_y
_atom_site_fract_z
Zn11	Zn1	0.922750	0.502860	0.146630
C11	C1	0.636600	0.548600	0.102200
H11	H1	0.606560	0.559740	0.142060
C21	C2	0.755900	0.514100	0.025800
H21	H2	0.829620	0.495340	0.003140
C31	C3	0.750900	0.562600	0.749100
H31	H3	0.815920	0.529690	0.754150
C41	C4	0.582300	0.621100	0.718100
H41	H4	0.504720	0.635570	0.694760
C51	C5	0.560600	0.713900	0.227400
H51	H5	0.532310	0.674240	0.213480
C61	C6	0.578600	0.796800	0.275500
H61	H6	0.560810	0.828380	0.304590
C71	C7	0.429300	0.589650	0.041200
C81	C8	0.402500	0.618100	0.984000
H71	H7	0.471540	0.617040	0.952680
C91	C9	0.272800	0.647800	0.974000
H81	H8	0.255180	0.667350	0.935890
C101	C10	0.167700	0.649000	0.020400
C111	C11	0.197600	0.621700	0.077400
H91	H9	0.129430	0.623230	0.109090
C121	C12	0.327200	0.592200	0.087900
H101	H10	0.346080	0.573920	0.126510
C131	C13	0.829100	0.630800	0.837800
C141	C14	0.829100	0.693000	0.858300
H111	H11	0.783980	0.724250	0.835060
C151	C15	0.896500	0.707600	0.913200
H121	H12	0.893980	0.748830	0.928140
C161	C16	0.969000	0.661000	0.946800
C171	C17	0.973200	0.599800	0.924100
H131	H13	0.024530	0.568950	0.945380
C181	C18	0.901700	0.584600	0.870300
H141	H14	0.902190	0.543280	0.855730
C191	C19	0.758300	0.732200	0.150800
C201	C20	0.900700	0.750400	0.151900
H151	H15	0.936810	0.773700	0.185100
C211	C21	0.988400	0.733400	0.102900
H161	H16	0.083210	0.747250	0.102550
C221	C22	0.938900	0.696230	0.053900
C231	C23	0.793300	0.680100	0.053400
H171	H17	0.756250	0.656620	0.020420
C241	C24	0.704100	0.698700	0.101400
H181	H18	0.607030	0.688390	0.100320
C251	C25	0.135300	0.454300	0.060900
C261	C26	0.098300	0.099400	0.269900
C271	C27	0.283700	0.424500	0.055800
C281	C28	0.379000	0.427500	0.105100
H191	H19	0.351330	0.447110	0.142000
C291	C29	0.516500	0.401400	0.100100
H201	H20	0.579230	0.403220	0.133820
C301	C30	0.559500	0.372700	0.044800
C311	C31	0.465200	0.372100	0.994800
H211	H21	0.493460	0.354420	0.957050
C321	C32	0.327900	0.398000	0.000800
H221	H22	0.265510	0.397110	0.966970
C331	C33	0.044500	0.147600	0.224100
C341	C34	0.140300	0.179900	0.185700
H231	H23	0.238260	0.172100	0.189330
C351	C35	0.092400	0.223200	0.142400
H241	H24	0.158680	0.244570	0.117770
C361	C36	0.945700	0.235500	0.135000
C371	C37	0.851000	0.204400	0.174700
H251	H25	0.753040	0.212300	0.171300
C381	C38	0.899000	0.161800	0.219100
H261	H26	0.833520	0.142570	0.245820
C391	C39	0.893600	0.278300	0.084800
C401	C40	0.974400	0.287200	0.030700
H271	H27	0.064990	0.269010	0.027540
C411	C41	0.921200	0.323000	0.981600
H281	H28	0.975440	0.327930	0.945540
C421	C42	0.787800	0.351200	0.986200
H291	H29	0.753240	0.375630	0.953450
C431	C43	0.705600	0.343400	0.039300
C441	C44	0.760200	0.307600	0.088100
H301	H30	0.705660	0.302980	0.124160
N11	N1	0.760600	0.521100	0.088100
N21	N2	0.562500	0.557730	0.049960
N31	N3	0.637900	0.535960	0.999740
N41	N4	0.647900	0.564570	0.706760
N51	N5	0.747800	0.614640	0.783230
N61	N6	0.637400	0.653320	0.764230
N71	N7	0.502200	0.743200	0.275000
N81	N8	0.666400	0.748100	0.201240
N91	N9	0.681000	0.803000	0.232500
N101	N10	0.031800	0.676100	0.006280
O11	O1	0.092800	0.461230	0.117150
O21	O2	0.070900	0.470450	0.014350
O31	O3	0.003500	0.074530	0.305560
O41	O4	0.227600	0.085160	0.271020
Zn21	Zn2	0.577250	0.497140	0.646630
C451	C45	0.863400	0.451400	0.602200
H311	H31	0.893440	0.440260	0.642060
C461	C46	0.744100	0.485900	0.525800
H321	H32	0.670380	0.504660	0.503140
C471	C47	0.749100	0.437400	0.249100
H331	H33	0.684080	0.470310	0.254150
C481	C48	0.917700	0.378900	0.218100
H341	H34	0.995280	0.364430	0.194760
C491	C49	0.939400	0.286100	0.727400
H351	H35	0.967690	0.325760	0.713480
C501	C50	0.921400	0.203200	0.775500
H361	H36	0.939190	0.171620	0.804590
C511	C51	0.070700	0.410350	0.541200
C521	C52	0.097500	0.381900	0.484000
H371	H37	0.028460	0.382960	0.452680
C531	C53	0.227200	0.352200	0.474000
H381	H38	0.244820	0.332650	0.435890
C541	C54	0.332300	0.351000	0.520400
C551	C55	0.302400	0.378300	0.577400
H391	H39	0.370570	0.376770	0.609090
C561	C56	0.172800	0.407800	0.587900
H401	H40	0.153920	0.426080	0.626510
C571	C57	0.670900	0.369200	0.337800
C581	C58	0.670900	0.307000	0.358300
H411	H41	0.716020	0.275750	0.335060
C591	C59	0.603500	0.292400	0.413200
H421	H42	0.606020	0.251170	0.428140
C601	C60	0.531000	0.339000	0.446800
C611	C61	0.526800	0.400200	0.424100
H431	H43	0.475470	0.431050	0.445380
C621	C62	0.598300	0.415400	0.370300
H441	H44	0.597810	0.456720	0.355730
C631	C63	0.741700	0.267800	0.650800
C641	C64	0.599300	0.249600	0.651900
H451	H45	0.563190	0.226300	0.685100
C651	C65	0.511600	0.266600	0.602900
H461	H46	0.416790	0.252750	0.602550
C661	C66	0.561100	0.303770	0.553900
C671	C67	0.706700	0.319900	0.553400
H471	H47	0.743750	0.343380	0.520420
C681	C68	0.795900	0.301300	0.601400
H481	H48	0.892970	0.311610	0.600320
C691	C69	0.364700	0.545700	0.560900
C701	C70	0.401700	0.900600	0.769900
C711	C71	0.216300	0.575500	0.555800
C721	C72	0.121000	0.572500	0.605100
H491	H49	0.148670	0.552890	0.642000
C731	C73	0.983500	0.598600	0.600100
H501	H50	0.920770	0.596780	0.633820
C741	C74	0.940500	0.627300	0.544800
C751	C75	0.034800	0.627900	0.494800
H511	H51	0.006540	0.645580	0.457050
C761	C76	0.172100	0.602000	0.500800
H521	H52	0.234490	0.602890	0.466970
C771	C77	0.455500	0.852400	0.724100
C781	C78	0.359700	0.820100	0.685700
H531	H53	0.261740	0.827900	0.689330
C791	C79	0.407600	0.776800	0.642400
H541	H54	0.341320	0.755430	0.617770
C801	C80	0.554300	0.764500	0.635000
C811	C81	0.649000	0.795600	0.674700
H551	H55	0.746960	0.787700	0.671300
C821	C82	0.601000	0.838200	0.719100
H561	H56	0.666480	0.857430	0.745820
C831	C83	0.606400	0.721700	0.584800
C841	C84	0.525600	0.712800	0.530700
H571	H57	0.435010	0.730990	0.527540
C851	C85	0.578800	0.677000	0.481600
H581	H58	0.524560	0.672070	0.445540
C861	C86	0.712200	0.648800	0.486200
H591	H59	0.746760	0.624370	0.453450
C871	C87	0.794400	0.656600	0.539300
C881	C88	0.739800	0.692400	0.588100
H601	H60	0.794340	0.697020	0.624160
N111	N11	0.739400	0.478900	0.588100
N121	N12	0.937500	0.442270	0.549960
N131	N13	0.862100	0.464040	0.499740
N141	N14	0.852100	0.435430	0.206760
N151	N15	0.752200	0.385360	0.283230
N161	N16	0.862600	0.346680	0.264230
N171	N17	0.997800	0.256800	0.775000
N181	N18	0.833600	0.251900	0.701240
N191	N19	0.819000	0.197000	0.732500
N201	N20	0.468200	0.323900	0.506280
O51	O5	0.407200	0.538770	0.617150
O61	O6	0.429100	0.529550	0.514350
O71	O7	0.496500	0.925470	0.805560
O81	O8	0.272400	0.914840	0.771020
Zn31	Zn3	0.077250	0.002860	0.353370
C891	C89	0.363400	0.048600	0.397800
H611	H61	0.393440	0.059740	0.357940
C901	C90	0.244100	0.014100	0.474200
H621	H62	0.170380	0.995340	0.496860
C911	C91	0.249100	0.062600	0.750900
H631	H63	0.184080	0.029690	0.745850
C921	C92	0.417700	0.121100	0.781900
H641	H64	0.495280	0.135570	0.805240
C931	C93	0.439400	0.213900	0.272600
H651	H65	0.467690	0.174240	0.286520
C941	C94	0.421400	0.296800	0.224500
H661	H66	0.439190	0.328380	0.195410
C951	C95	0.570700	0.089650	0.458800
C961	C96	0.597500	0.118100	0.516000
H671	H67	0.528460	0.117040	0.547320
C971	C97	0.727200	0.147800	0.526000
H681	H68	0.744820	0.167350	0.564110
C981	C98	0.832300	0.149000	0.479600
C991	C99	0.802400	0.121700	0.422600
H691	H69	0.870570	0.123230	0.390910
C1001	C100	0.672800	0.092200	0.412100
H701	H70	0.653920	0.073920	0.373490
C1011	C101	0.170900	0.130800	0.662200
C1021	C102	0.170900	0.193000	0.641700
H711	H71	0.216020	0.224250	0.664940
C1031	C103	0.103500	0.207600	0.586800
H721	H72	0.106020	0.248830	0.571860
C1041	C104	0.031000	0.161000	0.553200
C1051	C105	0.026800	0.099800	0.575900
H731	H73	0.975470	0.068950	0.554620
C1061	C106	0.098300	0.084600	0.629700
H741	H74	0.097810	0.043280	0.644270
C1071	C107	0.241700	0.232200	0.349200
C1081	C108	0.099300	0.250400	0.348100
H751	H75	0.063190	0.273700	0.314900
C1091	C109	0.011600	0.233400	0.397100
H761	H76	0.916790	0.247250	0.397450
C1101	C110	0.061100	0.196230	0.446100
C1111	C111	0.206700	0.180100	0.446600
H771	H77	0.243750	0.156620	0.479580
C1121	C112	0.295900	0.198700	0.398600
H781	H78	0.392970	0.188390	0.399680
C1131	C113	0.864700	0.954300	0.439100
C1141	C114	0.901700	0.599400	0.230100
C1151	C115	0.716300	0.924500	0.444200
C1161	C116	0.621000	0.927500	0.394900
H791	H79	0.648670	0.947110	0.358000
C1171	C117	0.483500	0.901400	0.399900
H801	H80	0.420770	0.903220	0.366180
C1181	C118	0.440500	0.872700	0.455200
C1191	C119	0.534800	0.872100	0.505200
H811	H81	0.506540	0.854420	0.542950
C1201	C120	0.672100	0.898000	0.499200
H821	H82	0.734490	0.897110	0.533030
C1211	C121	0.955500	0.647600	0.275900
C1221	C122	0.859700	0.679900	0.314300
H831	H83	0.761740	0.672100	0.310670
C1231	C123	0.907600	0.723200	0.357600
H841	H84	0.841320	0.744570	0.382230
C1241	C124	0.054300	0.735500	0.365000
C1251	C125	0.149000	0.704400	0.325300
H851	H85	0.246960	0.712300	0.328700
C1261	C126	0.101000	0.661800	0.280900
H861	H86	0.166480	0.642570	0.254180
C1271	C127	0.106400	0.778300	0.415200
C1281	C128	0.025600	0.787200	0.469300
H871	H87	0.935010	0.769010	0.472460
C1291	C129	0.078800	0.823000	0.518400
H881	H88	0.024560	0.827930	0.554460
C1301	C130	0.212200	0.851200	0.513800
H891	H89	0.246760	0.875630	0.546550
C1311	C131	0.294400	0.843400	0.460700
C1321	C132	0.239800	0.807600	0.411900
H901	H90	0.294340	0.802980	0.375840
N211	N21	0.239400	0.021100	0.411900
N221	N22	0.437500	0.057730	0.450040
N231	N23	0.362100	0.035960	0.500260
N241	N24	0.352100	0.064570	0.793240
N251	N25	0.252200	0.114640	0.716770
N261	N26	0.362600	0.153320	0.735770
N271	N27	0.497800	0.243200	0.225000
N281	N28	0.333600	0.248100	0.298760
N291	N29	0.319000	0.303000	0.267500
N301	N30	0.968200	0.176100	0.493720
O91	O9	0.907200	0.961230	0.382850
O101	O10	0.929100	0.970450	0.485650
O111	O11	0.996500	0.574530	0.194440
O121	O12	0.772400	0.585160	0.228980
Zn41	Zn4	0.422750	0.997140	0.853370
C1331	C133	0.136600	0.951400	0.897800
H911	H91	0.106560	0.940260	0.857940
C1341	C134	0.255900	0.985900	0.974200
H921	H92	0.329620	0.004660	0.996860
C1351	C135	0.250900	0.937400	0.250900
H931	H93	0.315920	0.970310	0.245850
C1361	C136	0.082300	0.878900	0.281900
H941	H94	0.004720	0.864430	0.305240
C1371	C137	0.060600	0.786100	0.772600
H951	H95	0.032310	0.825760	0.786520
C1381	C138	0.078600	0.703200	0.724500
H961	H96	0.060810	0.671620	0.695410
C1391	C139	0.929300	0.910350	0.958800
C1401	C140	0.902500	0.881900	0.016000
H971	H97	0.971540	0.882960	0.047320
C1411	C141	0.772800	0.852200	0.026000
H981	H98	0.755180	0.832650	0.064110
C1421	C142	0.667700	0.851000	0.979600
C1431	C143	0.697600	0.878300	0.922600
H991	H99	0.629430	0.876770	0.890910
C1441	C144	0.827200	0.907800	0.912100
H1001	H100	0.846080	0.926080	0.873490
C1451	C145	0.329100	0.869200	0.162200
C1461	C146	0.329100	0.807000	0.141700
H1011	H101	0.283980	0.775750	0.164940
C1471	C147	0.396500	0.792400	0.086800
H1021	H102	0.393980	0.751170	0.071860
C1481	C148	0.469000	0.839000	0.053200
C1491	C149	0.473200	0.900200	0.075900
H1031	H103	0.524530	0.931050	0.054620
C1501	C150	0.401700	0.915400	0.129700
H1041	H104	0.402190	0.956720	0.144270
C1511	C151	0.258300	0.767800	0.849200
C1521	C152	0.400700	0.749600	0.848100
H1051	H105	0.436810	0.726300	0.814900
C1531	C153	0.488400	0.766600	0.897100
H1061	H106	0.583210	0.752750	0.897450
C1541	C154	0.438900	0.803770	0.946100
C1551	C155	0.293300	0.819900	0.946600
H1071	H107	0.256250	0.843380	0.979580
C1561	C156	0.204100	0.801300	0.898600
H1081	H108	0.107030	0.811610	0.899680
C1571	C157	0.635300	0.045700	0.939100
C1581	C158	0.598300	0.400600	0.730100
C1591	C159	0.783700	0.075500	0.944200
C1601	C160	0.879000	0.072500	0.894900
H1091	H109	0.851330	0.052890	0.858000
C1611	C161	0.016500	0.098600	0.899900
H1101	H110	0.079230	0.096780	0.866180
C1621	C162	0.059500	0.127300	0.955200
C1631	C163	0.965200	0.127900	0.005200
H1111	H111	0.993460	0.145580	0.042950
C1641	C164	0.827900	0.102000	0.999200
H1121	H112	0.765510	0.102890	0.033030
C1651	C165	0.544500	0.352400	0.775900
C1661	C166	0.640300	0.320100	0.814300
H1131	H113	0.738260	0.327900	0.810670
C1671	C167	0.592400	0.276800	0.857600
H1141	H114	0.658680	0.255430	0.882230
C1681	C168	0.445700	0.264500	0.865000
C1691	C169	0.351000	0.295600	0.825300
H1151	H115	0.253040	0.287700	0.828700
C1701	C170	0.399000	0.338200	0.780900
H1161	H116	0.333520	0.357430	0.754180
C1711	C171	0.393600	0.221700	0.915200
C1721	C172	0.474400	0.212800	0.969300
H1171	H117	0.564990	0.230990	0.972460
C1731	C173	0.421200	0.177000	0.018400
H1181	H118	0.475440	0.172070	0.054460
C1741	C174	0.287800	0.148800	0.013800
H1191	H119	0.253240	0.124370	0.046550
C1751	C175	0.205600	0.156600	0.960700
C1761	C176	0.260200	0.192400	0.911900
H1201	H120	0.205660	0.197020	0.875840
N311	N31	0.260600	0.978900	0.911900
N321	N32	0.062500	0.942270	0.950040
N331	N33	0.137900	0.964040	0.000260
N341	N34	0.147900	0.935430	0.293240
N351	N35	0.247800	0.885360	0.216770
N361	N36	0.137400	0.846680	0.235770
N371	N37	0.002200	0.756800	0.725000
N381	N38	0.166400	0.751900	0.798760
N391	N39	0.181000	0.697000	0.767500
N401	N40	0.531800	0.823900	0.993720
O131	O13	0.592800	0.038770	0.882850
O141	O14	0.570900	0.029550	0.985650
O151	O15	0.503500	0.425470	0.694440
O161	O16	0.727600	0.414840	0.728980
