data_NAQLAT_freeONLY_PM
_symmetry_space_group_name_H-M	'P1'
_cell_length_a	12.558300
_cell_length_b	14.594900
_cell_length_c	25.741000
_cell_angle_alpha	100.093000
_cell_angle_beta	90.000000
_cell_angle_gamma	90.000000
_symmetry_Int_Tables_number 1

loop_
_symmetry_equiv_pos_as_xyz
'x,y,z'

loop_
_atom_site_label
_atom_site_type_symbol
_atom_site_fract_x
_atom_site_fract_y
_atom_site_fract_z
Zn11	Zn1	0.104790	0.883440	0.876600
Zn21	Zn2	0.721390	0.017320	0.194490
Zn31	Zn3	0.924780	0.930050	0.470160
Zn41	Zn4	0.604790	0.616560	0.623400
Zn51	Zn5	0.221390	0.482680	0.305510
Zn61	Zn6	0.424780	0.569950	0.029840
Zn71	Zn7	0.895210	0.116560	0.123400
Zn81	Zn8	0.278610	0.982680	0.805510
Zn91	Zn9	0.075220	0.069950	0.529840
Zn101	Zn10	0.395210	0.383440	0.376600
Zn111	Zn11	0.778610	0.517320	0.694490
Zn121	Zn12	0.575220	0.430050	0.970160
H11	H1	0.819400	0.701400	0.312600
H21	H2	0.590300	0.509100	0.451500
H31	H3	0.047100	0.986800	0.683500
H41	H4	0.518100	0.066900	0.177000
H51	H5	0.774000	0.787400	0.493200
H61	H6	0.611800	0.844600	0.209400
H71	H7	0.709900	0.060200	0.312900
H81	H8	0.889700	0.835200	0.358600
H91	H9	0.517900	0.712400	0.238400
H101	H10	0.717200	0.549400	0.312900
H111	H11	0.451500	0.644400	0.306100
H121	H12	0.626800	0.457200	0.362600
H131	H13	0.648300	0.996300	0.382100
H141	H14	0.662200	0.647100	0.495500
H151	H15	0.471500	0.719600	0.394200
H161	H16	0.556500	0.860400	0.414900
H171	H17	0.927800	0.888800	0.009100
H181	H18	0.909300	0.785500	0.750600
H191	H19	0.684700	0.771200	0.076900
H201	H20	0.831400	0.811700	0.601100
H211	H21	0.805300	0.642500	0.937100
H221	H22	0.477800	0.911900	0.154200
H231	H23	0.448100	0.975800	0.111800
H241	H24	0.552200	0.911600	0.103700
H251	H25	0.319400	0.798600	0.187400
H261	H26	0.090300	0.990900	0.048500
H271	H27	0.547100	0.513200	0.816500
H281	H28	0.018100	0.433100	0.323000
H291	H29	0.274000	0.712600	0.006800
H301	H30	0.111800	0.655400	0.290600
H311	H31	0.209900	0.439800	0.187100
H321	H32	0.389700	0.664800	0.141400
H331	H33	0.017900	0.787600	0.261600
H341	H34	0.217200	0.950600	0.187100
H351	H35	0.951500	0.855600	0.193900
H361	H36	0.126800	0.042800	0.137400
H371	H37	0.148300	0.503700	0.117900
H381	H38	0.162200	0.852900	0.004500
H391	H39	0.971500	0.780400	0.105800
H401	H40	0.056500	0.639600	0.085100
H411	H41	0.427800	0.611200	0.490900
H421	H42	0.409300	0.714500	0.749400
H431	H43	0.184700	0.728800	0.423100
H441	H44	0.331400	0.688300	0.898900
H451	H45	0.305300	0.857500	0.562900
H461	H46	0.977800	0.588100	0.345800
H471	H47	0.948100	0.524200	0.388200
H481	H48	0.052200	0.588400	0.396300
H491	H49	0.180600	0.298600	0.687400
H501	H50	0.409700	0.490900	0.548500
H511	H51	0.952900	0.013200	0.316500
H521	H52	0.481900	0.933100	0.823000
H531	H53	0.226000	0.212600	0.506800
H541	H54	0.388200	0.155400	0.790600
H551	H55	0.290100	0.939800	0.687100
H561	H56	0.110300	0.164800	0.641400
H571	H57	0.482100	0.287600	0.761600
H581	H58	0.282800	0.450600	0.687100
H591	H59	0.548500	0.355600	0.693900
H601	H60	0.373200	0.542800	0.637400
H611	H61	0.351700	0.003700	0.617900
H621	H62	0.337800	0.352900	0.504500
H631	H63	0.528500	0.280400	0.605800
H641	H64	0.443500	0.139600	0.585100
H651	H65	0.072200	0.111200	0.990900
H661	H66	0.090700	0.214500	0.249400
H671	H67	0.315300	0.228800	0.923100
H681	H68	0.168600	0.188300	0.398900
H691	H69	0.194700	0.357500	0.062900
H701	H70	0.522200	0.088100	0.845800
H711	H71	0.551900	0.024200	0.888200
H721	H72	0.447800	0.088400	0.896300
H731	H73	0.680600	0.201400	0.812600
H741	H74	0.909700	0.009100	0.951500
H751	H75	0.452900	0.486800	0.183500
H761	H76	0.981900	0.566900	0.677000
H771	H77	0.726000	0.287400	0.993200
H781	H78	0.888200	0.344600	0.709400
H791	H79	0.790100	0.560200	0.812900
H801	H80	0.610300	0.335200	0.858600
H811	H81	0.982100	0.212400	0.738400
H821	H82	0.782800	0.049400	0.812900
H831	H83	0.048500	0.144400	0.806100
H841	H84	0.873200	0.957200	0.862600
H851	H85	0.851700	0.496300	0.882100
H861	H86	0.837800	0.147100	0.995500
H871	H87	0.028500	0.219600	0.894200
H881	H88	0.943500	0.360400	0.914900
H891	H89	0.572200	0.388800	0.509100
H901	H90	0.590700	0.285500	0.250600
H911	H91	0.815300	0.271200	0.576900
H921	H92	0.668600	0.311700	0.101100
H931	H93	0.694700	0.142500	0.437100
H941	H94	0.022200	0.411900	0.654200
H951	H95	0.051900	0.475800	0.611800
H961	H96	0.947800	0.411600	0.603700
C11	C1	0.576500	0.831500	0.285500
C21	C2	0.809300	0.716700	0.349700
C31	C3	0.054600	0.917300	0.772270
C41	C4	0.633000	0.546200	0.432900
C51	C5	0.733800	0.694900	0.007130
C61	C6	0.956500	0.951100	0.587710
C71	C7	0.654400	0.618100	0.006260
C81	C8	0.986000	0.891400	0.724350
C91	C9	0.998800	0.936200	0.681470
C101	C10	0.940600	0.907000	0.635290
C111	C11	0.751600	0.657700	0.376300
C121	C12	0.783600	0.768900	0.456200
C131	C13	0.618000	0.875500	0.244990
C141	C14	0.675700	0.001300	0.305860
C151	C15	0.850700	0.795500	0.377200
C161	C16	0.525100	0.743100	0.273900
C171	C17	0.707700	0.569400	0.349800
C181	C18	0.734900	0.683000	0.430600
C191	C19	0.486500	0.702900	0.313700
C201	C20	0.652600	0.516300	0.379200
C211	C21	0.639300	0.963800	0.347000
C221	C22	0.588200	0.876700	0.337900
C231	C23	0.674300	0.627800	0.458800
C241	C24	0.498800	0.748400	0.366600
C251	C25	0.548300	0.831900	0.379000
C261	C26	0.877900	0.839600	0.008260
C271	C27	0.917200	0.816300	0.721200
C281	C28	0.877100	0.767200	0.965560
C291	C29	0.807400	0.841600	0.049670
C301	C30	0.734300	0.769400	0.048820
C311	C31	0.859600	0.785600	0.674970
C321	C32	0.871100	0.831700	0.632420
C331	C33	0.805300	0.693600	0.965590
C341	C34	0.951300	0.768600	0.919770
C351	C35	0.809600	0.923200	0.093970
C361	C36	0.791600	0.701800	0.669900
C371	C37	0.506800	0.950100	0.129800
C381	C38	0.076500	0.668500	0.214500
C391	C39	0.309300	0.783300	0.150300
C401	C40	0.554600	0.582700	0.727730
C411	C41	0.133000	0.953800	0.067100
C421	C42	0.233800	0.805100	0.492870
C431	C43	0.456500	0.548900	0.912290
C441	C44	0.154400	0.881900	0.493740
C451	C45	0.486000	0.608600	0.775650
C461	C46	0.498800	0.563800	0.818530
C471	C47	0.440600	0.593000	0.864710
C481	C48	0.251600	0.842300	0.123700
C491	C49	0.283600	0.731100	0.043800
C501	C50	0.118000	0.624500	0.255010
C511	C51	0.175700	0.498700	0.194140
C521	C52	0.350700	0.704500	0.122800
C531	C53	0.025100	0.756900	0.226100
C541	C54	0.207700	0.930600	0.150200
C551	C55	0.234900	0.817000	0.069400
C561	C56	0.986500	0.797100	0.186300
C571	C57	0.152600	0.983700	0.120800
C581	C58	0.139300	0.536200	0.153000
C591	C59	0.088200	0.623300	0.162100
C601	C60	0.174300	0.872200	0.041200
C611	C61	0.998800	0.751600	0.133400
C621	C62	0.048300	0.668100	0.121000
C631	C63	0.377900	0.660400	0.491740
C641	C64	0.417200	0.683700	0.778800
C651	C65	0.377100	0.732800	0.534440
C661	C66	0.307400	0.658400	0.450330
C671	C67	0.234300	0.730600	0.451180
C681	C68	0.359600	0.714400	0.825030
C691	C69	0.371100	0.668300	0.867580
C701	C70	0.305300	0.806400	0.534410
C711	C71	0.451300	0.731400	0.580230
C721	C72	0.309600	0.576800	0.406030
C731	C73	0.291600	0.798200	0.830100
C741	C74	0.006800	0.549900	0.370200
C751	C75	0.423500	0.168500	0.714500
C761	C76	0.190700	0.283300	0.650300
C771	C77	0.945400	0.082700	0.227730
C781	C78	0.367000	0.453800	0.567100
C791	C79	0.266200	0.305100	0.992870
C801	C80	0.043500	0.048900	0.412290
C811	C81	0.345600	0.381900	0.993740
C821	C82	0.014000	0.108600	0.275650
C831	C83	0.001200	0.063800	0.318530
C841	C84	0.059400	0.093000	0.364710
C851	C85	0.248400	0.342300	0.623700
C861	C86	0.216400	0.231100	0.543800
C871	C87	0.382000	0.124500	0.755010
C881	C88	0.324300	0.998700	0.694140
C891	C89	0.149300	0.204500	0.622800
C901	C90	0.474900	0.256900	0.726100
C911	C91	0.292300	0.430600	0.650200
C921	C92	0.265100	0.317000	0.569400
C931	C93	0.513500	0.297100	0.686300
C941	C94	0.347400	0.483700	0.620800
C951	C95	0.360700	0.036200	0.653000
C961	C96	0.411800	0.123300	0.662100
C971	C97	0.325700	0.372200	0.541200
C981	C98	0.501200	0.251600	0.633400
C991	C99	0.451700	0.168100	0.621000
C1001	C100	0.122100	0.160400	0.991740
C1011	C101	0.082800	0.183700	0.278800
C1021	C102	0.122900	0.232800	0.034440
C1031	C103	0.192600	0.158400	0.950330
C1041	C104	0.265700	0.230600	0.951180
C1051	C105	0.140400	0.214400	0.325030
C1061	C106	0.128900	0.168300	0.367580
C1071	C107	0.194700	0.306400	0.034410
C1081	C108	0.048700	0.231400	0.080230
C1091	C109	0.190400	0.076800	0.906030
C1101	C110	0.208400	0.298200	0.330100
C1111	C111	0.493200	0.049900	0.870200
C1121	C112	0.923500	0.331500	0.785500
C1131	C113	0.690700	0.216700	0.849700
C1141	C114	0.445400	0.417300	0.272270
C1151	C115	0.867000	0.046200	0.932900
C1161	C116	0.766200	0.194900	0.507130
C1171	C117	0.543500	0.451100	0.087710
C1181	C118	0.845600	0.118100	0.506260
C1191	C119	0.514000	0.391400	0.224350
C1201	C120	0.501200	0.436200	0.181470
C1211	C121	0.559400	0.407000	0.135290
C1221	C122	0.748400	0.157700	0.876300
C1231	C123	0.716400	0.268900	0.956200
C1241	C124	0.882000	0.375500	0.744990
C1251	C125	0.824300	0.501300	0.805860
C1261	C126	0.649300	0.295500	0.877200
C1271	C127	0.974900	0.243100	0.773900
C1281	C128	0.792300	0.069400	0.849800
C1291	C129	0.765100	0.183000	0.930600
C1301	C130	0.013500	0.202900	0.813700
C1311	C131	0.847400	0.016300	0.879200
C1321	C132	0.860700	0.463800	0.847000
C1331	C133	0.911800	0.376700	0.837900
C1341	C134	0.825700	0.127800	0.958800
C1351	C135	0.001200	0.248400	0.866600
C1361	C136	0.951700	0.331900	0.879000
C1371	C137	0.622100	0.339600	0.508260
C1381	C138	0.582800	0.316300	0.221200
C1391	C139	0.622900	0.267200	0.465560
C1401	C140	0.692600	0.341600	0.549670
C1411	C141	0.765700	0.269400	0.548820
C1421	C142	0.640400	0.285600	0.174970
C1431	C143	0.628900	0.331700	0.132420
C1441	C144	0.694700	0.193600	0.465590
C1451	C145	0.548700	0.268600	0.419770
C1461	C146	0.690400	0.423200	0.593970
C1471	C147	0.708400	0.201800	0.169900
C1481	C148	0.993200	0.450100	0.629800
N11	N1	0.665100	0.957600	0.254600
N21	N2	0.839500	0.821600	0.431260
N31	N3	0.165100	0.542400	0.245400
N41	N4	0.339500	0.678400	0.068740
N51	N5	0.334900	0.042400	0.745400
N61	N6	0.160500	0.178400	0.568740
N71	N7	0.834900	0.457600	0.754600
N81	N8	0.660500	0.321600	0.931260
O11	O1	0.753300	0.919000	0.133590
O21	O2	0.790500	0.655400	0.706750
O31	O3	0.013300	0.839400	0.926330
O41	O4	0.031800	0.875000	0.809910
O51	O5	0.127400	0.975600	0.771980
O61	O6	0.909600	0.915500	0.546350
O71	O7	0.570000	0.636900	0.030330
O81	O8	0.017800	0.018500	0.592280
O91	O9	0.676100	0.540200	0.980380
O101	O10	0.567400	0.023300	0.158220
O111	O11	0.739200	0.681200	0.627210
O121	O12	0.868100	0.990000	0.087320
O131	O13	0.947600	0.707100	0.881050
O141	O14	0.253300	0.581000	0.366410
O151	O15	0.290500	0.844600	0.793250
O161	O16	0.513300	0.660600	0.573670
O171	O17	0.531800	0.625000	0.690090
O181	O18	0.627400	0.524400	0.728020
O191	O19	0.409600	0.584500	0.953650
O201	O20	0.070000	0.863100	0.469670
O211	O21	0.517800	0.481500	0.907720
O221	O22	0.176100	0.959800	0.519620
O231	O23	0.067400	0.476700	0.341780
O241	O24	0.239200	0.818800	0.872790
O251	O25	0.368100	0.510000	0.412680
O261	O26	0.447600	0.792900	0.618950
O271	O27	0.246700	0.081000	0.866410
O281	O28	0.209500	0.344600	0.293250
O291	O29	0.986700	0.160600	0.073670
O301	O30	0.968200	0.125000	0.190090
O311	O31	0.872600	0.024400	0.228020
O321	O32	0.090400	0.084500	0.453650
O331	O33	0.430000	0.363100	0.969670
O341	O34	0.982200	0.981500	0.407720
O351	O35	0.323900	0.459800	0.019620
O361	O36	0.432600	0.976700	0.841780
O371	O37	0.260800	0.318800	0.372790
O381	O38	0.131900	0.010000	0.912680
O391	O39	0.052400	0.292900	0.118950
O401	O40	0.746700	0.419000	0.633590
O411	O41	0.709500	0.155400	0.206750
O421	O42	0.486700	0.339400	0.426330
O431	O43	0.468200	0.375000	0.309910
O441	O44	0.372600	0.475600	0.271980
O451	O45	0.590400	0.415500	0.046350
O461	O46	0.930000	0.136900	0.530330
O471	O47	0.482200	0.518500	0.092280
O481	O48	0.823900	0.040200	0.480380
O491	O49	0.932600	0.523300	0.658220
O501	O50	0.760800	0.181200	0.127210
O511	O51	0.631900	0.490000	0.587320
O521	O52	0.552400	0.207100	0.381050
