data_NAQQUT_freeONLY_PM
_symmetry_space_group_name_H-M	'P1'
_cell_length_a	21.928500
_cell_length_b	21.928500
_cell_length_c	16.726500
_cell_angle_alpha	90.000000
_cell_angle_beta	90.000000
_cell_angle_gamma	90.000000
_symmetry_Int_Tables_number 1

loop_
_symmetry_equiv_pos_as_xyz
'x,y,z'

loop_
_atom_site_label
_atom_site_type_symbol
_atom_site_fract_x
_atom_site_fract_y
_atom_site_fract_z
La11	La1	0.322150	0.358020	0.863560
O11	O1	0.248500	0.389000	0.755500
O21	O2	0.221300	0.431400	0.640100
O31	O3	0.515300	0.424200	0.798700
O41	O4	0.433400	0.385000	0.856700
O51	O5	0.372100	0.272000	0.781100
O61	O6	0.360500	0.377100	0.004600
O71	O7	0.223100	0.379700	0.945200
O81	O8	0.237600	0.276200	0.826800
N11	N1	0.362900	0.417200	0.736000
C11	C1	0.421600	0.433300	0.731000
C21	C2	0.444200	0.467000	0.668200
H11	H1	0.485300	0.477500	0.666400
C31	C3	0.405400	0.485000	0.608100
H21	H2	0.419700	0.507900	0.565300
C41	C4	0.344300	0.468100	0.612700
H31	H3	0.317000	0.478800	0.572400
C51	C5	0.325200	0.435300	0.677900
C61	C6	0.260000	0.417100	0.690600
C71	C7	0.459600	0.412700	0.800100
La21	La2	0.822150	0.858020	0.363560
O91	O9	0.748500	0.889000	0.255500
O101	O10	0.721300	0.931400	0.140100
O111	O11	0.015300	0.924200	0.298700
O121	O12	0.933400	0.885000	0.356700
O131	O13	0.872100	0.772000	0.281100
O141	O14	0.860500	0.877100	0.504600
O151	O15	0.723100	0.879700	0.445200
O161	O16	0.737600	0.776200	0.326800
N21	N2	0.862900	0.917200	0.236000
C81	C8	0.921600	0.933300	0.231000
C91	C9	0.944200	0.967000	0.168200
H41	H4	0.985300	0.977500	0.166400
C101	C10	0.905400	0.985000	0.108100
H51	H5	0.919700	0.007900	0.065300
C111	C11	0.844300	0.968100	0.112700
H61	H6	0.817000	0.978800	0.072400
C121	C12	0.825200	0.935300	0.177900
C131	C13	0.760000	0.917100	0.190600
C141	C14	0.959600	0.912700	0.300100
La31	La3	0.177850	0.641980	0.363560
O171	O17	0.251500	0.611000	0.255500
O181	O18	0.278700	0.568600	0.140100
O191	O19	0.984700	0.575800	0.298700
O201	O20	0.066600	0.615000	0.356700
O211	O21	0.127900	0.728000	0.281100
O221	O22	0.139500	0.622900	0.504600
O231	O23	0.276900	0.620300	0.445200
O241	O24	0.262400	0.723800	0.326800
N31	N3	0.137100	0.582800	0.236000
C151	C15	0.078400	0.566700	0.231000
C161	C16	0.055800	0.533000	0.168200
H71	H7	0.014700	0.522500	0.166400
C171	C17	0.094600	0.515000	0.108100
H81	H8	0.080300	0.492100	0.065300
C181	C18	0.155700	0.531900	0.112700
H91	H9	0.183000	0.521200	0.072400
C191	C19	0.174800	0.564700	0.177900
C201	C20	0.240000	0.582900	0.190600
C211	C21	0.040400	0.587300	0.300100
La41	La4	0.677850	0.141980	0.863560
O251	O25	0.751500	0.111000	0.755500
O261	O26	0.778700	0.068600	0.640100
O271	O27	0.484700	0.075800	0.798700
O281	O28	0.566600	0.115000	0.856700
O291	O29	0.627900	0.228000	0.781100
O301	O30	0.639500	0.122900	0.004600
O311	O31	0.776900	0.120300	0.945200
O321	O32	0.762400	0.223800	0.826800
N41	N4	0.637100	0.082800	0.736000
C221	C22	0.578400	0.066700	0.731000
C231	C23	0.555800	0.033000	0.668200
H101	H10	0.514700	0.022500	0.666400
C241	C24	0.594600	0.015000	0.608100
H111	H11	0.580300	0.992100	0.565300
C251	C25	0.655700	0.031900	0.612700
H121	H12	0.683000	0.021200	0.572400
C261	C26	0.674800	0.064700	0.677900
C271	C27	0.740000	0.082900	0.690600
C281	C28	0.540400	0.087300	0.800100
La51	La5	0.391980	0.572150	0.113560
O331	O33	0.361000	0.498500	0.005500
O341	O34	0.318600	0.471300	0.890100
O351	O35	0.325800	0.765300	0.048700
O361	O36	0.365000	0.683400	0.106700
O371	O37	0.478000	0.622100	0.031100
O381	O38	0.372900	0.610500	0.254600
O391	O39	0.370300	0.473100	0.195200
O401	O40	0.473800	0.487600	0.076800
N51	N5	0.332800	0.612900	0.986000
C291	C29	0.316700	0.671600	0.981000
C301	C30	0.283000	0.694200	0.918200
H131	H13	0.272500	0.735300	0.916400
C311	C31	0.265000	0.655400	0.858100
H141	H14	0.242100	0.669700	0.815300
C321	C32	0.281900	0.594300	0.862700
H151	H15	0.271200	0.567000	0.822400
C331	C33	0.314700	0.575200	0.927900
C341	C34	0.332900	0.510000	0.940600
C351	C35	0.337300	0.709600	0.050100
La61	La6	0.891980	0.072150	0.613560
O411	O41	0.861000	0.998500	0.505500
O421	O42	0.818600	0.971300	0.390100
O431	O43	0.825800	0.265300	0.548700
O441	O44	0.865000	0.183400	0.606700
O451	O45	0.978000	0.122100	0.531100
O461	O46	0.872900	0.110500	0.754600
O471	O47	0.870300	0.973100	0.695200
O481	O48	0.973800	0.987600	0.576800
N61	N6	0.832800	0.112900	0.486000
C361	C36	0.816700	0.171600	0.481000
C371	C37	0.783000	0.194200	0.418200
H161	H16	0.772500	0.235300	0.416400
C381	C38	0.765000	0.155400	0.358100
H171	H17	0.742100	0.169700	0.315300
C391	C39	0.781900	0.094300	0.362700
H181	H18	0.771200	0.067000	0.322400
C401	C40	0.814700	0.075200	0.427900
C411	C41	0.832900	0.010000	0.440600
C421	C42	0.837300	0.209600	0.550100
La71	La7	0.108020	0.427850	0.613560
O491	O49	0.139000	0.501500	0.505500
O501	O50	0.181400	0.528700	0.390100
O511	O51	0.174200	0.234700	0.548700
O521	O52	0.135000	0.316600	0.606700
O531	O53	0.022000	0.377900	0.531100
O541	O54	0.127100	0.389500	0.754600
O551	O55	0.129700	0.526900	0.695200
O561	O56	0.026200	0.512400	0.576800
N71	N7	0.167200	0.387100	0.486000
C431	C43	0.183300	0.328400	0.481000
C441	C44	0.217000	0.305800	0.418200
H191	H19	0.227500	0.264700	0.416400
C451	C45	0.235000	0.344600	0.358100
H201	H20	0.257900	0.330300	0.315300
C461	C46	0.218100	0.405700	0.362700
H211	H21	0.228800	0.433000	0.322400
C471	C47	0.185300	0.424800	0.427900
C481	C48	0.167100	0.490000	0.440600
C491	C49	0.162700	0.290400	0.550100
La81	La8	0.608020	0.927850	0.113560
O571	O57	0.639000	0.001500	0.005500
O581	O58	0.681400	0.028700	0.890100
O591	O59	0.674200	0.734700	0.048700
O601	O60	0.635000	0.816600	0.106700
O611	O61	0.522000	0.877900	0.031100
O621	O62	0.627100	0.889500	0.254600
O631	O63	0.629700	0.026900	0.195200
O641	O64	0.526200	0.012400	0.076800
N81	N8	0.667200	0.887100	0.986000
C501	C50	0.683300	0.828400	0.981000
C511	C51	0.717000	0.805800	0.918200
H221	H22	0.727500	0.764700	0.916400
C521	C52	0.735000	0.844600	0.858100
H231	H23	0.757900	0.830300	0.815300
C531	C53	0.718100	0.905700	0.862700
H241	H24	0.728800	0.933000	0.822400
C541	C54	0.685300	0.924800	0.927900
C551	C55	0.667100	0.990000	0.940600
C561	C56	0.662700	0.790400	0.050100
La91	La9	0.677850	0.641980	0.136440
O651	O65	0.751500	0.611000	0.244500
O661	O66	0.778700	0.568600	0.359900
O671	O67	0.484700	0.575800	0.201300
O681	O68	0.566600	0.615000	0.143300
O691	O69	0.627900	0.728000	0.218900
O701	O70	0.639500	0.622900	0.995400
O711	O71	0.776900	0.620300	0.054800
O721	O72	0.762400	0.723800	0.173200
N91	N9	0.637100	0.582800	0.264000
C571	C57	0.578400	0.566700	0.269000
C581	C58	0.555800	0.533000	0.331800
H251	H25	0.514700	0.522500	0.333600
C591	C59	0.594600	0.515000	0.391900
H261	H26	0.580300	0.492100	0.434700
C601	C60	0.655700	0.531900	0.387300
H271	H27	0.683000	0.521200	0.427600
C611	C61	0.674800	0.564700	0.322100
C621	C62	0.740000	0.582900	0.309400
C631	C63	0.540400	0.587300	0.199900
La101	La10	0.177850	0.141980	0.636440
O731	O73	0.251500	0.111000	0.744500
O741	O74	0.278700	0.068600	0.859900
O751	O75	0.984700	0.075800	0.701300
O761	O76	0.066600	0.115000	0.643300
O771	O77	0.127900	0.228000	0.718900
O781	O78	0.139500	0.122900	0.495400
O791	O79	0.276900	0.120300	0.554800
O801	O80	0.262400	0.223800	0.673200
N101	N10	0.137100	0.082800	0.764000
C641	C64	0.078400	0.066700	0.769000
C651	C65	0.055800	0.033000	0.831800
H281	H28	0.014700	0.022500	0.833600
C661	C66	0.094600	0.015000	0.891900
H291	H29	0.080300	0.992100	0.934700
C671	C67	0.155700	0.031900	0.887300
H301	H30	0.183000	0.021200	0.927600
C681	C68	0.174800	0.064700	0.822100
C691	C69	0.240000	0.082900	0.809400
C701	C70	0.040400	0.087300	0.699900
La111	La11	0.822150	0.358020	0.636440
O811	O81	0.748500	0.389000	0.744500
O821	O82	0.721300	0.431400	0.859900
O831	O83	0.015300	0.424200	0.701300
O841	O84	0.933400	0.385000	0.643300
O851	O85	0.872100	0.272000	0.718900
O861	O86	0.860500	0.377100	0.495400
O871	O87	0.723100	0.379700	0.554800
O881	O88	0.737600	0.276200	0.673200
N111	N11	0.862900	0.417200	0.764000
C711	C71	0.921600	0.433300	0.769000
C721	C72	0.944200	0.467000	0.831800
H311	H31	0.985300	0.477500	0.833600
C731	C73	0.905400	0.485000	0.891900
H321	H32	0.919700	0.507900	0.934700
C741	C74	0.844300	0.468100	0.887300
H331	H33	0.817000	0.478800	0.927600
C751	C75	0.825200	0.435300	0.822100
C761	C76	0.760000	0.417100	0.809400
C771	C77	0.959600	0.412700	0.699900
La121	La12	0.322150	0.858020	0.136440
O891	O89	0.248500	0.889000	0.244500
O901	O90	0.221300	0.931400	0.359900
O911	O91	0.515300	0.924200	0.201300
O921	O92	0.433400	0.885000	0.143300
O931	O93	0.372100	0.772000	0.218900
O941	O94	0.360500	0.877100	0.995400
O951	O95	0.223100	0.879700	0.054800
O961	O96	0.237600	0.776200	0.173200
N121	N12	0.362900	0.917200	0.264000
C781	C78	0.421600	0.933300	0.269000
C791	C79	0.444200	0.967000	0.331800
H341	H34	0.485300	0.977500	0.333600
C801	C80	0.405400	0.985000	0.391900
H351	H35	0.419700	0.007900	0.434700
C811	C81	0.344300	0.968100	0.387300
H361	H36	0.317000	0.978800	0.427600
C821	C82	0.325200	0.935300	0.322100
C831	C83	0.260000	0.917100	0.309400
C841	C84	0.459600	0.912700	0.199900
La131	La13	0.608020	0.427850	0.886440
O971	O97	0.639000	0.501500	0.994500
O981	O98	0.681400	0.528700	0.109900
O991	O99	0.674200	0.234700	0.951300
O1001	O100	0.635000	0.316600	0.893300
O1011	O101	0.522000	0.377900	0.968900
O1021	O102	0.627100	0.389500	0.745400
O1031	O103	0.629700	0.526900	0.804800
O1041	O104	0.526200	0.512400	0.923200
N131	N13	0.667200	0.387100	0.014000
C851	C85	0.683300	0.328400	0.019000
C861	C86	0.717000	0.305800	0.081800
H371	H37	0.727500	0.264700	0.083600
C871	C87	0.735000	0.344600	0.141900
H381	H38	0.757900	0.330300	0.184700
C881	C88	0.718100	0.405700	0.137300
H391	H39	0.728800	0.433000	0.177600
C891	C89	0.685300	0.424800	0.072100
C901	C90	0.667100	0.490000	0.059400
C911	C91	0.662700	0.290400	0.949900
La141	La14	0.108020	0.927850	0.386440
O1051	O105	0.139000	0.001500	0.494500
O1061	O106	0.181400	0.028700	0.609900
O1071	O107	0.174200	0.734700	0.451300
O1081	O108	0.135000	0.816600	0.393300
O1091	O109	0.022000	0.877900	0.468900
O1101	O110	0.127100	0.889500	0.245400
O1111	O111	0.129700	0.026900	0.304800
O1121	O112	0.026200	0.012400	0.423200
N141	N14	0.167200	0.887100	0.514000
C921	C92	0.183300	0.828400	0.519000
C931	C93	0.217000	0.805800	0.581800
H401	H40	0.227500	0.764700	0.583600
C941	C94	0.235000	0.844600	0.641900
H411	H41	0.257900	0.830300	0.684700
C951	C95	0.218100	0.905700	0.637300
H421	H42	0.228800	0.933000	0.677600
C961	C96	0.185300	0.924800	0.572100
C971	C97	0.167100	0.990000	0.559400
C981	C98	0.162700	0.790400	0.449900
La151	La15	0.891980	0.572150	0.386440
O1131	O113	0.861000	0.498500	0.494500
O1141	O114	0.818600	0.471300	0.609900
O1151	O115	0.825800	0.765300	0.451300
O1161	O116	0.865000	0.683400	0.393300
O1171	O117	0.978000	0.622100	0.468900
O1181	O118	0.872900	0.610500	0.245400
O1191	O119	0.870300	0.473100	0.304800
O1201	O120	0.973800	0.487600	0.423200
N151	N15	0.832800	0.612900	0.514000
C991	C99	0.816700	0.671600	0.519000
C1001	C100	0.783000	0.694200	0.581800
H431	H43	0.772500	0.735300	0.583600
C1011	C101	0.765000	0.655400	0.641900
H441	H44	0.742100	0.669700	0.684700
C1021	C102	0.781900	0.594300	0.637300
H451	H45	0.771200	0.567000	0.677600
C1031	C103	0.814700	0.575200	0.572100
C1041	C104	0.832900	0.510000	0.559400
C1051	C105	0.837300	0.709600	0.449900
La161	La16	0.391980	0.072150	0.886440
O1211	O121	0.361000	0.998500	0.994500
O1221	O122	0.318600	0.971300	0.109900
O1231	O123	0.325800	0.265300	0.951300
O1241	O124	0.365000	0.183400	0.893300
O1251	O125	0.478000	0.122100	0.968900
O1261	O126	0.372900	0.110500	0.745400
O1271	O127	0.370300	0.973100	0.804800
O1281	O128	0.473800	0.987600	0.923200
N161	N16	0.332800	0.112900	0.014000
C1061	C106	0.316700	0.171600	0.019000
C1071	C107	0.283000	0.194200	0.081800
H461	H46	0.272500	0.235300	0.083600
C1081	C108	0.265000	0.155400	0.141900
H471	H47	0.242100	0.169700	0.184700
C1091	C109	0.281900	0.094300	0.137300
H481	H48	0.271200	0.067000	0.177600
C1101	C110	0.314700	0.075200	0.072100
C1111	C111	0.332900	0.010000	0.059400
C1121	C112	0.337300	0.209600	0.949900
