data_NAQQON_freeONLY_PM
_symmetry_space_group_name_H-M	'P1'
_cell_length_a	21.931400
_cell_length_b	21.931400
_cell_length_c	16.705900
_cell_angle_alpha	90.000000
_cell_angle_beta	90.000000
_cell_angle_gamma	90.000000
_symmetry_Int_Tables_number 1

loop_
_symmetry_equiv_pos_as_xyz
'x,y,z'

loop_
_atom_site_label
_atom_site_type_symbol
_atom_site_fract_x
_atom_site_fract_y
_atom_site_fract_z
Pr11	Pr1	0.609500	0.574560	0.615640
O11	O1	0.640700	0.499100	0.510800
O21	O2	0.636400	0.684300	0.609100
O31	O3	0.673400	0.766700	0.549700
O41	O4	0.680900	0.471700	0.394000
O51	O5	0.627400	0.612500	0.755400
O61	O6	0.526400	0.620300	0.531200
O71	O7	0.527000	0.490700	0.575600
O81	O8	0.625100	0.477700	0.696300
C11	C1	0.683100	0.671700	0.483800
C21	C2	0.717000	0.695200	0.420900
H11	H1	0.727800	0.736100	0.419000
C31	C3	0.734300	0.654600	0.360300
H21	H2	0.756800	0.668400	0.316700
C41	C4	0.717900	0.594300	0.365700
H31	H3	0.728200	0.566800	0.325500
C51	C5	0.686100	0.575500	0.431700
C61	C6	0.667500	0.510300	0.445600
C71	C7	0.663300	0.711000	0.552300
N11	N1	0.667900	0.613800	0.489300
Pr21	Pr2	0.109500	0.074560	0.115640
O91	O9	0.140700	0.999100	0.010800
O101	O10	0.136400	0.184300	0.109100
O111	O11	0.173400	0.266700	0.049700
O121	O12	0.180900	0.971700	0.894000
O131	O13	0.127400	0.112500	0.255400
O141	O14	0.026400	0.120300	0.031200
O151	O15	0.027000	0.990700	0.075600
O161	O16	0.125100	0.977700	0.196300
C81	C8	0.183100	0.171700	0.983800
C91	C9	0.217000	0.195200	0.920900
H41	H4	0.227800	0.236100	0.919000
C101	C10	0.234300	0.154600	0.860300
H51	H5	0.256800	0.168400	0.816700
C111	C11	0.217900	0.094300	0.865700
H61	H6	0.228200	0.066800	0.825500
C121	C12	0.186100	0.075500	0.931700
C131	C13	0.167500	0.010300	0.945600
C141	C14	0.163300	0.211000	0.052300
N21	N2	0.167900	0.113800	0.989300
Pr31	Pr3	0.890500	0.425440	0.115640
O171	O17	0.859300	0.500900	0.010800
O181	O18	0.863600	0.315700	0.109100
O191	O19	0.826600	0.233300	0.049700
O201	O20	0.819100	0.528300	0.894000
O211	O21	0.872600	0.387500	0.255400
O221	O22	0.973600	0.379700	0.031200
O231	O23	0.973000	0.509300	0.075600
O241	O24	0.874900	0.522300	0.196300
C151	C15	0.816900	0.328300	0.983800
C161	C16	0.783000	0.304800	0.920900
H71	H7	0.772200	0.263900	0.919000
C171	C17	0.765700	0.345400	0.860300
H81	H8	0.743200	0.331600	0.816700
C181	C18	0.782100	0.405700	0.865700
H91	H9	0.771800	0.433200	0.825500
C191	C19	0.813900	0.424500	0.931700
C201	C20	0.832500	0.489700	0.945600
C211	C21	0.836700	0.289000	0.052300
N31	N3	0.832100	0.386200	0.989300
Pr41	Pr4	0.390500	0.925440	0.615640
O251	O25	0.359300	0.000900	0.510800
O261	O26	0.363600	0.815700	0.609100
O271	O27	0.326600	0.733300	0.549700
O281	O28	0.319100	0.028300	0.394000
O291	O29	0.372600	0.887500	0.755400
O301	O30	0.473600	0.879700	0.531200
O311	O31	0.473000	0.009300	0.575600
O321	O32	0.374900	0.022300	0.696300
C221	C22	0.316900	0.828300	0.483800
C231	C23	0.283000	0.804800	0.420900
H101	H10	0.272200	0.763900	0.419000
C241	C24	0.265700	0.845400	0.360300
H111	H11	0.243200	0.831600	0.316700
C251	C25	0.282100	0.905700	0.365700
H121	H12	0.271800	0.933200	0.325500
C261	C26	0.313900	0.924500	0.431700
C271	C27	0.332500	0.989700	0.445600
C281	C28	0.336700	0.789000	0.552300
N41	N4	0.332100	0.886200	0.489300
Pr51	Pr5	0.175440	0.859500	0.865640
O331	O33	0.250900	0.890700	0.760800
O341	O34	0.065700	0.886400	0.859100
O351	O35	0.983300	0.923400	0.799700
O361	O36	0.278300	0.930900	0.644000
O371	O37	0.137500	0.877400	0.005400
O381	O38	0.129700	0.776400	0.781200
O391	O39	0.259300	0.777000	0.825600
O401	O40	0.272300	0.875100	0.946300
C291	C29	0.078300	0.933100	0.733800
C301	C30	0.054800	0.967000	0.670900
H131	H13	0.013900	0.977800	0.669000
C311	C31	0.095400	0.984300	0.610300
H141	H14	0.081600	0.006800	0.566700
C321	C32	0.155700	0.967900	0.615700
H151	H15	0.183200	0.978200	0.575500
C331	C33	0.174500	0.936100	0.681700
C341	C34	0.239700	0.917500	0.695600
C351	C35	0.039000	0.913300	0.802300
N51	N5	0.136200	0.917900	0.739300
Pr61	Pr6	0.675440	0.359500	0.365640
O411	O41	0.750900	0.390700	0.260800
O421	O42	0.565700	0.386400	0.359100
O431	O43	0.483300	0.423400	0.299700
O441	O44	0.778300	0.430900	0.144000
O451	O45	0.637500	0.377400	0.505400
O461	O46	0.629700	0.276400	0.281200
O471	O47	0.759300	0.277000	0.325600
O481	O48	0.772300	0.375100	0.446300
C361	C36	0.578300	0.433100	0.233800
C371	C37	0.554800	0.467000	0.170900
H161	H16	0.513900	0.477800	0.169000
C381	C38	0.595400	0.484300	0.110300
H171	H17	0.581600	0.506800	0.066700
C391	C39	0.655700	0.467900	0.115700
H181	H18	0.683200	0.478200	0.075500
C401	C40	0.674500	0.436100	0.181700
C411	C41	0.739700	0.417500	0.195600
C421	C42	0.539000	0.413300	0.302300
N61	N6	0.636200	0.417900	0.239300
Pr71	Pr7	0.324560	0.140500	0.365640
O491	O49	0.249100	0.109300	0.260800
O501	O50	0.434300	0.113600	0.359100
O511	O51	0.516700	0.076600	0.299700
O521	O52	0.221700	0.069100	0.144000
O531	O53	0.362500	0.122600	0.505400
O541	O54	0.370300	0.223600	0.281200
O551	O55	0.240700	0.223000	0.325600
O561	O56	0.227700	0.124900	0.446300
C431	C43	0.421700	0.066900	0.233800
C441	C44	0.445200	0.033000	0.170900
H191	H19	0.486100	0.022200	0.169000
C451	C45	0.404600	0.015700	0.110300
H201	H20	0.418400	0.993200	0.066700
C461	C46	0.344300	0.032100	0.115700
H211	H21	0.316800	0.021800	0.075500
C471	C47	0.325500	0.063900	0.181700
C481	C48	0.260300	0.082500	0.195600
C491	C49	0.461000	0.086700	0.302300
N71	N7	0.363800	0.082100	0.239300
Pr81	Pr8	0.824560	0.640500	0.865640
O571	O57	0.749100	0.609300	0.760800
O581	O58	0.934300	0.613600	0.859100
O591	O59	0.016700	0.576600	0.799700
O601	O60	0.721700	0.569100	0.644000
O611	O61	0.862500	0.622600	0.005400
O621	O62	0.870300	0.723600	0.781200
O631	O63	0.740700	0.723000	0.825600
O641	O64	0.727700	0.624900	0.946300
C501	C50	0.921700	0.566900	0.733800
C511	C51	0.945200	0.533000	0.670900
H221	H22	0.986100	0.522200	0.669000
C521	C52	0.904600	0.515700	0.610300
H231	H23	0.918400	0.493200	0.566700
C531	C53	0.844300	0.532100	0.615700
H241	H24	0.816800	0.521800	0.575500
C541	C54	0.825500	0.563900	0.681700
C551	C55	0.760300	0.582500	0.695600
C561	C56	0.961000	0.586700	0.802300
N81	N8	0.863800	0.582100	0.739300
Pr91	Pr9	0.390500	0.425440	0.384360
O651	O65	0.359300	0.500900	0.489200
O661	O66	0.363600	0.315700	0.390900
O671	O67	0.326600	0.233300	0.450300
O681	O68	0.319100	0.528300	0.606000
O691	O69	0.372600	0.387500	0.244600
O701	O70	0.473600	0.379700	0.468800
O711	O71	0.473000	0.509300	0.424400
O721	O72	0.374900	0.522300	0.303700
C571	C57	0.316900	0.328300	0.516200
C581	C58	0.283000	0.304800	0.579100
H251	H25	0.272200	0.263900	0.581000
C591	C59	0.265700	0.345400	0.639700
H261	H26	0.243200	0.331600	0.683300
C601	C60	0.282100	0.405700	0.634300
H271	H27	0.271800	0.433200	0.674500
C611	C61	0.313900	0.424500	0.568300
C621	C62	0.332500	0.489700	0.554400
C631	C63	0.336700	0.289000	0.447700
N91	N9	0.332100	0.386200	0.510700
Pr101	Pr10	0.890500	0.925440	0.884360
O731	O73	0.859300	0.000900	0.989200
O741	O74	0.863600	0.815700	0.890900
O751	O75	0.826600	0.733300	0.950300
O761	O76	0.819100	0.028300	0.106000
O771	O77	0.872600	0.887500	0.744600
O781	O78	0.973600	0.879700	0.968800
O791	O79	0.973000	0.009300	0.924400
O801	O80	0.874900	0.022300	0.803700
C641	C64	0.816900	0.828300	0.016200
C651	C65	0.783000	0.804800	0.079100
H281	H28	0.772200	0.763900	0.081000
C661	C66	0.765700	0.845400	0.139700
H291	H29	0.743200	0.831600	0.183300
C671	C67	0.782100	0.905700	0.134300
H301	H30	0.771800	0.933200	0.174500
C681	C68	0.813900	0.924500	0.068300
C691	C69	0.832500	0.989700	0.054400
C701	C70	0.836700	0.789000	0.947700
N101	N10	0.832100	0.886200	0.010700
Pr111	Pr11	0.109500	0.574560	0.884360
O811	O81	0.140700	0.499100	0.989200
O821	O82	0.136400	0.684300	0.890900
O831	O83	0.173400	0.766700	0.950300
O841	O84	0.180900	0.471700	0.106000
O851	O85	0.127400	0.612500	0.744600
O861	O86	0.026400	0.620300	0.968800
O871	O87	0.027000	0.490700	0.924400
O881	O88	0.125100	0.477700	0.803700
C711	C71	0.183100	0.671700	0.016200
C721	C72	0.217000	0.695200	0.079100
H311	H31	0.227800	0.736100	0.081000
C731	C73	0.234300	0.654600	0.139700
H321	H32	0.256800	0.668400	0.183300
C741	C74	0.217900	0.594300	0.134300
H331	H33	0.228200	0.566800	0.174500
C751	C75	0.186100	0.575500	0.068300
C761	C76	0.167500	0.510300	0.054400
C771	C77	0.163300	0.711000	0.947700
N111	N11	0.167900	0.613800	0.010700
Pr121	Pr12	0.609500	0.074560	0.384360
O891	O89	0.640700	0.999100	0.489200
O901	O90	0.636400	0.184300	0.390900
O911	O91	0.673400	0.266700	0.450300
O921	O92	0.680900	0.971700	0.606000
O931	O93	0.627400	0.112500	0.244600
O941	O94	0.526400	0.120300	0.468800
O951	O95	0.527000	0.990700	0.424400
O961	O96	0.625100	0.977700	0.303700
C781	C78	0.683100	0.171700	0.516200
C791	C79	0.717000	0.195200	0.579100
H341	H34	0.727800	0.236100	0.581000
C801	C80	0.734300	0.154600	0.639700
H351	H35	0.756800	0.168400	0.683300
C811	C81	0.717900	0.094300	0.634300
H361	H36	0.728200	0.066800	0.674500
C821	C82	0.686100	0.075500	0.568300
C831	C83	0.667500	0.010300	0.554400
C841	C84	0.663300	0.211000	0.447700
N121	N12	0.667900	0.113800	0.510700
Pr131	Pr13	0.824560	0.140500	0.134360
O971	O97	0.749100	0.109300	0.239200
O981	O98	0.934300	0.113600	0.140900
O991	O99	0.016700	0.076600	0.200300
O1001	O100	0.721700	0.069100	0.356000
O1011	O101	0.862500	0.122600	0.994600
O1021	O102	0.870300	0.223600	0.218800
O1031	O103	0.740700	0.223000	0.174400
O1041	O104	0.727700	0.124900	0.053700
C851	C85	0.921700	0.066900	0.266200
C861	C86	0.945200	0.033000	0.329100
H371	H37	0.986100	0.022200	0.331000
C871	C87	0.904600	0.015700	0.389700
H381	H38	0.918400	0.993200	0.433300
C881	C88	0.844300	0.032100	0.384300
H391	H39	0.816800	0.021800	0.424500
C891	C89	0.825500	0.063900	0.318300
C901	C90	0.760300	0.082500	0.304400
C911	C91	0.961000	0.086700	0.197700
N131	N13	0.863800	0.082100	0.260700
Pr141	Pr14	0.324560	0.640500	0.634360
O1051	O105	0.249100	0.609300	0.739200
O1061	O106	0.434300	0.613600	0.640900
O1071	O107	0.516700	0.576600	0.700300
O1081	O108	0.221700	0.569100	0.856000
O1091	O109	0.362500	0.622600	0.494600
O1101	O110	0.370300	0.723600	0.718800
O1111	O111	0.240700	0.723000	0.674400
O1121	O112	0.227700	0.624900	0.553700
C921	C92	0.421700	0.566900	0.766200
C931	C93	0.445200	0.533000	0.829100
H401	H40	0.486100	0.522200	0.831000
C941	C94	0.404600	0.515700	0.889700
H411	H41	0.418400	0.493200	0.933300
C951	C95	0.344300	0.532100	0.884300
H421	H42	0.316800	0.521800	0.924500
C961	C96	0.325500	0.563900	0.818300
C971	C97	0.260300	0.582500	0.804400
C981	C98	0.461000	0.586700	0.697700
N141	N14	0.363800	0.582100	0.760700
Pr151	Pr15	0.675440	0.859500	0.634360
O1131	O113	0.750900	0.890700	0.739200
O1141	O114	0.565700	0.886400	0.640900
O1151	O115	0.483300	0.923400	0.700300
O1161	O116	0.778300	0.930900	0.856000
O1171	O117	0.637500	0.877400	0.494600
O1181	O118	0.629700	0.776400	0.718800
O1191	O119	0.759300	0.777000	0.674400
O1201	O120	0.772300	0.875100	0.553700
C991	C99	0.578300	0.933100	0.766200
C1001	C100	0.554800	0.967000	0.829100
H431	H43	0.513900	0.977800	0.831000
C1011	C101	0.595400	0.984300	0.889700
H441	H44	0.581600	0.006800	0.933300
C1021	C102	0.655700	0.967900	0.884300
H451	H45	0.683200	0.978200	0.924500
C1031	C103	0.674500	0.936100	0.818300
C1041	C104	0.739700	0.917500	0.804400
C1051	C105	0.539000	0.913300	0.697700
N151	N15	0.636200	0.917900	0.760700
Pr161	Pr16	0.175440	0.359500	0.134360
O1211	O121	0.250900	0.390700	0.239200
O1221	O122	0.065700	0.386400	0.140900
O1231	O123	0.983300	0.423400	0.200300
O1241	O124	0.278300	0.430900	0.356000
O1251	O125	0.137500	0.377400	0.994600
O1261	O126	0.129700	0.276400	0.218800
O1271	O127	0.259300	0.277000	0.174400
O1281	O128	0.272300	0.375100	0.053700
C1061	C106	0.078300	0.433100	0.266200
C1071	C107	0.054800	0.467000	0.329100
H461	H46	0.013900	0.477800	0.331000
C1081	C108	0.095400	0.484300	0.389700
H471	H47	0.081600	0.506800	0.433300
C1091	C109	0.155700	0.467900	0.384300
H481	H48	0.183200	0.478200	0.424500
C1101	C110	0.174500	0.436100	0.318300
C1111	C111	0.239700	0.417500	0.304400
C1121	C112	0.039000	0.413300	0.197700
N161	N16	0.136200	0.417900	0.260700
