data_NATHUO_freeONLY_PM
_symmetry_space_group_name_H-M	'P1'
_cell_length_a	7.884900
_cell_length_b	36.832800
_cell_length_c	26.765600
_cell_angle_alpha	90.000000
_cell_angle_beta	90.000000
_cell_angle_gamma	90.000000
_symmetry_Int_Tables_number 1

loop_
_symmetry_equiv_pos_as_xyz
'x,y,z'

loop_
_atom_site_label
_atom_site_type_symbol
_atom_site_fract_x
_atom_site_fract_y
_atom_site_fract_z
Zn11	Zn1	0.867610	0.204750	0.133610
F11	F1	0.865700	0.128070	0.987470
F21	F2	0.069100	0.148400	0.943620
F31	F3	0.861000	0.122510	0.907630
F41	F4	0.377900	0.332250	0.763840
F51	F5	0.585400	0.322160	0.713400
F61	F6	0.633600	0.334570	0.790300
F71	F7	0.895700	0.121900	0.240150
F81	F8	0.161500	0.118090	0.224300
F91	F9	0.035000	0.076350	0.267340
O11	O1	0.789900	0.215440	0.066400
O21	O2	0.009400	0.186680	0.033930
O31	O3	0.295200	0.282990	0.686150
O41	O4	0.441000	0.238390	0.650780
O51	O5	0.969900	0.156830	0.146670
O61	O6	0.712300	0.141950	0.121920
C11	C1	0.871400	0.201180	0.030920
C21	C2	0.789100	0.204990	0.980050
C31	C3	0.808800	0.180730	0.940150
C41	C4	0.740800	0.188750	0.893550
H11	H1	0.755400	0.172000	0.866900
C51	C5	0.651400	0.220860	0.885060
C61	C6	0.628800	0.244420	0.925400
H21	H2	0.566400	0.266200	0.920700
C71	C7	0.694700	0.236750	0.971800
H31	H3	0.676200	0.253200	0.998600
C81	C8	0.901100	0.145400	0.945400
C91	C9	0.587700	0.230120	0.834630
C101	C10	0.582600	0.266090	0.819320
H41	H4	0.619700	0.284500	0.841700
C111	C11	0.524900	0.276010	0.772210
C121	C12	0.472600	0.249340	0.738910
C131	C13	0.480800	0.213550	0.753500
H51	H5	0.449700	0.195100	0.730400
C141	C14	0.533000	0.203690	0.800850
H61	H6	0.531700	0.178900	0.810500
C151	C15	0.529100	0.315840	0.759580
C161	C16	0.400900	0.257260	0.687830
C171	C17	0.858900	0.134200	0.136200
C181	C18	0.905900	0.094060	0.139100
C191	C19	0.981500	0.077720	0.181300
C201	C20	0.018100	0.040870	0.180100
H71	H7	0.069300	0.029600	0.208200
C211	C21	0.980000	0.020140	0.137400
C221	C22	0.918500	0.037340	0.096500
H81	H8	0.902100	0.024000	0.066500
C231	C23	0.879600	0.073620	0.097600
H91	H9	0.833100	0.084700	0.068600
C241	C24	0.016000	0.098350	0.228000
Zn21	Zn2	0.867610	0.704750	0.633610
F101	F10	0.865700	0.628070	0.487470
F111	F11	0.069100	0.648400	0.443620
F121	F12	0.861000	0.622510	0.407630
F131	F13	0.377900	0.832250	0.263840
F141	F14	0.585400	0.822160	0.213400
F151	F15	0.633600	0.834570	0.290300
F161	F16	0.895700	0.621900	0.740150
F171	F17	0.161500	0.618090	0.724300
F181	F18	0.035000	0.576350	0.767340
O71	O7	0.789900	0.715440	0.566400
O81	O8	0.009400	0.686680	0.533930
O91	O9	0.295200	0.782990	0.186150
O101	O10	0.441000	0.738390	0.150780
O111	O11	0.969900	0.656830	0.646670
O121	O12	0.712300	0.641950	0.621920
C251	C25	0.871400	0.701180	0.530920
C261	C26	0.789100	0.704990	0.480050
C271	C27	0.808800	0.680730	0.440150
C281	C28	0.740800	0.688750	0.393550
H101	H10	0.755400	0.672000	0.366900
C291	C29	0.651400	0.720860	0.385060
C301	C30	0.628800	0.744420	0.425400
H111	H11	0.566400	0.766200	0.420700
C311	C31	0.694700	0.736750	0.471800
H121	H12	0.676200	0.753200	0.498600
C321	C32	0.901100	0.645400	0.445400
C331	C33	0.587700	0.730120	0.334630
C341	C34	0.582600	0.766090	0.319320
H131	H13	0.619700	0.784500	0.341700
C351	C35	0.524900	0.776010	0.272210
C361	C36	0.472600	0.749340	0.238910
C371	C37	0.480800	0.713550	0.253500
H141	H14	0.449700	0.695100	0.230400
C381	C38	0.533000	0.703690	0.300850
H151	H15	0.531700	0.678900	0.310500
C391	C39	0.529100	0.815840	0.259580
C401	C40	0.400900	0.757260	0.187830
C411	C41	0.858900	0.634200	0.636200
C421	C42	0.905900	0.594060	0.639100
C431	C43	0.981500	0.577720	0.681300
C441	C44	0.018100	0.540870	0.680100
H161	H16	0.069300	0.529600	0.708200
C451	C45	0.980000	0.520140	0.637400
C461	C46	0.918500	0.537340	0.596500
H171	H17	0.902100	0.524000	0.566500
C471	C47	0.879600	0.573620	0.597600
H181	H18	0.833100	0.584700	0.568600
C481	C48	0.016000	0.598350	0.728000
Zn31	Zn3	0.132390	0.795250	0.133610
F191	F19	0.134300	0.871930	0.987470
F201	F20	0.930900	0.851600	0.943620
F211	F21	0.139000	0.877490	0.907630
F221	F22	0.622100	0.667750	0.763840
F231	F23	0.414600	0.677840	0.713400
F241	F24	0.366400	0.665430	0.790300
F251	F25	0.104300	0.878100	0.240150
F261	F26	0.838500	0.881910	0.224300
F271	F27	0.965000	0.923650	0.267340
O131	O13	0.210100	0.784560	0.066400
O141	O14	0.990600	0.813320	0.033930
O151	O15	0.704800	0.717010	0.686150
O161	O16	0.559000	0.761610	0.650780
O171	O17	0.030100	0.843170	0.146670
O181	O18	0.287700	0.858050	0.121920
C491	C49	0.128600	0.798820	0.030920
C501	C50	0.210900	0.795010	0.980050
C511	C51	0.191200	0.819270	0.940150
C521	C52	0.259200	0.811250	0.893550
H191	H19	0.244600	0.828000	0.866900
C531	C53	0.348600	0.779140	0.885060
C541	C54	0.371200	0.755580	0.925400
H201	H20	0.433600	0.733800	0.920700
C551	C55	0.305300	0.763250	0.971800
H211	H21	0.323800	0.746800	0.998600
C561	C56	0.098900	0.854600	0.945400
C571	C57	0.412300	0.769880	0.834630
C581	C58	0.417400	0.733910	0.819320
H221	H22	0.380300	0.715500	0.841700
C591	C59	0.475100	0.723990	0.772210
C601	C60	0.527400	0.750660	0.738910
C611	C61	0.519200	0.786450	0.753500
H231	H23	0.550300	0.804900	0.730400
C621	C62	0.467000	0.796310	0.800850
H241	H24	0.468300	0.821100	0.810500
C631	C63	0.470900	0.684160	0.759580
C641	C64	0.599100	0.742740	0.687830
C651	C65	0.141100	0.865800	0.136200
C661	C66	0.094100	0.905940	0.139100
C671	C67	0.018500	0.922280	0.181300
C681	C68	0.981900	0.959130	0.180100
H251	H25	0.930700	0.970400	0.208200
C691	C69	0.020000	0.979860	0.137400
C701	C70	0.081500	0.962660	0.096500
H261	H26	0.097900	0.976000	0.066500
C711	C71	0.120400	0.926380	0.097600
H271	H27	0.166900	0.915300	0.068600
C721	C72	0.984000	0.901650	0.228000
Zn41	Zn4	0.132390	0.295250	0.633610
F281	F28	0.134300	0.371930	0.487470
F291	F29	0.930900	0.351600	0.443620
F301	F30	0.139000	0.377490	0.407630
F311	F31	0.622100	0.167750	0.263840
F321	F32	0.414600	0.177840	0.213400
F331	F33	0.366400	0.165430	0.290300
F341	F34	0.104300	0.378100	0.740150
F351	F35	0.838500	0.381910	0.724300
F361	F36	0.965000	0.423650	0.767340
O191	O19	0.210100	0.284560	0.566400
O201	O20	0.990600	0.313320	0.533930
O211	O21	0.704800	0.217010	0.186150
O221	O22	0.559000	0.261610	0.150780
O231	O23	0.030100	0.343170	0.646670
O241	O24	0.287700	0.358050	0.621920
C731	C73	0.128600	0.298820	0.530920
C741	C74	0.210900	0.295010	0.480050
C751	C75	0.191200	0.319270	0.440150
C761	C76	0.259200	0.311250	0.393550
H281	H28	0.244600	0.328000	0.366900
C771	C77	0.348600	0.279140	0.385060
C781	C78	0.371200	0.255580	0.425400
H291	H29	0.433600	0.233800	0.420700
C791	C79	0.305300	0.263250	0.471800
H301	H30	0.323800	0.246800	0.498600
C801	C80	0.098900	0.354600	0.445400
C811	C81	0.412300	0.269880	0.334630
C821	C82	0.417400	0.233910	0.319320
H311	H31	0.380300	0.215500	0.341700
C831	C83	0.475100	0.223990	0.272210
C841	C84	0.527400	0.250660	0.238910
C851	C85	0.519200	0.286450	0.253500
H321	H32	0.550300	0.304900	0.230400
C861	C86	0.467000	0.296310	0.300850
H331	H33	0.468300	0.321100	0.310500
C871	C87	0.470900	0.184160	0.259580
C881	C88	0.599100	0.242740	0.187830
C891	C89	0.141100	0.365800	0.636200
C901	C90	0.094100	0.405940	0.639100
C911	C91	0.018500	0.422280	0.681300
C921	C92	0.981900	0.459130	0.680100
H341	H34	0.930700	0.470400	0.708200
C931	C93	0.020000	0.479860	0.637400
C941	C94	0.081500	0.462660	0.596500
H351	H35	0.097900	0.476000	0.566500
C951	C95	0.120400	0.426380	0.597600
H361	H36	0.166900	0.415300	0.568600
C961	C96	0.984000	0.401650	0.728000
Zn51	Zn5	0.367610	0.295250	0.133610
F371	F37	0.365700	0.371930	0.987470
F381	F38	0.569100	0.351600	0.943620
F391	F39	0.361000	0.377490	0.907630
F401	F40	0.877900	0.167750	0.763840
F411	F41	0.085400	0.177840	0.713400
F421	F42	0.133600	0.165430	0.790300
F431	F43	0.395700	0.378100	0.240150
F441	F44	0.661500	0.381910	0.224300
F451	F45	0.535000	0.423650	0.267340
O251	O25	0.289900	0.284560	0.066400
O261	O26	0.509400	0.313320	0.033930
O271	O27	0.795200	0.217010	0.686150
O281	O28	0.941000	0.261610	0.650780
O291	O29	0.469900	0.343170	0.146670
O301	O30	0.212300	0.358050	0.121920
C971	C97	0.371400	0.298820	0.030920
C981	C98	0.289100	0.295010	0.980050
C991	C99	0.308800	0.319270	0.940150
C1001	C100	0.240800	0.311250	0.893550
H371	H37	0.255400	0.328000	0.866900
C1011	C101	0.151400	0.279140	0.885060
C1021	C102	0.128800	0.255580	0.925400
H381	H38	0.066400	0.233800	0.920700
C1031	C103	0.194700	0.263250	0.971800
H391	H39	0.176200	0.246800	0.998600
C1041	C104	0.401100	0.354600	0.945400
C1051	C105	0.087700	0.269880	0.834630
C1061	C106	0.082600	0.233910	0.819320
H401	H40	0.119700	0.215500	0.841700
C1071	C107	0.024900	0.223990	0.772210
C1081	C108	0.972600	0.250660	0.738910
C1091	C109	0.980800	0.286450	0.753500
H411	H41	0.949700	0.304900	0.730400
C1101	C110	0.033000	0.296310	0.800850
H421	H42	0.031700	0.321100	0.810500
C1111	C111	0.029100	0.184160	0.759580
C1121	C112	0.900900	0.242740	0.687830
C1131	C113	0.358900	0.365800	0.136200
C1141	C114	0.405900	0.405940	0.139100
C1151	C115	0.481500	0.422280	0.181300
C1161	C116	0.518100	0.459130	0.180100
H431	H43	0.569300	0.470400	0.208200
C1171	C117	0.480000	0.479860	0.137400
C1181	C118	0.418500	0.462660	0.096500
H441	H44	0.402100	0.476000	0.066500
C1191	C119	0.379600	0.426380	0.097600
H451	H45	0.333100	0.415300	0.068600
C1201	C120	0.516000	0.401650	0.228000
Zn61	Zn6	0.367610	0.795250	0.633610
F461	F46	0.365700	0.871930	0.487470
F471	F47	0.569100	0.851600	0.443620
F481	F48	0.361000	0.877490	0.407630
F491	F49	0.877900	0.667750	0.263840
F501	F50	0.085400	0.677840	0.213400
F511	F51	0.133600	0.665430	0.290300
F521	F52	0.395700	0.878100	0.740150
F531	F53	0.661500	0.881910	0.724300
F541	F54	0.535000	0.923650	0.767340
O311	O31	0.289900	0.784560	0.566400
O321	O32	0.509400	0.813320	0.533930
O331	O33	0.795200	0.717010	0.186150
O341	O34	0.941000	0.761610	0.150780
O351	O35	0.469900	0.843170	0.646670
O361	O36	0.212300	0.858050	0.621920
C1211	C121	0.371400	0.798820	0.530920
C1221	C122	0.289100	0.795010	0.480050
C1231	C123	0.308800	0.819270	0.440150
C1241	C124	0.240800	0.811250	0.393550
H461	H46	0.255400	0.828000	0.366900
C1251	C125	0.151400	0.779140	0.385060
C1261	C126	0.128800	0.755580	0.425400
H471	H47	0.066400	0.733800	0.420700
C1271	C127	0.194700	0.763250	0.471800
H481	H48	0.176200	0.746800	0.498600
C1281	C128	0.401100	0.854600	0.445400
C1291	C129	0.087700	0.769880	0.334630
C1301	C130	0.082600	0.733910	0.319320
H491	H49	0.119700	0.715500	0.341700
C1311	C131	0.024900	0.723990	0.272210
C1321	C132	0.972600	0.750660	0.238910
C1331	C133	0.980800	0.786450	0.253500
H501	H50	0.949700	0.804900	0.230400
C1341	C134	0.033000	0.796310	0.300850
H511	H51	0.031700	0.821100	0.310500
C1351	C135	0.029100	0.684160	0.259580
C1361	C136	0.900900	0.742740	0.187830
C1371	C137	0.358900	0.865800	0.636200
C1381	C138	0.405900	0.905940	0.639100
C1391	C139	0.481500	0.922280	0.681300
C1401	C140	0.518100	0.959130	0.680100
H521	H52	0.569300	0.970400	0.708200
C1411	C141	0.480000	0.979860	0.637400
C1421	C142	0.418500	0.962660	0.596500
H531	H53	0.402100	0.976000	0.566500
C1431	C143	0.379600	0.926380	0.597600
H541	H54	0.333100	0.915300	0.568600
C1441	C144	0.516000	0.901650	0.728000
Zn71	Zn7	0.632390	0.704750	0.133610
F551	F55	0.634300	0.628070	0.987470
F561	F56	0.430900	0.648400	0.943620
F571	F57	0.639000	0.622510	0.907630
F581	F58	0.122100	0.832250	0.763840
F591	F59	0.914600	0.822160	0.713400
F601	F60	0.866400	0.834570	0.790300
F611	F61	0.604300	0.621900	0.240150
F621	F62	0.338500	0.618090	0.224300
F631	F63	0.465000	0.576350	0.267340
O371	O37	0.710100	0.715440	0.066400
O381	O38	0.490600	0.686680	0.033930
O391	O39	0.204800	0.782990	0.686150
O401	O40	0.059000	0.738390	0.650780
O411	O41	0.530100	0.656830	0.146670
O421	O42	0.787700	0.641950	0.121920
C1451	C145	0.628600	0.701180	0.030920
C1461	C146	0.710900	0.704990	0.980050
C1471	C147	0.691200	0.680730	0.940150
C1481	C148	0.759200	0.688750	0.893550
H551	H55	0.744600	0.672000	0.866900
C1491	C149	0.848600	0.720860	0.885060
C1501	C150	0.871200	0.744420	0.925400
H561	H56	0.933600	0.766200	0.920700
C1511	C151	0.805300	0.736750	0.971800
H571	H57	0.823800	0.753200	0.998600
C1521	C152	0.598900	0.645400	0.945400
C1531	C153	0.912300	0.730120	0.834630
C1541	C154	0.917400	0.766090	0.819320
H581	H58	0.880300	0.784500	0.841700
C1551	C155	0.975100	0.776010	0.772210
C1561	C156	0.027400	0.749340	0.738910
C1571	C157	0.019200	0.713550	0.753500
H591	H59	0.050300	0.695100	0.730400
C1581	C158	0.967000	0.703690	0.800850
H601	H60	0.968300	0.678900	0.810500
C1591	C159	0.970900	0.815840	0.759580
C1601	C160	0.099100	0.757260	0.687830
C1611	C161	0.641100	0.634200	0.136200
C1621	C162	0.594100	0.594060	0.139100
C1631	C163	0.518500	0.577720	0.181300
C1641	C164	0.481900	0.540870	0.180100
H611	H61	0.430700	0.529600	0.208200
C1651	C165	0.520000	0.520140	0.137400
C1661	C166	0.581500	0.537340	0.096500
H621	H62	0.597900	0.524000	0.066500
C1671	C167	0.620400	0.573620	0.097600
H631	H63	0.666900	0.584700	0.068600
C1681	C168	0.484000	0.598350	0.228000
Zn81	Zn8	0.632390	0.204750	0.633610
F641	F64	0.634300	0.128070	0.487470
F651	F65	0.430900	0.148400	0.443620
F661	F66	0.639000	0.122510	0.407630
F671	F67	0.122100	0.332250	0.263840
F681	F68	0.914600	0.322160	0.213400
F691	F69	0.866400	0.334570	0.290300
F701	F70	0.604300	0.121900	0.740150
F711	F71	0.338500	0.118090	0.724300
F721	F72	0.465000	0.076350	0.767340
O431	O43	0.710100	0.215440	0.566400
O441	O44	0.490600	0.186680	0.533930
O451	O45	0.204800	0.282990	0.186150
O461	O46	0.059000	0.238390	0.150780
O471	O47	0.530100	0.156830	0.646670
O481	O48	0.787700	0.141950	0.621920
C1691	C169	0.628600	0.201180	0.530920
C1701	C170	0.710900	0.204990	0.480050
C1711	C171	0.691200	0.180730	0.440150
C1721	C172	0.759200	0.188750	0.393550
H641	H64	0.744600	0.172000	0.366900
C1731	C173	0.848600	0.220860	0.385060
C1741	C174	0.871200	0.244420	0.425400
H651	H65	0.933600	0.266200	0.420700
C1751	C175	0.805300	0.236750	0.471800
H661	H66	0.823800	0.253200	0.498600
C1761	C176	0.598900	0.145400	0.445400
C1771	C177	0.912300	0.230120	0.334630
C1781	C178	0.917400	0.266090	0.319320
H671	H67	0.880300	0.284500	0.341700
C1791	C179	0.975100	0.276010	0.272210
C1801	C180	0.027400	0.249340	0.238910
C1811	C181	0.019200	0.213550	0.253500
H681	H68	0.050300	0.195100	0.230400
C1821	C182	0.967000	0.203690	0.300850
H691	H69	0.968300	0.178900	0.310500
C1831	C183	0.970900	0.315840	0.259580
C1841	C184	0.099100	0.257260	0.187830
C1851	C185	0.641100	0.134200	0.636200
C1861	C186	0.594100	0.094060	0.639100
C1871	C187	0.518500	0.077720	0.681300
C1881	C188	0.481900	0.040870	0.680100
H701	H70	0.430700	0.029600	0.708200
C1891	C189	0.520000	0.020140	0.637400
C1901	C190	0.581500	0.037340	0.596500
H711	H71	0.597900	0.024000	0.566500
C1911	C191	0.620400	0.073620	0.597600
H721	H72	0.666900	0.084700	0.568600
C1921	C192	0.484000	0.098350	0.728000
