data_NATHOH_ion_b_PM
_symmetry_space_group_name_H-M	'P1'
_cell_length_a	17.049700
_cell_length_b	17.049700
_cell_length_c	24.908000
_cell_angle_alpha	120.071400
_cell_angle_beta	120.071400
_cell_angle_gamma	50.597600
_symmetry_Int_Tables_number 1

loop_
_symmetry_equiv_pos_as_xyz
'x,y,z'

loop_
_atom_site_label
_atom_site_type_symbol
_atom_site_fract_x
_atom_site_fract_y
_atom_site_fract_z
O11	O1	0.531540	0.192740	0.146800
O21	O2	0.694920	0.076520	0.109700
O31	O3	0.446800	0.490000	0.174500
O41	O4	0.535930	0.224130	0.061400
O61	O6	0.390620	0.168220	0.029200
O81	O8	0.600280	0.979880	0.097700
O101	O10	0.600420	0.016620	0.980000
O121	O12	0.772900	0.875300	0.052900
O141	O14	0.721690	0.111490	0.021300
O151	O15	0.421290	0.192490	0.940100
O171	O17	0.352500	0.378700	0.106500
O191	O19	0.416540	0.135140	0.138700
O211	O21	0.714700	0.059300	0.223400
O231	O23	0.799900	0.835300	0.161400
O241	O24	0.800200	0.890600	0.955300
O251	O25	0.595600	0.076400	0.889800
O261	O26	0.228600	0.341000	0.975100
O271	O27	0.226000	0.309400	0.092500
O281	O28	0.593100	0.984900	0.211500
O291	O29	0.371900	0.341700	0.208200
O301	O30	0.532500	0.197300	0.261000
O311	O31	0.424300	0.374300	0.325800
O321	O32	0.539700	0.350700	0.277100
O331	O33	0.645000	0.263600	0.178400
O341	O34	0.887700	0.938100	0.175300
O351	O35	0.890700	0.962700	0.084500
O361	O36	0.049600	0.912600	0.175800
O371	O37	0.373420	0.399020	0.013000
O381	O38	0.413600	0.461600	0.963600
O391	O39	0.539790	0.278590	0.975700
O401	O40	0.522430	0.434830	0.073600
O411	O41	0.895200	0.093400	0.194500
P421	P42	0.603210	0.192230	0.125550
P431	P43	0.462910	0.392410	0.006250
P441	P44	0.469130	0.317550	0.268890
P451	P45	0.930710	0.976910	0.157690
Mo461	Mo46	0.354050	0.267690	0.111440
Mo471	Mo47	0.579730	0.067050	0.184890
Mo481	Mo48	0.356020	0.294860	0.018220
Mo491	Mo49	0.583780	0.130440	0.965140
Mo501	Mo50	0.748990	0.980770	0.017880
Mo511	Mo51	0.747230	0.946210	0.144690
N521	N52	0.317000	0.620600	0.401300
N531	N53	0.160300	0.752500	0.380300
H541	H54	0.093000	0.792000	0.374300
N551	N55	0.281400	0.840200	0.270900
N561	N56	0.446600	0.775800	0.284000
H571	H57	0.512000	0.729800	0.285200
C581	C58	0.214600	0.644200	0.372000
H591	H59	0.187900	0.599500	0.351800
C601	C60	0.323700	0.701300	0.410600
H611	H61	0.386500	0.698700	0.423100
C621	C62	0.221900	0.790500	0.398600
H631	H63	0.202700	0.857300	0.402300
C641	C64	0.369300	0.756900	0.262000
H651	H65	0.378600	0.689600	0.242000
C661	C66	0.294600	0.924000	0.295100
H671	H67	0.242500	0.994900	0.303800
C681	C68	0.400200	0.884400	0.304400
H691	H69	0.432500	0.922900	0.320800
Na701	Na70	0.725430	0.210230	0.294010
Zn711	Zn71	0.438960	0.477480	0.407290
O721	O72	0.807260	0.468460	0.353200
O731	O73	0.923480	0.305080	0.390300
O741	O74	0.510000	0.553200	0.325500
O751	O75	0.775870	0.464070	0.438600
O771	O77	0.831780	0.609380	0.470800
O791	O79	0.020120	0.399720	0.402300
O811	O81	0.983380	0.399580	0.520000
O831	O83	0.124700	0.227100	0.447100
O851	O85	0.888510	0.278310	0.478700
O861	O86	0.807510	0.578710	0.559900
O881	O88	0.621300	0.647500	0.393500
O901	O90	0.864860	0.583460	0.361300
O921	O92	0.940700	0.285300	0.276600
O941	O94	0.164700	0.200100	0.338600
O951	O95	0.109400	0.199800	0.544700
O961	O96	0.923600	0.404400	0.610200
O971	O97	0.659000	0.771400	0.524900
O981	O98	0.690600	0.774000	0.407500
O991	O99	0.015100	0.406900	0.288500
O1001	O100	0.658300	0.628100	0.291800
O1011	O101	0.802700	0.467500	0.239000
O1021	O102	0.625700	0.575700	0.174200
O1031	O103	0.649300	0.460300	0.222900
O1041	O104	0.736400	0.355000	0.321600
O1051	O105	0.061900	0.112300	0.324700
O1061	O106	0.037300	0.109300	0.415500
O1071	O107	0.087400	0.950400	0.324200
O1081	O108	0.600980	0.626580	0.487000
O1091	O109	0.538400	0.586400	0.536400
O1101	O110	0.721410	0.460210	0.524300
O1111	O111	0.565170	0.477570	0.426400
O1121	O112	0.906600	0.104800	0.305500
P1131	P113	0.807770	0.396790	0.374450
P1141	P114	0.607590	0.537090	0.493750
P1151	P115	0.682450	0.530870	0.231110
P1161	P116	0.023090	0.069290	0.342310
Mo1171	Mo117	0.732310	0.645950	0.388560
Mo1181	Mo118	0.932950	0.420270	0.315110
Mo1191	Mo119	0.705140	0.643980	0.481780
Mo1201	Mo120	0.869560	0.416220	0.534860
Mo1211	Mo121	0.019230	0.251010	0.482120
Mo1221	Mo122	0.053790	0.252770	0.355310
N1231	N123	0.379400	0.683000	0.098700
N1241	N124	0.247500	0.839700	0.119700
H1251	H125	0.208000	0.907000	0.125700
N1261	N126	0.159800	0.718600	0.229100
N1271	N127	0.224200	0.553400	0.216000
H1281	H128	0.270200	0.488000	0.214800
C1291	C129	0.355800	0.785400	0.128000
H1301	H130	0.400500	0.812100	0.148200
C1311	C131	0.298700	0.676300	0.089400
H1321	H132	0.301300	0.613500	0.076900
C1331	C133	0.209500	0.778100	0.101400
H1341	H134	0.142700	0.797300	0.097700
C1351	C135	0.243100	0.630700	0.238000
H1361	H136	0.310400	0.621400	0.258000
C1371	C137	0.076000	0.705400	0.204900
H1381	H138	0.005100	0.757500	0.196200
C1391	C139	0.115600	0.599800	0.195600
H1401	H140	0.077100	0.567500	0.179200
Na1411	Na141	0.789770	0.274570	0.205990
Zn1421	Zn142	0.522520	0.561040	0.092710
O1431	O143	0.468460	0.807260	0.853200
O1441	O144	0.305080	0.923480	0.890300
O1451	O145	0.553200	0.510000	0.825500
O1461	O146	0.464070	0.775870	0.938600
O1481	O148	0.609380	0.831780	0.970800
O1501	O150	0.399720	0.020120	0.902300
O1521	O152	0.399580	0.983380	0.020000
O1541	O154	0.227100	0.124700	0.947100
O1561	O156	0.278310	0.888510	0.978700
O1571	O157	0.578710	0.807510	0.059900
O1591	O159	0.647500	0.621300	0.893500
O1611	O161	0.583460	0.864860	0.861300
O1631	O163	0.285300	0.940700	0.776600
O1651	O165	0.200100	0.164700	0.838600
O1661	O166	0.199800	0.109400	0.044700
O1671	O167	0.404400	0.923600	0.110200
O1681	O168	0.771400	0.659000	0.024900
O1691	O169	0.774000	0.690600	0.907500
O1701	O170	0.406900	0.015100	0.788500
O1711	O171	0.628100	0.658300	0.791800
O1721	O172	0.467500	0.802700	0.739000
O1731	O173	0.575700	0.625700	0.674200
O1741	O174	0.460300	0.649300	0.722900
O1751	O175	0.355000	0.736400	0.821600
O1761	O176	0.112300	0.061900	0.824700
O1771	O177	0.109300	0.037300	0.915500
O1781	O178	0.950400	0.087400	0.824200
O1791	O179	0.626580	0.600980	0.987000
O1801	O180	0.586400	0.538400	0.036400
O1811	O181	0.460210	0.721410	0.024300
O1821	O182	0.477570	0.565170	0.926400
O1831	O183	0.104800	0.906600	0.805500
P1841	P184	0.396790	0.807770	0.874450
P1851	P185	0.537090	0.607590	0.993750
P1861	P186	0.530870	0.682450	0.731110
P1871	P187	0.069290	0.023090	0.842310
Mo1881	Mo188	0.645950	0.732310	0.888560
Mo1891	Mo189	0.420270	0.932950	0.815110
Mo1901	Mo190	0.643980	0.705140	0.981780
Mo1911	Mo191	0.416220	0.869560	0.034860
Mo1921	Mo192	0.251010	0.019230	0.982120
Mo1931	Mo193	0.252770	0.053790	0.855310
N1941	N194	0.683000	0.379400	0.598700
N1951	N195	0.839700	0.247500	0.619700
H1961	H196	0.907000	0.208000	0.625700
N1971	N197	0.718600	0.159800	0.729100
N1981	N198	0.553400	0.224200	0.716000
H1991	H199	0.488000	0.270200	0.714800
C2001	C200	0.785400	0.355800	0.628000
H2011	H201	0.812100	0.400500	0.648200
C2021	C202	0.676300	0.298700	0.589400
H2031	H203	0.613500	0.301300	0.576900
C2041	C204	0.778100	0.209500	0.601400
H2051	H205	0.797300	0.142700	0.597700
C2061	C206	0.630700	0.243100	0.738000
H2071	H207	0.621400	0.310400	0.758000
C2081	C208	0.705400	0.076000	0.704900
H2091	H209	0.757500	0.005100	0.696200
C2101	C210	0.599800	0.115600	0.695600
H2111	H211	0.567500	0.077100	0.679200
Na2121	Na212	0.274570	0.789770	0.705990
Zn2131	Zn213	0.561040	0.522520	0.592710
O2141	O214	0.192740	0.531540	0.646800
O2151	O215	0.076520	0.694920	0.609700
O2161	O216	0.490000	0.446800	0.674500
O2171	O217	0.224130	0.535930	0.561400
O2191	O219	0.168220	0.390620	0.529200
O2211	O221	0.979880	0.600280	0.597700
O2231	O223	0.016620	0.600420	0.480000
O2251	O225	0.875300	0.772900	0.552900
O2271	O227	0.111490	0.721690	0.521300
O2281	O228	0.192490	0.421290	0.440100
O2301	O230	0.378700	0.352500	0.606500
O2321	O232	0.135140	0.416540	0.638700
O2341	O234	0.059300	0.714700	0.723400
O2361	O236	0.835300	0.799900	0.661400
O2371	O237	0.890600	0.800200	0.455300
O2381	O238	0.076400	0.595600	0.389800
O2391	O239	0.341000	0.228600	0.475100
O2401	O240	0.309400	0.226000	0.592500
O2411	O241	0.984900	0.593100	0.711500
O2421	O242	0.341700	0.371900	0.708200
O2431	O243	0.197300	0.532500	0.761000
O2441	O244	0.374300	0.424300	0.825800
O2451	O245	0.350700	0.539700	0.777100
O2461	O246	0.263600	0.645000	0.678400
O2471	O247	0.938100	0.887700	0.675300
O2481	O248	0.962700	0.890700	0.584500
O2491	O249	0.912600	0.049600	0.675800
O2501	O250	0.399020	0.373420	0.513000
O2511	O251	0.461600	0.413600	0.463600
O2521	O252	0.278590	0.539790	0.475700
O2531	O253	0.434830	0.522430	0.573600
O2541	O254	0.093400	0.895200	0.694500
P2551	P255	0.192230	0.603210	0.625550
P2561	P256	0.392410	0.462910	0.506250
P2571	P257	0.317550	0.469130	0.768890
P2581	P258	0.976910	0.930710	0.657690
Mo2591	Mo259	0.267690	0.354050	0.611440
Mo2601	Mo260	0.067050	0.579730	0.684890
Mo2611	Mo261	0.294860	0.356020	0.518220
Mo2621	Mo262	0.130440	0.583780	0.465140
Mo2631	Mo263	0.980770	0.748990	0.517880
Mo2641	Mo264	0.946210	0.747230	0.644690
N2651	N265	0.620600	0.317000	0.901300
N2661	N266	0.752500	0.160300	0.880300
H2671	H267	0.792000	0.093000	0.874300
N2681	N268	0.840200	0.281400	0.770900
N2691	N269	0.775800	0.446600	0.784000
H2701	H270	0.729800	0.512000	0.785200
C2711	C271	0.644200	0.214600	0.872000
H2721	H272	0.599500	0.187900	0.851800
C2731	C273	0.701300	0.323700	0.910600
H2741	H274	0.698700	0.386500	0.923100
C2751	C275	0.790500	0.221900	0.898600
H2761	H276	0.857300	0.202700	0.902300
C2771	C277	0.756900	0.369300	0.762000
H2781	H278	0.689600	0.378600	0.742000
C2791	C279	0.924000	0.294600	0.795100
H2801	H280	0.994900	0.242500	0.803800
C2811	C281	0.884400	0.400200	0.804400
H2821	H282	0.922900	0.432500	0.820800
Na2831	Na283	0.210230	0.725430	0.794010
Zn2841	Zn284	0.477480	0.438960	0.907290
Mn2851	Mn285	0.500000	0.000000	0.000000
Mn2861	Mn286	0.000000	0.500000	0.500000
Mn2871	Mn287	0.582480	0.417520	0.250000
Zn2881	Zn288	0.143340	0.856660	0.250000
Mn2891	Mn289	0.417520	0.582480	0.750000
Zn2901	Zn290	0.856660	0.143340	0.750000
