data_NATHIC_freeONLY_PM
_symmetry_space_group_name_H-M	'P1'
_cell_length_a	29.756000
_cell_length_b	29.000000
_cell_length_c	7.626200
_cell_angle_alpha	90.000000
_cell_angle_beta	90.000000
_cell_angle_gamma	90.000000
_symmetry_Int_Tables_number 1

loop_
_symmetry_equiv_pos_as_xyz
'x,y,z'

loop_
_atom_site_label
_atom_site_type_symbol
_atom_site_fract_x
_atom_site_fract_y
_atom_site_fract_z
C11	C1	0.932700	0.103100	0.897700
H11	H1	0.942900	0.115600	0.005800
C21	C2	0.901800	0.067500	0.902600
H21	H2	0.892400	0.055300	0.012300
C31	C3	0.769500	0.936000	0.909000
H31	H3	0.781400	0.945900	0.018200
C41	C4	0.734600	0.903600	0.902000
H41	H4	0.722800	0.891600	0.008700
C51	C5	0.567300	0.743100	0.887000
H51	H5	0.554700	0.733800	0.996000
C61	C6	0.602800	0.773600	0.896000
H61	H6	0.616000	0.781700	0.005400
C71	C7	0.432700	0.603100	0.897700
H71	H7	0.442900	0.615600	0.005800
C81	C8	0.401800	0.567500	0.902600
H81	H8	0.392400	0.555300	0.012300
C91	C9	0.269500	0.436000	0.909000
H91	H9	0.281400	0.445900	0.018200
C101	C10	0.234600	0.403600	0.902000
H101	H10	0.222800	0.391600	0.008700
C111	C11	0.067300	0.243100	0.887000
H111	H11	0.054700	0.233800	0.996000
C121	C12	0.102800	0.273600	0.896000
H121	H12	0.116000	0.281700	0.005400
C131	C13	0.067300	0.103100	0.602300
H131	H13	0.057100	0.115600	0.494200
C141	C14	0.098200	0.067500	0.597400
H141	H14	0.107600	0.055300	0.487700
C151	C15	0.230500	0.936000	0.591000
H151	H15	0.218600	0.945900	0.481800
C161	C16	0.265400	0.903600	0.598000
H161	H16	0.277200	0.891600	0.491300
C171	C17	0.432700	0.743100	0.613000
H171	H17	0.445300	0.733800	0.504000
C181	C18	0.397200	0.773600	0.604000
H181	H18	0.384000	0.781700	0.494600
C191	C19	0.567300	0.603100	0.602300
H191	H19	0.557100	0.615600	0.494200
C201	C20	0.598200	0.567500	0.597400
H201	H20	0.607600	0.555300	0.487700
C211	C21	0.730500	0.436000	0.591000
H211	H21	0.718600	0.445900	0.481800
C221	C22	0.765400	0.403600	0.598000
H221	H22	0.777200	0.391600	0.491300
C231	C23	0.932700	0.243100	0.613000
H231	H23	0.945300	0.233800	0.504000
C241	C24	0.897200	0.273600	0.604000
H241	H24	0.884000	0.281700	0.494600
C251	C25	0.932700	0.103100	0.602300
H251	H25	0.942900	0.115600	0.494200
C261	C26	0.901800	0.067500	0.597400
H261	H26	0.892400	0.055300	0.487700
C271	C27	0.769500	0.936000	0.591000
H271	H27	0.781400	0.945900	0.481800
C281	C28	0.734600	0.903600	0.598000
H281	H28	0.722800	0.891600	0.491300
C291	C29	0.567300	0.743100	0.613000
H291	H29	0.554700	0.733800	0.504000
C301	C30	0.602800	0.773600	0.604000
H301	H30	0.616000	0.781700	0.494600
C311	C31	0.432700	0.603100	0.602300
H311	H31	0.442900	0.615600	0.494200
C321	C32	0.401800	0.567500	0.597400
H321	H32	0.392400	0.555300	0.487700
C331	C33	0.269500	0.436000	0.591000
H331	H33	0.281400	0.445900	0.481800
C341	C34	0.234600	0.403600	0.598000
H341	H34	0.222800	0.391600	0.491300
C351	C35	0.067300	0.243100	0.613000
H351	H35	0.054700	0.233800	0.504000
C361	C36	0.102800	0.273600	0.604000
H361	H36	0.116000	0.281700	0.494600
C371	C37	0.067300	0.103100	0.897700
H371	H37	0.057100	0.115600	0.005800
C381	C38	0.098200	0.067500	0.902600
H381	H38	0.107600	0.055300	0.012300
C391	C39	0.230500	0.936000	0.909000
H391	H39	0.218600	0.945900	0.018200
C401	C40	0.265400	0.903600	0.902000
H401	H40	0.277200	0.891600	0.008700
C411	C41	0.432700	0.743100	0.887000
H411	H41	0.445300	0.733800	0.996000
C421	C42	0.397200	0.773600	0.896000
H421	H42	0.384000	0.781700	0.005400
C431	C43	0.567300	0.603100	0.897700
H431	H43	0.557100	0.615600	0.005800
C441	C44	0.598200	0.567500	0.902600
H441	H44	0.607600	0.555300	0.012300
C451	C45	0.730500	0.436000	0.909000
H451	H45	0.718600	0.445900	0.018200
C461	C46	0.765400	0.403600	0.902000
H461	H46	0.777200	0.391600	0.008700
C471	C47	0.932700	0.243100	0.887000
H471	H47	0.945300	0.233800	0.996000
C481	C48	0.897200	0.273600	0.896000
H481	H48	0.884000	0.281700	0.005400
Zn11	Zn1	0.500000	0.673020	0.750000
Zn21	Zn2	0.000000	0.173020	0.750000
Si11	Si1	0.500000	0.674700	0.250000
F11	F1	0.500000	0.732200	0.250000
F21	F2	0.500000	0.617000	0.250000
Si21	Si2	0.000000	0.174700	0.250000
F31	F3	0.000000	0.232200	0.250000
F41	F4	0.000000	0.117000	0.250000
F51	F5	0.556000	0.673400	0.250000
F61	F6	0.056000	0.173400	0.250000
F71	F7	0.444000	0.673400	0.250000
F81	F8	0.944000	0.173400	0.250000
F91	F9	0.500000	0.673800	0.472500
F101	F10	0.000000	0.173800	0.472500
F111	F11	0.500000	0.673800	0.027500
F121	F12	0.000000	0.173800	0.027500
C491	C49	0.652000	0.824900	0.750000
N11	N1	0.549700	0.726100	0.750000
C501	C50	0.884700	0.049700	0.750000
C511	C51	0.820900	0.987100	0.750000
C521	C52	0.617800	0.790900	0.750000
C531	C53	0.786800	0.953600	0.750000
C541	C54	0.717700	0.889300	0.750000
C551	C55	0.680000	0.857700	0.750000
C561	C56	0.849900	0.014800	0.750000
N21	N2	0.949000	0.120800	0.750000
C571	C57	0.152000	0.324900	0.750000
N31	N3	0.049700	0.226100	0.750000
C581	C58	0.384700	0.549700	0.750000
C591	C59	0.320900	0.487100	0.750000
C601	C60	0.117800	0.290900	0.750000
C611	C61	0.286800	0.453600	0.750000
C621	C62	0.217700	0.389300	0.750000
C631	C63	0.180000	0.357700	0.750000
C641	C64	0.349900	0.514800	0.750000
N41	N4	0.449000	0.620800	0.750000
C651	C65	0.348000	0.824900	0.750000
N51	N5	0.450300	0.726100	0.750000
C661	C66	0.115300	0.049700	0.750000
C671	C67	0.179100	0.987100	0.750000
C681	C68	0.382200	0.790900	0.750000
C691	C69	0.213200	0.953600	0.750000
C701	C70	0.282300	0.889300	0.750000
C711	C71	0.320000	0.857700	0.750000
C721	C72	0.150100	0.014800	0.750000
N61	N6	0.051000	0.120800	0.750000
C731	C73	0.848000	0.324900	0.750000
N71	N7	0.950300	0.226100	0.750000
C741	C74	0.615300	0.549700	0.750000
C751	C75	0.679100	0.487100	0.750000
C761	C76	0.882200	0.290900	0.750000
C771	C77	0.713200	0.453600	0.750000
C781	C78	0.782300	0.389300	0.750000
C791	C79	0.820000	0.357700	0.750000
C801	C80	0.650100	0.514800	0.750000
N81	N8	0.551000	0.620800	0.750000
C811	C81	0.067300	0.896900	0.397700
H491	H49	0.057100	0.884400	0.505800
C821	C82	0.098200	0.932500	0.402600
H501	H50	0.107600	0.944700	0.512300
C831	C83	0.230500	0.064000	0.409000
H511	H51	0.218600	0.054100	0.518200
C841	C84	0.265400	0.096400	0.402000
H521	H52	0.277200	0.108400	0.508700
C851	C85	0.432700	0.256900	0.387000
H531	H53	0.445300	0.266200	0.496000
C861	C86	0.397200	0.226400	0.396000
H541	H54	0.384000	0.218300	0.505400
C871	C87	0.567300	0.396900	0.397700
H551	H55	0.557100	0.384400	0.505800
C881	C88	0.598200	0.432500	0.402600
H561	H56	0.607600	0.444700	0.512300
C891	C89	0.730500	0.564000	0.409000
H571	H57	0.718600	0.554100	0.518200
C901	C90	0.765400	0.596400	0.402000
H581	H58	0.777200	0.608400	0.508700
C911	C91	0.932700	0.756900	0.387000
H591	H59	0.945300	0.766200	0.496000
C921	C92	0.897200	0.726400	0.396000
H601	H60	0.884000	0.718300	0.505400
C931	C93	0.932700	0.896900	0.102300
H611	H61	0.942900	0.884400	0.994200
C941	C94	0.901800	0.932500	0.097400
H621	H62	0.892400	0.944700	0.987700
C951	C95	0.769500	0.064000	0.091000
H631	H63	0.781400	0.054100	0.981800
C961	C96	0.734600	0.096400	0.098000
H641	H64	0.722800	0.108400	0.991300
C971	C97	0.567300	0.256900	0.113000
H651	H65	0.554700	0.266200	0.004000
C981	C98	0.602800	0.226400	0.104000
H661	H66	0.616000	0.218300	0.994600
C991	C99	0.432700	0.396900	0.102300
H671	H67	0.442900	0.384400	0.994200
C1001	C100	0.401800	0.432500	0.097400
H681	H68	0.392400	0.444700	0.987700
C1011	C101	0.269500	0.564000	0.091000
H691	H69	0.281400	0.554100	0.981800
C1021	C102	0.234600	0.596400	0.098000
H701	H70	0.222800	0.608400	0.991300
C1031	C103	0.067300	0.756900	0.113000
H711	H71	0.054700	0.766200	0.004000
C1041	C104	0.102800	0.726400	0.104000
H721	H72	0.116000	0.718300	0.994600
C1051	C105	0.067300	0.896900	0.102300
H731	H73	0.057100	0.884400	0.994200
C1061	C106	0.098200	0.932500	0.097400
H741	H74	0.107600	0.944700	0.987700
C1071	C107	0.230500	0.064000	0.091000
H751	H75	0.218600	0.054100	0.981800
C1081	C108	0.265400	0.096400	0.098000
H761	H76	0.277200	0.108400	0.991300
C1091	C109	0.432700	0.256900	0.113000
H771	H77	0.445300	0.266200	0.004000
C1101	C110	0.397200	0.226400	0.104000
H781	H78	0.384000	0.218300	0.994600
C1111	C111	0.567300	0.396900	0.102300
H791	H79	0.557100	0.384400	0.994200
C1121	C112	0.598200	0.432500	0.097400
H801	H80	0.607600	0.444700	0.987700
C1131	C113	0.730500	0.564000	0.091000
H811	H81	0.718600	0.554100	0.981800
C1141	C114	0.765400	0.596400	0.098000
H821	H82	0.777200	0.608400	0.991300
C1151	C115	0.932700	0.756900	0.113000
H831	H83	0.945300	0.766200	0.004000
C1161	C116	0.897200	0.726400	0.104000
H841	H84	0.884000	0.718300	0.994600
C1171	C117	0.932700	0.896900	0.397700
H851	H85	0.942900	0.884400	0.505800
C1181	C118	0.901800	0.932500	0.402600
H861	H86	0.892400	0.944700	0.512300
C1191	C119	0.769500	0.064000	0.409000
H871	H87	0.781400	0.054100	0.518200
C1201	C120	0.734600	0.096400	0.402000
H881	H88	0.722800	0.108400	0.508700
C1211	C121	0.567300	0.256900	0.387000
H891	H89	0.554700	0.266200	0.496000
C1221	C122	0.602800	0.226400	0.396000
H901	H90	0.616000	0.218300	0.505400
C1231	C123	0.432700	0.396900	0.397700
H911	H91	0.442900	0.384400	0.505800
C1241	C124	0.401800	0.432500	0.402600
H921	H92	0.392400	0.444700	0.512300
C1251	C125	0.269500	0.564000	0.409000
H931	H93	0.281400	0.554100	0.518200
C1261	C126	0.234600	0.596400	0.402000
H941	H94	0.222800	0.608400	0.508700
C1271	C127	0.067300	0.756900	0.387000
H951	H95	0.054700	0.766200	0.496000
C1281	C128	0.102800	0.726400	0.396000
H961	H96	0.116000	0.718300	0.505400
Zn31	Zn3	0.500000	0.326980	0.250000
Zn41	Zn4	0.000000	0.826980	0.250000
Si31	Si3	0.500000	0.325300	0.750000
F131	F13	0.500000	0.267800	0.750000
F141	F14	0.500000	0.383000	0.750000
Si41	Si4	0.000000	0.825300	0.750000
F151	F15	0.000000	0.767800	0.750000
F161	F16	0.000000	0.883000	0.750000
F171	F17	0.444000	0.326600	0.750000
F181	F18	0.944000	0.826600	0.750000
F191	F19	0.556000	0.326600	0.750000
F201	F20	0.056000	0.826600	0.750000
F211	F21	0.500000	0.326200	0.972500
F221	F22	0.000000	0.826200	0.972500
F231	F23	0.500000	0.326200	0.527500
F241	F24	0.000000	0.826200	0.527500
C1291	C129	0.348000	0.175100	0.250000
N91	N9	0.450300	0.273900	0.250000
C1301	C130	0.115300	0.950300	0.250000
C1311	C131	0.179100	0.012900	0.250000
C1321	C132	0.382200	0.209100	0.250000
C1331	C133	0.213200	0.046400	0.250000
C1341	C134	0.282300	0.110700	0.250000
C1351	C135	0.320000	0.142300	0.250000
C1361	C136	0.150100	0.985200	0.250000
N101	N10	0.051000	0.879200	0.250000
C1371	C137	0.848000	0.675100	0.250000
N111	N11	0.950300	0.773900	0.250000
C1381	C138	0.615300	0.450300	0.250000
C1391	C139	0.679100	0.512900	0.250000
C1401	C140	0.882200	0.709100	0.250000
C1411	C141	0.713200	0.546400	0.250000
C1421	C142	0.782300	0.610700	0.250000
C1431	C143	0.820000	0.642300	0.250000
C1441	C144	0.650100	0.485200	0.250000
N121	N12	0.551000	0.379200	0.250000
C1451	C145	0.652000	0.175100	0.250000
N131	N13	0.549700	0.273900	0.250000
C1461	C146	0.884700	0.950300	0.250000
C1471	C147	0.820900	0.012900	0.250000
C1481	C148	0.617800	0.209100	0.250000
C1491	C149	0.786800	0.046400	0.250000
C1501	C150	0.717700	0.110700	0.250000
C1511	C151	0.680000	0.142300	0.250000
C1521	C152	0.849900	0.985200	0.250000
N141	N14	0.949000	0.879200	0.250000
C1531	C153	0.152000	0.675100	0.250000
N151	N15	0.049700	0.773900	0.250000
C1541	C154	0.384700	0.450300	0.250000
C1551	C155	0.320900	0.512900	0.250000
C1561	C156	0.117800	0.709100	0.250000
C1571	C157	0.286800	0.546400	0.250000
C1581	C158	0.217700	0.610700	0.250000
C1591	C159	0.180000	0.642300	0.250000
C1601	C160	0.349900	0.485200	0.250000
N161	N16	0.449000	0.379200	0.250000
