data_NAVJAW01_freeONLY_PM
_symmetry_space_group_name_H-M	'P1'
_cell_length_a	6.718240
_cell_length_b	15.267400
_cell_length_c	15.267400
_cell_angle_alpha	62.113100
_cell_angle_beta	81.565500
_cell_angle_gamma	98.434500
_symmetry_Int_Tables_number 1

loop_
_symmetry_equiv_pos_as_xyz
'x,y,z'

loop_
_atom_site_label
_atom_site_type_symbol
_atom_site_fract_x
_atom_site_fract_y
_atom_site_fract_z
Co11	Co1	0.619710	0.315530	0.420050
Co21	Co2	0.039760	0.420050	0.264420
Co31	Co3	0.304180	0.264420	0.315530
Co41	Co4	0.380290	0.684470	0.579950
Co51	Co5	0.960240	0.579950	0.735580
Co61	Co6	0.695820	0.735580	0.684470
H11	H1	0.284700	0.448790	0.570320
H21	H2	0.855020	0.570320	0.980890
H31	H3	0.835910	0.980890	0.448790
H41	H4	0.715300	0.551210	0.429680
H51	H5	0.144980	0.429680	0.019110
H61	H6	0.164090	0.019110	0.551210
C11	C1	0.235040	0.394560	0.432570
C21	C2	0.122350	0.452330	0.461030
C31	C3	0.935010	0.468700	0.431860
C41	C4	0.169090	0.470340	0.542250
C51	C5	0.667610	0.432570	0.172870
C61	C6	0.583380	0.461030	0.086640
C71	C7	0.366870	0.431860	0.099440
C81	C8	0.711340	0.542250	0.987410
C91	C9	0.840480	0.172870	0.394560
C101	C10	0.670020	0.086640	0.452330
C111	C11	0.466310	0.099440	0.468700
C121	C12	0.698750	0.987410	0.470340
C131	C13	0.764960	0.605440	0.567430
C141	C14	0.877650	0.547670	0.538970
C151	C15	0.064990	0.531300	0.568140
C161	C16	0.830910	0.529660	0.457750
C171	C17	0.332390	0.567430	0.827130
C181	C18	0.416620	0.538970	0.913360
C191	C19	0.633130	0.568140	0.900560
C201	C20	0.288660	0.457750	0.012590
C211	C21	0.159520	0.827130	0.605440
C221	C22	0.329980	0.913360	0.547670
C231	C23	0.533690	0.900560	0.531300
C241	C24	0.301250	0.012590	0.529660
O11	O1	0.370020	0.359310	0.479970
O21	O2	0.168690	0.359480	0.379070
O31	O3	0.871630	0.438330	0.365640
O41	O4	0.849990	0.479970	0.160720
O51	O5	0.547760	0.379070	0.261450
O61	O6	0.237270	0.365640	0.196030
O71	O7	0.010710	0.160720	0.359310
O81	O8	0.809210	0.261450	0.359480
O91	O9	0.433300	0.196030	0.438330
O101	O10	0.629980	0.640690	0.520030
O111	O11	0.831310	0.640520	0.620930
O121	O12	0.128370	0.561670	0.634360
O131	O13	0.150010	0.520030	0.839280
O141	O14	0.452240	0.620930	0.738550
O151	O15	0.762730	0.634360	0.803970
O161	O16	0.989290	0.839280	0.640690
O171	O17	0.190790	0.738550	0.640520
O181	O18	0.566700	0.803970	0.561670
