data_NAXKOO_freeONLY_PM
_symmetry_space_group_name_H-M	'P1'
_cell_length_a	6.642500
_cell_length_b	16.387000
_cell_length_c	13.367900
_cell_angle_alpha	90.000000
_cell_angle_beta	90.000000
_cell_angle_gamma	90.000000
_symmetry_Int_Tables_number 1

loop_
_symmetry_equiv_pos_as_xyz
'x,y,z'

loop_
_atom_site_label
_atom_site_type_symbol
_atom_site_fract_x
_atom_site_fract_y
_atom_site_fract_z
C11	C1	0.184430	0.534000	0.532700
O11	O1	0.161900	0.665670	0.659300
N11	N1	0.369000	0.432000	0.435000
C21	C2	0.684430	0.034000	0.032700
O21	O2	0.661900	0.165670	0.159300
N21	N2	0.869000	0.932000	0.935000
C31	C3	0.815570	0.966000	0.532700
O31	O3	0.838100	0.834330	0.659300
N31	N3	0.631000	0.068000	0.435000
C41	C4	0.315570	0.466000	0.032700
O41	O4	0.338100	0.334330	0.159300
N41	N4	0.131000	0.568000	0.935000
C51	C5	0.815570	0.034000	0.467300
O51	O5	0.838100	0.165670	0.340700
N51	N5	0.631000	0.932000	0.565000
C61	C6	0.315570	0.534000	0.967300
O61	O6	0.338100	0.665670	0.840700
N61	N6	0.131000	0.432000	0.065000
C71	C7	0.184430	0.466000	0.467300
O71	O7	0.161900	0.334330	0.340700
N71	N7	0.369000	0.568000	0.565000
C81	C8	0.684430	0.966000	0.967300
O81	O8	0.661900	0.834330	0.840700
N81	N8	0.869000	0.068000	0.065000
C91	C9	0.815570	0.466000	0.467300
O91	O9	0.838100	0.334330	0.340700
N91	N9	0.631000	0.568000	0.565000
C101	C10	0.315570	0.966000	0.967300
O101	O10	0.338100	0.834330	0.840700
N101	N10	0.131000	0.068000	0.065000
C111	C11	0.184430	0.034000	0.467300
O111	O11	0.161900	0.165670	0.340700
N111	N11	0.369000	0.932000	0.565000
C121	C12	0.684430	0.534000	0.967300
O121	O12	0.661900	0.665670	0.840700
N121	N12	0.869000	0.432000	0.065000
C131	C13	0.184430	0.966000	0.532700
O131	O13	0.161900	0.834330	0.659300
N131	N13	0.369000	0.068000	0.435000
C141	C14	0.684430	0.466000	0.032700
O141	O14	0.661900	0.334330	0.159300
N141	N14	0.869000	0.568000	0.935000
C151	C15	0.815570	0.534000	0.532700
O151	O15	0.838100	0.665670	0.659300
N151	N15	0.631000	0.432000	0.435000
C161	C16	0.315570	0.034000	0.032700
O161	O16	0.338100	0.165670	0.159300
N161	N16	0.131000	0.932000	0.935000
Al11	Al1	0.250000	0.250000	0.250000
Al21	Al2	0.750000	0.250000	0.250000
Al31	Al3	0.750000	0.750000	0.750000
Al41	Al4	0.250000	0.750000	0.750000
O171	O17	0.000000	0.250000	0.188400
O181	O18	0.500000	0.750000	0.688400
O191	O19	0.000000	0.750000	0.811600
O201	O20	0.500000	0.250000	0.311600
C171	C17	0.000000	0.568000	0.565300
C181	C18	0.000000	0.635900	0.630600
C191	C19	0.500000	0.068000	0.065300
C201	C20	0.500000	0.135900	0.130600
C211	C21	0.000000	0.932000	0.565300
C221	C22	0.000000	0.864100	0.630600
C231	C23	0.500000	0.432000	0.065300
C241	C24	0.500000	0.364100	0.130600
C251	C25	0.000000	0.068000	0.434700
C261	C26	0.000000	0.135900	0.369400
C271	C27	0.500000	0.568000	0.934700
C281	C28	0.500000	0.635900	0.869400
C291	C29	0.000000	0.432000	0.434700
C301	C30	0.000000	0.364100	0.369400
C311	C31	0.500000	0.932000	0.934700
C321	C32	0.500000	0.864100	0.869400
