data_NAXLII_freeONLY_PM
_symmetry_space_group_name_H-M	'P1'
_cell_length_a	10.318700
_cell_length_b	13.665100
_cell_length_c	16.141900
_cell_angle_alpha	102.047000
_cell_angle_beta	108.580000
_cell_angle_gamma	99.147000
_symmetry_Int_Tables_number 1

loop_
_symmetry_equiv_pos_as_xyz
'x,y,z'

loop_
_atom_site_label
_atom_site_type_symbol
_atom_site_fract_x
_atom_site_fract_y
_atom_site_fract_z
Zn11	Zn1	0.713300	0.252360	0.239930
Zn21	Zn2	0.524800	0.206800	0.874620
P11	P1	0.463100	0.244390	0.059760
P21	P2	0.483590	0.414800	0.804230
P31	P3	0.620100	0.019140	0.173770
O11	O1	0.349300	0.308600	0.039500
H11	H1	0.360500	0.359200	0.057400
O21	O2	0.553200	0.284700	0.160300
O31	O3	0.381100	0.132900	0.033100
O41	O4	0.552900	0.260100	0.002300
O51	O5	0.340100	0.443800	0.799800
H21	H2	0.335200	0.463300	0.847100
O61	O6	0.487900	0.416600	0.708700
H31	H3	0.492300	0.385700	0.674100
O71	O7	0.604500	0.496100	0.877100
O81	O8	0.473900	0.306500	0.810900
O91	O9	0.686100	0.026900	0.099900
O101	O10	0.461800	0.019900	0.134200
H41	H4	0.436800	0.064600	0.097600
O111	O11	0.624300	0.918500	0.197900
O121	O12	0.702600	0.114100	0.253600
N11	N1	0.879500	0.303900	0.208300
N21	N2	0.015300	0.411600	0.167600
N31	N3	0.722700	0.196900	0.889300
N41	N4	0.934000	0.170500	0.955000
N51	N5	0.742900	0.346100	0.361800
N61	N6	0.734100	0.478400	0.465100
C11	C1	0.886500	0.381400	0.172800
H51	H5	0.810800	0.412900	0.153000
C21	C2	0.048100	0.493700	0.124400
H61	H6	0.151500	0.521600	0.147700
H71	H7	0.005400	0.550700	0.142100
C31	C3	0.994200	0.455200	0.021000
H81	H8	0.894600	0.416100	0.998000
H91	H9	0.049800	0.407800	0.002700
C41	C4	0.096600	0.348800	0.202800
C51	C5	0.012300	0.280900	0.228300
C61	C6	0.059900	0.202700	0.263600
H101	H10	0.001000	0.155400	0.279800
C71	C7	0.196200	0.197300	0.274100
H111	H11	0.232400	0.145500	0.298400
C81	C8	0.283100	0.267000	0.249400
H121	H12	0.376100	0.260600	0.256500
C91	C9	0.235400	0.345000	0.214700
H131	H13	0.294700	0.393500	0.199800
C101	C10	0.806200	0.172500	0.957900
H141	H14	0.778400	0.157500	0.005500
C111	C11	0.051100	0.148700	0.021600
H151	H15	0.040900	0.165700	0.081600
H161	H16	0.140300	0.194000	0.027300
C121	C12	0.060300	0.037000	0.997400
H171	H17	0.061100	0.017800	0.935000
H181	H18	0.150200	0.030400	0.039500
C131	C13	0.935400	0.195900	0.876300
C141	C14	0.040300	0.207400	0.839900
H191	H19	0.130400	0.195800	0.868000
C151	C15	0.005300	0.236800	0.760200
H201	H20	0.074300	0.247000	0.733400
C161	C16	0.871600	0.252000	0.717400
H211	H21	0.851900	0.270500	0.661900
C171	C17	0.767700	0.240800	0.754300
H221	H22	0.677600	0.252000	0.725900
C181	C18	0.801900	0.212000	0.835300
C191	C19	0.679700	0.420800	0.376700
H231	H23	0.604600	0.433100	0.331000
C201	C20	0.686100	0.566100	0.505100
H241	H24	0.651600	0.602900	0.458900
H251	H25	0.766700	0.614800	0.556700
C211	C21	0.568400	0.531200	0.538600
H261	H26	0.600100	0.488800	0.580400
H271	H27	0.550100	0.592700	0.573500
C221	C22	0.841300	0.437700	0.510200
C231	C23	0.936800	0.468600	0.600100
H281	H28	0.932000	0.524900	0.644000
C241	C24	0.038500	0.413700	0.622200
H291	H29	0.106000	0.433200	0.682500
C251	C25	0.044000	0.330600	0.558000
H301	H30	0.115200	0.294600	0.575700
C261	C26	0.947800	0.298300	0.468300
H311	H31	0.951300	0.240900	0.424900
C271	C27	0.846800	0.354300	0.445800
Zn31	Zn3	0.286700	0.747640	0.760070
Zn41	Zn4	0.475200	0.793200	0.125380
P41	P4	0.536900	0.755610	0.940240
P51	P5	0.516410	0.585200	0.195770
P61	P6	0.379900	0.980860	0.826230
O131	O13	0.650700	0.691400	0.960500
H321	H32	0.639500	0.640800	0.942600
O141	O14	0.446800	0.715300	0.839700
O151	O15	0.618900	0.867100	0.966900
O161	O16	0.447100	0.739900	0.997700
O171	O17	0.659900	0.556200	0.200200
H331	H33	0.664800	0.536700	0.152900
O181	O18	0.512100	0.583400	0.291300
H341	H34	0.507700	0.614300	0.325900
O191	O19	0.395500	0.503900	0.122900
O201	O20	0.526100	0.693500	0.189100
O211	O21	0.313900	0.973100	0.900100
O221	O22	0.538200	0.980100	0.865800
H351	H35	0.563200	0.935400	0.902400
O231	O23	0.375700	0.081500	0.802100
O241	O24	0.297400	0.885900	0.746400
N71	N7	0.120500	0.696100	0.791700
N81	N8	0.984700	0.588400	0.832400
N91	N9	0.277300	0.803100	0.110700
N101	N10	0.066000	0.829500	0.045000
N111	N11	0.257100	0.653900	0.638200
N121	N12	0.265900	0.521600	0.534900
C281	C28	0.113500	0.618600	0.827200
H361	H36	0.189200	0.587100	0.847000
C291	C29	0.951900	0.506300	0.875600
H371	H37	0.848500	0.478400	0.852300
H381	H38	0.994600	0.449300	0.857900
C301	C30	0.005800	0.544800	0.979000
H391	H39	0.105400	0.583900	0.002000
H401	H40	0.950200	0.592200	0.997300
C311	C31	0.903400	0.651200	0.797200
C321	C32	0.987700	0.719100	0.771700
C331	C33	0.940100	0.797300	0.736400
H411	H41	0.999000	0.844600	0.720200
C341	C34	0.803800	0.802700	0.725900
H421	H42	0.767600	0.854500	0.701600
C351	C35	0.716900	0.733000	0.750600
H431	H43	0.623900	0.739400	0.743500
C361	C36	0.764600	0.655000	0.785300
H441	H44	0.705300	0.606500	0.800200
C371	C37	0.193800	0.827500	0.042100
H451	H45	0.221600	0.842500	0.994500
C381	C38	0.948900	0.851300	0.978400
H461	H46	0.959100	0.834300	0.918400
H471	H47	0.859700	0.806000	0.972700
C391	C39	0.939700	0.963000	0.002600
H481	H48	0.938900	0.982200	0.065000
H491	H49	0.849800	0.969600	0.960500
C401	C40	0.064600	0.804100	0.123700
C411	C41	0.959700	0.792600	0.160100
H501	H50	0.869600	0.804200	0.132000
C421	C42	0.994700	0.763200	0.239800
H511	H51	0.925700	0.753000	0.266600
C431	C43	0.128400	0.748000	0.282600
H521	H52	0.148100	0.729500	0.338100
C441	C44	0.232300	0.759200	0.245700
H531	H53	0.322400	0.748000	0.274100
C451	C45	0.198100	0.788000	0.164700
C461	C46	0.320300	0.579200	0.623300
H541	H54	0.395400	0.566900	0.669000
C471	C47	0.313900	0.433900	0.494900
H551	H55	0.348400	0.397100	0.541100
H561	H56	0.233300	0.385200	0.443300
C481	C48	0.431600	0.468800	0.461400
H571	H57	0.399900	0.511200	0.419600
H581	H58	0.449900	0.407300	0.426500
C491	C49	0.158700	0.562300	0.489800
C501	C50	0.063200	0.531400	0.399900
H591	H59	0.068000	0.475100	0.356000
C511	C51	0.961500	0.586300	0.377800
H601	H60	0.894000	0.566800	0.317500
C521	C52	0.956000	0.669400	0.442000
H611	H61	0.884800	0.705400	0.424300
C531	C53	0.052200	0.701700	0.531700
H621	H62	0.048700	0.759100	0.575100
C541	C54	0.153200	0.645700	0.554200
