data_NAZZEV_freeONLY_PM
_symmetry_space_group_name_H-M	'P1'
_cell_length_a	15.586400
_cell_length_b	25.475000
_cell_length_c	17.030100
_cell_angle_alpha	98.428000
_cell_angle_beta	90.000000
_cell_angle_gamma	90.000000
_symmetry_Int_Tables_number 1

loop_
_symmetry_equiv_pos_as_xyz
'x,y,z'

loop_
_atom_site_label
_atom_site_type_symbol
_atom_site_fract_x
_atom_site_fract_y
_atom_site_fract_z
Sm11	Sm1	0.295140	0.250360	0.962440
Sm21	Sm2	0.175930	0.248290	0.184930
Sm31	Sm3	0.795140	0.749640	0.537560
Sm41	Sm4	0.675930	0.751710	0.315070
Sm51	Sm5	0.704860	0.749640	0.037560
Sm61	Sm6	0.824070	0.751710	0.815070
Sm71	Sm7	0.204860	0.250360	0.462440
Sm81	Sm8	0.324070	0.248290	0.684930
H11	H1	0.995700	0.384900	0.113300
H21	H2	0.939800	0.463400	0.093300
H31	H3	0.162800	0.387600	0.933300
H41	H4	0.348500	0.126300	0.237500
H51	H5	0.423900	0.050800	0.261200
H61	H6	0.479400	0.126200	0.031800
H71	H7	0.501500	0.997600	0.280500
H81	H8	0.557300	0.914500	0.296200
H91	H9	0.642300	0.894800	0.068900
H101	H10	0.132500	0.086000	0.876800
H111	H11	0.054000	0.008900	0.883000
H121	H12	0.075000	0.129700	0.104800
H131	H13	0.352000	0.404100	0.278300
H141	H14	0.441000	0.478200	0.280500
H151	H15	0.407600	0.362900	0.045500
H161	H16	0.488700	0.546800	0.273300
H171	H17	0.553300	0.625800	0.266400
H181	H18	0.636800	0.574200	0.048800
H191	H19	0.495700	0.615100	0.386700
H201	H20	0.439800	0.536600	0.406700
H211	H21	0.662800	0.612400	0.566700
H221	H22	0.848500	0.873700	0.262500
H231	H23	0.923900	0.949200	0.238800
H241	H24	0.979400	0.873800	0.468200
H251	H25	0.001500	0.002400	0.219500
H261	H26	0.057300	0.085500	0.203800
H271	H27	0.142300	0.105200	0.431100
H281	H28	0.632500	0.914000	0.623200
H291	H29	0.554000	0.991100	0.617000
H301	H30	0.575000	0.870300	0.395200
H311	H31	0.852000	0.595900	0.221700
H321	H32	0.941000	0.521800	0.219500
H331	H33	0.907600	0.637100	0.454500
H341	H34	0.988700	0.453200	0.226700
H351	H35	0.053300	0.374200	0.233600
H361	H36	0.136800	0.425800	0.451200
H371	H37	0.004300	0.615100	0.886700
H381	H38	0.060200	0.536600	0.906700
H391	H39	0.837200	0.612400	0.066700
H401	H40	0.651500	0.873700	0.762500
H411	H41	0.576100	0.949200	0.738800
H421	H42	0.520600	0.873800	0.968200
H431	H43	0.498500	0.002400	0.719500
H441	H44	0.442700	0.085500	0.703800
H451	H45	0.357700	0.105200	0.931100
H461	H46	0.867500	0.914000	0.123200
H471	H47	0.946000	0.991100	0.117000
H481	H48	0.925000	0.870300	0.895200
H491	H49	0.648000	0.595900	0.721700
H501	H50	0.559000	0.521800	0.719500
H511	H51	0.592400	0.637100	0.954500
H521	H52	0.511300	0.453200	0.726700
H531	H53	0.446700	0.374200	0.733600
H541	H54	0.363200	0.425800	0.951200
H551	H55	0.504300	0.384900	0.613300
H561	H56	0.560200	0.463400	0.593300
H571	H57	0.337200	0.387600	0.433300
H581	H58	0.151500	0.126300	0.737500
H591	H59	0.076100	0.050800	0.761200
H601	H60	0.020600	0.126200	0.531800
H611	H61	0.998500	0.997600	0.780500
H621	H62	0.942700	0.914500	0.796200
H631	H63	0.857700	0.894800	0.568900
H641	H64	0.367500	0.086000	0.376800
H651	H65	0.446000	0.008900	0.383000
H661	H66	0.425000	0.129700	0.604800
H671	H67	0.148000	0.404100	0.778300
H681	H68	0.059000	0.478200	0.780500
H691	H69	0.092400	0.362900	0.545500
H701	H70	0.011300	0.546800	0.773300
H711	H71	0.946700	0.625800	0.766400
H721	H72	0.863200	0.574200	0.548800
C11	C1	0.124700	0.325400	0.042700
C21	C2	0.086400	0.377800	0.027900
C31	C3	0.019300	0.402200	0.072500
C41	C4	0.986200	0.448600	0.061200
C51	C5	0.017800	0.474400	0.004900
C61	C6	0.118000	0.403400	0.966300
C71	C7	0.352900	0.179100	0.115300
C81	C8	0.406800	0.133400	0.132400
C91	C9	0.390400	0.111000	0.200600
C101	C10	0.435200	0.066100	0.214700
C111	C11	0.496400	0.043600	0.160600
C121	C12	0.468100	0.110900	0.078400
C131	C13	0.632800	0.842200	0.194200
C141	C14	0.538800	0.995500	0.165400
C151	C15	0.530100	0.976700	0.237500
C161	C16	0.563200	0.927400	0.246900
C171	C17	0.605100	0.896800	0.184000
C181	C18	0.613700	0.915600	0.111800
C191	C19	0.166700	0.165300	0.994500
C201	C20	0.115200	0.115400	0.992700
C211	C21	0.107000	0.079700	0.925300
C221	C22	0.060000	0.034100	0.929500
C231	C23	0.025000	0.024500	0.995400
C241	C24	0.073000	0.104100	0.058200
C251	C25	0.312500	0.329300	0.157900
C261	C26	0.370500	0.375700	0.161500
C271	C27	0.381000	0.410600	0.231300
C281	C28	0.432200	0.454700	0.232500
C291	C29	0.470200	0.464100	0.164200
C301	C30	0.414000	0.386400	0.094000
C311	C31	0.520800	0.513400	0.163400
C321	C32	0.517900	0.552300	0.226200
C331	C33	0.556000	0.598600	0.221800
C341	C34	0.598900	0.608400	0.156000
C351	C35	0.605000	0.568400	0.094300
C361	C36	0.635300	0.662000	0.150300
C371	C37	0.508000	0.241200	0.963000
C381	C38	0.605000	0.308000	0.059000
C391	C39	0.616000	0.344000	0.995000
C401	C40	0.669000	0.222000	0.978000
C411	C41	0.668000	0.192000	0.050000
C421	C42	0.968000	0.260900	0.182000
C431	C43	0.826000	0.285000	0.177000
C441	C44	0.799000	0.298000	0.265000
C451	C45	0.905000	0.195000	0.242000
C461	C46	0.866000	0.156000	0.174000
C471	C47	0.624700	0.674600	0.457300
C481	C48	0.586400	0.622200	0.472100
C491	C49	0.519300	0.597800	0.427500
C501	C50	0.486200	0.551400	0.438800
C511	C51	0.517800	0.525600	0.495100
C521	C52	0.618000	0.596600	0.533700
C531	C53	0.852900	0.820900	0.384700
C541	C54	0.906800	0.866600	0.367600
C551	C55	0.890400	0.889000	0.299400
C561	C56	0.935200	0.933900	0.285300
C571	C57	0.996400	0.956400	0.339400
C581	C58	0.968100	0.889100	0.421600
C591	C59	0.132800	0.157800	0.305800
C601	C60	0.038800	0.004500	0.334600
C611	C61	0.030100	0.023300	0.262500
C621	C62	0.063200	0.072600	0.253100
C631	C63	0.105100	0.103200	0.316000
C641	C64	0.113700	0.084400	0.388200
C651	C65	0.666700	0.834700	0.505500
C661	C66	0.615200	0.884600	0.507300
C671	C67	0.607000	0.920300	0.574700
C681	C68	0.560000	0.965900	0.570500
C691	C69	0.525000	0.975500	0.504600
C701	C70	0.573000	0.895900	0.441800
C711	C71	0.812500	0.670700	0.342100
C721	C72	0.870500	0.624300	0.338500
C731	C73	0.881000	0.589400	0.268700
C741	C74	0.932200	0.545300	0.267500
C751	C75	0.970200	0.535900	0.335800
C761	C76	0.914000	0.613600	0.406000
C771	C77	0.020800	0.486600	0.336600
C781	C78	0.017900	0.447700	0.273800
C791	C79	0.056000	0.401400	0.278200
C801	C80	0.098900	0.391600	0.344000
C811	C81	0.105000	0.431600	0.405700
C821	C82	0.135300	0.338000	0.349700
C831	C83	0.008000	0.758800	0.537000
C841	C84	0.105000	0.692000	0.441000
C851	C85	0.116000	0.656000	0.505000
C861	C86	0.169000	0.778000	0.522000
C871	C87	0.168000	0.808000	0.450000
C881	C88	0.468000	0.739100	0.318000
C891	C89	0.326000	0.715000	0.323000
C901	C90	0.299000	0.702000	0.235000
C911	C91	0.405000	0.805000	0.258000
C921	C92	0.366000	0.844000	0.326000
C931	C93	0.875300	0.674600	0.957300
C941	C94	0.913600	0.622200	0.972100
C951	C95	0.980700	0.597800	0.927500
C961	C96	0.013800	0.551400	0.938800
C971	C97	0.982200	0.525600	0.995100
C981	C98	0.882000	0.596600	0.033700
C991	C99	0.647100	0.820900	0.884700
C1001	C100	0.593200	0.866600	0.867600
C1011	C101	0.609600	0.889000	0.799400
C1021	C102	0.564800	0.933900	0.785300
C1031	C103	0.503600	0.956400	0.839400
C1041	C104	0.531900	0.889100	0.921600
C1051	C105	0.367200	0.157800	0.805800
C1061	C106	0.461200	0.004500	0.834600
C1071	C107	0.469900	0.023300	0.762500
C1081	C108	0.436800	0.072600	0.753100
C1091	C109	0.394900	0.103200	0.816000
C1101	C110	0.386300	0.084400	0.888200
C1111	C111	0.833300	0.834700	0.005500
C1121	C112	0.884800	0.884600	0.007300
C1131	C113	0.893000	0.920300	0.074700
C1141	C114	0.940000	0.965900	0.070500
C1151	C115	0.975000	0.975500	0.004600
C1161	C116	0.927000	0.895900	0.941800
C1171	C117	0.687500	0.670700	0.842100
C1181	C118	0.629500	0.624300	0.838500
C1191	C119	0.619000	0.589400	0.768700
C1201	C120	0.567800	0.545300	0.767500
C1211	C121	0.529800	0.535900	0.835800
C1221	C122	0.586000	0.613600	0.906000
C1231	C123	0.479200	0.486600	0.836600
C1241	C124	0.482100	0.447700	0.773800
C1251	C125	0.444000	0.401400	0.778200
C1261	C126	0.401100	0.391600	0.844000
C1271	C127	0.395000	0.431600	0.905700
C1281	C128	0.364700	0.338000	0.849700
C1291	C129	0.492000	0.758800	0.037000
C1301	C130	0.395000	0.692000	0.941000
C1311	C131	0.384000	0.656000	0.005000
C1321	C132	0.331000	0.778000	0.022000
C1331	C133	0.332000	0.808000	0.950000
C1341	C134	0.032000	0.739100	0.818000
C1351	C135	0.174000	0.715000	0.823000
C1361	C136	0.201000	0.702000	0.735000
C1371	C137	0.095000	0.805000	0.758000
C1381	C138	0.134000	0.844000	0.826000
C1391	C139	0.375300	0.325400	0.542700
C1401	C140	0.413600	0.377800	0.527900
C1411	C141	0.480700	0.402200	0.572500
C1421	C142	0.513800	0.448600	0.561200
C1431	C143	0.482200	0.474400	0.504900
C1441	C144	0.382000	0.403400	0.466300
C1451	C145	0.147100	0.179100	0.615300
C1461	C146	0.093200	0.133400	0.632400
C1471	C147	0.109600	0.111000	0.700600
C1481	C148	0.064800	0.066100	0.714700
C1491	C149	0.003600	0.043600	0.660600
C1501	C150	0.031900	0.110900	0.578400
C1511	C151	0.867200	0.842200	0.694200
C1521	C152	0.961200	0.995500	0.665400
C1531	C153	0.969900	0.976700	0.737500
C1541	C154	0.936800	0.927400	0.746900
C1551	C155	0.894900	0.896800	0.684000
C1561	C156	0.886300	0.915600	0.611800
C1571	C157	0.333300	0.165300	0.494500
C1581	C158	0.384800	0.115400	0.492700
C1591	C159	0.393000	0.079700	0.425300
C1601	C160	0.440000	0.034100	0.429500
C1611	C161	0.475000	0.024500	0.495400
C1621	C162	0.427000	0.104100	0.558200
C1631	C163	0.187500	0.329300	0.657900
C1641	C164	0.129500	0.375700	0.661500
C1651	C165	0.119000	0.410600	0.731300
C1661	C166	0.067800	0.454700	0.732500
C1671	C167	0.029800	0.464100	0.664200
C1681	C168	0.086000	0.386400	0.594000
C1691	C169	0.979200	0.513400	0.663400
C1701	C170	0.982100	0.552300	0.726200
C1711	C171	0.944000	0.598600	0.721800
C1721	C172	0.901100	0.608400	0.656000
C1731	C173	0.895000	0.568400	0.594300
C1741	C174	0.864700	0.662000	0.650300
C1751	C175	0.992000	0.241200	0.463000
C1761	C176	0.895000	0.308000	0.559000
C1771	C177	0.884000	0.344000	0.495000
C1781	C178	0.831000	0.222000	0.478000
C1791	C179	0.832000	0.192000	0.550000
C1801	C180	0.532000	0.260900	0.682000
C1811	C181	0.674000	0.285000	0.677000
C1821	C182	0.701000	0.298000	0.765000
C1831	C183	0.595000	0.195000	0.742000
C1841	C184	0.634000	0.156000	0.674000
N11	N1	0.084000	0.452100	0.953200
N21	N2	0.512900	0.066100	0.092500
N31	N3	0.580600	0.965000	0.102500
N41	N4	0.030000	0.059800	0.061000
N51	N5	0.464500	0.429900	0.096400
N61	N6	0.566000	0.518800	0.095000
N71	N7	0.593000	0.260000	0.994000
N81	N8	0.882000	0.237000	0.188000
N91	N9	0.584000	0.547900	0.546800
N101	N10	0.012900	0.933900	0.407500
N111	N11	0.080600	0.035000	0.397500
N121	N12	0.530000	0.940200	0.439000
N131	N13	0.964500	0.570100	0.403600
N141	N14	0.066000	0.481200	0.405000
N151	N15	0.093000	0.740000	0.506000
N161	N16	0.382000	0.763000	0.312000
N171	N17	0.916000	0.547900	0.046800
N181	N18	0.487100	0.933900	0.907500
N191	N19	0.419400	0.035000	0.897500
N201	N20	0.970000	0.940200	0.939000
N211	N21	0.535500	0.570100	0.903600
N221	N22	0.434000	0.481200	0.905000
N231	N23	0.407000	0.740000	0.006000
N241	N24	0.118000	0.763000	0.812000
N251	N25	0.416000	0.452100	0.453200
N261	N26	0.987100	0.066100	0.592500
N271	N27	0.919400	0.965000	0.602500
N281	N28	0.470000	0.059800	0.561000
N291	N29	0.035500	0.429900	0.596400
N301	N30	0.934000	0.518800	0.595000
N311	N31	0.907000	0.260000	0.494000
N321	N32	0.618000	0.237000	0.688000
O11	O1	0.217800	0.249700	0.830400
O21	O2	0.165600	0.300300	0.985800
O31	O3	0.113700	0.313300	0.110000
O41	O4	0.356500	0.188900	0.045200
O51	O5	0.309000	0.203100	0.171100
O61	O6	0.632600	0.809100	0.133600
O71	O7	0.651100	0.833200	0.261500
O81	O8	0.202400	0.173600	0.931900
O91	O9	0.171900	0.197300	0.058000
O101	O10	0.300100	0.300400	0.093100
O111	O11	0.274600	0.322100	0.220800
O121	O12	0.677200	0.667700	0.089300
O131	O13	0.615900	0.698600	0.205700
O141	O14	0.447100	0.272900	0.978300
O151	O15	0.026100	0.227100	0.174700
O161	O16	0.717800	0.750300	0.669600
O171	O17	0.665600	0.699700	0.514200
O181	O18	0.613700	0.686700	0.390000
O191	O19	0.856500	0.811100	0.454800
O201	O20	0.809000	0.796900	0.328900
O211	O21	0.132600	0.190900	0.366400
O221	O22	0.151100	0.166800	0.238500
O231	O23	0.702400	0.826400	0.568100
O241	O24	0.671900	0.802700	0.442000
O251	O25	0.800100	0.699600	0.406900
O261	O26	0.774600	0.677900	0.279200
O271	O27	0.177200	0.332300	0.410700
O281	O28	0.115900	0.301400	0.294300
O291	O29	0.947100	0.727100	0.521700
O301	O30	0.526100	0.772900	0.325300
O311	O31	0.782200	0.750300	0.169600
O321	O32	0.834400	0.699700	0.014200
O331	O33	0.886300	0.686700	0.890000
O341	O34	0.643500	0.811100	0.954800
O351	O35	0.691000	0.796900	0.828900
O361	O36	0.367400	0.190900	0.866400
O371	O37	0.348900	0.166800	0.738500
O381	O38	0.797600	0.826400	0.068100
O391	O39	0.828100	0.802700	0.942000
O401	O40	0.699900	0.699600	0.906900
O411	O41	0.725400	0.677900	0.779200
O421	O42	0.322800	0.332300	0.910700
O431	O43	0.384100	0.301400	0.794300
O441	O44	0.552900	0.727100	0.021700
O451	O45	0.973900	0.772900	0.825300
O461	O46	0.282200	0.249700	0.330400
O471	O47	0.334400	0.300300	0.485800
O481	O48	0.386300	0.313300	0.610000
O491	O49	0.143500	0.188900	0.545200
O501	O50	0.191000	0.203100	0.671100
O511	O51	0.867400	0.809100	0.633600
O521	O52	0.848900	0.833200	0.761500
O531	O53	0.297600	0.173600	0.431900
O541	O54	0.328100	0.197300	0.558000
O551	O55	0.199900	0.300400	0.593100
O561	O56	0.225400	0.322100	0.720800
O571	O57	0.822800	0.667700	0.589300
O581	O58	0.884100	0.698600	0.705700
O591	O59	0.052900	0.272900	0.478300
O601	O60	0.473900	0.227100	0.674700
