data_NEBNOZ_freeONLY_PM
_symmetry_space_group_name_H-M	'P1'
_cell_length_a	13.073500
_cell_length_b	13.082800
_cell_length_c	15.658400
_cell_angle_alpha	82.741000
_cell_angle_beta	68.059000
_cell_angle_gamma	84.188000
_symmetry_Int_Tables_number 1

loop_
_symmetry_equiv_pos_as_xyz
'x,y,z'

loop_
_atom_site_label
_atom_site_type_symbol
_atom_site_fract_x
_atom_site_fract_y
_atom_site_fract_z
Zn11	Zn1	0.922630	0.699940	0.831110
Zn21	Zn2	0.034860	0.698370	0.627690
O11	O1	0.944100	0.851200	0.784700
O21	O2	0.020700	0.852500	0.631500
O31	O3	0.936900	0.543800	0.815800
O41	O4	0.028600	0.543500	0.664000
O51	O5	0.789700	0.709700	0.793200
O61	O6	0.873100	0.700600	0.641400
O71	O7	0.080400	0.686100	0.827500
O81	O8	0.161100	0.696000	0.673900
N11	N1	0.851000	0.682200	0.972000
N21	N2	0.125000	0.683900	0.492300
C11	C1	0.753400	0.722100	0.023400
H11	H1	0.715300	0.771800	0.994600
C21	C2	0.704000	0.694200	0.118500
H21	H2	0.634700	0.726000	0.153300
C31	C3	0.756300	0.620500	0.161500
C41	C4	0.858600	0.582000	0.108200
H31	H3	0.899500	0.533700	0.135400
C51	C5	0.901600	0.613200	0.015800
H41	H4	0.972100	0.584000	0.980400
C61	C6	0.709400	0.578200	0.259400
H51	H5	0.758700	0.541000	0.285400
C71	C7	0.606000	0.588100	0.312800
H61	H6	0.557900	0.628700	0.287300
C81	C8	0.442500	0.557300	0.451900
H71	H7	0.401700	0.596900	0.418900
C91	C9	0.556200	0.542200	0.409100
C101	C10	0.612500	0.483800	0.459000
H81	H8	0.690300	0.471800	0.431400
C111	C11	0.188400	0.757300	0.436700
H91	H9	0.184500	0.822100	0.459500
C121	C12	0.258800	0.743400	0.348200
H101	H10	0.302900	0.797800	0.311400
C131	C13	0.266000	0.650300	0.312400
C141	C14	0.199600	0.573000	0.370500
H111	H11	0.201300	0.507700	0.349300
C151	C15	0.131900	0.593100	0.458600
H121	H12	0.087700	0.539900	0.497700
C161	C16	0.344800	0.631500	0.219600
H131	H13	0.403600	0.676300	0.191200
C171	C17	0.339100	0.556500	0.173000
H141	H14	0.276300	0.516200	0.199600
C181	C18	0.527600	0.565300	0.049600
H151	H15	0.547100	0.610300	0.083400
C191	C19	0.420900	0.529800	0.083600
C201	C20	0.394900	0.464700	0.033100
H161	H16	0.322800	0.439900	0.055300
C211	C21	0.986300	0.895300	0.704800
C221	C22	0.994300	0.010000	0.696100
C231	C23	0.954000	0.062200	0.772400
H171	H17	0.919300	0.025400	0.831100
C241	C24	0.962000	0.169800	0.767100
C251	C25	0.016300	0.223500	0.679600
C261	C26	0.056300	0.167800	0.600500
H181	H18	0.091100	0.203100	0.541200
C271	C27	0.045500	0.064200	0.608400
H191	H19	0.072600	0.028100	0.554600
C281	C28	0.916600	0.226000	0.845200
H201	H20	0.880000	0.190500	0.904100
C291	C29	0.923800	0.329700	0.838400
H211	H21	0.891900	0.365900	0.892100
C301	C30	0.978600	0.383700	0.751700
C311	C31	0.023700	0.330900	0.674400
H221	H22	0.060500	0.367600	0.616100
C321	C32	0.982000	0.499300	0.743300
C331	C33	0.789900	0.706500	0.712500
C341	C34	0.678900	0.706900	0.704400
C351	C35	0.670900	0.708100	0.617600
H231	H23	0.735900	0.709600	0.563400
C361	C36	0.570200	0.707000	0.610400
H241	H24	0.566000	0.709800	0.550900
C371	C37	0.472400	0.701800	0.689400
C381	C38	0.480100	0.697400	0.777700
C391	C39	0.585200	0.701100	0.782600
H251	H25	0.591200	0.699600	0.841400
C401	C40	0.366900	0.700900	0.683600
H261	H26	0.360700	0.706600	0.624600
C411	C41	0.274200	0.692100	0.761500
C421	C42	0.283100	0.684100	0.848900
H271	H27	0.218600	0.676500	0.903100
C431	C43	0.382800	0.687000	0.856900
H281	H28	0.387000	0.682000	0.916600
C441	C44	0.163600	0.691700	0.753800
Zn31	Zn3	0.077370	0.300060	0.168890
Zn41	Zn4	0.965140	0.301630	0.372310
O91	O9	0.055900	0.148800	0.215300
O101	O10	0.979300	0.147500	0.368500
O111	O11	0.063100	0.456200	0.184200
O121	O12	0.971400	0.456500	0.336000
O131	O13	0.210300	0.290300	0.206800
O141	O14	0.126900	0.299400	0.358600
O151	O15	0.919600	0.313900	0.172500
O161	O16	0.838900	0.304000	0.326100
N31	N3	0.149000	0.317800	0.028000
N41	N4	0.875000	0.316100	0.507700
C451	C45	0.246600	0.277900	0.976600
H291	H29	0.284700	0.228200	0.005400
C461	C46	0.296000	0.305800	0.881500
H301	H30	0.365300	0.274000	0.846700
C471	C47	0.243700	0.379500	0.838500
C481	C48	0.141400	0.418000	0.891800
H311	H31	0.100500	0.466300	0.864600
C491	C49	0.098400	0.386800	0.984200
H321	H32	0.027900	0.416000	0.019600
C501	C50	0.290600	0.421800	0.740600
H331	H33	0.241300	0.459000	0.714600
C511	C51	0.394000	0.411900	0.687200
H341	H34	0.442100	0.371300	0.712700
C521	C52	0.557500	0.442700	0.548100
H351	H35	0.598300	0.403100	0.581100
C531	C53	0.443800	0.457800	0.590900
C541	C54	0.387500	0.516200	0.541000
H361	H36	0.309700	0.528200	0.568600
C551	C55	0.811600	0.242700	0.563300
H371	H37	0.815500	0.177900	0.540500
C561	C56	0.741200	0.256600	0.651800
H381	H38	0.697100	0.202200	0.688600
C571	C57	0.734000	0.349700	0.687600
C581	C58	0.800400	0.427000	0.629500
H391	H39	0.798700	0.492300	0.650700
C591	C59	0.868100	0.406900	0.541400
H401	H40	0.912300	0.460100	0.502300
C601	C60	0.655200	0.368500	0.780400
H411	H41	0.596400	0.323700	0.808800
C611	C61	0.660900	0.443500	0.827000
H421	H42	0.723700	0.483800	0.800400
C621	C62	0.472400	0.434700	0.950400
H431	H43	0.452900	0.389700	0.916600
C631	C63	0.579100	0.470200	0.916400
C641	C64	0.605100	0.535300	0.966900
H441	H44	0.677200	0.560100	0.944700
C651	C65	0.013700	0.104700	0.295200
C661	C66	0.005700	0.990000	0.303900
C671	C67	0.046000	0.937800	0.227600
H451	H45	0.080700	0.974600	0.168900
C681	C68	0.038000	0.830200	0.232900
C691	C69	0.983700	0.776500	0.320400
C701	C70	0.943700	0.832200	0.399500
H461	H46	0.908900	0.796900	0.458800
C711	C71	0.954500	0.935800	0.391600
H471	H47	0.927400	0.971900	0.445400
C721	C72	0.083400	0.774000	0.154800
H481	H48	0.120000	0.809500	0.095900
C731	C73	0.076200	0.670300	0.161600
H491	H49	0.108100	0.634100	0.107900
C741	C74	0.021400	0.616300	0.248300
C751	C75	0.976300	0.669100	0.325600
H501	H50	0.939500	0.632400	0.383900
C761	C76	0.018000	0.500700	0.256700
C771	C77	0.210100	0.293500	0.287500
C781	C78	0.321100	0.293100	0.295600
C791	C79	0.329100	0.291900	0.382400
H511	H51	0.264100	0.290400	0.436600
C801	C80	0.429800	0.293000	0.389600
H521	H52	0.434000	0.290200	0.449100
C811	C81	0.527600	0.298200	0.310600
C821	C82	0.519900	0.302600	0.222300
C831	C83	0.414800	0.298900	0.217400
H531	H53	0.408800	0.300400	0.158600
C841	C84	0.633100	0.299100	0.316400
H541	H54	0.639300	0.293400	0.375400
C851	C85	0.725800	0.307900	0.238500
C861	C86	0.716900	0.315900	0.151100
H551	H55	0.781400	0.323500	0.096900
C871	C87	0.617200	0.313000	0.143100
H561	H56	0.613000	0.318000	0.083400
C881	C88	0.836400	0.308300	0.246200
