data_NECZAY_freeONLY_PM
_symmetry_space_group_name_H-M	'P1'
_cell_length_a	13.560900
_cell_length_b	17.043100
_cell_length_c	13.442500
_cell_angle_alpha	90.000000
_cell_angle_beta	90.931000
_cell_angle_gamma	90.000000
_symmetry_Int_Tables_number 1

loop_
_symmetry_equiv_pos_as_xyz
'x,y,z'

loop_
_atom_site_label
_atom_site_type_symbol
_atom_site_fract_x
_atom_site_fract_y
_atom_site_fract_z
P11	P1	0.604100	0.571790	0.896440
H11	H1	0.507000	0.559500	0.931100
P21	P2	0.773930	0.566890	0.171880
H21	H2	0.693000	0.517000	0.135800
P31	P3	0.741530	0.658010	0.541450
H31	H3	0.836000	0.642100	0.570000
P41	P4	0.901240	0.422420	0.392400
H41	H4	0.000000	0.431800	0.425900
P51	P5	0.753300	0.342360	0.035470
H51	H5	0.655000	0.359700	0.049800
P61	P6	0.616940	0.395990	0.348900
H61	H6	0.621200	0.380000	0.248000
P71	P7	0.890210	0.587270	0.864420
H71	H7	0.875100	0.614000	0.767000
P81	P8	0.723980	0.450420	0.654260
H81	H8	0.805000	0.500000	0.630700
Be11	Be1	0.747400	0.537300	0.381300
Be21	Be2	0.753000	0.452200	0.868600
Be31	Be3	0.751500	0.668700	0.000800
Be41	Be4	0.599100	0.587100	0.675000
Be51	Be5	0.896900	0.429500	0.170200
Be61	Be6	0.754000	0.330500	0.492200
O11	O1	0.647000	0.634000	0.961300
O21	O2	0.655000	0.494000	0.906000
O31	O3	0.592300	0.600780	0.792200
O41	O4	0.772800	0.642340	0.113200
O51	O5	0.755100	0.588330	0.279600
O61	O6	0.869400	0.522220	0.160000
O71	O7	0.739400	0.737860	0.496800
O81	O8	0.711100	0.598530	0.464200
O91	O9	0.677700	0.652000	0.632500
O101	O10	0.860500	0.354600	0.450300
O111	O11	0.906300	0.401860	0.284400
O121	O12	0.850700	0.498950	0.413200
O131	O13	0.810000	0.377400	0.119900
O141	O14	0.763900	0.255430	0.041800
O151	O15	0.780000	0.373760	0.934600
O161	O16	0.673900	0.331510	0.401800
O171	O17	0.658900	0.476170	0.363700
O181	O18	0.508600	0.393870	0.376400
O191	O19	0.843000	0.644800	0.932200
O201	O20	0.848600	0.506500	0.870200
O211	O21	0.000300	0.587430	0.885100
O221	O22	0.630300	0.498730	0.648700
O231	O23	0.719000	0.385660	0.579800
O241	O24	0.741700	0.416420	0.757200
P91	P9	0.395900	0.071790	0.603560
H91	H9	0.493000	0.059500	0.568900
P101	P10	0.226070	0.066890	0.328120
H101	H10	0.307000	0.017000	0.364200
P111	P11	0.258470	0.158010	0.958550
H111	H11	0.164000	0.142100	0.930000
P121	P12	0.098760	0.922420	0.107600
H121	H12	0.000000	0.931800	0.074100
P131	P13	0.246700	0.842360	0.464530
H131	H13	0.345000	0.859700	0.450200
P141	P14	0.383060	0.895990	0.151100
H141	H14	0.378800	0.880000	0.252000
P151	P15	0.109790	0.087270	0.635580
H151	H15	0.124900	0.114000	0.733000
P161	P16	0.276020	0.950420	0.845740
H161	H16	0.195000	0.000000	0.869300
Be71	Be7	0.252600	0.037300	0.118700
Be81	Be8	0.247000	0.952200	0.631400
Be91	Be9	0.248500	0.168700	0.499200
Be101	Be10	0.400900	0.087100	0.825000
Be111	Be11	0.103100	0.929500	0.329800
Be121	Be12	0.246000	0.830500	0.007800
O251	O25	0.353000	0.134000	0.538700
O261	O26	0.345000	0.994000	0.594000
O271	O27	0.407700	0.100780	0.707800
O281	O28	0.227200	0.142340	0.386800
O291	O29	0.244900	0.088330	0.220400
O301	O30	0.130600	0.022220	0.340000
O311	O31	0.260600	0.237860	0.003200
O321	O32	0.288900	0.098530	0.035800
O331	O33	0.322300	0.152000	0.867500
O341	O34	0.139500	0.854600	0.049700
O351	O35	0.093700	0.901860	0.215600
O361	O36	0.149300	0.998950	0.086800
O371	O37	0.190000	0.877400	0.380100
O381	O38	0.236100	0.755430	0.458200
O391	O39	0.220000	0.873760	0.565400
O401	O40	0.326100	0.831510	0.098200
O411	O41	0.341100	0.976170	0.136300
O421	O42	0.491400	0.893870	0.123600
O431	O43	0.157000	0.144800	0.567800
O441	O44	0.151400	0.006500	0.629800
O451	O45	0.999700	0.087430	0.614900
O461	O46	0.369700	0.998730	0.851300
O471	O47	0.281000	0.885660	0.920200
O481	O48	0.258300	0.916420	0.742800
P171	P17	0.395900	0.428210	0.103560
H171	H17	0.493000	0.440500	0.068900
P181	P18	0.226070	0.433110	0.828120
H181	H18	0.307000	0.483000	0.864200
P191	P19	0.258470	0.341990	0.458550
H191	H19	0.164000	0.357900	0.430000
P201	P20	0.098760	0.577580	0.607600
H201	H20	0.000000	0.568200	0.574100
P211	P21	0.246700	0.657640	0.964530
H211	H21	0.345000	0.640300	0.950200
P221	P22	0.383060	0.604010	0.651100
H221	H22	0.378800	0.620000	0.752000
P231	P23	0.109790	0.412730	0.135580
H231	H23	0.124900	0.386000	0.233000
P241	P24	0.276020	0.549580	0.345740
H241	H24	0.195000	0.500000	0.369300
Be131	Be13	0.252600	0.462700	0.618700
Be141	Be14	0.247000	0.547800	0.131400
Be151	Be15	0.248500	0.331300	0.999200
Be161	Be16	0.400900	0.412900	0.325000
Be171	Be17	0.103100	0.570500	0.829800
Be181	Be18	0.246000	0.669500	0.507800
O491	O49	0.353000	0.366000	0.038700
O501	O50	0.345000	0.506000	0.094000
O511	O51	0.407700	0.399220	0.207800
O521	O52	0.227200	0.357660	0.886800
O531	O53	0.244900	0.411670	0.720400
O541	O54	0.130600	0.477780	0.840000
O551	O55	0.260600	0.262140	0.503200
O561	O56	0.288900	0.401470	0.535800
O571	O57	0.322300	0.348000	0.367500
O581	O58	0.139500	0.645400	0.549700
O591	O59	0.093700	0.598140	0.715600
O601	O60	0.149300	0.501050	0.586800
O611	O61	0.190000	0.622600	0.880100
O621	O62	0.236100	0.744570	0.958200
O631	O63	0.220000	0.626240	0.065400
O641	O64	0.326100	0.668490	0.598200
O651	O65	0.341100	0.523830	0.636300
O661	O66	0.491400	0.606130	0.623600
O671	O67	0.157000	0.355200	0.067800
O681	O68	0.151400	0.493500	0.129800
O691	O69	0.999700	0.412570	0.114900
O701	O70	0.369700	0.501270	0.351300
O711	O71	0.281000	0.614340	0.420200
O721	O72	0.258300	0.583580	0.242800
P251	P25	0.604100	0.928210	0.396440
H251	H25	0.507000	0.940500	0.431100
P261	P26	0.773930	0.933110	0.671880
H261	H26	0.693000	0.983000	0.635800
P271	P27	0.741530	0.841990	0.041450
H271	H27	0.836000	0.857900	0.070000
P281	P28	0.901240	0.077580	0.892400
H281	H28	0.000000	0.068200	0.925900
P291	P29	0.753300	0.157640	0.535470
H291	H29	0.655000	0.140300	0.549800
P301	P30	0.616940	0.104010	0.848900
H301	H30	0.621200	0.120000	0.748000
P311	P31	0.890210	0.912730	0.364420
H311	H31	0.875100	0.886000	0.267000
P321	P32	0.723980	0.049580	0.154260
H321	H32	0.805000	0.000000	0.130700
Be191	Be19	0.747400	0.962700	0.881300
Be201	Be20	0.753000	0.047800	0.368600
Be211	Be21	0.751500	0.831300	0.500800
Be221	Be22	0.599100	0.912900	0.175000
Be231	Be23	0.896900	0.070500	0.670200
Be241	Be24	0.754000	0.169500	0.992200
O731	O73	0.647000	0.866000	0.461300
O741	O74	0.655000	0.006000	0.406000
O751	O75	0.592300	0.899220	0.292200
O761	O76	0.772800	0.857660	0.613200
O771	O77	0.755100	0.911670	0.779600
O781	O78	0.869400	0.977780	0.660000
O791	O79	0.739400	0.762140	0.996800
O801	O80	0.711100	0.901470	0.964200
O811	O81	0.677700	0.848000	0.132500
O821	O82	0.860500	0.145400	0.950300
O831	O83	0.906300	0.098140	0.784400
O841	O84	0.850700	0.001050	0.913200
O851	O85	0.810000	0.122600	0.619900
O861	O86	0.763900	0.244570	0.541800
O871	O87	0.780000	0.126240	0.434600
O881	O88	0.673900	0.168490	0.901800
O891	O89	0.658900	0.023830	0.863700
O901	O90	0.508600	0.106130	0.876400
O911	O91	0.843000	0.855200	0.432200
O921	O92	0.848600	0.993500	0.370200
O931	O93	0.000300	0.912570	0.385100
O941	O94	0.630300	0.001270	0.148700
O951	O95	0.719000	0.114340	0.079800
O961	O96	0.741700	0.083580	0.257200
