data_NEDKUD_freeONLY_PM
_symmetry_space_group_name_H-M	'P1'
_cell_length_a	31.110000
_cell_length_b	11.544000
_cell_length_c	22.583000
_cell_angle_alpha	90.000000
_cell_angle_beta	112.419000
_cell_angle_gamma	90.000000
_symmetry_Int_Tables_number 1

loop_
_symmetry_equiv_pos_as_xyz
'x,y,z'

loop_
_atom_site_label
_atom_site_type_symbol
_atom_site_fract_x
_atom_site_fract_y
_atom_site_fract_z
Bi11	Bi1	0.629470	0.581910	0.902110
Bi21	Bi2	0.709410	0.507720	0.691070
Bi31	Bi3	0.547130	0.078010	0.897020
O11	O1	0.558900	0.461400	0.881400
O21	O2	0.646200	0.375000	0.914800
O31	O3	0.530800	0.282800	0.879400
O41	O4	0.618000	0.198000	0.915200
O51	O5	0.557600	0.701900	0.856200
O61	O6	0.644500	0.784800	0.915200
O71	O7	0.528600	0.881500	0.852200
O81	O8	0.616400	0.958500	0.921700
O91	O9	0.696700	0.568300	0.874600
O101	O10	0.610700	0.591300	0.781800
O111	O11	0.725200	0.529800	0.800100
O121	O12	0.637200	0.529100	0.709400
O131	O13	0.613100	0.609100	0.995300
O141	O14	0.699500	0.582300	0.995000
O151	O15	0.642300	0.589000	0.101000
O161	O16	0.729000	0.579100	0.101700
O171	O17	0.696400	0.324900	0.722900
O181	O18	0.779800	0.408400	0.738700
O191	O19	0.727800	0.163900	0.774300
O201	O20	0.813300	0.238600	0.781500
O211	O21	0.483400	0.105900	0.940000
O221	O22	0.454900	0.067500	0.013800
O231	O23	0.558900	0.084700	0.799400
O241	O24	0.525400	0.086900	0.692700
C11	C1	0.563200	0.354100	0.887100
C21	C2	0.613400	0.304600	0.907600
C31	C3	0.560900	0.810200	0.867400
C41	C4	0.612000	0.853000	0.904800
C51	C5	0.692500	0.551800	0.817100
C61	C6	0.642300	0.557900	0.765000
C71	C7	0.646500	0.596500	0.048700
C81	C8	0.695700	0.586900	0.048600
C91	C9	0.731500	0.258800	0.752300
C101	C10	0.779400	0.304400	0.758200
C111	C11	0.524300	0.086100	0.748000
C121	C12	0.482400	0.049600	0.987000
Bi41	Bi4	0.370530	0.581910	0.597890
Bi51	Bi5	0.290590	0.507720	0.808930
Bi61	Bi6	0.452870	0.078010	0.602980
O251	O25	0.441100	0.461400	0.618600
O261	O26	0.353800	0.375000	0.585200
O271	O27	0.469200	0.282800	0.620600
O281	O28	0.382000	0.198000	0.584800
O291	O29	0.442400	0.701900	0.643800
O301	O30	0.355500	0.784800	0.584800
O311	O31	0.471400	0.881500	0.647800
O321	O32	0.383600	0.958500	0.578300
O331	O33	0.303300	0.568300	0.625400
O341	O34	0.389300	0.591300	0.718200
O351	O35	0.274800	0.529800	0.699900
O361	O36	0.362800	0.529100	0.790600
O371	O37	0.386900	0.609100	0.504700
O381	O38	0.300500	0.582300	0.505000
O391	O39	0.357700	0.589000	0.399000
O401	O40	0.271000	0.579100	0.398300
O411	O41	0.303600	0.324900	0.777100
O421	O42	0.220200	0.408400	0.761300
O431	O43	0.272200	0.163900	0.725700
O441	O44	0.186700	0.238600	0.718500
O451	O45	0.516600	0.105900	0.560000
O461	O46	0.545100	0.067500	0.486200
O471	O47	0.441100	0.084700	0.700600
O481	O48	0.474600	0.086900	0.807300
C131	C13	0.436800	0.354100	0.612900
C141	C14	0.386600	0.304600	0.592400
C151	C15	0.439100	0.810200	0.632600
C161	C16	0.388000	0.853000	0.595200
C171	C17	0.307500	0.551800	0.682900
C181	C18	0.357700	0.557900	0.735000
C191	C19	0.353500	0.596500	0.451300
C201	C20	0.304300	0.586900	0.451400
C211	C21	0.268500	0.258800	0.747700
C221	C22	0.220600	0.304400	0.741800
C231	C23	0.475700	0.086100	0.752000
C241	C24	0.517600	0.049600	0.513000
Bi71	Bi7	0.370530	0.418090	0.097890
Bi81	Bi8	0.290590	0.492280	0.308930
Bi91	Bi9	0.452870	0.921990	0.102980
O491	O49	0.441100	0.538600	0.118600
O501	O50	0.353800	0.625000	0.085200
O511	O51	0.469200	0.717200	0.120600
O521	O52	0.382000	0.802000	0.084800
O531	O53	0.442400	0.298100	0.143800
O541	O54	0.355500	0.215200	0.084800
O551	O55	0.471400	0.118500	0.147800
O561	O56	0.383600	0.041500	0.078300
O571	O57	0.303300	0.431700	0.125400
O581	O58	0.389300	0.408700	0.218200
O591	O59	0.274800	0.470200	0.199900
O601	O60	0.362800	0.470900	0.290600
O611	O61	0.386900	0.390900	0.004700
O621	O62	0.300500	0.417700	0.005000
O631	O63	0.357700	0.411000	0.899000
O641	O64	0.271000	0.420900	0.898300
O651	O65	0.303600	0.675100	0.277100
O661	O66	0.220200	0.591600	0.261300
O671	O67	0.272200	0.836100	0.225700
O681	O68	0.186700	0.761400	0.218500
O691	O69	0.516600	0.894100	0.060000
O701	O70	0.545100	0.932500	0.986200
O711	O71	0.441100	0.915300	0.200600
O721	O72	0.474600	0.913100	0.307300
C251	C25	0.436800	0.645900	0.112900
C261	C26	0.386600	0.695400	0.092400
C271	C27	0.439100	0.189800	0.132600
C281	C28	0.388000	0.147000	0.095200
C291	C29	0.307500	0.448200	0.182900
C301	C30	0.357700	0.442100	0.235000
C311	C31	0.353500	0.403500	0.951300
C321	C32	0.304300	0.413100	0.951400
C331	C33	0.268500	0.741200	0.247700
C341	C34	0.220600	0.695600	0.241800
C351	C35	0.475700	0.913900	0.252000
C361	C36	0.517600	0.950400	0.013000
Bi101	Bi10	0.629470	0.418090	0.402110
Bi111	Bi11	0.709410	0.492280	0.191070
Bi121	Bi12	0.547130	0.921990	0.397020
O731	O73	0.558900	0.538600	0.381400
O741	O74	0.646200	0.625000	0.414800
O751	O75	0.530800	0.717200	0.379400
O761	O76	0.618000	0.802000	0.415200
O771	O77	0.557600	0.298100	0.356200
O781	O78	0.644500	0.215200	0.415200
O791	O79	0.528600	0.118500	0.352200
O801	O80	0.616400	0.041500	0.421700
O811	O81	0.696700	0.431700	0.374600
O821	O82	0.610700	0.408700	0.281800
O831	O83	0.725200	0.470200	0.300100
O841	O84	0.637200	0.470900	0.209400
O851	O85	0.613100	0.390900	0.495300
O861	O86	0.699500	0.417700	0.495000
O871	O87	0.642300	0.411000	0.601000
O881	O88	0.729000	0.420900	0.601700
O891	O89	0.696400	0.675100	0.222900
O901	O90	0.779800	0.591600	0.238700
O911	O91	0.727800	0.836100	0.274300
O921	O92	0.813300	0.761400	0.281500
O931	O93	0.483400	0.894100	0.440000
O941	O94	0.454900	0.932500	0.513800
O951	O95	0.558900	0.915300	0.299400
O961	O96	0.525400	0.913100	0.192700
C371	C37	0.563200	0.645900	0.387100
C381	C38	0.613400	0.695400	0.407600
C391	C39	0.560900	0.189800	0.367400
C401	C40	0.612000	0.147000	0.404800
C411	C41	0.692500	0.448200	0.317100
C421	C42	0.642300	0.442100	0.265000
C431	C43	0.646500	0.403500	0.548700
C441	C44	0.695700	0.413100	0.548600
C451	C45	0.731500	0.741200	0.252300
C461	C46	0.779400	0.695600	0.258200
C471	C47	0.524300	0.913900	0.248000
C481	C48	0.482400	0.950400	0.487000
Bi131	Bi13	0.129470	0.081910	0.902110
Bi141	Bi14	0.209410	0.007720	0.691070
Bi151	Bi15	0.047130	0.578010	0.897020
O971	O97	0.058900	0.961400	0.881400
O981	O98	0.146200	0.875000	0.914800
O991	O99	0.030800	0.782800	0.879400
O1001	O100	0.118000	0.698000	0.915200
O1011	O101	0.057600	0.201900	0.856200
O1021	O102	0.144500	0.284800	0.915200
O1031	O103	0.028600	0.381500	0.852200
O1041	O104	0.116400	0.458500	0.921700
O1051	O105	0.196700	0.068300	0.874600
O1061	O106	0.110700	0.091300	0.781800
O1071	O107	0.225200	0.029800	0.800100
O1081	O108	0.137200	0.029100	0.709400
O1091	O109	0.113100	0.109100	0.995300
O1101	O110	0.199500	0.082300	0.995000
O1111	O111	0.142300	0.089000	0.101000
O1121	O112	0.229000	0.079100	0.101700
O1131	O113	0.196400	0.824900	0.722900
O1141	O114	0.279800	0.908400	0.738700
O1151	O115	0.227800	0.663900	0.774300
O1161	O116	0.313300	0.738600	0.781500
O1171	O117	0.983400	0.605900	0.940000
O1181	O118	0.954900	0.567500	0.013800
O1191	O119	0.058900	0.584700	0.799400
O1201	O120	0.025400	0.586900	0.692700
C491	C49	0.063200	0.854100	0.887100
C501	C50	0.113400	0.804600	0.907600
C511	C51	0.060900	0.310200	0.867400
C521	C52	0.112000	0.353000	0.904800
C531	C53	0.192500	0.051800	0.817100
C541	C54	0.142300	0.057900	0.765000
C551	C55	0.146500	0.096500	0.048700
C561	C56	0.195700	0.086900	0.048600
C571	C57	0.231500	0.758800	0.752300
C581	C58	0.279400	0.804400	0.758200
C591	C59	0.024300	0.586100	0.748000
C601	C60	0.982400	0.549600	0.987000
Bi161	Bi16	0.870530	0.081910	0.597890
Bi171	Bi17	0.790590	0.007720	0.808930
Bi181	Bi18	0.952870	0.578010	0.602980
O1211	O121	0.941100	0.961400	0.618600
O1221	O122	0.853800	0.875000	0.585200
O1231	O123	0.969200	0.782800	0.620600
O1241	O124	0.882000	0.698000	0.584800
O1251	O125	0.942400	0.201900	0.643800
O1261	O126	0.855500	0.284800	0.584800
O1271	O127	0.971400	0.381500	0.647800
O1281	O128	0.883600	0.458500	0.578300
O1291	O129	0.803300	0.068300	0.625400
O1301	O130	0.889300	0.091300	0.718200
O1311	O131	0.774800	0.029800	0.699900
O1321	O132	0.862800	0.029100	0.790600
O1331	O133	0.886900	0.109100	0.504700
O1341	O134	0.800500	0.082300	0.505000
O1351	O135	0.857700	0.089000	0.399000
O1361	O136	0.771000	0.079100	0.398300
O1371	O137	0.803600	0.824900	0.777100
O1381	O138	0.720200	0.908400	0.761300
O1391	O139	0.772200	0.663900	0.725700
O1401	O140	0.686700	0.738600	0.718500
O1411	O141	0.016600	0.605900	0.560000
O1421	O142	0.045100	0.567500	0.486200
O1431	O143	0.941100	0.584700	0.700600
O1441	O144	0.974600	0.586900	0.807300
C611	C61	0.936800	0.854100	0.612900
C621	C62	0.886600	0.804600	0.592400
C631	C63	0.939100	0.310200	0.632600
C641	C64	0.888000	0.353000	0.595200
C651	C65	0.807500	0.051800	0.682900
C661	C66	0.857700	0.057900	0.735000
C671	C67	0.853500	0.096500	0.451300
C681	C68	0.804300	0.086900	0.451400
C691	C69	0.768500	0.758800	0.747700
C701	C70	0.720600	0.804400	0.741800
C711	C71	0.975700	0.586100	0.752000
C721	C72	0.017600	0.549600	0.513000
Bi191	Bi19	0.870530	0.918090	0.097890
Bi201	Bi20	0.790590	0.992280	0.308930
Bi211	Bi21	0.952870	0.421990	0.102980
O1451	O145	0.941100	0.038600	0.118600
O1461	O146	0.853800	0.125000	0.085200
O1471	O147	0.969200	0.217200	0.120600
O1481	O148	0.882000	0.302000	0.084800
O1491	O149	0.942400	0.798100	0.143800
O1501	O150	0.855500	0.715200	0.084800
O1511	O151	0.971400	0.618500	0.147800
O1521	O152	0.883600	0.541500	0.078300
O1531	O153	0.803300	0.931700	0.125400
O1541	O154	0.889300	0.908700	0.218200
O1551	O155	0.774800	0.970200	0.199900
O1561	O156	0.862800	0.970900	0.290600
O1571	O157	0.886900	0.890900	0.004700
O1581	O158	0.800500	0.917700	0.005000
O1591	O159	0.857700	0.911000	0.899000
O1601	O160	0.771000	0.920900	0.898300
O1611	O161	0.803600	0.175100	0.277100
O1621	O162	0.720200	0.091600	0.261300
O1631	O163	0.772200	0.336100	0.225700
O1641	O164	0.686700	0.261400	0.218500
O1651	O165	0.016600	0.394100	0.060000
O1661	O166	0.045100	0.432500	0.986200
O1671	O167	0.941100	0.415300	0.200600
O1681	O168	0.974600	0.413100	0.307300
C731	C73	0.936800	0.145900	0.112900
C741	C74	0.886600	0.195400	0.092400
C751	C75	0.939100	0.689800	0.132600
C761	C76	0.888000	0.647000	0.095200
C771	C77	0.807500	0.948200	0.182900
C781	C78	0.857700	0.942100	0.235000
C791	C79	0.853500	0.903500	0.951300
C801	C80	0.804300	0.913100	0.951400
C811	C81	0.768500	0.241200	0.247700
C821	C82	0.720600	0.195600	0.241800
C831	C83	0.975700	0.413900	0.252000
C841	C84	0.017600	0.450400	0.013000
Bi221	Bi22	0.129470	0.918090	0.402110
Bi231	Bi23	0.209410	0.992280	0.191070
Bi241	Bi24	0.047130	0.421990	0.397020
O1691	O169	0.058900	0.038600	0.381400
O1701	O170	0.146200	0.125000	0.414800
O1711	O171	0.030800	0.217200	0.379400
O1721	O172	0.118000	0.302000	0.415200
O1731	O173	0.057600	0.798100	0.356200
O1741	O174	0.144500	0.715200	0.415200
O1751	O175	0.028600	0.618500	0.352200
O1761	O176	0.116400	0.541500	0.421700
O1771	O177	0.196700	0.931700	0.374600
O1781	O178	0.110700	0.908700	0.281800
O1791	O179	0.225200	0.970200	0.300100
O1801	O180	0.137200	0.970900	0.209400
O1811	O181	0.113100	0.890900	0.495300
O1821	O182	0.199500	0.917700	0.495000
O1831	O183	0.142300	0.911000	0.601000
O1841	O184	0.229000	0.920900	0.601700
O1851	O185	0.196400	0.175100	0.222900
O1861	O186	0.279800	0.091600	0.238700
O1871	O187	0.227800	0.336100	0.274300
O1881	O188	0.313300	0.261400	0.281500
O1891	O189	0.983400	0.394100	0.440000
O1901	O190	0.954900	0.432500	0.513800
O1911	O191	0.058900	0.415300	0.299400
O1921	O192	0.025400	0.413100	0.192700
C851	C85	0.063200	0.145900	0.387100
C861	C86	0.113400	0.195400	0.407600
C871	C87	0.060900	0.689800	0.367400
C881	C88	0.112000	0.647000	0.404800
C891	C89	0.192500	0.948200	0.317100
C901	C90	0.142300	0.942100	0.265000
C911	C91	0.146500	0.903500	0.548700
C921	C92	0.195700	0.913100	0.548600
C931	C93	0.231500	0.241200	0.252300
C941	C94	0.279400	0.195600	0.258200
C951	C95	0.024300	0.413900	0.248000
C961	C96	0.982400	0.450400	0.487000
