data_NEFTUP_freeONLY_PM
_symmetry_space_group_name_H-M	'P1'
_cell_length_a	16.813000
_cell_length_b	12.986000
_cell_length_c	11.845000
_cell_angle_alpha	90.000000
_cell_angle_beta	107.640000
_cell_angle_gamma	90.000000
_symmetry_Int_Tables_number 1

loop_
_symmetry_equiv_pos_as_xyz
'x,y,z'

loop_
_atom_site_label
_atom_site_type_symbol
_atom_site_fract_x
_atom_site_fract_y
_atom_site_fract_z
N11	N1	0.039370	0.047080	0.183220
N21	N2	0.878300	0.065350	0.979300
N31	N3	0.774080	0.111420	0.045600
N41	N4	0.612680	0.250490	0.368640
N51	N5	0.550150	0.359030	0.457050
C11	C1	0.856560	0.121100	0.057600
H11	H1	0.893200	0.162200	0.114400
C21	C2	0.655230	0.213800	0.288500
C31	C3	0.733040	0.148500	0.127200
C41	C4	0.662590	0.097800	0.136200
H21	H2	0.641400	0.041900	0.087300
C51	C5	0.578900	0.193800	0.440400
H31	H3	0.581100	0.122600	0.449600
C61	C6	0.593340	0.349100	0.381800
H41	H4	0.608600	0.403900	0.342300
C71	C7	0.623950	0.130100	0.217000
H51	H5	0.577000	0.095700	0.223500
C81	C8	0.541970	0.261100	0.494800
H61	H6	0.514900	0.243700	0.550000
C91	C9	0.805680	0.019000	0.911800
H71	H7	0.801900	0.975300	0.848200
C101	C10	0.741190	0.045700	0.950400
H81	H8	0.686000	0.024600	0.919700
C111	C11	0.726360	0.262300	0.281600
H91	H9	0.748400	0.317200	0.331700
C121	C12	0.765160	0.229800	0.200300
H101	H10	0.813000	0.263000	0.195400
N61	N6	0.539370	0.547080	0.183220
N71	N7	0.378300	0.565350	0.979300
N81	N8	0.274080	0.611420	0.045600
N91	N9	0.112680	0.750490	0.368640
N101	N10	0.050150	0.859030	0.457050
C131	C13	0.356560	0.621100	0.057600
H111	H11	0.393200	0.662200	0.114400
C141	C14	0.155230	0.713800	0.288500
C151	C15	0.233040	0.648500	0.127200
C161	C16	0.162590	0.597800	0.136200
H121	H12	0.141400	0.541900	0.087300
C171	C17	0.078900	0.693800	0.440400
H131	H13	0.081100	0.622600	0.449600
C181	C18	0.093340	0.849100	0.381800
H141	H14	0.108600	0.903900	0.342300
C191	C19	0.123950	0.630100	0.217000
H151	H15	0.077000	0.595700	0.223500
C201	C20	0.041970	0.761100	0.494800
H161	H16	0.014900	0.743700	0.550000
C211	C21	0.305680	0.519000	0.911800
H171	H17	0.301900	0.475300	0.848200
C221	C22	0.241190	0.545700	0.950400
H181	H18	0.186000	0.524600	0.919700
C231	C23	0.226360	0.762300	0.281600
H191	H19	0.248400	0.817200	0.331700
C241	C24	0.265160	0.729800	0.200300
H201	H20	0.313000	0.763000	0.195400
N111	N11	0.960630	0.047080	0.316780
N121	N12	0.121700	0.065350	0.520700
N131	N13	0.225920	0.111420	0.454400
N141	N14	0.387320	0.250490	0.131360
N151	N15	0.449850	0.359030	0.042950
C251	C25	0.143440	0.121100	0.442400
H211	H21	0.106800	0.162200	0.385600
C261	C26	0.344770	0.213800	0.211500
C271	C27	0.266960	0.148500	0.372800
C281	C28	0.337410	0.097800	0.363800
H221	H22	0.358600	0.041900	0.412700
C291	C29	0.421100	0.193800	0.059600
H231	H23	0.418900	0.122600	0.050400
C301	C30	0.406660	0.349100	0.118200
H241	H24	0.391400	0.403900	0.157700
C311	C31	0.376050	0.130100	0.283000
H251	H25	0.423000	0.095700	0.276500
C321	C32	0.458030	0.261100	0.005200
H261	H26	0.485100	0.243700	0.950000
C331	C33	0.194320	0.019000	0.588200
H271	H27	0.198100	0.975300	0.651800
C341	C34	0.258810	0.045700	0.549600
H281	H28	0.314000	0.024600	0.580300
C351	C35	0.273640	0.262300	0.218400
H291	H29	0.251600	0.317200	0.168300
C361	C36	0.234840	0.229800	0.299700
H301	H30	0.187000	0.263000	0.304600
N161	N16	0.460630	0.547080	0.316780
N171	N17	0.621700	0.565350	0.520700
N181	N18	0.725920	0.611420	0.454400
N191	N19	0.887320	0.750490	0.131360
N201	N20	0.949850	0.859030	0.042950
C371	C37	0.643440	0.621100	0.442400
H311	H31	0.606800	0.662200	0.385600
C381	C38	0.844770	0.713800	0.211500
C391	C39	0.766960	0.648500	0.372800
C401	C40	0.837410	0.597800	0.363800
H321	H32	0.858600	0.541900	0.412700
C411	C41	0.921100	0.693800	0.059600
H331	H33	0.918900	0.622600	0.050400
C421	C42	0.906660	0.849100	0.118200
H341	H34	0.891400	0.903900	0.157700
C431	C43	0.876050	0.630100	0.283000
H351	H35	0.923000	0.595700	0.276500
C441	C44	0.958030	0.761100	0.005200
H361	H36	0.985100	0.743700	0.950000
C451	C45	0.694320	0.519000	0.588200
H371	H37	0.698100	0.475300	0.651800
C461	C46	0.758810	0.545700	0.549600
H381	H38	0.814000	0.524600	0.580300
C471	C47	0.773640	0.762300	0.218400
H391	H39	0.751600	0.817200	0.168300
C481	C48	0.734840	0.729800	0.299700
H401	H40	0.687000	0.763000	0.304600
N211	N21	0.960630	0.952920	0.816780
N221	N22	0.121700	0.934650	0.020700
N231	N23	0.225920	0.888580	0.954400
N241	N24	0.387320	0.749510	0.631360
N251	N25	0.449850	0.640970	0.542950
C491	C49	0.143440	0.878900	0.942400
H411	H41	0.106800	0.837800	0.885600
C501	C50	0.344770	0.786200	0.711500
C511	C51	0.266960	0.851500	0.872800
C521	C52	0.337410	0.902200	0.863800
H421	H42	0.358600	0.958100	0.912700
C531	C53	0.421100	0.806200	0.559600
H431	H43	0.418900	0.877400	0.550400
C541	C54	0.406660	0.650900	0.618200
H441	H44	0.391400	0.596100	0.657700
C551	C55	0.376050	0.869900	0.783000
H451	H45	0.423000	0.904300	0.776500
C561	C56	0.458030	0.738900	0.505200
H461	H46	0.485100	0.756300	0.450000
C571	C57	0.194320	0.981000	0.088200
H471	H47	0.198100	0.024700	0.151800
C581	C58	0.258810	0.954300	0.049600
H481	H48	0.314000	0.975400	0.080300
C591	C59	0.273640	0.737700	0.718400
H491	H49	0.251600	0.682800	0.668300
C601	C60	0.234840	0.770200	0.799700
H501	H50	0.187000	0.737000	0.804600
N261	N26	0.460630	0.452920	0.816780
N271	N27	0.621700	0.434650	0.020700
N281	N28	0.725920	0.388580	0.954400
N291	N29	0.887320	0.249510	0.631360
N301	N30	0.949850	0.140970	0.542950
C611	C61	0.643440	0.378900	0.942400
H511	H51	0.606800	0.337800	0.885600
C621	C62	0.844770	0.286200	0.711500
C631	C63	0.766960	0.351500	0.872800
C641	C64	0.837410	0.402200	0.863800
H521	H52	0.858600	0.458100	0.912700
C651	C65	0.921100	0.306200	0.559600
H531	H53	0.918900	0.377400	0.550400
C661	C66	0.906660	0.150900	0.618200
H541	H54	0.891400	0.096100	0.657700
C671	C67	0.876050	0.369900	0.783000
H551	H55	0.923000	0.404300	0.776500
C681	C68	0.958030	0.238900	0.505200
H561	H56	0.985100	0.256300	0.450000
C691	C69	0.694320	0.481000	0.088200
H571	H57	0.698100	0.524700	0.151800
C701	C70	0.758810	0.454300	0.049600
H581	H58	0.814000	0.475400	0.080300
C711	C71	0.773640	0.237700	0.718400
H591	H59	0.751600	0.182800	0.668300
C721	C72	0.734840	0.270200	0.799700
H601	H60	0.687000	0.237000	0.804600
N311	N31	0.039370	0.952920	0.683220
N321	N32	0.878300	0.934650	0.479300
N331	N33	0.774080	0.888580	0.545600
N341	N34	0.612680	0.749510	0.868640
N351	N35	0.550150	0.640970	0.957050
C731	C73	0.856560	0.878900	0.557600
H611	H61	0.893200	0.837800	0.614400
C741	C74	0.655230	0.786200	0.788500
C751	C75	0.733040	0.851500	0.627200
C761	C76	0.662590	0.902200	0.636200
H621	H62	0.641400	0.958100	0.587300
C771	C77	0.578900	0.806200	0.940400
H631	H63	0.581100	0.877400	0.949600
C781	C78	0.593340	0.650900	0.881800
H641	H64	0.608600	0.596100	0.842300
C791	C79	0.623950	0.869900	0.717000
H651	H65	0.577000	0.904300	0.723500
C801	C80	0.541970	0.738900	0.994800
H661	H66	0.514900	0.756300	0.050000
C811	C81	0.805680	0.981000	0.411800
H671	H67	0.801900	0.024700	0.348200
C821	C82	0.741190	0.954300	0.450400
H681	H68	0.686000	0.975400	0.419700
C831	C83	0.726360	0.737700	0.781600
H691	H69	0.748400	0.682800	0.831700
C841	C84	0.765160	0.770200	0.700300
H701	H70	0.813000	0.737000	0.695400
N361	N36	0.539370	0.452920	0.683220
N371	N37	0.378300	0.434650	0.479300
N381	N38	0.274080	0.388580	0.545600
N391	N39	0.112680	0.249510	0.868640
N401	N40	0.050150	0.140970	0.957050
C851	C85	0.356560	0.378900	0.557600
H711	H71	0.393200	0.337800	0.614400
C861	C86	0.155230	0.286200	0.788500
C871	C87	0.233040	0.351500	0.627200
C881	C88	0.162590	0.402200	0.636200
H721	H72	0.141400	0.458100	0.587300
C891	C89	0.078900	0.306200	0.940400
H731	H73	0.081100	0.377400	0.949600
C901	C90	0.093340	0.150900	0.881800
H741	H74	0.108600	0.096100	0.842300
C911	C91	0.123950	0.369900	0.717000
H751	H75	0.077000	0.404300	0.723500
C921	C92	0.041970	0.238900	0.994800
H761	H76	0.014900	0.256300	0.050000
C931	C93	0.305680	0.481000	0.411800
H771	H77	0.301900	0.524700	0.348200
C941	C94	0.241190	0.454300	0.450400
H781	H78	0.186000	0.475400	0.419700
C951	C95	0.226360	0.237700	0.781600
H791	H79	0.248400	0.182800	0.831700
C961	C96	0.265160	0.270200	0.700300
H801	H80	0.313000	0.237000	0.695400
Co11	Co1	0.000000	0.000000	0.000000
Co21	Co2	0.500000	0.500000	0.000000
Co31	Co3	0.000000	0.000000	0.500000
Co41	Co4	0.500000	0.500000	0.500000
N411	N41	0.000000	0.046100	0.250000
N421	N42	0.500000	0.546100	0.250000
N431	N43	0.000000	0.953900	0.750000
N441	N44	0.500000	0.453900	0.750000
