data_NEGZUW_freeONLY_PM
_symmetry_space_group_name_H-M	'P1'
_cell_length_a	17.299900
_cell_length_b	18.039600
_cell_length_c	24.677000
_cell_angle_alpha	90.000000
_cell_angle_beta	90.000000
_cell_angle_gamma	90.000000
_symmetry_Int_Tables_number 1

loop_
_symmetry_equiv_pos_as_xyz
'x,y,z'

loop_
_atom_site_label
_atom_site_type_symbol
_atom_site_fract_x
_atom_site_fract_y
_atom_site_fract_z
V11	V1	0.836830	0.305520	0.907680
V21	V2	0.904200	0.301750	0.023130
V31	V3	0.681790	0.386370	0.884940
V41	V4	0.682060	0.216700	0.885560
V51	V5	0.336830	0.194480	0.592320
V61	V6	0.404200	0.198250	0.476870
V71	V7	0.181790	0.113630	0.615060
V81	V8	0.182060	0.283300	0.614440
V91	V9	0.663170	0.305520	0.092320
V101	V10	0.595800	0.301750	0.976870
V111	V11	0.818210	0.386370	0.115060
V121	V12	0.817940	0.216700	0.114440
V131	V13	0.163170	0.194480	0.407680
V141	V14	0.095800	0.198250	0.523130
V151	V15	0.318210	0.113630	0.384940
V161	V16	0.317940	0.283300	0.385560
V171	V17	0.163170	0.694480	0.092320
V181	V18	0.095800	0.698250	0.976870
V191	V19	0.318210	0.613630	0.115060
V201	V20	0.317940	0.783300	0.114440
V211	V21	0.663170	0.805520	0.407680
V221	V22	0.595800	0.801750	0.523130
V231	V23	0.818210	0.886370	0.384940
V241	V24	0.817940	0.716700	0.385560
V251	V25	0.336830	0.694480	0.907680
V261	V26	0.404200	0.698250	0.023130
V271	V27	0.181790	0.613630	0.884940
V281	V28	0.182060	0.783300	0.885560
V291	V29	0.836830	0.805520	0.592320
V301	V30	0.904200	0.801750	0.476870
V311	V31	0.681790	0.886370	0.615060
V321	V32	0.682060	0.716700	0.614440
V331	V33	0.750000	0.392990	0.000000
V341	V34	0.750000	0.211930	0.000000
V351	V35	0.250000	0.107010	0.500000
V361	V36	0.250000	0.288070	0.500000
V371	V37	0.250000	0.607010	0.000000
V381	V38	0.250000	0.788070	0.000000
V391	V39	0.750000	0.892990	0.500000
V401	V40	0.750000	0.711930	0.500000
Zn11	Zn1	0.698610	0.349220	0.667290
Zn21	Zn2	0.850810	0.150520	0.832250
Zn31	Zn3	0.904360	0.070780	0.703710
Zn41	Zn4	0.198610	0.150780	0.832710
Zn51	Zn5	0.350810	0.349480	0.667750
Zn61	Zn6	0.404360	0.429220	0.796290
Zn71	Zn7	0.801390	0.349220	0.332710
Zn81	Zn8	0.649190	0.150520	0.167750
Zn91	Zn9	0.595640	0.070780	0.296290
Zn101	Zn10	0.301390	0.150780	0.167290
Zn111	Zn11	0.149190	0.349480	0.332250
Zn121	Zn12	0.095640	0.429220	0.203710
Zn131	Zn13	0.301390	0.650780	0.332710
Zn141	Zn14	0.149190	0.849480	0.167750
Zn151	Zn15	0.095640	0.929220	0.296290
Zn161	Zn16	0.801390	0.849220	0.167290
Zn171	Zn17	0.649190	0.650520	0.332250
Zn181	Zn18	0.595640	0.570780	0.203710
Zn191	Zn19	0.198610	0.650780	0.667290
Zn201	Zn20	0.350810	0.849480	0.832250
Zn211	Zn21	0.404360	0.929220	0.703710
Zn221	Zn22	0.698610	0.849220	0.832710
Zn231	Zn23	0.850810	0.650520	0.667750
Zn241	Zn24	0.904360	0.570780	0.796290
H11	H1	0.747500	0.008900	0.871800
H21	H2	0.747500	0.282500	0.776000
H31	H3	0.799900	0.918000	0.732900
H41	H4	0.090500	0.095400	0.732700
H51	H5	0.800200	0.200300	0.633900
H61	H6	0.028400	0.189800	0.868800
H71	H7	0.988600	0.960500	0.626100
H81	H8	0.093000	0.918800	0.742900
H91	H9	0.170600	0.914000	0.707800
H101	H10	0.121800	0.840500	0.720000
H111	H11	0.075500	0.896000	0.581400
H121	H12	0.099100	0.822200	0.613400
H131	H13	0.158300	0.890300	0.610100
H141	H14	0.247500	0.491100	0.628200
H151	H15	0.247500	0.217500	0.724000
H161	H16	0.299900	0.582000	0.767100
H171	H17	0.590500	0.404600	0.767300
H181	H18	0.300200	0.299700	0.866100
H191	H19	0.528400	0.310200	0.631200
H201	H20	0.488600	0.539500	0.873900
H211	H21	0.593000	0.581200	0.757100
H221	H22	0.670600	0.586000	0.792200
H231	H23	0.621800	0.659500	0.780000
H241	H24	0.575500	0.604000	0.918600
H251	H25	0.599100	0.677800	0.886600
H261	H26	0.658300	0.609700	0.889900
H271	H27	0.752500	0.008900	0.128200
H281	H28	0.752500	0.282500	0.224000
H291	H29	0.700100	0.918000	0.267100
H301	H30	0.409500	0.095400	0.267300
H311	H31	0.699800	0.200300	0.366100
H321	H32	0.471600	0.189800	0.131200
H331	H33	0.511400	0.960500	0.373900
H341	H34	0.407000	0.918800	0.257100
H351	H35	0.329400	0.914000	0.292200
H361	H36	0.378200	0.840500	0.280000
H371	H37	0.424500	0.896000	0.418600
H381	H38	0.400900	0.822200	0.386600
H391	H39	0.341700	0.890300	0.389900
H401	H40	0.252500	0.491100	0.371800
H411	H41	0.252500	0.217500	0.276000
H421	H42	0.200100	0.582000	0.232900
H431	H43	0.909500	0.404600	0.232700
H441	H44	0.199800	0.299700	0.133900
H451	H45	0.971600	0.310200	0.368800
H461	H46	0.011400	0.539500	0.126100
H471	H47	0.907000	0.581200	0.242900
H481	H48	0.829400	0.586000	0.207800
H491	H49	0.878200	0.659500	0.220000
H501	H50	0.924500	0.604000	0.081400
H511	H51	0.900900	0.677800	0.113400
H521	H52	0.841700	0.609700	0.110100
H531	H53	0.252500	0.991100	0.128200
H541	H54	0.252500	0.717500	0.224000
H551	H55	0.200100	0.082000	0.267100
H561	H56	0.909500	0.904600	0.267300
H571	H57	0.199800	0.799700	0.366100
H581	H58	0.971600	0.810200	0.131200
H591	H59	0.011400	0.039500	0.373900
H601	H60	0.907000	0.081200	0.257100
H611	H61	0.829400	0.086000	0.292200
H621	H62	0.878200	0.159500	0.280000
H631	H63	0.924500	0.104000	0.418600
H641	H64	0.900900	0.177800	0.386600
H651	H65	0.841700	0.109700	0.389900
H661	H66	0.752500	0.508900	0.371800
H671	H67	0.752500	0.782500	0.276000
H681	H68	0.700100	0.418000	0.232900
H691	H69	0.409500	0.595400	0.232700
H701	H70	0.699800	0.700300	0.133900
H711	H71	0.471600	0.689800	0.368800
H721	H72	0.511400	0.460500	0.126100
H731	H73	0.407000	0.418800	0.242900
H741	H74	0.329400	0.414000	0.207800
H751	H75	0.378200	0.340500	0.220000
H761	H76	0.424500	0.396000	0.081400
H771	H77	0.400900	0.322200	0.113400
H781	H78	0.341700	0.390300	0.110100
H791	H79	0.247500	0.991100	0.871800
H801	H80	0.247500	0.717500	0.776000
H811	H81	0.299900	0.082000	0.732900
H821	H82	0.590500	0.904600	0.732700
H831	H83	0.300200	0.799700	0.633900
H841	H84	0.528400	0.810200	0.868800
H851	H85	0.488600	0.039500	0.626100
H861	H86	0.593000	0.081200	0.742900
H871	H87	0.670600	0.086000	0.707800
H881	H88	0.621800	0.159500	0.720000
H891	H89	0.575500	0.104000	0.581400
H901	H90	0.599100	0.177800	0.613400
H911	H91	0.658300	0.109700	0.610100
H921	H92	0.747500	0.508900	0.628200
H931	H93	0.747500	0.782500	0.724000
H941	H94	0.799900	0.418000	0.767100
H951	H95	0.090500	0.595400	0.767300
H961	H96	0.800200	0.700300	0.866100
H971	H97	0.028400	0.689800	0.631200
H981	H98	0.988600	0.460500	0.873900
H991	H99	0.093000	0.418800	0.757100
H1001	H100	0.170600	0.414000	0.792200
H1011	H101	0.121800	0.340500	0.780000
H1021	H102	0.075500	0.396000	0.918600
H1031	H103	0.099100	0.322200	0.886600
H1041	H104	0.158300	0.390300	0.889900
C11	C1	0.768900	0.000500	0.836860
C21	C2	0.768700	0.251900	0.748340
C31	C3	0.797300	0.951700	0.762390
C41	C4	0.060100	0.115300	0.761290
C51	C5	0.797100	0.207700	0.672000
C61	C6	0.026900	0.166100	0.834450
C71	C7	0.011200	0.950100	0.660400
C81	C8	0.118500	0.893800	0.712500
C91	C9	0.103600	0.876300	0.612800
C101	C10	0.268900	0.499500	0.663140
C111	C11	0.268700	0.248100	0.751660
C121	C12	0.297300	0.548300	0.737610
C131	C13	0.560100	0.384700	0.738710
C141	C14	0.297100	0.292300	0.828000
C151	C15	0.526900	0.333900	0.665550
C161	C16	0.511200	0.549900	0.839600
C171	C17	0.618500	0.606200	0.787500
C181	C18	0.603600	0.623700	0.887200
C191	C19	0.731100	0.000500	0.163140
C201	C20	0.731300	0.251900	0.251660
C211	C21	0.702700	0.951700	0.237610
C221	C22	0.439900	0.115300	0.238710
C231	C23	0.702900	0.207700	0.328000
C241	C24	0.473100	0.166100	0.165550
C251	C25	0.488800	0.950100	0.339600
C261	C26	0.381500	0.893800	0.287500
C271	C27	0.396400	0.876300	0.387200
C281	C28	0.231100	0.499500	0.336860
C291	C29	0.231300	0.248100	0.248340
C301	C30	0.202700	0.548300	0.262390
C311	C31	0.939900	0.384700	0.261290
C321	C32	0.202900	0.292300	0.172000
C331	C33	0.973100	0.333900	0.334450
C341	C34	0.988800	0.549900	0.160400
C351	C35	0.881500	0.606200	0.212500
C361	C36	0.896400	0.623700	0.112800
C371	C37	0.231100	0.999500	0.163140
C381	C38	0.231300	0.748100	0.251660
C391	C39	0.202700	0.048300	0.237610
C401	C40	0.939900	0.884700	0.238710
C411	C41	0.202900	0.792300	0.328000
C421	C42	0.973100	0.833900	0.165550
C431	C43	0.988800	0.049900	0.339600
C441	C44	0.881500	0.106200	0.287500
C451	C45	0.896400	0.123700	0.387200
C461	C46	0.731100	0.500500	0.336860
C471	C47	0.731300	0.751900	0.248340
C481	C48	0.702700	0.451700	0.262390
C491	C49	0.439900	0.615300	0.261290
C501	C50	0.702900	0.707700	0.172000
C511	C51	0.473100	0.666100	0.334450
C521	C52	0.488800	0.450100	0.160400
C531	C53	0.381500	0.393800	0.212500
C541	C54	0.396400	0.376300	0.112800
C551	C55	0.268900	0.999500	0.836860
C561	C56	0.268700	0.748100	0.748340
C571	C57	0.297300	0.048300	0.762390
C581	C58	0.560100	0.884700	0.761290
C591	C59	0.297100	0.792300	0.672000
C601	C60	0.526900	0.833900	0.834450
C611	C61	0.511200	0.049900	0.660400
C621	C62	0.618500	0.106200	0.712500
C631	C63	0.603600	0.123700	0.612800
C641	C64	0.768900	0.500500	0.663140
C651	C65	0.768700	0.751900	0.751660
C661	C66	0.797300	0.451700	0.737610
C671	C67	0.060100	0.615300	0.738710
C681	C68	0.797100	0.707700	0.828000
C691	C69	0.026900	0.666100	0.665550
C701	C70	0.011200	0.450100	0.839600
C711	C71	0.118500	0.393800	0.787500
C721	C72	0.103600	0.376300	0.887200
N11	N1	0.756200	0.262650	0.695510
N21	N2	0.755700	0.939000	0.807720
N31	N3	0.814000	0.047320	0.812380
N41	N4	0.962910	0.149000	0.809040
N51	N5	0.833500	0.015200	0.763360
N61	N6	0.832250	0.165560	0.707970
N71	N7	0.813100	0.194800	0.757910
N81	N8	0.984150	0.115840	0.761370
N91	N9	0.090100	0.146500	0.806530
N101	N10	0.071900	0.906100	0.661000
N111	N11	0.256200	0.237350	0.804490
N121	N12	0.255700	0.561000	0.692280
N131	N13	0.314000	0.452680	0.687620
N141	N14	0.462910	0.351000	0.690960
N151	N15	0.333500	0.484800	0.736640
N161	N16	0.332250	0.334440	0.792030
N171	N17	0.313100	0.305200	0.742090
N181	N18	0.484150	0.384160	0.738630
N191	N19	0.590100	0.353500	0.693470
N201	N20	0.571900	0.593900	0.839000
N211	N21	0.743800	0.262650	0.304490
N221	N22	0.744300	0.939000	0.192280
N231	N23	0.686000	0.047320	0.187620
N241	N24	0.537090	0.149000	0.190960
N251	N25	0.666500	0.015200	0.236640
N261	N26	0.667750	0.165560	0.292030
N271	N27	0.686900	0.194800	0.242090
N281	N28	0.515850	0.115840	0.238630
N291	N29	0.409900	0.146500	0.193470
N301	N30	0.428100	0.906100	0.339000
N311	N31	0.243800	0.237350	0.195510
N321	N32	0.244300	0.561000	0.307720
N331	N33	0.186000	0.452680	0.312380
N341	N34	0.037090	0.351000	0.309040
N351	N35	0.166500	0.484800	0.263360
N361	N36	0.167750	0.334440	0.207970
N371	N37	0.186900	0.305200	0.257910
N381	N38	0.015850	0.384160	0.261370
N391	N39	0.909900	0.353500	0.306530
N401	N40	0.928100	0.593900	0.161000
N411	N41	0.243800	0.737350	0.304490
N421	N42	0.244300	0.061000	0.192280
N431	N43	0.186000	0.952680	0.187620
N441	N44	0.037090	0.851000	0.190960
N451	N45	0.166500	0.984800	0.236640
N461	N46	0.167750	0.834440	0.292030
N471	N47	0.186900	0.805200	0.242090
N481	N48	0.015850	0.884160	0.238630
N491	N49	0.909900	0.853500	0.193470
N501	N50	0.928100	0.093900	0.339000
N511	N51	0.743800	0.762650	0.195510
N521	N52	0.744300	0.439000	0.307720
N531	N53	0.686000	0.547320	0.312380
N541	N54	0.537090	0.649000	0.309040
N551	N55	0.666500	0.515200	0.263360
N561	N56	0.667750	0.665560	0.207970
N571	N57	0.686900	0.694800	0.257910
N581	N58	0.515850	0.615840	0.261370
N591	N59	0.409900	0.646500	0.306530
N601	N60	0.428100	0.406100	0.161000
N611	N61	0.256200	0.737350	0.695510
N621	N62	0.255700	0.061000	0.807720
N631	N63	0.314000	0.952680	0.812380
N641	N64	0.462910	0.851000	0.809040
N651	N65	0.333500	0.984800	0.763360
N661	N66	0.332250	0.834440	0.707970
N671	N67	0.313100	0.805200	0.757910
N681	N68	0.484150	0.884160	0.761370
N691	N69	0.590100	0.853500	0.806530
N701	N70	0.571900	0.093900	0.661000
N711	N71	0.756200	0.762650	0.804490
N721	N72	0.755700	0.439000	0.692280
N731	N73	0.814000	0.547320	0.687620
N741	N74	0.962910	0.649000	0.690960
N751	N75	0.833500	0.515200	0.736640
N761	N76	0.832250	0.665560	0.792030
N771	N77	0.813100	0.694800	0.742090
N781	N78	0.984150	0.615840	0.738630
N791	N79	0.090100	0.646500	0.693470
N801	N80	0.071900	0.406100	0.839000
O11	O1	0.720520	0.155130	0.949610
O21	O2	0.851170	0.234200	0.971200
O31	O3	0.720340	0.448840	0.949130
O41	O4	0.661260	0.301540	0.847600
O51	O5	0.851650	0.371030	0.971240
O61	O6	0.907790	0.375970	0.073480
O71	O7	0.721310	0.302270	0.949570
O81	O8	0.907510	0.227190	0.073200
O91	O9	0.789830	0.377360	0.869940
O101	O10	0.923130	0.302600	0.883590
O111	O11	0.790610	0.226640	0.871400
O121	O12	0.659030	0.450300	0.843030
O131	O13	0.962900	0.128400	0.638450
O141	O14	0.990660	0.301250	0.998920
O151	O15	0.981100	0.978900	0.700130
O161	O16	0.838200	0.024300	0.640010
O171	O17	0.660370	0.151080	0.844470
O181	O18	0.694300	0.346700	0.586600
O191	O19	0.220520	0.344870	0.550390
O201	O20	0.351170	0.265800	0.528800
O211	O21	0.220340	0.051160	0.550870
O221	O22	0.161260	0.198460	0.652400
O231	O23	0.351650	0.128970	0.528760
O241	O24	0.407790	0.124030	0.426520
O251	O25	0.221310	0.197730	0.550430
O261	O26	0.407510	0.272810	0.426800
O271	O27	0.289830	0.122640	0.630060
O281	O28	0.423130	0.197400	0.616410
O291	O29	0.290610	0.273360	0.628600
O301	O30	0.159030	0.049700	0.656970
O311	O31	0.462900	0.371600	0.861550
O321	O32	0.490660	0.198750	0.501080
O331	O33	0.481100	0.521100	0.799870
O341	O34	0.338200	0.475700	0.859990
O351	O35	0.160370	0.348920	0.655530
O361	O36	0.194300	0.153300	0.913400
O371	O37	0.779480	0.155130	0.050390
O381	O38	0.648830	0.234200	0.028800
O391	O39	0.779660	0.448840	0.050870
O401	O40	0.838740	0.301540	0.152400
O411	O41	0.648350	0.371030	0.028760
O421	O42	0.592210	0.375970	0.926520
O431	O43	0.778690	0.302270	0.050430
O441	O44	0.592490	0.227190	0.926800
O451	O45	0.710170	0.377360	0.130060
O461	O46	0.576870	0.302600	0.116410
O471	O47	0.709390	0.226640	0.128600
O481	O48	0.840970	0.450300	0.156970
O491	O49	0.537100	0.128400	0.361550
O501	O50	0.509340	0.301250	0.001080
O511	O51	0.518900	0.978900	0.299870
O521	O52	0.661800	0.024300	0.359990
O531	O53	0.839630	0.151080	0.155530
O541	O54	0.805700	0.346700	0.413400
O551	O55	0.279480	0.344870	0.449610
O561	O56	0.148830	0.265800	0.471200
O571	O57	0.279660	0.051160	0.449130
O581	O58	0.338740	0.198460	0.347600
O591	O59	0.148350	0.128970	0.471240
O601	O60	0.092210	0.124030	0.573480
O611	O61	0.278690	0.197730	0.449570
O621	O62	0.092490	0.272810	0.573200
O631	O63	0.210170	0.122640	0.369940
O641	O64	0.076870	0.197400	0.383590
O651	O65	0.209390	0.273360	0.371400
O661	O66	0.340970	0.049700	0.343030
O671	O67	0.037100	0.371600	0.138450
O681	O68	0.009340	0.198750	0.498920
O691	O69	0.018900	0.521100	0.200130
O701	O70	0.161800	0.475700	0.140010
O711	O71	0.339630	0.348920	0.344470
O721	O72	0.305700	0.153300	0.086600
O731	O73	0.279480	0.844870	0.050390
O741	O74	0.148830	0.765800	0.028800
O751	O75	0.279660	0.551160	0.050870
O761	O76	0.338740	0.698460	0.152400
O771	O77	0.148350	0.628970	0.028760
O781	O78	0.092210	0.624030	0.926520
O791	O79	0.278690	0.697730	0.050430
O801	O80	0.092490	0.772810	0.926800
O811	O81	0.210170	0.622640	0.130060
O821	O82	0.076870	0.697400	0.116410
O831	O83	0.209390	0.773360	0.128600
O841	O84	0.340970	0.549700	0.156970
O851	O85	0.037100	0.871600	0.361550
O861	O86	0.009340	0.698750	0.001080
O871	O87	0.018900	0.021100	0.299870
O881	O88	0.161800	0.975700	0.359990
O891	O89	0.339630	0.848920	0.155530
O901	O90	0.305700	0.653300	0.413400
O911	O91	0.779480	0.655130	0.449610
O921	O92	0.648830	0.734200	0.471200
O931	O93	0.779660	0.948840	0.449130
O941	O94	0.838740	0.801540	0.347600
O951	O95	0.648350	0.871030	0.471240
O961	O96	0.592210	0.875970	0.573480
O971	O97	0.778690	0.802270	0.449570
O981	O98	0.592490	0.727190	0.573200
O991	O99	0.710170	0.877360	0.369940
O1001	O100	0.576870	0.802600	0.383590
O1011	O101	0.709390	0.726640	0.371400
O1021	O102	0.840970	0.950300	0.343030
O1031	O103	0.537100	0.628400	0.138450
O1041	O104	0.509340	0.801250	0.498920
O1051	O105	0.518900	0.478900	0.200130
O1061	O106	0.661800	0.524300	0.140010
O1071	O107	0.839630	0.651080	0.344470
O1081	O108	0.805700	0.846700	0.086600
O1091	O109	0.220520	0.844870	0.949610
O1101	O110	0.351170	0.765800	0.971200
O1111	O111	0.220340	0.551160	0.949130
O1121	O112	0.161260	0.698460	0.847600
O1131	O113	0.351650	0.628970	0.971240
O1141	O114	0.407790	0.624030	0.073480
O1151	O115	0.221310	0.697730	0.949570
O1161	O116	0.407510	0.772810	0.073200
O1171	O117	0.289830	0.622640	0.869940
O1181	O118	0.423130	0.697400	0.883590
O1191	O119	0.290610	0.773360	0.871400
O1201	O120	0.159030	0.549700	0.843030
O1211	O121	0.462900	0.871600	0.638450
O1221	O122	0.490660	0.698750	0.998920
O1231	O123	0.481100	0.021100	0.700130
O1241	O124	0.338200	0.975700	0.640010
O1251	O125	0.160370	0.848920	0.844470
O1261	O126	0.194300	0.653300	0.586600
O1271	O127	0.720520	0.655130	0.550390
O1281	O128	0.851170	0.734200	0.528800
O1291	O129	0.720340	0.948840	0.550870
O1301	O130	0.661260	0.801540	0.652400
O1311	O131	0.851650	0.871030	0.528760
O1321	O132	0.907790	0.875970	0.426520
O1331	O133	0.721310	0.802270	0.550430
O1341	O134	0.907510	0.727190	0.426800
O1351	O135	0.789830	0.877360	0.630060
O1361	O136	0.923130	0.802600	0.616410
O1371	O137	0.790610	0.726640	0.628600
O1381	O138	0.659030	0.950300	0.656970
O1391	O139	0.962900	0.628400	0.861550
O1401	O140	0.990660	0.801250	0.501080
O1411	O141	0.981100	0.478900	0.799870
O1421	O142	0.838200	0.524300	0.859990
O1431	O143	0.660370	0.651080	0.655530
O1441	O144	0.694300	0.846700	0.913400
