data_NEHMET_freeONLY_PM
_symmetry_space_group_name_H-M	'P1'
_cell_length_a	15.112900
_cell_length_b	12.496600
_cell_length_c	16.848000
_cell_angle_alpha	90.000000
_cell_angle_beta	90.000000
_cell_angle_gamma	90.000000
_symmetry_Int_Tables_number 1

loop_
_symmetry_equiv_pos_as_xyz
'x,y,z'

loop_
_atom_site_label
_atom_site_type_symbol
_atom_site_fract_x
_atom_site_fract_y
_atom_site_fract_z
Cd11	Cd1	0.103590	0.012640	0.425930
O11	O1	0.208600	0.865100	0.451200
O21	O2	0.203000	0.006800	0.525700
O31	O3	0.480700	0.624300	0.505600
O41	O4	0.498000	0.584700	0.633000
O51	O5	0.404700	0.848800	0.834400
O61	O6	0.325500	0.987200	0.797900
C11	C1	0.232000	0.915800	0.510200
C21	C2	0.297600	0.867100	0.566600
C31	C3	0.347900	0.779200	0.545900
H11	H1	0.344300	0.752300	0.494500
C41	C4	0.464300	0.639700	0.577500
C51	C5	0.404500	0.729600	0.600900
C61	C6	0.407500	0.769000	0.678300
H21	H2	0.443600	0.736000	0.715700
C71	C7	0.361800	0.900600	0.783800
C81	C8	0.357100	0.857200	0.700000
C91	C9	0.303900	0.906900	0.643900
H31	H3	0.272000	0.967700	0.657900
Cd21	Cd2	0.396410	0.987360	0.925930
O71	O7	0.291400	0.134900	0.951200
O81	O8	0.297000	0.993200	0.025700
O91	O9	0.019300	0.375700	0.005600
O101	O10	0.002000	0.415300	0.133000
O111	O11	0.095300	0.151200	0.334400
O121	O12	0.174500	0.012800	0.297900
C101	C10	0.268000	0.084200	0.010200
C111	C11	0.202400	0.132900	0.066600
C121	C12	0.152100	0.220800	0.045900
H41	H4	0.155700	0.247700	0.994500
C131	C13	0.035700	0.360300	0.077500
C141	C14	0.095500	0.270400	0.100900
C151	C15	0.092500	0.231000	0.178300
H51	H5	0.056400	0.264000	0.215700
C161	C16	0.138200	0.099400	0.283800
C171	C17	0.142900	0.142800	0.200000
C181	C18	0.196100	0.093100	0.143900
H61	H6	0.228000	0.032300	0.157900
Cd31	Cd3	0.896410	0.512640	0.074070
O131	O13	0.791400	0.365100	0.048800
O141	O14	0.797000	0.506800	0.974300
O151	O15	0.519300	0.124300	0.994400
O161	O16	0.502000	0.084700	0.867000
O171	O17	0.595300	0.348800	0.665600
O181	O18	0.674500	0.487200	0.702100
C191	C19	0.768000	0.415800	0.989800
C201	C20	0.702400	0.367100	0.933400
C211	C21	0.652100	0.279200	0.954100
H71	H7	0.655700	0.252300	0.005500
C221	C22	0.535700	0.139700	0.922500
C231	C23	0.595500	0.229600	0.899100
C241	C24	0.592500	0.269000	0.821700
H81	H8	0.556400	0.236000	0.784300
C251	C25	0.638200	0.400600	0.716200
C261	C26	0.642900	0.357200	0.800000
C271	C27	0.696100	0.406900	0.856100
H91	H9	0.728000	0.467700	0.842100
Cd41	Cd4	0.603590	0.487360	0.574070
O191	O19	0.708600	0.634900	0.548800
O201	O20	0.703000	0.493200	0.474300
O211	O21	0.980700	0.875700	0.494400
O221	O22	0.998000	0.915300	0.367000
O231	O23	0.904700	0.651200	0.165600
O241	O24	0.825500	0.512800	0.202100
C281	C28	0.732000	0.584200	0.489800
C291	C29	0.797600	0.632900	0.433400
C301	C30	0.847900	0.720800	0.454100
H101	H10	0.844300	0.747700	0.505500
C311	C31	0.964300	0.860300	0.422500
C321	C32	0.904500	0.770400	0.399100
C331	C33	0.907500	0.731000	0.321700
H111	H11	0.943600	0.764000	0.284300
C341	C34	0.861800	0.599400	0.216200
C351	C35	0.857100	0.642800	0.300000
C361	C36	0.803900	0.593100	0.356100
H121	H12	0.772000	0.532300	0.342100
Cd51	Cd5	0.896410	0.987360	0.574070
O251	O25	0.791400	0.134900	0.548800
O261	O26	0.797000	0.993200	0.474300
O271	O27	0.519300	0.375700	0.494400
O281	O28	0.502000	0.415300	0.367000
O291	O29	0.595300	0.151200	0.165600
O301	O30	0.674500	0.012800	0.202100
C371	C37	0.768000	0.084200	0.489800
C381	C38	0.702400	0.132900	0.433400
C391	C39	0.652100	0.220800	0.454100
H131	H13	0.655700	0.247700	0.505500
C401	C40	0.535700	0.360300	0.422500
C411	C41	0.595500	0.270400	0.399100
C421	C42	0.592500	0.231000	0.321700
H141	H14	0.556400	0.264000	0.284300
C431	C43	0.638200	0.099400	0.216200
C441	C44	0.642900	0.142800	0.300000
C451	C45	0.696100	0.093100	0.356100
H151	H15	0.728000	0.032300	0.342100
Cd61	Cd6	0.603590	0.012640	0.074070
O311	O31	0.708600	0.865100	0.048800
O321	O32	0.703000	0.006800	0.974300
O331	O33	0.980700	0.624300	0.994400
O341	O34	0.998000	0.584700	0.867000
O351	O35	0.904700	0.848800	0.665600
O361	O36	0.825500	0.987200	0.702100
C461	C46	0.732000	0.915800	0.989800
C471	C47	0.797600	0.867100	0.933400
C481	C48	0.847900	0.779200	0.954100
H161	H16	0.844300	0.752300	0.005500
C491	C49	0.964300	0.639700	0.922500
C501	C50	0.904500	0.729600	0.899100
C511	C51	0.907500	0.769000	0.821700
H171	H17	0.943600	0.736000	0.784300
C521	C52	0.861800	0.900600	0.716200
C531	C53	0.857100	0.857200	0.800000
C541	C54	0.803900	0.906900	0.856100
H181	H18	0.772000	0.967700	0.842100
Cd71	Cd7	0.103590	0.487360	0.925930
O371	O37	0.208600	0.634900	0.951200
O381	O38	0.203000	0.493200	0.025700
O391	O39	0.480700	0.875700	0.005600
O401	O40	0.498000	0.915300	0.133000
O411	O41	0.404700	0.651200	0.334400
O421	O42	0.325500	0.512800	0.297900
C551	C55	0.232000	0.584200	0.010200
C561	C56	0.297600	0.632900	0.066600
C571	C57	0.347900	0.720800	0.045900
H191	H19	0.344300	0.747700	0.994500
C581	C58	0.464300	0.860300	0.077500
C591	C59	0.404500	0.770400	0.100900
C601	C60	0.407500	0.731000	0.178300
H201	H20	0.443600	0.764000	0.215700
C611	C61	0.361800	0.599400	0.283800
C621	C62	0.357100	0.642800	0.200000
C631	C63	0.303900	0.593100	0.143900
H211	H21	0.272000	0.532300	0.157900
Cd81	Cd8	0.396410	0.512640	0.425930
O431	O43	0.291400	0.365100	0.451200
O441	O44	0.297000	0.506800	0.525700
O451	O45	0.019300	0.124300	0.505600
O461	O46	0.002000	0.084700	0.633000
O471	O47	0.095300	0.348800	0.834400
O481	O48	0.174500	0.487200	0.797900
C641	C64	0.268000	0.415800	0.510200
C651	C65	0.202400	0.367100	0.566600
C661	C66	0.152100	0.279200	0.545900
H221	H22	0.155700	0.252300	0.494500
C671	C67	0.035700	0.139700	0.577500
C681	C68	0.095500	0.229600	0.600900
C691	C69	0.092500	0.269000	0.678300
H231	H23	0.056400	0.236000	0.715700
C701	C70	0.138200	0.400600	0.783800
C711	C71	0.142900	0.357200	0.700000
C721	C72	0.196100	0.406900	0.643900
H241	H24	0.228000	0.467700	0.657900
