data_NEHZIK_freeONLY_PM
_symmetry_space_group_name_H-M	'P1'
_cell_length_a	17.119300
_cell_length_b	17.119300
_cell_length_c	17.119300
_cell_angle_alpha	98.285700
_cell_angle_beta	115.337000
_cell_angle_gamma	115.337000
_symmetry_Int_Tables_number 1

loop_
_symmetry_equiv_pos_as_xyz
'x,y,z'

loop_
_atom_site_label
_atom_site_type_symbol
_atom_site_fract_x
_atom_site_fract_y
_atom_site_fract_z
Zn11	Zn1	0.384490	0.786870	0.848000
Zn21	Zn2	0.884490	0.036490	0.597620
H11	H1	0.324000	0.886100	0.960900
H21	H2	0.222400	0.815800	0.692800
H31	H3	0.096400	0.883000	0.644800
H41	H4	0.109800	0.981700	0.795700
H51	H5	0.531900	0.990200	0.875500
H61	H6	0.471800	0.758600	0.714800
H71	H7	0.614900	0.837200	0.668500
H81	H8	0.712400	0.029700	0.733500
H91	H9	0.211500	0.936600	0.894700
H101	H10	0.641600	0.032400	0.820000
H111	H11	0.824000	0.863100	0.437900
H121	H12	0.722400	0.029600	0.406600
H131	H13	0.596400	0.951600	0.213400
H141	H14	0.609800	0.814100	0.128100
H151	H15	0.031900	0.156400	0.541700
H161	H16	0.971800	0.257000	0.713200
H171	H17	0.114900	0.446400	0.777700
H181	H18	0.212400	0.478900	0.682700
H191	H19	0.711500	0.816800	0.274900
H201	H20	0.141600	0.321600	0.609200
C11	C1	0.289700	0.878730	0.898430
C21	C2	0.233700	0.840520	0.751420
C31	C3	0.189300	0.884440	0.768940
C41	C4	0.120200	0.906320	0.708320
C51	C5	0.086700	0.955770	0.732670
C61	C6	0.013300	0.970680	0.661980
C71	C7	0.533700	0.948620	0.835920
C81	C8	0.501000	0.822060	0.747660
C91	C9	0.576900	0.895050	0.748350
C101	C10	0.629600	0.895070	0.701270
C111	C11	0.697300	0.971440	0.701140
C121	C12	0.750000	0.968530	0.651930
C131	C13	0.789700	0.891270	0.410970
C141	C14	0.733700	0.982280	0.393180
C151	C15	0.689300	0.920360	0.304860
C161	C16	0.620200	0.911880	0.213880
C171	C17	0.586700	0.854030	0.130930
C181	C18	0.513300	0.851320	0.042620
C191	C19	0.033700	0.197780	0.585080
C201	C20	0.001000	0.253340	0.678940
C211	C21	0.076900	0.328550	0.681850
C221	C22	0.129600	0.428330	0.734530
C231	C23	0.197300	0.496160	0.725860
C241	C24	0.250000	0.598070	0.781470
N11	N1	0.297500	0.838000	0.832620
N21	N2	0.226530	0.907940	0.863550
N31	N3	0.473880	0.856030	0.802950
N41	N4	0.596450	0.975200	0.805950
N51	N5	0.797500	0.964880	0.459500
N61	N6	0.726530	0.862980	0.318590
N71	N7	0.973880	0.170930	0.617850
N81	N8	0.096450	0.290500	0.621250
O11	O1	0.984910	0.019710	0.693480
O21	O2	0.982480	0.940720	0.578800
O31	O3	0.807980	0.047480	0.653860
O41	O4	0.737240	0.893360	0.612380
O51	O5	0.484910	0.791430	0.965200
O61	O6	0.482480	0.903680	0.041760
O71	O7	0.307980	0.654120	0.760500
O81	O8	0.237240	0.624860	0.843880
Zn31	Zn3	0.115510	0.963510	0.402380
Zn41	Zn4	0.615510	0.213130	0.152000
H211	H21	0.176000	0.136900	0.562100
H221	H22	0.277600	0.970400	0.593400
H231	H23	0.403600	0.048400	0.786600
H241	H24	0.390200	0.185900	0.871900
H251	H25	0.968100	0.843600	0.458300
H261	H26	0.028200	0.743000	0.286800
H271	H27	0.885100	0.553600	0.222300
H281	H28	0.787600	0.521100	0.317300
H291	H29	0.288500	0.183200	0.725100
H301	H30	0.858400	0.678400	0.390800
H311	H31	0.676000	0.113900	0.039100
H321	H32	0.777600	0.184200	0.307200
H331	H33	0.903600	0.117000	0.355200
H341	H34	0.890200	0.018300	0.204300
H351	H35	0.468100	0.009800	0.124500
H361	H36	0.528200	0.241400	0.285200
H371	H37	0.385100	0.162800	0.331500
H381	H38	0.287600	0.970300	0.266500
H391	H39	0.788500	0.063400	0.105300
H401	H40	0.358400	0.967600	0.180000
C251	C25	0.210300	0.108730	0.589030
C261	C26	0.266300	0.017720	0.606820
C271	C27	0.310700	0.079640	0.695140
C281	C28	0.379800	0.088120	0.786120
C291	C29	0.413300	0.145970	0.869070
C301	C30	0.486700	0.148680	0.957380
C311	C31	0.966300	0.802220	0.414920
C321	C32	0.999000	0.746660	0.321060
C331	C33	0.923100	0.671450	0.318150
C341	C34	0.870400	0.571670	0.265470
C351	C35	0.802700	0.503840	0.274140
C361	C36	0.750000	0.401930	0.218530
C371	C37	0.710300	0.121270	0.101570
C381	C38	0.766300	0.159480	0.248580
C391	C39	0.810700	0.115560	0.231060
C401	C40	0.879800	0.093680	0.291680
C411	C41	0.913300	0.044230	0.267330
C421	C42	0.986700	0.029320	0.338020
C431	C43	0.466300	0.051380	0.164080
C441	C44	0.499000	0.177940	0.252340
C451	C45	0.423100	0.104950	0.251650
C461	C46	0.370400	0.104930	0.298730
C471	C47	0.302700	0.028560	0.298860
C481	C48	0.250000	0.031470	0.348070
N91	N9	0.202500	0.035120	0.540500
N101	N10	0.273470	0.137020	0.681410
N111	N11	0.026120	0.829070	0.382150
N121	N12	0.903550	0.709500	0.378750
N131	N13	0.702500	0.162000	0.167380
N141	N14	0.773470	0.092060	0.136450
N151	N15	0.526120	0.143970	0.197050
N161	N16	0.403550	0.024800	0.194050
O91	O9	0.515090	0.208570	0.034800
O101	O10	0.517520	0.096320	0.958240
O111	O11	0.692020	0.345880	0.239500
O121	O12	0.762760	0.375140	0.156120
O131	O13	0.015090	0.980290	0.306520
O141	O14	0.017520	0.059280	0.421200
O151	O15	0.192020	0.952520	0.346140
O161	O16	0.262760	0.106640	0.387620
Zn51	Zn5	0.061130	0.848000	0.963510
Zn61	Zn6	0.561130	0.597620	0.213130
H411	H41	0.074800	0.960900	0.136900
H421	H42	0.877000	0.692800	0.970400
H431	H43	0.761800	0.644800	0.048400
H441	H44	0.814000	0.795700	0.185900
H451	H45	0.885300	0.875500	0.843600
H461	H46	0.956200	0.714800	0.743000
H471	H47	0.831300	0.668500	0.553600
H481	H48	0.703800	0.733500	0.521100
H491	H49	0.958100	0.894700	0.183200
H501	H50	0.787600	0.820000	0.678400
H511	H51	0.574800	0.437900	0.113900
H521	H52	0.377000	0.406600	0.184200
H531	H53	0.261800	0.213400	0.117000
H541	H54	0.314000	0.128100	0.018300
H551	H55	0.385300	0.541700	0.009800
H561	H56	0.456200	0.713200	0.241400
H571	H57	0.331300	0.777700	0.162800
H581	H58	0.203800	0.682700	0.970300
H591	H59	0.458100	0.274900	0.063400
H601	H60	0.287600	0.609200	0.967600
C491	C49	0.019700	0.898430	0.108730
C501	C50	0.910900	0.751420	0.017720
C511	C51	0.884500	0.768940	0.079640
C521	C52	0.802000	0.708320	0.088120
C531	C53	0.776900	0.732670	0.145970
C541	C54	0.691300	0.661980	0.148680
C551	C55	0.887300	0.835920	0.802220
C561	C56	0.925600	0.747660	0.746660
C571	C57	0.853300	0.748350	0.671450
C581	C58	0.806200	0.701270	0.571670
C591	C59	0.729700	0.701140	0.503840
C601	C60	0.683400	0.651930	0.401930
C611	C61	0.519700	0.410970	0.121270
C621	C62	0.410900	0.393180	0.159480
C631	C63	0.384500	0.304860	0.115560
C641	C64	0.302000	0.213880	0.093680
C651	C65	0.276900	0.130930	0.044230
C661	C66	0.191300	0.042620	0.029320
C671	C67	0.387300	0.585080	0.051380
C681	C68	0.425600	0.678940	0.177940
C691	C69	0.353300	0.681850	0.104950
C701	C70	0.306200	0.734530	0.104930
C711	C71	0.229700	0.725860	0.028560
C721	C72	0.183400	0.781470	0.031470
N171	N17	0.994620	0.832620	0.035120
N181	N18	0.955610	0.863550	0.137020
N191	N19	0.946920	0.802950	0.829070
N201	N20	0.830750	0.805950	0.709500
N211	N21	0.494620	0.459500	0.162000
N221	N22	0.455610	0.318590	0.092060
N231	N23	0.446920	0.617850	0.143970
N241	N24	0.330750	0.621250	0.024800
O171	O17	0.673770	0.693480	0.208570
O181	O18	0.638080	0.578800	0.096320
O191	O19	0.606380	0.653860	0.345880
O201	O20	0.719020	0.612380	0.375140
O211	O21	0.173770	0.965200	0.980290
O221	O22	0.138080	0.041760	0.059280
O231	O23	0.106380	0.760500	0.952520
O241	O24	0.219020	0.843880	0.106640
Zn71	Zn7	0.438870	0.402380	0.786870
Zn81	Zn8	0.938870	0.152000	0.036490
H611	H61	0.425200	0.562100	0.886100
H621	H62	0.623000	0.593400	0.815800
H631	H63	0.738200	0.786600	0.883000
H641	H64	0.686000	0.871900	0.981700
H651	H65	0.614700	0.458300	0.990200
H661	H66	0.543800	0.286800	0.758600
H671	H67	0.668700	0.222300	0.837200
H681	H68	0.796200	0.317300	0.029700
H691	H69	0.541900	0.725100	0.936600
H701	H70	0.712400	0.390800	0.032400
H711	H71	0.925200	0.039100	0.863100
H721	H72	0.123000	0.307200	0.029600
H731	H73	0.238200	0.355200	0.951600
H741	H74	0.186000	0.204300	0.814100
H751	H75	0.114700	0.124500	0.156400
H761	H76	0.043800	0.285200	0.257000
H771	H77	0.168700	0.331500	0.446400
H781	H78	0.296200	0.266500	0.478900
H791	H79	0.041900	0.105300	0.816800
H801	H80	0.212400	0.180000	0.321600
C731	C73	0.480300	0.589030	0.878730
C741	C74	0.589100	0.606820	0.840520
C751	C75	0.615500	0.695140	0.884440
C761	C76	0.698000	0.786120	0.906320
C771	C77	0.723100	0.869070	0.955770
C781	C78	0.808700	0.957380	0.970680
C791	C79	0.612700	0.414920	0.948620
C801	C80	0.574400	0.321060	0.822060
C811	C81	0.646700	0.318150	0.895050
C821	C82	0.693800	0.265470	0.895070
C831	C83	0.770300	0.274140	0.971440
C841	C84	0.816600	0.218530	0.968530
C851	C85	0.980300	0.101570	0.891270
C861	C86	0.089100	0.248580	0.982280
C871	C87	0.115500	0.231060	0.920360
C881	C88	0.198000	0.291680	0.911880
C891	C89	0.223100	0.267330	0.854030
C901	C90	0.308700	0.338020	0.851320
C911	C91	0.112700	0.164080	0.197780
C921	C92	0.074400	0.252340	0.253340
C931	C93	0.146700	0.251650	0.328550
C941	C94	0.193800	0.298730	0.428330
C951	C95	0.270300	0.298860	0.496160
C961	C96	0.316600	0.348070	0.598070
N251	N25	0.505380	0.540500	0.838000
N261	N26	0.544390	0.681410	0.907940
N271	N27	0.553080	0.382150	0.856030
N281	N28	0.669250	0.378750	0.975200
N291	N29	0.005380	0.167380	0.964880
N301	N30	0.044390	0.136450	0.862980
N311	N31	0.053080	0.197050	0.170930
N321	N32	0.169250	0.194050	0.290500
O251	O25	0.826230	0.034800	0.019710
O261	O26	0.861920	0.958240	0.940720
O271	O27	0.893620	0.239500	0.047480
O281	O28	0.780980	0.156120	0.893360
O291	O29	0.326230	0.306520	0.791430
O301	O30	0.361920	0.421200	0.903680
O311	O31	0.393620	0.346140	0.654120
O321	O32	0.280980	0.387620	0.624860
