data_NEJSEC_freeONLY_PM
_symmetry_space_group_name_H-M	'P1'
_cell_length_a	10.804400
_cell_length_b	14.053000
_cell_length_c	21.678000
_cell_angle_alpha	89.878000
_cell_angle_beta	83.363000
_cell_angle_gamma	88.981000
_symmetry_Int_Tables_number 1

loop_
_symmetry_equiv_pos_as_xyz
'x,y,z'

loop_
_atom_site_label
_atom_site_type_symbol
_atom_site_fract_x
_atom_site_fract_y
_atom_site_fract_z
Cu11	Cu1	0.718460	0.298890	0.671650
Cu21	Cu2	0.723220	0.109930	0.671640
Cu31	Cu3	0.732970	0.296460	0.170470
Cu41	Cu4	0.737310	0.107290	0.171260
H11	H1	0.772300	0.343900	0.863800
H21	H2	0.786400	0.343000	0.969900
H31	H3	0.680700	0.071800	0.979300
H41	H4	0.668700	0.071500	0.874100
H51	H5	0.326900	0.059500	0.686500
H61	H6	0.113200	0.060100	0.685500
H71	H7	0.114500	0.343800	0.655900
H81	H8	0.328000	0.343900	0.658600
H91	H9	0.797800	0.076400	0.471500
H101	H10	0.788700	0.073100	0.366200
H111	H11	0.684900	0.347600	0.369700
H121	H12	0.684500	0.347700	0.477000
H131	H13	0.341100	0.056300	0.188900
H141	H14	0.129600	0.054800	0.182900
H151	H15	0.129000	0.337600	0.151400
H161	H16	0.341200	0.339500	0.155700
H171	H17	0.905800	0.937100	0.662800
H181	H18	0.911800	0.773600	0.662800
H191	H19	0.537900	0.779000	0.669300
H201	H20	0.544200	0.942000	0.671500
H211	H21	0.893000	0.459400	0.119400
H221	H22	0.902500	0.622400	0.116100
H231	H23	0.569500	0.632500	0.221400
H241	H24	0.574300	0.468600	0.222400
H251	H25	0.557500	0.939700	0.174800
H261	H26	0.551400	0.776600	0.174000
H271	H27	0.925700	0.770700	0.158900
H281	H28	0.919600	0.934500	0.161000
H291	H29	0.574800	0.468600	0.624700
H301	H30	0.574200	0.631400	0.619000
H311	H31	0.869000	0.628200	0.717600
H321	H32	0.856900	0.465200	0.720900
C11	C1	0.712800	0.206500	0.788830
C21	C2	0.486900	0.201600	0.674320
C31	C3	0.734200	0.210400	0.554250
C41	C4	0.954300	0.201900	0.668570
C51	C5	0.729300	0.205800	0.287860
C61	C6	0.500500	0.200400	0.175440
C71	C7	0.740700	0.207100	0.053610
C81	C8	0.969400	0.196000	0.165730
C91	C9	0.719700	0.207200	0.857550
C101	C10	0.754200	0.288200	0.886960
C111	C11	0.762000	0.287600	0.950620
C121	C12	0.735100	0.208600	0.985480
C131	C13	0.699800	0.127200	0.956010
C141	C14	0.692600	0.127200	0.893220
C151	C15	0.349000	0.201200	0.672340
C161	C16	0.284000	0.116900	0.680430
C171	C17	0.157000	0.117200	0.679520
C181	C18	0.092600	0.202100	0.669810
C191	C19	0.157500	0.286500	0.662090
C201	C20	0.284500	0.286500	0.663540
C211	C21	0.736100	0.211300	0.485210
C221	C22	0.771000	0.131000	0.451380
C231	C23	0.767100	0.129600	0.388270
C241	C24	0.732600	0.208700	0.356740
C251	C25	0.704600	0.291300	0.390240
C261	C26	0.705400	0.291400	0.454470
C271	C27	0.363400	0.198500	0.172920
C281	C28	0.298400	0.113100	0.181110
C291	C29	0.172600	0.112300	0.177800
C301	C30	0.107900	0.196300	0.166950
C311	C31	0.172100	0.280800	0.158840
C321	C32	0.298400	0.281900	0.161570
C331	C33	0.830300	0.904400	0.664660
C341	C34	0.834800	0.806200	0.664350
C351	C35	0.724700	0.755800	0.666360
C361	C36	0.614900	0.809300	0.668470
C371	C37	0.619700	0.907200	0.669400
C381	C38	0.827300	0.495200	0.140790
C391	C39	0.833500	0.592900	0.138180
C401	C40	0.736900	0.647600	0.168440
C411	C41	0.637600	0.598900	0.200380
C421	C42	0.641200	0.500800	0.200570
C431	C43	0.633100	0.904900	0.171620
C441	C44	0.628700	0.806800	0.171300
C451	C45	0.737100	0.753200	0.167010
C461	C46	0.848600	0.803600	0.162500
C471	C47	0.844100	0.901700	0.163460
C481	C48	0.635100	0.501900	0.643500
C491	C49	0.634000	0.599300	0.639900
C501	C50	0.723300	0.650800	0.667750
C511	C51	0.807300	0.597600	0.698100
C521	C52	0.800000	0.499800	0.699500
N11	N1	0.724600	0.955240	0.667490
N21	N2	0.735100	0.449310	0.171320
N31	N3	0.738300	0.952320	0.167710
N41	N4	0.717000	0.452280	0.672140
O11	O1	0.720300	0.285640	0.761790
O21	O2	0.700210	0.127290	0.763800
O31	O3	0.536350	0.280730	0.680510
O41	O4	0.543420	0.121980	0.670160
O51	O5	0.718860	0.289620	0.581570
O61	O6	0.746900	0.131160	0.580170
O71	O7	0.900660	0.281100	0.662250
O81	O8	0.901410	0.122460	0.673830
O91	O9	0.715610	0.284640	0.261140
O101	O10	0.739700	0.126260	0.262070
O111	O11	0.552400	0.279630	0.171530
O121	O12	0.555950	0.120970	0.181220
O131	O13	0.749700	0.286600	0.079710
O141	O14	0.735000	0.127800	0.080570
O151	O15	0.913850	0.275800	0.169370
O161	O16	0.917930	0.116540	0.162100
Cu51	Cu5	0.281540	0.701110	0.328350
Cu61	Cu6	0.276780	0.890070	0.328360
Cu71	Cu7	0.267030	0.703540	0.829530
Cu81	Cu8	0.262690	0.892710	0.828740
H331	H33	0.227700	0.656100	0.136200
H341	H34	0.213600	0.657000	0.030100
H351	H35	0.319300	0.928200	0.020700
H361	H36	0.331300	0.928500	0.125900
H371	H37	0.673100	0.940500	0.313500
H381	H38	0.886800	0.939900	0.314500
H391	H39	0.885500	0.656200	0.344100
H401	H40	0.672000	0.656100	0.341400
H411	H41	0.202200	0.923600	0.528500
H421	H42	0.211300	0.926900	0.633800
H431	H43	0.315100	0.652400	0.630300
H441	H44	0.315500	0.652300	0.523000
H451	H45	0.658900	0.943700	0.811100
H461	H46	0.870400	0.945200	0.817100
H471	H47	0.871000	0.662400	0.848600
H481	H48	0.658800	0.660500	0.844300
H491	H49	0.094200	0.062900	0.337200
H501	H50	0.088200	0.226400	0.337200
H511	H51	0.462100	0.221000	0.330700
H521	H52	0.455800	0.058000	0.328500
H531	H53	0.107000	0.540600	0.880600
H541	H54	0.097500	0.377600	0.883900
H551	H55	0.430500	0.367500	0.778600
H561	H56	0.425700	0.531400	0.777600
H571	H57	0.442500	0.060300	0.825200
H581	H58	0.448600	0.223400	0.826000
H591	H59	0.074300	0.229300	0.841100
H601	H60	0.080400	0.065500	0.839000
H611	H61	0.425200	0.531400	0.375300
H621	H62	0.425800	0.368600	0.381000
H631	H63	0.131000	0.371800	0.282400
H641	H64	0.143100	0.534800	0.279100
C531	C53	0.287200	0.793500	0.211170
C541	C54	0.513100	0.798400	0.325680
C551	C55	0.265800	0.789600	0.445750
C561	C56	0.045700	0.798100	0.331430
C571	C57	0.270700	0.794200	0.712140
C581	C58	0.499500	0.799600	0.824560
C591	C59	0.259300	0.792900	0.946390
C601	C60	0.030600	0.804000	0.834270
C611	C61	0.280300	0.792800	0.142450
C621	C62	0.245800	0.711800	0.113040
C631	C63	0.238000	0.712400	0.049380
C641	C64	0.264900	0.791400	0.014520
C651	C65	0.300200	0.872800	0.043990
C661	C66	0.307400	0.872800	0.106780
C671	C67	0.651000	0.798800	0.327660
C681	C68	0.716000	0.883100	0.319570
C691	C69	0.843000	0.882800	0.320480
C701	C70	0.907400	0.797900	0.330190
C711	C71	0.842500	0.713500	0.337910
C721	C72	0.715500	0.713500	0.336460
C731	C73	0.263900	0.788700	0.514790
C741	C74	0.229000	0.869000	0.548620
C751	C75	0.232900	0.870400	0.611730
C761	C76	0.267400	0.791300	0.643260
C771	C77	0.295400	0.708700	0.609760
C781	C78	0.294600	0.708600	0.545530
C791	C79	0.636600	0.801500	0.827080
C801	C80	0.701600	0.886900	0.818890
C811	C81	0.827400	0.887700	0.822200
C821	C82	0.892100	0.803700	0.833050
C831	C83	0.827900	0.719200	0.841160
C841	C84	0.701600	0.718100	0.838430
C851	C85	0.169700	0.095600	0.335340
C861	C86	0.165200	0.193800	0.335650
C871	C87	0.275300	0.244200	0.333640
C881	C88	0.385100	0.190700	0.331530
C891	C89	0.380300	0.092800	0.330600
C901	C90	0.172700	0.504800	0.859210
C911	C91	0.166500	0.407100	0.861820
C921	C92	0.263100	0.352400	0.831560
C931	C93	0.362400	0.401100	0.799620
C941	C94	0.358800	0.499200	0.799430
C951	C95	0.366900	0.095100	0.828380
C961	C96	0.371300	0.193200	0.828700
C971	C97	0.262900	0.246800	0.832990
C981	C98	0.151400	0.196400	0.837500
C991	C99	0.155900	0.098300	0.836540
C1001	C100	0.364900	0.498100	0.356500
C1011	C101	0.366000	0.400700	0.360100
C1021	C102	0.276700	0.349200	0.332250
C1031	C103	0.192700	0.402400	0.301900
C1041	C104	0.200000	0.500200	0.300500
N51	N5	0.275400	0.044760	0.332510
N61	N6	0.264900	0.550690	0.828680
N71	N7	0.261700	0.047680	0.832290
N81	N8	0.283000	0.547720	0.327860
O171	O17	0.279700	0.714360	0.238210
O181	O18	0.299790	0.872710	0.236200
O191	O19	0.463650	0.719270	0.319490
O201	O20	0.456580	0.878020	0.329840
O211	O21	0.281140	0.710380	0.418430
O221	O22	0.253100	0.868840	0.419830
O231	O23	0.099340	0.718900	0.337750
O241	O24	0.098590	0.877540	0.326170
O251	O25	0.284390	0.715360	0.738860
O261	O26	0.260300	0.873740	0.737930
O271	O27	0.447600	0.720370	0.828470
O281	O28	0.444050	0.879030	0.818780
O291	O29	0.250300	0.713400	0.920290
O301	O30	0.265000	0.872200	0.919430
O311	O31	0.086150	0.724200	0.830630
O321	O32	0.082070	0.883460	0.837900
