data_NENMOJ_freeONLY_PM
_symmetry_space_group_name_H-M	'P1'
_cell_length_a	8.721900
_cell_length_b	17.352500
_cell_length_c	12.271900
_cell_angle_alpha	90.000000
_cell_angle_beta	92.457000
_cell_angle_gamma	90.000000
_symmetry_Int_Tables_number 1

loop_
_symmetry_equiv_pos_as_xyz
'x,y,z'

loop_
_atom_site_label
_atom_site_type_symbol
_atom_site_fract_x
_atom_site_fract_y
_atom_site_fract_z
C11	C1	0.824600	0.268700	0.579400
C21	C2	0.348800	0.190500	0.419500
C31	C3	0.027700	0.072200	0.762600
C41	C4	0.862600	0.135000	0.239100
N11	N1	0.881900	0.216800	0.541500
N21	N2	0.239800	0.165600	0.450900
N31	N3	0.057100	0.090900	0.677700
N41	N4	0.920700	0.114100	0.320000
O11	O1	0.835900	0.009200	0.510100
H11	H1	0.759900	0.011000	0.450200
H21	H2	0.783600	0.013200	0.578100
S11	S1	0.741800	0.345100	0.633440
S21	S2	0.508500	0.227410	0.375700
S31	S3	0.988600	0.038760	0.884700
S41	S4	0.775100	0.166290	0.126000
Cd11	Cd1	0.016200	0.112030	0.495250
Hg11	Hg1	0.505220	0.341710	0.504500
C51	C5	0.675400	0.768700	0.920600
C61	C6	0.151200	0.690500	0.080500
C71	C7	0.472300	0.572200	0.737400
C81	C8	0.637400	0.635000	0.260900
N51	N5	0.618100	0.716800	0.958500
N61	N6	0.260200	0.665600	0.049100
N71	N7	0.442900	0.590900	0.822300
N81	N8	0.579300	0.614100	0.180000
O21	O2	0.664100	0.509200	0.989900
H31	H3	0.740100	0.511000	0.049800
H41	H4	0.716400	0.513200	0.921900
S51	S5	0.758200	0.845100	0.866560
S61	S6	0.991500	0.727410	0.124300
S71	S7	0.511400	0.538760	0.615300
S81	S8	0.724900	0.666290	0.374000
Cd21	Cd2	0.483800	0.612030	0.004750
Hg21	Hg2	0.994780	0.841710	0.995500
C91	C9	0.175400	0.731300	0.420600
C101	C10	0.651200	0.809500	0.580500
C111	C11	0.972300	0.927800	0.237400
C121	C12	0.137400	0.865000	0.760900
N91	N9	0.118100	0.783200	0.458500
N101	N10	0.760200	0.834400	0.549100
N111	N11	0.942900	0.909100	0.322300
N121	N12	0.079300	0.885900	0.680000
O31	O3	0.164100	0.990800	0.489900
H51	H5	0.240100	0.989000	0.549800
H61	H6	0.216400	0.986800	0.421900
S91	S9	0.258200	0.654900	0.366560
S101	S10	0.491500	0.772590	0.624300
S111	S11	0.011400	0.961240	0.115300
S121	S12	0.224900	0.833710	0.874000
Cd31	Cd3	0.983800	0.887970	0.504750
Hg31	Hg3	0.494780	0.658290	0.495500
C131	C13	0.324600	0.231300	0.079400
C141	C14	0.848800	0.309500	0.919500
C151	C15	0.527700	0.427800	0.262600
C161	C16	0.362600	0.365000	0.739100
N131	N13	0.381900	0.283200	0.041500
N141	N14	0.739800	0.334400	0.950900
N151	N15	0.557100	0.409100	0.177700
N161	N16	0.420700	0.385900	0.820000
O41	O4	0.335900	0.490800	0.010100
H71	H7	0.259900	0.489000	0.950200
H81	H8	0.283600	0.486800	0.078100
S131	S13	0.241800	0.154900	0.133440
S141	S14	0.008500	0.272590	0.875700
S151	S15	0.488600	0.461240	0.384700
S161	S16	0.275100	0.333710	0.626000
Cd41	Cd4	0.516200	0.387970	0.995250
Hg41	Hg4	0.005220	0.158290	0.004500
