data_NERMON_freeONLY_PM
_symmetry_space_group_name_H-M	'P1'
_cell_length_a	7.012200
_cell_length_b	11.124100
_cell_length_c	20.043300
_cell_angle_alpha	106.111000
_cell_angle_beta	98.292500
_cell_angle_gamma	90.000000
_symmetry_Int_Tables_number 1

loop_
_symmetry_equiv_pos_as_xyz
'x,y,z'

loop_
_atom_site_label
_atom_site_type_symbol
_atom_site_fract_x
_atom_site_fract_y
_atom_site_fract_z
Er11	Er1	0.146660	0.070460	0.740630
Er21	Er2	0.353340	0.329830	0.259370
Er31	Er3	0.853340	0.929540	0.259370
Er41	Er4	0.646660	0.670170	0.740630
H11	H1	0.497600	0.203300	0.990200
H21	H2	0.363400	0.833100	0.908600
H31	H3	0.527600	0.718100	0.544800
H41	H4	0.423700	0.693400	0.425400
H51	H5	0.186300	0.027200	0.475400
H61	H6	0.297100	0.056300	0.593200
H71	H7	0.002400	0.213100	0.009800
H81	H8	0.136600	0.924500	0.091400
H91	H9	0.972400	0.173300	0.455200
H101	H10	0.076300	0.268000	0.574600
H111	H11	0.313700	0.551800	0.524600
H121	H12	0.202900	0.463100	0.406800
H131	H13	0.502400	0.796700	0.009800
H141	H14	0.636600	0.166900	0.091400
H151	H15	0.472400	0.281900	0.455200
H161	H16	0.576300	0.306600	0.574600
H171	H17	0.813700	0.972800	0.524600
H181	H18	0.702900	0.943700	0.406800
H191	H19	0.997600	0.786900	0.990200
H201	H20	0.863400	0.075500	0.908600
H211	H21	0.027600	0.826700	0.544800
H221	H22	0.923700	0.732000	0.425400
H231	H23	0.686300	0.448200	0.475400
H241	H24	0.797100	0.536900	0.593200
C11	C1	0.327500	0.042400	0.869000
C21	C2	0.416400	0.020700	0.936800
C31	C3	0.499500	0.122000	0.994200
C41	C4	0.419200	0.899900	0.945400
C51	C5	0.467000	0.892100	0.657400
C61	C6	0.414700	0.884600	0.582000
C71	C7	0.456500	0.780000	0.531000
C81	C8	0.394200	0.764600	0.458800
C91	C9	0.289100	0.856700	0.438600
C101	C10	0.254500	0.964400	0.489400
C111	C11	0.317900	0.981900	0.560400
C121	C12	0.211800	0.839000	0.362600
C131	C13	0.172500	0.173400	0.131000
C141	C14	0.083600	0.083900	0.063200
C151	C15	0.000500	0.127800	0.005800
C161	C16	0.080800	0.954500	0.054600
C171	C17	0.033000	0.234700	0.342600
C181	C18	0.085300	0.302600	0.418000
C191	C19	0.043500	0.249000	0.469000
C201	C20	0.105800	0.305800	0.541200
C211	C21	0.210900	0.418100	0.561400
C221	C22	0.245500	0.475000	0.510600
C231	C23	0.182100	0.421500	0.439600
C241	C24	0.288200	0.476400	0.637400
C251	C25	0.672500	0.957600	0.131000
C261	C26	0.583600	0.979300	0.063200
C271	C27	0.500500	0.878000	0.005800
C281	C28	0.580800	0.100100	0.054600
C291	C29	0.533000	0.107900	0.342600
C301	C30	0.585300	0.115400	0.418000
C311	C31	0.543500	0.220000	0.469000
C321	C32	0.605800	0.235400	0.541200
C331	C33	0.710900	0.143300	0.561400
C341	C34	0.745500	0.035600	0.510600
C351	C35	0.682100	0.018100	0.439600
C361	C36	0.788200	0.161000	0.637400
C371	C37	0.827500	0.826600	0.869000
C381	C38	0.916400	0.916100	0.936800
C391	C39	0.999500	0.872200	0.994200
C401	C40	0.919200	0.045500	0.945400
C411	C41	0.967000	0.765300	0.657400
C421	C42	0.914700	0.697400	0.582000
C431	C43	0.956500	0.751000	0.531000
C441	C44	0.894200	0.694200	0.458800
C451	C45	0.789100	0.581900	0.438600
C461	C46	0.754500	0.525000	0.489400
C471	C47	0.817900	0.578500	0.560400
C481	C48	0.711800	0.523600	0.362600
O11	O1	0.214000	0.958900	0.825200
O21	O2	0.354600	0.143600	0.855400
O31	O3	0.422200	0.988700	0.704000
O41	O4	0.557200	0.803300	0.672400
O51	O5	0.056100	0.893000	0.349600
O61	O6	0.298100	0.771400	0.316000
O71	O7	0.836700	0.044800	0.771200
O81	O8	0.325600	0.231800	0.715600
O91	O9	0.035500	0.271700	0.800000
O101	O10	0.286000	0.133700	0.174800
O111	O11	0.145400	0.288200	0.144600
O121	O12	0.077800	0.284700	0.296000
O131	O13	0.942800	0.130900	0.327600
O141	O14	0.443900	0.543400	0.650400
O151	O15	0.201900	0.455400	0.684000
O161	O16	0.663300	0.273600	0.228800
O171	O17	0.174400	0.516200	0.284400
O181	O18	0.464500	0.471700	0.200000
O191	O19	0.786000	0.041100	0.174800
O201	O20	0.645400	0.856400	0.144600
O211	O21	0.577800	0.011300	0.296000
O221	O22	0.442800	0.196700	0.327600
O231	O23	0.943900	0.107000	0.650400
O241	O24	0.701900	0.228600	0.684000
O251	O25	0.163300	0.955200	0.228800
O261	O26	0.674400	0.768200	0.284400
O271	O27	0.964500	0.728300	0.200000
O281	O28	0.714000	0.866300	0.825200
O291	O29	0.854600	0.711800	0.855400
O301	O30	0.922200	0.715300	0.704000
O311	O31	0.057200	0.869100	0.672400
O321	O32	0.556100	0.456600	0.349600
O331	O33	0.798100	0.544600	0.316000
O341	O34	0.336700	0.726400	0.771200
O351	O35	0.825600	0.483800	0.715600
O361	O36	0.535500	0.528300	0.800000
