data_NETRIN_freeONLY_PM
_symmetry_space_group_name_H-M	'P1'
_cell_length_a	14.226000
_cell_length_b	15.117000
_cell_length_c	17.557000
_cell_angle_alpha	90.000000
_cell_angle_beta	90.000000
_cell_angle_gamma	90.000000
_symmetry_Int_Tables_number 1

loop_
_symmetry_equiv_pos_as_xyz
'x,y,z'

loop_
_atom_site_label
_atom_site_type_symbol
_atom_site_fract_x
_atom_site_fract_y
_atom_site_fract_z
Zn11	Zn1	0.053200	0.724200	0.341000
Al11	Al1	0.944700	0.402200	0.437700
Al21	Al2	0.076600	0.104500	0.430600
Al31	Al3	0.711100	0.659700	0.462200
P11	P1	0.050100	0.904800	0.426200
P21	P2	0.915000	0.600200	0.425000
P31	P3	0.060800	0.729300	0.158800
P41	P4	0.214800	0.660800	0.450600
O11	O1	0.043200	0.000100	0.397500
O21	O2	0.944700	0.508400	0.399400
O31	O3	0.052300	0.839400	0.357000
O41	O4	0.055800	0.828500	0.137100
O51	O5	0.950600	0.670300	0.370300
O61	O6	0.972100	0.683100	0.129100
O71	O7	0.303000	0.606300	0.427000
O81	O8	0.806300	0.605300	0.435100
O91	O9	0.957300	0.616800	0.504900
O101	O10	0.964100	0.882600	0.475300
O111	O11	0.161700	0.605800	0.510200
O121	O12	0.072200	0.715800	0.242600
O131	O13	0.151400	0.671500	0.381700
O141	O14	0.247300	0.746300	0.486400
O151	O15	0.139700	0.899800	0.477000
O161	O16	0.149600	0.693600	0.118100
Zn21	Zn2	0.446800	0.275800	0.841000
Al41	Al4	0.555300	0.597800	0.937700
Al51	Al5	0.423400	0.895500	0.930600
Al61	Al6	0.788900	0.340300	0.962200
P51	P5	0.449900	0.095200	0.926200
P61	P6	0.585000	0.399800	0.925000
P71	P7	0.439200	0.270700	0.658800
P81	P8	0.285200	0.339200	0.950600
O171	O17	0.456800	0.999900	0.897500
O181	O18	0.555300	0.491600	0.899400
O191	O19	0.447700	0.160600	0.857000
O201	O20	0.444200	0.171500	0.637100
O211	O21	0.549400	0.329700	0.870300
O221	O22	0.527900	0.316900	0.629100
O231	O23	0.197000	0.393700	0.927000
O241	O24	0.693700	0.394700	0.935100
O251	O25	0.542700	0.383200	0.004900
O261	O26	0.535900	0.117400	0.975300
O271	O27	0.338300	0.394200	0.010200
O281	O28	0.427800	0.284200	0.742600
O291	O29	0.348600	0.328500	0.881700
O301	O30	0.252700	0.253700	0.986400
O311	O31	0.360300	0.100200	0.977000
O321	O32	0.350400	0.306400	0.618100
Zn31	Zn3	0.946800	0.224200	0.159000
Al71	Al7	0.055300	0.902200	0.062300
Al81	Al8	0.923400	0.604500	0.069400
Al91	Al9	0.288900	0.159700	0.037800
P91	P9	0.949900	0.404800	0.073800
P101	P10	0.085000	0.100200	0.075000
P111	P11	0.939200	0.229300	0.341200
P121	P12	0.785200	0.160800	0.049400
O331	O33	0.956800	0.500100	0.102500
O341	O34	0.055300	0.008400	0.100600
O351	O35	0.947700	0.339400	0.143000
O361	O36	0.944200	0.328500	0.362900
O371	O37	0.049400	0.170300	0.129700
O381	O38	0.027900	0.183100	0.370900
O391	O39	0.697000	0.106300	0.073000
O401	O40	0.193700	0.105300	0.064900
O411	O41	0.042700	0.116800	0.995100
O421	O42	0.035900	0.382600	0.024700
O431	O43	0.838300	0.105800	0.989800
O441	O44	0.927800	0.215800	0.257400
O451	O45	0.848600	0.171500	0.118300
O461	O46	0.752700	0.246300	0.013600
O471	O47	0.860300	0.399800	0.023000
O481	O48	0.850400	0.193600	0.381900
Zn41	Zn4	0.553200	0.775800	0.659000
Al101	Al10	0.444700	0.097800	0.562300
Al111	Al11	0.576600	0.395500	0.569400
Al121	Al12	0.211100	0.840300	0.537800
P131	P13	0.550100	0.595200	0.573800
P141	P14	0.415000	0.899800	0.575000
P151	P15	0.560800	0.770700	0.841200
P161	P16	0.714800	0.839200	0.549400
O491	O49	0.543200	0.499900	0.602500
O501	O50	0.444700	0.991600	0.600600
O511	O51	0.552300	0.660600	0.643000
O521	O52	0.555800	0.671500	0.862900
O531	O53	0.450600	0.829700	0.629700
O541	O54	0.472100	0.816900	0.870900
O551	O55	0.803000	0.893700	0.573000
O561	O56	0.306300	0.894700	0.564900
O571	O57	0.457300	0.883200	0.495100
O581	O58	0.464100	0.617400	0.524700
O591	O59	0.661700	0.894200	0.489800
O601	O60	0.572200	0.784200	0.757400
O611	O61	0.651400	0.828500	0.618300
O621	O62	0.747300	0.753700	0.513600
O631	O63	0.639700	0.600200	0.523000
O641	O64	0.649600	0.806400	0.881900
Zn51	Zn5	0.946800	0.275800	0.659000
Al131	Al13	0.055300	0.597800	0.562300
Al141	Al14	0.923400	0.895500	0.569400
Al151	Al15	0.288900	0.340300	0.537800
P171	P17	0.949900	0.095200	0.573800
P181	P18	0.085000	0.399800	0.575000
P191	P19	0.939200	0.270700	0.841200
P201	P20	0.785200	0.339200	0.549400
O651	O65	0.956800	0.999900	0.602500
O661	O66	0.055300	0.491600	0.600600
O671	O67	0.947700	0.160600	0.643000
O681	O68	0.944200	0.171500	0.862900
O691	O69	0.049400	0.329700	0.629700
O701	O70	0.027900	0.316900	0.870900
O711	O71	0.697000	0.393700	0.573000
O721	O72	0.193700	0.394700	0.564900
O731	O73	0.042700	0.383200	0.495100
O741	O74	0.035900	0.117400	0.524700
O751	O75	0.838300	0.394200	0.489800
O761	O76	0.927800	0.284200	0.757400
O771	O77	0.848600	0.328500	0.618300
O781	O78	0.752700	0.253700	0.513600
O791	O79	0.860300	0.100200	0.523000
O801	O80	0.850400	0.306400	0.881900
Zn61	Zn6	0.553200	0.724200	0.159000
Al161	Al16	0.444700	0.402200	0.062300
Al171	Al17	0.576600	0.104500	0.069400
Al181	Al18	0.211100	0.659700	0.037800
P211	P21	0.550100	0.904800	0.073800
P221	P22	0.415000	0.600200	0.075000
P231	P23	0.560800	0.729300	0.341200
P241	P24	0.714800	0.660800	0.049400
O811	O81	0.543200	0.000100	0.102500
O821	O82	0.444700	0.508400	0.100600
O831	O83	0.552300	0.839400	0.143000
O841	O84	0.555800	0.828500	0.362900
O851	O85	0.450600	0.670300	0.129700
O861	O86	0.472100	0.683100	0.370900
O871	O87	0.803000	0.606300	0.073000
O881	O88	0.306300	0.605300	0.064900
O891	O89	0.457300	0.616800	0.995100
O901	O90	0.464100	0.882600	0.024700
O911	O91	0.661700	0.605800	0.989800
O921	O92	0.572200	0.715800	0.257400
O931	O93	0.651400	0.671500	0.118300
O941	O94	0.747300	0.746300	0.013600
O951	O95	0.639700	0.899800	0.023000
O961	O96	0.649600	0.693600	0.381900
Zn71	Zn7	0.053200	0.775800	0.841000
Al191	Al19	0.944700	0.097800	0.937700
Al201	Al20	0.076600	0.395500	0.930600
Al211	Al21	0.711100	0.840300	0.962200
P251	P25	0.050100	0.595200	0.926200
P261	P26	0.915000	0.899800	0.925000
P271	P27	0.060800	0.770700	0.658800
P281	P28	0.214800	0.839200	0.950600
O971	O97	0.043200	0.499900	0.897500
O981	O98	0.944700	0.991600	0.899400
O991	O99	0.052300	0.660600	0.857000
O1001	O100	0.055800	0.671500	0.637100
O1011	O101	0.950600	0.829700	0.870300
O1021	O102	0.972100	0.816900	0.629100
O1031	O103	0.303000	0.893700	0.927000
O1041	O104	0.806300	0.894700	0.935100
O1051	O105	0.957300	0.883200	0.004900
O1061	O106	0.964100	0.617400	0.975300
O1071	O107	0.161700	0.894200	0.010200
O1081	O108	0.072200	0.784200	0.742600
O1091	O109	0.151400	0.828500	0.881700
O1101	O110	0.247300	0.753700	0.986400
O1111	O111	0.139700	0.600200	0.977000
O1121	O112	0.149600	0.806400	0.618100
Zn81	Zn8	0.446800	0.224200	0.341000
Al221	Al22	0.555300	0.902200	0.437700
Al231	Al23	0.423400	0.604500	0.430600
Al241	Al24	0.788900	0.159700	0.462200
P291	P29	0.449900	0.404800	0.426200
P301	P30	0.585000	0.100200	0.425000
P311	P31	0.439200	0.229300	0.158800
P321	P32	0.285200	0.160800	0.450600
O1131	O113	0.456800	0.500100	0.397500
O1141	O114	0.555300	0.008400	0.399400
O1151	O115	0.447700	0.339400	0.357000
O1161	O116	0.444200	0.328500	0.137100
O1171	O117	0.549400	0.170300	0.370300
O1181	O118	0.527900	0.183100	0.129100
O1191	O119	0.197000	0.106300	0.427000
O1201	O120	0.693700	0.105300	0.435100
O1211	O121	0.542700	0.116800	0.504900
O1221	O122	0.535900	0.382600	0.475300
O1231	O123	0.338300	0.105800	0.510200
O1241	O124	0.427800	0.215800	0.242600
O1251	O125	0.348600	0.171500	0.381700
O1261	O126	0.252700	0.246300	0.486400
O1271	O127	0.360300	0.399800	0.477000
O1281	O128	0.350400	0.193600	0.118100
