data_NETYIV_freeONLY_PM
_symmetry_space_group_name_H-M	'P1'
_cell_length_a	19.748000
_cell_length_b	17.494000
_cell_length_c	22.160000
_cell_angle_alpha	90.000000
_cell_angle_beta	109.830000
_cell_angle_gamma	90.000000
_symmetry_Int_Tables_number 1

loop_
_symmetry_equiv_pos_as_xyz
'x,y,z'

loop_
_atom_site_label
_atom_site_type_symbol
_atom_site_fract_x
_atom_site_fract_y
_atom_site_fract_z
Cu11	Cu1	0.132660	0.820630	0.334040
N11	N1	0.155070	0.720430	0.301490
N21	N2	0.022520	0.993720	0.676530
C11	C1	0.206330	0.592230	0.254200
C21	C2	0.174200	0.652940	0.214470
H11	H1	0.169800	0.652300	0.171400
N31	N3	0.307800	0.407740	0.189780
C31	C3	0.268780	0.395000	0.228010
H21	H2	0.264500	0.344900	0.240300
N41	N4	0.114130	0.850600	0.413900
C41	C4	0.059160	0.938540	0.572650
C51	C5	0.277200	0.540700	0.189940
C61	C6	0.148700	0.714090	0.239520
H31	H3	0.125800	0.753300	0.211800
C71	C7	0.234550	0.451980	0.250260
C81	C8	0.238760	0.527060	0.230870
C91	C9	0.074400	0.026400	0.658780
H41	H4	0.098200	0.068900	0.681500
C101	C10	0.184700	0.660400	0.339240
H51	H5	0.188500	0.662300	0.382200
C111	C11	0.078410	0.907920	0.517670
C121	C12	0.094150	0.000000	0.608510
H61	H6	0.131300	0.023700	0.598800
C131	C13	0.209500	0.596500	0.317350
H71	H7	0.228600	0.556000	0.345100
C141	C14	0.050500	0.836000	0.420500
H81	H8	0.017700	0.805900	0.389600
C151	C15	0.989500	0.934200	0.642300
H91	H9	0.953900	0.910000	0.654000
C161	C16	0.030820	0.863200	0.470900
H101	H10	0.985800	0.851400	0.473200
C171	C17	0.160730	0.893700	0.460140
H111	H11	0.205800	0.903800	0.457400
C181	C18	0.004600	0.905700	0.590250
H121	H12	0.978400	0.864700	0.567100
C191	C19	0.144330	0.923200	0.511160
H131	H13	0.177700	0.953600	0.541300
C201	C20	0.311000	0.480200	0.171390
H141	H14	0.337400	0.490500	0.144700
Cu21	Cu2	0.632660	0.320630	0.334040
N51	N5	0.655070	0.220430	0.301490
N61	N6	0.522520	0.493720	0.676530
C211	C21	0.706330	0.092230	0.254200
C221	C22	0.674200	0.152940	0.214470
H151	H15	0.669800	0.152300	0.171400
N71	N7	0.807800	0.907740	0.189780
C231	C23	0.768780	0.895000	0.228010
H161	H16	0.764500	0.844900	0.240300
N81	N8	0.614130	0.350600	0.413900
C241	C24	0.559160	0.438540	0.572650
C251	C25	0.777200	0.040700	0.189940
C261	C26	0.648700	0.214090	0.239520
H171	H17	0.625800	0.253300	0.211800
C271	C27	0.734550	0.951980	0.250260
C281	C28	0.738760	0.027060	0.230870
C291	C29	0.574400	0.526400	0.658780
H181	H18	0.598200	0.568900	0.681500
C301	C30	0.684700	0.160400	0.339240
H191	H19	0.688500	0.162300	0.382200
C311	C31	0.578410	0.407920	0.517670
C321	C32	0.594150	0.500000	0.608510
H201	H20	0.631300	0.523700	0.598800
C331	C33	0.709500	0.096500	0.317350
H211	H21	0.728600	0.056000	0.345100
C341	C34	0.550500	0.336000	0.420500
H221	H22	0.517700	0.305900	0.389600
C351	C35	0.489500	0.434200	0.642300
H231	H23	0.453900	0.410000	0.654000
C361	C36	0.530820	0.363200	0.470900
H241	H24	0.485800	0.351400	0.473200
C371	C37	0.660730	0.393700	0.460140
H251	H25	0.705800	0.403800	0.457400
C381	C38	0.504600	0.405700	0.590250
H261	H26	0.478400	0.364700	0.567100
C391	C39	0.644330	0.423200	0.511160
H271	H27	0.677700	0.453600	0.541300
C401	C40	0.811000	0.980200	0.171390
H281	H28	0.837400	0.990500	0.144700
Cu31	Cu3	0.867340	0.820630	0.165960
N91	N9	0.844930	0.720430	0.198510
N101	N10	0.977480	0.993720	0.823470
C411	C41	0.793670	0.592230	0.245800
C421	C42	0.825800	0.652940	0.285530
H291	H29	0.830200	0.652300	0.328600
N111	N11	0.692200	0.407740	0.310220
C431	C43	0.731220	0.395000	0.271990
H301	H30	0.735500	0.344900	0.259700
N121	N12	0.885870	0.850600	0.086100
C441	C44	0.940840	0.938540	0.927350
C451	C45	0.722800	0.540700	0.310060
C461	C46	0.851300	0.714090	0.260480
H311	H31	0.874200	0.753300	0.288200
C471	C47	0.765450	0.451980	0.249740
C481	C48	0.761240	0.527060	0.269130
C491	C49	0.925600	0.026400	0.841220
H321	H32	0.901800	0.068900	0.818500
C501	C50	0.815300	0.660400	0.160760
H331	H33	0.811500	0.662300	0.117800
C511	C51	0.921590	0.907920	0.982330
C521	C52	0.905850	0.000000	0.891490
H341	H34	0.868700	0.023700	0.901200
C531	C53	0.790500	0.596500	0.182650
H351	H35	0.771400	0.556000	0.154900
C541	C54	0.949500	0.836000	0.079500
H361	H36	0.982300	0.805900	0.110400
C551	C55	0.010500	0.934200	0.857700
H371	H37	0.046100	0.910000	0.846000
C561	C56	0.969180	0.863200	0.029100
H381	H38	0.014200	0.851400	0.026800
C571	C57	0.839270	0.893700	0.039860
H391	H39	0.794200	0.903800	0.042600
C581	C58	0.995400	0.905700	0.909750
H401	H40	0.021600	0.864700	0.932900
C591	C59	0.855670	0.923200	0.988840
H411	H41	0.822300	0.953600	0.958700
C601	C60	0.689000	0.480200	0.328610
H421	H42	0.662600	0.490500	0.355300
Cu41	Cu4	0.367340	0.320630	0.165960
N131	N13	0.344930	0.220430	0.198510
N141	N14	0.477480	0.493720	0.823470
C611	C61	0.293670	0.092230	0.245800
C621	C62	0.325800	0.152940	0.285530
H431	H43	0.330200	0.152300	0.328600
N151	N15	0.192200	0.907740	0.310220
C631	C63	0.231220	0.895000	0.271990
H441	H44	0.235500	0.844900	0.259700
N161	N16	0.385870	0.350600	0.086100
C641	C64	0.440840	0.438540	0.927350
C651	C65	0.222800	0.040700	0.310060
C661	C66	0.351300	0.214090	0.260480
H451	H45	0.374200	0.253300	0.288200
C671	C67	0.265450	0.951980	0.249740
C681	C68	0.261240	0.027060	0.269130
C691	C69	0.425600	0.526400	0.841220
H461	H46	0.401800	0.568900	0.818500
C701	C70	0.315300	0.160400	0.160760
H471	H47	0.311500	0.162300	0.117800
C711	C71	0.421590	0.407920	0.982330
C721	C72	0.405850	0.500000	0.891490
H481	H48	0.368700	0.523700	0.901200
C731	C73	0.290500	0.096500	0.182650
H491	H49	0.271400	0.056000	0.154900
C741	C74	0.449500	0.336000	0.079500
H501	H50	0.482300	0.305900	0.110400
C751	C75	0.510500	0.434200	0.857700
H511	H51	0.546100	0.410000	0.846000
C761	C76	0.469180	0.363200	0.029100
H521	H52	0.514200	0.351400	0.026800
C771	C77	0.339270	0.393700	0.039860
H531	H53	0.294200	0.403800	0.042600
C781	C78	0.495400	0.405700	0.909750
H541	H54	0.521600	0.364700	0.932900
C791	C79	0.355670	0.423200	0.988840
H551	H55	0.322300	0.453600	0.958700
C801	C80	0.189000	0.980200	0.328610
H561	H56	0.162600	0.990500	0.355300
Cu51	Cu5	0.867340	0.179370	0.665960
N171	N17	0.844930	0.279570	0.698510
N181	N18	0.977480	0.006280	0.323470
C811	C81	0.793670	0.407770	0.745800
C821	C82	0.825800	0.347060	0.785530
H571	H57	0.830200	0.347700	0.828600
N191	N19	0.692200	0.592260	0.810220
C831	C83	0.731220	0.605000	0.771990
H581	H58	0.735500	0.655100	0.759700
N201	N20	0.885870	0.149400	0.586100
C841	C84	0.940840	0.061460	0.427350
C851	C85	0.722800	0.459300	0.810060
C861	C86	0.851300	0.285910	0.760480
H591	H59	0.874200	0.246700	0.788200
C871	C87	0.765450	0.548020	0.749740
C881	C88	0.761240	0.472940	0.769130
C891	C89	0.925600	0.973600	0.341220
H601	H60	0.901800	0.931100	0.318500
C901	C90	0.815300	0.339600	0.660760
H611	H61	0.811500	0.337700	0.617800
C911	C91	0.921590	0.092080	0.482330
C921	C92	0.905850	0.000000	0.391490
H621	H62	0.868700	0.976300	0.401200
C931	C93	0.790500	0.403500	0.682650
H631	H63	0.771400	0.444000	0.654900
C941	C94	0.949500	0.164000	0.579500
H641	H64	0.982300	0.194100	0.610400
C951	C95	0.010500	0.065800	0.357700
H651	H65	0.046100	0.090000	0.346000
C961	C96	0.969180	0.136800	0.529100
H661	H66	0.014200	0.148600	0.526800
C971	C97	0.839270	0.106300	0.539860
H671	H67	0.794200	0.096200	0.542600
C981	C98	0.995400	0.094300	0.409750
H681	H68	0.021600	0.135300	0.432900
C991	C99	0.855670	0.076800	0.488840
H691	H69	0.822300	0.046400	0.458700
C1001	C100	0.689000	0.519800	0.828610
H701	H70	0.662600	0.509500	0.855300
Cu61	Cu6	0.367340	0.679370	0.665960
N211	N21	0.344930	0.779570	0.698510
N221	N22	0.477480	0.506280	0.323470
C1011	C101	0.293670	0.907770	0.745800
C1021	C102	0.325800	0.847060	0.785530
H711	H71	0.330200	0.847700	0.828600
N231	N23	0.192200	0.092260	0.810220
C1031	C103	0.231220	0.105000	0.771990
H721	H72	0.235500	0.155100	0.759700
N241	N24	0.385870	0.649400	0.586100
C1041	C104	0.440840	0.561460	0.427350
C1051	C105	0.222800	0.959300	0.810060
C1061	C106	0.351300	0.785910	0.760480
H731	H73	0.374200	0.746700	0.788200
C1071	C107	0.265450	0.048020	0.749740
C1081	C108	0.261240	0.972940	0.769130
C1091	C109	0.425600	0.473600	0.341220
H741	H74	0.401800	0.431100	0.318500
C1101	C110	0.315300	0.839600	0.660760
H751	H75	0.311500	0.837700	0.617800
C1111	C111	0.421590	0.592080	0.482330
C1121	C112	0.405850	0.500000	0.391490
H761	H76	0.368700	0.476300	0.401200
C1131	C113	0.290500	0.903500	0.682650
H771	H77	0.271400	0.944000	0.654900
C1141	C114	0.449500	0.664000	0.579500
H781	H78	0.482300	0.694100	0.610400
C1151	C115	0.510500	0.565800	0.357700
H791	H79	0.546100	0.590000	0.346000
C1161	C116	0.469180	0.636800	0.529100
H801	H80	0.514200	0.648600	0.526800
C1171	C117	0.339270	0.606300	0.539860
H811	H81	0.294200	0.596200	0.542600
C1181	C118	0.495400	0.594300	0.409750
H821	H82	0.521600	0.635300	0.432900
C1191	C119	0.355670	0.576800	0.488840
H831	H83	0.322300	0.546400	0.458700
C1201	C120	0.189000	0.019800	0.828610
H841	H84	0.162600	0.009500	0.855300
Cu71	Cu7	0.132660	0.179370	0.834040
N251	N25	0.155070	0.279570	0.801490
N261	N26	0.022520	0.006280	0.176530
C1211	C121	0.206330	0.407770	0.754200
C1221	C122	0.174200	0.347060	0.714470
H851	H85	0.169800	0.347700	0.671400
N271	N27	0.307800	0.592260	0.689780
C1231	C123	0.268780	0.605000	0.728010
H861	H86	0.264500	0.655100	0.740300
N281	N28	0.114130	0.149400	0.913900
C1241	C124	0.059160	0.061460	0.072650
C1251	C125	0.277200	0.459300	0.689940
C1261	C126	0.148700	0.285910	0.739520
H871	H87	0.125800	0.246700	0.711800
C1271	C127	0.234550	0.548020	0.750260
C1281	C128	0.238760	0.472940	0.730870
C1291	C129	0.074400	0.973600	0.158780
H881	H88	0.098200	0.931100	0.181500
C1301	C130	0.184700	0.339600	0.839240
H891	H89	0.188500	0.337700	0.882200
C1311	C131	0.078410	0.092080	0.017670
C1321	C132	0.094150	0.000000	0.108510
H901	H90	0.131300	0.976300	0.098800
C1331	C133	0.209500	0.403500	0.817350
H911	H91	0.228600	0.444000	0.845100
C1341	C134	0.050500	0.164000	0.920500
H921	H92	0.017700	0.194100	0.889600
C1351	C135	0.989500	0.065800	0.142300
H931	H93	0.953900	0.090000	0.154000
C1361	C136	0.030820	0.136800	0.970900
H941	H94	0.985800	0.148600	0.973200
C1371	C137	0.160730	0.106300	0.960140
H951	H95	0.205800	0.096200	0.957400
C1381	C138	0.004600	0.094300	0.090250
H961	H96	0.978400	0.135300	0.067100
C1391	C139	0.144330	0.076800	0.011160
H971	H97	0.177700	0.046400	0.041300
C1401	C140	0.311000	0.519800	0.671390
H981	H98	0.337400	0.509500	0.644700
Cu81	Cu8	0.632660	0.679370	0.834040
N291	N29	0.655070	0.779570	0.801490
N301	N30	0.522520	0.506280	0.176530
C1411	C141	0.706330	0.907770	0.754200
C1421	C142	0.674200	0.847060	0.714470
H991	H99	0.669800	0.847700	0.671400
N311	N31	0.807800	0.092260	0.689780
C1431	C143	0.768780	0.105000	0.728010
H1001	H100	0.764500	0.155100	0.740300
N321	N32	0.614130	0.649400	0.913900
C1441	C144	0.559160	0.561460	0.072650
C1451	C145	0.777200	0.959300	0.689940
C1461	C146	0.648700	0.785910	0.739520
H1011	H101	0.625800	0.746700	0.711800
C1471	C147	0.734550	0.048020	0.750260
C1481	C148	0.738760	0.972940	0.730870
C1491	C149	0.574400	0.473600	0.158780
H1021	H102	0.598200	0.431100	0.181500
C1501	C150	0.684700	0.839600	0.839240
H1031	H103	0.688500	0.837700	0.882200
C1511	C151	0.578410	0.592080	0.017670
C1521	C152	0.594150	0.500000	0.108510
H1041	H104	0.631300	0.476300	0.098800
C1531	C153	0.709500	0.903500	0.817350
H1051	H105	0.728600	0.944000	0.845100
C1541	C154	0.550500	0.664000	0.920500
H1061	H106	0.517700	0.694100	0.889600
C1551	C155	0.489500	0.565800	0.142300
H1071	H107	0.453900	0.590000	0.154000
C1561	C156	0.530820	0.636800	0.970900
H1081	H108	0.485800	0.648600	0.973200
C1571	C157	0.660730	0.606300	0.960140
H1091	H109	0.705800	0.596200	0.957400
C1581	C158	0.504600	0.594300	0.090250
H1101	H110	0.478400	0.635300	0.067100
C1591	C159	0.644330	0.576800	0.011160
H1111	H111	0.677700	0.546400	0.041300
C1601	C160	0.811000	0.019800	0.671390
H1121	H112	0.837400	0.009500	0.644700
Cu91	Cu9	0.000000	0.032690	0.750000
Cl11	Cl1	0.000000	0.165890	0.750000
Cu101	Cu10	0.500000	0.532690	0.750000
Cl21	Cl2	0.500000	0.665890	0.750000
Cu111	Cu11	0.000000	0.967310	0.250000
Cl31	Cl3	0.000000	0.834110	0.250000
Cu121	Cu12	0.500000	0.467310	0.250000
Cl41	Cl4	0.500000	0.334110	0.250000
