data_NEVJEF_freeONLY_PM
_symmetry_space_group_name_H-M	'P1'
_cell_length_a	14.208300
_cell_length_b	18.086100
_cell_length_c	19.298000
_cell_angle_alpha	97.836000
_cell_angle_beta	90.000000
_cell_angle_gamma	90.000000
_symmetry_Int_Tables_number 1

loop_
_symmetry_equiv_pos_as_xyz
'x,y,z'

loop_
_atom_site_label
_atom_site_type_symbol
_atom_site_fract_x
_atom_site_fract_y
_atom_site_fract_z
Cd11	Cd1	0.204980	0.836600	0.562840
Cd21	Cd2	0.201870	0.670880	0.375540
Cd31	Cd3	0.133520	0.488070	0.977960
Cd41	Cd4	0.270140	0.599740	0.164450
Cd51	Cd5	0.204980	0.163400	0.937160
Cd61	Cd6	0.201870	0.329120	0.124460
Cd71	Cd7	0.133520	0.511930	0.522040
Cd81	Cd8	0.270140	0.400260	0.335550
Cd91	Cd9	0.795020	0.163400	0.437160
Cd101	Cd10	0.798130	0.329120	0.624460
Cd111	Cd11	0.866480	0.511930	0.022040
Cd121	Cd12	0.729860	0.400260	0.835550
Cd131	Cd13	0.795020	0.836600	0.062840
Cd141	Cd14	0.798130	0.670880	0.875540
Cd151	Cd15	0.866480	0.488070	0.477960
Cd161	Cd16	0.729860	0.599740	0.664450
H11	H1	0.033300	0.926400	0.393100
H21	H2	0.963900	0.943500	0.287200
H31	H3	0.958700	0.719000	0.232000
H41	H4	0.912600	0.638400	0.393500
H51	H5	0.961400	0.707600	0.440500
H61	H6	0.958900	0.621300	0.265200
H71	H7	0.014800	0.567100	0.309700
H81	H8	0.346000	0.686600	0.928400
H91	H9	0.479100	0.761600	0.941100
H101	H10	0.562900	0.659400	0.103400
H111	H11	0.472300	0.457700	0.074200
H121	H12	0.397600	0.486900	0.022300
H131	H13	0.556100	0.567500	0.150300
H141	H14	0.484700	0.516300	0.186700
H151	H15	0.113200	0.701400	0.096000
H161	H16	0.093200	0.813700	0.053400
H171	H17	0.361000	0.866300	0.111900
H181	H18	0.369500	0.755700	0.158500
H191	H19	0.116700	0.893900	0.975800
H201	H20	0.118900	0.002600	0.925300
H211	H21	0.310100	0.087800	0.054800
H221	H22	0.312100	0.983800	0.110200
H231	H23	0.033300	0.073600	0.106900
H241	H24	0.963900	0.056500	0.212800
H251	H25	0.958700	0.281000	0.268000
H261	H26	0.912600	0.361600	0.106500
H271	H27	0.961400	0.292400	0.059500
H281	H28	0.958900	0.378700	0.234800
H291	H29	0.014800	0.432900	0.190300
H301	H30	0.346000	0.313400	0.571600
H311	H31	0.479100	0.238400	0.558900
H321	H32	0.562900	0.340600	0.396600
H331	H33	0.472300	0.542300	0.425800
H341	H34	0.397600	0.513100	0.477700
H351	H35	0.556100	0.432500	0.349700
H361	H36	0.484700	0.483700	0.313300
H371	H37	0.113200	0.298600	0.404000
H381	H38	0.093200	0.186300	0.446600
H391	H39	0.361000	0.133700	0.388100
H401	H40	0.369500	0.244300	0.341500
H411	H41	0.116700	0.106100	0.524200
H421	H42	0.118900	0.997400	0.574700
H431	H43	0.310100	0.912200	0.445200
H441	H44	0.312100	0.016200	0.389800
H451	H45	0.966700	0.073600	0.606900
H461	H46	0.036100	0.056500	0.712800
H471	H47	0.041300	0.281000	0.768000
H481	H48	0.087400	0.361600	0.606500
H491	H49	0.038600	0.292400	0.559500
H501	H50	0.041100	0.378700	0.734800
H511	H51	0.985200	0.432900	0.690300
H521	H52	0.654000	0.313400	0.071600
H531	H53	0.520900	0.238400	0.058900
H541	H54	0.437100	0.340600	0.896600
H551	H55	0.527700	0.542300	0.925800
H561	H56	0.602400	0.513100	0.977700
H571	H57	0.443900	0.432500	0.849700
H581	H58	0.515300	0.483700	0.813300
H591	H59	0.886800	0.298600	0.904000
H601	H60	0.906800	0.186300	0.946600
H611	H61	0.639000	0.133700	0.888100
H621	H62	0.630500	0.244300	0.841500
H631	H63	0.883300	0.106100	0.024200
H641	H64	0.881100	0.997400	0.074700
H651	H65	0.689900	0.912200	0.945200
H661	H66	0.687900	0.016200	0.889800
H671	H67	0.966700	0.926400	0.893100
H681	H68	0.036100	0.943500	0.787200
H691	H69	0.041300	0.719000	0.732000
H701	H70	0.087400	0.638400	0.893500
H711	H71	0.038600	0.707600	0.940500
H721	H72	0.041100	0.621300	0.765200
H731	H73	0.985200	0.567100	0.809700
H741	H74	0.654000	0.686600	0.428400
H751	H75	0.520900	0.761600	0.441100
H761	H76	0.437100	0.659400	0.603400
H771	H77	0.527700	0.457700	0.574200
H781	H78	0.602400	0.486900	0.522300
H791	H79	0.443900	0.567500	0.650300
H801	H80	0.515300	0.516300	0.686700
H811	H81	0.886800	0.701400	0.596000
H821	H82	0.906800	0.813700	0.553400
H831	H83	0.639000	0.866300	0.611900
H841	H84	0.630500	0.755700	0.658500
H851	H85	0.883300	0.893900	0.475800
H861	H86	0.881100	0.002600	0.425300
H871	H87	0.689900	0.087800	0.554800
H881	H88	0.687900	0.983800	0.610200
C11	C1	0.080900	0.809500	0.447200
C21	C2	0.035000	0.813300	0.377300
C31	C3	0.017200	0.884100	0.360500
C41	C4	0.976900	0.894700	0.297600
C51	C5	0.955800	0.832300	0.249800
C61	C6	0.905500	0.841800	0.181500
C71	C7	0.973300	0.761000	0.265500
C81	C8	0.011500	0.750100	0.329000
C91	C9	0.973900	0.660400	0.409500
C101	C10	0.025300	0.606900	0.450700
C111	C11	0.018600	0.614800	0.290200
C121	C12	0.098900	0.611000	0.238800
C131	C13	0.282600	0.585500	0.996100
C141	C14	0.373600	0.627600	0.008700
C151	C15	0.390100	0.680800	0.964300
C161	C16	0.469200	0.725200	0.971500
C171	C17	0.533600	0.716600	0.022500
C181	C18	0.623100	0.762100	0.028000
C191	C19	0.518500	0.664000	0.067400
C201	C20	0.439800	0.617600	0.060900
C211	C21	0.412600	0.485500	0.072200
C221	C22	0.335000	0.444100	0.104700
C231	C23	0.490600	0.563900	0.167100
C241	C24	0.472800	0.628100	0.225100
C251	C25	0.163500	0.736300	0.100500
C261	C26	0.151600	0.802400	0.073600
C271	C27	0.226700	0.852600	0.076400
C281	C28	0.308300	0.833700	0.108600
C291	C29	0.312900	0.767300	0.136100
C301	C30	0.160600	0.932000	0.991800
C311	C31	0.162100	0.997700	0.962000
C321	C32	0.271800	0.046600	0.036800
C331	C33	0.274300	0.984400	0.069600
C341	C34	0.222000	0.922300	0.043900
C351	C35	0.080900	0.190500	0.052800
C361	C36	0.035000	0.186700	0.122700
C371	C37	0.017200	0.115900	0.139500
C381	C38	0.976900	0.105300	0.202400
C391	C39	0.955800	0.167700	0.250200
C401	C40	0.905500	0.158200	0.318500
C411	C41	0.973300	0.239000	0.234500
C421	C42	0.011500	0.249900	0.171000
C431	C43	0.973900	0.339600	0.090500
C441	C44	0.025300	0.393100	0.049300
C451	C45	0.018600	0.385200	0.209800
C461	C46	0.098900	0.389000	0.261200
C471	C47	0.282600	0.414500	0.503900
C481	C48	0.373600	0.372400	0.491300
C491	C49	0.390100	0.319200	0.535700
C501	C50	0.469200	0.274800	0.528500
C511	C51	0.533600	0.283400	0.477500
C521	C52	0.623100	0.237900	0.472000
C531	C53	0.518500	0.336000	0.432600
C541	C54	0.439800	0.382400	0.439100
C551	C55	0.412600	0.514500	0.427800
C561	C56	0.335000	0.555900	0.395300
C571	C57	0.490600	0.436100	0.332900
C581	C58	0.472800	0.371900	0.274900
C591	C59	0.163500	0.263700	0.399500
C601	C60	0.151600	0.197600	0.426400
C611	C61	0.226700	0.147400	0.423600
C621	C62	0.308300	0.166300	0.391400
C631	C63	0.312900	0.232700	0.363900
C641	C64	0.160600	0.068000	0.508200
C651	C65	0.162100	0.002300	0.538000
C661	C66	0.271800	0.953400	0.463200
C671	C67	0.274300	0.015600	0.430400
C681	C68	0.222000	0.077700	0.456100
C691	C69	0.919100	0.190500	0.552800
C701	C70	0.965000	0.186700	0.622700
C711	C71	0.982800	0.115900	0.639500
C721	C72	0.023100	0.105300	0.702400
C731	C73	0.044200	0.167700	0.750200
C741	C74	0.094500	0.158200	0.818500
C751	C75	0.026700	0.239000	0.734500
C761	C76	0.988500	0.249900	0.671000
C771	C77	0.026100	0.339600	0.590500
C781	C78	0.974700	0.393100	0.549300
C791	C79	0.981400	0.385200	0.709800
C801	C80	0.901100	0.389000	0.761200
C811	C81	0.717400	0.414500	0.003900
C821	C82	0.626400	0.372400	0.991300
C831	C83	0.609900	0.319200	0.035700
C841	C84	0.530800	0.274800	0.028500
C851	C85	0.466400	0.283400	0.977500
C861	C86	0.376900	0.237900	0.972000
C871	C87	0.481500	0.336000	0.932600
C881	C88	0.560200	0.382400	0.939100
C891	C89	0.587400	0.514500	0.927800
C901	C90	0.665000	0.555900	0.895300
C911	C91	0.509400	0.436100	0.832900
C921	C92	0.527200	0.371900	0.774900
C931	C93	0.836500	0.263700	0.899500
C941	C94	0.848400	0.197600	0.926400
C951	C95	0.773300	0.147400	0.923600
C961	C96	0.691700	0.166300	0.891400
C971	C97	0.687100	0.232700	0.863900
C981	C98	0.839400	0.068000	0.008200
C991	C99	0.837900	0.002300	0.038000
C1001	C100	0.728200	0.953400	0.963200
C1011	C101	0.725700	0.015600	0.930400
C1021	C102	0.778000	0.077700	0.956100
C1031	C103	0.919100	0.809500	0.947200
C1041	C104	0.965000	0.813300	0.877300
C1051	C105	0.982800	0.884100	0.860500
C1061	C106	0.023100	0.894700	0.797600
C1071	C107	0.044200	0.832300	0.749800
C1081	C108	0.094500	0.841800	0.681500
C1091	C109	0.026700	0.761000	0.765500
C1101	C110	0.988500	0.750100	0.829000
C1111	C111	0.026100	0.660400	0.909500
C1121	C112	0.974700	0.606900	0.950700
C1131	C113	0.981400	0.614800	0.790200
C1141	C114	0.901100	0.611000	0.738800
C1151	C115	0.717400	0.585500	0.496100
C1161	C116	0.626400	0.627600	0.508700
C1171	C117	0.609900	0.680800	0.464300
C1181	C118	0.530800	0.725200	0.471500
C1191	C119	0.466400	0.716600	0.522500
C1201	C120	0.376900	0.762100	0.528000
C1211	C121	0.481500	0.664000	0.567400
C1221	C122	0.560200	0.617600	0.560900
C1231	C123	0.587400	0.485500	0.572200
C1241	C124	0.665000	0.444100	0.604700
C1251	C125	0.509400	0.563900	0.667100
C1261	C126	0.527200	0.628100	0.725100
C1271	C127	0.836500	0.736300	0.600500
C1281	C128	0.848400	0.802400	0.573600
C1291	C129	0.773300	0.852600	0.576400
C1301	C130	0.691700	0.833700	0.608600
C1311	C131	0.687100	0.767300	0.636100
C1321	C132	0.839400	0.932000	0.491800
C1331	C133	0.837900	0.997700	0.462000
C1341	C134	0.728200	0.046600	0.536800
C1351	C135	0.725700	0.984400	0.569600
C1361	C136	0.778000	0.922300	0.543900
N11	N1	0.029100	0.676600	0.348000
N21	N2	0.426000	0.562400	0.107100
N31	N3	0.242200	0.718500	0.132700
N41	N4	0.219100	0.053100	0.981200
N51	N5	0.029100	0.323400	0.152000
N61	N6	0.426000	0.437600	0.392900
N71	N7	0.242200	0.281500	0.367300
N81	N8	0.219100	0.946900	0.518800
N91	N9	0.970900	0.323400	0.652000
N101	N10	0.574000	0.437600	0.892900
N111	N11	0.757800	0.281500	0.867300
N121	N12	0.780900	0.946900	0.018800
N131	N13	0.970900	0.676600	0.848000
N141	N14	0.574000	0.562400	0.607100
N151	N15	0.757800	0.718500	0.632700
N161	N16	0.780900	0.053100	0.481200
O11	O1	0.151600	0.766700	0.451490
O21	O2	0.051500	0.851500	0.498460
O31	O3	0.892000	0.904600	0.166300
O41	O4	0.878200	0.784400	0.144100
O51	O5	0.109200	0.590200	0.436800
O61	O6	0.981300	0.582100	0.499230
O71	O7	0.178600	0.634800	0.260880
O81	O8	0.088600	0.581500	0.177460
O91	O9	0.247400	0.576500	0.936600
O101	O10	0.241500	0.559800	0.046690
O111	O11	0.634600	0.807700	0.986500
O121	O12	0.683000	0.749000	0.070600
O131	O13	0.292300	0.472300	0.157600
O141	O14	0.319300	0.379200	0.073900
O151	O15	0.389600	0.654300	0.232200
O161	O16	0.537600	0.649100	0.264300
O171	O17	0.313600	0.751300	0.339200
O181	O18	0.249900	0.407900	0.935100
O191	O19	0.078700	0.476300	0.867700
O201	O20	0.151600	0.233300	0.048510
O211	O21	0.051500	0.148500	0.001540
O221	O22	0.892000	0.095400	0.333700
O231	O23	0.878200	0.215600	0.355900
O241	O24	0.109200	0.409800	0.063200
O251	O25	0.981300	0.417900	0.000770
O261	O26	0.178600	0.365200	0.239120
O271	O27	0.088600	0.418500	0.322540
O281	O28	0.247400	0.423500	0.563400
O291	O29	0.241500	0.440200	0.453310
O301	O30	0.634600	0.192300	0.513500
O311	O31	0.683000	0.251000	0.429400
O321	O32	0.292300	0.527700	0.342400
O331	O33	0.319300	0.620800	0.426100
O341	O34	0.389600	0.345700	0.267800
O351	O35	0.537600	0.350900	0.235700
O361	O36	0.313600	0.248700	0.160800
O371	O37	0.249900	0.592100	0.564900
O381	O38	0.078700	0.523700	0.632300
O391	O39	0.848400	0.233300	0.548510
O401	O40	0.948500	0.148500	0.501540
O411	O41	0.108000	0.095400	0.833700
O421	O42	0.121800	0.215600	0.855900
O431	O43	0.890800	0.409800	0.563200
O441	O44	0.018700	0.417900	0.500770
O451	O45	0.821400	0.365200	0.739120
O461	O46	0.911400	0.418500	0.822540
O471	O47	0.752600	0.423500	0.063400
O481	O48	0.758500	0.440200	0.953310
O491	O49	0.365400	0.192300	0.013500
O501	O50	0.317000	0.251000	0.929400
O511	O51	0.707700	0.527700	0.842400
O521	O52	0.680700	0.620800	0.926100
O531	O53	0.610400	0.345700	0.767800
O541	O54	0.462400	0.350900	0.735700
O551	O55	0.686400	0.248700	0.660800
O561	O56	0.750100	0.592100	0.064900
O571	O57	0.921300	0.523700	0.132300
O581	O58	0.848400	0.766700	0.951490
O591	O59	0.948500	0.851500	0.998460
O601	O60	0.108000	0.904600	0.666300
O611	O61	0.121800	0.784400	0.644100
O621	O62	0.890800	0.590200	0.936800
O631	O63	0.018700	0.582100	0.999230
O641	O64	0.821400	0.634800	0.760880
O651	O65	0.911400	0.581500	0.677460
O661	O66	0.752600	0.576500	0.436600
O671	O67	0.758500	0.559800	0.546690
O681	O68	0.365400	0.807700	0.486500
O691	O69	0.317000	0.749000	0.570600
O701	O70	0.707700	0.472300	0.657600
O711	O71	0.680700	0.379200	0.573900
O721	O72	0.610400	0.654300	0.732200
O731	O73	0.462400	0.649100	0.764300
O741	O74	0.686400	0.751300	0.839200
O751	O75	0.750100	0.407900	0.435100
O761	O76	0.921300	0.476300	0.367700
