data_NEVVAM_freeONLY_PM
_symmetry_space_group_name_H-M	'P1'
_cell_length_a	10.773800
_cell_length_b	11.148200
_cell_length_c	11.148200
_cell_angle_alpha	99.986600
_cell_angle_beta	102.488000
_cell_angle_gamma	77.512500
_symmetry_Int_Tables_number 1

loop_
_symmetry_equiv_pos_as_xyz
'x,y,z'

loop_
_atom_site_label
_atom_site_type_symbol
_atom_site_fract_x
_atom_site_fract_y
_atom_site_fract_z
Co11	Co1	0.052410	0.933890	0.121070
Co21	Co2	0.447590	0.121070	0.933890
Co31	Co3	0.947590	0.066110	0.878930
Co41	Co4	0.552410	0.878930	0.066110
Co51	Co5	0.250000	0.091480	0.091480
Co61	Co6	0.750000	0.908520	0.908520
H11	H1	0.019000	0.166000	0.098000
H21	H2	0.361000	0.547800	0.040200
H31	H3	0.061000	0.473000	0.137000
H41	H4	0.979000	0.686000	0.174000
H51	H5	0.481000	0.098000	0.166000
H61	H6	0.139000	0.040200	0.547800
H71	H7	0.439000	0.137000	0.473000
H81	H8	0.521000	0.174000	0.686000
H91	H9	0.981000	0.834000	0.902000
H101	H10	0.639000	0.452200	0.959800
H111	H11	0.939000	0.527000	0.863000
H121	H12	0.021000	0.314000	0.826000
H131	H13	0.519000	0.902000	0.834000
H141	H14	0.861000	0.959800	0.452200
H151	H15	0.561000	0.863000	0.527000
H161	H16	0.479000	0.826000	0.314000
C11	C1	0.236700	0.696710	0.088070
C21	C2	0.289400	0.571780	0.065860
C31	C3	0.221200	0.485680	0.082760
C41	C4	0.105200	0.528170	0.124630
C51	C5	0.058300	0.654610	0.142590
C61	C6	0.303000	0.796610	0.071170
C71	C7	0.269800	0.347090	0.057630
C81	C8	0.263300	0.088070	0.696710
C91	C9	0.210600	0.065860	0.571780
C101	C10	0.278800	0.082760	0.485680
C111	C11	0.394800	0.124630	0.528170
C121	C12	0.441700	0.142590	0.654610
C131	C13	0.197000	0.071170	0.796610
C141	C14	0.230200	0.057630	0.347090
C151	C15	0.763300	0.303290	0.911930
C161	C16	0.710600	0.428220	0.934140
C171	C17	0.778800	0.514320	0.917240
C181	C18	0.894800	0.471830	0.875370
C191	C19	0.941700	0.345390	0.857410
C201	C20	0.697000	0.203390	0.928830
C211	C21	0.730200	0.652910	0.942370
C221	C22	0.736700	0.911930	0.303290
C231	C23	0.789400	0.934140	0.428220
C241	C24	0.721200	0.917240	0.514320
C251	C25	0.605200	0.875370	0.471830
C261	C26	0.558300	0.857410	0.345390
C271	C27	0.803000	0.928830	0.203390
C281	C28	0.769800	0.942370	0.652910
N11	N1	0.121500	0.738050	0.123370
N21	N2	0.378500	0.123370	0.738050
N31	N3	0.878500	0.261950	0.876630
N41	N4	0.621500	0.876630	0.261950
O11	O1	0.234730	0.903790	0.072250
O21	O2	0.418130	0.769020	0.059800
O31	O3	0.345560	0.309970	0.981770
O41	O4	0.227700	0.281540	0.114100
O51	O5	0.050170	0.101370	0.059850
O61	O6	0.265270	0.072250	0.903790
O71	O7	0.081870	0.059800	0.769020
O81	O8	0.154440	0.981770	0.309970
O91	O9	0.272300	0.114100	0.281540
O101	O10	0.449830	0.059850	0.101370
O111	O11	0.765270	0.096210	0.927750
O121	O12	0.581870	0.230980	0.940200
O131	O13	0.654440	0.690030	0.018230
O141	O14	0.772300	0.718460	0.885900
O151	O15	0.949830	0.898630	0.940150
O161	O16	0.734730	0.927750	0.096210
O171	O17	0.918130	0.940200	0.230980
O181	O18	0.845560	0.018230	0.690030
O191	O19	0.727700	0.885900	0.718460
O201	O20	0.550170	0.940150	0.898630
