data_NEXVET_freeONLY_PM
_symmetry_space_group_name_H-M	'P1'
_cell_length_a	25.838000
_cell_length_b	25.838000
_cell_length_c	25.838000
_cell_angle_alpha	90.000000
_cell_angle_beta	90.000000
_cell_angle_gamma	90.000000
_symmetry_Int_Tables_number 1

loop_
_symmetry_equiv_pos_as_xyz
'x,y,z'

loop_
_atom_site_label
_atom_site_type_symbol
_atom_site_fract_x
_atom_site_fract_y
_atom_site_fract_z
Ni11	Ni1	0.206540	0.206540	0.206540
Ni21	Ni2	0.206540	0.706540	0.706540
Ni31	Ni3	0.706540	0.206540	0.706540
Ni41	Ni4	0.706540	0.706540	0.206540
Ni51	Ni5	0.793460	0.793460	0.206540
Ni61	Ni6	0.793460	0.293460	0.706540
Ni71	Ni7	0.293460	0.793460	0.706540
Ni81	Ni8	0.293460	0.293460	0.206540
Ni91	Ni9	0.793460	0.206540	0.793460
Ni101	Ni10	0.793460	0.706540	0.293460
Ni111	Ni11	0.293460	0.206540	0.293460
Ni121	Ni12	0.293460	0.706540	0.793460
Ni131	Ni13	0.206540	0.793460	0.793460
Ni141	Ni14	0.206540	0.293460	0.293460
Ni151	Ni15	0.706540	0.793460	0.293460
Ni161	Ni16	0.706540	0.293460	0.793460
Ni171	Ni17	0.206540	0.206540	0.793460
Ni181	Ni18	0.206540	0.706540	0.293460
Ni191	Ni19	0.706540	0.206540	0.293460
Ni201	Ni20	0.706540	0.706540	0.793460
Ni211	Ni21	0.793460	0.793460	0.793460
Ni221	Ni22	0.793460	0.293460	0.293460
Ni231	Ni23	0.293460	0.793460	0.293460
Ni241	Ni24	0.293460	0.293460	0.793460
Ni251	Ni25	0.206540	0.793460	0.206540
Ni261	Ni26	0.206540	0.293460	0.706540
Ni271	Ni27	0.706540	0.793460	0.706540
Ni281	Ni28	0.706540	0.293460	0.206540
Ni291	Ni29	0.793460	0.206540	0.206540
Ni301	Ni30	0.793460	0.706540	0.706540
Ni311	Ni31	0.293460	0.206540	0.706540
Ni321	Ni32	0.293460	0.706540	0.206540
O11	O1	0.250000	0.250000	0.250000
O21	O2	0.750000	0.750000	0.250000
O31	O3	0.750000	0.250000	0.750000
O41	O4	0.250000	0.750000	0.750000
O51	O5	0.250000	0.250000	0.750000
O61	O6	0.750000	0.750000	0.750000
O71	O7	0.750000	0.250000	0.250000
O81	O8	0.250000	0.750000	0.250000
O91	O9	0.218930	0.218930	0.133380
C11	C1	0.217490	0.217490	0.027100
H11	H1	0.195000	0.195000	0.045500
O101	O10	0.218930	0.718930	0.633380
C21	C2	0.217490	0.717490	0.527100
H21	H2	0.195000	0.695000	0.545500
O111	O11	0.718930	0.218930	0.633380
C31	C3	0.717490	0.217490	0.527100
H31	H3	0.695000	0.195000	0.545500
O121	O12	0.718930	0.718930	0.133380
C41	C4	0.717490	0.717490	0.027100
H41	H4	0.695000	0.695000	0.045500
O131	O13	0.781070	0.781070	0.133380
C51	C5	0.782510	0.782510	0.027100
H51	H5	0.805000	0.805000	0.045500
O141	O14	0.781070	0.281070	0.633380
C61	C6	0.782510	0.282510	0.527100
H61	H6	0.805000	0.305000	0.545500
O151	O15	0.281070	0.781070	0.633380
C71	C7	0.282510	0.782510	0.527100
H71	H7	0.305000	0.805000	0.545500
O161	O16	0.281070	0.281070	0.133380
C81	C8	0.282510	0.282510	0.027100
H81	H8	0.305000	0.305000	0.045500
O171	O17	0.781070	0.218930	0.866620
C91	C9	0.782510	0.217490	0.972900
H91	H9	0.805000	0.195000	0.954500
O181	O18	0.781070	0.718930	0.366620
C101	C10	0.782510	0.717490	0.472900
H101	H10	0.805000	0.695000	0.454500
O191	O19	0.281070	0.218930	0.366620
C111	C11	0.282510	0.217490	0.472900
H111	H11	0.305000	0.195000	0.454500
O201	O20	0.281070	0.718930	0.866620
C121	C12	0.282510	0.717490	0.972900
H121	H12	0.305000	0.695000	0.954500
O211	O21	0.218930	0.781070	0.866620
C131	C13	0.217490	0.782510	0.972900
H131	H13	0.195000	0.805000	0.954500
O221	O22	0.218930	0.281070	0.366620
C141	C14	0.217490	0.282510	0.472900
H141	H14	0.195000	0.305000	0.454500
O231	O23	0.718930	0.781070	0.366620
C151	C15	0.717490	0.782510	0.472900
H151	H15	0.695000	0.805000	0.454500
O241	O24	0.718930	0.281070	0.866620
C161	C16	0.717490	0.282510	0.972900
H161	H16	0.695000	0.305000	0.954500
O251	O25	0.133380	0.218930	0.218930
C171	C17	0.027100	0.217490	0.217490
H171	H17	0.045500	0.195000	0.195000
O261	O26	0.133380	0.718930	0.718930
C181	C18	0.027100	0.717490	0.717490
H181	H18	0.045500	0.695000	0.695000
O271	O27	0.633380	0.218930	0.718930
C191	C19	0.527100	0.217490	0.717490
H191	H19	0.545500	0.195000	0.695000
O281	O28	0.633380	0.718930	0.218930
C201	C20	0.527100	0.717490	0.217490
H201	H20	0.545500	0.695000	0.195000
O291	O29	0.133380	0.781070	0.781070
C211	C21	0.027100	0.782510	0.782510
H211	H21	0.045500	0.805000	0.805000
O301	O30	0.133380	0.281070	0.281070
C221	C22	0.027100	0.282510	0.282510
H221	H22	0.045500	0.305000	0.305000
O311	O31	0.633380	0.781070	0.281070
C231	C23	0.527100	0.782510	0.282510
H231	H23	0.545500	0.805000	0.305000
O321	O32	0.633380	0.281070	0.781070
C241	C24	0.527100	0.282510	0.782510
H241	H24	0.545500	0.305000	0.805000
O331	O33	0.866620	0.781070	0.218930
C251	C25	0.972900	0.782510	0.217490
H251	H25	0.954500	0.805000	0.195000
O341	O34	0.866620	0.281070	0.718930
C261	C26	0.972900	0.282510	0.717490
H261	H26	0.954500	0.305000	0.695000
O351	O35	0.366620	0.781070	0.718930
C271	C27	0.472900	0.782510	0.717490
H271	H27	0.454500	0.805000	0.695000
O361	O36	0.366620	0.281070	0.218930
C281	C28	0.472900	0.282510	0.217490
H281	H28	0.454500	0.305000	0.195000
O371	O37	0.866620	0.218930	0.781070
C291	C29	0.972900	0.217490	0.782510
H291	H29	0.954500	0.195000	0.805000
O381	O38	0.866620	0.718930	0.281070
C301	C30	0.972900	0.717490	0.282510
H301	H30	0.954500	0.695000	0.305000
O391	O39	0.366620	0.218930	0.281070
C311	C31	0.472900	0.217490	0.282510
H311	H31	0.454500	0.195000	0.305000
O401	O40	0.366620	0.718930	0.781070
C321	C32	0.472900	0.717490	0.782510
H321	H32	0.454500	0.695000	0.805000
O411	O41	0.218930	0.133380	0.218930
C331	C33	0.217490	0.027100	0.217490
H331	H33	0.195000	0.045500	0.195000
O421	O42	0.218930	0.633380	0.718930
C341	C34	0.217490	0.527100	0.717490
H341	H34	0.195000	0.545500	0.695000
O431	O43	0.718930	0.133380	0.718930
C351	C35	0.717490	0.027100	0.717490
H351	H35	0.695000	0.045500	0.695000
O441	O44	0.718930	0.633380	0.218930
C361	C36	0.717490	0.527100	0.217490
H361	H36	0.695000	0.545500	0.195000
O451	O45	0.781070	0.133380	0.781070
C371	C37	0.782510	0.027100	0.782510
H371	H37	0.805000	0.045500	0.805000
O461	O46	0.781070	0.633380	0.281070
C381	C38	0.782510	0.527100	0.282510
H381	H38	0.805000	0.545500	0.305000
O471	O47	0.281070	0.133380	0.281070
C391	C39	0.282510	0.027100	0.282510
H391	H39	0.305000	0.045500	0.305000
O481	O48	0.281070	0.633380	0.781070
C401	C40	0.282510	0.527100	0.782510
H401	H40	0.305000	0.545500	0.805000
O491	O49	0.218930	0.866620	0.781070
C411	C41	0.217490	0.972900	0.782510
H411	H41	0.195000	0.954500	0.805000
O501	O50	0.218930	0.366620	0.281070
C421	C42	0.217490	0.472900	0.282510
H421	H42	0.195000	0.454500	0.305000
O511	O51	0.718930	0.866620	0.281070
C431	C43	0.717490	0.972900	0.282510
H431	H43	0.695000	0.954500	0.305000
O521	O52	0.718930	0.366620	0.781070
C441	C44	0.717490	0.472900	0.782510
H441	H44	0.695000	0.454500	0.805000
O531	O53	0.781070	0.866620	0.218930
C451	C45	0.782510	0.972900	0.217490
H451	H45	0.805000	0.954500	0.195000
O541	O54	0.781070	0.366620	0.718930
C461	C46	0.782510	0.472900	0.717490
H461	H46	0.805000	0.454500	0.695000
O551	O55	0.281070	0.866620	0.718930
C471	C47	0.282510	0.972900	0.717490
H471	H47	0.305000	0.954500	0.695000
O561	O56	0.281070	0.366620	0.218930
C481	C48	0.282510	0.472900	0.217490
H481	H48	0.305000	0.454500	0.195000
O571	O57	0.218930	0.218930	0.866620
C491	C49	0.217490	0.217490	0.972900
H491	H49	0.195000	0.195000	0.954500
O581	O58	0.218930	0.718930	0.366620
C501	C50	0.217490	0.717490	0.472900
H501	H50	0.195000	0.695000	0.454500
O591	O59	0.718930	0.218930	0.366620
C511	C51	0.717490	0.217490	0.472900
H511	H51	0.695000	0.195000	0.454500
O601	O60	0.718930	0.718930	0.866620
C521	C52	0.717490	0.717490	0.972900
H521	H52	0.695000	0.695000	0.954500
O611	O61	0.781070	0.781070	0.866620
C531	C53	0.782510	0.782510	0.972900
H531	H53	0.805000	0.805000	0.954500
O621	O62	0.781070	0.281070	0.366620
C541	C54	0.782510	0.282510	0.472900
H541	H54	0.805000	0.305000	0.454500
O631	O63	0.281070	0.781070	0.366620
C551	C55	0.282510	0.782510	0.472900
H551	H55	0.305000	0.805000	0.454500
O641	O64	0.281070	0.281070	0.866620
C561	C56	0.282510	0.282510	0.972900
H561	H56	0.305000	0.305000	0.954500
O651	O65	0.218930	0.781070	0.133380
C571	C57	0.217490	0.782510	0.027100
H571	H57	0.195000	0.805000	0.045500
O661	O66	0.218930	0.281070	0.633380
C581	C58	0.217490	0.282510	0.527100
H581	H58	0.195000	0.305000	0.545500
O671	O67	0.718930	0.781070	0.633380
C591	C59	0.717490	0.782510	0.527100
H591	H59	0.695000	0.805000	0.545500
O681	O68	0.718930	0.281070	0.133380
C601	C60	0.717490	0.282510	0.027100
H601	H60	0.695000	0.305000	0.045500
O691	O69	0.781070	0.218930	0.133380
C611	C61	0.782510	0.217490	0.027100
H611	H61	0.805000	0.195000	0.045500
O701	O70	0.781070	0.718930	0.633380
C621	C62	0.782510	0.717490	0.527100
H621	H62	0.805000	0.695000	0.545500
O711	O71	0.281070	0.218930	0.633380
C631	C63	0.282510	0.217490	0.527100
H631	H63	0.305000	0.195000	0.545500
O721	O72	0.281070	0.718930	0.133380
C641	C64	0.282510	0.717490	0.027100
H641	H64	0.305000	0.695000	0.045500
O731	O73	0.218930	0.133380	0.781070
C651	C65	0.217490	0.027100	0.782510
H651	H65	0.195000	0.045500	0.805000
O741	O74	0.218930	0.633380	0.281070
C661	C66	0.217490	0.527100	0.282510
H661	H66	0.195000	0.545500	0.305000
O751	O75	0.718930	0.133380	0.281070
C671	C67	0.717490	0.027100	0.282510
H671	H67	0.695000	0.045500	0.305000
O761	O76	0.718930	0.633380	0.781070
C681	C68	0.717490	0.527100	0.782510
H681	H68	0.695000	0.545500	0.805000
O771	O77	0.781070	0.133380	0.218930
C691	C69	0.782510	0.027100	0.217490
H691	H69	0.805000	0.045500	0.195000
O781	O78	0.781070	0.633380	0.718930
C701	C70	0.782510	0.527100	0.717490
H701	H70	0.805000	0.545500	0.695000
O791	O79	0.281070	0.133380	0.718930
C711	C71	0.282510	0.027100	0.717490
H711	H71	0.305000	0.045500	0.695000
O801	O80	0.281070	0.633380	0.218930
C721	C72	0.282510	0.527100	0.217490
H721	H72	0.305000	0.545500	0.195000
O811	O81	0.781070	0.866620	0.781070
C731	C73	0.782510	0.972900	0.782510
H731	H73	0.805000	0.954500	0.805000
O821	O82	0.781070	0.366620	0.281070
C741	C74	0.782510	0.472900	0.282510
H741	H74	0.805000	0.454500	0.305000
O831	O83	0.281070	0.866620	0.281070
C751	C75	0.282510	0.972900	0.282510
H751	H75	0.305000	0.954500	0.305000
O841	O84	0.281070	0.366620	0.781070
C761	C76	0.282510	0.472900	0.782510
H761	H76	0.305000	0.454500	0.805000
O851	O85	0.218930	0.866620	0.218930
C771	C77	0.217490	0.972900	0.217490
H771	H77	0.195000	0.954500	0.195000
O861	O86	0.218930	0.366620	0.718930
C781	C78	0.217490	0.472900	0.717490
H781	H78	0.195000	0.454500	0.695000
O871	O87	0.718930	0.866620	0.718930
C791	C79	0.717490	0.972900	0.717490
H791	H79	0.695000	0.954500	0.695000
O881	O88	0.718930	0.366620	0.218930
C801	C80	0.717490	0.472900	0.217490
H801	H80	0.695000	0.454500	0.195000
O891	O89	0.133380	0.218930	0.781070
C811	C81	0.027100	0.217490	0.782510
H811	H81	0.045500	0.195000	0.805000
O901	O90	0.133380	0.718930	0.281070
C821	C82	0.027100	0.717490	0.282510
H821	H82	0.045500	0.695000	0.305000
O911	O91	0.633380	0.218930	0.281070
C831	C83	0.527100	0.217490	0.282510
H831	H83	0.545500	0.195000	0.305000
O921	O92	0.633380	0.718930	0.781070
C841	C84	0.527100	0.717490	0.782510
H841	H84	0.545500	0.695000	0.805000
O931	O93	0.133380	0.781070	0.218930
C851	C85	0.027100	0.782510	0.217490
H851	H85	0.045500	0.805000	0.195000
O941	O94	0.133380	0.281070	0.718930
C861	C86	0.027100	0.282510	0.717490
H861	H86	0.045500	0.305000	0.695000
O951	O95	0.633380	0.781070	0.718930
C871	C87	0.527100	0.782510	0.717490
H871	H87	0.545500	0.805000	0.695000
O961	O96	0.633380	0.281070	0.218930
C881	C88	0.527100	0.282510	0.217490
H881	H88	0.545500	0.305000	0.195000
O971	O97	0.866620	0.218930	0.218930
C891	C89	0.972900	0.217490	0.217490
H891	H89	0.954500	0.195000	0.195000
O981	O98	0.866620	0.718930	0.718930
C901	C90	0.972900	0.717490	0.717490
H901	H90	0.954500	0.695000	0.695000
O991	O99	0.366620	0.218930	0.718930
C911	C91	0.472900	0.217490	0.717490
H911	H91	0.454500	0.195000	0.695000
O1001	O100	0.366620	0.718930	0.218930
C921	C92	0.472900	0.717490	0.217490
H921	H92	0.454500	0.695000	0.195000
O1011	O101	0.866620	0.781070	0.781070
C931	C93	0.972900	0.782510	0.782510
H931	H93	0.954500	0.805000	0.805000
O1021	O102	0.866620	0.281070	0.281070
C941	C94	0.972900	0.282510	0.282510
H941	H94	0.954500	0.305000	0.305000
O1031	O103	0.366620	0.781070	0.281070
C951	C95	0.472900	0.782510	0.282510
H951	H95	0.454500	0.805000	0.305000
O1041	O104	0.366620	0.281070	0.781070
C961	C96	0.472900	0.282510	0.782510
H961	H96	0.454500	0.305000	0.805000
C971	C97	0.250000	0.250000	0.110800
C981	C98	0.250000	0.250000	0.053200
C991	C99	0.250000	0.750000	0.610800
C1001	C100	0.250000	0.750000	0.553200
C1011	C101	0.750000	0.750000	0.110800
C1021	C102	0.750000	0.750000	0.053200
C1031	C103	0.750000	0.250000	0.610800
C1041	C104	0.750000	0.250000	0.553200
C1051	C105	0.750000	0.250000	0.889200
C1061	C106	0.750000	0.250000	0.946800
C1071	C107	0.750000	0.750000	0.389200
C1081	C108	0.750000	0.750000	0.446800
C1091	C109	0.250000	0.250000	0.389200
C1101	C110	0.250000	0.250000	0.446800
C1111	C111	0.250000	0.750000	0.889200
C1121	C112	0.250000	0.750000	0.946800
C1131	C113	0.110800	0.250000	0.250000
C1141	C114	0.053200	0.250000	0.250000
C1151	C115	0.610800	0.250000	0.750000
C1161	C116	0.553200	0.250000	0.750000
C1171	C117	0.110800	0.750000	0.750000
C1181	C118	0.053200	0.750000	0.750000
C1191	C119	0.610800	0.750000	0.250000
C1201	C120	0.553200	0.750000	0.250000
C1211	C121	0.889200	0.750000	0.250000
C1221	C122	0.946800	0.750000	0.250000
C1231	C123	0.389200	0.750000	0.750000
C1241	C124	0.446800	0.750000	0.750000
C1251	C125	0.389200	0.250000	0.250000
C1261	C126	0.446800	0.250000	0.250000
C1271	C127	0.889200	0.250000	0.750000
C1281	C128	0.946800	0.250000	0.750000
C1291	C129	0.250000	0.110800	0.250000
C1301	C130	0.250000	0.053200	0.250000
C1311	C131	0.250000	0.610800	0.750000
C1321	C132	0.250000	0.553200	0.750000
C1331	C133	0.750000	0.110800	0.750000
C1341	C134	0.750000	0.053200	0.750000
C1351	C135	0.750000	0.610800	0.250000
C1361	C136	0.750000	0.553200	0.250000
C1371	C137	0.250000	0.889200	0.750000
C1381	C138	0.250000	0.946800	0.750000
C1391	C139	0.250000	0.389200	0.250000
C1401	C140	0.250000	0.446800	0.250000
C1411	C141	0.750000	0.889200	0.250000
C1421	C142	0.750000	0.946800	0.250000
C1431	C143	0.750000	0.389200	0.750000
C1441	C144	0.750000	0.446800	0.750000
C1451	C145	0.250000	0.250000	0.889200
C1461	C146	0.250000	0.250000	0.946800
C1471	C147	0.250000	0.750000	0.389200
C1481	C148	0.250000	0.750000	0.446800
C1491	C149	0.750000	0.750000	0.889200
C1501	C150	0.750000	0.750000	0.946800
C1511	C151	0.750000	0.250000	0.389200
C1521	C152	0.750000	0.250000	0.446800
C1531	C153	0.250000	0.750000	0.110800
C1541	C154	0.250000	0.750000	0.053200
C1551	C155	0.250000	0.250000	0.610800
C1561	C156	0.250000	0.250000	0.553200
C1571	C157	0.750000	0.250000	0.110800
C1581	C158	0.750000	0.250000	0.053200
C1591	C159	0.750000	0.750000	0.610800
C1601	C160	0.750000	0.750000	0.553200
C1611	C161	0.250000	0.110800	0.750000
C1621	C162	0.250000	0.053200	0.750000
C1631	C163	0.250000	0.610800	0.250000
C1641	C164	0.250000	0.553200	0.250000
C1651	C165	0.750000	0.110800	0.250000
C1661	C166	0.750000	0.053200	0.250000
C1671	C167	0.750000	0.610800	0.750000
C1681	C168	0.750000	0.553200	0.750000
C1691	C169	0.750000	0.889200	0.750000
C1701	C170	0.750000	0.946800	0.750000
C1711	C171	0.750000	0.389200	0.250000
C1721	C172	0.750000	0.446800	0.250000
C1731	C173	0.250000	0.889200	0.250000
C1741	C174	0.250000	0.946800	0.250000
C1751	C175	0.250000	0.389200	0.750000
C1761	C176	0.250000	0.446800	0.750000
C1771	C177	0.110800	0.250000	0.750000
C1781	C178	0.053200	0.250000	0.750000
C1791	C179	0.610800	0.250000	0.250000
C1801	C180	0.553200	0.250000	0.250000
C1811	C181	0.110800	0.750000	0.250000
C1821	C182	0.053200	0.750000	0.250000
C1831	C183	0.610800	0.750000	0.750000
C1841	C184	0.553200	0.750000	0.750000
C1851	C185	0.889200	0.250000	0.250000
C1861	C186	0.946800	0.250000	0.250000
C1871	C187	0.389200	0.250000	0.750000
C1881	C188	0.446800	0.250000	0.750000
C1891	C189	0.889200	0.750000	0.750000
C1901	C190	0.946800	0.750000	0.750000
C1911	C191	0.389200	0.750000	0.250000
C1921	C192	0.446800	0.750000	0.250000
