data_NEYZAU_freeONLY_PM
_symmetry_space_group_name_H-M	'P1'
_cell_length_a	16.964300
_cell_length_b	16.964300
_cell_length_c	7.606700
_cell_angle_alpha	90.000000
_cell_angle_beta	90.000000
_cell_angle_gamma	90.000000
_symmetry_Int_Tables_number 1

loop_
_symmetry_equiv_pos_as_xyz
'x,y,z'

loop_
_atom_site_label
_atom_site_type_symbol
_atom_site_fract_x
_atom_site_fract_y
_atom_site_fract_z
O11	O1	0.534800	0.380700	0.016900
N11	N1	0.423000	0.313500	0.077700
H11	H1	0.398000	0.355600	0.048600
C11	C1	0.503800	0.316800	0.072000
H21	H2	0.511300	0.539000	0.665900
O21	O2	0.034800	0.880700	0.516900
N21	N2	0.923000	0.813500	0.577700
H31	H3	0.898000	0.855600	0.548600
C21	C2	0.003800	0.816800	0.572000
H41	H4	0.011300	0.039000	0.165900
O31	O3	0.465200	0.619300	0.016900
N31	N3	0.577000	0.686500	0.077700
H51	H5	0.602000	0.644400	0.048600
C31	C3	0.496200	0.683200	0.072000
H61	H6	0.488700	0.461000	0.665900
O41	O4	0.965200	0.119300	0.516900
N41	N4	0.077000	0.186500	0.577700
H71	H7	0.102000	0.144400	0.548600
C41	C4	0.996200	0.183200	0.572000
H81	H8	0.988700	0.961000	0.165900
O51	O5	0.380700	0.465200	0.983100
N51	N5	0.313500	0.577000	0.922300
H91	H9	0.355600	0.602000	0.951400
C51	C5	0.316800	0.496200	0.928000
H101	H10	0.539000	0.488700	0.334100
O61	O6	0.880700	0.965200	0.483100
N61	N6	0.813500	0.077000	0.422300
H111	H11	0.855600	0.102000	0.451400
C61	C6	0.816800	0.996200	0.428000
H121	H12	0.039000	0.988700	0.834100
O71	O7	0.619300	0.534800	0.983100
N71	N7	0.686500	0.423000	0.922300
H131	H13	0.644400	0.398000	0.951400
C71	C7	0.683200	0.503800	0.928000
H141	H14	0.461000	0.511300	0.334100
O81	O8	0.119300	0.034800	0.483100
N81	N8	0.186500	0.923000	0.422300
H151	H15	0.144400	0.898000	0.451400
C81	C8	0.183200	0.003800	0.428000
H161	H16	0.961000	0.011300	0.834100
O91	O9	0.965200	0.380700	0.733100
N91	N9	0.077000	0.313500	0.672300
H171	H17	0.102000	0.355600	0.701400
C91	C9	0.996200	0.316800	0.678000
H181	H18	0.988700	0.539000	0.084100
O101	O10	0.465200	0.880700	0.233100
N101	N10	0.577000	0.813500	0.172300
H191	H19	0.602000	0.855600	0.201400
C101	C10	0.496200	0.816800	0.178000
H201	H20	0.488700	0.039000	0.584100
O111	O11	0.034800	0.619300	0.733100
N111	N11	0.923000	0.686500	0.672300
H211	H21	0.898000	0.644400	0.701400
C111	C11	0.003800	0.683200	0.678000
H221	H22	0.011300	0.461000	0.084100
O121	O12	0.534800	0.119300	0.233100
N121	N12	0.423000	0.186500	0.172300
H231	H23	0.398000	0.144400	0.201400
C121	C12	0.503800	0.183200	0.178000
H241	H24	0.511300	0.961000	0.584100
O131	O13	0.119300	0.465200	0.766900
N131	N13	0.186500	0.577000	0.827700
H251	H25	0.144400	0.602000	0.798600
C131	C13	0.183200	0.496200	0.822000
H261	H26	0.961000	0.488700	0.415900
O141	O14	0.619300	0.965200	0.266900
N141	N14	0.686500	0.077000	0.327700
H271	H27	0.644400	0.102000	0.298600
C141	C14	0.683200	0.996200	0.322000
H281	H28	0.461000	0.988700	0.915900
O151	O15	0.880700	0.534800	0.766900
N151	N15	0.813500	0.423000	0.827700
H291	H29	0.855600	0.398000	0.798600
C151	C15	0.816800	0.503800	0.822000
H301	H30	0.039000	0.511300	0.415900
O161	O16	0.380700	0.034800	0.266900
N161	N16	0.313500	0.923000	0.327700
H311	H31	0.355600	0.898000	0.298600
C161	C16	0.316800	0.003800	0.322000
H321	H32	0.539000	0.011300	0.915900
Mg11	Mg1	0.500000	0.500000	0.000000
Mg21	Mg2	0.000000	0.000000	0.500000
Mg31	Mg3	0.000000	0.500000	0.750000
Mg41	Mg4	0.500000	0.000000	0.250000
S11	S1	0.282430	0.250000	0.125000
C171	C17	0.378400	0.250000	0.125000
C181	C18	0.545800	0.250000	0.125000
H331	H33	0.600600	0.250000	0.125000
S21	S2	0.717570	0.750000	0.125000
C191	C19	0.621600	0.750000	0.125000
C201	C20	0.454200	0.750000	0.125000
H341	H34	0.399400	0.750000	0.125000
S31	S3	0.217570	0.250000	0.625000
C211	C21	0.121600	0.250000	0.625000
C221	C22	0.954200	0.250000	0.625000
H351	H35	0.899400	0.250000	0.625000
S41	S4	0.250000	0.717570	0.875000
C231	C23	0.250000	0.621600	0.875000
C241	C24	0.250000	0.454200	0.875000
H361	H36	0.250000	0.399400	0.875000
S51	S5	0.750000	0.217570	0.375000
C251	C25	0.750000	0.121600	0.375000
C261	C26	0.750000	0.954200	0.375000
H371	H37	0.750000	0.899400	0.375000
S61	S6	0.750000	0.282430	0.875000
C271	C27	0.750000	0.378400	0.875000
C281	C28	0.750000	0.545800	0.875000
H381	H38	0.750000	0.600600	0.875000
S71	S7	0.250000	0.782430	0.375000
C291	C29	0.250000	0.878400	0.375000
C301	C30	0.250000	0.045800	0.375000
H391	H39	0.250000	0.100600	0.375000
S81	S8	0.782430	0.750000	0.625000
C311	C31	0.878400	0.750000	0.625000
C321	C32	0.045800	0.750000	0.625000
H401	H40	0.100600	0.750000	0.625000
O171	O17	0.500000	0.500000	0.731300
O181	O18	0.000000	0.000000	0.231300
O191	O19	0.500000	0.500000	0.268700
O201	O20	0.000000	0.000000	0.768700
O211	O21	0.000000	0.500000	0.018700
O221	O22	0.500000	0.000000	0.518700
O231	O23	0.000000	0.500000	0.481300
O241	O24	0.500000	0.000000	0.981300
