data_NEZWOG01_freeONLY_PM
_symmetry_space_group_name_H-M	'P1'
_cell_length_a	11.115500
_cell_length_b	13.467900
_cell_length_c	16.016800
_cell_angle_alpha	114.862000
_cell_angle_beta	110.304000
_cell_angle_gamma	90.000000
_symmetry_Int_Tables_number 1

loop_
_symmetry_equiv_pos_as_xyz
'x,y,z'

loop_
_atom_site_label
_atom_site_type_symbol
_atom_site_fract_x
_atom_site_fract_y
_atom_site_fract_z
La11	La1	0.458690	0.070690	0.441380
La21	La2	0.017310	0.929310	0.558620
La31	La3	0.517310	0.629310	0.558620
La41	La4	0.958690	0.370690	0.441380
La51	La5	0.953600	0.000000	0.000000
La61	La6	0.453600	0.000000	0.000000
P11	P1	0.777400	0.002600	0.396800
P21	P2	0.018500	0.883200	0.187200
P31	P3	0.380600	0.997400	0.603200
P41	P4	0.831300	0.116800	0.812800
P51	P5	0.880600	0.605800	0.603200
P61	P6	0.331300	0.696000	0.812800
P71	P7	0.277400	0.394200	0.396800
P81	P8	0.518500	0.304000	0.187200
C11	C1	0.900900	0.124500	0.456200
C21	C2	0.038600	0.134900	0.464800
C31	C3	0.124900	0.015100	0.273800
C41	C4	0.197000	0.023300	0.212600
C51	C5	0.444700	0.875500	0.543800
C61	C6	0.573800	0.865100	0.535200
C71	C7	0.851100	0.984900	0.726200
C81	C8	0.984400	0.976700	0.787400
C91	C9	0.944700	0.668300	0.543800
C101	C10	0.073800	0.670100	0.535200
C111	C11	0.351100	0.741300	0.726200
C121	C12	0.484400	0.810700	0.787400
C131	C13	0.400900	0.331700	0.456200
C141	C14	0.538600	0.329900	0.464800
C151	C15	0.624900	0.258700	0.273800
C161	C16	0.697000	0.189300	0.212600
O11	O1	0.652700	0.044400	0.408000
O21	O2	0.813200	0.924400	0.446600
O31	O3	0.767800	0.929800	0.289800
O41	O4	0.835400	0.212100	0.454800
O51	O5	0.098200	0.062100	0.485200
O61	O6	0.107300	0.204100	0.459200
O71	O7	0.934200	0.868100	0.240400
O81	O8	0.112000	0.798600	0.165800
O91	O9	0.934300	0.892500	0.092600
O101	O10	0.212700	0.997300	0.352400
O111	O11	0.309400	0.080600	0.267400
O121	O12	0.182900	0.950800	0.126400
O131	O13	0.663500	0.185500	0.611000
O141	O14	0.362100	0.845600	0.318200
O151	O15	0.788700	0.873900	0.847000
O161	O16	0.032600	0.842500	0.853400
O171	O17	0.244700	0.955600	0.592000
O181	O18	0.366600	0.075600	0.553400
O191	O19	0.478000	0.070200	0.710200
O201	O20	0.380600	0.787900	0.545200
O211	O21	0.613000	0.937900	0.514800
O221	O22	0.648100	0.795900	0.540800
O231	O23	0.693800	0.131900	0.759600
O241	O24	0.946200	0.201400	0.834200
O251	O25	0.841700	0.107500	0.907400
O261	O26	0.860300	0.002700	0.647600
O271	O27	0.042000	0.919400	0.732600
O281	O28	0.056500	0.049200	0.873600
O291	O29	0.052500	0.814500	0.389000
O301	O30	0.043900	0.154400	0.681800
O311	O31	0.941700	0.126100	0.153000
O321	O32	0.179200	0.157500	0.146600
O331	O33	0.744700	0.636400	0.592000
O341	O34	0.866600	0.477800	0.553400
O351	O35	0.978000	0.640000	0.710200
O361	O36	0.880600	0.757300	0.545200
O371	O37	0.113000	0.576900	0.514800
O381	O38	0.148100	0.744900	0.540800
O391	O39	0.193800	0.627700	0.759600
O401	O40	0.446200	0.632800	0.834200
O411	O41	0.341700	0.799900	0.907400
O421	O42	0.360300	0.644900	0.647600
O431	O43	0.542000	0.813200	0.732600
O441	O44	0.556500	0.824400	0.873600
O451	O45	0.552500	0.574500	0.389000
O461	O46	0.543900	0.527400	0.681800
O471	O47	0.441700	0.026900	0.153000
O481	O48	0.679200	0.989100	0.146600
O491	O49	0.152700	0.363600	0.408000
O501	O50	0.313200	0.522200	0.446600
O511	O51	0.267800	0.360000	0.289800
O521	O52	0.335400	0.242700	0.454800
O531	O53	0.598200	0.423100	0.485200
O541	O54	0.607300	0.255100	0.459200
O551	O55	0.434200	0.372300	0.240400
O561	O56	0.612000	0.367200	0.165800
O571	O57	0.434300	0.200100	0.092600
O581	O58	0.712700	0.355100	0.352400
O591	O59	0.809400	0.186800	0.267400
O601	O60	0.682900	0.175600	0.126400
O611	O61	0.163500	0.425500	0.611000
O621	O62	0.862100	0.472600	0.318200
O631	O63	0.288700	0.973100	0.847000
O641	O64	0.532600	0.010900	0.853400
