data_NIGLUK_freeONLY_PM
_symmetry_space_group_name_H-M	'P1'
_cell_length_a	19.505000
_cell_length_b	19.505000
_cell_length_c	19.505000
_cell_angle_alpha	90.000000
_cell_angle_beta	90.000000
_cell_angle_gamma	90.000000
_symmetry_Int_Tables_number 1

loop_
_symmetry_equiv_pos_as_xyz
'x,y,z'

loop_
_atom_site_label
_atom_site_type_symbol
_atom_site_fract_x
_atom_site_fract_y
_atom_site_fract_z
N11	N1	0.528900	0.337200	0.175300
C11	C1	0.531900	0.394100	0.137000
C21	C2	0.536400	0.459900	0.162100
C31	C3	0.537100	0.466800	0.234100
C41	C4	0.536100	0.408100	0.275900
C51	C5	0.532500	0.345500	0.244000
C61	C6	0.539400	0.520800	0.120800
C71	C7	0.538300	0.415100	0.350200
H11	H1	0.530900	0.388600	0.088600
H21	H2	0.532500	0.305600	0.271900
H31	H3	0.542300	0.516600	0.072400
H41	H4	0.539000	0.375500	0.378500
N21	N2	0.028900	0.837200	0.675300
C81	C8	0.031900	0.894100	0.637000
C91	C9	0.036400	0.959900	0.662100
C101	C10	0.037100	0.966800	0.734100
C111	C11	0.036100	0.908100	0.775900
C121	C12	0.032500	0.845500	0.744000
C131	C13	0.039400	0.020800	0.620800
C141	C14	0.038300	0.915100	0.850200
H51	H5	0.030900	0.888600	0.588600
H61	H6	0.032500	0.805600	0.771900
H71	H7	0.042300	0.016600	0.572400
H81	H8	0.039000	0.875500	0.878500
N31	N3	0.971100	0.662800	0.675300
C151	C15	0.968100	0.605900	0.637000
C161	C16	0.963600	0.540100	0.662100
C171	C17	0.962900	0.533200	0.734100
C181	C18	0.963900	0.591900	0.775900
C191	C19	0.967500	0.654500	0.744000
C201	C20	0.960600	0.479200	0.620800
C211	C21	0.961700	0.584900	0.850200
H91	H9	0.969100	0.611400	0.588600
H101	H10	0.967500	0.694400	0.771900
H111	H11	0.957700	0.483400	0.572400
H121	H12	0.961000	0.624500	0.878500
N41	N4	0.471100	0.162800	0.175300
C221	C22	0.468100	0.105900	0.137000
C231	C23	0.463600	0.040100	0.162100
C241	C24	0.462900	0.033200	0.234100
C251	C25	0.463900	0.091900	0.275900
C261	C26	0.467500	0.154500	0.244000
C271	C27	0.460600	0.979200	0.120800
C281	C28	0.461700	0.084900	0.350200
H131	H13	0.469100	0.111400	0.088600
H141	H14	0.467500	0.194400	0.271900
H151	H15	0.457700	0.983400	0.072400
H161	H16	0.461000	0.124500	0.378500
N51	N5	0.471100	0.837200	0.324700
C291	C29	0.468100	0.894100	0.363000
C301	C30	0.463600	0.959900	0.337900
C311	C31	0.462900	0.966800	0.265900
C321	C32	0.463900	0.908100	0.224100
C331	C33	0.467500	0.845500	0.256000
C341	C34	0.460600	0.020800	0.379200
C351	C35	0.461700	0.915100	0.149800
H171	H17	0.469100	0.888600	0.411400
H181	H18	0.467500	0.805600	0.228100
H191	H19	0.457700	0.016600	0.427600
H201	H20	0.461000	0.875500	0.121500
N61	N6	0.971100	0.337200	0.824700
C361	C36	0.968100	0.394100	0.863000
C371	C37	0.963600	0.459900	0.837900
C381	C38	0.962900	0.466800	0.765900
C391	C39	0.963900	0.408100	0.724100
C401	C40	0.967500	0.345500	0.756000
C411	C41	0.960600	0.520800	0.879200
C421	C42	0.961700	0.415100	0.649800
H211	H21	0.969100	0.388600	0.911400
H221	H22	0.967500	0.305600	0.728100
H231	H23	0.957700	0.516600	0.927600
H241	H24	0.961000	0.375500	0.621500
N71	N7	0.028900	0.162800	0.824700
C431	C43	0.031900	0.105900	0.863000
C441	C44	0.036400	0.040100	0.837900
C451	C45	0.037100	0.033200	0.765900
C461	C46	0.036100	0.091900	0.724100
C471	C47	0.032500	0.154500	0.756000
C481	C48	0.039400	0.979200	0.879200
C491	C49	0.038300	0.084900	0.649800
H251	H25	0.030900	0.111400	0.911400
H261	H26	0.032500	0.194400	0.728100
H271	H27	0.042300	0.983400	0.927600
H281	H28	0.039000	0.124500	0.621500
N81	N8	0.528900	0.662800	0.324700
C501	C50	0.531900	0.605900	0.363000
C511	C51	0.536400	0.540100	0.337900
C521	C52	0.537100	0.533200	0.265900
C531	C53	0.536100	0.591900	0.224100
C541	C54	0.532500	0.654500	0.256000
C551	C55	0.539400	0.479200	0.379200
C561	C56	0.538300	0.584900	0.149800
H291	H29	0.530900	0.611400	0.411400
H301	H30	0.532500	0.694400	0.228100
H311	H31	0.542300	0.483400	0.427600
H321	H32	0.539000	0.624500	0.121500
N91	N9	0.587200	0.778900	0.425300
C571	C57	0.644100	0.781900	0.387000
C581	C58	0.709900	0.786400	0.412100
C591	C59	0.716800	0.787100	0.484100
C601	C60	0.658100	0.786100	0.525900
C611	C61	0.595500	0.782500	0.494000
C621	C62	0.770800	0.789400	0.370800
C631	C63	0.665100	0.788300	0.600200
H331	H33	0.638600	0.780900	0.338600
H341	H34	0.555600	0.782500	0.521900
H351	H35	0.766600	0.792300	0.322400
H361	H36	0.625500	0.789000	0.628500
N101	N10	0.087200	0.278900	0.925300
C641	C64	0.144100	0.281900	0.887000
C651	C65	0.209900	0.286400	0.912100
C661	C66	0.216800	0.287100	0.984100
C671	C67	0.158100	0.286100	0.025900
C681	C68	0.095500	0.282500	0.994000
C691	C69	0.270800	0.289400	0.870800
C701	C70	0.165100	0.288300	0.100200
H371	H37	0.138600	0.280900	0.838600
H381	H38	0.055600	0.282500	0.021900
H391	H39	0.266600	0.292300	0.822400
H401	H40	0.125500	0.289000	0.128500
N111	N11	0.912800	0.221100	0.925300
C711	C71	0.855900	0.218100	0.887000
C721	C72	0.790100	0.213600	0.912100
C731	C73	0.783200	0.212900	0.984100
C741	C74	0.841900	0.213900	0.025900
C751	C75	0.904500	0.217500	0.994000
C761	C76	0.729200	0.210600	0.870800
C771	C77	0.834900	0.211700	0.100200
H411	H41	0.861400	0.219100	0.838600
H421	H42	0.944400	0.217500	0.021900
H431	H43	0.733400	0.207700	0.822400
H441	H44	0.874500	0.211000	0.128500
N121	N12	0.412800	0.721100	0.425300
C781	C78	0.355900	0.718100	0.387000
C791	C79	0.290100	0.713600	0.412100
C801	C80	0.283200	0.712900	0.484100
C811	C81	0.341900	0.713900	0.525900
C821	C82	0.404500	0.717500	0.494000
C831	C83	0.229200	0.710600	0.370800
C841	C84	0.334900	0.711700	0.600200
H451	H45	0.361400	0.719100	0.338600
H461	H46	0.444400	0.717500	0.521900
H471	H47	0.233400	0.707700	0.322400
H481	H48	0.374500	0.711000	0.628500
N131	N13	0.087200	0.721100	0.574700
C851	C85	0.144100	0.718100	0.613000
C861	C86	0.209900	0.713600	0.587900
C871	C87	0.216800	0.712900	0.515900
C881	C88	0.158100	0.713900	0.474100
C891	C89	0.095500	0.717500	0.506000
C901	C90	0.270800	0.710600	0.629200
C911	C91	0.165100	0.711700	0.399800
H491	H49	0.138600	0.719100	0.661400
H501	H50	0.055600	0.717500	0.478100
H511	H51	0.266600	0.707700	0.677600
H521	H52	0.125500	0.711000	0.371500
N141	N14	0.587200	0.221100	0.074700
C921	C92	0.644100	0.218100	0.113000
C931	C93	0.709900	0.213600	0.087900
C941	C94	0.716800	0.212900	0.015900
C951	C95	0.658100	0.213900	0.974100
C961	C96	0.595500	0.217500	0.006000
C971	C97	0.770800	0.210600	0.129200
C981	C98	0.665100	0.211700	0.899800
H531	H53	0.638600	0.219100	0.161400
H541	H54	0.555600	0.217500	0.978100
H551	H55	0.766600	0.207700	0.177600
H561	H56	0.625500	0.211000	0.871500
N151	N15	0.412800	0.278900	0.074700
C991	C99	0.355900	0.281900	0.113000
C1001	C100	0.290100	0.286400	0.087900
C1011	C101	0.283200	0.287100	0.015900
C1021	C102	0.341900	0.286100	0.974100
C1031	C103	0.404500	0.282500	0.006000
C1041	C104	0.229200	0.289400	0.129200
C1051	C105	0.334900	0.288300	0.899800
H571	H57	0.361400	0.280900	0.161400
H581	H58	0.444400	0.282500	0.978100
H591	H59	0.233400	0.292300	0.177600
H601	H60	0.374500	0.289000	0.871500
N161	N16	0.912800	0.778900	0.574700
C1061	C106	0.855900	0.781900	0.613000
C1071	C107	0.790100	0.786400	0.587900
C1081	C108	0.783200	0.787100	0.515900
C1091	C109	0.841900	0.786100	0.474100
C1101	C110	0.904500	0.782500	0.506000
C1111	C111	0.729200	0.789400	0.629200
C1121	C112	0.834900	0.788300	0.399800
H611	H61	0.861400	0.780900	0.661400
H621	H62	0.944400	0.782500	0.478100
H631	H63	0.733400	0.792300	0.677600
H641	H64	0.874500	0.789000	0.371500
Cu11	Cu1	0.500000	0.250000	0.125000
Cu21	Cu2	0.000000	0.750000	0.625000
Cu31	Cu3	0.500000	0.750000	0.375000
Cu41	Cu4	0.000000	0.250000	0.875000
N171	N17	0.175300	0.528900	0.337200
C1131	C113	0.137000	0.531900	0.394100
C1141	C114	0.162100	0.536400	0.459900
C1151	C115	0.234100	0.537100	0.466800
C1161	C116	0.275900	0.536100	0.408100
C1171	C117	0.244000	0.532500	0.345500
C1181	C118	0.120800	0.539400	0.520800
C1191	C119	0.350200	0.538300	0.415100
H651	H65	0.088600	0.530900	0.388600
H661	H66	0.271900	0.532500	0.305600
H671	H67	0.072400	0.542300	0.516600
H681	H68	0.378500	0.539000	0.375500
N181	N18	0.675300	0.028900	0.837200
C1201	C120	0.637000	0.031900	0.894100
C1211	C121	0.662100	0.036400	0.959900
C1221	C122	0.734100	0.037100	0.966800
C1231	C123	0.775900	0.036100	0.908100
C1241	C124	0.744000	0.032500	0.845500
C1251	C125	0.620800	0.039400	0.020800
C1261	C126	0.850200	0.038300	0.915100
H691	H69	0.588600	0.030900	0.888600
H701	H70	0.771900	0.032500	0.805600
H711	H71	0.572400	0.042300	0.016600
H721	H72	0.878500	0.039000	0.875500
N191	N19	0.675300	0.971100	0.662800
C1271	C127	0.637000	0.968100	0.605900
C1281	C128	0.662100	0.963600	0.540100
C1291	C129	0.734100	0.962900	0.533200
C1301	C130	0.775900	0.963900	0.591900
C1311	C131	0.744000	0.967500	0.654500
C1321	C132	0.620800	0.960600	0.479200
C1331	C133	0.850200	0.961700	0.584900
H731	H73	0.588600	0.969100	0.611400
H741	H74	0.771900	0.967500	0.694400
H751	H75	0.572400	0.957700	0.483400
H761	H76	0.878500	0.961000	0.624500
N201	N20	0.175300	0.471100	0.162800
C1341	C134	0.137000	0.468100	0.105900
C1351	C135	0.162100	0.463600	0.040100
C1361	C136	0.234100	0.462900	0.033200
C1371	C137	0.275900	0.463900	0.091900
C1381	C138	0.244000	0.467500	0.154500
C1391	C139	0.120800	0.460600	0.979200
C1401	C140	0.350200	0.461700	0.084900
H771	H77	0.088600	0.469100	0.111400
H781	H78	0.271900	0.467500	0.194400
H791	H79	0.072400	0.457700	0.983400
H801	H80	0.378500	0.461000	0.124500
N211	N21	0.324700	0.471100	0.837200
C1411	C141	0.363000	0.468100	0.894100
C1421	C142	0.337900	0.463600	0.959900
C1431	C143	0.265900	0.462900	0.966800
C1441	C144	0.224100	0.463900	0.908100
C1451	C145	0.256000	0.467500	0.845500
C1461	C146	0.379200	0.460600	0.020800
C1471	C147	0.149800	0.461700	0.915100
H811	H81	0.411400	0.469100	0.888600
H821	H82	0.228100	0.467500	0.805600
H831	H83	0.427600	0.457700	0.016600
H841	H84	0.121500	0.461000	0.875500
N221	N22	0.824700	0.971100	0.337200
C1481	C148	0.863000	0.968100	0.394100
C1491	C149	0.837900	0.963600	0.459900
C1501	C150	0.765900	0.962900	0.466800
C1511	C151	0.724100	0.963900	0.408100
C1521	C152	0.756000	0.967500	0.345500
C1531	C153	0.879200	0.960600	0.520800
C1541	C154	0.649800	0.961700	0.415100
H851	H85	0.911400	0.969100	0.388600
H861	H86	0.728100	0.967500	0.305600
H871	H87	0.927600	0.957700	0.516600
H881	H88	0.621500	0.961000	0.375500
N231	N23	0.824700	0.028900	0.162800
C1551	C155	0.863000	0.031900	0.105900
C1561	C156	0.837900	0.036400	0.040100
C1571	C157	0.765900	0.037100	0.033200
C1581	C158	0.724100	0.036100	0.091900
C1591	C159	0.756000	0.032500	0.154500
C1601	C160	0.879200	0.039400	0.979200
C1611	C161	0.649800	0.038300	0.084900
H891	H89	0.911400	0.030900	0.111400
H901	H90	0.728100	0.032500	0.194400
H911	H91	0.927600	0.042300	0.983400
H921	H92	0.621500	0.039000	0.124500
N241	N24	0.324700	0.528900	0.662800
C1621	C162	0.363000	0.531900	0.605900
C1631	C163	0.337900	0.536400	0.540100
C1641	C164	0.265900	0.537100	0.533200
C1651	C165	0.224100	0.536100	0.591900
C1661	C166	0.256000	0.532500	0.654500
C1671	C167	0.379200	0.539400	0.479200
C1681	C168	0.149800	0.538300	0.584900
H931	H93	0.411400	0.530900	0.611400
H941	H94	0.228100	0.532500	0.694400
H951	H95	0.427600	0.542300	0.483400
H961	H96	0.121500	0.539000	0.624500
N251	N25	0.425300	0.587200	0.778900
C1691	C169	0.387000	0.644100	0.781900
C1701	C170	0.412100	0.709900	0.786400
C1711	C171	0.484100	0.716800	0.787100
C1721	C172	0.525900	0.658100	0.786100
C1731	C173	0.494000	0.595500	0.782500
C1741	C174	0.370800	0.770800	0.789400
C1751	C175	0.600200	0.665100	0.788300
H971	H97	0.338600	0.638600	0.780900
H981	H98	0.521900	0.555600	0.782500
H991	H99	0.322400	0.766600	0.792300
H1001	H100	0.628500	0.625500	0.789000
N261	N26	0.925300	0.087200	0.278900
C1761	C176	0.887000	0.144100	0.281900
C1771	C177	0.912100	0.209900	0.286400
C1781	C178	0.984100	0.216800	0.287100
C1791	C179	0.025900	0.158100	0.286100
C1801	C180	0.994000	0.095500	0.282500
C1811	C181	0.870800	0.270800	0.289400
C1821	C182	0.100200	0.165100	0.288300
H1011	H101	0.838600	0.138600	0.280900
H1021	H102	0.021900	0.055600	0.282500
H1031	H103	0.822400	0.266600	0.292300
H1041	H104	0.128500	0.125500	0.289000
N271	N27	0.925300	0.912800	0.221100
C1831	C183	0.887000	0.855900	0.218100
C1841	C184	0.912100	0.790100	0.213600
C1851	C185	0.984100	0.783200	0.212900
C1861	C186	0.025900	0.841900	0.213900
C1871	C187	0.994000	0.904500	0.217500
C1881	C188	0.870800	0.729200	0.210600
C1891	C189	0.100200	0.834900	0.211700
H1051	H105	0.838600	0.861400	0.219100
H1061	H106	0.021900	0.944400	0.217500
H1071	H107	0.822400	0.733400	0.207700
H1081	H108	0.128500	0.874500	0.211000
N281	N28	0.425300	0.412800	0.721100
C1901	C190	0.387000	0.355900	0.718100
C1911	C191	0.412100	0.290100	0.713600
C1921	C192	0.484100	0.283200	0.712900
C1931	C193	0.525900	0.341900	0.713900
C1941	C194	0.494000	0.404500	0.717500
C1951	C195	0.370800	0.229200	0.710600
C1961	C196	0.600200	0.334900	0.711700
H1091	H109	0.338600	0.361400	0.719100
H1101	H110	0.521900	0.444400	0.717500
H1111	H111	0.322400	0.233400	0.707700
H1121	H112	0.628500	0.374500	0.711000
N291	N29	0.574700	0.087200	0.721100
C1971	C197	0.613000	0.144100	0.718100
C1981	C198	0.587900	0.209900	0.713600
C1991	C199	0.515900	0.216800	0.712900
C2001	C200	0.474100	0.158100	0.713900
C2011	C201	0.506000	0.095500	0.717500
C2021	C202	0.629200	0.270800	0.710600
C2031	C203	0.399800	0.165100	0.711700
H1131	H113	0.661400	0.138600	0.719100
H1141	H114	0.478100	0.055600	0.717500
H1151	H115	0.677600	0.266600	0.707700
H1161	H116	0.371500	0.125500	0.711000
N301	N30	0.074700	0.587200	0.221100
C2041	C204	0.113000	0.644100	0.218100
C2051	C205	0.087900	0.709900	0.213600
C2061	C206	0.015900	0.716800	0.212900
C2071	C207	0.974100	0.658100	0.213900
C2081	C208	0.006000	0.595500	0.217500
C2091	C209	0.129200	0.770800	0.210600
C2101	C210	0.899800	0.665100	0.211700
H1171	H117	0.161400	0.638600	0.219100
H1181	H118	0.978100	0.555600	0.217500
H1191	H119	0.177600	0.766600	0.207700
H1201	H120	0.871500	0.625500	0.211000
N311	N31	0.074700	0.412800	0.278900
C2111	C211	0.113000	0.355900	0.281900
C2121	C212	0.087900	0.290100	0.286400
C2131	C213	0.015900	0.283200	0.287100
C2141	C214	0.974100	0.341900	0.286100
C2151	C215	0.006000	0.404500	0.282500
C2161	C216	0.129200	0.229200	0.289400
C2171	C217	0.899800	0.334900	0.288300
H1211	H121	0.161400	0.361400	0.280900
H1221	H122	0.978100	0.444400	0.282500
H1231	H123	0.177600	0.233400	0.292300
H1241	H124	0.871500	0.374500	0.289000
N321	N32	0.574700	0.912800	0.778900
C2181	C218	0.613000	0.855900	0.781900
C2191	C219	0.587900	0.790100	0.786400
C2201	C220	0.515900	0.783200	0.787100
C2211	C221	0.474100	0.841900	0.786100
C2221	C222	0.506000	0.904500	0.782500
C2231	C223	0.629200	0.729200	0.789400
C2241	C224	0.399800	0.834900	0.788300
H1251	H125	0.661400	0.861400	0.780900
H1261	H126	0.478100	0.944400	0.782500
H1271	H127	0.677600	0.733400	0.792300
H1281	H128	0.371500	0.874500	0.789000
Cu51	Cu5	0.125000	0.500000	0.250000
Cu61	Cu6	0.625000	0.000000	0.750000
Cu71	Cu7	0.375000	0.500000	0.750000
Cu81	Cu8	0.875000	0.000000	0.250000
N331	N33	0.337200	0.175300	0.528900
C2251	C225	0.394100	0.137000	0.531900
C2261	C226	0.459900	0.162100	0.536400
C2271	C227	0.466800	0.234100	0.537100
C2281	C228	0.408100	0.275900	0.536100
C2291	C229	0.345500	0.244000	0.532500
C2301	C230	0.520800	0.120800	0.539400
C2311	C231	0.415100	0.350200	0.538300
H1291	H129	0.388600	0.088600	0.530900
H1301	H130	0.305600	0.271900	0.532500
H1311	H131	0.516600	0.072400	0.542300
H1321	H132	0.375500	0.378500	0.539000
N341	N34	0.837200	0.675300	0.028900
C2321	C232	0.894100	0.637000	0.031900
C2331	C233	0.959900	0.662100	0.036400
C2341	C234	0.966800	0.734100	0.037100
C2351	C235	0.908100	0.775900	0.036100
C2361	C236	0.845500	0.744000	0.032500
C2371	C237	0.020800	0.620800	0.039400
C2381	C238	0.915100	0.850200	0.038300
H1331	H133	0.888600	0.588600	0.030900
H1341	H134	0.805600	0.771900	0.032500
H1351	H135	0.016600	0.572400	0.042300
H1361	H136	0.875500	0.878500	0.039000
N351	N35	0.662800	0.675300	0.971100
C2391	C239	0.605900	0.637000	0.968100
C2401	C240	0.540100	0.662100	0.963600
C2411	C241	0.533200	0.734100	0.962900
C2421	C242	0.591900	0.775900	0.963900
C2431	C243	0.654500	0.744000	0.967500
C2441	C244	0.479200	0.620800	0.960600
C2451	C245	0.584900	0.850200	0.961700
H1371	H137	0.611400	0.588600	0.969100
H1381	H138	0.694400	0.771900	0.967500
H1391	H139	0.483400	0.572400	0.957700
H1401	H140	0.624500	0.878500	0.961000
N361	N36	0.162800	0.175300	0.471100
C2461	C246	0.105900	0.137000	0.468100
C2471	C247	0.040100	0.162100	0.463600
C2481	C248	0.033200	0.234100	0.462900
C2491	C249	0.091900	0.275900	0.463900
C2501	C250	0.154500	0.244000	0.467500
C2511	C251	0.979200	0.120800	0.460600
C2521	C252	0.084900	0.350200	0.461700
H1411	H141	0.111400	0.088600	0.469100
H1421	H142	0.194400	0.271900	0.467500
H1431	H143	0.983400	0.072400	0.457700
H1441	H144	0.124500	0.378500	0.461000
N371	N37	0.837200	0.324700	0.471100
C2531	C253	0.894100	0.363000	0.468100
C2541	C254	0.959900	0.337900	0.463600
C2551	C255	0.966800	0.265900	0.462900
C2561	C256	0.908100	0.224100	0.463900
C2571	C257	0.845500	0.256000	0.467500
C2581	C258	0.020800	0.379200	0.460600
C2591	C259	0.915100	0.149800	0.461700
H1451	H145	0.888600	0.411400	0.469100
H1461	H146	0.805600	0.228100	0.467500
H1471	H147	0.016600	0.427600	0.457700
H1481	H148	0.875500	0.121500	0.461000
N381	N38	0.337200	0.824700	0.971100
C2601	C260	0.394100	0.863000	0.968100
C2611	C261	0.459900	0.837900	0.963600
C2621	C262	0.466800	0.765900	0.962900
C2631	C263	0.408100	0.724100	0.963900
C2641	C264	0.345500	0.756000	0.967500
C2651	C265	0.520800	0.879200	0.960600
C2661	C266	0.415100	0.649800	0.961700
H1491	H149	0.388600	0.911400	0.969100
H1501	H150	0.305600	0.728100	0.967500
H1511	H151	0.516600	0.927600	0.957700
H1521	H152	0.375500	0.621500	0.961000
N391	N39	0.162800	0.824700	0.028900
C2671	C267	0.105900	0.863000	0.031900
C2681	C268	0.040100	0.837900	0.036400
C2691	C269	0.033200	0.765900	0.037100
C2701	C270	0.091900	0.724100	0.036100
C2711	C271	0.154500	0.756000	0.032500
C2721	C272	0.979200	0.879200	0.039400
C2731	C273	0.084900	0.649800	0.038300
H1531	H153	0.111400	0.911400	0.030900
H1541	H154	0.194400	0.728100	0.032500
H1551	H155	0.983400	0.927600	0.042300
H1561	H156	0.124500	0.621500	0.039000
N401	N40	0.662800	0.324700	0.528900
C2741	C274	0.605900	0.363000	0.531900
C2751	C275	0.540100	0.337900	0.536400
C2761	C276	0.533200	0.265900	0.537100
C2771	C277	0.591900	0.224100	0.536100
C2781	C278	0.654500	0.256000	0.532500
C2791	C279	0.479200	0.379200	0.539400
C2801	C280	0.584900	0.149800	0.538300
H1571	H157	0.611400	0.411400	0.530900
H1581	H158	0.694400	0.228100	0.532500
H1591	H159	0.483400	0.427600	0.542300
H1601	H160	0.624500	0.121500	0.539000
N411	N41	0.778900	0.425300	0.587200
C2811	C281	0.781900	0.387000	0.644100
C2821	C282	0.786400	0.412100	0.709900
C2831	C283	0.787100	0.484100	0.716800
C2841	C284	0.786100	0.525900	0.658100
C2851	C285	0.782500	0.494000	0.595500
C2861	C286	0.789400	0.370800	0.770800
C2871	C287	0.788300	0.600200	0.665100
H1611	H161	0.780900	0.338600	0.638600
H1621	H162	0.782500	0.521900	0.555600
H1631	H163	0.792300	0.322400	0.766600
H1641	H164	0.789000	0.628500	0.625500
N421	N42	0.278900	0.925300	0.087200
C2881	C288	0.281900	0.887000	0.144100
C2891	C289	0.286400	0.912100	0.209900
C2901	C290	0.287100	0.984100	0.216800
C2911	C291	0.286100	0.025900	0.158100
C2921	C292	0.282500	0.994000	0.095500
C2931	C293	0.289400	0.870800	0.270800
C2941	C294	0.288300	0.100200	0.165100
H1651	H165	0.280900	0.838600	0.138600
H1661	H166	0.282500	0.021900	0.055600
H1671	H167	0.292300	0.822400	0.266600
H1681	H168	0.289000	0.128500	0.125500
N431	N43	0.221100	0.925300	0.912800
C2951	C295	0.218100	0.887000	0.855900
C2961	C296	0.213600	0.912100	0.790100
C2971	C297	0.212900	0.984100	0.783200
C2981	C298	0.213900	0.025900	0.841900
C2991	C299	0.217500	0.994000	0.904500
C3001	C300	0.210600	0.870800	0.729200
C3011	C301	0.211700	0.100200	0.834900
H1691	H169	0.219100	0.838600	0.861400
H1701	H170	0.217500	0.021900	0.944400
H1711	H171	0.207700	0.822400	0.733400
H1721	H172	0.211000	0.128500	0.874500
N441	N44	0.721100	0.425300	0.412800
C3021	C302	0.718100	0.387000	0.355900
C3031	C303	0.713600	0.412100	0.290100
C3041	C304	0.712900	0.484100	0.283200
C3051	C305	0.713900	0.525900	0.341900
C3061	C306	0.717500	0.494000	0.404500
C3071	C307	0.710600	0.370800	0.229200
C3081	C308	0.711700	0.600200	0.334900
H1731	H173	0.719100	0.338600	0.361400
H1741	H174	0.717500	0.521900	0.444400
H1751	H175	0.707700	0.322400	0.233400
H1761	H176	0.711000	0.628500	0.374500
N451	N45	0.721100	0.574700	0.087200
C3091	C309	0.718100	0.613000	0.144100
C3101	C310	0.713600	0.587900	0.209900
C3111	C311	0.712900	0.515900	0.216800
C3121	C312	0.713900	0.474100	0.158100
C3131	C313	0.717500	0.506000	0.095500
C3141	C314	0.710600	0.629200	0.270800
C3151	C315	0.711700	0.399800	0.165100
H1771	H177	0.719100	0.661400	0.138600
H1781	H178	0.717500	0.478100	0.055600
H1791	H179	0.707700	0.677600	0.266600
H1801	H180	0.711000	0.371500	0.125500
N461	N46	0.221100	0.074700	0.587200
C3161	C316	0.218100	0.113000	0.644100
C3171	C317	0.213600	0.087900	0.709900
C3181	C318	0.212900	0.015900	0.716800
C3191	C319	0.213900	0.974100	0.658100
C3201	C320	0.217500	0.006000	0.595500
C3211	C321	0.210600	0.129200	0.770800
C3221	C322	0.211700	0.899800	0.665100
H1811	H181	0.219100	0.161400	0.638600
H1821	H182	0.217500	0.978100	0.555600
H1831	H183	0.207700	0.177600	0.766600
H1841	H184	0.211000	0.871500	0.625500
N471	N47	0.278900	0.074700	0.412800
C3231	C323	0.281900	0.113000	0.355900
C3241	C324	0.286400	0.087900	0.290100
C3251	C325	0.287100	0.015900	0.283200
C3261	C326	0.286100	0.974100	0.341900
C3271	C327	0.282500	0.006000	0.404500
C3281	C328	0.289400	0.129200	0.229200
C3291	C329	0.288300	0.899800	0.334900
H1851	H185	0.280900	0.161400	0.361400
H1861	H186	0.282500	0.978100	0.444400
H1871	H187	0.292300	0.177600	0.233400
H1881	H188	0.289000	0.871500	0.374500
N481	N48	0.778900	0.574700	0.912800
C3301	C330	0.781900	0.613000	0.855900
C3311	C331	0.786400	0.587900	0.790100
C3321	C332	0.787100	0.515900	0.783200
C3331	C333	0.786100	0.474100	0.841900
C3341	C334	0.782500	0.506000	0.904500
C3351	C335	0.789400	0.629200	0.729200
C3361	C336	0.788300	0.399800	0.834900
H1891	H189	0.780900	0.661400	0.861400
H1901	H190	0.782500	0.478100	0.944400
H1911	H191	0.792300	0.677600	0.733400
H1921	H192	0.789000	0.371500	0.874500
Cu91	Cu9	0.250000	0.125000	0.500000
Cu101	Cu10	0.750000	0.625000	0.000000
Cu111	Cu11	0.750000	0.375000	0.500000
Cu121	Cu12	0.250000	0.875000	0.000000
