data_NIHBEM02_freeONLY_PM
_symmetry_space_group_name_H-M	'P1'
_cell_length_a	9.992200
_cell_length_b	11.413600
_cell_length_c	14.970700
_cell_angle_alpha	91.121600
_cell_angle_beta	90.000000
_cell_angle_gamma	90.000000
_symmetry_Int_Tables_number 1

loop_
_symmetry_equiv_pos_as_xyz
'x,y,z'

loop_
_atom_site_label
_atom_site_type_symbol
_atom_site_fract_x
_atom_site_fract_y
_atom_site_fract_z
Fe11	Fe1	0.924060	0.754820	0.133710
Fe21	Fe2	0.884190	0.261320	0.692740
Fe31	Fe3	0.424060	0.745180	0.366290
Fe41	Fe4	0.384190	0.238680	0.807260
Fe51	Fe5	0.075940	0.245180	0.866290
Fe61	Fe6	0.115810	0.738680	0.307260
Fe71	Fe7	0.575940	0.254820	0.633710
Fe81	Fe8	0.615810	0.761320	0.192740
Fe91	Fe9	0.000000	0.500000	0.000000
Fe101	Fe10	0.500000	0.000000	0.500000
Fe111	Fe11	0.000000	0.000000	0.000000
Fe121	Fe12	0.500000	0.500000	0.500000
H11	H1	0.765000	0.859000	0.369000
H21	H2	0.054000	0.478000	0.259000
H31	H3	0.623000	0.558000	0.054000
H41	H4	0.221000	0.974000	0.218000
H51	H5	0.146000	0.697000	0.926000
H61	H6	0.710000	0.993000	0.020000
H71	H7	0.265000	0.641000	0.131000
H81	H8	0.554000	0.022000	0.241000
H91	H9	0.123000	0.942000	0.446000
H101	H10	0.721000	0.526000	0.282000
H111	H11	0.646000	0.803000	0.574000
H121	H12	0.210000	0.507000	0.480000
H131	H13	0.235000	0.141000	0.631000
H141	H14	0.946000	0.522000	0.741000
H151	H15	0.377000	0.442000	0.946000
H161	H16	0.779000	0.026000	0.782000
H171	H17	0.854000	0.303000	0.074000
H181	H18	0.290000	0.007000	0.980000
H191	H19	0.735000	0.359000	0.869000
H201	H20	0.446000	0.978000	0.759000
H211	H21	0.877000	0.058000	0.554000
H221	H22	0.279000	0.474000	0.718000
H231	H23	0.354000	0.197000	0.426000
H241	H24	0.790000	0.493000	0.520000
C11	C1	0.835400	0.827600	0.329500
C21	C2	0.028200	0.517000	0.206400
C31	C3	0.714700	0.570900	0.058300
C41	C4	0.142500	0.947100	0.178700
C51	C5	0.094800	0.742700	0.965200
C61	C6	0.725500	0.933200	0.059500
C71	C7	0.335400	0.672400	0.170500
C81	C8	0.528200	0.983000	0.293600
C91	C9	0.214700	0.929100	0.441700
C101	C10	0.642500	0.552900	0.321300
C111	C11	0.594800	0.757300	0.534800
C121	C12	0.225500	0.566800	0.440500
C131	C13	0.164600	0.172400	0.670500
C141	C14	0.971800	0.483000	0.793600
C151	C15	0.285300	0.429100	0.941700
C161	C16	0.857500	0.052900	0.821300
C171	C17	0.905200	0.257300	0.034800
C181	C18	0.274500	0.066800	0.940500
C191	C19	0.664600	0.327600	0.829500
C201	C20	0.471800	0.017000	0.706400
C211	C21	0.785300	0.070900	0.558300
C221	C22	0.357500	0.447100	0.678700
C231	C23	0.405200	0.242700	0.465200
C241	C24	0.774500	0.433200	0.559500
O11	O1	0.806850	0.807590	0.248390
O21	O2	0.946050	0.811300	0.365300
O31	O3	0.011830	0.626230	0.215530
O41	O4	0.016500	0.459420	0.136720
O51	O5	0.746050	0.652560	0.112760
O61	O6	0.791000	0.513480	0.010380
O71	O7	0.088310	0.848860	0.193160
O81	O8	0.117300	0.012620	0.116620
O91	O9	0.024940	0.686540	0.021640
O101	O10	0.102700	0.849180	0.959180
O111	O11	0.846790	0.898970	0.065270
O121	O12	0.628530	0.894170	0.100570
O131	O13	0.306850	0.692410	0.251610
O141	O14	0.446050	0.688700	0.134700
O151	O15	0.511830	0.873770	0.284470
O161	O16	0.516500	0.040580	0.363280
O171	O17	0.246050	0.847440	0.387240
O181	O18	0.291000	0.986520	0.489620
O191	O19	0.588310	0.651140	0.306840
O201	O20	0.617300	0.487380	0.383380
O211	O21	0.524940	0.813460	0.478360
O221	O22	0.602700	0.650820	0.540820
O231	O23	0.346790	0.601030	0.434730
O241	O24	0.128530	0.605830	0.399430
O251	O25	0.193150	0.192410	0.751610
O261	O26	0.053950	0.188700	0.634700
O271	O27	0.988170	0.373770	0.784470
O281	O28	0.983500	0.540580	0.863280
O291	O29	0.253950	0.347440	0.887240
O301	O30	0.209000	0.486520	0.989620
O311	O31	0.911690	0.151140	0.806840
O321	O32	0.882700	0.987380	0.883380
O331	O33	0.975060	0.313460	0.978360
O341	O34	0.897300	0.150820	0.040820
O351	O35	0.153210	0.101030	0.934730
O361	O36	0.371470	0.105830	0.899430
O371	O37	0.693150	0.307590	0.748390
O381	O38	0.553950	0.311300	0.865300
O391	O39	0.488170	0.126230	0.715530
O401	O40	0.483500	0.959420	0.636720
O411	O41	0.753950	0.152560	0.612760
O421	O42	0.709000	0.013480	0.510380
O431	O43	0.411690	0.348860	0.693160
O441	O44	0.382700	0.512620	0.616620
O451	O45	0.475060	0.186540	0.521640
O461	O46	0.397300	0.349180	0.459180
O471	O47	0.653210	0.398970	0.565270
O481	O48	0.871470	0.394170	0.600570
