data_NIHBAI01_freeONLY_PM
_symmetry_space_group_name_H-M	'P1'
_cell_length_a	11.380600
_cell_length_b	9.845100
_cell_length_c	18.388300
_cell_angle_alpha	90.000000
_cell_angle_beta	126.909000
_cell_angle_gamma	90.000000
_symmetry_Int_Tables_number 1

loop_
_symmetry_equiv_pos_as_xyz
'x,y,z'

loop_
_atom_site_label
_atom_site_type_symbol
_atom_site_fract_x
_atom_site_fract_y
_atom_site_fract_z
Fe11	Fe1	0.377540	0.084030	0.133080
Fe21	Fe2	0.426510	0.103800	0.687380
O11	O1	0.435400	0.205800	0.245690
O21	O2	0.550500	0.068300	0.366900
O31	O3	0.591000	0.001500	0.219350
O41	O4	0.678300	0.001600	0.138360
O51	O5	0.454400	0.261800	0.107170
O61	O6	0.482500	0.210300	0.000190
O71	O7	0.345500	0.920100	0.195940
O81	O8	0.103800	0.896800	0.120600
O91	O9	0.336700	0.975000	0.023090
O101	O10	0.114900	0.892300	0.967200
O111	O11	0.159400	0.156800	0.059860
O121	O12	0.201000	0.380000	0.091980
C11	C1	0.495600	0.177800	0.329100
H11	H1	0.498100	0.248200	0.365300
C21	C2	0.693400	0.990100	0.210700
H21	H2	0.789300	0.971300	0.264000
C31	C3	0.474000	0.291700	0.047900
H31	H3	0.483000	0.385300	0.039600
C41	C4	0.232300	0.872600	0.184900
H41	H4	0.248000	0.812700	0.230500
C51	C5	0.224200	0.899800	0.969300
H51	H5	0.225900	0.845100	0.927400
C61	C6	0.118700	0.282200	0.051000
H61	H6	0.016500	0.300700	0.009200
Fe31	Fe3	0.622460	0.584030	0.366920
Fe41	Fe4	0.573490	0.603800	0.812620
O131	O13	0.564600	0.705800	0.254310
O141	O14	0.449500	0.568300	0.133100
O151	O15	0.409000	0.501500	0.280650
O161	O16	0.321700	0.501600	0.361640
O171	O17	0.545600	0.761800	0.392830
O181	O18	0.517500	0.710300	0.499810
O191	O19	0.654500	0.420100	0.304060
O201	O20	0.896200	0.396800	0.379400
O211	O21	0.663300	0.475000	0.476910
O221	O22	0.885100	0.392300	0.532800
O231	O23	0.840600	0.656800	0.440140
O241	O24	0.799000	0.880000	0.408020
C71	C7	0.504400	0.677800	0.170900
H71	H7	0.501900	0.748200	0.134700
C81	C8	0.306600	0.490100	0.289300
H81	H8	0.210700	0.471300	0.236000
C91	C9	0.526000	0.791700	0.452100
H91	H9	0.517000	0.885300	0.460400
C101	C10	0.767700	0.372600	0.315100
H101	H10	0.752000	0.312700	0.269500
C111	C11	0.775800	0.399800	0.530700
H111	H11	0.774100	0.345100	0.572600
C121	C12	0.881300	0.782200	0.449000
H121	H12	0.983500	0.800700	0.490800
Fe51	Fe5	0.622460	0.915970	0.866920
Fe61	Fe6	0.573490	0.896200	0.312620
O251	O25	0.564600	0.794200	0.754310
O261	O26	0.449500	0.931700	0.633100
O271	O27	0.409000	0.998500	0.780650
O281	O28	0.321700	0.998400	0.861640
O291	O29	0.545600	0.738200	0.892830
O301	O30	0.517500	0.789700	0.999810
O311	O31	0.654500	0.079900	0.804060
O321	O32	0.896200	0.103200	0.879400
O331	O33	0.663300	0.025000	0.976910
O341	O34	0.885100	0.107700	0.032800
O351	O35	0.840600	0.843200	0.940140
O361	O36	0.799000	0.620000	0.908020
C131	C13	0.504400	0.822200	0.670900
H131	H13	0.501900	0.751800	0.634700
C141	C14	0.306600	0.009900	0.789300
H141	H14	0.210700	0.028700	0.736000
C151	C15	0.526000	0.708300	0.952100
H151	H15	0.517000	0.614700	0.960400
C161	C16	0.767700	0.127400	0.815100
H161	H16	0.752000	0.187300	0.769500
C171	C17	0.775800	0.100200	0.030700
H171	H17	0.774100	0.154900	0.072600
C181	C18	0.881300	0.717800	0.949000
H181	H18	0.983500	0.699300	0.990800
Fe71	Fe7	0.377540	0.415970	0.633080
Fe81	Fe8	0.426510	0.396200	0.187380
O371	O37	0.435400	0.294200	0.745690
O381	O38	0.550500	0.431700	0.866900
O391	O39	0.591000	0.498500	0.719350
O401	O40	0.678300	0.498400	0.638360
O411	O41	0.454400	0.238200	0.607170
O421	O42	0.482500	0.289700	0.500190
O431	O43	0.345500	0.579900	0.695940
O441	O44	0.103800	0.603200	0.620600
O451	O45	0.336700	0.525000	0.523090
O461	O46	0.114900	0.607700	0.467200
O471	O47	0.159400	0.343200	0.559860
O481	O48	0.201000	0.120000	0.591980
C191	C19	0.495600	0.322200	0.829100
H191	H19	0.498100	0.251800	0.865300
C201	C20	0.693400	0.509900	0.710700
H201	H20	0.789300	0.528700	0.764000
C211	C21	0.474000	0.208300	0.547900
H211	H21	0.483000	0.114700	0.539600
C221	C22	0.232300	0.627400	0.684900
H221	H22	0.248000	0.687300	0.730500
C231	C23	0.224200	0.600200	0.469300
H231	H23	0.225900	0.654900	0.427400
C241	C24	0.118700	0.217800	0.551000
H241	H24	0.016500	0.199300	0.509200
Fe91	Fe9	0.500000	0.000000	0.000000
Fe101	Fe10	0.500000	0.500000	0.500000
Fe111	Fe11	0.000000	0.000000	0.000000
Fe121	Fe12	0.000000	0.500000	0.500000
