data_NIJZIP01_freeONLY_PM
_symmetry_space_group_name_H-M	'P1'
_cell_length_a	14.751000
_cell_length_b	15.064500
_cell_length_c	15.064500
_cell_angle_alpha	120.000000
_cell_angle_beta	90.000000
_cell_angle_gamma	90.000000
_symmetry_Int_Tables_number 1

loop_
_symmetry_equiv_pos_as_xyz
'x,y,z'

loop_
_atom_site_label
_atom_site_type_symbol
_atom_site_fract_x
_atom_site_fract_y
_atom_site_fract_z
Nd11	Nd1	0.250000	0.333330	0.666660
Nd21	Nd2	0.250000	0.666670	0.333340
Nd31	Nd3	0.750000	0.666670	0.333340
Nd41	Nd4	0.750000	0.333330	0.666660
Cu11	Cu1	0.000000	0.500000	0.500000
Cu21	Cu2	0.000000	0.000000	0.500000
Cu31	Cu3	0.000000	0.500000	0.000000
Cu41	Cu4	0.500000	0.000000	0.500000
Cu51	Cu5	0.500000	0.500000	0.500000
Cu61	Cu6	0.500000	0.500000	0.000000
H11	H1	0.837300	0.788200	0.152600
H21	H2	0.759700	0.711000	0.088300
H31	H3	0.837300	0.364400	0.211800
H41	H4	0.759700	0.377300	0.289000
H51	H5	0.837300	0.847400	0.635600
H61	H6	0.759700	0.911700	0.622700
H71	H7	0.837300	0.211800	0.847400
H81	H8	0.759700	0.289000	0.911700
H91	H9	0.837300	0.635600	0.788200
H101	H10	0.759700	0.622700	0.711000
H111	H11	0.837300	0.152600	0.364400
H121	H12	0.759700	0.088300	0.377300
H131	H13	0.662700	0.635600	0.847400
H141	H14	0.740300	0.622700	0.911700
H151	H15	0.662700	0.152600	0.788200
H161	H16	0.740300	0.088300	0.711000
H171	H17	0.662700	0.211800	0.364400
H181	H18	0.740300	0.289000	0.377300
H191	H19	0.662700	0.364400	0.152600
H201	H20	0.740300	0.377300	0.088300
H211	H21	0.662700	0.847400	0.211800
H221	H22	0.740300	0.911700	0.289000
H231	H23	0.662700	0.788200	0.635600
H241	H24	0.740300	0.711000	0.622700
H251	H25	0.162700	0.211800	0.847400
H261	H26	0.240300	0.289000	0.911700
H271	H27	0.162700	0.635600	0.788200
H281	H28	0.240300	0.622700	0.711000
H291	H29	0.162700	0.152600	0.364400
H301	H30	0.240300	0.088300	0.377300
H311	H31	0.162700	0.788200	0.152600
H321	H32	0.240300	0.711000	0.088300
H331	H33	0.162700	0.364400	0.211800
H341	H34	0.240300	0.377300	0.289000
H351	H35	0.162700	0.847400	0.635600
H361	H36	0.240300	0.911700	0.622700
H371	H37	0.337300	0.364400	0.152600
H381	H38	0.259700	0.377300	0.088300
H391	H39	0.337300	0.847400	0.211800
H401	H40	0.259700	0.911700	0.289000
H411	H41	0.337300	0.788200	0.635600
H421	H42	0.259700	0.711000	0.622700
H431	H43	0.337300	0.635600	0.847400
H441	H44	0.259700	0.622700	0.911700
H451	H45	0.337300	0.152600	0.788200
H461	H46	0.259700	0.088300	0.711000
H471	H47	0.337300	0.211800	0.364400
H481	H48	0.259700	0.289000	0.377300
C11	C1	0.360100	0.127800	0.643600
C21	C2	0.699600	0.854000	0.268100
C31	C3	0.360100	0.515800	0.872200
C41	C4	0.699600	0.414100	0.146000
C51	C5	0.360100	0.356400	0.484200
C61	C6	0.699600	0.731900	0.585900
C71	C7	0.360100	0.872200	0.356400
C81	C8	0.699600	0.146000	0.731900
C91	C9	0.360100	0.484200	0.127800
C101	C10	0.699600	0.585900	0.854000
C111	C11	0.360100	0.643600	0.515800
C121	C12	0.699600	0.268100	0.414100
C131	C13	0.139900	0.484200	0.356400
C141	C14	0.800400	0.585900	0.731900
C151	C15	0.139900	0.643600	0.127800
C161	C16	0.800400	0.268100	0.854000
C171	C17	0.139900	0.872200	0.515800
C181	C18	0.800400	0.146000	0.414100
C191	C19	0.139900	0.515800	0.643600
C201	C20	0.800400	0.414100	0.268100
C211	C21	0.139900	0.356400	0.872200
C221	C22	0.800400	0.731900	0.146000
C231	C23	0.139900	0.127800	0.484200
C241	C24	0.800400	0.854000	0.585900
C251	C25	0.639900	0.872200	0.356400
C261	C26	0.300400	0.146000	0.731900
C271	C27	0.639900	0.484200	0.127800
C281	C28	0.300400	0.585900	0.854000
C291	C29	0.639900	0.643600	0.515800
C301	C30	0.300400	0.268100	0.414100
C311	C31	0.639900	0.127800	0.643600
C321	C32	0.300400	0.854000	0.268100
C331	C33	0.639900	0.515800	0.872200
C341	C34	0.300400	0.414100	0.146000
C351	C35	0.639900	0.356400	0.484200
C361	C36	0.300400	0.731900	0.585900
C371	C37	0.860100	0.515800	0.643600
C381	C38	0.199600	0.414100	0.268100
C391	C39	0.860100	0.356400	0.872200
C401	C40	0.199600	0.731900	0.146000
C411	C41	0.860100	0.127800	0.484200
C421	C42	0.199600	0.854000	0.585900
C431	C43	0.860100	0.484200	0.356400
C441	C44	0.199600	0.585900	0.731900
C451	C45	0.860100	0.643600	0.127800
C461	C46	0.199600	0.268100	0.854000
C471	C47	0.860100	0.872200	0.515800
C481	C48	0.199600	0.146000	0.414100
O11	O1	0.358900	0.192500	0.614400
O21	O2	0.407600	0.049000	0.607100
O31	O3	0.358900	0.421900	0.807500
O41	O4	0.407600	0.558100	0.951000
O51	O5	0.358900	0.385600	0.578100
O61	O6	0.407600	0.392900	0.441900
O71	O7	0.358900	0.807500	0.385600
O81	O8	0.407600	0.951000	0.392900
O91	O9	0.358900	0.578100	0.192500
O101	O10	0.407600	0.441900	0.049000
O111	O11	0.358900	0.614400	0.421900
O121	O12	0.407600	0.607100	0.558100
O131	O13	0.141100	0.578100	0.385600
O141	O14	0.092400	0.441900	0.392900
O151	O15	0.141100	0.614400	0.192500
O161	O16	0.092400	0.607100	0.049000
O171	O17	0.141100	0.807500	0.421900
O181	O18	0.092400	0.951000	0.558100
O191	O19	0.141100	0.421900	0.614400
O201	O20	0.092400	0.558100	0.607100
O211	O21	0.141100	0.385600	0.807500
O221	O22	0.092400	0.392900	0.951000
O231	O23	0.141100	0.192500	0.578100
O241	O24	0.092400	0.049000	0.441900
O251	O25	0.641100	0.807500	0.385600
O261	O26	0.592400	0.951000	0.392900
O271	O27	0.641100	0.578100	0.192500
O281	O28	0.592400	0.441900	0.049000
O291	O29	0.641100	0.614400	0.421900
O301	O30	0.592400	0.607100	0.558100
O311	O31	0.641100	0.192500	0.614400
O321	O32	0.592400	0.049000	0.607100
O331	O33	0.641100	0.421900	0.807500
O341	O34	0.592400	0.558100	0.951000
O351	O35	0.641100	0.385600	0.578100
O361	O36	0.592400	0.392900	0.441900
O371	O37	0.858900	0.421900	0.614400
O381	O38	0.907600	0.558100	0.607100
O391	O39	0.858900	0.385600	0.807500
O401	O40	0.907600	0.392900	0.951000
O411	O41	0.858900	0.192500	0.578100
O421	O42	0.907600	0.049000	0.441900
O431	O43	0.858900	0.578100	0.385600
O441	O44	0.907600	0.441900	0.392900
O451	O45	0.858900	0.614400	0.192500
O461	O46	0.907600	0.607100	0.049000
O471	O47	0.858900	0.807500	0.421900
O481	O48	0.907600	0.951000	0.558100
O491	O49	0.750000	0.763750	0.236250
O501	O50	0.750000	0.472500	0.236250
O511	O51	0.750000	0.763750	0.527500
O521	O52	0.750000	0.236250	0.763750
O531	O53	0.750000	0.527500	0.763750
O541	O54	0.750000	0.236250	0.472500
O551	O55	0.250000	0.236250	0.763750
O561	O56	0.250000	0.527500	0.763750
O571	O57	0.250000	0.236250	0.472500
O581	O58	0.250000	0.763750	0.236250
O591	O59	0.250000	0.472500	0.236250
O601	O60	0.250000	0.763750	0.527500
