data_NIKDAM_freeONLY_PM
_symmetry_space_group_name_H-M	'P1'
_cell_length_a	8.509000
_cell_length_b	17.157900
_cell_length_c	17.157900
_cell_angle_alpha	118.708000
_cell_angle_beta	97.494500
_cell_angle_gamma	82.505500
_symmetry_Int_Tables_number 1

loop_
_symmetry_equiv_pos_as_xyz
'x,y,z'

loop_
_atom_site_label
_atom_site_type_symbol
_atom_site_fract_x
_atom_site_fract_y
_atom_site_fract_z
Ce11	Ce1	0.250000	0.990930	0.990930
Ce21	Ce2	0.750000	0.009070	0.009070
H11	H1	0.869700	0.103500	0.649500
H21	H2	0.955200	0.803900	0.250100
H31	H3	0.843000	0.874900	0.251500
H41	H4	0.813600	0.795300	0.321500
H51	H5	0.788200	0.897000	0.392600
H61	H6	0.025100	0.808300	0.511500
H71	H7	0.834900	0.787400	0.462200
H81	H8	0.793200	0.946200	0.539800
H91	H9	0.826000	0.915200	0.597800
H101	H10	0.073900	0.958200	0.636800
H111	H11	0.064900	0.993100	0.565900
H121	H12	0.171200	0.866300	0.207700
H131	H13	0.237800	0.970600	0.283400
H141	H14	0.925400	0.948600	0.183400
H151	H15	0.988300	0.039900	0.252300
H161	H16	0.115500	0.719600	0.299400
H171	H17	0.046300	0.695700	0.362300
H181	H18	0.211400	0.777100	0.478900
H191	H19	0.331100	0.692400	0.384000
H201	H20	0.630300	0.649500	0.103500
H211	H21	0.544800	0.250100	0.803900
H221	H22	0.657000	0.251500	0.874900
H231	H23	0.686400	0.321500	0.795300
H241	H24	0.711800	0.392600	0.897000
H251	H25	0.474900	0.511500	0.808300
H261	H26	0.665100	0.462200	0.787400
H271	H27	0.706800	0.539800	0.946200
H281	H28	0.674000	0.597800	0.915200
H291	H29	0.426100	0.636800	0.958200
H301	H30	0.435100	0.565900	0.993100
H311	H31	0.328800	0.207700	0.866300
H321	H32	0.262200	0.283400	0.970600
H331	H33	0.574600	0.183400	0.948600
H341	H34	0.511700	0.252300	0.039900
H351	H35	0.384500	0.299400	0.719600
H361	H36	0.453700	0.362300	0.695700
H371	H37	0.288600	0.478900	0.777100
H381	H38	0.168900	0.384000	0.692400
H391	H39	0.130300	0.896500	0.350500
H401	H40	0.044800	0.196100	0.749900
H411	H41	0.157000	0.125100	0.748500
H421	H42	0.186400	0.204700	0.678500
H431	H43	0.211800	0.103000	0.607400
H441	H44	0.974900	0.191700	0.488500
H451	H45	0.165100	0.212600	0.537800
H461	H46	0.206800	0.053800	0.460200
H471	H47	0.174000	0.084800	0.402200
H481	H48	0.926100	0.041800	0.363200
H491	H49	0.935100	0.006900	0.434100
H501	H50	0.828800	0.133700	0.792300
H511	H51	0.762200	0.029400	0.716600
H521	H52	0.074600	0.051400	0.816600
H531	H53	0.011700	0.960100	0.747700
H541	H54	0.884500	0.280400	0.700600
H551	H55	0.953700	0.304300	0.637700
H561	H56	0.788600	0.222900	0.521100
H571	H57	0.668900	0.307600	0.616000
H581	H58	0.369700	0.350500	0.896500
H591	H59	0.455200	0.749900	0.196100
H601	H60	0.343000	0.748500	0.125100
H611	H61	0.313600	0.678500	0.204700
H621	H62	0.288200	0.607400	0.103000
H631	H63	0.525100	0.488500	0.191700
H641	H64	0.334900	0.537800	0.212600
H651	H65	0.293200	0.460200	0.053800
H661	H66	0.326000	0.402200	0.084800
H671	H67	0.573900	0.363200	0.041800
H681	H68	0.564900	0.434100	0.006900
H691	H69	0.671200	0.792300	0.133700
H701	H70	0.737800	0.716600	0.029400
H711	H71	0.425400	0.816600	0.051400
H721	H72	0.488300	0.747700	0.960100
H731	H73	0.615500	0.700600	0.280400
H741	H74	0.546300	0.637700	0.304300
H751	H75	0.711400	0.521100	0.222900
H761	H76	0.831100	0.616000	0.307600
C11	C1	0.072000	0.137000	0.715000
C21	C2	0.128000	0.156500	0.646100
C31	C3	0.068000	0.169400	0.511400
C41	C4	0.130000	0.078900	0.443100
C51	C5	0.996000	0.017900	0.394900
C61	C6	0.866000	0.067900	0.746500
C71	C7	0.976000	0.026600	0.795400
C81	C8	0.896100	0.028000	0.868600
C91	C9	0.105000	0.751800	0.367400
C101	C10	0.268000	0.757400	0.418400
C111	C11	0.366000	0.827000	0.423600
C121	C12	0.428000	0.715000	0.137000
C131	C13	0.372000	0.646100	0.156500
C141	C14	0.432000	0.511400	0.169400
C151	C15	0.370000	0.443100	0.078900
C161	C16	0.504000	0.394900	0.017900
C171	C17	0.634000	0.746500	0.067900
C181	C18	0.524000	0.795400	0.026600
C191	C19	0.603900	0.868600	0.028000
C201	C20	0.395000	0.367400	0.751800
C211	C21	0.232000	0.418400	0.757400
C221	C22	0.134000	0.423600	0.827000
C231	C23	0.928000	0.863000	0.285000
C241	C24	0.872000	0.843500	0.353900
C251	C25	0.932000	0.830600	0.488600
C261	C26	0.870000	0.921100	0.556900
C271	C27	0.004000	0.982100	0.605100
C281	C28	0.134000	0.932100	0.253500
C291	C29	0.024000	0.973400	0.204600
C301	C30	0.103900	0.972000	0.131400
C311	C31	0.895000	0.248200	0.632600
C321	C32	0.732000	0.242600	0.581600
C331	C33	0.634000	0.173000	0.576400
C341	C34	0.572000	0.285000	0.863000
C351	C35	0.628000	0.353900	0.843500
C361	C36	0.568000	0.488600	0.830600
C371	C37	0.630000	0.556900	0.921100
C381	C38	0.496000	0.605100	0.982100
C391	C39	0.366000	0.253500	0.932100
C401	C40	0.476000	0.204600	0.973400
C411	C41	0.396100	0.131400	0.972000
C421	C42	0.605000	0.632600	0.248200
C431	C43	0.768000	0.581600	0.242600
C441	C44	0.866000	0.576400	0.173000
N11	N1	0.945900	0.071500	0.674700
N21	N2	0.001000	0.167600	0.586600
N31	N3	0.554100	0.674700	0.071500
N41	N4	0.499000	0.586600	0.167600
N51	N5	0.054100	0.928500	0.325300
N61	N6	0.999000	0.832400	0.413400
N71	N7	0.445900	0.325300	0.928500
N81	N8	0.501000	0.413400	0.832400
O11	O1	0.985100	0.009400	0.925400
O21	O2	0.249800	0.957900	0.125100
O31	O3	0.329900	0.860200	0.372000
O41	O4	0.486000	0.846300	0.478700
O51	O5	0.682200	0.077900	0.167300
O61	O6	0.514900	0.925400	0.009400
O71	O7	0.250200	0.125100	0.957900
O81	O8	0.170100	0.372000	0.860200
O91	O9	0.014000	0.478700	0.846300
O101	O10	0.817800	0.167300	0.077900
O111	O11	0.014900	0.990600	0.074600
O121	O12	0.750200	0.042100	0.874900
O131	O13	0.670100	0.139800	0.628000
O141	O14	0.514000	0.153700	0.521300
O151	O15	0.317800	0.922100	0.832700
O161	O16	0.485100	0.074600	0.990600
O171	O17	0.749800	0.874900	0.042100
O181	O18	0.829900	0.628000	0.139800
O191	O19	0.986000	0.521300	0.153700
O201	O20	0.182200	0.832700	0.922100
