data_NIKYOW01_freeONLY_PM
_symmetry_space_group_name_H-M	'P1'
_cell_length_a	9.886200
_cell_length_b	11.357700
_cell_length_c	14.495900
_cell_angle_alpha	91.251600
_cell_angle_beta	90.000000
_cell_angle_gamma	90.000000
_symmetry_Int_Tables_number 1

loop_
_symmetry_equiv_pos_as_xyz
'x,y,z'

loop_
_atom_site_label
_atom_site_type_symbol
_atom_site_fract_x
_atom_site_fract_y
_atom_site_fract_z
Fe11	Fe1	0.918590	0.755400	0.132440
Fe21	Fe2	0.894550	0.260520	0.686100
Fe31	Fe3	0.418590	0.744600	0.367560
Fe41	Fe4	0.394550	0.239480	0.813900
Fe51	Fe5	0.081410	0.244600	0.867560
Fe61	Fe6	0.105450	0.739480	0.313900
Fe71	Fe7	0.581410	0.255400	0.632440
Fe81	Fe8	0.605450	0.760520	0.186100
Fe91	Fe9	0.000000	0.500000	0.000000
Fe101	Fe10	0.500000	0.000000	0.500000
Fe111	Fe11	0.000000	0.000000	0.000000
Fe121	Fe12	0.500000	0.500000	0.500000
H11	H1	0.749500	0.859200	0.368600
H21	H2	0.024500	0.474000	0.269000
H31	H3	0.616600	0.556700	0.036300
H41	H4	0.174900	0.988900	0.240200
H51	H5	0.166800	0.697800	0.930600
H61	H6	0.699800	0.983800	0.999600
H71	H7	0.249500	0.640800	0.131400
H81	H8	0.524500	0.026000	0.231000
H91	H9	0.116600	0.943300	0.463700
H101	H10	0.674900	0.511100	0.259800
H111	H11	0.666800	0.802200	0.569400
H121	H12	0.199800	0.516200	0.500400
H131	H13	0.250500	0.140800	0.631400
H141	H14	0.975500	0.526000	0.731000
H151	H15	0.383400	0.443300	0.963700
H161	H16	0.825100	0.011100	0.759800
H171	H17	0.833200	0.302200	0.069400
H181	H18	0.300200	0.016200	0.000400
H191	H19	0.750500	0.359200	0.868600
H201	H20	0.475500	0.974000	0.769000
H211	H21	0.883400	0.056700	0.536300
H221	H22	0.325100	0.488900	0.740200
H231	H23	0.333200	0.197800	0.430600
H241	H24	0.800200	0.483800	0.499600
C11	C1	0.821500	0.828650	0.331850
C21	C2	0.007500	0.515100	0.213800
C31	C3	0.709800	0.574500	0.044600
C41	C4	0.120200	0.958200	0.191400
C51	C5	0.109500	0.743380	0.969880
C61	C6	0.716400	0.926620	0.045120
C71	C7	0.321500	0.671350	0.168150
C81	C8	0.507500	0.984900	0.286200
C91	C9	0.209800	0.925500	0.455400
C101	C10	0.620200	0.541800	0.308600
C111	C11	0.609500	0.756620	0.530120
C121	C12	0.216400	0.573380	0.454880
C131	C13	0.178500	0.171350	0.668150
C141	C14	0.992500	0.484900	0.786200
C151	C15	0.290200	0.425500	0.955400
C161	C16	0.879800	0.041800	0.808600
C171	C17	0.890500	0.256620	0.030120
C181	C18	0.283600	0.073380	0.954880
C191	C19	0.678500	0.328650	0.831850
C201	C20	0.492500	0.015100	0.713800
C211	C21	0.790200	0.074500	0.544600
C221	C22	0.379800	0.458200	0.691400
C231	C23	0.390500	0.243380	0.469880
C241	C24	0.783600	0.426620	0.545120
O11	O1	0.796090	0.808540	0.246640
O21	O2	0.930520	0.812230	0.371330
O31	O3	0.001070	0.626330	0.220230
O41	O4	0.993750	0.455240	0.142340
O51	O5	0.739500	0.651810	0.105810
O61	O6	0.790960	0.519910	0.994610
O71	O7	0.079990	0.852410	0.198470
O81	O8	0.095350	0.024580	0.127880
O91	O9	0.029300	0.687090	0.022690
O101	O10	0.118820	0.850780	0.965480
O111	O11	0.839390	0.896320	0.057570
O121	O12	0.617040	0.888760	0.086660
O131	O13	0.296090	0.691460	0.253360
O141	O14	0.430520	0.687770	0.128670
O151	O15	0.501070	0.873670	0.279770
O161	O16	0.493750	0.044760	0.357660
O171	O17	0.239500	0.848190	0.394190
O181	O18	0.290960	0.980090	0.505390
O191	O19	0.579990	0.647590	0.301530
O201	O20	0.595350	0.475420	0.372120
O211	O21	0.529300	0.812910	0.477310
O221	O22	0.618820	0.649220	0.534520
O231	O23	0.339390	0.603680	0.442430
O241	O24	0.117040	0.611240	0.413340
O251	O25	0.203910	0.191460	0.753360
O261	O26	0.069480	0.187770	0.628670
O271	O27	0.998930	0.373670	0.779770
O281	O28	0.006250	0.544760	0.857660
O291	O29	0.260500	0.348190	0.894190
O301	O30	0.209040	0.480090	0.005390
O311	O31	0.920010	0.147590	0.801530
O321	O32	0.904650	0.975420	0.872120
O331	O33	0.970700	0.312910	0.977310
O341	O34	0.881180	0.149220	0.034520
O351	O35	0.160610	0.103680	0.942430
O361	O36	0.382960	0.111240	0.913340
O371	O37	0.703910	0.308540	0.746640
O381	O38	0.569480	0.312230	0.871330
O391	O39	0.498930	0.126330	0.720230
O401	O40	0.506250	0.955240	0.642340
O411	O41	0.760500	0.151810	0.605810
O421	O42	0.709040	0.019910	0.494610
O431	O43	0.420010	0.352410	0.698470
O441	O44	0.404650	0.524580	0.627880
O451	O45	0.470700	0.187090	0.522690
O461	O46	0.381180	0.350780	0.465480
O471	O47	0.660610	0.396320	0.557570
O481	O48	0.882960	0.388760	0.586660
