data_NIMTEJ_freeONLY_PM
_symmetry_space_group_name_H-M	'P1'
_cell_length_a	9.341020
_cell_length_b	11.572600
_cell_length_c	17.395400
_cell_angle_alpha	105.019000
_cell_angle_beta	90.000000
_cell_angle_gamma	113.802000
_symmetry_Int_Tables_number 1

loop_
_symmetry_equiv_pos_as_xyz
'x,y,z'

loop_
_atom_site_label
_atom_site_type_symbol
_atom_site_fract_x
_atom_site_fract_y
_atom_site_fract_z
Ce11	Ce1	0.669870	0.972400	0.926950
Ce21	Ce2	0.697470	0.027600	0.573050
Ce31	Ce3	0.330130	0.027600	0.073050
Ce41	Ce4	0.302530	0.972400	0.426950
Cu11	Cu1	0.094560	0.329920	0.135900
Cu21	Cu2	0.764640	0.670080	0.364100
Cu31	Cu3	0.905440	0.670080	0.864100
Cu41	Cu4	0.235360	0.329920	0.635900
H11	H1	0.559800	0.197200	0.779600
H21	H2	0.500500	0.297600	0.691600
H31	H3	0.091300	0.230800	0.768300
H41	H4	0.140800	0.134600	0.856600
H51	H5	0.184900	0.719600	0.054900
H61	H6	0.082400	0.563800	0.121200
H71	H7	0.289400	0.358000	0.002300
H81	H8	0.389800	0.502800	0.928400
H91	H9	0.362600	0.802800	0.720400
H101	H10	0.202900	0.702400	0.808400
H111	H11	0.860500	0.769200	0.731700
H121	H12	0.006200	0.865400	0.643400
H131	H13	0.465300	0.280400	0.445100
H141	H14	0.518600	0.436200	0.378800
H151	H15	0.931400	0.642000	0.497700
H161	H16	0.887000	0.497200	0.571600
H171	H17	0.440200	0.802800	0.220400
H181	H18	0.499500	0.702400	0.308400
H191	H19	0.908700	0.769200	0.231700
H201	H20	0.859200	0.865400	0.143400
H211	H21	0.815100	0.280400	0.945100
H221	H22	0.917600	0.436200	0.878800
H231	H23	0.710600	0.642000	0.997700
H241	H24	0.610200	0.497200	0.071600
H251	H25	0.637400	0.197200	0.279600
H261	H26	0.797100	0.297600	0.191600
H271	H27	0.139500	0.230800	0.268300
H281	H28	0.993800	0.134600	0.356600
H291	H29	0.534700	0.719600	0.554900
H301	H30	0.481400	0.563800	0.621200
H311	H31	0.068600	0.358000	0.502300
H321	H32	0.113000	0.502800	0.428400
C11	C1	0.396900	0.081800	0.881400
C21	C2	0.351100	0.148600	0.826300
C31	C3	0.462700	0.201400	0.777200
C41	C4	0.426700	0.261400	0.724100
C51	C5	0.186000	0.222000	0.769700
C61	C6	0.215100	0.164200	0.822400
C71	C7	0.391900	0.743800	0.950000
C81	C8	0.304400	0.630800	0.986000
C91	C9	0.208400	0.646800	0.043100
C101	C10	0.148200	0.552400	0.082700
C111	C11	0.266700	0.431400	0.013400
C121	C12	0.330600	0.519200	0.969200
C131	C13	0.980200	0.928600	0.976200
C141	C14	0.701800	0.919800	0.730600
C151	C15	0.315100	0.918200	0.618600
C161	C16	0.202500	0.851400	0.673700
C171	C17	0.261300	0.798600	0.722800
C181	C18	0.165300	0.738600	0.775900
C191	C19	0.964000	0.778000	0.730300
C201	C20	0.050900	0.835800	0.677600
C211	C21	0.648100	0.256200	0.550000
C221	C22	0.673600	0.369200	0.514000
C231	C23	0.561600	0.353200	0.456900
C241	C24	0.595800	0.447600	0.417300
C251	C25	0.835300	0.568600	0.486600
C261	C26	0.811400	0.480800	0.530800
C271	C27	0.051600	0.071400	0.523800
C281	C28	0.782000	0.080200	0.769400
C291	C29	0.603100	0.918200	0.118600
C301	C30	0.648900	0.851400	0.173700
C311	C31	0.537300	0.798600	0.222800
C321	C32	0.573300	0.738600	0.275900
C331	C33	0.814000	0.778000	0.230300
C341	C34	0.784900	0.835800	0.177600
C351	C35	0.608100	0.256200	0.050000
C361	C36	0.695600	0.369200	0.014000
C371	C37	0.791600	0.353200	0.956900
C381	C38	0.851800	0.447600	0.917300
C391	C39	0.733300	0.568600	0.986600
C401	C40	0.669400	0.480800	0.030800
C411	C41	0.019800	0.071400	0.023800
C421	C42	0.298200	0.080200	0.269400
C431	C43	0.684900	0.081800	0.381400
C441	C44	0.797500	0.148600	0.326300
C451	C45	0.738700	0.201400	0.277200
C461	C46	0.834700	0.261400	0.224100
C471	C47	0.036000	0.222000	0.269700
C481	C48	0.949100	0.164200	0.322400
C491	C49	0.351900	0.743800	0.450000
C501	C50	0.326400	0.630800	0.486000
C511	C51	0.438400	0.646800	0.543100
C521	C52	0.404200	0.552400	0.582700
C531	C53	0.164700	0.431400	0.513400
C541	C54	0.188600	0.519200	0.469200
C551	C55	0.948400	0.928600	0.476200
C561	C56	0.218000	0.919800	0.230600
N11	N1	0.288400	0.266800	0.719800
N21	N2	0.177000	0.444000	0.069800
N31	N3	0.021600	0.733200	0.780200
N41	N4	0.733000	0.556000	0.430200
N51	N5	0.711600	0.733200	0.280200
N61	N6	0.823000	0.556000	0.930200
N71	N7	0.978400	0.266800	0.219800
N81	N8	0.267000	0.444000	0.569800
O11	O1	0.490900	0.036800	0.864900
O21	O2	0.316900	0.078600	0.943100
O31	O3	0.487000	0.728000	0.900500
O41	O4	0.373800	0.849000	0.972200
O51	O5	0.862400	0.871800	0.923700
O61	O6	0.067500	0.877200	0.996000
O71	O7	0.652600	0.855800	0.779700
O81	O8	0.707600	0.882400	0.657400
O91	O9	0.454100	0.963200	0.635100
O101	O10	0.238300	0.921400	0.556900
O111	O11	0.759000	0.272000	0.599500
O121	O12	0.524800	0.151000	0.527800
O131	O13	0.990600	0.128200	0.576300
O141	O14	0.190300	0.122800	0.504000
O151	O15	0.796800	0.144200	0.720300
O161	O16	0.825200	0.117600	0.842600
O171	O17	0.509100	0.963200	0.135100
O181	O18	0.683100	0.921400	0.056900
O191	O19	0.513000	0.272000	0.099500
O201	O20	0.626200	0.151000	0.027800
O211	O21	0.137600	0.128200	0.076300
O221	O22	0.932500	0.122800	0.004000
O231	O23	0.347400	0.144200	0.220300
O241	O24	0.292400	0.117600	0.342600
O251	O25	0.545900	0.036800	0.364900
O261	O26	0.761700	0.078600	0.443100
O271	O27	0.241000	0.728000	0.400500
O281	O28	0.475200	0.849000	0.472200
O291	O29	0.009400	0.871800	0.423700
O301	O30	0.809700	0.877200	0.496000
O311	O31	0.203200	0.855800	0.279700
O321	O32	0.174800	0.882400	0.157400
