data_NIMVEL_freeONLY_PM
_symmetry_space_group_name_H-M	'P1'
_cell_length_a	9.393910
_cell_length_b	11.518600
_cell_length_c	17.553500
_cell_angle_alpha	105.289000
_cell_angle_beta	90.000000
_cell_angle_gamma	114.065000
_symmetry_Int_Tables_number 1

loop_
_symmetry_equiv_pos_as_xyz
'x,y,z'

loop_
_atom_site_label
_atom_site_type_symbol
_atom_site_fract_x
_atom_site_fract_y
_atom_site_fract_z
La11	La1	0.668580	0.971340	0.926680
La21	La2	0.697240	0.028660	0.573320
La31	La3	0.331420	0.028660	0.073320
La41	La4	0.302760	0.971340	0.426680
Cu11	Cu1	0.095120	0.330060	0.137840
Cu21	Cu2	0.765060	0.669940	0.362160
Cu31	Cu3	0.904880	0.669940	0.862160
Cu41	Cu4	0.234940	0.330060	0.637840
H11	H1	0.557100	0.195200	0.778500
H21	H2	0.498100	0.293000	0.692300
H31	H3	0.092900	0.231600	0.768200
H41	H4	0.143000	0.136600	0.858900
H51	H5	0.178200	0.715200	0.051500
H61	H6	0.082700	0.565200	0.123000
H71	H7	0.279300	0.349600	0.002300
H81	H8	0.387100	0.498000	0.929900
H91	H9	0.361900	0.804800	0.721500
H101	H10	0.205100	0.707000	0.807700
H111	H11	0.861300	0.768400	0.731800
H121	H12	0.006400	0.863400	0.641100
H131	H13	0.463000	0.284800	0.448500
H141	H14	0.517500	0.434800	0.377000
H151	H15	0.929700	0.650400	0.497700
H161	H16	0.889100	0.502000	0.570100
H171	H17	0.442900	0.804800	0.221500
H181	H18	0.501900	0.707000	0.307700
H191	H19	0.907100	0.768400	0.231800
H201	H20	0.857000	0.863400	0.141100
H211	H21	0.821800	0.284800	0.948500
H221	H22	0.917300	0.434800	0.877000
H231	H23	0.720700	0.650400	0.997700
H241	H24	0.612900	0.502000	0.070100
H251	H25	0.638100	0.195200	0.278500
H261	H26	0.794900	0.293000	0.192300
H271	H27	0.138700	0.231600	0.268200
H281	H28	0.993600	0.136600	0.358900
H291	H29	0.537000	0.715200	0.551500
H301	H30	0.482500	0.565200	0.623000
H311	H31	0.070300	0.349600	0.502300
H321	H32	0.110900	0.498000	0.429900
C11	C1	0.389390	0.085580	0.883680
C21	C2	0.354560	0.152120	0.827390
C31	C3	0.461200	0.201000	0.777300
C41	C4	0.424300	0.258600	0.725200
C51	C5	0.187200	0.223400	0.769900
C61	C6	0.216100	0.165600	0.824600
C71	C7	0.390090	0.737780	0.948540
C81	C8	0.303680	0.628960	0.986390
C91	C9	0.205110	0.643820	0.042200
C101	C10	0.146300	0.552000	0.084100
C111	C11	0.262100	0.426000	0.013900
C121	C12	0.327590	0.515180	0.970100
C131	C13	0.980290	0.926980	0.976210
C141	C14	0.706000	0.924000	0.731770
C151	C15	0.303810	0.914420	0.616320
C161	C16	0.202440	0.847880	0.672610
C171	C17	0.260200	0.799000	0.722700
C181	C18	0.165700	0.741400	0.774800
C191	C19	0.963800	0.776600	0.730100
C201	C20	0.050500	0.834400	0.675400
C211	C21	0.652310	0.262220	0.551460
C221	C22	0.674720	0.371040	0.513610
C231	C23	0.561290	0.356180	0.457800
C241	C24	0.594300	0.448000	0.415900
C251	C25	0.836100	0.574000	0.486100
C261	C26	0.812410	0.484820	0.529900
C271	C27	0.053310	0.073020	0.523790
C281	C28	0.782000	0.076000	0.768230
C291	C29	0.610610	0.914420	0.116320
C301	C30	0.645440	0.847880	0.172610
C311	C31	0.538800	0.799000	0.222700
C321	C32	0.575700	0.741400	0.274800
C331	C33	0.812800	0.776600	0.230100
C341	C34	0.783900	0.834400	0.175400
C351	C35	0.609910	0.262220	0.051460
C361	C36	0.696320	0.371040	0.013610
C371	C37	0.794890	0.356180	0.957800
C381	C38	0.853700	0.448000	0.915900
C391	C39	0.737900	0.574000	0.986100
C401	C40	0.672410	0.484820	0.029900
C411	C41	0.019710	0.073020	0.023790
C421	C42	0.294000	0.076000	0.268230
C431	C43	0.696190	0.085580	0.383680
C441	C44	0.797560	0.152120	0.327390
C451	C45	0.739800	0.201000	0.277300
C461	C46	0.834300	0.258600	0.225200
C471	C47	0.036200	0.223400	0.269900
C481	C48	0.949500	0.165600	0.324600
C491	C49	0.347690	0.737780	0.448540
C501	C50	0.325280	0.628960	0.486390
C511	C51	0.438710	0.643820	0.542200
C521	C52	0.405700	0.552000	0.584100
C531	C53	0.163900	0.426000	0.513900
C541	C54	0.187590	0.515180	0.470100
C551	C55	0.946690	0.926980	0.476210
C561	C56	0.218000	0.924000	0.231770
N11	N1	0.287730	0.267460	0.719820
N21	N2	0.175920	0.445240	0.071850
N31	N3	0.020270	0.732540	0.780180
N41	N4	0.730680	0.554760	0.428150
N51	N5	0.712270	0.732540	0.280180
N61	N6	0.824080	0.554760	0.928150
N71	N7	0.979730	0.267460	0.219820
N81	N8	0.269320	0.445240	0.571850
O11	O1	0.489250	0.039700	0.865980
O21	O2	0.317720	0.082640	0.943660
O31	O3	0.482190	0.721580	0.899990
O41	O4	0.374240	0.845480	0.970920
O51	O5	0.865300	0.869600	0.922990
O61	O6	0.065560	0.876920	0.995120
O71	O7	0.653770	0.855740	0.779140
O81	O8	0.706070	0.881740	0.658470
O91	O9	0.449550	0.960300	0.634020
O101	O10	0.235080	0.917360	0.556340
O111	O11	0.760610	0.278420	0.600010
O121	O12	0.528760	0.154520	0.529080
O131	O13	0.995700	0.130400	0.577010
O141	O14	0.188640	0.123080	0.504880
O151	O15	0.798030	0.144260	0.720860
O161	O16	0.824330	0.118260	0.841530
O171	O17	0.510750	0.960300	0.134020
O181	O18	0.682280	0.917360	0.056340
O191	O19	0.517810	0.278420	0.100010
O201	O20	0.625760	0.154520	0.029080
O211	O21	0.134700	0.130400	0.077010
O221	O22	0.934440	0.123080	0.004880
O231	O23	0.346230	0.144260	0.220860
O241	O24	0.293930	0.118260	0.341530
O251	O25	0.550450	0.039700	0.365980
O261	O26	0.764920	0.082640	0.443660
O271	O27	0.239390	0.721580	0.399990
O281	O28	0.471240	0.845480	0.470920
O291	O29	0.004300	0.869600	0.422990
O301	O30	0.811360	0.876920	0.495120
O311	O31	0.201970	0.855740	0.279140
O321	O32	0.175670	0.881740	0.158470
