data_NINVAI_freeONLY_PM
_symmetry_space_group_name_H-M	'P1'
_cell_length_a	18.832200
_cell_length_b	18.832200
_cell_length_c	18.832200
_cell_angle_alpha	60.000000
_cell_angle_beta	60.000000
_cell_angle_gamma	60.000000
_symmetry_Int_Tables_number 1

loop_
_symmetry_equiv_pos_as_xyz
'x,y,z'

loop_
_atom_site_label
_atom_site_type_symbol
_atom_site_fract_x
_atom_site_fract_y
_atom_site_fract_z
Fe11	Fe1	0.579360	0.420640	0.000000
Fe21	Fe2	0.420640	0.579360	0.000000
Fe31	Fe3	0.000000	0.000000	0.579360
Fe41	Fe4	0.000000	0.000000	0.420640
Fe51	Fe5	0.579360	0.000000	0.000000
Fe61	Fe6	0.420640	0.000000	0.000000
Fe71	Fe7	0.000000	0.579360	0.420640
Fe81	Fe8	0.000000	0.420640	0.579360
Fe91	Fe9	0.579360	0.000000	0.420640
Fe101	Fe10	0.420640	0.000000	0.579360
Fe111	Fe11	0.000000	0.420640	0.000000
Fe121	Fe12	0.000000	0.579360	0.000000
H11	H1	0.268000	0.504000	0.960000
H21	H2	0.504000	0.268000	0.268000
H31	H3	0.960000	0.268000	0.268000
H41	H4	0.268000	0.960000	0.504000
H51	H5	0.268000	0.960000	0.268000
H61	H6	0.504000	0.268000	0.960000
H71	H7	0.960000	0.268000	0.504000
H81	H8	0.268000	0.504000	0.268000
H91	H9	0.268000	0.268000	0.504000
H101	H10	0.504000	0.960000	0.268000
H111	H11	0.960000	0.504000	0.268000
H121	H12	0.268000	0.268000	0.960000
H131	H13	0.496000	0.732000	0.040000
H141	H14	0.732000	0.496000	0.732000
H151	H15	0.732000	0.040000	0.732000
H161	H16	0.040000	0.732000	0.496000
H171	H17	0.040000	0.732000	0.732000
H181	H18	0.732000	0.496000	0.040000
H191	H19	0.732000	0.040000	0.496000
H201	H20	0.496000	0.732000	0.732000
H211	H21	0.732000	0.732000	0.496000
H221	H22	0.040000	0.496000	0.732000
H231	H23	0.496000	0.040000	0.732000
H241	H24	0.732000	0.732000	0.040000
C11	C1	0.430700	0.430700	0.973500
C21	C2	0.386300	0.386300	0.968980
C31	C3	0.430700	0.430700	0.165100
C41	C4	0.386300	0.386300	0.258420
C51	C5	0.973500	0.165100	0.430700
C61	C6	0.968980	0.258420	0.386300
C71	C7	0.165100	0.973500	0.430700
C81	C8	0.258420	0.968980	0.386300
C91	C9	0.430700	0.973500	0.165100
C101	C10	0.386300	0.968980	0.258420
C111	C11	0.430700	0.165100	0.973500
C121	C12	0.386300	0.258420	0.968980
C131	C13	0.973500	0.430700	0.430700
C141	C14	0.968980	0.386300	0.386300
C151	C15	0.165100	0.430700	0.430700
C161	C16	0.258420	0.386300	0.386300
C171	C17	0.430700	0.165100	0.430700
C181	C18	0.386300	0.258420	0.386300
C191	C19	0.430700	0.973500	0.430700
C201	C20	0.386300	0.968980	0.386300
C211	C21	0.973500	0.430700	0.165100
C221	C22	0.968980	0.386300	0.258420
C231	C23	0.165100	0.430700	0.973500
C241	C24	0.258420	0.386300	0.968980
C251	C25	0.569300	0.569300	0.026500
C261	C26	0.613700	0.613700	0.031020
C271	C27	0.569300	0.569300	0.834900
C281	C28	0.613700	0.613700	0.741580
C291	C29	0.834900	0.026500	0.569300
C301	C30	0.741580	0.031020	0.613700
C311	C31	0.026500	0.834900	0.569300
C321	C32	0.031020	0.741580	0.613700
C331	C33	0.026500	0.569300	0.834900
C341	C34	0.031020	0.613700	0.741580
C351	C35	0.834900	0.569300	0.026500
C361	C36	0.741580	0.613700	0.031020
C371	C37	0.569300	0.026500	0.569300
C381	C38	0.613700	0.031020	0.613700
C391	C39	0.569300	0.834900	0.569300
C401	C40	0.613700	0.741580	0.613700
C411	C41	0.834900	0.569300	0.569300
C421	C42	0.741580	0.613700	0.613700
C431	C43	0.026500	0.569300	0.569300
C441	C44	0.031020	0.613700	0.613700
C451	C45	0.569300	0.026500	0.834900
C461	C46	0.613700	0.031020	0.741580
C471	C47	0.569300	0.834900	0.026500
C481	C48	0.613700	0.741580	0.031020
C491	C49	0.301300	0.428740	0.968660
C501	C50	0.428740	0.301300	0.301300
C511	C51	0.968660	0.301300	0.301300
C521	C52	0.301300	0.968660	0.428740
C531	C53	0.301300	0.968660	0.301300
C541	C54	0.428740	0.301300	0.968660
C551	C55	0.968660	0.301300	0.428740
C561	C56	0.301300	0.428740	0.301300
C571	C57	0.301300	0.301300	0.428740
C581	C58	0.428740	0.968660	0.301300
C591	C59	0.968660	0.428740	0.301300
C601	C60	0.301300	0.301300	0.968660
C611	C61	0.571260	0.698700	0.031340
C621	C62	0.698700	0.571260	0.698700
C631	C63	0.698700	0.031340	0.698700
C641	C64	0.031340	0.698700	0.571260
C651	C65	0.031340	0.698700	0.698700
C661	C66	0.698700	0.571260	0.031340
C671	C67	0.698700	0.031340	0.571260
C681	C68	0.571260	0.698700	0.698700
C691	C69	0.698700	0.698700	0.571260
C701	C70	0.031340	0.571260	0.698700
C711	C71	0.571260	0.031340	0.698700
C721	C72	0.698700	0.698700	0.031340
O11	O1	0.504580	0.388300	0.978520
O21	O2	0.388300	0.504580	0.128600
O31	O3	0.978520	0.128600	0.504580
O41	O4	0.128600	0.978520	0.388300
O51	O5	0.504580	0.978520	0.128600
O61	O6	0.388300	0.128600	0.978520
O71	O7	0.978520	0.504580	0.388300
O81	O8	0.128600	0.388300	0.504580
O91	O9	0.504580	0.128600	0.388300
O101	O10	0.388300	0.978520	0.504580
O111	O11	0.978520	0.388300	0.128600
O121	O12	0.128600	0.504580	0.978520
O131	O13	0.611700	0.495420	0.021480
O141	O14	0.495420	0.611700	0.871400
O151	O15	0.871400	0.021480	0.495420
O161	O16	0.021480	0.871400	0.611700
O171	O17	0.021480	0.495420	0.871400
O181	O18	0.871400	0.611700	0.021480
O191	O19	0.495420	0.021480	0.611700
O201	O20	0.611700	0.871400	0.495420
O211	O21	0.871400	0.495420	0.611700
O221	O22	0.021480	0.611700	0.495420
O231	O23	0.611700	0.021480	0.871400
O241	O24	0.495420	0.871400	0.021480
O251	O25	0.495420	0.611700	0.021480
O261	O26	0.611700	0.495420	0.871400
O271	O27	0.021480	0.871400	0.495420
O281	O28	0.871400	0.021480	0.611700
O291	O29	0.495420	0.021480	0.871400
O301	O30	0.611700	0.871400	0.021480
O311	O31	0.021480	0.495420	0.611700
O321	O32	0.871400	0.611700	0.495420
O331	O33	0.495420	0.871400	0.611700
O341	O34	0.611700	0.021480	0.495420
O351	O35	0.021480	0.611700	0.871400
O361	O36	0.871400	0.495420	0.021480
O371	O37	0.388300	0.504580	0.978520
O381	O38	0.504580	0.388300	0.128600
O391	O39	0.128600	0.978520	0.504580
O401	O40	0.978520	0.128600	0.388300
O411	O41	0.978520	0.504580	0.128600
O421	O42	0.128600	0.388300	0.978520
O431	O43	0.504580	0.978520	0.388300
O441	O44	0.388300	0.128600	0.504580
O451	O45	0.128600	0.504580	0.388300
O461	O46	0.978520	0.388300	0.504580
O471	O47	0.388300	0.978520	0.128600
O481	O48	0.504580	0.128600	0.978520
