data_NIVZOJ_freeONLY_PM
_symmetry_space_group_name_H-M	'P1'
_cell_length_a	14.505600
_cell_length_b	14.898100
_cell_length_c	22.993400
_cell_angle_alpha	90.534000
_cell_angle_beta	92.844000
_cell_angle_gamma	104.153000
_symmetry_Int_Tables_number 1

loop_
_symmetry_equiv_pos_as_xyz
'x,y,z'

loop_
_atom_site_label
_atom_site_type_symbol
_atom_site_fract_x
_atom_site_fract_y
_atom_site_fract_z
W11	W1	0.822950	0.880560	0.127950
W21	W2	0.624970	0.555790	0.134250
W31	W3	0.587590	0.797080	0.132460
W41	W4	0.615810	0.807940	0.397200
W51	W5	0.972650	0.942060	0.262810
W61	W6	0.654420	0.567220	0.398540
W71	W7	0.860370	0.640470	0.125710
W81	W8	0.478470	0.752590	0.273690
W91	W9	0.009950	0.701270	0.260660
W101	W10	0.517330	0.511530	0.275470
W111	W11	0.912260	0.665320	0.390560
W121	W12	0.872780	0.904880	0.391640
W131	W13	0.806420	0.083290	0.217360
W141	W14	0.707770	0.047960	0.347610
W151	W15	0.807520	0.418940	0.349670
W161	W16	0.906700	0.454460	0.219320
W171	W17	0.670300	0.364830	0.225230
W181	W18	0.567810	0.993960	0.224730
Ag11	Ag1	0.260300	0.887300	0.235020
Ag21	Ag2	0.929560	0.590660	0.928290
Ag31	Ag3	0.517260	0.378140	0.997700
P11	P1	0.723800	0.854600	0.264400
P21	P2	0.764000	0.599900	0.264400
O11	O1	0.676100	0.597900	0.299600
O21	O2	0.747900	0.623400	0.200400
O31	O3	0.854000	0.665500	0.293300
O41	O4	0.779800	0.498200	0.264800
O51	O5	0.718000	0.821500	0.199200
O61	O6	0.821900	0.862300	0.292800
O71	O7	0.644300	0.794100	0.298000
O81	O8	0.709700	0.957400	0.264400
O91	O9	0.884400	0.923900	0.069000
O101	O10	0.791800	0.362200	0.198900
O111	O11	0.814300	0.001800	0.374800
O121	O12	0.782900	0.638900	0.408400
O131	O13	0.863600	0.185400	0.187900
O141	O14	0.830800	0.348700	0.403000
O151	O15	0.747200	0.833700	0.408200
O161	O16	0.921200	0.941700	0.458900
O171	O17	0.989700	0.406000	0.188900
O181	O18	0.600700	0.260700	0.201100
O191	O19	0.697000	0.853000	0.090900
O201	O20	0.474000	0.037000	0.199900
O211	O21	0.920600	0.896800	0.187200
O221	O22	0.545900	0.507600	0.079100
O231	O23	0.085000	0.004900	0.248000
O241	O24	0.515000	0.744600	0.194800
O251	O25	0.654200	0.444300	0.162800
O261	O26	0.626600	0.535300	0.466900
O271	O27	0.909100	0.035900	0.251500
O281	O28	0.501300	0.782700	0.077000
O291	O29	0.020900	0.685700	0.342700
O301	O30	0.824400	0.755400	0.118700
O311	O31	0.617200	0.682000	0.124100
O321	O32	0.912500	0.792600	0.389200
O331	O33	0.490100	0.630000	0.285900
O341	O34	0.584500	0.816300	0.466100
O351	O35	0.128200	0.725500	0.247000
O361	O36	0.546000	0.546600	0.198300
O371	O37	0.974900	0.960900	0.345100
O381	O38	0.580700	0.416000	0.263800
O391	O39	0.505200	0.886100	0.263300
O401	O40	0.876800	0.527000	0.156800
O411	O41	0.357700	0.734700	0.265400
O421	O42	0.633700	0.937000	0.378500
O431	O43	0.950900	0.699500	0.184800
O441	O44	0.599100	0.058000	0.299000
O451	O45	0.494900	0.776800	0.355000
O461	O46	0.926500	0.643200	0.066000
O471	O47	0.967200	0.666000	0.457000
O481	O48	0.707700	0.464300	0.379600
O491	O49	0.405400	0.442600	0.267000
O501	O50	0.901900	0.404000	0.296600
O511	O51	0.704500	0.127000	0.401200
O521	O52	0.982100	0.569300	0.252100
O531	O53	0.001200	0.820700	0.273300
O541	O54	0.714500	0.334300	0.299900
O551	O55	0.786900	0.123300	0.294900
O561	O56	0.891200	0.534900	0.373700
O571	O57	0.802800	0.997300	0.157200
O581	O58	0.674900	0.086100	0.197000
O591	O59	0.737500	0.578400	0.091100
O601	O60	0.580800	0.912900	0.161500
O611	O61	0.616200	0.677400	0.395800
O621	O62	0.538200	0.503800	0.357500
C11	C1	0.899000	0.496000	0.617000
H11	H1	0.950300	0.496600	0.643200
C21	C2	0.818000	0.529000	0.547700
H21	H2	0.798500	0.543500	0.510500
C31	C3	0.769000	0.448000	0.686400
H31	H3	0.700400	0.441000	0.686100
H41	H4	0.780100	0.386400	0.690300
C41	C4	0.815000	0.506000	0.736900
H51	H5	0.878400	0.496900	0.742000
H61	H6	0.821600	0.569700	0.725400
C51	C5	0.779100	0.499600	0.789900
H71	H7	0.711000	0.492400	0.784300
H81	H8	0.804800	0.558800	0.809800
C61	C6	0.794200	0.425100	0.831200
H91	H9	0.768700	0.364600	0.812900
H101	H10	0.861900	0.432500	0.839700
C71	C7	0.718100	0.493400	0.964100
H111	H11	0.721200	0.532300	0.996400
C81	C8	0.664400	0.386700	0.900800
H121	H12	0.624600	0.336200	0.880900
C91	C9	0.363000	0.220000	0.046600
H131	H13	0.344300	0.197500	0.009000
C101	C10	0.428200	0.306800	0.113100
H141	H14	0.466500	0.357100	0.134100
C111	C11	0.367200	0.208300	0.198700
H151	H15	0.397100	0.262500	0.222700
H161	H16	0.399700	0.160200	0.208000
C121	C12	0.262500	0.175200	0.212800
H171	H17	0.230100	0.128000	0.184400
H181	H18	0.258400	0.147600	0.250900
C131	C13	0.214400	0.252900	0.212200
H191	H19	0.227300	0.285100	0.249600
H201	H20	0.241700	0.296300	0.182800
C141	C14	0.109500	0.223700	0.200100
H211	H21	0.082700	0.173400	0.225500
H221	H22	0.082000	0.275100	0.208900
C151	C15	0.080600	0.201000	0.049700
H231	H23	0.085200	0.223300	0.012000
C161	C16	0.049000	0.114000	0.118200
H241	H24	0.026100	0.062000	0.140400
C171	C17	0.144800	0.870000	0.117200
H251	H25	0.089000	0.838900	0.133800
C181	C18	0.293000	0.934000	0.106700
H261	H26	0.359000	0.954700	0.112100
C191	C19	0.287000	0.982000	0.003300
H271	H27	0.250300	0.023800	0.988700
H281	H28	0.351000	0.018500	0.013500
C201	C20	0.292000	0.922000	0.959200
H291	H29	0.311500	0.957700	0.924900
H301	H30	0.229200	0.882800	0.950400
C211	C21	0.360700	0.859000	0.970300
H311	H31	0.367200	0.848600	0.011700
H321	H32	0.423000	0.889000	0.957000
C221	C22	0.319800	0.765400	0.936500
H331	H33	0.316400	0.777200	0.895200
H341	H34	0.363300	0.726000	0.943100
C231	C23	0.145500	0.689000	0.921500
H351	H35	0.139300	0.695600	0.881400
C241	C24	0.121100	0.653000	0.008400
H361	H36	0.091300	0.624500	0.040700
C251	C25	0.353300	0.929200	0.361500
H371	H37	0.415500	0.936000	0.350600
C261	C26	0.206000	0.901000	0.358200
H381	H38	0.143200	0.880300	0.344100
C271	C27	0.378000	0.951000	0.471800
H391	H39	0.349100	0.989300	0.495900
H401	H40	0.371700	0.892300	0.491200
C281	C28	0.476300	0.994000	0.470500
H411	H41	0.484100	0.054300	0.453000
H421	H42	0.506500	0.957000	0.446500
N11	N1	0.894700	0.504100	0.556400
N21	N2	0.806000	0.488000	0.627500
N31	N3	0.766000	0.532000	0.591500
N41	N4	0.645200	0.422800	0.948800
N51	N5	0.789400	0.500700	0.924500
N61	N6	0.747700	0.431300	0.884500
N71	N7	0.417200	0.300700	0.057300
N81	N8	0.334700	0.170600	0.095600
N91	N9	0.377400	0.231700	0.136300
N101	N10	0.084600	0.194300	0.141100
N111	N11	0.104000	0.255100	0.095100
N121	N12	0.048200	0.109000	0.060900
N131	N13	0.153400	0.899000	0.060700
N141	N14	0.244000	0.940300	0.058200
N151	N15	0.237200	0.896800	0.145700
N161	N16	0.224800	0.716000	0.953900
N171	N17	0.211000	0.697000	0.009400
N181	N18	0.076100	0.652500	0.955500
N191	N19	0.275000	0.913800	0.326600
N201	N20	0.232600	0.921000	0.417100
N211	N21	0.323400	0.933000	0.417800
Ag41	Ag4	0.037600	0.966800	0.008600
W191	W19	0.177050	0.119440	0.872050
W201	W20	0.375030	0.444210	0.865750
W211	W21	0.412410	0.202920	0.867540
W221	W22	0.384190	0.192060	0.602800
W231	W23	0.027350	0.057940	0.737190
W241	W24	0.345580	0.432780	0.601460
W251	W25	0.139630	0.359530	0.874290
W261	W26	0.521530	0.247410	0.726310
W271	W27	0.990050	0.298730	0.739340
W281	W28	0.482670	0.488470	0.724530
W291	W29	0.087740	0.334680	0.609440
W301	W30	0.127220	0.095120	0.608360
W311	W31	0.193580	0.916710	0.782640
W321	W32	0.292230	0.952040	0.652390
W331	W33	0.192480	0.581060	0.650330
W341	W34	0.093300	0.545540	0.780680
W351	W35	0.329700	0.635170	0.774770
W361	W36	0.432190	0.006040	0.775270
Ag51	Ag5	0.739700	0.112700	0.764980
Ag61	Ag6	0.070440	0.409340	0.071710
Ag71	Ag7	0.482740	0.621860	0.002300
P31	P3	0.276200	0.145400	0.735600
P41	P4	0.236000	0.400100	0.735600
O631	O63	0.323900	0.402100	0.700400
O641	O64	0.252100	0.376600	0.799600
O651	O65	0.146000	0.334500	0.706700
O661	O66	0.220200	0.501800	0.735200
O671	O67	0.282000	0.178500	0.800800
O681	O68	0.178100	0.137700	0.707200
O691	O69	0.355700	0.205900	0.702000
O701	O70	0.290300	0.042600	0.735600
O711	O71	0.115600	0.076100	0.931000
O721	O72	0.208200	0.637800	0.801100
O731	O73	0.185700	0.998200	0.625200
O741	O74	0.217100	0.361100	0.591600
O751	O75	0.136400	0.814600	0.812100
O761	O76	0.169200	0.651300	0.597000
O771	O77	0.252800	0.166300	0.591800
O781	O78	0.078800	0.058300	0.541100
O791	O79	0.010300	0.594000	0.811100
O801	O80	0.399300	0.739300	0.798900
O811	O81	0.303000	0.147000	0.909100
O821	O82	0.526000	0.963000	0.800100
O831	O83	0.079400	0.103200	0.812800
O841	O84	0.454100	0.492400	0.920900
O851	O85	0.915000	0.995100	0.752000
O861	O86	0.485000	0.255400	0.805200
O871	O87	0.345800	0.555700	0.837200
O881	O88	0.373400	0.464700	0.533100
O891	O89	0.090900	0.964100	0.748500
O901	O90	0.498700	0.217300	0.923000
O911	O91	0.979100	0.314300	0.657300
O921	O92	0.175600	0.244600	0.881300
O931	O93	0.382800	0.318000	0.875900
O941	O94	0.087500	0.207400	0.610800
O951	O95	0.509900	0.370000	0.714100
O961	O96	0.415500	0.183700	0.533900
O971	O97	0.871800	0.274500	0.753000
O981	O98	0.454000	0.453400	0.801700
O991	O99	0.025100	0.039100	0.654900
O1001	O100	0.419300	0.584000	0.736200
O1011	O101	0.494800	0.113900	0.736700
O1021	O102	0.123200	0.473000	0.843200
O1031	O103	0.642300	0.265300	0.734600
O1041	O104	0.366300	0.063000	0.621500
O1051	O105	0.049100	0.300500	0.815200
O1061	O106	0.400900	0.942000	0.701000
O1071	O107	0.505100	0.223200	0.645000
O1081	O108	0.073500	0.356800	0.934000
O1091	O109	0.032800	0.334000	0.543000
O1101	O110	0.292300	0.535700	0.620400
O1111	O111	0.594600	0.557400	0.733000
O1121	O112	0.098100	0.596000	0.703400
O1131	O113	0.295500	0.873000	0.598800
O1141	O114	0.017900	0.430700	0.747900
O1151	O115	0.998800	0.179300	0.726700
O1161	O116	0.285500	0.665700	0.700100
O1171	O117	0.213100	0.876700	0.705100
O1181	O118	0.108800	0.465100	0.626300
O1191	O119	0.197200	0.002700	0.842800
O1201	O120	0.325100	0.913900	0.803000
O1211	O121	0.262500	0.421600	0.908900
O1221	O122	0.419200	0.087100	0.838500
O1231	O123	0.383800	0.322600	0.604200
O1241	O124	0.461800	0.496200	0.642500
C291	C29	0.101000	0.504000	0.383000
H431	H43	0.049700	0.503400	0.356800
C301	C30	0.182000	0.471000	0.452300
H441	H44	0.201500	0.456500	0.489500
C311	C31	0.231000	0.552000	0.313600
H451	H45	0.299600	0.559000	0.313900
H461	H46	0.219900	0.613600	0.309700
C321	C32	0.185000	0.494000	0.263100
H471	H47	0.121600	0.503100	0.258000
H481	H48	0.178400	0.430300	0.274600
C331	C33	0.220900	0.500400	0.210100
H491	H49	0.289000	0.507600	0.215700
H501	H50	0.195200	0.441200	0.190200
C341	C34	0.205800	0.574900	0.168800
H511	H51	0.231300	0.635400	0.187100
H521	H52	0.138100	0.567500	0.160300
C351	C35	0.281900	0.506600	0.035900
H531	H53	0.278800	0.467700	0.003600
C361	C36	0.335600	0.613300	0.099200
H541	H54	0.375400	0.663800	0.119100
C371	C37	0.637000	0.780000	0.953400
H551	H55	0.655700	0.802500	0.991000
C381	C38	0.571800	0.693200	0.886900
H561	H56	0.533500	0.642900	0.865900
C391	C39	0.632800	0.791700	0.801300
H571	H57	0.602900	0.737500	0.777300
H581	H58	0.600300	0.839800	0.792000
C401	C40	0.737500	0.824800	0.787200
H591	H59	0.769900	0.872000	0.815600
H601	H60	0.741600	0.852400	0.749100
C411	C41	0.785600	0.747100	0.787800
H611	H61	0.772700	0.714900	0.750400
H621	H62	0.758300	0.703700	0.817200
C421	C42	0.890500	0.776300	0.799900
H631	H63	0.917300	0.826600	0.774500
H641	H64	0.918000	0.724900	0.791100
C431	C43	0.919400	0.799000	0.950300
H651	H65	0.914800	0.776700	0.988000
C441	C44	0.951000	0.886000	0.881800
H661	H66	0.973900	0.938000	0.859600
C451	C45	0.855200	0.130000	0.882800
H671	H67	0.911000	0.161100	0.866200
C461	C46	0.707000	0.066000	0.893300
H681	H68	0.641000	0.045300	0.887900
C471	C47	0.713000	0.018000	0.996700
H691	H69	0.749700	0.976200	0.011300
H701	H70	0.649000	0.981500	0.986500
C481	C48	0.708000	0.078000	0.040800
H711	H71	0.688500	0.042300	0.075100
H721	H72	0.770800	0.117200	0.049600
C491	C49	0.639300	0.141000	0.029700
H731	H73	0.632800	0.151400	0.988300
H741	H74	0.577000	0.111000	0.043000
C501	C50	0.680200	0.234600	0.063500
H751	H75	0.683600	0.222800	0.104800
H761	H76	0.636700	0.274000	0.056900
C511	C51	0.854500	0.311000	0.078500
H771	H77	0.860700	0.304400	0.118600
C521	C52	0.878900	0.347000	0.991600
H781	H78	0.908700	0.375500	0.959300
C531	C53	0.646700	0.070800	0.638500
H791	H79	0.584500	0.064000	0.649400
C541	C54	0.794000	0.099000	0.641800
H801	H80	0.856800	0.119700	0.655900
C551	C55	0.622000	0.049000	0.528200
H811	H81	0.650900	0.010700	0.504100
H821	H82	0.628300	0.107700	0.508800
C561	C56	0.523700	0.006000	0.529500
H831	H83	0.515900	0.945700	0.547000
H841	H84	0.493500	0.043000	0.553500
N221	N22	0.105300	0.495900	0.443600
N231	N23	0.194000	0.512000	0.372500
N241	N24	0.234000	0.468000	0.408500
N251	N25	0.354800	0.577200	0.051200
N261	N26	0.210600	0.499300	0.075500
N271	N27	0.252300	0.568700	0.115500
N281	N28	0.582800	0.699300	0.942700
N291	N29	0.665300	0.829400	0.904400
N301	N30	0.622600	0.768300	0.863700
N311	N31	0.915400	0.805700	0.858900
N321	N32	0.896000	0.744900	0.904900
N331	N33	0.951800	0.891000	0.939100
N341	N34	0.846600	0.101000	0.939300
N351	N35	0.756000	0.059700	0.941800
N361	N36	0.762800	0.103200	0.854300
N371	N37	0.775200	0.284000	0.046100
N381	N38	0.789000	0.303000	0.990600
N391	N39	0.923900	0.347500	0.044500
N401	N40	0.725000	0.086200	0.673400
N411	N41	0.767400	0.079000	0.582900
N421	N42	0.676600	0.067000	0.582200
Ag81	Ag8	0.962400	0.033200	0.991400
Ag91	Ag9	0.000000	0.000000	0.000000
Ag101	Ag10	0.000000	0.500000	0.500000
