data_NIWZIE10_freeONLY_PM
_symmetry_space_group_name_H-M	'P1'
_cell_length_a	12.572000
_cell_length_b	12.572000
_cell_length_c	8.218400
_cell_angle_alpha	90.000000
_cell_angle_beta	90.000000
_cell_angle_gamma	120.000000
_symmetry_Int_Tables_number 1

loop_
_symmetry_equiv_pos_as_xyz
'x,y,z'

loop_
_atom_site_label
_atom_site_type_symbol
_atom_site_fract_x
_atom_site_fract_y
_atom_site_fract_z
Mg11	Mg1	0.334020	0.332740	0.586660
O11	O1	0.423310	0.265190	0.441910
O21	O2	0.423950	0.156180	0.229780
O31	O3	0.400220	0.489460	0.441210
O41	O4	0.508320	0.599610	0.229190
O51	O5	0.175990	0.241360	0.443380
O61	O6	0.068140	0.244380	0.231180
C11	C1	0.373180	0.186780	0.334700
H11	H1	0.287800	0.146000	0.332100
C21	C2	0.477620	0.517400	0.332100
H21	H2	0.517100	0.471600	0.326800
C31	C3	0.144610	0.293390	0.341900
H31	H3	0.182500	0.378400	0.349600
Mg21	Mg2	0.667260	0.001280	0.586660
O71	O7	0.734810	0.158120	0.441910
O81	O8	0.843820	0.267770	0.229780
O91	O9	0.510540	0.910760	0.441210
O101	O10	0.400390	0.908710	0.229190
O111	O11	0.758640	0.934630	0.443380
O121	O12	0.755620	0.823760	0.231180
C41	C4	0.813220	0.186400	0.334700
H41	H4	0.854000	0.141800	0.332100
C51	C5	0.482600	0.960220	0.332100
H51	H5	0.528400	0.045500	0.326800
C61	C6	0.706610	0.851220	0.341900
H61	H6	0.621600	0.804100	0.349600
Mg31	Mg3	0.998720	0.665980	0.586660
O131	O13	0.841880	0.576690	0.441910
O141	O14	0.732230	0.576050	0.229780
O151	O15	0.089240	0.599780	0.441210
O161	O16	0.091290	0.491680	0.229190
O171	O17	0.065370	0.824010	0.443380
O181	O18	0.176240	0.931860	0.231180
C71	C7	0.813600	0.626820	0.334700
H71	H7	0.858200	0.712200	0.332100
C81	C8	0.039780	0.522380	0.332100
H81	H8	0.954500	0.482900	0.326800
C91	C9	0.148780	0.855390	0.341900
H91	H9	0.195900	0.817500	0.349600
Mg41	Mg4	0.665980	0.667260	0.086660
O191	O19	0.576690	0.734810	0.941910
O201	O20	0.576050	0.843820	0.729780
O211	O21	0.599780	0.510540	0.941210
O221	O22	0.491680	0.400390	0.729190
O231	O23	0.824010	0.758640	0.943380
O241	O24	0.931860	0.755620	0.731180
C101	C10	0.626820	0.813220	0.834700
H101	H10	0.712200	0.854000	0.832100
C111	C11	0.522380	0.482600	0.832100
H111	H11	0.482900	0.528400	0.826800
C121	C12	0.855390	0.706610	0.841900
H121	H12	0.817500	0.621600	0.849600
Mg51	Mg5	0.332740	0.998720	0.086660
O251	O25	0.265190	0.841880	0.941910
O261	O26	0.156180	0.732230	0.729780
O271	O27	0.489460	0.089240	0.941210
O281	O28	0.599610	0.091290	0.729190
O291	O29	0.241360	0.065370	0.943380
O301	O30	0.244380	0.176240	0.731180
C131	C13	0.186780	0.813600	0.834700
H131	H13	0.146000	0.858200	0.832100
C141	C14	0.517400	0.039780	0.832100
H141	H14	0.471600	0.954500	0.826800
C151	C15	0.293390	0.148780	0.841900
H151	H15	0.378400	0.195900	0.849600
Mg61	Mg6	0.001280	0.334020	0.086660
O311	O31	0.158120	0.423310	0.941910
O321	O32	0.267770	0.423950	0.729780
O331	O33	0.910760	0.400220	0.941210
O341	O34	0.908710	0.508320	0.729190
O351	O35	0.934630	0.175990	0.943380
O361	O36	0.823760	0.068140	0.731180
C161	C16	0.186400	0.373180	0.834700
H161	H16	0.141800	0.287800	0.832100
C171	C17	0.960220	0.477620	0.832100
H171	H17	0.045500	0.517100	0.826800
C181	C18	0.851220	0.144610	0.841900
H181	H18	0.804100	0.182500	0.849600
