data_NIWZIE12_freeONLY_PM
_symmetry_space_group_name_H-M	'P1'
_cell_length_a	7.264200
_cell_length_b	7.264200
_cell_length_c	8.212300
_cell_angle_alpha	90.000000
_cell_angle_beta	90.000000
_cell_angle_gamma	120.000000
_symmetry_Int_Tables_number 1

loop_
_symmetry_equiv_pos_as_xyz
'x,y,z'

loop_
_atom_site_label
_atom_site_type_symbol
_atom_site_fract_x
_atom_site_fract_y
_atom_site_fract_z
O11	O1	0.890600	0.310070	0.894000
O21	O2	0.689930	0.580530	0.894000
O31	O3	0.419470	0.109400	0.894000
O41	O4	0.109400	0.689930	0.394000
O51	O5	0.310070	0.419470	0.394000
O61	O6	0.580530	0.890600	0.394000
O71	O7	0.310070	0.890600	0.106000
O81	O8	0.580530	0.689930	0.106000
O91	O9	0.109400	0.419470	0.106000
O101	O10	0.689930	0.109400	0.606000
O111	O11	0.419470	0.310070	0.606000
O121	O12	0.890600	0.580530	0.606000
Mg11	Mg1	0.666670	0.333330	0.750000
Mg21	Mg2	0.333330	0.666670	0.250000
C11	C1	0.000000	0.440300	0.000000
H11	H1	0.000000	0.568300	0.000000
C21	C2	0.559700	0.559700	0.000000
H21	H2	0.431700	0.431700	0.000000
C31	C3	0.440300	0.000000	0.000000
H31	H3	0.568300	0.000000	0.000000
C41	C4	0.000000	0.559700	0.500000
H41	H4	0.000000	0.431700	0.500000
C51	C5	0.440300	0.440300	0.500000
H51	H5	0.568300	0.568300	0.500000
C61	C6	0.559700	0.000000	0.500000
H61	H6	0.431700	0.000000	0.500000
