data_NOBVOR_freeONLY_PM
_symmetry_space_group_name_H-M	'P1'
_cell_length_a	11.452700
_cell_length_b	11.623900
_cell_length_c	11.775400
_cell_angle_alpha	64.825000
_cell_angle_beta	81.406000
_cell_angle_gamma	72.316000
_symmetry_Int_Tables_number 1

loop_
_symmetry_equiv_pos_as_xyz
'x,y,z'

loop_
_atom_site_label
_atom_site_type_symbol
_atom_site_fract_x
_atom_site_fract_y
_atom_site_fract_z
Co11	Co1	0.000000	0.000000	0.000000
Co21	Co2	0.000000	0.000000	0.500000
Co31	Co3	0.000000	0.500000	0.500000
H11	H1	0.561600	0.564900	0.654100
H21	H2	0.221200	0.000800	0.308800
H31	H3	0.158900	0.180600	0.986700
H41	H4	0.361600	0.598100	0.625500
H51	H5	0.831600	0.275300	0.371000
H61	H6	0.649100	0.812700	0.018000
H71	H7	0.737400	0.187400	0.961200
H81	H8	0.417600	0.879400	0.296500
H91	H9	0.461400	0.808600	0.030200
H101	H10	0.233100	0.527100	0.340200
H111	H11	0.350900	0.187300	0.982000
H121	H12	0.582400	0.120600	0.703500
H131	H13	0.778800	0.999200	0.691200
H141	H14	0.795800	0.626600	0.295300
H151	H15	0.766900	0.472900	0.659800
H161	H16	0.538600	0.191400	0.969800
H171	H17	0.438400	0.435100	0.345900
H181	H18	0.638400	0.401900	0.374500
H191	H19	0.204200	0.373400	0.704700
H201	H20	0.841100	0.819400	0.013300
H211	H21	0.262600	0.812600	0.038800
H221	H22	0.168400	0.724700	0.629000
H231	H23	0.409400	0.277700	0.719200
H241	H24	0.590600	0.722300	0.280800
C11	C1	0.269100	0.474100	0.417900
C21	C2	0.451100	0.342900	0.532400
C31	C3	0.375100	0.327500	0.640300
C41	C4	0.038600	0.967400	0.767700
C51	C5	0.401400	0.886600	0.020700
C61	C6	0.718500	0.109900	0.975400
C71	C7	0.564200	0.001100	0.997600
C81	C8	0.249900	0.919200	0.374200
C91	C9	0.961400	0.032600	0.232300
C101	C10	0.631000	0.152800	0.632900
C111	C11	0.393000	0.419700	0.420800
C121	C12	0.019200	0.110700	0.730200
C131	C13	0.548900	0.657100	0.467600
C141	C14	0.951100	0.752100	0.514200
C151	C15	0.664000	0.890700	0.008300
C161	C16	0.979100	0.779800	0.379700
C171	C17	0.750100	0.080800	0.625800
C181	C18	0.780300	0.242300	0.438700
C191	C19	0.598600	0.113400	0.979300
C201	C20	0.251600	0.384500	0.631300
C211	C21	0.020900	0.220200	0.620300
C221	C22	0.980800	0.889300	0.269800
C231	C23	0.281500	0.890100	0.024600
C241	C24	0.435800	0.998900	0.002400
C251	C25	0.730900	0.525900	0.582100
C261	C26	0.607000	0.580300	0.579200
C271	C27	0.369000	0.847200	0.367100
C281	C28	0.778800	0.895400	0.005000
C291	C29	0.048900	0.247900	0.485800
C301	C30	0.583700	0.271300	0.536900
C311	C31	0.624900	0.672500	0.359700
C321	C32	0.219700	0.757700	0.561300
C331	C33	0.748400	0.615500	0.368700
C341	C34	0.663900	0.318800	0.439000
C351	C35	0.221200	0.104600	0.995000
C361	C36	0.416300	0.728700	0.463100
C371	C37	0.336100	0.681200	0.561000
C381	C38	0.336000	0.109300	0.991700
N11	N1	0.995600	0.324900	0.652300
N21	N2	0.810900	0.002900	0.990500
N31	N3	0.189100	0.997100	0.009500
N41	N4	0.024100	0.715800	0.225100
N51	N5	0.196500	0.455300	0.521200
N61	N6	0.004400	0.675100	0.347700
N71	N7	0.826700	0.123500	0.528200
N81	N8	0.990000	0.153900	0.824400
N91	N9	0.173300	0.876500	0.471800
N101	N10	0.010000	0.846100	0.175600
N111	N11	0.975900	0.284200	0.774900
N121	N12	0.803500	0.544700	0.478800
O11	O1	0.046200	0.922100	0.687100
O21	O2	0.951000	0.103900	0.116600
O31	O3	0.049000	0.896100	0.883400
O41	O4	0.955400	0.634400	0.586000
O51	O5	0.920600	0.845100	0.550900
O61	O6	0.044600	0.365600	0.414000
O71	O7	0.953800	0.077900	0.312900
O81	O8	0.079400	0.154900	0.449100
