data_NOCZAI_freeONLY_PM
_symmetry_space_group_name_H-M	'P1'
_cell_length_a	7.834000
_cell_length_b	13.782000
_cell_length_c	13.798000
_cell_angle_alpha	107.577000
_cell_angle_beta	97.328000
_cell_angle_gamma	97.034000
_symmetry_Int_Tables_number 1

loop_
_symmetry_equiv_pos_as_xyz
'x,y,z'

loop_
_atom_site_label
_atom_site_type_symbol
_atom_site_fract_x
_atom_site_fract_y
_atom_site_fract_z
Sr11	Sr1	0.955690	0.373510	0.873000
Sr21	Sr2	0.397900	0.297680	0.794570
Sr31	Sr3	0.044310	0.626490	0.127000
Sr41	Sr4	0.602100	0.702320	0.205430
Ni11	Ni1	0.974800	0.755170	0.736310
Ni21	Ni2	0.025200	0.244830	0.263690
H11	H1	0.373100	0.568200	0.529700
H21	H2	0.265500	0.152300	0.025000
H31	H3	0.655800	0.286000	0.195600
H41	H4	0.254800	0.538200	0.663400
H51	H5	0.344200	0.714000	0.804400
H61	H6	0.372300	0.597300	0.301100
H71	H7	0.745200	0.461800	0.336600
H81	H8	0.716300	0.550500	0.634100
H91	H9	0.627700	0.402700	0.698900
H101	H10	0.573500	0.779100	0.743900
H111	H11	0.288300	0.778300	0.341200
H121	H12	0.283700	0.449500	0.365900
H131	H13	0.358200	0.010700	0.055500
H141	H14	0.734500	0.847700	0.975000
H151	H15	0.783300	0.173800	0.722300
H161	H16	0.632600	0.182000	0.909500
H171	H17	0.488600	0.110600	0.836400
H181	H18	0.641800	0.989300	0.944500
H191	H19	0.603700	0.398600	0.098000
H201	H20	0.752900	0.151100	0.058100
H211	H21	0.511400	0.889400	0.163600
H221	H22	0.501300	0.662300	0.394200
H231	H23	0.498700	0.337700	0.605800
H241	H24	0.626900	0.431800	0.470300
H251	H25	0.367400	0.818000	0.090500
H261	H26	0.247100	0.848900	0.941900
H271	H27	0.426500	0.220900	0.256100
H281	H28	0.711700	0.221700	0.658800
H291	H29	0.396300	0.601400	0.902000
H301	H30	0.216700	0.826200	0.277700
C11	C1	0.206000	0.905900	0.931200
C21	C2	0.975300	0.607500	0.327700
C31	C3	0.232000	0.439300	0.420000
C41	C4	0.546000	0.303100	0.183000
C51	C5	0.289000	0.510400	0.518300
C61	C6	0.325000	0.471400	0.047600
C71	C7	0.216200	0.353600	0.147100
C81	C8	0.884400	0.253200	0.445700
C91	C9	0.409500	0.265700	0.218500
C101	C10	0.675000	0.528600	0.952400
C111	C11	0.783800	0.646400	0.852900
C121	C12	0.966600	0.657400	0.522200
C131	C13	0.033400	0.342600	0.477800
C141	C14	0.031700	0.169800	0.883600
C151	C15	0.115600	0.746800	0.554300
C161	C16	0.487800	0.628600	0.875900
C171	C17	0.024700	0.392500	0.672300
C181	C18	0.121300	0.053900	0.258400
C191	C19	0.512200	0.371400	0.124100
C201	C20	0.217200	0.492800	0.596600
C211	C21	0.794000	0.094100	0.068800
C221	C22	0.911300	0.925600	0.101800
C231	C23	0.979000	0.025700	0.166200
C241	C24	0.878700	0.946100	0.741600
C251	C25	0.711000	0.489600	0.481700
C261	C26	0.031500	0.372600	0.132900
C271	C27	0.216900	0.086300	0.980700
C281	C28	0.968500	0.627400	0.867100
C291	C29	0.726100	0.997700	0.001600
C301	C30	0.088200	0.407900	0.578700
C311	C31	0.782800	0.507200	0.403400
C321	C32	0.640000	0.603600	0.894000
C331	C33	0.590500	0.734300	0.781500
C341	C34	0.360000	0.396400	0.106000
C351	C35	0.768000	0.560700	0.580000
C361	C36	0.968300	0.830200	0.116400
C371	C37	0.021000	0.974300	0.833800
C381	C38	0.273900	0.002300	0.998400
C391	C39	0.454000	0.696900	0.817000
C401	C40	0.088700	0.074400	0.898200
C411	C41	0.911800	0.592100	0.421300
C421	C42	0.783100	0.913700	0.019300
N11	N1	0.889100	0.640600	0.599800
N21	N2	0.919000	0.108100	0.149200
N31	N3	0.081000	0.891900	0.850800
N41	N4	0.251100	0.289500	0.202600
N51	N5	0.748900	0.710500	0.797400
N61	N6	0.110900	0.359400	0.400200
O11	O1	0.891600	0.419400	0.699400
O21	O2	0.266400	0.774900	0.278200
O31	O3	0.867900	0.640400	0.273600
O41	O4	0.703000	0.561400	0.052300
O51	O5	0.695000	0.857300	0.364400
O61	O6	0.336000	0.569200	0.092200
O71	O7	0.305000	0.142700	0.635600
O81	O8	0.131700	0.220500	0.845700
O91	O9	0.476800	0.621300	0.332400
O101	O10	0.000800	0.573900	0.924800
O111	O11	0.812000	0.230100	0.510900
O121	O12	0.810100	0.017800	0.722600
O131	O13	0.840400	0.214200	0.348100
O141	O14	0.297000	0.438600	0.947700
O151	O15	0.938500	0.339800	0.183500
O161	O16	0.733600	0.225100	0.721800
O171	O17	0.999200	0.426100	0.075200
O181	O18	0.523200	0.378700	0.667600
O191	O19	0.664000	0.430800	0.907800
O201	O20	0.188000	0.769900	0.489100
O211	O21	0.834200	0.853400	0.690600
O221	O22	0.868300	0.779500	0.154300
O231	O23	0.132100	0.359600	0.726400
O241	O24	0.899300	0.199900	0.916100
O251	O25	0.470900	0.828400	0.123300
O261	O26	0.108400	0.580600	0.300600
O271	O27	0.100700	0.800100	0.083900
O281	O28	0.529100	0.171600	0.876700
O291	O29	0.165800	0.146600	0.309400
O301	O30	0.159600	0.785800	0.651900
O311	O31	0.189900	0.982200	0.277400
O321	O32	0.061500	0.660200	0.816500
