data_NODKOH_freeONLY_PM
_symmetry_space_group_name_H-M	'P1'
_cell_length_a	13.754800
_cell_length_b	13.754800
_cell_length_c	38.161200
_cell_angle_alpha	90.000000
_cell_angle_beta	90.000000
_cell_angle_gamma	90.000000
_symmetry_Int_Tables_number 1

loop_
_symmetry_equiv_pos_as_xyz
'x,y,z'

loop_
_atom_site_label
_atom_site_type_symbol
_atom_site_fract_x
_atom_site_fract_y
_atom_site_fract_z
In11	In1	0.286600	0.949730	0.085050
O11	O1	0.417500	0.893000	0.056600
O21	O2	0.438800	0.954200	0.108800
O31	O3	0.737800	0.608300	0.112100
O41	O4	0.767700	0.712000	0.154400
O51	O5	0.315400	0.089000	0.056500
O61	O6	0.269200	0.096300	0.111300
O71	O7	0.530000	0.467000	0.074700
O81	O8	0.488900	0.467100	0.130200
O91	O9	0.207900	0.909700	0.032400
O101	O10	0.124500	0.968900	0.074300
C11	C1	0.576800	0.886700	0.079500
H11	H1	0.594700	0.882900	0.054600
C21	C2	0.599100	0.790400	0.095700
C31	C3	0.713300	0.777800	0.099500
C41	C4	0.716500	0.882900	0.117800
H21	H2	0.783000	0.906400	0.117900
H31	H3	0.695500	0.876700	0.142000
C51	C5	0.645500	0.964500	0.097400
H41	H4	0.611000	0.006500	0.113600
H51	H5	0.681000	0.003300	0.080400
C61	C6	0.745100	0.762300	0.062800
H61	H6	0.728900	0.697400	0.055600
H71	H7	0.814100	0.771600	0.061200
H81	H8	0.712800	0.808100	0.047800
C71	C7	0.539500	0.751900	0.124500
H91	H9	0.552900	0.787800	0.145500
H101	H10	0.554800	0.684600	0.128100
H111	H11	0.471900	0.758300	0.118700
C81	C8	0.557700	0.701100	0.066600
H121	H12	0.569100	0.637900	0.076400
H131	H13	0.592000	0.706900	0.044700
H141	H14	0.489300	0.709700	0.062600
C91	C9	0.473700	0.917500	0.081300
C101	C10	0.743200	0.699100	0.124100
C111	C11	0.291800	0.245300	0.082400
C121	C12	0.383900	0.296000	0.101400
C131	C13	0.383400	0.399100	0.089800
H151	H15	0.333400	0.431900	0.103800
C141	C14	0.348000	0.402800	0.051500
H161	H16	0.401600	0.414500	0.035500
H171	H17	0.299100	0.452700	0.048300
C151	C15	0.304400	0.299200	0.046300
H181	H18	0.347000	0.261400	0.031300
H191	H19	0.241700	0.304400	0.034900
C161	C16	0.190900	0.283500	0.099000
H201	H20	0.182400	0.256000	0.121900
H211	H21	0.137800	0.264000	0.084200
H221	H22	0.192300	0.353100	0.100700
C171	C17	0.358800	0.294000	0.144500
H231	H23	0.358800	0.227800	0.152700
H241	H24	0.296000	0.322200	0.148500
H251	H25	0.407200	0.330200	0.157000
C181	C18	0.471600	0.237900	0.094800
H261	H26	0.461200	0.172300	0.102500
H271	H27	0.525400	0.265600	0.107300
H281	H28	0.485500	0.237900	0.070100
C191	C19	0.290100	0.134100	0.082700
C201	C20	0.480700	0.449200	0.098900
C211	C21	0.044300	0.941200	0.020000
C221	C22	0.059000	0.894000	0.980300
C231	C23	0.952000	0.939000	0.041100
C241	C24	0.132000	0.987000	0.966900
C251	C25	0.127600	0.937800	0.043300
In21	In2	0.713400	0.050270	0.585050
O111	O11	0.582500	0.107000	0.556600
O121	O12	0.561200	0.045800	0.608800
O131	O13	0.262200	0.391700	0.612100
O141	O14	0.232300	0.288000	0.654400
O151	O15	0.684600	0.911000	0.556500
O161	O16	0.730800	0.903700	0.611300
O171	O17	0.470000	0.533000	0.574700
O181	O18	0.511100	0.532900	0.630200
O191	O19	0.792100	0.090300	0.532400
O201	O20	0.875500	0.031100	0.574300
C261	C26	0.423200	0.113300	0.579500
H291	H29	0.405300	0.117100	0.554600
C271	C27	0.400900	0.209600	0.595700
C281	C28	0.286700	0.222200	0.599500
C291	C29	0.283500	0.117100	0.617800
H301	H30	0.217000	0.093600	0.617900
H311	H31	0.304500	0.123300	0.642000
C301	C30	0.354500	0.035500	0.597400
H321	H32	0.389000	0.993500	0.613600
H331	H33	0.319000	0.996700	0.580400
C311	C31	0.254900	0.237700	0.562800
H341	H34	0.271100	0.302600	0.555600
H351	H35	0.185900	0.228400	0.561200
H361	H36	0.287200	0.191900	0.547800
C321	C32	0.460500	0.248100	0.624500
H371	H37	0.447100	0.212200	0.645500
H381	H38	0.445200	0.315400	0.628100
H391	H39	0.528100	0.241700	0.618700
C331	C33	0.442300	0.298900	0.566600
H401	H40	0.430900	0.362100	0.576400
H411	H41	0.408000	0.293100	0.544700
H421	H42	0.510700	0.290300	0.562600
C341	C34	0.526300	0.082500	0.581300
C351	C35	0.256800	0.300900	0.624100
C361	C36	0.708200	0.754700	0.582400
C371	C37	0.616100	0.704000	0.601400
C381	C38	0.616600	0.600900	0.589800
H431	H43	0.666600	0.568100	0.603800
C391	C39	0.652000	0.597200	0.551500
H441	H44	0.598400	0.585500	0.535500
H451	H45	0.700900	0.547300	0.548300
C401	C40	0.695600	0.700800	0.546300
H461	H46	0.653000	0.738600	0.531300
H471	H47	0.758300	0.695600	0.534900
C411	C41	0.809100	0.716500	0.599000
H481	H48	0.817600	0.744000	0.621900
H491	H49	0.862200	0.736000	0.584200
H501	H50	0.807700	0.646900	0.600700
C421	C42	0.641200	0.706000	0.644500
H511	H51	0.641200	0.772200	0.652700
H521	H52	0.704000	0.677800	0.648500
H531	H53	0.592800	0.669800	0.657000
C431	C43	0.528400	0.762100	0.594800
H541	H54	0.538800	0.827700	0.602500
H551	H55	0.474600	0.734400	0.607300
H561	H56	0.514500	0.762100	0.570100
C441	C44	0.709900	0.865900	0.582700
C451	C45	0.519300	0.550800	0.598900
C461	C46	0.955700	0.058800	0.520000
C471	C47	0.941000	0.106000	0.480300
C481	C48	0.048000	0.061000	0.541100
C491	C49	0.868000	0.013000	0.466900
C501	C50	0.872400	0.062200	0.543300
In31	In3	0.550270	0.786600	0.835050
O211	O21	0.607000	0.917500	0.806600
O221	O22	0.545800	0.938800	0.858800
O231	O23	0.891700	0.237800	0.862100
O241	O24	0.788000	0.267700	0.904400
O251	O25	0.411000	0.815400	0.806500
O261	O26	0.403700	0.769200	0.861300
O271	O27	0.033000	0.030000	0.824700
O281	O28	0.032900	0.988900	0.880200
O291	O29	0.590300	0.707900	0.782400
O301	O30	0.531100	0.624500	0.824300
C511	C51	0.613300	0.076800	0.829500
H571	H57	0.617100	0.094700	0.804600
C521	C52	0.709600	0.099100	0.845700
C531	C53	0.722200	0.213300	0.849500
C541	C54	0.617100	0.216500	0.867800
H581	H58	0.593600	0.283000	0.867900
H591	H59	0.623300	0.195500	0.892000
C551	C55	0.535500	0.145500	0.847400
H601	H60	0.493500	0.111000	0.863600
H611	H61	0.496700	0.181000	0.830400
C561	C56	0.737700	0.245100	0.812800
H621	H62	0.802600	0.228900	0.805600
H631	H63	0.728400	0.314100	0.811200
H641	H64	0.691900	0.212800	0.797800
C571	C57	0.748100	0.039500	0.874500
H651	H65	0.712200	0.052900	0.895500
H661	H66	0.815400	0.054800	0.878100
H671	H67	0.741700	0.971900	0.868700
C581	C58	0.798900	0.057700	0.816600
H681	H68	0.862100	0.069100	0.826400
H691	H69	0.793100	0.092000	0.794700
H701	H70	0.790300	0.989300	0.812600
C591	C59	0.582500	0.973700	0.831300
C601	C60	0.800900	0.243200	0.874100
C611	C61	0.254700	0.791800	0.832400
C621	C62	0.204000	0.883900	0.851400
C631	C63	0.100900	0.883400	0.839800
H711	H71	0.068100	0.833400	0.853800
C641	C64	0.097200	0.848000	0.801500
H721	H72	0.085500	0.901600	0.785500
H731	H73	0.047300	0.799100	0.798300
C651	C65	0.200800	0.804400	0.796300
H741	H74	0.238600	0.847000	0.781300
H751	H75	0.195600	0.741700	0.784900
C661	C66	0.216500	0.690900	0.849000
H761	H76	0.244000	0.682400	0.871900
H771	H77	0.236000	0.637800	0.834200
H781	H78	0.146900	0.692300	0.850700
C671	C67	0.206000	0.858800	0.894500
H791	H79	0.272200	0.858800	0.902700
H801	H80	0.177800	0.796000	0.898500
H811	H81	0.169800	0.907200	0.907000
C681	C68	0.262100	0.971600	0.844800
H821	H82	0.327700	0.961200	0.852500
H831	H83	0.234400	0.025400	0.857300
H841	H84	0.262100	0.985500	0.820100
C691	C69	0.365900	0.790100	0.832700
C701	C70	0.050800	0.980700	0.848900
C711	C71	0.558800	0.544300	0.770000
C721	C72	0.606000	0.559000	0.730300
C731	C73	0.561000	0.452000	0.791100
C741	C74	0.513000	0.632000	0.716900
C751	C75	0.562200	0.627600	0.793300
In41	In4	0.449730	0.213400	0.335050
O311	O31	0.393000	0.082500	0.306600
O321	O32	0.454200	0.061200	0.358800
O331	O33	0.108300	0.762200	0.362100
O341	O34	0.212000	0.732300	0.404400
O351	O35	0.589000	0.184600	0.306500
O361	O36	0.596300	0.230800	0.361300
O371	O37	0.967000	0.970000	0.324700
O381	O38	0.967100	0.011100	0.380200
O391	O39	0.409700	0.292100	0.282400
O401	O40	0.468900	0.375500	0.324300
C761	C76	0.386700	0.923200	0.329500
H851	H85	0.382900	0.905300	0.304600
C771	C77	0.290400	0.900900	0.345700
C781	C78	0.277800	0.786700	0.349500
C791	C79	0.382900	0.783500	0.367800
H861	H86	0.406400	0.717000	0.367900
H871	H87	0.376700	0.804500	0.392000
C801	C80	0.464500	0.854500	0.347400
H881	H88	0.506500	0.889000	0.363600
H891	H89	0.503300	0.819000	0.330400
C811	C81	0.262300	0.754900	0.312800
H901	H90	0.197400	0.771100	0.305600
H911	H91	0.271600	0.685900	0.311200
H921	H92	0.308100	0.787200	0.297800
C821	C82	0.251900	0.960500	0.374500
H931	H93	0.287800	0.947100	0.395500
H941	H94	0.184600	0.945200	0.378100
H951	H95	0.258300	0.028100	0.368700
C831	C83	0.201100	0.942300	0.316600
H961	H96	0.137900	0.930900	0.326400
H971	H97	0.206900	0.908000	0.294700
H981	H98	0.209700	0.010700	0.312600
C841	C84	0.417500	0.026300	0.331300
C851	C85	0.199100	0.756800	0.374100
C861	C86	0.745300	0.208200	0.332400
C871	C87	0.796000	0.116100	0.351400
C881	C88	0.899100	0.116600	0.339800
H991	H99	0.931900	0.166600	0.353800
C891	C89	0.902800	0.152000	0.301500
H1001	H100	0.914500	0.098400	0.285500
H1011	H101	0.952700	0.200900	0.298300
C901	C90	0.799200	0.195600	0.296300
H1021	H102	0.761400	0.153000	0.281300
H1031	H103	0.804400	0.258300	0.284900
C911	C91	0.783500	0.309100	0.349000
H1041	H104	0.756000	0.317600	0.371900
H1051	H105	0.764000	0.362200	0.334200
H1061	H106	0.853100	0.307700	0.350700
C921	C92	0.794000	0.141200	0.394500
H1071	H107	0.727800	0.141200	0.402700
H1081	H108	0.822200	0.204000	0.398500
H1091	H109	0.830200	0.092800	0.407000
C931	C93	0.737900	0.028400	0.344800
H1101	H110	0.672300	0.038800	0.352500
H1111	H111	0.765600	0.974600	0.357300
H1121	H112	0.737900	0.014500	0.320100
C941	C94	0.634100	0.209900	0.332700
C951	C95	0.949200	0.019300	0.348900
C961	C96	0.441200	0.455700	0.270000
C971	C97	0.394000	0.441000	0.230300
C981	C98	0.439000	0.548000	0.291100
C991	C99	0.487000	0.368000	0.216900
C1001	C100	0.437800	0.372400	0.293300
In51	In5	0.213400	0.449730	0.664950
O411	O41	0.082500	0.393000	0.693400
O421	O42	0.061200	0.454200	0.641200
O431	O43	0.762200	0.108300	0.637900
O441	O44	0.732300	0.212000	0.595600
O451	O45	0.184600	0.589000	0.693500
O461	O46	0.230800	0.596300	0.638700
O471	O47	0.970000	0.967000	0.675300
O481	O48	0.011100	0.967100	0.619800
O491	O49	0.292100	0.409700	0.717600
O501	O50	0.375500	0.468900	0.675700
C1011	C101	0.923200	0.386700	0.670500
H1131	H113	0.905300	0.382900	0.695400
C1021	C102	0.900900	0.290400	0.654300
C1031	C103	0.786700	0.277800	0.650500
C1041	C104	0.783500	0.382900	0.632200
H1141	H114	0.717000	0.406400	0.632100
H1151	H115	0.804500	0.376700	0.608000
C1051	C105	0.854500	0.464500	0.652600
H1161	H116	0.889000	0.506500	0.636400
H1171	H117	0.819000	0.503300	0.669600
C1061	C106	0.754900	0.262300	0.687200
H1181	H118	0.771100	0.197400	0.694400
H1191	H119	0.685900	0.271600	0.688800
H1201	H120	0.787200	0.308100	0.702200
C1071	C107	0.960500	0.251900	0.625500
H1211	H121	0.947100	0.287800	0.604500
H1221	H122	0.945200	0.184600	0.621900
H1231	H123	0.028100	0.258300	0.631300
C1081	C108	0.942300	0.201100	0.683400
H1241	H124	0.930900	0.137900	0.673600
H1251	H125	0.908000	0.206900	0.705300
H1261	H126	0.010700	0.209700	0.687400
C1091	C109	0.026300	0.417500	0.668700
C1101	C110	0.756800	0.199100	0.625900
C1111	C111	0.208200	0.745300	0.667600
C1121	C112	0.116100	0.796000	0.648600
C1131	C113	0.116600	0.899100	0.660200
H1271	H127	0.166600	0.931900	0.646200
C1141	C114	0.152000	0.902800	0.698500
H1281	H128	0.098400	0.914500	0.714500
H1291	H129	0.200900	0.952700	0.701700
C1151	C115	0.195600	0.799200	0.703700
H1301	H130	0.153000	0.761400	0.718700
H1311	H131	0.258300	0.804400	0.715100
C1161	C116	0.309100	0.783500	0.651000
H1321	H132	0.317600	0.756000	0.628100
H1331	H133	0.362200	0.764000	0.665800
H1341	H134	0.307700	0.853100	0.649300
C1171	C117	0.141200	0.794000	0.605500
H1351	H135	0.141200	0.727800	0.597300
H1361	H136	0.204000	0.822200	0.601500
H1371	H137	0.092800	0.830200	0.593000
C1181	C118	0.028400	0.737900	0.655200
H1381	H138	0.038800	0.672300	0.647500
H1391	H139	0.974600	0.765600	0.642700
H1401	H140	0.014500	0.737900	0.679900
C1191	C119	0.209900	0.634100	0.667300
C1201	C120	0.019300	0.949200	0.651100
C1211	C121	0.455700	0.441200	0.730000
C1221	C122	0.441000	0.394000	0.769700
C1231	C123	0.548000	0.439000	0.708900
C1241	C124	0.368000	0.487000	0.783100
C1251	C125	0.372400	0.437800	0.706700
In61	In6	0.786600	0.550270	0.164950
O511	O51	0.917500	0.607000	0.193400
O521	O52	0.938800	0.545800	0.141200
O531	O53	0.237800	0.891700	0.137900
O541	O54	0.267700	0.788000	0.095600
O551	O55	0.815400	0.411000	0.193500
O561	O56	0.769200	0.403700	0.138700
O571	O57	0.030000	0.033000	0.175300
O581	O58	0.988900	0.032900	0.119800
O591	O59	0.707900	0.590300	0.217600
O601	O60	0.624500	0.531100	0.175700
C1261	C126	0.076800	0.613300	0.170500
H1411	H141	0.094700	0.617100	0.195400
C1271	C127	0.099100	0.709600	0.154300
C1281	C128	0.213300	0.722200	0.150500
C1291	C129	0.216500	0.617100	0.132200
H1421	H142	0.283000	0.593600	0.132100
H1431	H143	0.195500	0.623300	0.108000
C1301	C130	0.145500	0.535500	0.152600
H1441	H144	0.111000	0.493500	0.136400
H1451	H145	0.181000	0.496700	0.169600
C1311	C131	0.245100	0.737700	0.187200
H1461	H146	0.228900	0.802600	0.194400
H1471	H147	0.314100	0.728400	0.188800
H1481	H148	0.212800	0.691900	0.202200
C1321	C132	0.039500	0.748100	0.125500
H1491	H149	0.052900	0.712200	0.104500
H1501	H150	0.054800	0.815400	0.121900
H1511	H151	0.971900	0.741700	0.131300
C1331	C133	0.057700	0.798900	0.183400
H1521	H152	0.069100	0.862100	0.173600
H1531	H153	0.092000	0.793100	0.205300
H1541	H154	0.989300	0.790300	0.187400
C1341	C134	0.973700	0.582500	0.168700
C1351	C135	0.243200	0.800900	0.125900
C1361	C136	0.791800	0.254700	0.167600
C1371	C137	0.883900	0.204000	0.148600
C1381	C138	0.883400	0.100900	0.160200
H1551	H155	0.833400	0.068100	0.146200
C1391	C139	0.848000	0.097200	0.198500
H1561	H156	0.901600	0.085500	0.214500
H1571	H157	0.799100	0.047300	0.201700
C1401	C140	0.804400	0.200800	0.203700
H1581	H158	0.847000	0.238600	0.218700
H1591	H159	0.741700	0.195600	0.215100
C1411	C141	0.690900	0.216500	0.151000
H1601	H160	0.682400	0.244000	0.128100
H1611	H161	0.637800	0.236000	0.165800
H1621	H162	0.692300	0.146900	0.149300
C1421	C142	0.858800	0.206000	0.105500
H1631	H163	0.858800	0.272200	0.097300
H1641	H164	0.796000	0.177800	0.101500
H1651	H165	0.907200	0.169800	0.093000
C1431	C143	0.971600	0.262100	0.155200
H1661	H166	0.961200	0.327700	0.147500
H1671	H167	0.025400	0.234400	0.142700
H1681	H168	0.985500	0.262100	0.179900
C1441	C144	0.790100	0.365900	0.167300
C1451	C145	0.980700	0.050800	0.151100
C1461	C146	0.544300	0.558800	0.230000
C1471	C147	0.559000	0.606000	0.269700
C1481	C148	0.452000	0.561000	0.208900
C1491	C149	0.632000	0.513000	0.283100
C1501	C150	0.627600	0.562200	0.206700
In71	In7	0.949730	0.286600	0.914950
O611	O61	0.893000	0.417500	0.943400
O621	O62	0.954200	0.438800	0.891200
O631	O63	0.608300	0.737800	0.887900
O641	O64	0.712000	0.767700	0.845600
O651	O65	0.089000	0.315400	0.943500
O661	O66	0.096300	0.269200	0.888700
O671	O67	0.467000	0.530000	0.925300
O681	O68	0.467100	0.488900	0.869800
O691	O69	0.909700	0.207900	0.967600
O701	O70	0.968900	0.124500	0.925700
C1511	C151	0.886700	0.576800	0.920500
H1691	H169	0.882900	0.594700	0.945400
C1521	C152	0.790400	0.599100	0.904300
C1531	C153	0.777800	0.713300	0.900500
C1541	C154	0.882900	0.716500	0.882200
H1701	H170	0.906400	0.783000	0.882100
H1711	H171	0.876700	0.695500	0.858000
C1551	C155	0.964500	0.645500	0.902600
H1721	H172	0.006500	0.611000	0.886400
H1731	H173	0.003300	0.681000	0.919600
C1561	C156	0.762300	0.745100	0.937200
H1741	H174	0.697400	0.728900	0.944400
H1751	H175	0.771600	0.814100	0.938800
H1761	H176	0.808100	0.712800	0.952200
C1571	C157	0.751900	0.539500	0.875500
H1771	H177	0.787800	0.552900	0.854500
H1781	H178	0.684600	0.554800	0.871900
H1791	H179	0.758300	0.471900	0.881300
C1581	C158	0.701100	0.557700	0.933400
H1801	H180	0.637900	0.569100	0.923600
H1811	H181	0.706900	0.592000	0.955300
H1821	H182	0.709700	0.489300	0.937400
C1591	C159	0.917500	0.473700	0.918700
C1601	C160	0.699100	0.743200	0.875900
C1611	C161	0.245300	0.291800	0.917600
C1621	C162	0.296000	0.383900	0.898600
C1631	C163	0.399100	0.383400	0.910200
H1831	H183	0.431900	0.333400	0.896200
C1641	C164	0.402800	0.348000	0.948500
H1841	H184	0.414500	0.401600	0.964500
H1851	H185	0.452700	0.299100	0.951700
C1651	C165	0.299200	0.304400	0.953700
H1861	H186	0.261400	0.347000	0.968700
H1871	H187	0.304400	0.241700	0.965100
C1661	C166	0.283500	0.190900	0.901000
H1881	H188	0.256000	0.182400	0.878100
H1891	H189	0.264000	0.137800	0.915800
H1901	H190	0.353100	0.192300	0.899300
C1671	C167	0.294000	0.358800	0.855500
H1911	H191	0.227800	0.358800	0.847300
H1921	H192	0.322200	0.296000	0.851500
H1931	H193	0.330200	0.407200	0.843000
C1681	C168	0.237900	0.471600	0.905200
H1941	H194	0.172300	0.461200	0.897500
H1951	H195	0.265600	0.525400	0.892700
H1961	H196	0.237900	0.485500	0.929900
C1691	C169	0.134100	0.290100	0.917300
C1701	C170	0.449200	0.480700	0.901100
C1711	C171	0.941200	0.044300	0.980000
C1721	C172	0.894000	0.059000	0.019700
C1731	C173	0.939000	0.952000	0.958900
C1741	C174	0.987000	0.132000	0.033100
C1751	C175	0.937800	0.127600	0.956700
In81	In8	0.050270	0.713400	0.414950
O711	O71	0.107000	0.582500	0.443400
O721	O72	0.045800	0.561200	0.391200
O731	O73	0.391700	0.262200	0.387900
O741	O74	0.288000	0.232300	0.345600
O751	O75	0.911000	0.684600	0.443500
O761	O76	0.903700	0.730800	0.388700
O771	O77	0.533000	0.470000	0.425300
O781	O78	0.532900	0.511100	0.369800
O791	O79	0.090300	0.792100	0.467600
O801	O80	0.031100	0.875500	0.425700
C1761	C176	0.113300	0.423200	0.420500
H1971	H197	0.117100	0.405300	0.445400
C1771	C177	0.209600	0.400900	0.404300
C1781	C178	0.222200	0.286700	0.400500
C1791	C179	0.117100	0.283500	0.382200
H1981	H198	0.093600	0.217000	0.382100
H1991	H199	0.123300	0.304500	0.358000
C1801	C180	0.035500	0.354500	0.402600
H2001	H200	0.993500	0.389000	0.386400
H2011	H201	0.996700	0.319000	0.419600
C1811	C181	0.237700	0.254900	0.437200
H2021	H202	0.302600	0.271100	0.444400
H2031	H203	0.228400	0.185900	0.438800
H2041	H204	0.191900	0.287200	0.452200
C1821	C182	0.248100	0.460500	0.375500
H2051	H205	0.212200	0.447100	0.354500
H2061	H206	0.315400	0.445200	0.371900
H2071	H207	0.241700	0.528100	0.381300
C1831	C183	0.298900	0.442300	0.433400
H2081	H208	0.362100	0.430900	0.423600
H2091	H209	0.293100	0.408000	0.455300
H2101	H210	0.290300	0.510700	0.437400
C1841	C184	0.082500	0.526300	0.418700
C1851	C185	0.300900	0.256800	0.375900
C1861	C186	0.754700	0.708200	0.417600
C1871	C187	0.704000	0.616100	0.398600
C1881	C188	0.600900	0.616600	0.410200
H2111	H211	0.568100	0.666600	0.396200
C1891	C189	0.597200	0.652000	0.448500
H2121	H212	0.585500	0.598400	0.464500
H2131	H213	0.547300	0.700900	0.451700
C1901	C190	0.700800	0.695600	0.453700
H2141	H214	0.738600	0.653000	0.468700
H2151	H215	0.695600	0.758300	0.465100
C1911	C191	0.716500	0.809100	0.401000
H2161	H216	0.744000	0.817600	0.378100
H2171	H217	0.736000	0.862200	0.415800
H2181	H218	0.646900	0.807700	0.399300
C1921	C192	0.706000	0.641200	0.355500
H2191	H219	0.772200	0.641200	0.347300
H2201	H220	0.677800	0.704000	0.351500
H2211	H221	0.669800	0.592800	0.343000
C1931	C193	0.762100	0.528400	0.405200
H2221	H222	0.827700	0.538800	0.397500
H2231	H223	0.734400	0.474600	0.392700
H2241	H224	0.762100	0.514500	0.429900
C1941	C194	0.865900	0.709900	0.417300
C1951	C195	0.550800	0.519300	0.401100
C1961	C196	0.058800	0.955700	0.480000
C1971	C197	0.106000	0.941000	0.519700
C1981	C198	0.061000	0.048000	0.458900
C1991	C199	0.013000	0.868000	0.533100
C2001	C200	0.062200	0.872400	0.456700
C2011	C201	0.036000	0.036000	0.000000
C2021	C202	0.098000	0.098000	0.000000
C2031	C203	0.964000	0.964000	0.500000
C2041	C204	0.902000	0.902000	0.500000
C2051	C205	0.464000	0.536000	0.750000
C2061	C206	0.402000	0.598000	0.750000
C2071	C207	0.536000	0.464000	0.250000
C2081	C208	0.598000	0.402000	0.250000
