data_NODKUN_freeONLY_PM
_symmetry_space_group_name_H-M	'P1'
_cell_length_a	22.748000
_cell_length_b	15.846600
_cell_length_c	15.112600
_cell_angle_alpha	90.000000
_cell_angle_beta	90.000000
_cell_angle_gamma	90.000000
_symmetry_Int_Tables_number 1

loop_
_symmetry_equiv_pos_as_xyz
'x,y,z'

loop_
_atom_site_label
_atom_site_type_symbol
_atom_site_fract_x
_atom_site_fract_y
_atom_site_fract_z
In11	In1	0.171010	0.602030	0.866920
O11	O1	0.131700	0.701500	0.773100
O21	O2	0.110240	0.671400	0.961500
O31	O3	0.701190	0.960200	0.855100
O41	O4	0.736720	0.802000	0.423600
O51	O5	0.146350	0.571900	0.725700
O61	O6	0.076550	0.558900	0.894300
O71	O7	0.760900	0.875600	0.308900
O81	O8	0.704140	0.025700	0.983400
O91	O9	0.011250	0.718200	0.391500
O101	O10	0.842660	0.690200	0.083200
C11	C1	0.009200	0.637500	0.982800
C21	C2	0.836000	0.791300	0.374200
C31	C3	0.877600	0.814400	0.309700
H11	H1	0.866000	0.846700	0.261400
C41	C4	0.775400	0.824000	0.368700
C51	C5	0.097700	0.666500	0.627300
C61	C6	0.074700	0.745900	0.612200
H21	H2	0.079600	0.787900	0.654600
C71	C7	0.037900	0.700600	0.472100
C81	C8	0.994600	0.718700	0.013100
H31	H3	0.022600	0.761400	0.010400
C91	C9	0.061900	0.622500	0.483300
H41	H4	0.058200	0.581800	0.439300
C101	C10	0.044500	0.764000	0.534900
H51	H5	0.028900	0.817500	0.525200
C111	C11	0.092300	0.604000	0.562500
H61	H6	0.108600	0.550800	0.571400
C121	C12	0.953200	0.742400	0.389700
C131	C13	0.966600	0.574700	0.988500
H71	H7	0.975600	0.520400	0.969600
C141	C14	0.126500	0.645800	0.712800
C151	C15	0.853400	0.744000	0.444700
H81	H8	0.825900	0.727800	0.486900
C161	C16	0.898000	0.672900	0.049500
C171	C17	0.910900	0.591800	0.021900
H91	H9	0.882800	0.549400	0.025700
C181	C18	0.748500	0.888900	0.973500
C191	C19	0.777700	0.832400	0.919900
H101	H10	0.775000	0.838600	0.858900
C201	C20	0.940200	0.736200	0.046400
H111	H11	0.931400	0.790100	0.066900
C211	C21	0.810500	0.767400	0.953400
H121	H12	0.831100	0.731400	0.915900
C221	C22	0.912600	0.719100	0.454700
H131	H13	0.924400	0.687700	0.503600
C231	C23	0.935500	0.789500	0.317300
H141	H14	0.962600	0.804400	0.274000
C241	C24	0.782200	0.810300	0.101000
H151	H15	0.783100	0.801800	0.161800
C251	C25	0.812400	0.756400	0.045300
C261	C26	0.750500	0.877000	0.066100
H161	H16	0.730600	0.913900	0.103500
C271	C27	0.716400	0.962200	0.936600
C281	C28	0.068000	0.620400	0.944400
In21	In2	0.671010	0.102030	0.866920
O111	O11	0.631700	0.201500	0.773100
O121	O12	0.610240	0.171400	0.961500
O131	O13	0.201190	0.460200	0.855100
O141	O14	0.236720	0.302000	0.423600
O151	O15	0.646350	0.071900	0.725700
O161	O16	0.576550	0.058900	0.894300
O171	O17	0.260900	0.375600	0.308900
O181	O18	0.204140	0.525700	0.983400
O191	O19	0.511250	0.218200	0.391500
O201	O20	0.342660	0.190200	0.083200
C291	C29	0.509200	0.137500	0.982800
C301	C30	0.336000	0.291300	0.374200
C311	C31	0.377600	0.314400	0.309700
H171	H17	0.366000	0.346700	0.261400
C321	C32	0.275400	0.324000	0.368700
C331	C33	0.597700	0.166500	0.627300
C341	C34	0.574700	0.245900	0.612200
H181	H18	0.579600	0.287900	0.654600
C351	C35	0.537900	0.200600	0.472100
C361	C36	0.494600	0.218700	0.013100
H191	H19	0.522600	0.261400	0.010400
C371	C37	0.561900	0.122500	0.483300
H201	H20	0.558200	0.081800	0.439300
C381	C38	0.544500	0.264000	0.534900
H211	H21	0.528900	0.317500	0.525200
C391	C39	0.592300	0.104000	0.562500
H221	H22	0.608600	0.050800	0.571400
C401	C40	0.453200	0.242400	0.389700
C411	C41	0.466600	0.074700	0.988500
H231	H23	0.475600	0.020400	0.969600
C421	C42	0.626500	0.145800	0.712800
C431	C43	0.353400	0.244000	0.444700
H241	H24	0.325900	0.227800	0.486900
C441	C44	0.398000	0.172900	0.049500
C451	C45	0.410900	0.091800	0.021900
H251	H25	0.382800	0.049400	0.025700
C461	C46	0.248500	0.388900	0.973500
C471	C47	0.277700	0.332400	0.919900
H261	H26	0.275000	0.338600	0.858900
C481	C48	0.440200	0.236200	0.046400
H271	H27	0.431400	0.290100	0.066900
C491	C49	0.310500	0.267400	0.953400
H281	H28	0.331100	0.231400	0.915900
C501	C50	0.412600	0.219100	0.454700
H291	H29	0.424400	0.187700	0.503600
C511	C51	0.435500	0.289500	0.317300
H301	H30	0.462600	0.304400	0.274000
C521	C52	0.282200	0.310300	0.101000
H311	H31	0.283100	0.301800	0.161800
C531	C53	0.312400	0.256400	0.045300
C541	C54	0.250500	0.377000	0.066100
H321	H32	0.230600	0.413900	0.103500
C551	C55	0.216400	0.462200	0.936600
C561	C56	0.568000	0.120400	0.944400
In31	In3	0.171010	0.397970	0.366920
O211	O21	0.131700	0.298500	0.273100
O221	O22	0.110240	0.328600	0.461500
O231	O23	0.701190	0.039800	0.355100
O241	O24	0.736720	0.198000	0.923600
O251	O25	0.146350	0.428100	0.225700
O261	O26	0.076550	0.441100	0.394300
O271	O27	0.760900	0.124400	0.808900
O281	O28	0.704140	0.974300	0.483400
O291	O29	0.011250	0.281800	0.891500
O301	O30	0.842660	0.309800	0.583200
C571	C57	0.009200	0.362500	0.482800
C581	C58	0.836000	0.208700	0.874200
C591	C59	0.877600	0.185600	0.809700
H331	H33	0.866000	0.153300	0.761400
C601	C60	0.775400	0.176000	0.868700
C611	C61	0.097700	0.333500	0.127300
C621	C62	0.074700	0.254100	0.112200
H341	H34	0.079600	0.212100	0.154600
C631	C63	0.037900	0.299400	0.972100
C641	C64	0.994600	0.281300	0.513100
H351	H35	0.022600	0.238600	0.510400
C651	C65	0.061900	0.377500	0.983300
H361	H36	0.058200	0.418200	0.939300
C661	C66	0.044500	0.236000	0.034900
H371	H37	0.028900	0.182500	0.025200
C671	C67	0.092300	0.396000	0.062500
H381	H38	0.108600	0.449200	0.071400
C681	C68	0.953200	0.257600	0.889700
C691	C69	0.966600	0.425300	0.488500
H391	H39	0.975600	0.479600	0.469600
C701	C70	0.126500	0.354200	0.212800
C711	C71	0.853400	0.256000	0.944700
H401	H40	0.825900	0.272200	0.986900
C721	C72	0.898000	0.327100	0.549500
C731	C73	0.910900	0.408200	0.521900
H411	H41	0.882800	0.450600	0.525700
C741	C74	0.748500	0.111100	0.473500
C751	C75	0.777700	0.167600	0.419900
H421	H42	0.775000	0.161400	0.358900
C761	C76	0.940200	0.263800	0.546400
H431	H43	0.931400	0.209900	0.566900
C771	C77	0.810500	0.232600	0.453400
H441	H44	0.831100	0.268600	0.415900
C781	C78	0.912600	0.280900	0.954700
H451	H45	0.924400	0.312300	0.003600
C791	C79	0.935500	0.210500	0.817300
H461	H46	0.962600	0.195600	0.774000
C801	C80	0.782200	0.189700	0.601000
H471	H47	0.783100	0.198200	0.661800
C811	C81	0.812400	0.243600	0.545300
C821	C82	0.750500	0.123000	0.566100
H481	H48	0.730600	0.086100	0.603500
C831	C83	0.716400	0.037800	0.436600
C841	C84	0.068000	0.379600	0.444400
In41	In4	0.671010	0.897970	0.366920
O311	O31	0.631700	0.798500	0.273100
O321	O32	0.610240	0.828600	0.461500
O331	O33	0.201190	0.539800	0.355100
O341	O34	0.236720	0.698000	0.923600
O351	O35	0.646350	0.928100	0.225700
O361	O36	0.576550	0.941100	0.394300
O371	O37	0.260900	0.624400	0.808900
O381	O38	0.204140	0.474300	0.483400
O391	O39	0.511250	0.781800	0.891500
O401	O40	0.342660	0.809800	0.583200
C851	C85	0.509200	0.862500	0.482800
C861	C86	0.336000	0.708700	0.874200
C871	C87	0.377600	0.685600	0.809700
H491	H49	0.366000	0.653300	0.761400
C881	C88	0.275400	0.676000	0.868700
C891	C89	0.597700	0.833500	0.127300
C901	C90	0.574700	0.754100	0.112200
H501	H50	0.579600	0.712100	0.154600
C911	C91	0.537900	0.799400	0.972100
C921	C92	0.494600	0.781300	0.513100
H511	H51	0.522600	0.738600	0.510400
C931	C93	0.561900	0.877500	0.983300
H521	H52	0.558200	0.918200	0.939300
C941	C94	0.544500	0.736000	0.034900
H531	H53	0.528900	0.682500	0.025200
C951	C95	0.592300	0.896000	0.062500
H541	H54	0.608600	0.949200	0.071400
C961	C96	0.453200	0.757600	0.889700
C971	C97	0.466600	0.925300	0.488500
H551	H55	0.475600	0.979600	0.469600
C981	C98	0.626500	0.854200	0.212800
C991	C99	0.353400	0.756000	0.944700
H561	H56	0.325900	0.772200	0.986900
C1001	C100	0.398000	0.827100	0.549500
C1011	C101	0.410900	0.908200	0.521900
H571	H57	0.382800	0.950600	0.525700
C1021	C102	0.248500	0.611100	0.473500
C1031	C103	0.277700	0.667600	0.419900
H581	H58	0.275000	0.661400	0.358900
C1041	C104	0.440200	0.763800	0.546400
H591	H59	0.431400	0.709900	0.566900
C1051	C105	0.310500	0.732600	0.453400
H601	H60	0.331100	0.768600	0.415900
C1061	C106	0.412600	0.780900	0.954700
H611	H61	0.424400	0.812300	0.003600
C1071	C107	0.435500	0.710500	0.817300
H621	H62	0.462600	0.695600	0.774000
C1081	C108	0.282200	0.689700	0.601000
H631	H63	0.283100	0.698200	0.661800
C1091	C109	0.312400	0.743600	0.545300
C1101	C110	0.250500	0.623000	0.566100
H641	H64	0.230600	0.586100	0.603500
C1111	C111	0.216400	0.537800	0.436600
C1121	C112	0.568000	0.879600	0.444400
