data_NODTOR_manual_PM
_symmetry_space_group_name_H-M	'P1'
_cell_length_a	18.149900
_cell_length_b	18.149900
_cell_length_c	18.149900
_cell_angle_alpha	90.000900
_cell_angle_beta	120.000000
_cell_angle_gamma	119.999000
_symmetry_Int_Tables_number 1

loop_
_symmetry_equiv_pos_as_xyz
'x,y,z'

loop_
_atom_site_label
_atom_site_type_symbol
_atom_site_fract_x
_atom_site_fract_y
_atom_site_fract_z
Zn11	Zn1	0.586670	0.706690	0.293310
Zn21	Zn2	0.586670	0.879980	0.293360
Zn31	Zn3	0.413330	0.706690	0.293310
Zn41	Zn4	0.413330	0.706640	0.120020
Zn51	Zn5	0.413330	0.293310	0.706690
Zn61	Zn6	0.413330	0.120020	0.706640
Zn71	Zn7	0.586670	0.293310	0.706690
Zn81	Zn8	0.586670	0.293360	0.879980
C91	C9	0.946580	0.907590	0.472790
C101	C10	0.567000	0.527000	0.474800
C111	C11	0.566800	0.528000	0.092400
C121	C12	0.946580	0.038990	0.473790
C131	C13	0.567000	0.040000	0.092200
C141	C14	0.566800	0.038800	0.474400
C151	C15	0.053420	0.527210	0.092410
C161	C16	0.433000	0.525200	0.473000
C171	C17	0.433200	0.907600	0.472000
C181	C18	0.053420	0.526210	0.961010
C191	C19	0.433000	0.907800	0.960000
C201	C20	0.433200	0.525600	0.961200
C211	C21	0.053420	0.092410	0.527210
C221	C22	0.433000	0.473000	0.525200
C231	C23	0.433200	0.472000	0.907600
C241	C24	0.053420	0.961010	0.526210
C251	C25	0.433000	0.960000	0.907800
C261	C26	0.433200	0.961200	0.525600
C271	C27	0.946580	0.472790	0.907590
C281	C28	0.567000	0.474800	0.527000
C291	C29	0.566800	0.092400	0.528000
C301	C30	0.946580	0.473790	0.038990
C311	C31	0.567000	0.092200	0.040000
C321	C32	0.566800	0.474400	0.038800
C331	C33	0.892400	0.946200	0.446200
C341	C34	0.775040	0.887520	0.387520
C351	C35	0.107600	0.553800	0.053800
C361	C36	0.224960	0.612480	0.112480
C371	C37	0.107600	0.053800	0.553800
C381	C38	0.224960	0.112480	0.612480
C391	C39	0.892400	0.446200	0.946200
C401	C40	0.775040	0.387520	0.887520
C411	C41	0.500000	0.553600	0.053600
C421	C42	0.500000	0.612000	0.112000
C431	C43	0.500000	0.946400	0.446400
C441	C44	0.500000	0.888000	0.388000
C451	C45	0.500000	0.446400	0.946400
C461	C46	0.500000	0.388000	0.888000
C471	C47	0.500000	0.053600	0.553600
C481	C48	0.500000	0.112000	0.612000
C491	C49	0.500000	0.553400	0.446600
C501	C50	0.500000	0.611800	0.388200
C511	C51	0.500000	0.946600	0.053400
C521	C52	0.500000	0.888200	0.111800
C531	C53	0.500000	0.446600	0.553400
C541	C54	0.500000	0.388200	0.611800
C551	C55	0.500000	0.053400	0.946600
C561	C56	0.500000	0.111800	0.888200
O571	O57	0.731440	0.803280	0.366520
O581	O58	0.562740	0.635080	0.195880
O591	O59	0.563240	0.634720	0.366100
O601	O60	0.731440	0.928160	0.364920
O611	O61	0.562740	0.927660	0.366860
O621	O62	0.563240	0.928520	0.197140
O631	O63	0.268560	0.633480	0.196720
O641	O64	0.437260	0.804120	0.364920
O651	O65	0.436760	0.633900	0.365280
O661	O66	0.268560	0.635080	0.071840
O671	O67	0.437260	0.633140	0.072340
O681	O68	0.436760	0.802860	0.071480
O691	O69	0.268560	0.196720	0.633480
O701	O70	0.437260	0.364920	0.804120
O711	O71	0.436760	0.365280	0.633900
O721	O72	0.268560	0.071840	0.635080
O731	O73	0.437260	0.072340	0.633140
O741	O74	0.436760	0.071480	0.802860
O751	O75	0.731440	0.366520	0.803280
O761	O76	0.562740	0.195880	0.635080
O771	O77	0.563240	0.366100	0.634720
O781	O78	0.731440	0.364920	0.928160
O791	O79	0.562740	0.366860	0.927660
O801	O80	0.563240	0.197140	0.928520
O811	O81	0.500000	0.750000	0.250000
O821	O82	0.500000	0.250000	0.750000
H831	H83	0.622130	0.549950	0.453330
H841	H84	0.377870	0.546670	0.450050
H851	H85	0.377870	0.450050	0.546670
H861	H86	0.622130	0.453330	0.549950
H871	H87	0.377820	0.831010	0.448800
H881	H88	0.377820	0.929020	0.546810
H891	H89	0.622180	0.551200	0.168990
H901	H90	0.622180	0.453190	0.070980
H911	H91	0.902170	0.071180	0.452000
H921	H92	0.622130	0.072180	0.168800
H931	H93	0.902170	0.452000	0.071180
H941	H94	0.622130	0.168800	0.072180
H951	H95	0.622180	0.070980	0.453190
H961	H96	0.622180	0.168990	0.551200
H971	H97	0.377820	0.546810	0.929020
H981	H98	0.377820	0.448800	0.831010
H991	H99	0.902170	0.450170	0.830990
H1001	H100	0.377870	0.831200	0.927820
H1011	H101	0.377870	0.927820	0.831200
H1021	H102	0.097830	0.548000	0.928820
H1031	H103	0.097830	0.928820	0.548000
H1041	H104	0.902170	0.830990	0.450170
H1051	H105	0.097830	0.169010	0.549830
H1061	H106	0.097830	0.549830	0.169010
