data_NODTEH_manual_PM
_symmetry_space_group_name_H-M	'P1'
_cell_length_a	18.070300
_cell_length_b	18.070300
_cell_length_c	18.070300
_cell_angle_alpha	60.000000
_cell_angle_beta	60.000000
_cell_angle_gamma	60.000000
_symmetry_Int_Tables_number 1

loop_
_symmetry_equiv_pos_as_xyz
'x,y,z'

loop_
_atom_site_label
_atom_site_type_symbol
_atom_site_fract_x
_atom_site_fract_y
_atom_site_fract_z
Zn11	Zn1	0.293500	0.293500	0.293500
Zn21	Zn2	0.293500	0.293500	0.119500
Zn31	Zn3	0.293500	0.119500	0.293500
Zn41	Zn4	0.119500	0.293500	0.293500
Zn51	Zn5	0.706500	0.706500	0.706500
Zn61	Zn6	0.706500	0.706500	0.880500
Zn71	Zn7	0.880500	0.706500	0.706500
Zn81	Zn8	0.706500	0.880500	0.706500
C91	C9	0.473400	0.473400	0.960800
C101	C10	0.473400	0.473400	0.092400
C111	C11	0.960800	0.092400	0.473400
C121	C12	0.092400	0.960800	0.473400
C131	C13	0.473400	0.960800	0.092400
C141	C14	0.473400	0.092400	0.960800
C151	C15	0.960800	0.473400	0.473400
C161	C16	0.092400	0.473400	0.473400
C171	C17	0.473400	0.092400	0.473400
C181	C18	0.473400	0.960800	0.473400
C191	C19	0.960800	0.473400	0.092400
C201	C20	0.092400	0.473400	0.960800
C211	C21	0.526600	0.526600	0.039200
C221	C22	0.526600	0.526600	0.907600
C231	C23	0.907600	0.039200	0.526600
C241	C24	0.039200	0.907600	0.526600
C251	C25	0.039200	0.526600	0.907600
C261	C26	0.907600	0.526600	0.039200
C271	C27	0.526600	0.039200	0.526600
C281	C28	0.526600	0.907600	0.526600
C291	C29	0.907600	0.526600	0.526600
C301	C30	0.039200	0.526600	0.526600
C311	C31	0.526600	0.039200	0.907600
C321	C32	0.526600	0.907600	0.039200
C331	C33	0.388200	0.388200	0.111800
C341	C34	0.445900	0.445900	0.054100
C351	C35	0.111800	0.111800	0.388200
C361	C36	0.054100	0.054100	0.445900
C371	C37	0.388200	0.111800	0.111800
C381	C38	0.445900	0.054100	0.054100
C391	C39	0.111800	0.388200	0.388200
C401	C40	0.054100	0.445900	0.445900
C411	C41	0.388200	0.111800	0.388200
C421	C42	0.445900	0.054100	0.445900
C431	C43	0.111800	0.388200	0.111800
C441	C44	0.054100	0.445900	0.054100
C451	C45	0.611800	0.611800	0.888200
C461	C46	0.554100	0.554100	0.945900
C471	C47	0.888200	0.888200	0.611800
C481	C48	0.945900	0.945900	0.554100
C491	C49	0.888200	0.611800	0.888200
C501	C50	0.945900	0.554100	0.945900
C511	C51	0.611800	0.888200	0.611800
C521	C52	0.554100	0.945900	0.554100
C531	C53	0.888200	0.611800	0.611800
C541	C54	0.945900	0.554100	0.554100
C551	C55	0.611800	0.888200	0.888200
C561	C56	0.554100	0.945900	0.945900
O571	O57	0.250000	0.250000	0.250000
O581	O58	0.750000	0.750000	0.750000
O591	O59	0.365690	0.365690	0.197890
O601	O60	0.365690	0.365690	0.070730
O611	O61	0.197890	0.070730	0.365690
O621	O62	0.070730	0.197890	0.365690
O631	O63	0.365690	0.197890	0.070730
O641	O64	0.365690	0.070730	0.197890
O651	O65	0.197890	0.365690	0.365690
O661	O66	0.070730	0.365690	0.365690
O671	O67	0.365690	0.070730	0.365690
O681	O68	0.365690	0.197890	0.365690
O691	O69	0.197890	0.365690	0.070730
O701	O70	0.070730	0.365690	0.197890
O711	O71	0.634310	0.634310	0.802110
O721	O72	0.634310	0.634310	0.929270
O731	O73	0.929270	0.802110	0.634310
O741	O74	0.802110	0.929270	0.634310
O751	O75	0.802110	0.634310	0.929270
O761	O76	0.929270	0.634310	0.802110
O771	O77	0.634310	0.802110	0.634310
O781	O78	0.634310	0.929270	0.634310
O791	O79	0.929270	0.634310	0.634310
O801	O80	0.802110	0.634310	0.634310
O811	O81	0.634310	0.802110	0.929270
O821	O82	0.634310	0.929270	0.802110
H831	H83	0.451100	0.451100	0.928470
H841	H84	0.451100	0.451100	0.169340
H851	H85	0.928470	0.169340	0.451100
H861	H86	0.169340	0.928470	0.451100
H871	H87	0.451100	0.928470	0.169340
H881	H88	0.451100	0.169340	0.928470
H891	H89	0.928470	0.451100	0.451100
H901	H90	0.169340	0.451100	0.451100
H911	H91	0.451100	0.169340	0.451100
H921	H92	0.451100	0.928470	0.451100
H931	H93	0.928470	0.451100	0.169340
H941	H94	0.169340	0.451100	0.928470
H951	H95	0.548900	0.548900	0.071530
H961	H96	0.548900	0.548900	0.830660
H971	H97	0.830660	0.071530	0.548900
H981	H98	0.071530	0.830660	0.548900
H991	H99	0.071530	0.548900	0.830660
H1001	H100	0.830660	0.548900	0.071530
H1011	H101	0.548900	0.071530	0.548900
H1021	H102	0.548900	0.830660	0.548900
H1031	H103	0.830660	0.548900	0.548900
H1041	H104	0.071530	0.548900	0.548900
H1051	H105	0.548900	0.071530	0.830660
H1061	H106	0.548900	0.830660	0.071530
