data_NOFQOQ_freeONLY_PM
_symmetry_space_group_name_H-M	'P1'
_cell_length_a	17.100000
_cell_length_b	13.303000
_cell_length_c	7.297000
_cell_angle_alpha	90.000000
_cell_angle_beta	90.000000
_cell_angle_gamma	90.000000
_symmetry_Int_Tables_number 1

loop_
_symmetry_equiv_pos_as_xyz
'x,y,z'

loop_
_atom_site_label
_atom_site_type_symbol
_atom_site_fract_x
_atom_site_fract_y
_atom_site_fract_z
C11	C1	0.611500	0.468400	0.767000
H11	H1	0.582800	0.489700	0.876200
H21	H2	0.667800	0.468500	0.792800
H31	H3	0.595000	0.400500	0.731700
C21	C2	0.595500	0.536800	0.619000
C31	C3	0.533400	0.535800	0.493000
C41	C4	0.545700	0.615200	0.374000
C51	C5	0.502600	0.652000	0.215000
H41	H4	0.505000	0.725200	0.210700
H51	H5	0.448000	0.630100	0.223100
H61	H6	0.526000	0.624100	0.102700
N11	N1	0.644800	0.613600	0.578300
N21	N2	0.612200	0.658800	0.429900
H71	H7	0.632800	0.711600	0.375700
C61	C6	0.111500	0.968400	0.267000
H81	H8	0.082800	0.989700	0.376200
H91	H9	0.167800	0.968500	0.292800
H101	H10	0.095000	0.900500	0.231700
C71	C7	0.095500	0.036800	0.119000
C81	C8	0.033400	0.035800	0.993000
C91	C9	0.045700	0.115200	0.874000
C101	C10	0.002600	0.152000	0.715000
H111	H11	0.005000	0.225200	0.710700
H121	H12	0.948000	0.130100	0.723100
H131	H13	0.026000	0.124100	0.602700
N31	N3	0.144800	0.113600	0.078300
N41	N4	0.112200	0.158800	0.929900
H141	H14	0.132800	0.211600	0.875700
C111	C11	0.388500	0.531600	0.767000
H151	H15	0.417200	0.510300	0.876200
H161	H16	0.332200	0.531500	0.792800
H171	H17	0.405000	0.599500	0.731700
C121	C12	0.404500	0.463200	0.619000
C131	C13	0.466600	0.464200	0.493000
C141	C14	0.454300	0.384800	0.374000
C151	C15	0.497400	0.348000	0.215000
H181	H18	0.495000	0.274800	0.210700
H191	H19	0.552000	0.369900	0.223100
H201	H20	0.474000	0.375900	0.102700
N51	N5	0.355200	0.386400	0.578300
N61	N6	0.387800	0.341200	0.429900
H211	H21	0.367200	0.288400	0.375700
C161	C16	0.888500	0.031600	0.267000
H221	H22	0.917200	0.010300	0.376200
H231	H23	0.832200	0.031500	0.292800
H241	H24	0.905000	0.099500	0.231700
C171	C17	0.904500	0.963200	0.119000
C181	C18	0.966600	0.964200	0.993000
C191	C19	0.954300	0.884800	0.874000
C201	C20	0.997400	0.848000	0.715000
H251	H25	0.995000	0.774800	0.710700
H261	H26	0.052000	0.869900	0.723100
H271	H27	0.974000	0.875900	0.602700
N71	N7	0.855200	0.886400	0.078300
N81	N8	0.887800	0.841200	0.929900
H281	H28	0.867200	0.788400	0.875700
C211	C21	0.111500	0.531600	0.767000
H291	H29	0.082800	0.510300	0.876200
H301	H30	0.167800	0.531500	0.792800
H311	H31	0.095000	0.599500	0.731700
C221	C22	0.095500	0.463200	0.619000
C231	C23	0.033400	0.464200	0.493000
C241	C24	0.045700	0.384800	0.374000
C251	C25	0.002600	0.348000	0.215000
H321	H32	0.005000	0.274800	0.210700
H331	H33	0.948000	0.369900	0.223100
H341	H34	0.026000	0.375900	0.102700
N91	N9	0.144800	0.386400	0.578300
N101	N10	0.112200	0.341200	0.429900
H351	H35	0.132800	0.288400	0.375700
C261	C26	0.611500	0.031600	0.267000
H361	H36	0.582800	0.010300	0.376200
H371	H37	0.667800	0.031500	0.292800
H381	H38	0.595000	0.099500	0.231700
C271	C27	0.595500	0.963200	0.119000
C281	C28	0.533400	0.964200	0.993000
C291	C29	0.545700	0.884800	0.874000
C301	C30	0.502600	0.848000	0.715000
H391	H39	0.505000	0.774800	0.710700
H401	H40	0.448000	0.869900	0.723100
H411	H41	0.526000	0.875900	0.602700
N111	N11	0.644800	0.886400	0.078300
N121	N12	0.612200	0.841200	0.929900
H421	H42	0.632800	0.788400	0.875700
C311	C31	0.888500	0.468400	0.767000
H431	H43	0.917200	0.489700	0.876200
H441	H44	0.832200	0.468500	0.792800
H451	H45	0.905000	0.400500	0.731700
C321	C32	0.904500	0.536800	0.619000
C331	C33	0.966600	0.535800	0.493000
C341	C34	0.954300	0.615200	0.374000
C351	C35	0.997400	0.652000	0.215000
H461	H46	0.995000	0.725200	0.210700
H471	H47	0.052000	0.630100	0.223100
H481	H48	0.974000	0.624100	0.102700
N131	N13	0.855200	0.613600	0.578300
N141	N14	0.887800	0.658800	0.429900
H491	H49	0.867200	0.711600	0.375700
C361	C36	0.388500	0.968400	0.267000
H501	H50	0.417200	0.989700	0.376200
H511	H51	0.332200	0.968500	0.292800
H521	H52	0.405000	0.900500	0.231700
C371	C37	0.404500	0.036800	0.119000
C381	C38	0.466600	0.035800	0.993000
C391	C39	0.454300	0.115200	0.874000
C401	C40	0.497400	0.152000	0.715000
H531	H53	0.495000	0.225200	0.710700
H541	H54	0.552000	0.130100	0.723100
H551	H55	0.474000	0.124100	0.602700
N151	N15	0.355200	0.113600	0.078300
N161	N16	0.387800	0.158800	0.929900
H561	H56	0.367200	0.211600	0.875700
Cu11	Cu1	0.750000	0.651600	0.667900
I11	I1	0.750000	0.847640	0.534780
Cu21	Cu2	0.250000	0.151600	0.167900
I21	I2	0.250000	0.347640	0.034780
Cu31	Cu3	0.250000	0.348400	0.667900
I31	I3	0.250000	0.152360	0.534780
Cu41	Cu4	0.750000	0.848400	0.167900
I41	I4	0.750000	0.652360	0.034780
