data_NOGDAP_freeONLY_PM
_symmetry_space_group_name_H-M	'P1'
_cell_length_a	13.870000
_cell_length_b	13.870000
_cell_length_c	15.222000
_cell_angle_alpha	90.000000
_cell_angle_beta	90.000000
_cell_angle_gamma	120.000000
_symmetry_Int_Tables_number 1

loop_
_symmetry_equiv_pos_as_xyz
'x,y,z'

loop_
_atom_site_label
_atom_site_type_symbol
_atom_site_fract_x
_atom_site_fract_y
_atom_site_fract_z
Al11	Al1	0.566030	0.675070	0.266110
P11	P1	0.568520	0.675090	0.057680
O11	O1	0.603000	0.676100	0.151200
O21	O2	0.648200	0.662500	0.997600
O31	O3	0.449900	0.582000	0.043600
O41	O4	0.576600	0.783800	0.035600
Al21	Al2	0.232700	0.008400	0.599440
P21	P2	0.235190	0.008420	0.391010
O51	O5	0.269670	0.009430	0.484530
O61	O6	0.314870	0.995830	0.330930
O71	O7	0.116570	0.915330	0.376930
O81	O8	0.243270	0.117130	0.368930
Al31	Al3	0.899360	0.341740	0.932780
P31	P3	0.901850	0.341760	0.724350
O91	O9	0.936330	0.342770	0.817870
O101	O10	0.981530	0.329170	0.664270
O111	O11	0.783230	0.248670	0.710270
O121	O12	0.909930	0.450470	0.702270
Al41	Al4	0.324930	0.890960	0.266110
P41	P4	0.324910	0.893430	0.057680
O131	O13	0.323900	0.926900	0.151200
O141	O14	0.337500	0.985700	0.997600
O151	O15	0.418000	0.867900	0.043600
O161	O16	0.216200	0.792800	0.035600
Al51	Al5	0.991600	0.224290	0.599440
P51	P5	0.991580	0.226760	0.391010
O171	O17	0.990570	0.260230	0.484530
O181	O18	0.004170	0.319030	0.330930
O191	O19	0.084670	0.201230	0.376930
O201	O20	0.882870	0.126130	0.368930
Al61	Al6	0.658260	0.557630	0.932780
P61	P6	0.658240	0.560100	0.724350
O211	O21	0.657230	0.593570	0.817870
O221	O22	0.670830	0.652370	0.664270
O231	O23	0.751330	0.534570	0.710270
O241	O24	0.549530	0.459470	0.702270
Al71	Al7	0.109040	0.433970	0.266110
P71	P7	0.106570	0.431480	0.057680
O251	O25	0.073100	0.397000	0.151200
O261	O26	0.014300	0.351800	0.997600
O271	O27	0.132100	0.550100	0.043600
O281	O28	0.207200	0.423400	0.035600
Al81	Al8	0.775710	0.767300	0.599440
P81	P8	0.773240	0.764810	0.391010
O291	O29	0.739770	0.730330	0.484530
O301	O30	0.680970	0.685130	0.330930
O311	O31	0.798770	0.883430	0.376930
O321	O32	0.873870	0.756730	0.368930
Al91	Al9	0.442370	0.100640	0.932780
P91	P9	0.439900	0.098150	0.724350
O331	O33	0.406430	0.063670	0.817870
O341	O34	0.347630	0.018470	0.664270
O351	O35	0.465430	0.216770	0.710270
O361	O36	0.540530	0.090070	0.702270
Al101	Al10	0.433970	0.324930	0.733890
P101	P10	0.431480	0.324910	0.942320
O371	O37	0.397000	0.323900	0.848800
O381	O38	0.351800	0.337500	0.002400
O391	O39	0.550100	0.418000	0.956400
O401	O40	0.423400	0.216200	0.964400
Al111	Al11	0.100640	0.658260	0.067220
P111	P11	0.098150	0.658240	0.275650
O411	O41	0.063670	0.657230	0.182130
O421	O42	0.018470	0.670830	0.335730
O431	O43	0.216770	0.751330	0.289730
O441	O44	0.090070	0.549530	0.297730
Al121	Al12	0.767300	0.991600	0.400560
P121	P12	0.764810	0.991580	0.608990
O451	O45	0.730330	0.990570	0.515470
O461	O46	0.685130	0.004170	0.669070
O471	O47	0.883430	0.084670	0.623070
O481	O48	0.756730	0.882870	0.631070
Al131	Al13	0.675070	0.109040	0.733890
P131	P13	0.675090	0.106570	0.942320
O491	O49	0.676100	0.073100	0.848800
O501	O50	0.662500	0.014300	0.002400
O511	O51	0.582000	0.132100	0.956400
O521	O52	0.783800	0.207200	0.964400
Al141	Al14	0.341740	0.442370	0.067220
P141	P14	0.341760	0.439900	0.275650
O531	O53	0.342770	0.406430	0.182130
O541	O54	0.329170	0.347630	0.335730
O551	O55	0.248670	0.465430	0.289730
O561	O56	0.450470	0.540530	0.297730
Al151	Al15	0.008400	0.775710	0.400560
P151	P15	0.008420	0.773240	0.608990
O571	O57	0.009430	0.739770	0.515470
O581	O58	0.995830	0.680970	0.669070
O591	O59	0.915330	0.798770	0.623070
O601	O60	0.117130	0.873870	0.631070
Al161	Al16	0.890960	0.566030	0.733890
P161	P16	0.893430	0.568520	0.942320
O611	O61	0.926900	0.603000	0.848800
O621	O62	0.985700	0.648200	0.002400
O631	O63	0.867900	0.449900	0.956400
O641	O64	0.792800	0.576600	0.964400
Al171	Al17	0.557630	0.899360	0.067220
P171	P17	0.560100	0.901850	0.275650
O651	O65	0.593570	0.936330	0.182130
O661	O66	0.652370	0.981530	0.335730
O671	O67	0.534570	0.783230	0.289730
O681	O68	0.459470	0.909930	0.297730
Al181	Al18	0.224290	0.232700	0.400560
P181	P18	0.226760	0.235190	0.608990
O691	O69	0.260230	0.269670	0.515470
O701	O70	0.319030	0.314870	0.669070
O711	O71	0.201230	0.116570	0.623070
O721	O72	0.126130	0.243270	0.631070
