data_NOHSIM01_freeONLY_PM
_symmetry_space_group_name_H-M	'P1'
_cell_length_a	8.457000
_cell_length_b	13.812000
_cell_length_c	10.189000
_cell_angle_alpha	90.000000
_cell_angle_beta	91.200000
_cell_angle_gamma	90.000000
_symmetry_Int_Tables_number 1

loop_
_symmetry_equiv_pos_as_xyz
'x,y,z'

loop_
_atom_site_label
_atom_site_type_symbol
_atom_site_fract_x
_atom_site_fract_y
_atom_site_fract_z
Zn11	Zn1	0.216350	0.573670	0.975240
Zn21	Zn2	0.717980	0.869080	0.085930
P11	P1	0.245160	0.613130	0.661270
P21	P2	0.749040	0.037120	0.295240
P31	P3	0.905540	0.693730	0.964070
P41	P4	0.406340	0.773240	0.994370
O11	O1	0.352900	0.675340	0.042300
O21	O2	0.001400	0.754280	0.866800
O31	O3	0.998400	0.606220	0.009900
O41	O4	0.257400	0.839410	0.964000
H11	H1	0.170000	0.812000	0.930000
O51	O5	0.500800	0.827370	0.099200
O61	O6	0.770500	0.935750	0.247300
O71	O7	0.586000	0.074800	0.241000
H21	H2	0.547000	0.129000	0.277000
O81	O8	0.850000	0.754550	0.078000
O91	O9	0.253800	0.558170	0.787600
O101	O10	0.500500	0.765040	0.867100
O111	O11	0.758100	0.651980	0.885000
H31	H3	0.674000	0.692000	0.881000
O121	O12	0.377700	0.691200	0.655400
H41	H4	0.426000	0.723000	0.722000
O131	O13	0.878400	0.101300	0.232600
H51	H5	0.931000	0.149000	0.274000
O141	O14	0.757500	0.044760	0.441500
O151	O15	0.086000	0.669900	0.647800
H61	H6	0.049000	0.701000	0.718000
O161	O16	0.260800	0.555040	0.538200
Zn31	Zn3	0.216350	0.426330	0.475240
Zn41	Zn4	0.717980	0.130920	0.585930
P51	P5	0.245160	0.386870	0.161270
P61	P6	0.749040	0.962880	0.795240
P71	P7	0.905540	0.306270	0.464070
P81	P8	0.406340	0.226760	0.494370
O171	O17	0.352900	0.324660	0.542300
O181	O18	0.001400	0.245720	0.366800
O191	O19	0.998400	0.393780	0.509900
O201	O20	0.257400	0.160590	0.464000
H71	H7	0.170000	0.188000	0.430000
O211	O21	0.500800	0.172630	0.599200
O221	O22	0.770500	0.064250	0.747300
O231	O23	0.586000	0.925200	0.741000
H81	H8	0.547000	0.871000	0.777000
O241	O24	0.850000	0.245450	0.578000
O251	O25	0.253800	0.441830	0.287600
O261	O26	0.500500	0.234960	0.367100
O271	O27	0.758100	0.348020	0.385000
H91	H9	0.674000	0.308000	0.381000
O281	O28	0.377700	0.308800	0.155400
H101	H10	0.426000	0.277000	0.222000
O291	O29	0.878400	0.898700	0.732600
H111	H11	0.931000	0.851000	0.774000
O301	O30	0.757500	0.955240	0.941500
O311	O31	0.086000	0.330100	0.147800
H121	H12	0.049000	0.299000	0.218000
O321	O32	0.260800	0.444960	0.038200
