data_NOKLIJ_freeONLY_PM
_symmetry_space_group_name_H-M	'P1'
_cell_length_a	6.747390
_cell_length_b	15.055100
_cell_length_c	15.055100
_cell_angle_alpha	62.191200
_cell_angle_beta	81.408200
_cell_angle_gamma	98.591800
_symmetry_Int_Tables_number 1

loop_
_symmetry_equiv_pos_as_xyz
'x,y,z'

loop_
_atom_site_label
_atom_site_type_symbol
_atom_site_fract_x
_atom_site_fract_y
_atom_site_fract_z
Ni11	Ni1	0.383250	0.679360	0.588910
Ni21	Ni2	0.972160	0.588910	0.731730
Ni31	Ni3	0.703890	0.731730	0.679360
Ni41	Ni4	0.616750	0.320640	0.411090
Ni51	Ni5	0.027840	0.411090	0.268270
Ni61	Ni6	0.296110	0.268270	0.320640
H11	H1	0.698190	0.537150	0.442830
H21	H2	0.141020	0.442830	0.020020
H31	H3	0.161040	0.020020	0.537150
H41	H4	0.301810	0.462850	0.557170
H51	H5	0.858980	0.557170	0.979980
H61	H6	0.838960	0.979980	0.462850
C11	C1	0.755400	0.605800	0.574300
C21	C2	0.887400	0.555900	0.533100
C31	C3	0.076200	0.539900	0.563600
C41	C4	0.822000	0.523500	0.466500
C51	C5	0.329700	0.574300	0.819900
C61	C6	0.420500	0.533100	0.911000
C71	C7	0.639800	0.563600	0.896500
C81	C8	0.288500	0.466500	0.010000
C91	C9	0.149600	0.819900	0.605800
C101	C10	0.331500	0.911000	0.555900
C111	C11	0.536300	0.896500	0.539900
C121	C12	0.298500	0.010000	0.523500
C131	C13	0.244600	0.394200	0.425700
C141	C14	0.112600	0.444100	0.466900
C151	C15	0.923800	0.460100	0.436400
C161	C16	0.178000	0.476500	0.533500
C171	C17	0.670300	0.425700	0.180100
C181	C18	0.579500	0.466900	0.089000
C191	C19	0.360200	0.436400	0.103500
C201	C20	0.711500	0.533500	0.990000
C211	C21	0.850400	0.180100	0.394200
C221	C22	0.668500	0.089000	0.444100
C231	C23	0.463700	0.103500	0.460100
C241	C24	0.701500	0.990000	0.476500
O11	O1	0.596100	0.627500	0.532700
O21	O2	0.786200	0.640500	0.630300
O31	O3	0.134500	0.554700	0.638100
O41	O4	0.128800	0.532700	0.839800
O51	O5	0.416500	0.630300	0.729200
O61	O6	0.772600	0.638100	0.807200
O71	O7	0.968600	0.839800	0.627500
O81	O8	0.145700	0.729200	0.640500
O91	O9	0.579800	0.807200	0.554700
O101	O10	0.403900	0.372500	0.467300
O111	O11	0.213800	0.359500	0.369700
O121	O12	0.865500	0.445300	0.361900
O131	O13	0.871200	0.467300	0.160200
O141	O14	0.583500	0.369700	0.270800
O151	O15	0.227400	0.361900	0.192800
O161	O16	0.031400	0.160200	0.372500
O171	O17	0.854300	0.270800	0.359500
O181	O18	0.420200	0.192800	0.445300
