data_NUDLAA_freeONLY_PM
_symmetry_space_group_name_H-M	'P1'
_cell_length_a	11.175300
_cell_length_b	27.609000
_cell_length_c	27.609000
_cell_angle_alpha	87.652600
_cell_angle_beta	78.323600
_cell_angle_gamma	78.323700
_symmetry_Int_Tables_number 1

loop_
_symmetry_equiv_pos_as_xyz
'x,y,z'

loop_
_atom_site_label
_atom_site_type_symbol
_atom_site_fract_x
_atom_site_fract_y
_atom_site_fract_z
Zn11	Zn1	0.394350	0.458550	0.459750
Zn21	Zn2	0.312650	0.541450	0.540250
Zn31	Zn3	0.104100	0.040250	0.958550
Zn41	Zn4	0.102900	0.959750	0.041450
Zn51	Zn5	0.937350	0.959750	0.958550
Zn61	Zn6	0.855650	0.040250	0.041450
Zn71	Zn7	0.147100	0.458550	0.540250
Zn81	Zn8	0.145900	0.541450	0.459750
Zn91	Zn9	0.411680	0.176640	0.000000
Zn101	Zn10	0.588320	0.823360	0.000000
Zn111	Zn11	0.661680	0.500000	0.676640
Zn121	Zn12	0.838320	0.500000	0.323360
Zn131	Zn13	0.413240	0.000000	0.173520
Zn141	Zn14	0.586760	0.000000	0.826480
Zn151	Zn15	0.836760	0.326480	0.500000
Zn161	Zn16	0.663240	0.673520	0.500000
H11	H1	0.413800	0.134700	0.091300
H21	H2	0.447000	0.101700	0.132700
H31	H3	0.225700	0.128900	0.965500
H41	H4	0.218000	0.973300	0.129500
H51	H5	0.573700	0.326800	0.329400
H61	H6	0.550500	0.289100	0.259100
H71	H7	0.208300	0.373500	0.269300
H81	H8	0.231500	0.411100	0.339500
H91	H9	0.474100	0.238800	0.223200
H101	H10	0.469600	0.202000	0.149800
H111	H11	0.244700	0.324800	0.113200
H121	H12	0.249200	0.361700	0.186500
H131	H13	0.037700	0.974300	0.293900
H141	H14	0.934600	0.919900	0.343900
H151	H15	0.214300	0.806900	0.292100
H161	H16	0.317500	0.861400	0.242000
H171	H17	0.639800	0.865300	0.908700
H181	H18	0.681400	0.898300	0.867300
H191	H19	0.320100	0.871100	0.034500
H201	H20	0.320800	0.026700	0.870500
H211	H21	0.229900	0.673200	0.670600
H221	H22	0.098700	0.710900	0.740900
H231	H23	0.851100	0.626500	0.730700
H241	H24	0.982100	0.588900	0.660500
H251	H25	0.936100	0.761200	0.776800
H261	H26	0.821400	0.798000	0.850200
H271	H27	0.682700	0.675200	0.886800
H281	H28	0.797400	0.638300	0.813500
H291	H29	0.305900	0.025700	0.706100
H301	H30	0.198400	0.080100	0.656100
H311	H31	0.313300	0.193100	0.707900
H321	H32	0.420900	0.138600	0.758000
H331	H33	0.755100	0.408700	0.634700
H341	H34	0.829700	0.367300	0.601700
H351	H35	0.441200	0.534500	0.628900
H361	H36	0.597500	0.370500	0.473300
H371	H37	0.153100	0.170600	0.826800
H381	H38	0.059600	0.240900	0.789100
H391	H39	0.727600	0.230700	0.873500
H401	H40	0.821000	0.160500	0.911100
H411	H41	0.947300	0.276800	0.738800
H421	H42	0.869400	0.350200	0.702000
H431	H43	0.607900	0.386800	0.824800
H441	H44	0.685700	0.313500	0.861700
H451	H45	0.581600	0.206100	0.474300
H461	H46	0.528500	0.156100	0.419900
H471	H47	0.756400	0.207900	0.306900
H481	H48	0.809500	0.258000	0.361400
H491	H49	0.798500	0.591300	0.365300
H501	H50	0.798700	0.632700	0.398300
H511	H51	0.604600	0.465500	0.371100
H521	H52	0.441300	0.629500	0.526700
H531	H53	0.150500	0.829400	0.173200
H541	H54	0.089600	0.759100	0.210900
H551	H55	0.831800	0.769300	0.126500
H561	H56	0.892600	0.839500	0.088900
H571	H57	0.962900	0.723200	0.261200
H581	H58	0.921600	0.649800	0.298000
H591	H59	0.819500	0.613200	0.175200
H601	H60	0.860900	0.686500	0.138300
H611	H61	0.262000	0.793900	0.525700
H621	H62	0.104500	0.843900	0.580100
H631	H63	0.271200	0.792100	0.693100
H641	H64	0.428900	0.742000	0.638600
H651	H65	0.610200	0.591300	0.634700
H661	H66	0.568600	0.632700	0.601700
H671	H67	0.929900	0.465500	0.628900
H681	H68	0.929200	0.629500	0.473300
H691	H69	0.020100	0.829400	0.826800
H701	H70	0.151300	0.759100	0.789100
H711	H71	0.398900	0.769300	0.873500
H721	H72	0.267900	0.839500	0.911100
H731	H73	0.313900	0.723200	0.738800
H741	H74	0.428600	0.649800	0.702000
H751	H75	0.567300	0.613200	0.824800
H761	H76	0.452600	0.686500	0.861700
H771	H77	0.944100	0.793900	0.474300
H781	H78	0.051600	0.843900	0.419900
H791	H79	0.936700	0.792100	0.306900
H801	H80	0.829100	0.742000	0.361400
H811	H81	0.836200	0.408700	0.365300
H821	H82	0.803000	0.367300	0.398300
H831	H83	0.024300	0.534500	0.371100
H841	H84	0.032000	0.370500	0.526700
H851	H85	0.676300	0.170600	0.173200
H861	H86	0.699500	0.240900	0.210900
H871	H87	0.041700	0.230700	0.126500
H881	H88	0.018500	0.160500	0.088900
H891	H89	0.775900	0.276800	0.261200
H901	H90	0.780400	0.350200	0.298000
H911	H91	0.005300	0.386800	0.175200
H921	H92	0.000800	0.313500	0.138300
H931	H93	0.212300	0.206100	0.525700
H941	H94	0.315400	0.156100	0.580100
H951	H95	0.035700	0.207900	0.693100
H961	H96	0.932500	0.258000	0.638600
H971	H97	0.451500	0.134700	0.908700
H981	H98	0.451300	0.101700	0.867300
H991	H99	0.645400	0.128900	0.034500
H1001	H100	0.808700	0.973300	0.870500
H1011	H101	0.099500	0.326800	0.670600
H1021	H102	0.160400	0.289100	0.740900
H1031	H103	0.418200	0.373500	0.730700
H1041	H104	0.357400	0.411100	0.660500
H1051	H105	0.287100	0.238800	0.776800
H1061	H106	0.328400	0.202000	0.850200
H1071	H107	0.430500	0.324800	0.886800
H1081	H108	0.389100	0.361700	0.813500
H1091	H109	0.988000	0.974300	0.706100
H1101	H110	0.145500	0.919900	0.656100
H1111	H111	0.978800	0.806900	0.707900
H1121	H112	0.821100	0.861400	0.758000
H1131	H113	0.494900	0.865300	0.091300
H1141	H114	0.420300	0.898300	0.132700
H1151	H115	0.808800	0.871100	0.965500
H1161	H116	0.652500	0.026700	0.129500
H1171	H117	0.096900	0.673200	0.329400
H1181	H118	0.190400	0.710900	0.259100
H1191	H119	0.522400	0.626500	0.269300
H1201	H120	0.429000	0.588900	0.339500
H1211	H121	0.302700	0.761200	0.223200
H1221	H122	0.380600	0.798000	0.149800
H1231	H123	0.642100	0.675200	0.113200
H1241	H124	0.564300	0.638300	0.186500
H1251	H125	0.668400	0.025700	0.293900
H1261	H126	0.721500	0.080100	0.343900
H1271	H127	0.493600	0.193100	0.292100
H1281	H128	0.440500	0.138600	0.242000
C11	C1	0.234800	0.111200	0.994400
C21	C2	0.214800	0.054100	0.045500
C31	C3	0.234600	0.000700	0.110500
C41	C4	0.338000	0.073300	0.095300
C51	C5	0.285500	0.085100	0.058900
C61	C6	0.428500	0.398300	0.385300
C71	C7	0.500500	0.336100	0.317300
C81	C8	0.486600	0.313600	0.275200
C91	C9	0.377100	0.327600	0.257200
C101	C10	0.281600	0.364100	0.281300
C111	C11	0.295400	0.386700	0.323500
C121	C12	0.404900	0.372600	0.341400
C131	C13	0.428100	0.256100	0.201100
C141	C14	0.425500	0.233900	0.157100
C151	C15	0.356800	0.259600	0.124200
C161	C16	0.290700	0.307600	0.135200
C171	C17	0.293400	0.329700	0.179100
C181	C18	0.362000	0.304000	0.212200
C191	C19	0.354200	0.236400	0.075400
C201	C20	0.263600	0.953900	0.230500
C211	C21	0.072800	0.940800	0.293600
C221	C22	0.011300	0.908100	0.323500
C231	C23	0.064500	0.858000	0.323000
C241	C24	0.178500	0.840500	0.292500
C251	C25	0.240700	0.873100	0.262500
C261	C26	0.187800	0.923200	0.263000
C271	C27	0.340400	0.888800	0.005600
C281	C28	0.314400	0.945900	0.954500
C291	C29	0.345800	0.999300	0.889500
C301	C30	0.506600	0.926700	0.904700
C311	C31	0.429500	0.914900	0.941100
C321	C32	0.212100	0.601700	0.614700
C331	C33	0.153900	0.663900	0.682700
C341	C34	0.075400	0.686400	0.724800
C351	C35	0.961900	0.672400	0.742800
C361	C36	0.927000	0.635900	0.718700
C371	C37	0.005600	0.613300	0.676500
C381	C38	0.118900	0.627400	0.658600
C391	C39	0.885300	0.743900	0.798900
C401	C40	0.816500	0.766100	0.842900
C411	C41	0.740600	0.740400	0.875800
C421	C42	0.733500	0.692400	0.864800
C431	C43	0.802200	0.670300	0.820900
C441	C44	0.878200	0.696000	0.787800
C451	C45	0.666000	0.763600	0.924600
C461	C46	0.448000	0.046100	0.769500
C471	C47	0.307200	0.059200	0.706400
C481	C48	0.242900	0.091900	0.676500
C491	C49	0.245500	0.142000	0.677000
C501	C50	0.311500	0.159500	0.707500
C511	C51	0.376300	0.126900	0.737500
C521	C52	0.374000	0.076800	0.737000
C531	C53	0.479200	0.505600	0.611200
C541	C54	0.510300	0.454500	0.554100
C551	C55	0.595100	0.389500	0.500700
C561	C56	0.683300	0.404700	0.573300
C571	C57	0.594400	0.441100	0.585100
C581	C58	0.063800	0.114700	0.898300
C591	C59	0.067800	0.182700	0.836100
C601	C60	0.011800	0.224800	0.813600
C611	C61	0.884300	0.242800	0.827600
C621	C62	0.812900	0.218700	0.864100
C631	C63	0.868900	0.176500	0.886700
C641	C64	0.996300	0.158600	0.872600
C651	C65	0.879200	0.298900	0.756100
C661	C66	0.832600	0.342900	0.733900
C671	C67	0.731000	0.375800	0.759600
C681	C68	0.675900	0.364800	0.807600
C691	C69	0.722500	0.320900	0.829700
C701	C70	0.824200	0.287800	0.804000
C711	C71	0.679600	0.424600	0.736400
C721	C72	0.744100	0.269500	0.453900
C731	C73	0.616400	0.206400	0.440800
C741	C74	0.584800	0.176500	0.408100
C751	C75	0.637500	0.177000	0.358000
C761	C76	0.721000	0.207500	0.340500
C771	C77	0.753200	0.237500	0.373100
C781	C78	0.700800	0.237000	0.423200
C791	C79	0.596000	0.494400	0.388800
C801	C80	0.518900	0.545500	0.445900
C811	C81	0.485300	0.610500	0.499300
C821	C82	0.661300	0.595300	0.426700
C831	C83	0.620600	0.558900	0.414900
C841	C84	0.076800	0.885300	0.101700
C851	C85	0.086600	0.817300	0.163900
C861	C86	0.050200	0.775200	0.186400
C871	C87	0.954700	0.757200	0.172400
C881	C88	0.895700	0.781300	0.135900
C891	C89	0.932100	0.823500	0.113300
C901	C90	0.027500	0.841400	0.127400
C911	C91	0.934200	0.701100	0.243900
C921	C92	0.909400	0.657100	0.266100
C931	C93	0.866400	0.624200	0.240400
C941	C94	0.848300	0.635200	0.192400
C951	C95	0.873100	0.679100	0.170300
C961	C96	0.916000	0.712200	0.196000
C971	C97	0.840600	0.575400	0.263600
C981	C98	0.467500	0.730500	0.546100
C991	C99	0.263600	0.793600	0.559200
C1001	C100	0.169400	0.823500	0.591900
C1011	C101	0.172500	0.823000	0.642000
C1021	C102	0.269000	0.792500	0.659500
C1031	C103	0.363800	0.762500	0.626900
C1041	C104	0.361000	0.763000	0.576800
C1051	C105	0.909600	0.494400	0.611200
C1061	C106	0.935600	0.545500	0.554100
C1071	C107	0.904200	0.610500	0.500700
C1081	C108	0.743400	0.595300	0.573300
C1091	C109	0.820500	0.558900	0.585100
C1101	C110	0.037900	0.885300	0.898300
C1111	C111	0.096100	0.817300	0.836100
C1121	C112	0.174600	0.775200	0.813600
C1131	C113	0.288100	0.757200	0.827600
C1141	C114	0.323000	0.781300	0.864100
C1151	C115	0.244400	0.823500	0.886700
C1161	C116	0.131100	0.841400	0.872600
C1171	C117	0.364700	0.701100	0.756100
C1181	C118	0.433500	0.657100	0.733900
C1191	C119	0.509400	0.624200	0.759600
C1201	C120	0.516500	0.635200	0.807600
C1211	C121	0.447800	0.679100	0.829700
C1221	C122	0.371800	0.712200	0.804000
C1231	C123	0.584000	0.575400	0.736400
C1241	C124	0.802000	0.730500	0.453900
C1251	C125	0.942800	0.793600	0.440800
C1261	C126	0.007100	0.823500	0.408100
C1271	C127	0.004500	0.823000	0.358000
C1281	C128	0.938500	0.792500	0.340500
C1291	C129	0.873700	0.762500	0.373100
C1301	C130	0.876000	0.763000	0.423200
C1311	C131	0.015200	0.505600	0.388800
C1321	C132	0.035200	0.454500	0.445900
C1331	C133	0.015400	0.389500	0.499300
C1341	C134	0.912000	0.404700	0.426700
C1351	C135	0.964500	0.441100	0.414900
C1361	C136	0.821500	0.114700	0.101700
C1371	C137	0.749500	0.182700	0.163900
C1381	C138	0.763400	0.224800	0.186400
C1391	C139	0.872900	0.242800	0.172400
C1401	C140	0.968400	0.218700	0.135900
C1411	C141	0.954600	0.176500	0.113300
C1421	C142	0.845100	0.158600	0.127400
C1431	C143	0.821900	0.298900	0.243900
C1441	C144	0.824500	0.342900	0.266100
C1451	C145	0.893200	0.375800	0.240400
C1461	C146	0.959300	0.364800	0.192400
C1471	C147	0.956600	0.320900	0.170300
C1481	C148	0.888000	0.287800	0.196000
C1491	C149	0.895800	0.424600	0.263600
C1501	C150	0.986400	0.269500	0.546100
C1511	C151	0.177200	0.206400	0.559200
C1521	C152	0.238700	0.176500	0.591900
C1531	C153	0.185500	0.177000	0.642000
C1541	C154	0.071500	0.207500	0.659500
C1551	C155	0.009300	0.237500	0.626900
C1561	C156	0.062200	0.237000	0.576800
C1571	C157	0.654000	0.111200	0.005600
C1581	C158	0.731100	0.054100	0.954500
C1591	C159	0.764700	0.000700	0.889500
C1601	C160	0.588700	0.073300	0.904700
C1611	C161	0.629400	0.085100	0.941100
C1621	C162	0.173200	0.398300	0.614700
C1631	C163	0.163400	0.336100	0.682700
C1641	C164	0.199800	0.313600	0.724800
C1651	C165	0.295300	0.327600	0.742800
C1661	C166	0.354300	0.364100	0.718700
C1671	C167	0.317900	0.386700	0.676500
C1681	C168	0.222500	0.372600	0.658600
C1691	C169	0.315800	0.256100	0.798900
C1701	C170	0.340600	0.233900	0.842900
C1711	C171	0.383600	0.259600	0.875800
C1721	C172	0.401700	0.307600	0.864800
C1731	C173	0.376900	0.329700	0.820900
C1741	C174	0.334000	0.304000	0.787800
C1751	C175	0.409400	0.236400	0.924600
C1761	C176	0.782500	0.953900	0.769500
C1771	C177	0.986400	0.940800	0.706400
C1781	C178	0.080600	0.908100	0.676500
C1791	C179	0.077500	0.858000	0.677000
C1801	C180	0.981000	0.840500	0.707500
C1811	C181	0.886200	0.873100	0.737500
C1821	C182	0.889000	0.923200	0.737000
C1831	C183	0.770800	0.888800	0.994400
C1841	C184	0.739700	0.945900	0.045500
C1851	C185	0.654900	0.999300	0.110500
C1861	C186	0.566700	0.926700	0.095300
C1871	C187	0.655600	0.914900	0.058900
C1881	C188	0.186200	0.601700	0.385300
C1891	C189	0.182200	0.663900	0.317300
C1901	C190	0.238200	0.686400	0.275200
C1911	C191	0.365700	0.672400	0.257200
C1921	C192	0.437100	0.635900	0.281300
C1931	C193	0.381100	0.613300	0.323500
C1941	C194	0.253700	0.627400	0.341400
C1951	C195	0.370800	0.743900	0.201100
C1961	C196	0.417400	0.766100	0.157100
C1971	C197	0.519000	0.740400	0.124200
C1981	C198	0.574100	0.692400	0.135200
C1991	C199	0.527500	0.670300	0.179100
C2001	C200	0.425800	0.696000	0.212200
C2011	C201	0.570400	0.763600	0.075400
C2021	C202	0.505900	0.046100	0.230500
C2031	C203	0.633600	0.059200	0.293600
C2041	C204	0.665200	0.091900	0.323500
C2051	C205	0.612500	0.142000	0.323000
C2061	C206	0.529000	0.159500	0.292500
C2071	C207	0.496800	0.126900	0.262500
C2081	C208	0.549200	0.076800	0.263000
N11	N1	0.183200	0.071800	0.005800
N21	N2	0.183400	0.012900	0.069900
N31	N3	0.306000	0.027300	0.122700
N41	N4	0.304100	0.125600	0.027200
N51	N5	0.409410	0.107990	0.108190
N61	N6	0.260800	0.928200	0.994200
N71	N7	0.266200	0.987100	0.930100
N81	N8	0.456000	0.972700	0.877300
N91	N9	0.456900	0.874400	0.972800
N101	N10	0.625590	0.892010	0.891810
N111	N11	0.439000	0.494200	0.571800
N121	N12	0.503300	0.430100	0.512900
N131	N13	0.678700	0.377300	0.527300
N141	N14	0.581300	0.472800	0.625600
N151	N15	0.767600	0.391810	0.607990
N161	N16	0.505000	0.505800	0.428200
N171	N17	0.446300	0.569900	0.487100
N181	N18	0.583300	0.622700	0.472700
N191	N19	0.679700	0.527200	0.374400
N201	N20	0.767400	0.608190	0.392010
N211	N21	0.989200	0.505800	0.571800
N221	N22	0.983800	0.569900	0.512900
N231	N23	0.794000	0.622700	0.527300
N241	N24	0.793100	0.527200	0.625600
N251	N25	0.624410	0.608190	0.607990
N261	N26	0.066800	0.494200	0.428200
N271	N27	0.066600	0.430100	0.487100
N281	N28	0.944000	0.377300	0.472700
N291	N29	0.945900	0.472800	0.374400
N301	N30	0.840590	0.391810	0.392010
N311	N31	0.745000	0.071800	0.994200
N321	N32	0.803700	0.012900	0.930100
N331	N33	0.666700	0.027300	0.877300
N341	N34	0.570300	0.125600	0.972800
N351	N35	0.482600	0.107990	0.891810
N361	N36	0.811000	0.928200	0.005800
N371	N37	0.746700	0.987100	0.069900
N381	N38	0.571300	0.972700	0.122700
N391	N39	0.668700	0.874400	0.027200
N401	N40	0.482400	0.892010	0.108190
O11	O1	0.531500	0.390200	0.393400
O21	O2	0.337300	0.430200	0.406400
O31	O3	0.441300	0.199900	0.059700
O41	O4	0.271500	0.250000	0.053200
O51	O5	0.347300	0.939700	0.197700
O61	O6	0.236700	0.999400	0.242000
O71	O7	0.315100	0.609800	0.606600
O81	O8	0.173900	0.569800	0.593600
O91	O9	0.700900	0.800100	0.940300
O101	O10	0.574700	0.750000	0.946800
O111	O11	0.484700	0.060300	0.802300
O121	O12	0.478100	0.000600	0.758000
O131	O13	0.174900	0.106600	0.890200
O141	O14	0.993700	0.093600	0.930200
O151	O15	0.751000	0.440300	0.699900
O161	O16	0.574700	0.446800	0.750000
O171	O17	0.795000	0.302300	0.439700
O181	O18	0.728700	0.258000	0.499400
O191	O19	0.171700	0.893400	0.109800
O201	O20	0.017500	0.906400	0.069800
O211	O21	0.891200	0.559700	0.300100
O221	O22	0.771500	0.553200	0.250000
O231	O23	0.537000	0.697700	0.560300
O241	O24	0.486100	0.742000	0.500600
O251	O25	0.934900	0.893400	0.890200
O261	O26	0.076100	0.906400	0.930200
O271	O27	0.549100	0.559700	0.699900
O281	O28	0.675300	0.553200	0.750000
O291	O29	0.765300	0.697700	0.439700
O301	O30	0.771900	0.742000	0.499400
O311	O31	0.718500	0.106600	0.109800
O321	O32	0.912700	0.093600	0.069800
O331	O33	0.808700	0.440300	0.300100
O341	O34	0.978500	0.446800	0.250000
O351	O35	0.902700	0.302300	0.560300
O361	O36	0.013300	0.258000	0.500600
O371	O37	0.078300	0.390200	0.606600
O381	O38	0.232500	0.430200	0.593600
O391	O39	0.358800	0.199900	0.940300
O401	O40	0.478500	0.250000	0.946800
O411	O41	0.713000	0.939700	0.802300
O421	O42	0.763900	0.999400	0.758000
O431	O43	0.075100	0.609800	0.393400
O441	O44	0.256300	0.569800	0.406400
O451	O45	0.499000	0.800100	0.059700
O461	O46	0.675300	0.750000	0.053200
O471	O47	0.455000	0.060300	0.197700
O481	O48	0.521300	0.000600	0.242000
O491	O49	0.250000	0.500000	0.500000
O501	O50	0.000000	0.000000	0.000000
