data_NUDMAC_freeONLY_PM
_symmetry_space_group_name_H-M	'P1'
_cell_length_a	17.995800
_cell_length_b	12.853100
_cell_length_c	11.039400
_cell_angle_alpha	90.000000
_cell_angle_beta	103.588000
_cell_angle_gamma	90.000000
_symmetry_Int_Tables_number 1

loop_
_symmetry_equiv_pos_as_xyz
'x,y,z'

loop_
_atom_site_label
_atom_site_type_symbol
_atom_site_fract_x
_atom_site_fract_y
_atom_site_fract_z
Mg11	Mg1	0.414640	0.535770	0.458090
O11	O1	0.521310	0.586080	0.446280
H11	H1	0.537200	0.636200	0.474000
O21	O2	0.365060	0.413840	0.097290
O31	O3	0.083030	0.207980	0.275190
O41	O4	0.145170	0.165200	0.128390
O51	O5	0.423300	0.485760	0.278910
C11	C1	0.309260	0.394490	0.270460
N11	N1	0.313860	0.433020	0.385780
C21	C2	0.136550	0.216280	0.220920
C31	C3	0.252850	0.325590	0.212430
H21	H2	0.253900	0.299400	0.132000
C41	C4	0.198030	0.295360	0.275290
C51	C5	0.201590	0.336730	0.392370
H31	H3	0.164600	0.319400	0.436000
C61	C6	0.370570	0.433740	0.209050
C71	C7	0.260010	0.404420	0.444150
H41	H4	0.264100	0.434100	0.526000
Mg21	Mg2	0.914640	0.035770	0.458090
O61	O6	0.021310	0.086080	0.446280
H51	H5	0.037200	0.136200	0.474000
O71	O7	0.865060	0.913840	0.097290
O81	O8	0.583030	0.707980	0.275190
O91	O9	0.645170	0.665200	0.128390
O101	O10	0.923300	0.985760	0.278910
C81	C8	0.809260	0.894490	0.270460
N21	N2	0.813860	0.933020	0.385780
C91	C9	0.636550	0.716280	0.220920
C101	C10	0.752850	0.825590	0.212430
H61	H6	0.753900	0.799400	0.132000
C111	C11	0.698030	0.795360	0.275290
C121	C12	0.701590	0.836730	0.392370
H71	H7	0.664600	0.819400	0.436000
C131	C13	0.870570	0.933740	0.209050
C141	C14	0.760010	0.904420	0.444150
H81	H8	0.764100	0.934100	0.526000
Mg31	Mg3	0.585360	0.535770	0.041910
O111	O11	0.478690	0.586080	0.053720
H91	H9	0.462800	0.636200	0.026000
O121	O12	0.634940	0.413840	0.402710
O131	O13	0.916970	0.207980	0.224810
O141	O14	0.854830	0.165200	0.371610
O151	O15	0.576700	0.485760	0.221090
C151	C15	0.690740	0.394490	0.229540
N31	N3	0.686140	0.433020	0.114220
C161	C16	0.863450	0.216280	0.279080
C171	C17	0.747150	0.325590	0.287570
H101	H10	0.746100	0.299400	0.368000
C181	C18	0.801970	0.295360	0.224710
C191	C19	0.798410	0.336730	0.107630
H111	H11	0.835400	0.319400	0.064000
C201	C20	0.629430	0.433740	0.290950
C211	C21	0.739990	0.404420	0.055850
H121	H12	0.735900	0.434100	0.974000
Mg41	Mg4	0.085360	0.035770	0.041910
O161	O16	0.978690	0.086080	0.053720
H131	H13	0.962800	0.136200	0.026000
O171	O17	0.134940	0.913840	0.402710
O181	O18	0.416970	0.707980	0.224810
O191	O19	0.354830	0.665200	0.371610
O201	O20	0.076700	0.985760	0.221090
C221	C22	0.190740	0.894490	0.229540
N41	N4	0.186140	0.933020	0.114220
C231	C23	0.363450	0.716280	0.279080
C241	C24	0.247150	0.825590	0.287570
H141	H14	0.246100	0.799400	0.368000
C251	C25	0.301970	0.795360	0.224710
C261	C26	0.298410	0.836730	0.107630
H151	H15	0.335400	0.819400	0.064000
C271	C27	0.129430	0.933740	0.290950
C281	C28	0.239990	0.904420	0.055850
H161	H16	0.235900	0.934100	0.974000
Mg51	Mg5	0.585360	0.464230	0.541910
O211	O21	0.478690	0.413920	0.553720
H171	H17	0.462800	0.363800	0.526000
O221	O22	0.634940	0.586160	0.902710
O231	O23	0.916970	0.792020	0.724810
O241	O24	0.854830	0.834800	0.871610
O251	O25	0.576700	0.514240	0.721090
C291	C29	0.690740	0.605510	0.729540
N51	N5	0.686140	0.566980	0.614220
C301	C30	0.863450	0.783720	0.779080
C311	C31	0.747150	0.674410	0.787570
H181	H18	0.746100	0.700600	0.868000
C321	C32	0.801970	0.704640	0.724710
C331	C33	0.798410	0.663270	0.607630
H191	H19	0.835400	0.680600	0.564000
C341	C34	0.629430	0.566260	0.790950
C351	C35	0.739990	0.595580	0.555850
H201	H20	0.735900	0.565900	0.474000
Mg61	Mg6	0.085360	0.964230	0.541910
O261	O26	0.978690	0.913920	0.553720
H211	H21	0.962800	0.863800	0.526000
O271	O27	0.134940	0.086160	0.902710
O281	O28	0.416970	0.292020	0.724810
O291	O29	0.354830	0.334800	0.871610
O301	O30	0.076700	0.014240	0.721090
C361	C36	0.190740	0.105510	0.729540
N61	N6	0.186140	0.066980	0.614220
C371	C37	0.363450	0.283720	0.779080
C381	C38	0.247150	0.174410	0.787570
H221	H22	0.246100	0.200600	0.868000
C391	C39	0.301970	0.204640	0.724710
C401	C40	0.298410	0.163270	0.607630
H231	H23	0.335400	0.180600	0.564000
C411	C41	0.129430	0.066260	0.790950
C421	C42	0.239990	0.095580	0.555850
H241	H24	0.235900	0.065900	0.474000
Mg71	Mg7	0.414640	0.464230	0.958090
O311	O31	0.521310	0.413920	0.946280
H251	H25	0.537200	0.363800	0.974000
O321	O32	0.365060	0.586160	0.597290
O331	O33	0.083030	0.792020	0.775190
O341	O34	0.145170	0.834800	0.628390
O351	O35	0.423300	0.514240	0.778910
C431	C43	0.309260	0.605510	0.770460
N71	N7	0.313860	0.566980	0.885780
C441	C44	0.136550	0.783720	0.720920
C451	C45	0.252850	0.674410	0.712430
H261	H26	0.253900	0.700600	0.632000
C461	C46	0.198030	0.704640	0.775290
C471	C47	0.201590	0.663270	0.892370
H271	H27	0.164600	0.680600	0.936000
C481	C48	0.370570	0.566260	0.709050
C491	C49	0.260010	0.595580	0.944150
H281	H28	0.264100	0.565900	0.026000
Mg81	Mg8	0.914640	0.964230	0.958090
O361	O36	0.021310	0.913920	0.946280
H291	H29	0.037200	0.863800	0.974000
O371	O37	0.865060	0.086160	0.597290
O381	O38	0.583030	0.292020	0.775190
O391	O39	0.645170	0.334800	0.628390
O401	O40	0.923300	0.014240	0.778910
C501	C50	0.809260	0.105510	0.770460
N81	N8	0.813860	0.066980	0.885780
C511	C51	0.636550	0.283720	0.720920
C521	C52	0.752850	0.174410	0.712430
H301	H30	0.753900	0.200600	0.632000
C531	C53	0.698030	0.204640	0.775290
C541	C54	0.701590	0.163270	0.892370
H311	H31	0.664600	0.180600	0.936000
C551	C55	0.870570	0.066260	0.709050
C561	C56	0.760010	0.095580	0.944150
H321	H32	0.764100	0.065900	0.026000
Mg91	Mg9	0.500000	0.597730	0.250000
Mg101	Mg10	0.000000	0.097730	0.250000
Mg111	Mg11	0.500000	0.402270	0.750000
Mg121	Mg12	0.000000	0.902270	0.750000
