data_NUFTOY_charged_PM
_symmetry_space_group_name_H-M	'P1'
_cell_length_a	8.283500
_cell_length_b	31.745000
_cell_length_c	31.745000
_cell_angle_alpha	90.000000
_cell_angle_beta	90.000000
_cell_angle_gamma	90.000000
_symmetry_Int_Tables_number 1

loop_
_symmetry_equiv_pos_as_xyz
'x,y,z'

loop_
_atom_site_label
_atom_site_type_symbol
_atom_site_fract_x
_atom_site_fract_y
_atom_site_fract_z
In11	In1	0.903100	0.465420	0.306960
In21	In2	0.903100	0.034580	0.193040
In31	In3	0.903100	0.193040	0.465420
In41	In4	0.903100	0.306960	0.034580
In51	In5	0.096900	0.534580	0.693040
In61	In6	0.096900	0.965420	0.806960
In71	In7	0.096900	0.806960	0.534580
In81	In8	0.096900	0.693040	0.965420
H11	H1	0.356500	0.379700	0.324700
H21	H2	0.613700	0.338200	0.328400
H31	H3	0.763600	0.286200	0.357500
H41	H4	0.376000	0.246000	0.423400
H51	H5	0.116500	0.285800	0.416200
H61	H6	0.974700	0.342400	0.391600
H71	H7	0.721800	0.572100	0.211200
H81	H8	0.726600	0.610000	0.151300
H91	H9	0.860300	0.630900	0.083900
H101	H10	0.288400	0.580400	0.054200
H111	H11	0.278000	0.538300	0.112200
H121	H12	0.140500	0.518100	0.179600
H131	H13	0.356500	0.120300	0.175300
H141	H14	0.613700	0.161800	0.171600
H151	H15	0.763600	0.213800	0.142500
H161	H16	0.376000	0.254000	0.076600
H171	H17	0.116500	0.214200	0.083800
H181	H18	0.974700	0.157600	0.108400
H191	H19	0.721800	0.927900	0.288800
H201	H20	0.726600	0.890000	0.348700
H211	H21	0.860300	0.869100	0.416100
H221	H22	0.288400	0.919600	0.445800
H231	H23	0.278000	0.961700	0.387800
H241	H24	0.140500	0.981900	0.320400
H251	H25	0.356500	0.175300	0.379700
H261	H26	0.613700	0.171600	0.338200
H271	H27	0.763600	0.142500	0.286200
H281	H28	0.376000	0.076600	0.246000
H291	H29	0.116500	0.083800	0.285800
H301	H30	0.974700	0.108400	0.342400
H311	H31	0.721800	0.288800	0.572100
H321	H32	0.726600	0.348700	0.610000
H331	H33	0.860300	0.416100	0.630900
H341	H34	0.288400	0.445800	0.580400
H351	H35	0.278000	0.387800	0.538300
H361	H36	0.140500	0.320400	0.518100
H371	H37	0.356500	0.324700	0.120300
H381	H38	0.613700	0.328400	0.161800
H391	H39	0.763600	0.357500	0.213800
H401	H40	0.376000	0.423400	0.254000
H411	H41	0.116500	0.416200	0.214200
H421	H42	0.974700	0.391600	0.157600
H431	H43	0.721800	0.211200	0.927900
H441	H44	0.726600	0.151300	0.890000
H451	H45	0.860300	0.083900	0.869100
H461	H46	0.288400	0.054200	0.919600
H471	H47	0.278000	0.112200	0.961700
H481	H48	0.140500	0.179600	0.981900
H491	H49	0.643500	0.620300	0.675300
H501	H50	0.386300	0.661800	0.671600
H511	H51	0.236400	0.713800	0.642500
H521	H52	0.624000	0.754000	0.576600
H531	H53	0.883500	0.714200	0.583800
H541	H54	0.025300	0.657600	0.608400
H551	H55	0.278200	0.427900	0.788800
H561	H56	0.273400	0.390000	0.848700
H571	H57	0.139700	0.369100	0.916100
H581	H58	0.711600	0.419600	0.945800
H591	H59	0.722000	0.461700	0.887800
H601	H60	0.859500	0.481900	0.820400
H611	H61	0.643500	0.879700	0.824700
H621	H62	0.386300	0.838200	0.828400
H631	H63	0.236400	0.786200	0.857500
H641	H64	0.624000	0.746000	0.923400
H651	H65	0.883500	0.785800	0.916200
H661	H66	0.025300	0.842400	0.891600
H671	H67	0.278200	0.072100	0.711200
H681	H68	0.273400	0.110000	0.651300
H691	H69	0.139700	0.130900	0.583900
H701	H70	0.711600	0.080400	0.554200
H711	H71	0.722000	0.038300	0.612200
H721	H72	0.859500	0.018100	0.679600
H731	H73	0.643500	0.824700	0.620300
H741	H74	0.386300	0.828400	0.661800
H751	H75	0.236400	0.857500	0.713800
H761	H76	0.624000	0.923400	0.754000
H771	H77	0.883500	0.916200	0.714200
H781	H78	0.025300	0.891600	0.657600
H791	H79	0.278200	0.711200	0.427900
H801	H80	0.273400	0.651300	0.390000
H811	H81	0.139700	0.583900	0.369100
H821	H82	0.711600	0.554200	0.419600
H831	H83	0.722000	0.612200	0.461700
H841	H84	0.859500	0.679600	0.481900
H851	H85	0.643500	0.675300	0.879700
H861	H86	0.386300	0.671600	0.838200
H871	H87	0.236400	0.642500	0.786200
H881	H88	0.624000	0.576600	0.746000
H891	H89	0.883500	0.583800	0.785800
H901	H90	0.025300	0.608400	0.842400
H911	H91	0.278200	0.788800	0.072100
H921	H92	0.273400	0.848700	0.110000
H931	H93	0.139700	0.916100	0.130900
H941	H94	0.711600	0.945800	0.080400
H951	H95	0.722000	0.887800	0.038300
H961	H96	0.859500	0.820400	0.018100
C11	C1	0.069000	0.405100	0.340900
C21	C2	0.156400	0.367300	0.355800
C31	C3	0.310000	0.361000	0.343700
C41	C4	0.403300	0.326900	0.358900
C51	C5	0.566300	0.320400	0.348100
C61	C6	0.655900	0.289700	0.365100
C71	C7	0.580900	0.262200	0.395200
C81	C8	0.422600	0.265400	0.405100
C91	C9	0.326000	0.298600	0.387400
C101	C10	0.166900	0.304900	0.398300
C111	C11	0.081600	0.338500	0.383500
C121	C12	0.687600	0.232400	0.418100
C131	C13	0.929000	0.514100	0.241200
C141	C14	0.935900	0.540200	0.202200
C151	C15	0.807800	0.569100	0.192600
C161	C16	0.811600	0.591800	0.157100
C171	C17	0.939000	0.588900	0.128700
C181	C18	0.944900	0.612800	0.090500
C191	C19	0.070100	0.609400	0.064100
C201	C20	0.200600	0.581800	0.072400
C211	C21	0.195100	0.557400	0.107200
C221	C22	0.065100	0.560400	0.136300
C231	C23	0.057300	0.537000	0.173900
C241	C24	0.076200	0.638100	0.026100
C251	C25	0.069000	0.094900	0.159100
C261	C26	0.156400	0.132700	0.144200
C271	C27	0.310000	0.139000	0.156300
C281	C28	0.403300	0.173100	0.141100
C291	C29	0.566300	0.179600	0.151900
C301	C30	0.655900	0.210300	0.134900
C311	C31	0.580900	0.237800	0.104800
C321	C32	0.422600	0.234600	0.094900
C331	C33	0.326000	0.201400	0.112600
C341	C34	0.166900	0.195100	0.101700
C351	C35	0.081600	0.161500	0.116500
C361	C36	0.687600	0.267600	0.081900
C371	C37	0.929000	0.985900	0.258800
C381	C38	0.935900	0.959800	0.297800
C391	C39	0.807800	0.930900	0.307400
C401	C40	0.811600	0.908200	0.342900
C411	C41	0.939000	0.911100	0.371300
C421	C42	0.944900	0.887200	0.409500
C431	C43	0.070100	0.890600	0.435900
C441	C44	0.200600	0.918200	0.427600
C451	C45	0.195100	0.942600	0.392800
C461	C46	0.065100	0.939600	0.363700
C471	C47	0.057300	0.963000	0.326100
C481	C48	0.076200	0.861900	0.473900
C491	C49	0.069000	0.159100	0.405100
C501	C50	0.156400	0.144200	0.367300
C511	C51	0.310000	0.156300	0.361000
C521	C52	0.403300	0.141100	0.326900
C531	C53	0.566300	0.151900	0.320400
C541	C54	0.655900	0.134900	0.289700
C551	C55	0.580900	0.104800	0.262200
C561	C56	0.422600	0.094900	0.265400
C571	C57	0.326000	0.112600	0.298600
C581	C58	0.166900	0.101700	0.304900
C591	C59	0.081600	0.116500	0.338500
C601	C60	0.687600	0.081900	0.232400
C611	C61	0.929000	0.258800	0.514100
C621	C62	0.935900	0.297800	0.540200
C631	C63	0.807800	0.307400	0.569100
C641	C64	0.811600	0.342900	0.591800
C651	C65	0.939000	0.371300	0.588900
C661	C66	0.944900	0.409500	0.612800
C671	C67	0.070100	0.435900	0.609400
C681	C68	0.200600	0.427600	0.581800
C691	C69	0.195100	0.392800	0.557400
C701	C70	0.065100	0.363700	0.560400
C711	C71	0.057300	0.326100	0.537000
C721	C72	0.076200	0.473900	0.638100
C731	C73	0.069000	0.340900	0.094900
C741	C74	0.156400	0.355800	0.132700
C751	C75	0.310000	0.343700	0.139000
C761	C76	0.403300	0.358900	0.173100
C771	C77	0.566300	0.348100	0.179600
C781	C78	0.655900	0.365100	0.210300
C791	C79	0.580900	0.395200	0.237800
C801	C80	0.422600	0.405100	0.234600
C811	C81	0.326000	0.387400	0.201400
C821	C82	0.166900	0.398300	0.195100
C831	C83	0.081600	0.383500	0.161500
C841	C84	0.687600	0.418100	0.267600
C851	C85	0.929000	0.241200	0.985900
C861	C86	0.935900	0.202200	0.959800
C871	C87	0.807800	0.192600	0.930900
C881	C88	0.811600	0.157100	0.908200
C891	C89	0.939000	0.128700	0.911100
C901	C90	0.944900	0.090500	0.887200
C911	C91	0.070100	0.064100	0.890600
C921	C92	0.200600	0.072400	0.918200
C931	C93	0.195100	0.107200	0.942600
C941	C94	0.065100	0.136300	0.939600
C951	C95	0.057300	0.173900	0.963000
C961	C96	0.076200	0.026100	0.861900
C971	C97	0.931000	0.594900	0.659100
C981	C98	0.843600	0.632700	0.644200
C991	C99	0.690000	0.639000	0.656300
C1001	C100	0.596700	0.673100	0.641100
C1011	C101	0.433700	0.679600	0.651900
C1021	C102	0.344100	0.710300	0.634900
C1031	C103	0.419100	0.737800	0.604800
C1041	C104	0.577400	0.734600	0.594900
C1051	C105	0.674000	0.701400	0.612600
C1061	C106	0.833100	0.695100	0.601700
C1071	C107	0.918400	0.661500	0.616500
C1081	C108	0.312400	0.767600	0.581900
C1091	C109	0.071000	0.485900	0.758800
C1101	C110	0.064100	0.459800	0.797800
C1111	C111	0.192200	0.430900	0.807400
C1121	C112	0.188400	0.408200	0.842900
C1131	C113	0.061000	0.411100	0.871300
C1141	C114	0.055100	0.387200	0.909500
C1151	C115	0.929900	0.390600	0.935900
C1161	C116	0.799400	0.418200	0.927600
C1171	C117	0.804900	0.442600	0.892800
C1181	C118	0.934900	0.439600	0.863700
C1191	C119	0.942700	0.463000	0.826100
C1201	C120	0.923800	0.361900	0.973900
C1211	C121	0.931000	0.905100	0.840900
C1221	C122	0.843600	0.867300	0.855800
C1231	C123	0.690000	0.861000	0.843700
C1241	C124	0.596700	0.826900	0.858900
C1251	C125	0.433700	0.820400	0.848100
C1261	C126	0.344100	0.789700	0.865100
C1271	C127	0.419100	0.762200	0.895200
C1281	C128	0.577400	0.765400	0.905100
C1291	C129	0.674000	0.798600	0.887400
C1301	C130	0.833100	0.804900	0.898300
C1311	C131	0.918400	0.838500	0.883500
C1321	C132	0.312400	0.732400	0.918100
C1331	C133	0.071000	0.014100	0.741200
C1341	C134	0.064100	0.040200	0.702200
C1351	C135	0.192200	0.069100	0.692600
C1361	C136	0.188400	0.091800	0.657100
C1371	C137	0.061000	0.088900	0.628700
C1381	C138	0.055100	0.112800	0.590500
C1391	C139	0.929900	0.109400	0.564100
C1401	C140	0.799400	0.081800	0.572400
C1411	C141	0.804900	0.057400	0.607200
C1421	C142	0.934900	0.060400	0.636300
C1431	C143	0.942700	0.037000	0.673900
C1441	C144	0.923800	0.138100	0.526100
C1451	C145	0.931000	0.840900	0.594900
C1461	C146	0.843600	0.855800	0.632700
C1471	C147	0.690000	0.843700	0.639000
C1481	C148	0.596700	0.858900	0.673100
C1491	C149	0.433700	0.848100	0.679600
C1501	C150	0.344100	0.865100	0.710300
C1511	C151	0.419100	0.895200	0.737800
C1521	C152	0.577400	0.905100	0.734600
C1531	C153	0.674000	0.887400	0.701400
C1541	C154	0.833100	0.898300	0.695100
C1551	C155	0.918400	0.883500	0.661500
C1561	C156	0.312400	0.918100	0.767600
C1571	C157	0.071000	0.741200	0.485900
C1581	C158	0.064100	0.702200	0.459800
C1591	C159	0.192200	0.692600	0.430900
C1601	C160	0.188400	0.657100	0.408200
C1611	C161	0.061000	0.628700	0.411100
C1621	C162	0.055100	0.590500	0.387200
C1631	C163	0.929900	0.564100	0.390600
C1641	C164	0.799400	0.572400	0.418200
C1651	C165	0.804900	0.607200	0.442600
C1661	C166	0.934900	0.636300	0.439600
C1671	C167	0.942700	0.673900	0.463000
C1681	C168	0.923800	0.526100	0.361900
C1691	C169	0.931000	0.659100	0.905100
C1701	C170	0.843600	0.644200	0.867300
C1711	C171	0.690000	0.656300	0.861000
C1721	C172	0.596700	0.641100	0.826900
C1731	C173	0.433700	0.651900	0.820400
C1741	C174	0.344100	0.634900	0.789700
C1751	C175	0.419100	0.604800	0.762200
C1761	C176	0.577400	0.594900	0.765400
C1771	C177	0.674000	0.612600	0.798600
C1781	C178	0.833100	0.601700	0.804900
C1791	C179	0.918400	0.616500	0.838500
C1801	C180	0.312400	0.581900	0.732400
C1811	C181	0.071000	0.758800	0.014100
C1821	C182	0.064100	0.797800	0.040200
C1831	C183	0.192200	0.807400	0.069100
C1841	C184	0.188400	0.842900	0.091800
C1851	C185	0.061000	0.871300	0.088900
C1861	C186	0.055100	0.909500	0.112800
C1871	C187	0.929900	0.935900	0.109400
C1881	C188	0.799400	0.927600	0.081800
C1891	C189	0.804900	0.892800	0.057400
C1901	C190	0.934900	0.863700	0.060400
C1911	C191	0.942700	0.826100	0.037000
C1921	C192	0.923800	0.973900	0.138100
O11	O1	0.928100	0.412100	0.352800
O21	O2	0.136500	0.429500	0.315000
O31	O3	0.632400	0.202600	0.440500
O41	O4	0.836800	0.239100	0.417300
O51	O5	0.044000	0.490300	0.249700
O61	O6	0.806500	0.515300	0.264200
O71	O7	0.202000	0.641000	0.004500
O81	O8	0.953100	0.659200	0.016700
O91	O9	0.928100	0.087900	0.147200
O101	O10	0.136500	0.070500	0.185000
O111	O11	0.632400	0.297400	0.059500
O121	O12	0.836800	0.260900	0.082700
O131	O13	0.044000	0.009700	0.250300
O141	O14	0.806500	0.984700	0.235800
O151	O15	0.202000	0.859000	0.495500
O161	O16	0.953100	0.840800	0.483300
O171	O17	0.928100	0.147200	0.412100
O181	O18	0.136500	0.185000	0.429500
O191	O19	0.632400	0.059500	0.202600
O201	O20	0.836800	0.082700	0.239100
O211	O21	0.044000	0.250300	0.490300
O221	O22	0.806500	0.235800	0.515300
O231	O23	0.202000	0.495500	0.641000
O241	O24	0.953100	0.483300	0.659200
O251	O25	0.928100	0.352800	0.087900
O261	O26	0.136500	0.315000	0.070500
O271	O27	0.632400	0.440500	0.297400
O281	O28	0.836800	0.417300	0.260900
O291	O29	0.044000	0.249700	0.009700
O301	O30	0.806500	0.264200	0.984700
O311	O31	0.202000	0.004500	0.859000
O321	O32	0.953100	0.016700	0.840800
O331	O33	0.071900	0.587900	0.647200
O341	O34	0.863500	0.570500	0.685000
O351	O35	0.367600	0.797400	0.559500
O361	O36	0.163200	0.760900	0.582700
O371	O37	0.956000	0.509700	0.750300
O381	O38	0.193500	0.484700	0.735800
O391	O39	0.798000	0.359000	0.995500
O401	O40	0.046900	0.340800	0.983300
O411	O41	0.071900	0.912100	0.852800
O421	O42	0.863500	0.929500	0.815000
O431	O43	0.367600	0.702600	0.940500
O441	O44	0.163200	0.739100	0.917300
O451	O45	0.956000	0.990300	0.749700
O461	O46	0.193500	0.015300	0.764200
O471	O47	0.798000	0.141000	0.504500
O481	O48	0.046900	0.159200	0.516700
O491	O49	0.071900	0.852800	0.587900
O501	O50	0.863500	0.815000	0.570500
O511	O51	0.367600	0.940500	0.797400
O521	O52	0.163200	0.917300	0.760900
O531	O53	0.956000	0.749700	0.509700
O541	O54	0.193500	0.764200	0.484700
O551	O55	0.798000	0.504500	0.359000
O561	O56	0.046900	0.516700	0.340800
O571	O57	0.071900	0.647200	0.912100
O581	O58	0.863500	0.685000	0.929500
O591	O59	0.367600	0.559500	0.702600
O601	O60	0.163200	0.582700	0.739100
O611	O61	0.956000	0.750300	0.990300
O621	O62	0.193500	0.735800	0.015300
O631	O63	0.798000	0.995500	0.141000
O641	O64	0.046900	0.983300	0.159200
H971	H97	0.464200	0.475900	0.317200
H981	H98	0.293700	0.486400	0.320600
H991	H99	0.514800	0.517400	0.375400
H1001	H100	0.327100	0.520900	0.380300
H1011	H101	0.484200	0.442500	0.382900
H1021	H102	0.446600	0.468200	0.423900
H1031	H103	0.304800	0.451100	0.396000
H1041	H104	0.341800	0.555600	0.308300
H1051	H105	0.528000	0.545900	0.307600
H1061	H106	0.391200	0.549500	0.238300
H1071	H107	0.511600	0.511900	0.244800
H1081	H108	0.325200	0.504500	0.249300
C1931	C193	0.413600	0.502800	0.370400
C1941	C194	0.412000	0.462500	0.395600
C1951	C195	0.422200	0.534500	0.301100
C1961	C196	0.411600	0.524100	0.254000
N11	N1	0.394300	0.495900	0.325600
H1091	H109	0.464200	0.024100	0.182800
H1101	H110	0.293700	0.013600	0.179400
H1111	H111	0.514800	0.982600	0.124600
H1121	H112	0.327100	0.979100	0.119700
H1131	H113	0.484200	0.057500	0.117100
H1141	H114	0.446600	0.031800	0.076100
H1151	H115	0.304800	0.048900	0.104000
H1161	H116	0.341800	0.944400	0.191700
H1171	H117	0.528000	0.954100	0.192400
H1181	H118	0.391200	0.950500	0.261700
H1191	H119	0.511600	0.988100	0.255200
H1201	H120	0.325200	0.995500	0.250700
C1971	C197	0.413600	0.997200	0.129600
C1981	C198	0.412000	0.037500	0.104400
C1991	C199	0.422200	0.965500	0.198900
C2001	C200	0.411600	0.975900	0.246000
N21	N2	0.394300	0.004100	0.174400
H1211	H121	0.464200	0.182800	0.475900
H1221	H122	0.293700	0.179400	0.486400
H1231	H123	0.514800	0.124600	0.517400
H1241	H124	0.327100	0.119700	0.520900
H1251	H125	0.484200	0.117100	0.442500
H1261	H126	0.446600	0.076100	0.468200
H1271	H127	0.304800	0.104000	0.451100
H1281	H128	0.341800	0.191700	0.555600
H1291	H129	0.528000	0.192400	0.545900
H1301	H130	0.391200	0.261700	0.549500
H1311	H131	0.511600	0.255200	0.511900
H1321	H132	0.325200	0.250700	0.504500
C2011	C201	0.413600	0.129600	0.502800
C2021	C202	0.412000	0.104400	0.462500
C2031	C203	0.422200	0.198900	0.534500
C2041	C204	0.411600	0.246000	0.524100
N31	N3	0.394300	0.174400	0.495900
H1331	H133	0.464200	0.317200	0.024100
H1341	H134	0.293700	0.320600	0.013600
H1351	H135	0.514800	0.375400	0.982600
H1361	H136	0.327100	0.380300	0.979100
H1371	H137	0.484200	0.382900	0.057500
H1381	H138	0.446600	0.423900	0.031800
H1391	H139	0.304800	0.396000	0.048900
H1401	H140	0.341800	0.308300	0.944400
H1411	H141	0.528000	0.307600	0.954100
H1421	H142	0.391200	0.238300	0.950500
H1431	H143	0.511600	0.244800	0.988100
H1441	H144	0.325200	0.249300	0.995500
C2051	C205	0.413600	0.370400	0.997200
C2061	C206	0.412000	0.395600	0.037500
C2071	C207	0.422200	0.301100	0.965500
C2081	C208	0.411600	0.254000	0.975900
N41	N4	0.394300	0.325600	0.004100
H1451	H145	0.535800	0.524100	0.682800
H1461	H146	0.706300	0.513600	0.679400
H1471	H147	0.485200	0.482600	0.624600
H1481	H148	0.672900	0.479100	0.619700
H1491	H149	0.515800	0.557500	0.617100
H1501	H150	0.553400	0.531800	0.576100
H1511	H151	0.695200	0.548900	0.604000
H1521	H152	0.658200	0.444400	0.691700
H1531	H153	0.472000	0.454100	0.692400
H1541	H154	0.608800	0.450500	0.761700
H1551	H155	0.488400	0.488100	0.755200
H1561	H156	0.674800	0.495500	0.750700
C2091	C209	0.586400	0.497200	0.629600
C2101	C210	0.588000	0.537500	0.604400
C2111	C211	0.577800	0.465500	0.698900
C2121	C212	0.588400	0.475900	0.746000
N51	N5	0.605700	0.504100	0.674400
H1571	H157	0.535800	0.975900	0.817200
H1581	H158	0.706300	0.986400	0.820600
H1591	H159	0.485200	0.017400	0.875400
H1601	H160	0.672900	0.020900	0.880300
H1611	H161	0.515800	0.942500	0.882900
H1621	H162	0.553400	0.968200	0.923900
H1631	H163	0.695200	0.951100	0.896000
H1641	H164	0.658200	0.055600	0.808300
H1651	H165	0.472000	0.045900	0.807600
H1661	H166	0.608800	0.049500	0.738300
H1671	H167	0.488400	0.011900	0.744800
H1681	H168	0.674800	0.004500	0.749300
C2131	C213	0.586400	0.002800	0.870400
C2141	C214	0.588000	0.962500	0.895600
C2151	C215	0.577800	0.034500	0.801100
C2161	C216	0.588400	0.024100	0.754000
N61	N6	0.605700	0.995900	0.825600
H1691	H169	0.535800	0.817200	0.524100
H1701	H170	0.706300	0.820600	0.513600
H1711	H171	0.485200	0.875400	0.482600
H1721	H172	0.672900	0.880300	0.479100
H1731	H173	0.515800	0.882900	0.557500
H1741	H174	0.553400	0.923900	0.531800
H1751	H175	0.695200	0.896000	0.548900
H1761	H176	0.658200	0.808300	0.444400
H1771	H177	0.472000	0.807600	0.454100
H1781	H178	0.608800	0.738300	0.450500
H1791	H179	0.488400	0.744800	0.488100
H1801	H180	0.674800	0.749300	0.495500
C2171	C217	0.586400	0.870400	0.497200
C2181	C218	0.588000	0.895600	0.537500
C2191	C219	0.577800	0.801100	0.465500
C2201	C220	0.588400	0.754000	0.475900
N71	N7	0.605700	0.825600	0.504100
H1811	H181	0.535800	0.682800	0.975900
H1821	H182	0.706300	0.679400	0.986400
H1831	H183	0.485200	0.624600	0.017400
H1841	H184	0.672900	0.619700	0.020900
H1851	H185	0.515800	0.617100	0.942500
H1861	H186	0.553400	0.576100	0.968200
H1871	H187	0.695200	0.604000	0.951100
H1881	H188	0.658200	0.691700	0.055600
H1891	H189	0.472000	0.692400	0.045900
H1901	H190	0.608800	0.761700	0.049500
H1911	H191	0.488400	0.755200	0.011900
H1921	H192	0.674800	0.750700	0.004500
C2211	C221	0.586400	0.629600	0.002800
C2221	C222	0.588000	0.604400	0.962500
C2231	C223	0.577800	0.698900	0.034500
C2241	C224	0.588400	0.746000	0.024100
N81	N8	0.605700	0.674400	0.995900
