data_NUJCIE_freeONLY_PM
_symmetry_space_group_name_H-M	'P1'
_cell_length_a	13.895000
_cell_length_b	26.900000
_cell_length_c	7.613000
_cell_angle_alpha	90.000000
_cell_angle_beta	90.000000
_cell_angle_gamma	91.060000
_symmetry_Int_Tables_number 1

loop_
_symmetry_equiv_pos_as_xyz
'x,y,z'

loop_
_atom_site_label
_atom_site_type_symbol
_atom_site_fract_x
_atom_site_fract_y
_atom_site_fract_z
Cd11	Cd1	0.266810	0.369890	0.382870
Cd21	Cd2	0.190600	0.636350	0.378970
Ni11	Ni1	0.197230	0.499670	0.872800
Ni21	Ni2	0.995980	0.236300	0.266400
N11	N1	0.226500	0.422100	0.149000
N21	N2	0.210600	0.422700	0.586800
N31	N3	0.130200	0.319400	0.380000
N41	N4	0.334600	0.316200	0.612000
N51	N5	0.324600	0.311700	0.170000
N61	N6	0.430700	0.390700	0.347000
N71	N7	0.203400	0.575200	0.162000
N81	N8	0.186500	0.581600	0.605000
N91	N9	0.853700	0.158400	0.140000
N101	N10	0.833700	0.293800	0.427000
N111	N11	0.169300	0.692900	0.140000
N121	N12	0.022500	0.634300	0.322600
C11	C1	0.213700	0.450900	0.043000
C21	C2	0.201000	0.452000	0.696000
C31	C3	0.079500	0.287800	0.338000
C41	C4	0.400400	0.297200	0.671000
C51	C5	0.199600	0.547000	0.052000
C61	C6	0.187800	0.550700	0.705000
C71	C7	0.909000	0.187300	0.188000
C81	C8	0.893300	0.271400	0.362000
C91	C9	0.429400	0.316600	0.164000
C101	C10	0.470300	0.362700	0.200000
C111	C11	0.581400	0.365900	0.188000
C121	C12	0.068000	0.696100	0.106000
C131	C13	0.999800	0.669300	0.186000
C141	C14	0.895700	0.674900	0.140000
Cd31	Cd3	0.233190	0.130110	0.882870
Cd41	Cd4	0.309400	0.863650	0.878970
Ni31	Ni3	0.302770	0.000330	0.372800
Ni41	Ni4	0.504020	0.263700	0.766400
N131	N13	0.273500	0.077900	0.649000
N141	N14	0.289400	0.077300	0.086800
N151	N15	0.369800	0.180600	0.880000
N161	N16	0.165400	0.183800	0.112000
N171	N17	0.175400	0.188300	0.670000
N181	N18	0.069300	0.109300	0.847000
N191	N19	0.296600	0.924800	0.662000
N201	N20	0.313500	0.918400	0.105000
N211	N21	0.646300	0.341600	0.640000
N221	N22	0.666300	0.206200	0.927000
N231	N23	0.330700	0.807100	0.640000
N241	N24	0.477500	0.865700	0.822600
C151	C15	0.286300	0.049100	0.543000
C161	C16	0.299000	0.048000	0.196000
C171	C17	0.420500	0.212200	0.838000
C181	C18	0.099600	0.202800	0.171000
C191	C19	0.300400	0.953000	0.552000
C201	C20	0.312200	0.949300	0.205000
C211	C21	0.591000	0.312700	0.688000
C221	C22	0.606700	0.228600	0.862000
C231	C23	0.070600	0.183400	0.664000
C241	C24	0.029700	0.137300	0.700000
C251	C25	0.918600	0.134100	0.688000
C261	C26	0.432000	0.803900	0.606000
C271	C27	0.500200	0.830700	0.686000
C281	C28	0.604300	0.825100	0.640000
Cd51	Cd5	0.733190	0.630110	0.617130
Cd61	Cd6	0.809400	0.363650	0.621030
Ni51	Ni5	0.802770	0.500330	0.127200
Ni61	Ni6	0.004020	0.763700	0.733600
N251	N25	0.773500	0.577900	0.851000
N261	N26	0.789400	0.577300	0.413200
N271	N27	0.869800	0.680600	0.620000
N281	N28	0.665400	0.683800	0.388000
N291	N29	0.675400	0.688300	0.830000
N301	N30	0.569300	0.609300	0.653000
N311	N31	0.796600	0.424800	0.838000
N321	N32	0.813500	0.418400	0.395000
N331	N33	0.146300	0.841600	0.860000
N341	N34	0.166300	0.706200	0.573000
N351	N35	0.830700	0.307100	0.860000
N361	N36	0.977500	0.365700	0.677400
C291	C29	0.786300	0.549100	0.957000
C301	C30	0.799000	0.548000	0.304000
C311	C31	0.920500	0.712200	0.662000
C321	C32	0.599600	0.702800	0.329000
C331	C33	0.800400	0.453000	0.948000
C341	C34	0.812200	0.449300	0.295000
C351	C35	0.091000	0.812700	0.812000
C361	C36	0.106700	0.728600	0.638000
C371	C37	0.570600	0.683400	0.836000
C381	C38	0.529700	0.637300	0.800000
C391	C39	0.418600	0.634100	0.812000
C401	C40	0.932000	0.303900	0.894000
C411	C41	0.000200	0.330700	0.814000
C421	C42	0.104300	0.325100	0.860000
Cd71	Cd7	0.766810	0.869890	0.117130
Cd81	Cd8	0.690600	0.136350	0.121030
Ni71	Ni7	0.697230	0.999670	0.627200
Ni81	Ni8	0.495980	0.736300	0.233600
N371	N37	0.726500	0.922100	0.351000
N381	N38	0.710600	0.922700	0.913200
N391	N39	0.630200	0.819400	0.120000
N401	N40	0.834600	0.816200	0.888000
N411	N41	0.824600	0.811700	0.330000
N421	N42	0.930700	0.890700	0.153000
N431	N43	0.703400	0.075200	0.338000
N441	N44	0.686500	0.081600	0.895000
N451	N45	0.353700	0.658400	0.360000
N461	N46	0.333700	0.793800	0.073000
N471	N47	0.669300	0.192900	0.360000
N481	N48	0.522500	0.134300	0.177400
C431	C43	0.713700	0.950900	0.457000
C441	C44	0.701000	0.952000	0.804000
C451	C45	0.579500	0.787800	0.162000
C461	C46	0.900400	0.797200	0.829000
C471	C47	0.699600	0.047000	0.448000
C481	C48	0.687800	0.050700	0.795000
C491	C49	0.409000	0.687300	0.312000
C501	C50	0.393300	0.771400	0.138000
C511	C51	0.929400	0.816600	0.336000
C521	C52	0.970300	0.862700	0.300000
C531	C53	0.081400	0.865900	0.312000
C541	C54	0.568000	0.196100	0.394000
C551	C55	0.499800	0.169300	0.314000
C561	C56	0.395700	0.174900	0.360000
