data_NULMAJ_freeONLY_PM
_symmetry_space_group_name_H-M	'P1'
_cell_length_a	15.998100
_cell_length_b	15.998100
_cell_length_c	16.576100
_cell_angle_alpha	74.533300
_cell_angle_beta	74.533000
_cell_angle_gamma	116.575000
_symmetry_Int_Tables_number 1

loop_
_symmetry_equiv_pos_as_xyz
'x,y,z'

loop_
_atom_site_label
_atom_site_type_symbol
_atom_site_fract_x
_atom_site_fract_y
_atom_site_fract_z
Ni11	Ni1	0.500000	0.000000	0.000000
Ni21	Ni2	0.500000	0.500000	0.500000
Ni31	Ni3	0.500000	0.000000	0.500000
Ni41	Ni4	0.000000	0.000000	0.000000
Mo11	Mo1	0.375000	0.125000	0.750000
Mo21	Mo2	0.625000	0.875000	0.250000
H11	H1	0.696300	0.216100	0.956000
H21	H2	0.817900	0.330500	0.812400
H31	H3	0.737300	0.336700	0.778600
H41	H4	0.816500	0.484500	0.798200
H51	H5	0.807900	0.423100	0.894200
H61	H6	0.647600	0.431000	0.863000
H71	H7	0.691200	0.464800	0.931200
H81	H8	0.527400	0.302200	0.008200
H91	H9	0.612600	0.299000	0.035400
H101	H10	0.543100	0.225300	0.919600
H111	H11	0.641200	0.145000	0.837200
H121	H12	0.694700	0.121100	0.889000
H131	H13	0.504000	0.108000	0.089800
H141	H14	0.430100	0.102100	0.052200
H151	H15	0.672100	0.652300	0.544000
H161	H16	0.642900	0.630300	0.687600
H171	H17	0.615300	0.515900	0.721400
H181	H18	0.782700	0.614700	0.701800
H191	H19	0.817300	0.702100	0.605800
H201	H20	0.794000	0.510600	0.637000
H211	H21	0.896000	0.622400	0.568800
H221	H22	0.810400	0.535600	0.491800
H231	H23	0.834400	0.648000	0.464600
H241	H24	0.644900	0.462700	0.580400
H251	H25	0.482200	0.478400	0.662800
H261	H26	0.510100	0.583700	0.611000
H271	H27	0.697800	0.593800	0.410200
H281	H28	0.654300	0.482300	0.447800
H291	H29	0.283900	0.803700	0.544000
H301	H30	0.169500	0.682100	0.687600
H311	H31	0.163300	0.762700	0.721400
H321	H32	0.015500	0.683500	0.701800
H331	H33	0.076900	0.692100	0.605800
H341	H34	0.069000	0.852400	0.637000
H351	H35	0.035200	0.808800	0.568800
H361	H36	0.197800	0.972600	0.491800
H371	H37	0.201000	0.887400	0.464600
H381	H38	0.274700	0.956900	0.580400
H391	H39	0.355000	0.858800	0.662800
H401	H40	0.378900	0.805300	0.611000
H411	H41	0.392000	0.996000	0.410200
H421	H42	0.397900	0.069900	0.447800
H431	H43	0.847700	0.827900	0.956000
H441	H44	0.869700	0.857100	0.812400
H451	H45	0.984100	0.884700	0.778600
H461	H46	0.885300	0.717300	0.798200
H471	H47	0.797900	0.682700	0.894200
H481	H48	0.989400	0.706000	0.863000
H491	H49	0.877600	0.604000	0.931200
H501	H50	0.964400	0.689600	0.008200
H511	H51	0.852000	0.665600	0.035400
H521	H52	0.037300	0.855100	0.919600
H531	H53	0.021600	0.017800	0.837200
H541	H54	0.916300	0.989900	0.889000
H551	H55	0.906200	0.802200	0.089800
H561	H56	0.017700	0.845700	0.052200
H571	H57	0.303700	0.783900	0.044000
H581	H58	0.182100	0.669500	0.187600
H591	H59	0.262700	0.663300	0.221400
H601	H60	0.183500	0.515500	0.201800
H611	H61	0.192100	0.576900	0.105800
H621	H62	0.352400	0.569000	0.137000
H631	H63	0.308800	0.535200	0.068800
H641	H64	0.472600	0.697800	0.991800
H651	H65	0.387400	0.701000	0.964600
H661	H66	0.456900	0.774700	0.080400
H671	H67	0.358800	0.855000	0.162800
H681	H68	0.305300	0.878900	0.111000
H691	H69	0.496000	0.892000	0.910200
H701	H70	0.569900	0.897900	0.947800
H711	H71	0.327900	0.347700	0.456000
H721	H72	0.357100	0.369700	0.312400
H731	H73	0.384700	0.484100	0.278600
H741	H74	0.217300	0.385300	0.298200
H751	H75	0.182700	0.297900	0.394200
H761	H76	0.206000	0.489400	0.363000
H771	H77	0.104000	0.377600	0.431200
H781	H78	0.189600	0.464400	0.508200
H791	H79	0.165600	0.352000	0.535400
H801	H80	0.355100	0.537300	0.419600
H811	H81	0.517800	0.521600	0.337200
H821	H82	0.489900	0.416300	0.389000
H831	H83	0.302200	0.406200	0.589800
H841	H84	0.345700	0.517700	0.552200
H851	H85	0.716100	0.196300	0.456000
H861	H86	0.830500	0.317900	0.312400
H871	H87	0.836700	0.237300	0.278600
H881	H88	0.984500	0.316500	0.298200
H891	H89	0.923100	0.307900	0.394200
H901	H90	0.931000	0.147600	0.363000
H911	H91	0.964800	0.191200	0.431200
H921	H92	0.802200	0.027400	0.508200
H931	H93	0.799000	0.112600	0.535400
H941	H94	0.725300	0.043100	0.419600
H951	H95	0.645000	0.141200	0.337200
H961	H96	0.621100	0.194700	0.389000
H971	H97	0.608000	0.004000	0.589800
H981	H98	0.602100	0.930100	0.552200
H991	H99	0.152300	0.172100	0.044000
H1001	H100	0.130300	0.142900	0.187600
H1011	H101	0.015900	0.115300	0.221400
H1021	H102	0.114700	0.282700	0.201800
H1031	H103	0.202100	0.317300	0.105800
H1041	H104	0.010600	0.294000	0.137000
H1051	H105	0.122400	0.396000	0.068800
H1061	H106	0.035600	0.310400	0.991800
H1071	H107	0.148000	0.334400	0.964600
H1081	H108	0.962700	0.144900	0.080400
H1091	H109	0.978400	0.982200	0.162800
H1101	H110	0.083700	0.010100	0.111000
H1111	H111	0.093800	0.197800	0.910200
H1121	H112	0.982300	0.154300	0.947800
C11	C1	0.407570	0.058210	0.857720
C21	C2	0.279680	0.955480	0.808000
C31	C3	0.667800	0.223940	0.911060
C41	C4	0.753750	0.328070	0.831240
C51	C5	0.771270	0.419850	0.855880
C61	C6	0.674340	0.414060	0.906400
C71	C7	0.592530	0.306750	0.984920
C81	C8	0.572330	0.218230	0.964040
C91	C9	0.415930	0.265290	0.642280
C101	C10	0.263480	0.087680	0.692000
C111	C11	0.635000	0.578860	0.588940
C121	C12	0.659310	0.584990	0.668760
C131	C13	0.775730	0.627150	0.644120
C141	C14	0.820460	0.580740	0.593600
C151	C15	0.791670	0.577450	0.515080
C161	C16	0.682270	0.536370	0.535960
C171	C17	0.441790	0.092430	0.642280
C181	C18	0.544520	0.220320	0.692000
C191	C19	0.276060	0.832200	0.588940
C201	C20	0.171930	0.746250	0.668760
C211	C21	0.080150	0.728730	0.644120
C221	C22	0.085940	0.825660	0.593600
C231	C23	0.193250	0.907470	0.515080
C241	C24	0.281770	0.927670	0.535960
C251	C25	0.234710	0.084070	0.857720
C261	C26	0.412320	0.236520	0.808000
C271	C27	0.921140	0.865000	0.911060
C281	C28	0.915010	0.840690	0.831240
C291	C29	0.872850	0.724270	0.855880
C301	C30	0.919260	0.679540	0.906400
C311	C31	0.922550	0.708330	0.984920
C321	C32	0.963630	0.817730	0.964040
C331	C33	0.592430	0.941790	0.142280
C341	C34	0.720320	0.044520	0.192000
C351	C35	0.332200	0.776060	0.088940
C361	C36	0.246250	0.671930	0.168760
C371	C37	0.228730	0.580150	0.144120
C381	C38	0.325660	0.585940	0.093600
C391	C39	0.407470	0.693250	0.015080
C401	C40	0.427670	0.781770	0.035960
C411	C41	0.584070	0.734710	0.357720
C421	C42	0.736520	0.912320	0.308000
C431	C43	0.365000	0.421140	0.411060
C441	C44	0.340690	0.415010	0.331240
C451	C45	0.224270	0.372850	0.355880
C461	C46	0.179540	0.419260	0.406400
C471	C47	0.208330	0.422550	0.484920
C481	C48	0.317730	0.463630	0.464040
C491	C49	0.558210	0.907570	0.357720
C501	C50	0.455480	0.779680	0.308000
C511	C51	0.723940	0.167800	0.411060
C521	C52	0.828070	0.253750	0.331240
C531	C53	0.919850	0.271270	0.355880
C541	C54	0.914060	0.174340	0.406400
C551	C55	0.806750	0.092530	0.484920
C561	C56	0.718230	0.072330	0.464040
C571	C57	0.765290	0.915930	0.142280
C581	C58	0.587680	0.763480	0.192000
C591	C59	0.078860	0.135000	0.088940
C601	C60	0.084990	0.159310	0.168760
C611	C61	0.127150	0.275730	0.144120
C621	C62	0.080740	0.320460	0.093600
C631	C63	0.077450	0.291670	0.015080
C641	C64	0.036370	0.182270	0.035960
N11	N1	0.428390	0.025770	0.913840
N21	N2	0.235620	0.868920	0.838680
N31	N3	0.643980	0.132460	0.892320
N41	N4	0.493960	0.113740	0.038280
N51	N5	0.439610	0.342230	0.586160
N61	N6	0.207600	0.074300	0.661320
N71	N7	0.524780	0.536300	0.607680
N81	N8	0.652020	0.532240	0.461720
N91	N9	0.474230	0.071610	0.586160
N101	N10	0.631080	0.264380	0.661320
N111	N11	0.367540	0.856020	0.607680
N121	N12	0.386260	0.006040	0.461720
N131	N13	0.157770	0.060390	0.913840
N141	N14	0.425700	0.292400	0.838680
N151	N15	0.963700	0.975220	0.892320
N161	N16	0.967760	0.847980	0.038280
N171	N17	0.571610	0.974230	0.086160
N181	N18	0.764380	0.131080	0.161320
N191	N19	0.356020	0.867540	0.107680
N201	N20	0.506040	0.886260	0.961720
N211	N21	0.560390	0.657770	0.413840
N221	N22	0.792400	0.925700	0.338680
N231	N23	0.475220	0.463700	0.392320
N241	N24	0.347980	0.467760	0.538280
N251	N25	0.525770	0.928390	0.413840
N261	N26	0.368920	0.735620	0.338680
N271	N27	0.632460	0.143980	0.392320
N281	N28	0.613740	0.993960	0.538280
N291	N29	0.842230	0.939610	0.086160
N301	N30	0.574300	0.707600	0.161320
N311	N31	0.036300	0.024780	0.107680
N321	N32	0.032240	0.152020	0.961720
