data_NUNSOG_freeONLY_PM
_symmetry_space_group_name_H-M	'P1'
_cell_length_a	24.365000
_cell_length_b	8.612300
_cell_length_c	36.092000
_cell_angle_alpha	90.000000
_cell_angle_beta	90.000000
_cell_angle_gamma	90.000000
_symmetry_Int_Tables_number 1

loop_
_symmetry_equiv_pos_as_xyz
'x,y,z'

loop_
_atom_site_label
_atom_site_type_symbol
_atom_site_fract_x
_atom_site_fract_y
_atom_site_fract_z
N11	N1	0.674990	0.828700	0.013290
N21	N2	0.814940	0.060900	0.928930
H11	H1	0.792500	0.016000	0.913900
C11	C1	0.663800	0.885100	0.979640
H21	H2	0.631900	0.851700	0.968000
C21	C2	0.696600	0.989400	0.961130
H31	H3	0.686500	0.025400	0.937800
C31	C3	0.744220	0.039900	0.977370
C41	C4	0.755700	0.984500	0.012270
H41	H4	0.787400	0.017100	0.024400
C51	C5	0.720800	0.881100	0.029320
H51	H5	0.729500	0.846300	0.053000
C61	C6	0.782300	0.148500	0.956730
H61	H6	0.761000	0.228300	0.944400
H71	H7	0.806800	0.199000	0.974100
C71	C7	0.845700	0.166500	0.904310
H81	H8	0.872200	0.225300	0.918700
H91	H9	0.820700	0.239300	0.892700
H101	H10	0.848500	0.008200	0.863100
N31	N3	0.674990	0.328700	0.513290
N41	N4	0.814940	0.560900	0.428930
H111	H11	0.792500	0.516000	0.413900
C81	C8	0.663800	0.385100	0.479640
H121	H12	0.631900	0.351700	0.468000
C91	C9	0.696600	0.489400	0.461130
H131	H13	0.686500	0.525400	0.437800
C101	C10	0.744220	0.539900	0.477370
C111	C11	0.755700	0.484500	0.512270
H141	H14	0.787400	0.517100	0.524400
C121	C12	0.720800	0.381100	0.529320
H151	H15	0.729500	0.346300	0.553000
C131	C13	0.782300	0.648500	0.456730
H161	H16	0.761000	0.728300	0.444400
H171	H17	0.806800	0.699000	0.474100
C141	C14	0.845700	0.666500	0.404310
H181	H18	0.872200	0.725300	0.418700
H191	H19	0.820700	0.739300	0.392700
H201	H20	0.848500	0.508200	0.363100
N51	N5	0.174990	0.828700	0.513290
N61	N6	0.314940	0.060900	0.428930
H211	H21	0.292500	0.016000	0.413900
C151	C15	0.163800	0.885100	0.479640
H221	H22	0.131900	0.851700	0.468000
C161	C16	0.196600	0.989400	0.461130
H231	H23	0.186500	0.025400	0.437800
C171	C17	0.244220	0.039900	0.477370
C181	C18	0.255700	0.984500	0.512270
H241	H24	0.287400	0.017100	0.524400
C191	C19	0.220800	0.881100	0.529320
H251	H25	0.229500	0.846300	0.553000
C201	C20	0.282300	0.148500	0.456730
H261	H26	0.261000	0.228300	0.444400
H271	H27	0.306800	0.199000	0.474100
C211	C21	0.345700	0.166500	0.404310
H281	H28	0.372200	0.225300	0.418700
H291	H29	0.320700	0.239300	0.392700
H301	H30	0.348500	0.008200	0.363100
N71	N7	0.174990	0.328700	0.013290
N81	N8	0.314940	0.560900	0.928930
H311	H31	0.292500	0.516000	0.913900
C221	C22	0.163800	0.385100	0.979640
H321	H32	0.131900	0.351700	0.968000
C231	C23	0.196600	0.489400	0.961130
H331	H33	0.186500	0.525400	0.937800
C241	C24	0.244220	0.539900	0.977370
C251	C25	0.255700	0.484500	0.012270
H341	H34	0.287400	0.517100	0.024400
C261	C26	0.220800	0.381100	0.029320
H351	H35	0.229500	0.346300	0.053000
C271	C27	0.282300	0.648500	0.956730
H361	H36	0.261000	0.728300	0.944400
H371	H37	0.306800	0.699000	0.974100
C281	C28	0.345700	0.666500	0.904310
H381	H38	0.372200	0.725300	0.918700
H391	H39	0.320700	0.739300	0.892700
H401	H40	0.348500	0.508200	0.863100
N91	N9	0.075010	0.921300	0.013290
N101	N10	0.935060	0.689100	0.928930
H411	H41	0.957500	0.734000	0.913900
C291	C29	0.086200	0.864900	0.979640
H421	H42	0.118100	0.898300	0.968000
C301	C30	0.053400	0.760600	0.961130
H431	H43	0.063500	0.724600	0.937800
C311	C31	0.005780	0.710100	0.977370
C321	C32	0.994300	0.765500	0.012270
H441	H44	0.962600	0.732900	0.024400
C331	C33	0.029200	0.868900	0.029320
H451	H45	0.020500	0.903700	0.053000
C341	C34	0.967700	0.601500	0.956730
H461	H46	0.989000	0.521700	0.944400
H471	H47	0.943200	0.551000	0.974100
C351	C35	0.904300	0.583500	0.904310
H481	H48	0.877800	0.524700	0.918700
H491	H49	0.929300	0.510700	0.892700
H501	H50	0.901500	0.741800	0.863100
N111	N11	0.075010	0.421300	0.513290
N121	N12	0.935060	0.189100	0.428930
H511	H51	0.957500	0.234000	0.413900
C361	C36	0.086200	0.364900	0.479640
H521	H52	0.118100	0.398300	0.468000
C371	C37	0.053400	0.260600	0.461130
H531	H53	0.063500	0.224600	0.437800
C381	C38	0.005780	0.210100	0.477370
C391	C39	0.994300	0.265500	0.512270
H541	H54	0.962600	0.232900	0.524400
C401	C40	0.029200	0.368900	0.529320
H551	H55	0.020500	0.403700	0.553000
C411	C41	0.967700	0.101500	0.456730
H561	H56	0.989000	0.021700	0.444400
H571	H57	0.943200	0.051000	0.474100
C421	C42	0.904300	0.083500	0.404310
H581	H58	0.877800	0.024700	0.418700
H591	H59	0.929300	0.010700	0.392700
H601	H60	0.901500	0.241800	0.363100
N131	N13	0.575010	0.921300	0.513290
N141	N14	0.435060	0.689100	0.428930
H611	H61	0.457500	0.734000	0.413900
C431	C43	0.586200	0.864900	0.479640
H621	H62	0.618100	0.898300	0.468000
C441	C44	0.553400	0.760600	0.461130
H631	H63	0.563500	0.724600	0.437800
C451	C45	0.505780	0.710100	0.477370
C461	C46	0.494300	0.765500	0.512270
H641	H64	0.462600	0.732900	0.524400
C471	C47	0.529200	0.868900	0.529320
H651	H65	0.520500	0.903700	0.553000
C481	C48	0.467700	0.601500	0.456730
H661	H66	0.489000	0.521700	0.444400
H671	H67	0.443200	0.551000	0.474100
C491	C49	0.404300	0.583500	0.404310
H681	H68	0.377800	0.524700	0.418700
H691	H69	0.429300	0.510700	0.392700
H701	H70	0.401500	0.741800	0.363100
N151	N15	0.575010	0.421300	0.013290
N161	N16	0.435060	0.189100	0.928930
H711	H71	0.457500	0.234000	0.913900
C501	C50	0.586200	0.364900	0.979640
H721	H72	0.618100	0.398300	0.968000
C511	C51	0.553400	0.260600	0.961130
H731	H73	0.563500	0.224600	0.937800
C521	C52	0.505780	0.210100	0.977370
C531	C53	0.494300	0.265500	0.012270
H741	H74	0.462600	0.232900	0.024400
C541	C54	0.529200	0.368900	0.029320
H751	H75	0.520500	0.403700	0.053000
C551	C55	0.467700	0.101500	0.956730
H761	H76	0.489000	0.021700	0.944400
H771	H77	0.443200	0.051000	0.974100
C561	C56	0.404300	0.083500	0.904310
H781	H78	0.377800	0.024700	0.918700
H791	H79	0.429300	0.010700	0.892700
H801	H80	0.401500	0.241800	0.863100
N171	N17	0.075010	0.828700	0.736710
N181	N18	0.935060	0.060900	0.821070
H811	H81	0.957500	0.016000	0.836100
C571	C57	0.086200	0.885100	0.770360
H821	H82	0.118100	0.851700	0.782000
C581	C58	0.053400	0.989400	0.788870
H831	H83	0.063500	0.025400	0.812200
C591	C59	0.005780	0.039900	0.772630
C601	C60	0.994300	0.984500	0.737730
H841	H84	0.962600	0.017100	0.725600
C611	C61	0.029200	0.881100	0.720680
H851	H85	0.020500	0.846300	0.697000
C621	C62	0.967700	0.148500	0.793270
H861	H86	0.989000	0.228300	0.805600
H871	H87	0.943200	0.199000	0.775900
C631	C63	0.904300	0.166500	0.845690
H881	H88	0.877800	0.225300	0.831300
H891	H89	0.929300	0.239300	0.857300
H901	H90	0.901500	0.008200	0.886900
N191	N19	0.075010	0.328700	0.236710
N201	N20	0.935060	0.560900	0.321070
H911	H91	0.957500	0.516000	0.336100
C641	C64	0.086200	0.385100	0.270360
H921	H92	0.118100	0.351700	0.282000
C651	C65	0.053400	0.489400	0.288870
H931	H93	0.063500	0.525400	0.312200
C661	C66	0.005780	0.539900	0.272630
C671	C67	0.994300	0.484500	0.237730
H941	H94	0.962600	0.517100	0.225600
C681	C68	0.029200	0.381100	0.220680
H951	H95	0.020500	0.346300	0.197000
C691	C69	0.967700	0.648500	0.293270
H961	H96	0.989000	0.728300	0.305600
H971	H97	0.943200	0.699000	0.275900
C701	C70	0.904300	0.666500	0.345690
H981	H98	0.877800	0.725300	0.331300
H991	H99	0.929300	0.739300	0.357300
H1001	H100	0.901500	0.508200	0.386900
N211	N21	0.575010	0.828700	0.236710
N221	N22	0.435060	0.060900	0.321070
H1011	H101	0.457500	0.016000	0.336100
C711	C71	0.586200	0.885100	0.270360
H1021	H102	0.618100	0.851700	0.282000
C721	C72	0.553400	0.989400	0.288870
H1031	H103	0.563500	0.025400	0.312200
C731	C73	0.505780	0.039900	0.272630
C741	C74	0.494300	0.984500	0.237730
H1041	H104	0.462600	0.017100	0.225600
C751	C75	0.529200	0.881100	0.220680
H1051	H105	0.520500	0.846300	0.197000
C761	C76	0.467700	0.148500	0.293270
H1061	H106	0.489000	0.228300	0.305600
H1071	H107	0.443200	0.199000	0.275900
C771	C77	0.404300	0.166500	0.345690
H1081	H108	0.377800	0.225300	0.331300
H1091	H109	0.429300	0.239300	0.357300
H1101	H110	0.401500	0.008200	0.386900
N231	N23	0.575010	0.328700	0.736710
N241	N24	0.435060	0.560900	0.821070
H1111	H111	0.457500	0.516000	0.836100
C781	C78	0.586200	0.385100	0.770360
H1121	H112	0.618100	0.351700	0.782000
C791	C79	0.553400	0.489400	0.788870
H1131	H113	0.563500	0.525400	0.812200
C801	C80	0.505780	0.539900	0.772630
C811	C81	0.494300	0.484500	0.737730
H1141	H114	0.462600	0.517100	0.725600
C821	C82	0.529200	0.381100	0.720680
H1151	H115	0.520500	0.346300	0.697000
C831	C83	0.467700	0.648500	0.793270
H1161	H116	0.489000	0.728300	0.805600
H1171	H117	0.443200	0.699000	0.775900
C841	C84	0.404300	0.666500	0.845690
H1181	H118	0.377800	0.725300	0.831300
H1191	H119	0.429300	0.739300	0.857300
H1201	H120	0.401500	0.508200	0.886900
N251	N25	0.674990	0.921300	0.736710
N261	N26	0.814940	0.689100	0.821070
H1211	H121	0.792500	0.734000	0.836100
C851	C85	0.663800	0.864900	0.770360
H1221	H122	0.631900	0.898300	0.782000
C861	C86	0.696600	0.760600	0.788870
H1231	H123	0.686500	0.724600	0.812200
C871	C87	0.744220	0.710100	0.772630
C881	C88	0.755700	0.765500	0.737730
H1241	H124	0.787400	0.732900	0.725600
C891	C89	0.720800	0.868900	0.720680
H1251	H125	0.729500	0.903700	0.697000
C901	C90	0.782300	0.601500	0.793270
H1261	H126	0.761000	0.521700	0.805600
H1271	H127	0.806800	0.551000	0.775900
C911	C91	0.845700	0.583500	0.845690
H1281	H128	0.872200	0.524700	0.831300
H1291	H129	0.820700	0.510700	0.857300
H1301	H130	0.848500	0.741800	0.886900
N271	N27	0.674990	0.421300	0.236710
N281	N28	0.814940	0.189100	0.321070
H1311	H131	0.792500	0.234000	0.336100
C921	C92	0.663800	0.364900	0.270360
H1321	H132	0.631900	0.398300	0.282000
C931	C93	0.696600	0.260600	0.288870
H1331	H133	0.686500	0.224600	0.312200
C941	C94	0.744220	0.210100	0.272630
C951	C95	0.755700	0.265500	0.237730
H1341	H134	0.787400	0.232900	0.225600
C961	C96	0.720800	0.368900	0.220680
H1351	H135	0.729500	0.403700	0.197000
C971	C97	0.782300	0.101500	0.293270
H1361	H136	0.761000	0.021700	0.305600
H1371	H137	0.806800	0.051000	0.275900
C981	C98	0.845700	0.083500	0.345690
H1381	H138	0.872200	0.024700	0.331300
H1391	H139	0.820700	0.010700	0.357300
H1401	H140	0.848500	0.241800	0.386900
N291	N29	0.174990	0.921300	0.236710
N301	N30	0.314940	0.689100	0.321070
H1411	H141	0.292500	0.734000	0.336100
C991	C99	0.163800	0.864900	0.270360
H1421	H142	0.131900	0.898300	0.282000
C1001	C100	0.196600	0.760600	0.288870
H1431	H143	0.186500	0.724600	0.312200
C1011	C101	0.244220	0.710100	0.272630
C1021	C102	0.255700	0.765500	0.237730
H1441	H144	0.287400	0.732900	0.225600
C1031	C103	0.220800	0.868900	0.220680
H1451	H145	0.229500	0.903700	0.197000
C1041	C104	0.282300	0.601500	0.293270
H1461	H146	0.261000	0.521700	0.305600
H1471	H147	0.306800	0.551000	0.275900
C1051	C105	0.345700	0.583500	0.345690
H1481	H148	0.372200	0.524700	0.331300
H1491	H149	0.320700	0.510700	0.357300
H1501	H150	0.348500	0.741800	0.386900
N311	N31	0.174990	0.421300	0.736710
N321	N32	0.314940	0.189100	0.821070
H1511	H151	0.292500	0.234000	0.836100
C1061	C106	0.163800	0.364900	0.770360
H1521	H152	0.131900	0.398300	0.782000
C1071	C107	0.196600	0.260600	0.788870
H1531	H153	0.186500	0.224600	0.812200
C1081	C108	0.244220	0.210100	0.772630
C1091	C109	0.255700	0.265500	0.737730
H1541	H154	0.287400	0.232900	0.725600
C1101	C110	0.220800	0.368900	0.720680
H1551	H155	0.229500	0.403700	0.697000
C1111	C111	0.282300	0.101500	0.793270
H1561	H156	0.261000	0.021700	0.805600
H1571	H157	0.306800	0.051000	0.775900
C1121	C112	0.345700	0.083500	0.845690
H1581	H158	0.372200	0.024700	0.831300
H1591	H159	0.320700	0.010700	0.857300
H1601	H160	0.348500	0.241800	0.886900
N331	N33	0.325010	0.171300	0.986710
N341	N34	0.185060	0.939100	0.071070
H1611	H161	0.207500	0.984000	0.086100
C1131	C113	0.336200	0.114900	0.020360
H1621	H162	0.368100	0.148300	0.032000
C1141	C114	0.303400	0.010600	0.038870
H1631	H163	0.313500	0.974600	0.062200
C1151	C115	0.255780	0.960100	0.022630
C1161	C116	0.244300	0.015500	0.987730
H1641	H164	0.212600	0.982900	0.975600
C1171	C117	0.279200	0.118900	0.970680
H1651	H165	0.270500	0.153700	0.947000
C1181	C118	0.217700	0.851500	0.043270
H1661	H166	0.239000	0.771700	0.055600
H1671	H167	0.193200	0.801000	0.025900
C1191	C119	0.154300	0.833500	0.095690
H1681	H168	0.127800	0.774700	0.081300
H1691	H169	0.179300	0.760700	0.107300
H1701	H170	0.151500	0.991800	0.136900
N351	N35	0.325010	0.671300	0.486710
N361	N36	0.185060	0.439100	0.571070
H1711	H171	0.207500	0.484000	0.586100
C1201	C120	0.336200	0.614900	0.520360
H1721	H172	0.368100	0.648300	0.532000
C1211	C121	0.303400	0.510600	0.538870
H1731	H173	0.313500	0.474600	0.562200
C1221	C122	0.255780	0.460100	0.522630
C1231	C123	0.244300	0.515500	0.487730
H1741	H174	0.212600	0.482900	0.475600
C1241	C124	0.279200	0.618900	0.470680
H1751	H175	0.270500	0.653700	0.447000
C1251	C125	0.217700	0.351500	0.543270
H1761	H176	0.239000	0.271700	0.555600
H1771	H177	0.193200	0.301000	0.525900
C1261	C126	0.154300	0.333500	0.595690
H1781	H178	0.127800	0.274700	0.581300
H1791	H179	0.179300	0.260700	0.607300
H1801	H180	0.151500	0.491800	0.636900
N371	N37	0.825010	0.171300	0.486710
N381	N38	0.685060	0.939100	0.571070
H1811	H181	0.707500	0.984000	0.586100
C1271	C127	0.836200	0.114900	0.520360
H1821	H182	0.868100	0.148300	0.532000
C1281	C128	0.803400	0.010600	0.538870
H1831	H183	0.813500	0.974600	0.562200
C1291	C129	0.755780	0.960100	0.522630
C1301	C130	0.744300	0.015500	0.487730
H1841	H184	0.712600	0.982900	0.475600
C1311	C131	0.779200	0.118900	0.470680
H1851	H185	0.770500	0.153700	0.447000
C1321	C132	0.717700	0.851500	0.543270
H1861	H186	0.739000	0.771700	0.555600
H1871	H187	0.693200	0.801000	0.525900
C1331	C133	0.654300	0.833500	0.595690
H1881	H188	0.627800	0.774700	0.581300
H1891	H189	0.679300	0.760700	0.607300
H1901	H190	0.651500	0.991800	0.636900
N391	N39	0.825010	0.671300	0.986710
N401	N40	0.685060	0.439100	0.071070
H1911	H191	0.707500	0.484000	0.086100
C1341	C134	0.836200	0.614900	0.020360
H1921	H192	0.868100	0.648300	0.032000
C1351	C135	0.803400	0.510600	0.038870
H1931	H193	0.813500	0.474600	0.062200
C1361	C136	0.755780	0.460100	0.022630
C1371	C137	0.744300	0.515500	0.987730
H1941	H194	0.712600	0.482900	0.975600
C1381	C138	0.779200	0.618900	0.970680
H1951	H195	0.770500	0.653700	0.947000
C1391	C139	0.717700	0.351500	0.043270
H1961	H196	0.739000	0.271700	0.055600
H1971	H197	0.693200	0.301000	0.025900
C1401	C140	0.654300	0.333500	0.095690
H1981	H198	0.627800	0.274700	0.081300
H1991	H199	0.679300	0.260700	0.107300
H2001	H200	0.651500	0.491800	0.136900
N411	N41	0.924990	0.078700	0.986710
N421	N42	0.064940	0.310900	0.071070
H2011	H201	0.042500	0.266000	0.086100
C1411	C141	0.913800	0.135100	0.020360
H2021	H202	0.881900	0.101700	0.032000
C1421	C142	0.946600	0.239400	0.038870
H2031	H203	0.936500	0.275400	0.062200
C1431	C143	0.994220	0.289900	0.022630
C1441	C144	0.005700	0.234500	0.987730
H2041	H204	0.037400	0.267100	0.975600
C1451	C145	0.970800	0.131100	0.970680
H2051	H205	0.979500	0.096300	0.947000
C1461	C146	0.032300	0.398500	0.043270
H2061	H206	0.011000	0.478300	0.055600
H2071	H207	0.056800	0.449000	0.025900
C1471	C147	0.095700	0.416500	0.095690
H2081	H208	0.122200	0.475300	0.081300
H2091	H209	0.070700	0.489300	0.107300
H2101	H210	0.098500	0.258200	0.136900
N431	N43	0.924990	0.578700	0.486710
N441	N44	0.064940	0.810900	0.571070
H2111	H211	0.042500	0.766000	0.586100
C1481	C148	0.913800	0.635100	0.520360
H2121	H212	0.881900	0.601700	0.532000
C1491	C149	0.946600	0.739400	0.538870
H2131	H213	0.936500	0.775400	0.562200
C1501	C150	0.994220	0.789900	0.522630
C1511	C151	0.005700	0.734500	0.487730
H2141	H214	0.037400	0.767100	0.475600
C1521	C152	0.970800	0.631100	0.470680
H2151	H215	0.979500	0.596300	0.447000
C1531	C153	0.032300	0.898500	0.543270
H2161	H216	0.011000	0.978300	0.555600
H2171	H217	0.056800	0.949000	0.525900
C1541	C154	0.095700	0.916500	0.595690
H2181	H218	0.122200	0.975300	0.581300
H2191	H219	0.070700	0.989300	0.607300
H2201	H220	0.098500	0.758200	0.636900
N451	N45	0.424990	0.078700	0.486710
N461	N46	0.564940	0.310900	0.571070
H2211	H221	0.542500	0.266000	0.586100
C1551	C155	0.413800	0.135100	0.520360
H2221	H222	0.381900	0.101700	0.532000
C1561	C156	0.446600	0.239400	0.538870
H2231	H223	0.436500	0.275400	0.562200
C1571	C157	0.494220	0.289900	0.522630
C1581	C158	0.505700	0.234500	0.487730
H2241	H224	0.537400	0.267100	0.475600
C1591	C159	0.470800	0.131100	0.470680
H2251	H225	0.479500	0.096300	0.447000
C1601	C160	0.532300	0.398500	0.543270
H2261	H226	0.511000	0.478300	0.555600
H2271	H227	0.556800	0.449000	0.525900
C1611	C161	0.595700	0.416500	0.595690
H2281	H228	0.622200	0.475300	0.581300
H2291	H229	0.570700	0.489300	0.607300
H2301	H230	0.598500	0.258200	0.636900
N471	N47	0.424990	0.578700	0.986710
N481	N48	0.564940	0.810900	0.071070
H2311	H231	0.542500	0.766000	0.086100
C1621	C162	0.413800	0.635100	0.020360
H2321	H232	0.381900	0.601700	0.032000
C1631	C163	0.446600	0.739400	0.038870
H2331	H233	0.436500	0.775400	0.062200
C1641	C164	0.494220	0.789900	0.022630
C1651	C165	0.505700	0.734500	0.987730
H2341	H234	0.537400	0.767100	0.975600
C1661	C166	0.470800	0.631100	0.970680
H2351	H235	0.479500	0.596300	0.947000
C1671	C167	0.532300	0.898500	0.043270
H2361	H236	0.511000	0.978300	0.055600
H2371	H237	0.556800	0.949000	0.025900
C1681	C168	0.595700	0.916500	0.095690
H2381	H238	0.622200	0.975300	0.081300
H2391	H239	0.570700	0.989300	0.107300
H2401	H240	0.598500	0.758200	0.136900
N491	N49	0.924990	0.171300	0.263290
N501	N50	0.064940	0.939100	0.178930
H2411	H241	0.042500	0.984000	0.163900
C1691	C169	0.913800	0.114900	0.229640
H2421	H242	0.881900	0.148300	0.218000
C1701	C170	0.946600	0.010600	0.211130
H2431	H243	0.936500	0.974600	0.187800
C1711	C171	0.994220	0.960100	0.227370
C1721	C172	0.005700	0.015500	0.262270
H2441	H244	0.037400	0.982900	0.274400
C1731	C173	0.970800	0.118900	0.279320
H2451	H245	0.979500	0.153700	0.303000
C1741	C174	0.032300	0.851500	0.206730
H2461	H246	0.011000	0.771700	0.194400
H2471	H247	0.056800	0.801000	0.224100
C1751	C175	0.095700	0.833500	0.154310
H2481	H248	0.122200	0.774700	0.168700
H2491	H249	0.070700	0.760700	0.142700
H2501	H250	0.098500	0.991800	0.113100
N511	N51	0.924990	0.671300	0.763290
N521	N52	0.064940	0.439100	0.678930
H2511	H251	0.042500	0.484000	0.663900
C1761	C176	0.913800	0.614900	0.729640
H2521	H252	0.881900	0.648300	0.718000
C1771	C177	0.946600	0.510600	0.711130
H2531	H253	0.936500	0.474600	0.687800
C1781	C178	0.994220	0.460100	0.727370
C1791	C179	0.005700	0.515500	0.762270
H2541	H254	0.037400	0.482900	0.774400
C1801	C180	0.970800	0.618900	0.779320
H2551	H255	0.979500	0.653700	0.803000
C1811	C181	0.032300	0.351500	0.706730
H2561	H256	0.011000	0.271700	0.694400
H2571	H257	0.056800	0.301000	0.724100
C1821	C182	0.095700	0.333500	0.654310
H2581	H258	0.122200	0.274700	0.668700
H2591	H259	0.070700	0.260700	0.642700
H2601	H260	0.098500	0.491800	0.613100
N531	N53	0.424990	0.171300	0.763290
N541	N54	0.564940	0.939100	0.678930
H2611	H261	0.542500	0.984000	0.663900
C1831	C183	0.413800	0.114900	0.729640
H2621	H262	0.381900	0.148300	0.718000
C1841	C184	0.446600	0.010600	0.711130
H2631	H263	0.436500	0.974600	0.687800
C1851	C185	0.494220	0.960100	0.727370
C1861	C186	0.505700	0.015500	0.762270
H2641	H264	0.537400	0.982900	0.774400
C1871	C187	0.470800	0.118900	0.779320
H2651	H265	0.479500	0.153700	0.803000
C1881	C188	0.532300	0.851500	0.706730
H2661	H266	0.511000	0.771700	0.694400
H2671	H267	0.556800	0.801000	0.724100
C1891	C189	0.595700	0.833500	0.654310
H2681	H268	0.622200	0.774700	0.668700
H2691	H269	0.570700	0.760700	0.642700
H2701	H270	0.598500	0.991800	0.613100
N551	N55	0.424990	0.671300	0.263290
N561	N56	0.564940	0.439100	0.178930
H2711	H271	0.542500	0.484000	0.163900
C1901	C190	0.413800	0.614900	0.229640
H2721	H272	0.381900	0.648300	0.218000
C1911	C191	0.446600	0.510600	0.211130
H2731	H273	0.436500	0.474600	0.187800
C1921	C192	0.494220	0.460100	0.227370
C1931	C193	0.505700	0.515500	0.262270
H2741	H274	0.537400	0.482900	0.274400
C1941	C194	0.470800	0.618900	0.279320
H2751	H275	0.479500	0.653700	0.303000
C1951	C195	0.532300	0.351500	0.206730
H2761	H276	0.511000	0.271700	0.194400
H2771	H277	0.556800	0.301000	0.224100
C1961	C196	0.595700	0.333500	0.154310
H2781	H278	0.622200	0.274700	0.168700
H2791	H279	0.570700	0.260700	0.142700
H2801	H280	0.598500	0.491800	0.113100
N571	N57	0.325010	0.078700	0.263290
N581	N58	0.185060	0.310900	0.178930
H2811	H281	0.207500	0.266000	0.163900
C1971	C197	0.336200	0.135100	0.229640
H2821	H282	0.368100	0.101700	0.218000
C1981	C198	0.303400	0.239400	0.211130
H2831	H283	0.313500	0.275400	0.187800
C1991	C199	0.255780	0.289900	0.227370
C2001	C200	0.244300	0.234500	0.262270
H2841	H284	0.212600	0.267100	0.274400
C2011	C201	0.279200	0.131100	0.279320
H2851	H285	0.270500	0.096300	0.303000
C2021	C202	0.217700	0.398500	0.206730
H2861	H286	0.239000	0.478300	0.194400
H2871	H287	0.193200	0.449000	0.224100
C2031	C203	0.154300	0.416500	0.154310
H2881	H288	0.127800	0.475300	0.168700
H2891	H289	0.179300	0.489300	0.142700
H2901	H290	0.151500	0.258200	0.113100
N591	N59	0.325010	0.578700	0.763290
N601	N60	0.185060	0.810900	0.678930
H2911	H291	0.207500	0.766000	0.663900
C2041	C204	0.336200	0.635100	0.729640
H2921	H292	0.368100	0.601700	0.718000
C2051	C205	0.303400	0.739400	0.711130
H2931	H293	0.313500	0.775400	0.687800
C2061	C206	0.255780	0.789900	0.727370
C2071	C207	0.244300	0.734500	0.762270
H2941	H294	0.212600	0.767100	0.774400
C2081	C208	0.279200	0.631100	0.779320
H2951	H295	0.270500	0.596300	0.803000
C2091	C209	0.217700	0.898500	0.706730
H2961	H296	0.239000	0.978300	0.694400
H2971	H297	0.193200	0.949000	0.724100
C2101	C210	0.154300	0.916500	0.654310
H2981	H298	0.127800	0.975300	0.668700
H2991	H299	0.179300	0.989300	0.642700
H3001	H300	0.151500	0.758200	0.613100
N611	N61	0.825010	0.078700	0.763290
N621	N62	0.685060	0.310900	0.678930
H3011	H301	0.707500	0.266000	0.663900
C2111	C211	0.836200	0.135100	0.729640
H3021	H302	0.868100	0.101700	0.718000
C2121	C212	0.803400	0.239400	0.711130
H3031	H303	0.813500	0.275400	0.687800
C2131	C213	0.755780	0.289900	0.727370
C2141	C214	0.744300	0.234500	0.762270
H3041	H304	0.712600	0.267100	0.774400
C2151	C215	0.779200	0.131100	0.779320
H3051	H305	0.770500	0.096300	0.803000
C2161	C216	0.717700	0.398500	0.706730
H3061	H306	0.739000	0.478300	0.694400
H3071	H307	0.693200	0.449000	0.724100
C2171	C217	0.654300	0.416500	0.654310
H3081	H308	0.627800	0.475300	0.668700
H3091	H309	0.679300	0.489300	0.642700
H3101	H310	0.651500	0.258200	0.613100
N631	N63	0.825010	0.578700	0.263290
N641	N64	0.685060	0.810900	0.178930
H3111	H311	0.707500	0.766000	0.163900
C2181	C218	0.836200	0.635100	0.229640
H3121	H312	0.868100	0.601700	0.218000
C2191	C219	0.803400	0.739400	0.211130
H3131	H313	0.813500	0.775400	0.187800
C2201	C220	0.755780	0.789900	0.227370
C2211	C221	0.744300	0.734500	0.262270
H3141	H314	0.712600	0.767100	0.274400
C2221	C222	0.779200	0.631100	0.279320
H3151	H315	0.770500	0.596300	0.303000
C2231	C223	0.717700	0.898500	0.206730
H3161	H316	0.739000	0.978300	0.194400
H3171	H317	0.693200	0.949000	0.224100
C2241	C224	0.654300	0.916500	0.154310
H3181	H318	0.627800	0.975300	0.168700
H3191	H319	0.679300	0.989300	0.142700
H3201	H320	0.651500	0.758200	0.113100
Ag11	Ag1	0.625000	0.625000	0.042630
Ag21	Ag2	0.625000	0.125000	0.542630
Ag31	Ag3	0.125000	0.125000	0.042630
Ag41	Ag4	0.125000	0.625000	0.542630
Ag51	Ag5	0.125000	0.625000	0.707370
Ag61	Ag6	0.125000	0.125000	0.207370
Ag71	Ag7	0.625000	0.125000	0.707370
Ag81	Ag8	0.625000	0.625000	0.207370
Ag91	Ag9	0.375000	0.375000	0.957370
Ag101	Ag10	0.375000	0.875000	0.457370
Ag111	Ag11	0.875000	0.875000	0.957370
Ag121	Ag12	0.875000	0.375000	0.457370
Ag131	Ag13	0.875000	0.375000	0.292630
Ag141	Ag14	0.875000	0.875000	0.792630
Ag151	Ag15	0.375000	0.375000	0.792630
Ag161	Ag16	0.375000	0.875000	0.292630
C2251	C225	0.875000	0.074100	0.875000
C2261	C226	0.875000	0.574100	0.375000
C2271	C227	0.375000	0.074100	0.375000
C2281	C228	0.375000	0.574100	0.875000
C2291	C229	0.875000	0.675900	0.875000
C2301	C230	0.875000	0.175900	0.375000
C2311	C231	0.375000	0.675900	0.375000
C2321	C232	0.375000	0.175900	0.875000
C2331	C233	0.125000	0.925900	0.125000
C2341	C234	0.125000	0.425900	0.625000
C2351	C235	0.625000	0.925900	0.625000
C2361	C236	0.625000	0.425900	0.125000
C2371	C237	0.125000	0.324100	0.125000
C2381	C238	0.125000	0.824100	0.625000
C2391	C239	0.625000	0.324100	0.625000
C2401	C240	0.625000	0.824100	0.125000
