data_NUNTOH_freeONLY_PM
_symmetry_space_group_name_H-M	'P1'
_cell_length_a	12.914500
_cell_length_b	12.914500
_cell_length_c	9.848200
_cell_angle_alpha	90.000000
_cell_angle_beta	90.000000
_cell_angle_gamma	90.000000
_symmetry_Int_Tables_number 1

loop_
_symmetry_equiv_pos_as_xyz
'x,y,z'

loop_
_atom_site_label
_atom_site_type_symbol
_atom_site_fract_x
_atom_site_fract_y
_atom_site_fract_z
O11	O1	0.254900	0.109500	0.250500
O21	O2	0.388300	0.111100	0.069900
F11	F1	0.104600	0.736300	0.280200
P11	P1	0.072350	0.824140	0.183700
O31	O3	0.138100	0.918300	0.214100
O41	O4	0.085700	0.789400	0.036900
O51	O5	0.957200	0.845700	0.214600
Co11	Co1	0.136190	0.054800	0.131180
O61	O6	0.745100	0.890500	0.250500
O71	O7	0.611700	0.888900	0.069900
F21	F2	0.895400	0.263700	0.280200
P21	P2	0.927650	0.175860	0.183700
O81	O8	0.861900	0.081700	0.214100
O91	O9	0.914300	0.210600	0.036900
O101	O10	0.042800	0.154300	0.214600
Co21	Co2	0.863810	0.945200	0.131180
O111	O11	0.109500	0.745100	0.749500
O121	O12	0.111100	0.611700	0.930100
F31	F3	0.736300	0.895400	0.719800
P31	P3	0.824140	0.927650	0.816300
O131	O13	0.918300	0.861900	0.785900
O141	O14	0.789400	0.914300	0.963100
O151	O15	0.845700	0.042800	0.785400
Co31	Co3	0.054800	0.863810	0.868820
O161	O16	0.890500	0.254900	0.749500
O171	O17	0.888900	0.388300	0.930100
F41	F4	0.263700	0.104600	0.719800
P41	P4	0.175860	0.072350	0.816300
O181	O18	0.081700	0.138100	0.785900
O191	O19	0.210600	0.085700	0.963100
O201	O20	0.154300	0.957200	0.785400
Co41	Co4	0.945200	0.136190	0.868820
O211	O21	0.754900	0.390500	0.750500
O221	O22	0.888300	0.388900	0.569900
F51	F5	0.604600	0.763700	0.780200
P51	P5	0.572350	0.675860	0.683700
O231	O23	0.638100	0.581700	0.714100
O241	O24	0.585700	0.710600	0.536900
O251	O25	0.457200	0.654300	0.714600
Co51	Co5	0.636190	0.445200	0.631180
O261	O26	0.245100	0.609500	0.750500
O271	O27	0.111700	0.611100	0.569900
F61	F6	0.395400	0.236300	0.780200
P61	P6	0.427650	0.324140	0.683700
O281	O28	0.361900	0.418300	0.714100
O291	O29	0.414300	0.289400	0.536900
O301	O30	0.542800	0.345700	0.714600
Co61	Co6	0.363810	0.554800	0.631180
O311	O31	0.609500	0.754900	0.249500
O321	O32	0.611100	0.888300	0.430100
F71	F7	0.236300	0.604600	0.219800
P71	P7	0.324140	0.572350	0.316300
O331	O33	0.418300	0.638100	0.285900
O341	O34	0.289400	0.585700	0.463100
O351	O35	0.345700	0.457200	0.285400
Co71	Co7	0.554800	0.636190	0.368820
O361	O36	0.390500	0.245100	0.249500
O371	O37	0.388900	0.111700	0.430100
F81	F8	0.763700	0.395400	0.219800
P81	P8	0.675860	0.427650	0.316300
O381	O38	0.581700	0.361900	0.285900
O391	O39	0.710600	0.414300	0.463100
O401	O40	0.654300	0.542800	0.285400
Co81	Co8	0.445200	0.363810	0.368820
P91	P9	0.365200	0.134800	0.250000
P101	P10	0.634800	0.865200	0.250000
P111	P11	0.134800	0.634800	0.750000
P121	P12	0.865200	0.365200	0.750000
