data_NUXMAU_freeONLY_PM
_symmetry_space_group_name_H-M	'P1'
_cell_length_a	4.327600
_cell_length_b	17.318100
_cell_length_c	6.762400
_cell_angle_alpha	90.000000
_cell_angle_beta	90.000000
_cell_angle_gamma	90.000000
_symmetry_Int_Tables_number 1

loop_
_symmetry_equiv_pos_as_xyz
'x,y,z'

loop_
_atom_site_label
_atom_site_type_symbol
_atom_site_fract_x
_atom_site_fract_y
_atom_site_fract_z
P11	P1	0.474000	0.160300	0.991000
O11	O1	0.327000	0.186400	0.186000
O21	O2	0.774000	0.214700	0.962000
O31	O3	0.286000	0.162700	0.807000
Cu11	Cu1	0.007000	0.256700	0.225300
C11	C1	0.636000	0.062900	0.041000
P21	P2	0.526000	0.839700	0.991000
O41	O4	0.673000	0.813600	0.186000
O51	O5	0.226000	0.785300	0.962000
O61	O6	0.714000	0.837300	0.807000
Cu21	Cu2	0.993000	0.743300	0.225300
C21	C2	0.364000	0.937100	0.041000
P31	P3	0.474000	0.339700	0.491000
O71	O7	0.327000	0.313600	0.686000
O81	O8	0.774000	0.285300	0.462000
O91	O9	0.286000	0.337300	0.307000
Cu31	Cu3	0.007000	0.243300	0.725300
C31	C3	0.636000	0.437100	0.541000
P41	P4	0.526000	0.660300	0.491000
O101	O10	0.673000	0.686400	0.686000
O111	O11	0.226000	0.714700	0.462000
O121	O12	0.714000	0.662700	0.307000
Cu41	Cu4	0.993000	0.756700	0.725300
C41	C4	0.364000	0.562900	0.541000
C51	C5	0.500000	0.000000	0.923000
C61	C6	0.500000	0.500000	0.423000
