data_NUYQUU_freeONLY_PM
_symmetry_space_group_name_H-M	'P1'
_cell_length_a	10.488000
_cell_length_b	10.212000
_cell_length_c	11.273000
_cell_angle_alpha	90.000000
_cell_angle_beta	92.890000
_cell_angle_gamma	90.000000
_symmetry_Int_Tables_number 1

loop_
_symmetry_equiv_pos_as_xyz
'x,y,z'

loop_
_atom_site_label
_atom_site_type_symbol
_atom_site_fract_x
_atom_site_fract_y
_atom_site_fract_z
Cd11	Cd1	0.634100	0.136210	0.606600
S11	S1	0.398390	0.147010	0.564160
N11	N1	0.290900	0.906600	0.571200
N21	N2	0.236600	0.824100	0.651900
N31	N3	0.310700	0.999500	0.749300
C11	C1	0.333800	0.011300	0.632400
C21	C2	0.250900	0.883300	0.755600
H11	H1	0.222600	0.848400	0.825800
Cd21	Cd2	0.134100	0.636210	0.606600
S21	S2	0.898390	0.647010	0.564160
N41	N4	0.790900	0.406600	0.571200
N51	N5	0.736600	0.324100	0.651900
N61	N6	0.810700	0.499500	0.749300
C31	C3	0.833800	0.511300	0.632400
C41	C4	0.750900	0.383300	0.755600
H21	H2	0.722600	0.348400	0.825800
Cd31	Cd3	0.365900	0.136210	0.893400
S31	S3	0.601610	0.147010	0.935840
N71	N7	0.709100	0.906600	0.928800
N81	N8	0.763400	0.824100	0.848100
N91	N9	0.689300	0.999500	0.750700
C51	C5	0.666200	0.011300	0.867600
C61	C6	0.749100	0.883300	0.744400
H31	H3	0.777400	0.848400	0.674200
Cd41	Cd4	0.865900	0.636210	0.893400
S41	S4	0.101610	0.647010	0.935840
N101	N10	0.209100	0.406600	0.928800
N111	N11	0.263400	0.324100	0.848100
N121	N12	0.189300	0.499500	0.750700
C71	C7	0.166200	0.511300	0.867600
C81	C8	0.249100	0.383300	0.744400
H41	H4	0.277400	0.348400	0.674200
Cd51	Cd5	0.365900	0.863790	0.393400
S51	S5	0.601610	0.852990	0.435840
N131	N13	0.709100	0.093400	0.428800
N141	N14	0.763400	0.175900	0.348100
N151	N15	0.689300	0.000500	0.250700
C91	C9	0.666200	0.988700	0.367600
C101	C10	0.749100	0.116700	0.244400
H51	H5	0.777400	0.151600	0.174200
Cd61	Cd6	0.865900	0.363790	0.393400
S61	S6	0.101610	0.352990	0.435840
N161	N16	0.209100	0.593400	0.428800
N171	N17	0.263400	0.675900	0.348100
N181	N18	0.189300	0.500500	0.250700
C111	C11	0.166200	0.488700	0.367600
C121	C12	0.249100	0.616700	0.244400
H61	H6	0.277400	0.651600	0.174200
Cd71	Cd7	0.634100	0.863790	0.106600
S71	S7	0.398390	0.852990	0.064160
N191	N19	0.290900	0.093400	0.071200
N201	N20	0.236600	0.175900	0.151900
N211	N21	0.310700	0.000500	0.249300
C131	C13	0.333800	0.988700	0.132400
C141	C14	0.250900	0.116700	0.255600
H71	H7	0.222600	0.151600	0.325800
Cd81	Cd8	0.134100	0.363790	0.106600
S81	S8	0.898390	0.352990	0.064160
N221	N22	0.790900	0.593400	0.071200
N231	N23	0.736600	0.675900	0.151900
N241	N24	0.810700	0.500500	0.249300
C151	C15	0.833800	0.488700	0.132400
C161	C16	0.750900	0.616700	0.255600
H81	H8	0.722600	0.651600	0.325800
