data_OBEDAA_charged_PM
_symmetry_space_group_name_H-M	'P1'
_cell_length_a	11.713500
_cell_length_b	11.713500
_cell_length_c	23.546900
_cell_angle_alpha	78.090100
_cell_angle_beta	78.090100
_cell_angle_gamma	79.446200
_symmetry_Int_Tables_number 1

loop_
_symmetry_equiv_pos_as_xyz
'x,y,z'

loop_
_atom_site_label
_atom_site_type_symbol
_atom_site_fract_x
_atom_site_fract_y
_atom_site_fract_z
Ag11	Ag1	0.112470	0.089750	0.273920
Ag21	Ag2	0.089750	0.112470	0.773920
H11	H1	0.458300	0.208500	0.283700
H21	H2	0.660400	0.142800	0.264900
H31	H3	0.689000	0.212600	0.421600
H41	H4	0.486800	0.269600	0.440900
H51	H5	0.459500	0.463300	0.346200
H61	H6	0.408800	0.666600	0.324500
H71	H7	0.072500	0.630500	0.327900
H81	H8	0.123200	0.427200	0.350000
H91	H9	0.225800	0.429800	0.458600
H101	H10	0.160600	0.381800	0.559700
H111	H11	0.235000	0.037400	0.547400
H121	H12	0.296000	0.086800	0.447100
H131	H13	0.208500	0.458300	0.783700
H141	H14	0.142800	0.660400	0.764900
H151	H15	0.212600	0.689000	0.921600
H161	H16	0.269600	0.486800	0.940900
H171	H17	0.463300	0.459500	0.846200
H181	H18	0.666600	0.408800	0.824500
H191	H19	0.630500	0.072500	0.827900
H201	H20	0.427200	0.123200	0.850000
H211	H21	0.429800	0.225800	0.958600
H221	H22	0.381800	0.160600	0.059700
H231	H23	0.037400	0.235000	0.047400
H241	H24	0.086800	0.296000	0.947100
C11	C1	0.319600	0.292400	0.376400
C21	C2	0.452900	0.245100	0.364400
C31	C3	0.504500	0.207900	0.311500
C41	C4	0.625600	0.169800	0.299900
C51	C5	0.694200	0.172800	0.341400
C61	C6	0.642900	0.210700	0.394100
C71	C7	0.521900	0.245500	0.405300
C81	C8	0.819400	0.140000	0.327300
C91	C9	0.258100	0.230500	0.345000
C101	C10	0.293400	0.425400	0.352700
C111	C11	0.381900	0.496700	0.343500
C121	C12	0.351200	0.618200	0.330400
C131	C13	0.236200	0.668200	0.325900
C141	C14	0.149200	0.597200	0.332400
C151	C15	0.180100	0.475700	0.345700
C161	C16	0.206300	0.795500	0.315200
C171	C17	0.269300	0.263900	0.442800
C181	C18	0.227500	0.351100	0.476500
C191	C19	0.187900	0.322900	0.537100
C201	C20	0.190100	0.204700	0.562900
C211	C21	0.232300	0.116300	0.529500
C221	C22	0.269900	0.145900	0.469800
C231	C23	0.152500	0.176500	0.625800
C241	C24	0.292400	0.319600	0.876400
C251	C25	0.245100	0.452900	0.864400
C261	C26	0.207900	0.504500	0.811500
C271	C27	0.169800	0.625600	0.799900
C281	C28	0.172800	0.694200	0.841400
C291	C29	0.210700	0.642900	0.894100
C301	C30	0.245500	0.521900	0.905300
C311	C31	0.140000	0.819400	0.827300
C321	C32	0.230500	0.258100	0.845000
C331	C33	0.425400	0.293400	0.852700
C341	C34	0.496700	0.381900	0.843500
C351	C35	0.618200	0.351200	0.830400
C361	C36	0.668200	0.236200	0.825900
C371	C37	0.597200	0.149200	0.832400
C381	C38	0.475700	0.180100	0.845700
C391	C39	0.795500	0.206300	0.815200
C401	C40	0.263900	0.269300	0.942800
C411	C41	0.351100	0.227500	0.976500
C421	C42	0.322900	0.187900	0.037100
C431	C43	0.204700	0.190100	0.062900
C441	C44	0.116300	0.232300	0.029500
C451	C45	0.145900	0.269900	0.969800
C461	C46	0.176500	0.152500	0.125800
N11	N1	0.919800	0.115800	0.314400
N21	N2	0.183100	0.894900	0.306400
N31	N3	0.124100	0.153500	0.675600
N41	N4	0.212200	0.184800	0.320100
N51	N5	0.115800	0.919800	0.814400
N61	N6	0.894900	0.183100	0.806400
N71	N7	0.153500	0.124100	0.175600
N81	N8	0.184800	0.212200	0.820100
Ag31	Ag3	0.910250	0.887530	0.226080
Ag41	Ag4	0.887530	0.910250	0.726080
H251	H25	0.791500	0.541700	0.216300
H261	H26	0.857200	0.339600	0.235100
H271	H27	0.787400	0.311000	0.078400
H281	H28	0.730400	0.513200	0.059100
H291	H29	0.536700	0.540500	0.153800
H301	H30	0.333400	0.591200	0.175500
H311	H31	0.369500	0.927500	0.172100
H321	H32	0.572800	0.876800	0.150000
H331	H33	0.570200	0.774200	0.041400
H341	H34	0.618200	0.839400	0.940300
H351	H35	0.962600	0.765000	0.952600
H361	H36	0.913200	0.704000	0.052900
H371	H37	0.541700	0.791500	0.716300
H381	H38	0.339600	0.857200	0.735100
H391	H39	0.311000	0.787400	0.578400
H401	H40	0.513200	0.730400	0.559100
H411	H41	0.540500	0.536700	0.653800
H421	H42	0.591200	0.333400	0.675500
H431	H43	0.927500	0.369500	0.672100
H441	H44	0.876800	0.572800	0.650000
H451	H45	0.774200	0.570200	0.541400
H461	H46	0.839400	0.618200	0.440300
H471	H47	0.765000	0.962600	0.452600
H481	H48	0.704000	0.913200	0.552900
C471	C47	0.707600	0.680400	0.123600
C481	C48	0.754900	0.547100	0.135600
C491	C49	0.792100	0.495500	0.188500
C501	C50	0.830200	0.374400	0.200100
C511	C51	0.827200	0.305800	0.158600
C521	C52	0.789300	0.357100	0.105900
C531	C53	0.754500	0.478100	0.094700
C541	C54	0.860000	0.180600	0.172700
C551	C55	0.769500	0.741900	0.155000
C561	C56	0.574600	0.706600	0.147300
C571	C57	0.503300	0.618100	0.156500
C581	C58	0.381800	0.648800	0.169600
C591	C59	0.331800	0.763800	0.174100
C601	C60	0.402800	0.850800	0.167600
C611	C61	0.524300	0.819900	0.154300
C621	C62	0.204500	0.793700	0.184800
C631	C63	0.736100	0.730700	0.057200
C641	C64	0.648900	0.772500	0.023500
C651	C65	0.677100	0.812100	0.962900
C661	C66	0.795300	0.809900	0.937100
C671	C67	0.883700	0.767700	0.970500
C681	C68	0.854100	0.730100	0.030200
C691	C69	0.823500	0.847500	0.874200
C701	C70	0.680400	0.707600	0.623600
C711	C71	0.547100	0.754900	0.635600
C721	C72	0.495500	0.792100	0.688500
C731	C73	0.374400	0.830200	0.700100
C741	C74	0.305800	0.827200	0.658600
C751	C75	0.357100	0.789300	0.605900
C761	C76	0.478100	0.754500	0.594700
C771	C77	0.180600	0.860000	0.672700
C781	C78	0.741900	0.769500	0.655000
C791	C79	0.706600	0.574600	0.647300
C801	C80	0.618100	0.503300	0.656500
C811	C81	0.648800	0.381800	0.669600
C821	C82	0.763800	0.331800	0.674100
C831	C83	0.850800	0.402800	0.667600
C841	C84	0.819900	0.524300	0.654300
C851	C85	0.793700	0.204500	0.684800
C861	C86	0.730700	0.736100	0.557200
C871	C87	0.772500	0.648900	0.523500
C881	C88	0.812100	0.677100	0.462900
C891	C89	0.809900	0.795300	0.437100
C901	C90	0.767700	0.883700	0.470500
C911	C91	0.730100	0.854100	0.530200
C921	C92	0.847500	0.823500	0.374200
N91	N9	0.884200	0.080200	0.185600
N101	N10	0.105100	0.816900	0.193600
N111	N11	0.846500	0.875900	0.824400
N121	N12	0.815200	0.787800	0.179900
N131	N13	0.080200	0.884200	0.685600
N141	N14	0.816900	0.105100	0.693600
N151	N15	0.875900	0.846500	0.324400
N161	N16	0.787800	0.815200	0.679900
B11	B1	0.853300	0.441500	0.354700
F11	F1	0.757700	0.440900	0.331700
F21	F2	0.882300	0.551700	0.346300
F31	F3	0.819400	0.410000	0.415900
F41	F4	0.943800	0.364000	0.332100
B21	B2	0.558500	0.146700	0.145300
F51	F5	0.559100	0.242300	0.168300
F61	F6	0.448300	0.117700	0.153700
F71	F7	0.590000	0.180600	0.084100
F81	F8	0.636000	0.056200	0.167900
B31	B3	0.146700	0.558500	0.645300
F91	F9	0.242300	0.559100	0.668300
F101	F10	0.117700	0.448300	0.653700
F111	F11	0.180600	0.590000	0.584100
F121	F12	0.056200	0.636000	0.667900
B41	B4	0.441500	0.853300	0.854700
F131	F13	0.440900	0.757700	0.831700
F141	F14	0.551700	0.882300	0.846300
F151	F15	0.410000	0.819400	0.915900
F161	F16	0.364000	0.943800	0.832100
