data_OBUFIB_SL_PM
_symmetry_space_group_name_H-M	'P1'
_cell_length_a	13.668800
_cell_length_b	13.668800
_cell_length_c	19.365700
_cell_angle_alpha	96.280900
_cell_angle_beta	96.280900
_cell_angle_gamma	143.586300
_symmetry_Int_Tables_number 1

loop_
_symmetry_equiv_pos_as_xyz
'x,y,z'

loop_
_atom_site_label
_atom_site_type_symbol
_atom_site_fract_x
_atom_site_fract_y
_atom_site_fract_z
Zn11	Zn1	0.705160	0.651800	0.028870
Zn21	Zn2	0.626130	0.801730	0.991640
H31	H3	0.708100	0.591900	0.259300
H41	H4	0.707200	0.857600	0.336600
H51	H5	0.824600	0.937800	0.286300
H61	H6	0.132600	0.620400	0.893200
H71	H7	0.327700	0.662100	0.887300
H81	H8	0.581200	0.924400	0.095100
H91	H9	0.394600	0.894000	0.105800
H101	H10	0.930700	0.547700	0.908100
H111	H11	0.736400	0.504200	0.923500
H121	H12	0.057700	0.866500	0.112700
H131	H13	0.255000	0.909000	0.105100
C141	C14	0.692970	0.679330	0.181150
C151	C15	0.723160	0.671100	0.257630
C161	C16	0.765730	0.759050	0.318090
C171	C17	0.751100	0.705660	0.386180
C181	C18	0.805910	0.902330	0.329620
C191	C19	0.969690	0.060250	0.397370
C201	C20	0.225110	0.685510	0.935510
C211	C21	0.341180	0.709280	0.932430
C221	C22	0.489490	0.862690	0.053290
C231	C23	0.377840	0.844980	0.060010
C241	C24	0.242230	0.756450	0.000340
C251	C25	0.116500	0.730220	0.006060
C261	C26	0.959510	0.612830	0.951870
C271	C27	0.843890	0.589090	0.960690
C281	C28	0.029510	0.797930	0.070920
C291	C29	0.149980	0.825100	0.066440
N301	N30	0.473530	0.796810	0.990900
N311	N31	0.879900	0.682380	0.020050
O321	O32	0.631540	0.720220	0.171780
O331	O33	0.721200	0.632380	0.134110
O341	O34	0.788770	0.646810	0.394630
O351	O35	0.701020	0.722040	0.426840
O361	O36	0.074990	0.082790	0.419290
O371	O37	0.984640	0.161080	0.426700
O381	O38	0.521270	0.614610	0.025650
H391	H39	0.385390	0.478730	0.422710
Zn401	Zn40	0.348200	0.294840	0.471130
Zn411	Zn41	0.198270	0.373870	0.508360
H421	H42	0.408100	0.291900	0.240700
H431	H43	0.142400	0.292800	0.163400
H441	H44	0.062200	0.175400	0.213700
H451	H45	0.379600	0.867400	0.606800
H461	H46	0.337900	0.672300	0.612700
H471	H47	0.075600	0.418800	0.404900
H481	H48	0.106000	0.605400	0.394200
H491	H49	0.452300	0.069300	0.591900
H501	H50	0.495800	0.263600	0.576500
H511	H51	0.133500	0.942300	0.387300
H521	H52	0.091000	0.745000	0.394900
C531	C53	0.320670	0.307030	0.318850
C541	C54	0.328900	0.276840	0.242370
C551	C55	0.240950	0.234270	0.181910
C561	C56	0.294340	0.248900	0.113820
C571	C57	0.097670	0.194090	0.170380
C581	C58	0.939750	0.030310	0.102630
C591	C59	0.314490	0.774890	0.564490
C601	C60	0.290720	0.658820	0.567570
C611	C61	0.137310	0.510510	0.446710
C621	C62	0.155020	0.622160	0.439990
C631	C63	0.243550	0.757770	0.499660
C641	C64	0.269780	0.883500	0.493940
C651	C65	0.387170	0.040490	0.548130
C661	C66	0.410910	0.156110	0.539310
C671	C67	0.202070	0.970490	0.429080
C681	C68	0.174900	0.850020	0.433560
N691	N69	0.203190	0.526470	0.509100
N701	N70	0.317620	0.120100	0.479950
O711	O71	0.279780	0.368460	0.328220
O721	O72	0.367620	0.278800	0.365890
O731	O73	0.353190	0.211230	0.105370
O741	O74	0.277960	0.298980	0.073160
O751	O75	0.917210	0.925010	0.080710
O761	O76	0.838920	0.015360	0.073300
O771	O77	0.385390	0.478730	0.474350
H781	H78	0.521270	0.614610	0.077290
Zn791	Zn79	0.294840	0.348200	0.971130
Zn801	Zn80	0.373870	0.198270	0.008360
H811	H81	0.291900	0.408100	0.740700
H821	H82	0.292800	0.142400	0.663400
H831	H83	0.175400	0.062200	0.713700
H841	H84	0.867400	0.379600	0.106800
H851	H85	0.672300	0.337900	0.112700
H861	H86	0.418800	0.075600	0.904900
H871	H87	0.605400	0.106000	0.894200
H881	H88	0.069300	0.452300	0.091900
H891	H89	0.263600	0.495800	0.076500
H901	H90	0.942300	0.133500	0.887300
H911	H91	0.745000	0.091000	0.894900
C921	C92	0.307030	0.320670	0.818850
C931	C93	0.276840	0.328900	0.742370
C941	C94	0.234270	0.240950	0.681910
C951	C95	0.248900	0.294340	0.613820
C961	C96	0.194090	0.097670	0.670380
C971	C97	0.030310	0.939750	0.602630
C981	C98	0.774890	0.314490	0.064490
C991	C99	0.658820	0.290720	0.067570
C1001	C100	0.510510	0.137310	0.946710
C1011	C101	0.622160	0.155020	0.939990
C1021	C102	0.757770	0.243550	0.999660
C1031	C103	0.883500	0.269780	0.993940
C1041	C104	0.040490	0.387170	0.048130
C1051	C105	0.156110	0.410910	0.039310
C1061	C106	0.970490	0.202070	0.929080
C1071	C107	0.850020	0.174900	0.933560
N1081	N108	0.526470	0.203190	0.009100
N1091	N109	0.120100	0.317620	0.979950
O1101	O110	0.368460	0.279780	0.828220
O1111	O111	0.278800	0.367620	0.865890
O1121	O112	0.211230	0.353190	0.605370
O1131	O113	0.298980	0.277960	0.573160
O1141	O114	0.925010	0.917210	0.580710
O1151	O115	0.015360	0.838920	0.573300
O1161	O116	0.478730	0.385390	0.974350
H1171	H117	0.614610	0.521270	0.577290
Zn1181	Zn118	0.651800	0.705160	0.528870
Zn1191	Zn119	0.801730	0.626130	0.491640
H1201	H120	0.591900	0.708100	0.759300
H1211	H121	0.857600	0.707200	0.836600
H1221	H122	0.937800	0.824600	0.786300
H1231	H123	0.620400	0.132600	0.393200
H1241	H124	0.662100	0.327700	0.387300
H1251	H125	0.924400	0.581200	0.595100
H1261	H126	0.894000	0.394600	0.605800
H1271	H127	0.547700	0.930700	0.408100
H1281	H128	0.504200	0.736400	0.423500
H1291	H129	0.866500	0.057700	0.612700
H1301	H130	0.909000	0.255000	0.605100
C1311	C131	0.679330	0.692970	0.681150
C1321	C132	0.671100	0.723160	0.757630
C1331	C133	0.759050	0.765730	0.818090
C1341	C134	0.705660	0.751100	0.886180
C1351	C135	0.902330	0.805910	0.829620
C1361	C136	0.060250	0.969690	0.897370
C1371	C137	0.685510	0.225110	0.435510
C1381	C138	0.709280	0.341180	0.432430
C1391	C139	0.862690	0.489490	0.553290
C1401	C140	0.844980	0.377840	0.560010
C1411	C141	0.756450	0.242230	0.500340
C1421	C142	0.730220	0.116500	0.506060
C1431	C143	0.612830	0.959510	0.451870
C1441	C144	0.589090	0.843890	0.460690
C1451	C145	0.797930	0.029510	0.570920
C1461	C146	0.825100	0.149980	0.566440
N1471	N147	0.796810	0.473530	0.490900
N1481	N148	0.682380	0.879900	0.520050
O1491	O149	0.720220	0.631540	0.671780
O1501	O150	0.632380	0.721200	0.634110
O1511	O151	0.646810	0.788770	0.894630
O1521	O152	0.722040	0.701020	0.926840
O1531	O153	0.082790	0.074990	0.919290
O1541	O154	0.161080	0.984640	0.926700
O1551	O155	0.614610	0.521270	0.525650
H1561	H156	0.478730	0.385390	0.922710
