data_OCAWAT_freeONLY_PM
_symmetry_space_group_name_H-M	'P1'
_cell_length_a	10.406000
_cell_length_b	27.244200
_cell_length_c	13.172200
_cell_angle_alpha	90.000000
_cell_angle_beta	102.395000
_cell_angle_gamma	90.000000
_symmetry_Int_Tables_number 1

loop_
_symmetry_equiv_pos_as_xyz
'x,y,z'

loop_
_atom_site_label
_atom_site_type_symbol
_atom_site_fract_x
_atom_site_fract_y
_atom_site_fract_z
Cd11	Cd1	0.026640	0.070050	0.380250
Cd21	Cd2	0.269890	0.882710	0.802400
Cd31	Cd3	0.228850	0.188320	0.159200
Si11	Si1	0.650680	0.048530	0.814340
O11	O1	0.673100	0.232020	0.682700
O21	O2	0.623500	0.283860	0.792900
O31	O3	0.390300	0.204500	0.074600
O41	O4	0.523700	0.144370	0.148800
O51	O5	0.049900	0.157100	0.045000
O61	O6	0.224900	0.110330	0.076900
O71	O7	0.239000	0.954320	0.888200
O81	O8	0.058700	0.924460	0.788700
O91	O9	0.873400	0.071130	0.477600
O101	O10	0.712100	0.071200	0.336300
O111	O11	0.249900	0.075450	0.371900
O121	O12	0.202200	0.049670	0.516700
O131	O13	0.374100	0.153430	0.295000
O141	O14	0.024000	0.152470	0.408300
O151	O15	0.975600	0.986350	0.369800
O161	O16	0.238800	0.821060	0.673800
H11	H1	0.227900	0.792400	0.700600
H21	H2	0.307300	0.819300	0.645500
O171	O17	0.180800	0.827930	0.894100
H31	H3	0.179200	0.798500	0.866500
H41	H4	0.099700	0.836100	0.895600
C11	C1	0.567100	0.997080	0.866500
H51	H5	0.582600	0.999600	0.940900
H61	H6	0.601400	0.966400	0.847900
H71	H7	0.474300	0.998600	0.837800
C21	C2	0.600700	0.110040	0.855300
C31	C3	0.622900	0.151270	0.797600
H81	H8	0.655600	0.146600	0.737900
C41	C4	0.597700	0.198760	0.826400
C51	C5	0.545700	0.205950	0.914400
H91	H9	0.525200	0.237400	0.933100
C61	C6	0.524500	0.165830	0.974100
C71	C7	0.553100	0.118710	0.944500
H101	H10	0.539900	0.092200	0.985700
C81	C8	0.476900	0.172310	0.073100
C91	C9	0.631700	0.240540	0.763300
C101	C10	0.834700	0.045120	0.858300
C111	C11	0.904600	0.082720	0.919000
H111	H11	0.859700	0.110500	0.933200
C121	C12	0.039000	0.079360	0.958300
C131	C13	0.108300	0.039020	0.934600
H121	H12	0.198700	0.037000	0.960100
C141	C14	0.042600	0.001610	0.873000
C151	C15	0.906600	0.004450	0.836200
H131	H13	0.862800	0.978900	0.796400
C161	C16	0.109500	0.117800	0.030500
C171	C17	0.118700	0.958230	0.848500
C181	C18	0.603200	0.050790	0.669000
C191	C19	0.694400	0.057410	0.606200
H141	H14	0.783700	0.057900	0.636700
C201	C20	0.655100	0.063240	0.499600
C211	C21	0.521800	0.063460	0.453200
H151	H15	0.494900	0.067000	0.381500
C221	C22	0.429300	0.058460	0.513900
C231	C23	0.469500	0.051170	0.620400
H161	H16	0.406700	0.046500	0.660100
C241	C24	0.753100	0.069090	0.431800
C251	C25	0.285400	0.061060	0.464700
Cd41	Cd4	0.473360	0.570050	0.119750
Cd51	Cd5	0.230110	0.382710	0.697600
Cd61	Cd6	0.271150	0.688320	0.340800
Si21	Si2	0.849320	0.548530	0.685660
O181	O18	0.826900	0.732020	0.817300
O191	O19	0.876500	0.783860	0.707100
O201	O20	0.109700	0.704500	0.425400
O211	O21	0.976300	0.644370	0.351200
O221	O22	0.450100	0.657100	0.455000
O231	O23	0.275100	0.610330	0.423100
O241	O24	0.261000	0.454320	0.611800
O251	O25	0.441300	0.424460	0.711300
O261	O26	0.626600	0.571130	0.022400
O271	O27	0.787900	0.571200	0.163700
O281	O28	0.250100	0.575450	0.128100
O291	O29	0.297800	0.549670	0.983300
O301	O30	0.125900	0.653430	0.205000
O311	O31	0.476000	0.652470	0.091700
O321	O32	0.524400	0.486350	0.130200
O331	O33	0.261200	0.321060	0.826200
H171	H17	0.272100	0.292400	0.799400
H181	H18	0.192700	0.319300	0.854500
O341	O34	0.319200	0.327930	0.605900
H191	H19	0.320800	0.298500	0.633500
H201	H20	0.400300	0.336100	0.604400
C261	C26	0.932900	0.497080	0.633500
H211	H21	0.917400	0.499600	0.559100
H221	H22	0.898600	0.466400	0.652100
H231	H23	0.025700	0.498600	0.662200
C271	C27	0.899300	0.610040	0.644700
C281	C28	0.877100	0.651270	0.702400
H241	H24	0.844400	0.646600	0.762100
C291	C29	0.902300	0.698760	0.673600
C301	C30	0.954300	0.705950	0.585600
H251	H25	0.974800	0.737400	0.566900
C311	C31	0.975500	0.665830	0.525900
C321	C32	0.946900	0.618710	0.555500
H261	H26	0.960100	0.592200	0.514300
C331	C33	0.023100	0.672310	0.426900
C341	C34	0.868300	0.740540	0.736700
C351	C35	0.665300	0.545120	0.641700
C361	C36	0.595400	0.582720	0.581000
H271	H27	0.640300	0.610500	0.566800
C371	C37	0.461000	0.579360	0.541700
C381	C38	0.391700	0.539020	0.565400
H281	H28	0.301300	0.537000	0.539900
C391	C39	0.457400	0.501610	0.627000
C401	C40	0.593400	0.504450	0.663800
H291	H29	0.637200	0.478900	0.703600
C411	C41	0.390500	0.617800	0.469500
C421	C42	0.381300	0.458230	0.651500
C431	C43	0.896800	0.550790	0.831000
C441	C44	0.805600	0.557410	0.893800
H301	H30	0.716300	0.557900	0.863300
C451	C45	0.844900	0.563240	0.000400
C461	C46	0.978200	0.563460	0.046800
H311	H31	0.005100	0.567000	0.118500
C471	C47	0.070700	0.558460	0.986100
C481	C48	0.030500	0.551170	0.879600
H321	H32	0.093300	0.546500	0.839900
C491	C49	0.746900	0.569090	0.068200
C501	C50	0.214600	0.561060	0.035300
Cd71	Cd7	0.973360	0.929950	0.619750
Cd81	Cd8	0.730110	0.117290	0.197600
Cd91	Cd9	0.771150	0.811680	0.840800
Si31	Si3	0.349320	0.951470	0.185660
O351	O35	0.326900	0.767980	0.317300
O361	O36	0.376500	0.716140	0.207100
O371	O37	0.609700	0.795500	0.925400
O381	O38	0.476300	0.855630	0.851200
O391	O39	0.950100	0.842900	0.955000
O401	O40	0.775100	0.889670	0.923100
O411	O41	0.761000	0.045680	0.111800
O421	O42	0.941300	0.075540	0.211300
O431	O43	0.126600	0.928870	0.522400
O441	O44	0.287900	0.928800	0.663700
O451	O45	0.750100	0.924550	0.628100
O461	O46	0.797800	0.950330	0.483300
O471	O47	0.625900	0.846570	0.705000
O481	O48	0.976000	0.847530	0.591700
O491	O49	0.024400	0.013650	0.630200
O501	O50	0.761200	0.178940	0.326200
H331	H33	0.772100	0.207600	0.299400
H341	H34	0.692700	0.180700	0.354500
O511	O51	0.819200	0.172070	0.105900
H351	H35	0.820800	0.201500	0.133500
H361	H36	0.900300	0.163900	0.104400
C511	C51	0.432900	0.002920	0.133500
H371	H37	0.417400	0.000400	0.059100
H381	H38	0.398600	0.033600	0.152100
H391	H39	0.525700	0.001400	0.162200
C521	C52	0.399300	0.889960	0.144700
C531	C53	0.377100	0.848730	0.202400
H401	H40	0.344400	0.853400	0.262100
C541	C54	0.402300	0.801240	0.173600
C551	C55	0.454300	0.794050	0.085600
H411	H41	0.474800	0.762600	0.066900
C561	C56	0.475500	0.834170	0.025900
C571	C57	0.446900	0.881290	0.055500
H421	H42	0.460100	0.907800	0.014300
C581	C58	0.523100	0.827690	0.926900
C591	C59	0.368300	0.759460	0.236700
C601	C60	0.165300	0.954880	0.141700
C611	C61	0.095400	0.917280	0.081000
H431	H43	0.140300	0.889500	0.066800
C621	C62	0.961000	0.920640	0.041700
C631	C63	0.891700	0.960980	0.065400
H441	H44	0.801300	0.963000	0.039900
C641	C64	0.957400	0.998390	0.127000
C651	C65	0.093400	0.995550	0.163800
H451	H45	0.137200	0.021100	0.203600
C661	C66	0.890500	0.882200	0.969500
C671	C67	0.881300	0.041770	0.151500
C681	C68	0.396800	0.949210	0.331000
C691	C69	0.305600	0.942590	0.393800
H461	H46	0.216300	0.942100	0.363300
C701	C70	0.344900	0.936760	0.500400
C711	C71	0.478200	0.936540	0.546800
H471	H47	0.505100	0.933000	0.618500
C721	C72	0.570700	0.941540	0.486100
C731	C73	0.530500	0.948830	0.379600
H481	H48	0.593300	0.953500	0.339900
C741	C74	0.246900	0.930910	0.568200
C751	C75	0.714600	0.938940	0.535300
Cd101	Cd10	0.526640	0.429950	0.880250
Cd111	Cd11	0.769890	0.617290	0.302400
Cd121	Cd12	0.728850	0.311680	0.659200
Si41	Si4	0.150680	0.451470	0.314340
O521	O52	0.173100	0.267980	0.182700
O531	O53	0.123500	0.216140	0.292900
O541	O54	0.890300	0.295500	0.574600
O551	O55	0.023700	0.355630	0.648800
O561	O56	0.549900	0.342900	0.545000
O571	O57	0.724900	0.389670	0.576900
O581	O58	0.739000	0.545680	0.388200
O591	O59	0.558700	0.575540	0.288700
O601	O60	0.373400	0.428870	0.977600
O611	O61	0.212100	0.428800	0.836300
O621	O62	0.749900	0.424550	0.871900
O631	O63	0.702200	0.450330	0.016700
O641	O64	0.874100	0.346570	0.795000
O651	O65	0.524000	0.347530	0.908300
O661	O66	0.475600	0.513650	0.869800
O671	O67	0.738800	0.678940	0.173800
H491	H49	0.727900	0.707600	0.200600
H501	H50	0.807300	0.680700	0.145500
O681	O68	0.680800	0.672070	0.394100
H511	H51	0.679200	0.701500	0.366500
H521	H52	0.599700	0.663900	0.395600
C761	C76	0.067100	0.502920	0.366500
H531	H53	0.082600	0.500400	0.440900
H541	H54	0.101400	0.533600	0.347900
H551	H55	0.974300	0.501400	0.337800
C771	C77	0.100700	0.389960	0.355300
C781	C78	0.122900	0.348730	0.297600
H561	H56	0.155600	0.353400	0.237900
C791	C79	0.097700	0.301240	0.326400
C801	C80	0.045700	0.294050	0.414400
H571	H57	0.025200	0.262600	0.433100
C811	C81	0.024500	0.334170	0.474100
C821	C82	0.053100	0.381290	0.444500
H581	H58	0.039900	0.407800	0.485700
C831	C83	0.976900	0.327690	0.573100
C841	C84	0.131700	0.259460	0.263300
C851	C85	0.334700	0.454880	0.358300
C861	C86	0.404600	0.417280	0.419000
H591	H59	0.359700	0.389500	0.433200
C871	C87	0.539000	0.420640	0.458300
C881	C88	0.608300	0.460980	0.434600
H601	H60	0.698700	0.463000	0.460100
C891	C89	0.542600	0.498390	0.373000
C901	C90	0.406600	0.495550	0.336200
H611	H61	0.362800	0.521100	0.296400
C911	C91	0.609500	0.382200	0.530500
C921	C92	0.618700	0.541770	0.348500
C931	C93	0.103200	0.449210	0.169000
C941	C94	0.194400	0.442590	0.106200
H621	H62	0.283700	0.442100	0.136700
C951	C95	0.155100	0.436760	0.999600
C961	C96	0.021800	0.436540	0.953200
H631	H63	0.994900	0.433000	0.881500
C971	C97	0.929300	0.441540	0.013900
C981	C98	0.969500	0.448830	0.120400
H641	H64	0.906700	0.453500	0.160100
C991	C99	0.253100	0.430910	0.931800
C1001	C100	0.785400	0.438940	0.964700
