data_OCUGEZ01_freeONLY_PM
_symmetry_space_group_name_H-M	'P1'
_cell_length_a	8.674200
_cell_length_b	9.968600
_cell_length_c	11.756000
_cell_angle_alpha	74.810000
_cell_angle_beta	69.699000
_cell_angle_gamma	85.930000
_symmetry_Int_Tables_number 1

loop_
_symmetry_equiv_pos_as_xyz
'x,y,z'

loop_
_atom_site_label
_atom_site_type_symbol
_atom_site_fract_x
_atom_site_fract_y
_atom_site_fract_z
Nd11	Nd1	0.254450	0.522420	0.488090
Nd21	Nd2	0.745550	0.477580	0.511910
H11	H1	0.767300	0.700200	0.137500
H21	H2	0.795400	0.539700	0.162700
H31	H3	0.624500	0.528000	0.043100
H41	H4	0.623100	0.690800	0.007500
H51	H5	0.914900	0.539200	0.939300
H61	H6	0.905400	0.701600	0.897200
H71	H7	0.734500	0.525300	0.828700
H81	H8	0.754400	0.686500	0.775600
H91	H9	0.278400	0.030400	0.400900
H101	H10	0.244800	0.015800	0.282100
H111	H11	0.024000	0.122000	0.400500
H121	H12	0.965200	0.978800	0.396600
H131	H13	0.190000	0.233000	0.648000
H141	H14	0.357000	0.229000	0.465000
H151	H15	0.461000	0.307000	0.354000
H161	H16	0.041000	0.283000	0.647000
H171	H17	0.232700	0.299800	0.862500
H181	H18	0.204600	0.460300	0.837300
H191	H19	0.375500	0.472000	0.956900
H201	H20	0.376900	0.309200	0.992500
H211	H21	0.085100	0.460800	0.060700
H221	H22	0.094600	0.298400	0.102800
H231	H23	0.265500	0.474700	0.171300
H241	H24	0.245600	0.313500	0.224400
H251	H25	0.721600	0.969600	0.599100
H261	H26	0.755200	0.984200	0.717900
H271	H27	0.976000	0.878000	0.599500
H281	H28	0.034800	0.021200	0.603400
H291	H29	0.810000	0.767000	0.352000
H301	H30	0.643000	0.771000	0.535000
H311	H31	0.539000	0.693000	0.646000
H321	H32	0.959000	0.717000	0.353000
C11	C1	0.564900	0.587400	0.263200
C21	C2	0.717500	0.611400	0.148600
C31	C3	0.688000	0.611000	0.028400
C41	C4	0.845800	0.615100	0.917000
C51	C5	0.810300	0.603300	0.803300
C61	C6	0.955700	0.584300	0.692500
C71	C7	0.238700	0.829200	0.407100
C81	C8	0.210200	0.983100	0.372700
C91	C9	0.033000	0.022100	0.428100
C101	C10	0.435100	0.412600	0.736800
C111	C11	0.282500	0.388600	0.851400
C121	C12	0.312000	0.389000	0.971600
C131	C13	0.154200	0.384900	0.083000
C141	C14	0.189700	0.396700	0.196700
C151	C15	0.044300	0.415700	0.307500
C161	C16	0.761300	0.170800	0.592900
C171	C17	0.789800	0.016900	0.627300
C181	C18	0.967000	0.977900	0.571900
O11	O1	0.424600	0.607300	0.253600
O21	O2	0.577200	0.544300	0.372000
O31	O3	0.099000	0.616400	0.681200
O41	O4	0.932100	0.535200	0.610500
O51	O5	0.137300	0.747100	0.401600
O61	O6	0.357600	0.781600	0.441000
O71	O7	0.128200	0.297900	0.653000
O81	O8	0.374700	0.303000	0.411800
O91	O9	0.575400	0.392700	0.746400
O101	O10	0.422800	0.455700	0.628000
O111	O11	0.901000	0.383600	0.318800
O121	O12	0.067900	0.464800	0.389500
O131	O13	0.862700	0.252900	0.598400
O141	O14	0.642400	0.218400	0.559000
O151	O15	0.871800	0.702100	0.347000
O161	O16	0.625300	0.697000	0.588200
