data_OCUSUB_freeONLY_PM
_symmetry_space_group_name_H-M	'P1'
_cell_length_a	15.087700
_cell_length_b	10.202700
_cell_length_c	18.637600
_cell_angle_alpha	90.000000
_cell_angle_beta	102.521000
_cell_angle_gamma	90.000000
_symmetry_Int_Tables_number 1

loop_
_symmetry_equiv_pos_as_xyz
'x,y,z'

loop_
_atom_site_label
_atom_site_type_symbol
_atom_site_fract_x
_atom_site_fract_y
_atom_site_fract_z
V11	V1	0.160600	0.615380	0.084850
V21	V2	0.248290	0.546200	0.283190
P11	P1	0.286320	0.878480	0.077210
P21	P2	0.664110	0.830980	0.165620
O11	O1	0.201490	0.797800	0.076850
O21	O2	0.290720	0.928200	0.000580
O31	O3	0.053250	0.632700	0.061340
O41	O4	0.675060	0.925700	0.104500
O51	O5	0.202820	0.644200	0.191350
O61	O6	0.734250	0.721800	0.170270
O71	O7	0.348010	0.494100	0.283950
O81	O8	0.288780	0.000600	0.125520
O91	O9	0.671000	0.900100	0.239460
C11	C1	0.384000	0.778300	0.111200
H11	H1	0.376200	0.734400	0.156800
H21	H2	0.387100	0.709200	0.074500
C21	C2	0.553900	0.757200	0.142740
H31	H3	0.550500	0.701600	0.098700
H41	H4	0.547000	0.699000	0.183700
C31	C3	0.473900	0.853300	0.127490
H51	H5	0.476600	0.910700	0.170700
H61	H6	0.477900	0.909400	0.085000
V31	V3	0.660600	0.115380	0.084850
V41	V4	0.748290	0.046200	0.283190
P31	P3	0.786320	0.378480	0.077210
P41	P4	0.164110	0.330980	0.165620
O101	O10	0.701490	0.297800	0.076850
O111	O11	0.790720	0.428200	0.000580
O121	O12	0.553250	0.132700	0.061340
O131	O13	0.175060	0.425700	0.104500
O141	O14	0.702820	0.144200	0.191350
O151	O15	0.234250	0.221800	0.170270
O161	O16	0.848010	0.994100	0.283950
O171	O17	0.788780	0.500600	0.125520
O181	O18	0.171000	0.400100	0.239460
C41	C4	0.884000	0.278300	0.111200
H71	H7	0.876200	0.234400	0.156800
H81	H8	0.887100	0.209200	0.074500
C51	C5	0.053900	0.257200	0.142740
H91	H9	0.050500	0.201600	0.098700
H101	H10	0.047000	0.199000	0.183700
C61	C6	0.973900	0.353300	0.127490
H111	H11	0.976600	0.410700	0.170700
H121	H12	0.977900	0.409400	0.085000
V51	V5	0.839400	0.615380	0.415150
V61	V6	0.751710	0.546200	0.216810
P51	P5	0.713680	0.878480	0.422790
P61	P6	0.335890	0.830980	0.334380
O191	O19	0.798510	0.797800	0.423150
O201	O20	0.709280	0.928200	0.499420
O211	O21	0.946750	0.632700	0.438660
O221	O22	0.324940	0.925700	0.395500
O231	O23	0.797180	0.644200	0.308650
O241	O24	0.265750	0.721800	0.329730
O251	O25	0.651990	0.494100	0.216050
O261	O26	0.711220	0.000600	0.374480
O271	O27	0.329000	0.900100	0.260540
C71	C7	0.616000	0.778300	0.388800
H131	H13	0.623800	0.734400	0.343200
H141	H14	0.612900	0.709200	0.425500
C81	C8	0.446100	0.757200	0.357260
H151	H15	0.449500	0.701600	0.401300
H161	H16	0.453000	0.699000	0.316300
C91	C9	0.526100	0.853300	0.372510
H171	H17	0.523400	0.910700	0.329300
H181	H18	0.522100	0.909400	0.415000
V71	V7	0.339400	0.115380	0.415150
V81	V8	0.251710	0.046200	0.216810
P71	P7	0.213680	0.378480	0.422790
P81	P8	0.835890	0.330980	0.334380
O281	O28	0.298510	0.297800	0.423150
O291	O29	0.209280	0.428200	0.499420
O301	O30	0.446750	0.132700	0.438660
O311	O31	0.824940	0.425700	0.395500
O321	O32	0.297180	0.144200	0.308650
O331	O33	0.765750	0.221800	0.329730
O341	O34	0.151990	0.994100	0.216050
O351	O35	0.211220	0.500600	0.374480
O361	O36	0.829000	0.400100	0.260540
C101	C10	0.116000	0.278300	0.388800
H191	H19	0.123800	0.234400	0.343200
H201	H20	0.112900	0.209200	0.425500
C111	C11	0.946100	0.257200	0.357260
H211	H21	0.949500	0.201600	0.401300
H221	H22	0.953000	0.199000	0.316300
C121	C12	0.026100	0.353300	0.372510
H231	H23	0.023400	0.410700	0.329300
H241	H24	0.022100	0.409400	0.415000
V91	V9	0.839400	0.384620	0.915150
V101	V10	0.751710	0.453800	0.716810
P91	P9	0.713680	0.121520	0.922790
P101	P10	0.335890	0.169020	0.834380
O371	O37	0.798510	0.202200	0.923150
O381	O38	0.709280	0.071800	0.999420
O391	O39	0.946750	0.367300	0.938660
O401	O40	0.324940	0.074300	0.895500
O411	O41	0.797180	0.355800	0.808650
O421	O42	0.265750	0.278200	0.829730
O431	O43	0.651990	0.505900	0.716050
O441	O44	0.711220	0.999400	0.874480
O451	O45	0.329000	0.099900	0.760540
C131	C13	0.616000	0.221700	0.888800
H251	H25	0.623800	0.265600	0.843200
H261	H26	0.612900	0.290800	0.925500
C141	C14	0.446100	0.242800	0.857260
H271	H27	0.449500	0.298400	0.901300
H281	H28	0.453000	0.301000	0.816300
C151	C15	0.526100	0.146700	0.872510
H291	H29	0.523400	0.089300	0.829300
H301	H30	0.522100	0.090600	0.915000
V111	V11	0.339400	0.884620	0.915150
V121	V12	0.251710	0.953800	0.716810
P111	P11	0.213680	0.621520	0.922790
P121	P12	0.835890	0.669020	0.834380
O461	O46	0.298510	0.702200	0.923150
O471	O47	0.209280	0.571800	0.999420
O481	O48	0.446750	0.867300	0.938660
O491	O49	0.824940	0.574300	0.895500
O501	O50	0.297180	0.855800	0.808650
O511	O51	0.765750	0.778200	0.829730
O521	O52	0.151990	0.005900	0.716050
O531	O53	0.211220	0.499400	0.874480
O541	O54	0.829000	0.599900	0.760540
C161	C16	0.116000	0.721700	0.888800
H311	H31	0.123800	0.765600	0.843200
H321	H32	0.112900	0.790800	0.925500
C171	C17	0.946100	0.742800	0.857260
H331	H33	0.949500	0.798400	0.901300
H341	H34	0.953000	0.801000	0.816300
C181	C18	0.026100	0.646700	0.872510
H351	H35	0.023400	0.589300	0.829300
H361	H36	0.022100	0.590600	0.915000
V131	V13	0.160600	0.384620	0.584850
V141	V14	0.248290	0.453800	0.783190
P131	P13	0.286320	0.121520	0.577210
P141	P14	0.664110	0.169020	0.665620
O551	O55	0.201490	0.202200	0.576850
O561	O56	0.290720	0.071800	0.500580
O571	O57	0.053250	0.367300	0.561340
O581	O58	0.675060	0.074300	0.604500
O591	O59	0.202820	0.355800	0.691350
O601	O60	0.734250	0.278200	0.670270
O611	O61	0.348010	0.505900	0.783950
O621	O62	0.288780	0.999400	0.625520
O631	O63	0.671000	0.099900	0.739460
C191	C19	0.384000	0.221700	0.611200
H371	H37	0.376200	0.265600	0.656800
H381	H38	0.387100	0.290800	0.574500
C201	C20	0.553900	0.242800	0.642740
H391	H39	0.550500	0.298400	0.598700
H401	H40	0.547000	0.301000	0.683700
C211	C21	0.473900	0.146700	0.627490
H411	H41	0.476600	0.089300	0.670700
H421	H42	0.477900	0.090600	0.585000
V151	V15	0.660600	0.884620	0.584850
V161	V16	0.748290	0.953800	0.783190
P151	P15	0.786320	0.621520	0.577210
P161	P16	0.164110	0.669020	0.665620
O641	O64	0.701490	0.702200	0.576850
O651	O65	0.790720	0.571800	0.500580
O661	O66	0.553250	0.867300	0.561340
O671	O67	0.175060	0.574300	0.604500
O681	O68	0.702820	0.855800	0.691350
O691	O69	0.234250	0.778200	0.670270
O701	O70	0.848010	0.005900	0.783950
O711	O71	0.788780	0.499400	0.625520
O721	O72	0.171000	0.599900	0.739460
C221	C22	0.884000	0.721700	0.611200
H431	H43	0.876200	0.765600	0.656800
H441	H44	0.887100	0.790800	0.574500
C231	C23	0.053900	0.742800	0.642740
H451	H45	0.050500	0.798400	0.598700
H461	H46	0.047000	0.801000	0.683700
C241	C24	0.973900	0.646700	0.627490
H471	H47	0.976600	0.589300	0.670700
H481	H48	0.977900	0.590600	0.585000
