data_OCUSOV_freeONLY_PM
_symmetry_space_group_name_H-M	'P1'
_cell_length_a	15.003000
_cell_length_b	10.126000
_cell_length_c	18.604000
_cell_angle_alpha	90.000000
_cell_angle_beta	101.000000
_cell_angle_gamma	90.000000
_symmetry_Int_Tables_number 1

loop_
_symmetry_equiv_pos_as_xyz
'x,y,z'

loop_
_atom_site_label
_atom_site_type_symbol
_atom_site_fract_x
_atom_site_fract_y
_atom_site_fract_z
V11	V1	0.158980	0.385930	0.085850
V21	V2	0.246820	0.454130	0.281350
P11	P1	0.785740	0.622540	0.077020
P21	P2	0.162600	0.669870	0.166860
O11	O1	0.176000	0.575900	0.105490
O21	O2	0.792100	0.571800	0.000900
O31	O3	0.051700	0.367500	0.065200
O41	O4	0.199200	0.357700	0.191100
O51	O5	0.700000	0.701800	0.077000
O61	O6	0.787300	0.500500	0.125620
O71	O7	0.166600	0.598800	0.240100
O81	O8	0.346200	0.507200	0.277500
O91	O9	0.234200	0.778200	0.172400
C11	C1	0.882600	0.724300	0.110200
H11	H1	0.886700	0.791800	0.074000
H21	H2	0.873400	0.768500	0.154500
C21	C2	0.972400	0.649500	0.126800
H31	H3	0.978600	0.595700	0.084900
H41	H4	0.972700	0.591200	0.168200
C31	C3	0.052700	0.745000	0.144300
H51	H5	0.044100	0.800400	0.184900
H61	H6	0.051600	0.802100	0.102200
H71	H7	0.208000	0.304000	0.198000
V31	V3	0.658980	0.885930	0.085850
V41	V4	0.746820	0.954130	0.281350
P31	P3	0.285740	0.122540	0.077020
P41	P4	0.662600	0.169870	0.166860
O101	O10	0.676000	0.075900	0.105490
O111	O11	0.292100	0.071800	0.000900
O121	O12	0.551700	0.867500	0.065200
O131	O13	0.699200	0.857700	0.191100
O141	O14	0.200000	0.201800	0.077000
O151	O15	0.287300	0.000500	0.125620
O161	O16	0.666600	0.098800	0.240100
O171	O17	0.846200	0.007200	0.277500
O181	O18	0.734200	0.278200	0.172400
C41	C4	0.382600	0.224300	0.110200
H81	H8	0.386700	0.291800	0.074000
H91	H9	0.373400	0.268500	0.154500
C51	C5	0.472400	0.149500	0.126800
H101	H10	0.478600	0.095700	0.084900
H111	H11	0.472700	0.091200	0.168200
C61	C6	0.552700	0.245000	0.144300
H121	H12	0.544100	0.300400	0.184900
H131	H13	0.551600	0.302100	0.102200
H141	H14	0.708000	0.804000	0.198000
V51	V5	0.841020	0.385930	0.414150
V61	V6	0.753180	0.454130	0.218650
P51	P5	0.214260	0.622540	0.422980
P61	P6	0.837400	0.669870	0.333140
O191	O19	0.824000	0.575900	0.394510
O201	O20	0.207900	0.571800	0.499100
O211	O21	0.948300	0.367500	0.434800
O221	O22	0.800800	0.357700	0.308900
O231	O23	0.300000	0.701800	0.423000
O241	O24	0.212700	0.500500	0.374380
O251	O25	0.833400	0.598800	0.259900
O261	O26	0.653800	0.507200	0.222500
O271	O27	0.765800	0.778200	0.327600
C71	C7	0.117400	0.724300	0.389800
H151	H15	0.113300	0.791800	0.426000
H161	H16	0.126600	0.768500	0.345500
C81	C8	0.027600	0.649500	0.373200
H171	H17	0.021400	0.595700	0.415100
H181	H18	0.027300	0.591200	0.331800
C91	C9	0.947300	0.745000	0.355700
H191	H19	0.955900	0.800400	0.315100
H201	H20	0.948400	0.802100	0.397800
H211	H21	0.792000	0.304000	0.302000
V71	V7	0.341020	0.885930	0.414150
V81	V8	0.253180	0.954130	0.218650
P71	P7	0.714260	0.122540	0.422980
P81	P8	0.337400	0.169870	0.333140
O281	O28	0.324000	0.075900	0.394510
O291	O29	0.707900	0.071800	0.499100
O301	O30	0.448300	0.867500	0.434800
O311	O31	0.300800	0.857700	0.308900
O321	O32	0.800000	0.201800	0.423000
O331	O33	0.712700	0.000500	0.374380
O341	O34	0.333400	0.098800	0.259900
O351	O35	0.153800	0.007200	0.222500
O361	O36	0.265800	0.278200	0.327600
C101	C10	0.617400	0.224300	0.389800
H221	H22	0.613300	0.291800	0.426000
H231	H23	0.626600	0.268500	0.345500
C111	C11	0.527600	0.149500	0.373200
H241	H24	0.521400	0.095700	0.415100
H251	H25	0.527300	0.091200	0.331800
C121	C12	0.447300	0.245000	0.355700
H261	H26	0.455900	0.300400	0.315100
H271	H27	0.448400	0.302100	0.397800
H281	H28	0.292000	0.804000	0.302000
V91	V9	0.841020	0.614070	0.914150
V101	V10	0.753180	0.545870	0.718650
P91	P9	0.214260	0.377460	0.922980
P101	P10	0.837400	0.330130	0.833140
O371	O37	0.824000	0.424100	0.894510
O381	O38	0.207900	0.428200	0.999100
O391	O39	0.948300	0.632500	0.934800
O401	O40	0.800800	0.642300	0.808900
O411	O41	0.300000	0.298200	0.923000
O421	O42	0.212700	0.499500	0.874380
O431	O43	0.833400	0.401200	0.759900
O441	O44	0.653800	0.492800	0.722500
O451	O45	0.765800	0.221800	0.827600
C131	C13	0.117400	0.275700	0.889800
H291	H29	0.113300	0.208200	0.926000
H301	H30	0.126600	0.231500	0.845500
C141	C14	0.027600	0.350500	0.873200
H311	H31	0.021400	0.404300	0.915100
H321	H32	0.027300	0.408800	0.831800
C151	C15	0.947300	0.255000	0.855700
H331	H33	0.955900	0.199600	0.815100
H341	H34	0.948400	0.197900	0.897800
H351	H35	0.792000	0.696000	0.802000
V111	V11	0.341020	0.114070	0.914150
V121	V12	0.253180	0.045870	0.718650
P111	P11	0.714260	0.877460	0.922980
P121	P12	0.337400	0.830130	0.833140
O461	O46	0.324000	0.924100	0.894510
O471	O47	0.707900	0.928200	0.999100
O481	O48	0.448300	0.132500	0.934800
O491	O49	0.300800	0.142300	0.808900
O501	O50	0.800000	0.798200	0.923000
O511	O51	0.712700	0.999500	0.874380
O521	O52	0.333400	0.901200	0.759900
O531	O53	0.153800	0.992800	0.722500
O541	O54	0.265800	0.721800	0.827600
C161	C16	0.617400	0.775700	0.889800
H361	H36	0.613300	0.708200	0.926000
H371	H37	0.626600	0.731500	0.845500
C171	C17	0.527600	0.850500	0.873200
H381	H38	0.521400	0.904300	0.915100
H391	H39	0.527300	0.908800	0.831800
C181	C18	0.447300	0.755000	0.855700
H401	H40	0.455900	0.699600	0.815100
H411	H41	0.448400	0.697900	0.897800
H421	H42	0.292000	0.196000	0.802000
V131	V13	0.158980	0.614070	0.585850
V141	V14	0.246820	0.545870	0.781350
P131	P13	0.785740	0.377460	0.577020
P141	P14	0.162600	0.330130	0.666860
O551	O55	0.176000	0.424100	0.605490
O561	O56	0.792100	0.428200	0.500900
O571	O57	0.051700	0.632500	0.565200
O581	O58	0.199200	0.642300	0.691100
O591	O59	0.700000	0.298200	0.577000
O601	O60	0.787300	0.499500	0.625620
O611	O61	0.166600	0.401200	0.740100
O621	O62	0.346200	0.492800	0.777500
O631	O63	0.234200	0.221800	0.672400
C191	C19	0.882600	0.275700	0.610200
H431	H43	0.886700	0.208200	0.574000
H441	H44	0.873400	0.231500	0.654500
C201	C20	0.972400	0.350500	0.626800
H451	H45	0.978600	0.404300	0.584900
H461	H46	0.972700	0.408800	0.668200
C211	C21	0.052700	0.255000	0.644300
H471	H47	0.044100	0.199600	0.684900
H481	H48	0.051600	0.197900	0.602200
H491	H49	0.208000	0.696000	0.698000
V151	V15	0.658980	0.114070	0.585850
V161	V16	0.746820	0.045870	0.781350
P151	P15	0.285740	0.877460	0.577020
P161	P16	0.662600	0.830130	0.666860
O641	O64	0.676000	0.924100	0.605490
O651	O65	0.292100	0.928200	0.500900
O661	O66	0.551700	0.132500	0.565200
O671	O67	0.699200	0.142300	0.691100
O681	O68	0.200000	0.798200	0.577000
O691	O69	0.287300	0.999500	0.625620
O701	O70	0.666600	0.901200	0.740100
O711	O71	0.846200	0.992800	0.777500
O721	O72	0.734200	0.721800	0.672400
C221	C22	0.382600	0.775700	0.610200
H501	H50	0.386700	0.708200	0.574000
H511	H51	0.373400	0.731500	0.654500
C231	C23	0.472400	0.850500	0.626800
H521	H52	0.478600	0.904300	0.584900
H531	H53	0.472700	0.908800	0.668200
C241	C24	0.552700	0.755000	0.644300
H541	H54	0.544100	0.699600	0.684900
H551	H55	0.551600	0.697900	0.602200
H561	H56	0.708000	0.196000	0.698000
