data_ODAHIK_charged_PM
_symmetry_space_group_name_H-M	'P1'
_cell_length_a	10.439000
_cell_length_b	14.440000
_cell_length_c	28.415000
_cell_angle_alpha	90.000000
_cell_angle_beta	97.670000
_cell_angle_gamma	90.000000
_symmetry_Int_Tables_number 1

loop_
_symmetry_equiv_pos_as_xyz
'x,y,z'

loop_
_atom_site_label
_atom_site_type_symbol
_atom_site_fract_x
_atom_site_fract_y
_atom_site_fract_z
Cu11	Cu1	0.321760	0.706720	0.178430
Cu21	Cu2	0.821760	0.793280	0.678430
H11	H1	0.573100	0.794500	0.173300
H21	H2	0.692600	0.926200	0.195100
H31	H3	0.374500	0.028200	0.247000
H41	H4	0.268900	0.895400	0.222300
H51	H5	0.694000	0.057000	0.269000
H61	H6	0.582000	0.134000	0.255000
H71	H7	0.603400	0.142700	0.174600
H81	H8	0.731500	0.081000	0.182600
H91	H9	0.705000	0.257800	0.225100
H101	H10	0.833100	0.195500	0.234500
H111	H11	0.728200	0.268900	0.143500
H121	H12	0.851800	0.202800	0.151200
H131	H13	0.970400	0.319000	0.196600
H141	H14	0.846300	0.385200	0.190000
H151	H15	0.973600	0.322800	0.112500
H161	H16	0.854400	0.393600	0.107600
H171	H17	0.894300	0.557100	0.135100
H181	H18	0.042200	0.675700	0.152500
H191	H19	0.330600	0.499100	0.165800
H201	H20	0.191600	0.376800	0.145100
H211	H21	0.240600	0.859200	0.110100
H221	H22	0.229000	0.891500	0.029800
H231	H23	0.379500	0.634900	0.012400
H241	H24	0.379600	0.613100	0.091700
H251	H25	0.210800	0.804100	0.945200
H261	H26	0.326000	0.732000	0.942800
H271	H27	0.358000	0.924500	0.962200
H281	H28	0.380900	0.875400	0.913600
H291	H29	0.554000	0.790400	0.956800
H301	H30	0.535300	0.850100	0.002700
H311	H31	0.700900	0.916400	0.973900
H321	H32	0.582200	0.984800	0.959700
H331	H33	0.561400	0.912800	0.880300
H341	H34	0.681100	0.981700	0.893500
H351	H35	0.701700	0.784800	0.903700
H361	H36	0.820400	0.855500	0.913200
H371	H37	0.917000	0.916200	0.844200
H381	H38	0.948700	0.895500	0.766400
H391	H39	0.637700	0.742500	0.742200
H401	H40	0.602200	0.754100	0.820200
H411	H41	0.551200	0.632700	0.157200
H421	H42	0.513400	0.573200	0.189800
H431	H43	0.073100	0.705500	0.673300
H441	H44	0.192600	0.573800	0.695100
H451	H45	0.874500	0.471800	0.747000
H461	H46	0.768900	0.604600	0.722300
H471	H47	0.194000	0.443000	0.769000
H481	H48	0.082000	0.366000	0.755000
H491	H49	0.103400	0.357300	0.674600
H501	H50	0.231500	0.419000	0.682600
H511	H51	0.205000	0.242200	0.725100
H521	H52	0.333100	0.304500	0.734500
H531	H53	0.228200	0.231100	0.643500
H541	H54	0.351800	0.297200	0.651200
H551	H55	0.470400	0.181000	0.696600
H561	H56	0.346300	0.114800	0.690000
H571	H57	0.473600	0.177200	0.612500
H581	H58	0.354400	0.106400	0.607600
H591	H59	0.394300	0.942900	0.635100
H601	H60	0.542200	0.824300	0.652500
H611	H61	0.830600	0.000900	0.665800
H621	H62	0.691600	0.123200	0.645100
H631	H63	0.740600	0.640800	0.610100
H641	H64	0.729000	0.608500	0.529800
H651	H65	0.879500	0.865100	0.512400
H661	H66	0.879600	0.886900	0.591700
H671	H67	0.710800	0.695900	0.445200
H681	H68	0.826000	0.768000	0.442800
H691	H69	0.858000	0.575500	0.462200
H701	H70	0.880900	0.624600	0.413600
H711	H71	0.054000	0.709600	0.456800
H721	H72	0.035300	0.649900	0.502700
H731	H73	0.200900	0.583600	0.473900
H741	H74	0.082200	0.515200	0.459700
H751	H75	0.061400	0.587200	0.380300
H761	H76	0.181100	0.518300	0.393500
H771	H77	0.201700	0.715200	0.403700
H781	H78	0.320400	0.644500	0.413200
H791	H79	0.417000	0.583800	0.344200
H801	H80	0.448700	0.604500	0.266400
H811	H81	0.137700	0.757500	0.242200
H821	H82	0.102200	0.745900	0.320200
H831	H83	0.051200	0.867300	0.657200
H841	H84	0.013400	0.926800	0.689800
C11	C1	0.532800	0.842800	0.188600
C21	C2	0.606000	0.921500	0.201700
C31	C3	0.550400	0.993000	0.224600
C41	C4	0.418200	0.981200	0.232000
C51	C5	0.356700	0.901600	0.217300
C61	C6	0.629400	0.078200	0.239600
C71	C7	0.678400	0.125600	0.198100
C81	C8	0.757800	0.211200	0.210800
C91	C9	0.804700	0.251700	0.166300
C101	C10	0.892100	0.336000	0.174700
C111	C11	0.932200	0.373000	0.128800
C121	C12	0.026700	0.454500	0.138300
C131	C13	0.984100	0.543600	0.140800
C141	C14	0.073000	0.613900	0.151800
C151	C15	0.240600	0.511200	0.159000
C161	C16	0.158600	0.437800	0.147200
C171	C17	0.269700	0.813600	0.089900
C181	C18	0.262700	0.833700	0.041600
C191	C19	0.304900	0.769500	0.011100
C201	C20	0.350600	0.682700	0.031400
C211	C21	0.350800	0.671300	0.078800
C221	C22	0.300700	0.788700	0.958700
C231	C23	0.388100	0.866700	0.948500
C241	C24	0.527100	0.851700	0.967600
C251	C25	0.617200	0.923100	0.953300
C261	C26	0.643700	0.921500	0.901500
C271	C27	0.736400	0.844200	0.893400
C281	C28	0.758300	0.835900	0.841500
C291	C29	0.859200	0.878100	0.824100
C301	C30	0.877400	0.865600	0.777400
C311	C31	0.698000	0.776400	0.763600
C321	C32	0.674600	0.784000	0.810000
C331	C33	0.032800	0.657200	0.688600
C341	C34	0.106000	0.578500	0.701700
C351	C35	0.050400	0.507000	0.724600
C361	C36	0.918200	0.518800	0.732000
C371	C37	0.856700	0.598400	0.717300
C381	C38	0.129400	0.421800	0.739600
C391	C39	0.178400	0.374400	0.698100
C401	C40	0.257800	0.288800	0.710800
C411	C41	0.304700	0.248300	0.666300
C421	C42	0.392100	0.164000	0.674700
C431	C43	0.432200	0.127000	0.628800
C441	C44	0.526700	0.045500	0.638300
C451	C45	0.484100	0.956400	0.640800
C461	C46	0.573000	0.886100	0.651800
C471	C47	0.740600	0.988800	0.659000
C481	C48	0.658600	0.062200	0.647200
C491	C49	0.769700	0.686400	0.589900
C501	C50	0.762700	0.666300	0.541600
C511	C51	0.804900	0.730500	0.511100
C521	C52	0.850600	0.817300	0.531400
C531	C53	0.850800	0.828700	0.578800
C541	C54	0.800700	0.711300	0.458700
C551	C55	0.888100	0.633300	0.448500
C561	C56	0.027100	0.648300	0.467600
C571	C57	0.117200	0.576900	0.453300
C581	C58	0.143700	0.578500	0.401500
C591	C59	0.236400	0.655800	0.393400
C601	C60	0.258300	0.664100	0.341500
C611	C61	0.359200	0.621900	0.324100
C621	C62	0.377400	0.634400	0.277400
C631	C63	0.198000	0.723600	0.263600
C641	C64	0.174600	0.716000	0.310000
N11	N1	0.410600	0.830000	0.195940
N21	N2	0.200000	0.599200	0.161430
N31	N3	0.314800	0.733800	0.109300
N41	N4	0.799800	0.813500	0.746690
N51	N5	0.910600	0.670000	0.695940
N61	N6	0.700000	0.900800	0.661430
N71	N7	0.814800	0.766200	0.609300
N81	N8	0.299800	0.686500	0.246690
O11	O1	0.508300	0.628600	0.180930
O21	O2	0.008300	0.871400	0.680930
Cu31	Cu3	0.178240	0.206720	0.321570
Cu41	Cu4	0.678240	0.293280	0.821570
H851	H85	0.926900	0.294500	0.326700
H861	H86	0.807400	0.426200	0.304900
H871	H87	0.125500	0.528200	0.253000
H881	H88	0.231100	0.395400	0.277700
H891	H89	0.806000	0.557000	0.231000
H901	H90	0.918000	0.634000	0.245000
H911	H91	0.896600	0.642700	0.325400
H921	H92	0.768500	0.581000	0.317400
H931	H93	0.795000	0.757800	0.274900
H941	H94	0.666900	0.695500	0.265500
H951	H95	0.771800	0.768900	0.356500
H961	H96	0.648200	0.702800	0.348800
H971	H97	0.529600	0.819000	0.303400
H981	H98	0.653700	0.885200	0.310000
H991	H99	0.526400	0.822800	0.387500
H1001	H100	0.645600	0.893600	0.392400
H1011	H101	0.605700	0.057100	0.364900
H1021	H102	0.457800	0.175700	0.347500
H1031	H103	0.169400	0.999100	0.334200
H1041	H104	0.308400	0.876800	0.354900
H1051	H105	0.259400	0.359200	0.389900
H1061	H106	0.271000	0.391500	0.470200
H1071	H107	0.120500	0.134900	0.487600
H1081	H108	0.120400	0.113100	0.408300
H1091	H109	0.289200	0.304100	0.554800
H1101	H110	0.174000	0.232000	0.557200
H1111	H111	0.142000	0.424500	0.537800
H1121	H112	0.119100	0.375400	0.586400
H1131	H113	0.946000	0.290400	0.543200
H1141	H114	0.964700	0.350100	0.497300
H1151	H115	0.799100	0.416400	0.526100
H1161	H116	0.917800	0.484800	0.540300
H1171	H117	0.938600	0.412800	0.619700
H1181	H118	0.818900	0.481700	0.606500
H1191	H119	0.798300	0.284800	0.596300
H1201	H120	0.679600	0.355500	0.586800
H1211	H121	0.583000	0.416200	0.655800
H1221	H122	0.551300	0.395500	0.733600
H1231	H123	0.862300	0.242500	0.757800
H1241	H124	0.897800	0.254100	0.679800
H1251	H125	0.948800	0.132700	0.342800
H1261	H126	0.986600	0.073200	0.310200
H1271	H127	0.426900	0.205500	0.826700
H1281	H128	0.307400	0.073800	0.804900
H1291	H129	0.625500	0.971800	0.753000
H1301	H130	0.731100	0.104600	0.777700
H1311	H131	0.306000	0.943000	0.731000
H1321	H132	0.418000	0.866000	0.745000
H1331	H133	0.396600	0.857300	0.825400
H1341	H134	0.268500	0.919000	0.817400
H1351	H135	0.295000	0.742200	0.774900
H1361	H136	0.166900	0.804500	0.765500
H1371	H137	0.271800	0.731100	0.856500
H1381	H138	0.148200	0.797200	0.848800
H1391	H139	0.029600	0.681000	0.803400
H1401	H140	0.153700	0.614800	0.810000
H1411	H141	0.026400	0.677200	0.887500
H1421	H142	0.145600	0.606400	0.892400
H1431	H143	0.105700	0.442900	0.864900
H1441	H144	0.957800	0.324300	0.847500
H1451	H145	0.669400	0.500900	0.834200
H1461	H146	0.808400	0.623200	0.854900
H1471	H147	0.759400	0.140800	0.889900
H1481	H148	0.771000	0.108500	0.970200
H1491	H149	0.620500	0.365100	0.987600
H1501	H150	0.620400	0.386900	0.908300
H1511	H151	0.789200	0.195900	0.054800
H1521	H152	0.674000	0.268000	0.057200
H1531	H153	0.642000	0.075500	0.037800
H1541	H154	0.619100	0.124600	0.086400
H1551	H155	0.446000	0.209600	0.043200
H1561	H156	0.464700	0.149900	0.997300
H1571	H157	0.299100	0.083600	0.026100
H1581	H158	0.417800	0.015200	0.040300
H1591	H159	0.438600	0.087200	0.119700
H1601	H160	0.318900	0.018300	0.106500
H1611	H161	0.298300	0.215200	0.096300
H1621	H162	0.179600	0.144500	0.086800
H1631	H163	0.083000	0.083800	0.155800
H1641	H164	0.051300	0.104500	0.233600
H1651	H165	0.362300	0.257500	0.257800
H1661	H166	0.397800	0.245900	0.179800
H1671	H167	0.448800	0.367300	0.842800
H1681	H168	0.486600	0.426800	0.810200
C651	C65	0.967200	0.342800	0.311400
C661	C66	0.894000	0.421500	0.298300
C671	C67	0.949600	0.493000	0.275400
C681	C68	0.081800	0.481200	0.268000
C691	C69	0.143300	0.401600	0.282700
C701	C70	0.870600	0.578200	0.260400
C711	C71	0.821600	0.625600	0.301900
C721	C72	0.742200	0.711200	0.289200
C731	C73	0.695300	0.751700	0.333700
C741	C74	0.607900	0.836000	0.325300
C751	C75	0.567800	0.873000	0.371200
C761	C76	0.473300	0.954500	0.361700
C771	C77	0.515900	0.043600	0.359200
C781	C78	0.427000	0.113900	0.348200
C791	C79	0.259400	0.011200	0.341000
C801	C80	0.341400	0.937800	0.352800
C811	C81	0.230300	0.313600	0.410100
C821	C82	0.237300	0.333700	0.458400
C831	C83	0.195100	0.269500	0.488900
C841	C84	0.149400	0.182700	0.468600
C851	C85	0.149200	0.171300	0.421200
C861	C86	0.199300	0.288700	0.541300
C871	C87	0.111900	0.366700	0.551500
C881	C88	0.972900	0.351700	0.532400
C891	C89	0.882800	0.423100	0.546700
C901	C90	0.856300	0.421500	0.598500
C911	C91	0.763600	0.344200	0.606600
C921	C92	0.741700	0.335900	0.658500
C931	C93	0.640800	0.378100	0.675900
C941	C94	0.622600	0.365600	0.722600
C951	C95	0.802000	0.276400	0.736400
C961	C96	0.825400	0.284000	0.690000
C971	C97	0.467200	0.157200	0.811400
C981	C98	0.394000	0.078500	0.798300
C991	C99	0.449600	0.007000	0.775400
C1001	C100	0.581800	0.018800	0.768000
C1011	C101	0.643300	0.098400	0.782700
C1021	C102	0.370600	0.921800	0.760400
C1031	C103	0.321600	0.874400	0.801900
C1041	C104	0.242200	0.788800	0.789200
C1051	C105	0.195300	0.748300	0.833700
C1061	C106	0.107900	0.664000	0.825300
C1071	C107	0.067800	0.627000	0.871200
C1081	C108	0.973300	0.545500	0.861700
C1091	C109	0.015900	0.456400	0.859200
C1101	C110	0.927000	0.386100	0.848200
C1111	C111	0.759400	0.488800	0.841000
C1121	C112	0.841400	0.562200	0.852800
C1131	C113	0.730300	0.186400	0.910100
C1141	C114	0.737300	0.166300	0.958400
C1151	C115	0.695100	0.230500	0.988900
C1161	C116	0.649400	0.317300	0.968600
C1171	C117	0.649200	0.328700	0.921200
C1181	C118	0.699300	0.211300	0.041300
C1191	C119	0.611900	0.133300	0.051500
C1201	C120	0.472900	0.148300	0.032400
C1211	C121	0.382800	0.076900	0.046700
C1221	C122	0.356300	0.078500	0.098500
C1231	C123	0.263600	0.155800	0.106600
C1241	C124	0.241700	0.164100	0.158500
C1251	C125	0.140800	0.121900	0.175900
C1261	C126	0.122600	0.134400	0.222600
C1271	C127	0.302000	0.223600	0.236400
C1281	C128	0.325400	0.216000	0.190000
N91	N9	0.089400	0.330000	0.304060
N101	N10	0.300000	0.099200	0.338570
N111	N11	0.185200	0.233800	0.390700
N121	N12	0.700200	0.313500	0.753310
N131	N13	0.589400	0.170000	0.804060
N141	N14	0.800000	0.400800	0.838570
N151	N15	0.685200	0.266200	0.890700
N161	N16	0.200200	0.186500	0.253310
O31	O3	0.991700	0.128600	0.319070
O41	O4	0.491700	0.371400	0.819070
N171	N17	0.986300	0.883100	0.180360
O51	O5	0.074000	0.848600	0.161900
O61	O6	0.951700	0.845200	0.215100
O71	O7	0.925200	0.950600	0.163700
N181	N18	0.493600	0.411300	0.099200
O81	O8	0.606800	0.437300	0.111400
O91	O9	0.431300	0.448300	0.063800
O101	O10	0.445900	0.348800	0.120000
N191	N19	0.513700	0.383100	0.319640
O111	O11	0.426000	0.348600	0.338100
O121	O12	0.548300	0.345200	0.284900
O131	O13	0.574800	0.450600	0.336300
N201	N20	0.006400	0.911300	0.400800
O141	O14	0.893200	0.937300	0.388600
O151	O15	0.068700	0.948300	0.436200
O161	O16	0.054100	0.848800	0.380000
N211	N21	0.013700	0.116900	0.819640
O171	O17	0.926000	0.151400	0.838100
O181	O18	0.048300	0.154800	0.784900
O191	O19	0.074800	0.049400	0.836300
N221	N22	0.506400	0.588700	0.900800
O201	O20	0.393200	0.562700	0.888600
O211	O21	0.568700	0.551700	0.936200
O221	O22	0.554100	0.651200	0.880000
N231	N23	0.486300	0.616900	0.680360
O231	O23	0.574000	0.651400	0.661900
O241	O24	0.451700	0.654800	0.715100
O251	O25	0.425200	0.549400	0.663700
N241	N24	0.993600	0.088700	0.599200
O261	O26	0.106800	0.062700	0.611400
O271	O27	0.931300	0.051700	0.563800
O281	O28	0.945900	0.151200	0.620000
