data_ODIXAC_charged_PM
_symmetry_space_group_name_H-M	'P1'
_cell_length_a	13.981700
_cell_length_b	14.181700
_cell_length_c	14.270000
_cell_angle_alpha	115.922000
_cell_angle_beta	113.196000
_cell_angle_gamma	97.144000
_symmetry_Int_Tables_number 1

loop_
_symmetry_equiv_pos_as_xyz
'x,y,z'

loop_
_atom_site_label
_atom_site_type_symbol
_atom_site_fract_x
_atom_site_fract_y
_atom_site_fract_z
Cd11	Cd1	0.495110	0.615730	0.814710
Cd21	Cd2	0.504890	0.384270	0.185290
Cd31	Cd3	0.500000	0.500000	0.000000
Si11	Si1	0.236120	0.856020	0.321300
Si21	Si2	0.763880	0.143980	0.678700
H11	H1	0.315600	0.259000	0.466900
H21	H2	0.240800	0.067800	0.319700
H31	H3	0.449900	0.917900	0.134700
H41	H4	0.867900	0.568700	0.098300
H51	H5	0.433100	0.800200	0.417400
H61	H6	0.860500	0.857900	0.110200
H71	H7	0.380200	0.976200	0.266700
H81	H8	0.216300	0.701300	0.562200
H91	H9	0.429400	0.187500	0.727000
H101	H10	0.357700	0.997300	0.580600
H111	H11	0.053900	0.937600	0.230900
H121	H12	0.502800	0.741400	0.550900
H131	H13	0.296600	0.593100	0.011500
H141	H14	0.220300	0.650700	0.136600
H151	H15	0.147400	0.761300	0.429900
H161	H16	0.061400	0.642900	0.203700
H171	H17	0.684400	0.741000	0.533100
H181	H18	0.759200	0.932200	0.680300
H191	H19	0.550100	0.082100	0.865300
H201	H20	0.132100	0.431300	0.901700
H211	H21	0.566900	0.199800	0.582600
H221	H22	0.139500	0.142100	0.889800
H231	H23	0.619800	0.023800	0.733300
H241	H24	0.783700	0.298700	0.437800
H251	H25	0.570600	0.812500	0.273000
H261	H26	0.642300	0.002700	0.419400
H271	H27	0.946100	0.062400	0.769100
H281	H28	0.497200	0.258600	0.449100
H291	H29	0.703400	0.406900	0.988500
H301	H30	0.779700	0.349300	0.863400
H311	H31	0.852600	0.238700	0.570100
H321	H32	0.938600	0.357100	0.796300
C11	C1	0.293100	0.819800	0.216300
C21	C2	0.079500	0.799100	0.231200
C31	C3	0.413600	0.680100	0.658300
C41	C4	0.381800	0.750000	0.062500
C51	C5	0.282700	0.788400	0.409800
C61	C6	0.380400	0.241900	0.611600
C71	C7	0.433400	0.712800	0.984400
C81	C8	0.324000	0.205700	0.490000
C91	C9	0.279800	0.091600	0.402300
C101	C10	0.404900	0.863800	0.136800
C111	C11	0.291800	0.011100	0.433600
C121	C12	0.905500	0.643000	0.123000
C131	C13	0.388900	0.780900	0.447100
C141	C14	0.901100	0.815000	0.132000
C151	C15	0.362100	0.898300	0.214400
C161	C16	0.260900	0.722100	0.533600
C171	C17	0.718700	0.656000	0.021700
C181	C18	0.391800	0.163400	0.644200
C191	C19	0.430000	0.364500	0.709400
C201	C20	0.844400	0.706000	0.093800
C211	C21	0.348600	0.049900	0.556700
C221	C22	0.016800	0.861800	0.202200
C231	C23	0.367400	0.716900	0.571300
C241	C24	0.430600	0.745800	0.526700
C251	C25	0.313100	0.670800	0.062700
C261	C26	0.268500	0.705500	0.138100
C271	C27	0.219900	0.757700	0.454500
C281	C28	0.020900	0.688300	0.188000
C291	C29	0.706900	0.180200	0.783700
C301	C30	0.920500	0.200900	0.768800
C311	C31	0.586400	0.319900	0.341700
C321	C32	0.618200	0.250000	0.937500
C331	C33	0.717300	0.211600	0.590200
C341	C34	0.619600	0.758100	0.388400
C351	C35	0.566600	0.287200	0.015600
C361	C36	0.676000	0.794300	0.510000
C371	C37	0.720200	0.908400	0.597700
C381	C38	0.595100	0.136200	0.863200
C391	C39	0.708200	0.988900	0.566400
C401	C40	0.094500	0.357000	0.877000
C411	C41	0.611100	0.219100	0.552900
C421	C42	0.098900	0.185000	0.868000
C431	C43	0.637900	0.101700	0.785600
C441	C44	0.739100	0.277900	0.466400
C451	C45	0.281300	0.344000	0.978300
C461	C46	0.608200	0.836600	0.355800
C471	C47	0.570000	0.635500	0.290600
C481	C48	0.155600	0.294000	0.906200
C491	C49	0.651400	0.950100	0.443300
C501	C50	0.983200	0.138200	0.797800
C511	C51	0.632600	0.283100	0.428700
C521	C52	0.569400	0.254200	0.473300
C531	C53	0.686900	0.329200	0.937300
C541	C54	0.731500	0.294500	0.861900
C551	C55	0.780100	0.242300	0.545500
C561	C56	0.979100	0.311700	0.812000
O11	O1	0.421750	0.608280	0.930780
O21	O2	0.483300	0.780970	0.971600
O31	O3	0.435000	0.434830	0.678600
O41	O4	0.671850	0.597000	0.046400
O51	O5	0.351840	0.647900	0.691800
O61	O6	0.673770	0.679100	0.942900
O71	O7	0.511910	0.681600	0.695800
O81	O8	0.461400	0.386200	0.813600
O91	O9	0.578250	0.391720	0.069220
O101	O10	0.516700	0.219030	0.028400
O111	O11	0.565000	0.565170	0.321400
O121	O12	0.328150	0.403000	0.953600
O131	O13	0.648160	0.352100	0.308200
O141	O14	0.326230	0.320900	0.057100
O151	O15	0.488090	0.318400	0.304200
O161	O16	0.538600	0.613800	0.186400
Cd41	Cd4	0.000000	0.500000	0.500000
H331	H33	0.698800	0.566500	0.535300
H341	H34	0.634600	0.509800	0.579600
H351	H35	0.685700	0.643700	0.648100
H361	H36	0.172700	0.478000	0.728400
H371	H37	0.206700	0.379600	0.743300
H381	H38	0.236000	0.415400	0.663100
H391	H39	0.992600	0.496500	0.742100
H401	H40	0.046700	0.630400	0.806000
H411	H41	0.915900	0.165900	0.378100
H421	H42	0.967700	0.069900	0.369100
H431	H43	0.895700	0.095100	0.434700
H441	H44	0.187000	0.224500	0.667300
H451	H45	0.078600	0.121100	0.611800
H461	H46	0.142500	0.113700	0.538700
H471	H47	0.985700	0.657000	0.933900
H481	H48	0.932100	0.523500	0.870400
H491	H49	0.820700	0.662700	0.853100
H501	H50	0.767000	0.528900	0.789100
H511	H51	0.161000	0.702000	0.731000
H521	H52	0.226800	0.645000	0.691000
H531	H53	0.301200	0.433500	0.464700
H541	H54	0.365400	0.490200	0.420400
H551	H55	0.314300	0.356300	0.351900
H561	H56	0.827300	0.522000	0.271600
H571	H57	0.793300	0.620400	0.256700
H581	H58	0.764000	0.584600	0.336900
H591	H59	0.007400	0.503500	0.257900
H601	H60	0.953300	0.369600	0.194000
H611	H61	0.084100	0.834100	0.621900
H621	H62	0.032300	0.930100	0.630900
H631	H63	0.104300	0.904900	0.565300
H641	H64	0.813000	0.775500	0.332700
H651	H65	0.921400	0.878900	0.388200
H661	H66	0.857500	0.886300	0.461300
H671	H67	0.014300	0.343000	0.066100
H681	H68	0.067900	0.476500	0.129600
H691	H69	0.179300	0.337300	0.146900
H701	H70	0.233000	0.471100	0.210900
H711	H71	0.839000	0.298000	0.269000
H721	H72	0.773200	0.355000	0.309000
C571	C57	0.071100	0.321300	0.579000
C581	C58	0.883700	0.561800	0.664200
C591	C59	0.696500	0.573600	0.605800
C601	C60	0.181100	0.405900	0.687900
C611	C61	0.977600	0.567400	0.768600
C621	C62	0.949000	0.128800	0.419600
C631	C63	0.120300	0.163700	0.592800
C641	C64	0.935300	0.585600	0.855900
C651	C65	0.822900	0.589600	0.801000
C661	C66	0.928900	0.678700	0.421000
C671	C67	0.116300	0.438200	0.335800
C681	C68	0.303500	0.426400	0.394200
C691	C69	0.818900	0.594100	0.312100
C701	C70	0.022400	0.432600	0.231400
C711	C71	0.051000	0.871200	0.580400
C721	C72	0.879700	0.836300	0.407200
C731	C73	0.064700	0.414400	0.144100
C741	C74	0.177100	0.410400	0.199000
N11	N1	0.800300	0.574500	0.686000
N21	N2	0.050200	0.211200	0.534100
N31	N3	0.199700	0.425500	0.314000
N41	N4	0.949800	0.788800	0.465900
O171	O17	0.153450	0.626300	0.680400
O181	O18	0.998900	0.352600	0.528000
O191	O19	0.884600	0.552200	0.573500
O201	O20	0.846550	0.373700	0.319600
O211	O21	0.001100	0.647400	0.472000
O221	O22	0.115400	0.447800	0.426500
