data_ODODOC_freeONLY_PM
_symmetry_space_group_name_H-M	'P1'
_cell_length_a	13.875000
_cell_length_b	14.072000
_cell_length_c	14.208000
_cell_angle_alpha	116.300000
_cell_angle_beta	109.724000
_cell_angle_gamma	101.428000
_symmetry_Int_Tables_number 1

loop_
_symmetry_equiv_pos_as_xyz
'x,y,z'

loop_
_atom_site_label
_atom_site_type_symbol
_atom_site_fract_x
_atom_site_fract_y
_atom_site_fract_z
Cd11	Cd1	0.705310	0.873760	0.886120
Cd21	Cd2	0.294690	0.126240	0.113880
Cd31	Cd3	0.000000	0.000000	0.000000
Si11	Si1	0.989880	0.653960	0.389090
Si21	Si2	0.010120	0.346040	0.610910
H11	H1	0.769000	0.456900	0.189700
H21	H2	0.305700	0.739900	0.745400
H31	H3	0.815900	0.526300	0.420200
H41	H4	0.705100	0.255900	0.065300
H51	H5	0.005900	0.866700	0.576300
H61	H6	0.743400	0.579600	0.552600
H71	H7	0.935800	0.919200	0.710100
H81	H8	0.120800	0.698100	0.623800
H91	H9	0.086300	0.484000	0.340800
H101	H10	0.775500	0.804300	0.187200
H111	H11	0.826900	0.742100	0.315200
H121	H12	0.207500	0.721100	0.389100
H131	H13	0.078400	0.704500	0.246100
H141	H14	0.034500	0.779200	0.128400
H151	H15	0.022700	0.283700	0.212000
H161	H16	0.394200	0.769600	0.514300
H171	H17	0.231000	0.543100	0.810300
H181	H18	0.694300	0.260100	0.254600
H191	H19	0.184100	0.473700	0.579800
H201	H20	0.294900	0.744100	0.934700
H211	H21	0.994100	0.133300	0.423700
H221	H22	0.256600	0.420400	0.447400
H231	H23	0.064200	0.080800	0.289900
H241	H24	0.879200	0.301900	0.376200
H251	H25	0.913700	0.516000	0.659200
H261	H26	0.224500	0.195700	0.812800
H271	H27	0.173100	0.257900	0.684800
H281	H28	0.792500	0.278900	0.610900
H291	H29	0.921600	0.295500	0.753900
H301	H30	0.965500	0.220800	0.871600
H311	H31	0.977300	0.716300	0.788000
H321	H32	0.605800	0.230400	0.485700
C11	C1	0.820900	0.422100	0.196300
C21	C2	0.919800	0.689900	0.484500
C31	C3	0.961400	0.721500	0.300600
C41	C4	0.143100	0.705500	0.492700
C51	C5	0.833900	0.755300	0.645500
C61	C6	0.489600	0.797200	0.726500
C71	C7	0.791000	0.788500	0.734300
C81	C8	0.286500	0.738000	0.673600
C91	C9	0.368300	0.761100	0.643100
C101	C10	0.934800	0.492600	0.281200
C111	C11	0.866100	0.834700	0.058700
C121	C12	0.901300	0.800400	0.147000
C131	C13	0.840800	0.606300	0.479000
C141	C14	0.782700	0.302200	0.121400
C151	C15	0.953500	0.807900	0.571900
C161	C16	0.797600	0.637900	0.558000
C171	C17	0.911300	0.839300	0.651200
C181	C18	0.175600	0.711900	0.600000
C191	C19	0.008500	0.438300	0.285000
C201	C20	0.839900	0.787200	0.201500
C211	C21	0.870600	0.749200	0.277600
C221	C22	0.226900	0.726400	0.462600
C231	C23	0.018600	0.728900	0.238400
C241	C24	0.990900	0.770900	0.165500
C251	C25	0.857600	0.249600	0.128400
C261	C26	0.970500	0.318400	0.208700
C271	C27	0.338800	0.754800	0.536900
C281	C28	0.819500	0.119400	0.055400
C291	C29	0.179100	0.577900	0.803700
C301	C30	0.080200	0.310100	0.515500
C311	C31	0.038600	0.278500	0.699400
C321	C32	0.856900	0.294500	0.507300
C331	C33	0.166100	0.244700	0.354500
C341	C34	0.510400	0.202800	0.273500
C351	C35	0.209000	0.211500	0.265700
C361	C36	0.713500	0.262000	0.326400
C371	C37	0.631700	0.238900	0.356900
C381	C38	0.065200	0.507400	0.718800
C391	C39	0.133900	0.165300	0.941300
C401	C40	0.098700	0.199600	0.853000
C411	C41	0.159200	0.393700	0.521000
C421	C42	0.217300	0.697800	0.878600
C431	C43	0.046500	0.192100	0.428100
C441	C44	0.202400	0.362100	0.442000
C451	C45	0.088700	0.160700	0.348800
C461	C46	0.824400	0.288100	0.400000
C471	C47	0.991500	0.561700	0.715000
C481	C48	0.160100	0.212800	0.798500
C491	C49	0.129400	0.250800	0.722400
C501	C50	0.773100	0.273600	0.537400
C511	C51	0.981400	0.271100	0.761600
C521	C52	0.009100	0.229100	0.834500
C531	C53	0.142400	0.750400	0.871600
C541	C54	0.029500	0.681600	0.791300
C551	C55	0.661200	0.245200	0.463100
C561	C56	0.180500	0.880600	0.944600
O11	O1	0.716800	0.712900	0.724900
O21	O2	0.833500	0.896900	0.818000
O31	O3	0.563100	0.845300	0.711000
O41	O4	0.512500	0.779600	0.809700
O51	O5	0.767700	0.829400	0.019200
O61	O6	0.716300	0.056500	0.988200
O71	O7	0.937500	0.863100	0.029400
O81	O8	0.893000	0.080100	0.067400
O91	O9	0.283200	0.287100	0.275100
O101	O10	0.166500	0.103100	0.182000
O111	O11	0.436900	0.154700	0.289000
O121	O12	0.487500	0.220400	0.190300
O131	O13	0.232300	0.170600	0.980800
O141	O14	0.283700	0.943500	0.011800
O151	O15	0.062500	0.136900	0.970600
O161	O16	0.107000	0.919900	0.932600
Cd41	Cd4	0.500000	0.500000	0.000000
H331	H33	0.510300	0.724100	0.983200
H341	H34	0.519000	0.891100	0.999000
H351	H35	0.499700	0.974100	0.105700
H361	H36	0.623600	0.002600	0.120900
H371	H37	0.673400	0.586800	0.918400
H381	H38	0.758900	0.603200	0.835700
H391	H39	0.878100	0.595800	0.879200
H401	H40	0.771100	0.487200	0.757200
H411	H41	0.798300	0.364400	0.853200
H421	H42	0.907000	0.481000	0.962800
H431	H43	0.811200	0.425600	0.984900
H441	H44	0.694800	0.975100	0.304600
H451	H45	0.577600	0.981200	0.292800
H461	H46	0.600500	0.871700	0.285600
H471	H47	0.463000	0.586400	0.773300
H481	H48	0.346500	0.259700	0.564500
H491	H49	0.472700	0.283900	0.645300
H501	H50	0.393200	0.310100	0.704100
H511	H51	0.512000	0.532000	0.627000
H521	H52	0.562000	0.436500	0.614300
H531	H53	0.437100	0.399000	0.517300
H541	H54	0.489700	0.275900	0.016800
H551	H55	0.481000	0.108900	0.001000
H561	H56	0.500300	0.025900	0.894300
H571	H57	0.376400	0.997400	0.879100
H581	H58	0.326600	0.413200	0.081600
H591	H59	0.241100	0.396800	0.164300
H601	H60	0.121900	0.404200	0.120800
H611	H61	0.228900	0.512800	0.242800
H621	H62	0.201700	0.635600	0.146800
H631	H63	0.093000	0.519000	0.037200
H641	H64	0.188800	0.574400	0.015100
H651	H65	0.305200	0.024900	0.695400
H661	H66	0.422400	0.018800	0.707200
H671	H67	0.399500	0.128300	0.714400
H681	H68	0.537000	0.413600	0.226700
H691	H69	0.653500	0.740300	0.435500
H701	H70	0.527300	0.716100	0.354700
H711	H71	0.606800	0.689900	0.295900
H721	H72	0.488000	0.468000	0.373000
H731	H73	0.438000	0.563500	0.385700
H741	H74	0.562900	0.601000	0.482700
C571	C57	0.541600	0.758700	0.067200
C581	C58	0.551000	0.940200	0.086300
C591	C59	0.693400	0.532500	0.933900
C601	C60	0.796600	0.551800	0.838900
C611	C61	0.825900	0.439200	0.928200
C621	C62	0.613800	0.929400	0.265300
C631	C63	0.443400	0.511400	0.760400
C641	C64	0.412800	0.311100	0.644300
C651	C65	0.494000	0.450900	0.602300
C661	C66	0.458400	0.241300	0.932800
C671	C67	0.449000	0.059800	0.913700
C681	C68	0.306600	0.467500	0.066100
C691	C69	0.203400	0.448200	0.161100
C701	C70	0.174100	0.560800	0.071800
C711	C71	0.386200	0.070600	0.734700
C721	C72	0.556600	0.488600	0.239600
C731	C73	0.587200	0.688900	0.355700
C741	C74	0.506000	0.549100	0.397700
N11	N1	0.566800	0.870200	0.135800
N21	N2	0.769800	0.506900	0.904400
N31	N3	0.451500	0.429500	0.672600
N41	N4	0.433200	0.129800	0.864200
N51	N5	0.230200	0.493100	0.095600
N61	N6	0.548500	0.570500	0.327400
O171	O17	0.556100	0.695700	0.105600
O181	O18	0.411400	0.495700	0.827400
O191	O19	0.649800	0.503300	0.972200
O201	O20	0.443900	0.304300	0.894400
O211	O21	0.588600	0.504300	0.172600
O221	O22	0.350200	0.496700	0.027800
