data_ODOMIF_freeONLY_PM
_symmetry_space_group_name_H-M	'P1'
_cell_length_a	7.512000
_cell_length_b	16.530000
_cell_length_c	14.154000
_cell_angle_alpha	90.000000
_cell_angle_beta	90.710000
_cell_angle_gamma	90.000000
_symmetry_Int_Tables_number 1

loop_
_symmetry_equiv_pos_as_xyz
'x,y,z'

loop_
_atom_site_label
_atom_site_type_symbol
_atom_site_fract_x
_atom_site_fract_y
_atom_site_fract_z
O11	O1	0.410900	0.392640	0.569800
O21	O2	0.122700	0.412910	0.596800
O31	O3	0.121600	0.077610	0.898300
O41	O4	0.408900	0.102480	0.928200
O51	O5	0.249300	0.506230	0.403400
C11	C1	0.335300	0.316100	0.765600
H11	H1	0.382400	0.366100	0.782900
C21	C2	0.335600	0.252800	0.831200
H21	H2	0.382200	0.261600	0.891500
C31	C3	0.268600	0.178100	0.808500
C41	C4	0.200700	0.163500	0.714900
C51	C5	0.143000	0.086400	0.685200
H31	H3	0.144100	0.043600	0.727800
C61	C6	0.085300	0.074100	0.594200
H41	H4	0.051400	0.022500	0.574800
C71	C7	0.077100	0.138600	0.530300
H51	H5	0.034500	0.129800	0.469100
C81	C8	0.130300	0.213400	0.556500
H61	H6	0.122700	0.255700	0.513300
C91	C9	0.197300	0.228500	0.648700
C101	C10	0.266500	0.305500	0.675900
C111	C11	0.267000	0.375300	0.608500
C121	C12	0.266100	0.114500	0.883600
O61	O6	0.089100	0.892640	0.930200
O71	O7	0.377300	0.912910	0.903200
O81	O8	0.378400	0.577610	0.601700
O91	O9	0.091100	0.602480	0.571800
O101	O10	0.250700	0.006230	0.096600
C131	C13	0.164700	0.816100	0.734400
H71	H7	0.117600	0.866100	0.717100
C141	C14	0.164400	0.752800	0.668800
H81	H8	0.117800	0.761600	0.608500
C151	C15	0.231400	0.678100	0.691500
C161	C16	0.299300	0.663500	0.785100
C171	C17	0.357000	0.586400	0.814800
H91	H9	0.355900	0.543600	0.772200
C181	C18	0.414700	0.574100	0.905800
H101	H10	0.448600	0.522500	0.925200
C191	C19	0.422900	0.638600	0.969700
H111	H11	0.465500	0.629800	0.030900
C201	C20	0.369700	0.713400	0.943500
H121	H12	0.377300	0.755700	0.986700
C211	C21	0.302700	0.728500	0.851300
C221	C22	0.233500	0.805500	0.824100
C231	C23	0.233000	0.875300	0.891500
C241	C24	0.233900	0.614500	0.616400
O111	O11	0.589100	0.607360	0.430200
O121	O12	0.877300	0.587090	0.403200
O131	O13	0.878400	0.922390	0.101700
O141	O14	0.591100	0.897520	0.071800
O151	O15	0.750700	0.493770	0.596600
C251	C25	0.664700	0.683900	0.234400
H131	H13	0.617600	0.633900	0.217100
C261	C26	0.664400	0.747200	0.168800
H141	H14	0.617800	0.738400	0.108500
C271	C27	0.731400	0.821900	0.191500
C281	C28	0.799300	0.836500	0.285100
C291	C29	0.857000	0.913600	0.314800
H151	H15	0.855900	0.956400	0.272200
C301	C30	0.914700	0.925900	0.405800
H161	H16	0.948600	0.977500	0.425200
C311	C31	0.922900	0.861400	0.469700
H171	H17	0.965500	0.870200	0.530900
C321	C32	0.869700	0.786600	0.443500
H181	H18	0.877300	0.744300	0.486700
C331	C33	0.802700	0.771500	0.351300
C341	C34	0.733500	0.694500	0.324100
C351	C35	0.733000	0.624700	0.391500
C361	C36	0.733900	0.885500	0.116400
O161	O16	0.910900	0.107360	0.069800
O171	O17	0.622700	0.087090	0.096800
O181	O18	0.621600	0.422390	0.398300
O191	O19	0.908900	0.397520	0.428200
O201	O20	0.749300	0.993770	0.903400
C371	C37	0.835300	0.183900	0.265600
H191	H19	0.882400	0.133900	0.282900
C381	C38	0.835600	0.247200	0.331200
H201	H20	0.882200	0.238400	0.391500
C391	C39	0.768600	0.321900	0.308500
C401	C40	0.700700	0.336500	0.214900
C411	C41	0.643000	0.413600	0.185200
H211	H21	0.644100	0.456400	0.227800
C421	C42	0.585300	0.425900	0.094200
H221	H22	0.551400	0.477500	0.074800
C431	C43	0.577100	0.361400	0.030300
H231	H23	0.534500	0.370200	0.969100
C441	C44	0.630300	0.286600	0.056500
H241	H24	0.622700	0.244300	0.013300
C451	C45	0.697300	0.271500	0.148700
C461	C46	0.766500	0.194500	0.175900
C471	C47	0.767000	0.124700	0.108500
C481	C48	0.766100	0.385500	0.383600
Mn11	Mn1	0.000000	0.500000	0.500000
Mn21	Mn2	0.500000	0.000000	0.000000
Mn31	Mn3	0.500000	0.500000	0.500000
Mn41	Mn4	0.000000	0.000000	0.000000
