data_ODOXEK_freeONLY_PM
_symmetry_space_group_name_H-M	'P1'
_cell_length_a	7.931600
_cell_length_b	15.754700
_cell_length_c	15.754700
_cell_angle_alpha	120.000000
_cell_angle_beta	90.000000
_cell_angle_gamma	90.000000
_symmetry_Int_Tables_number 1

loop_
_symmetry_equiv_pos_as_xyz
'x,y,z'

loop_
_atom_site_label
_atom_site_type_symbol
_atom_site_fract_x
_atom_site_fract_y
_atom_site_fract_z
Cd11	Cd1	0.987820	0.625940	0.941400
Cd21	Cd2	0.987820	0.315460	0.374060
Cd31	Cd3	0.987820	0.058600	0.684540
Cd41	Cd4	0.487820	0.684540	0.058600
Cd51	Cd5	0.487820	0.941400	0.625940
Cd61	Cd6	0.487820	0.374060	0.315460
H11	H1	0.694000	0.551600	0.634800
H21	H2	0.696000	0.732700	0.526200
H31	H3	0.922000	0.813700	0.782200
H41	H4	0.694000	0.083200	0.448400
H51	H5	0.696000	0.793500	0.267300
H61	H6	0.922000	0.968500	0.186300
H71	H7	0.694000	0.365200	0.916800
H81	H8	0.696000	0.473800	0.206500
H91	H9	0.922000	0.217800	0.031500
H101	H10	0.194000	0.916800	0.365200
H111	H11	0.196000	0.206500	0.473800
H121	H12	0.422000	0.031500	0.217800
H131	H13	0.194000	0.634800	0.551600
H141	H14	0.196000	0.526200	0.732700
H151	H15	0.422000	0.782200	0.813700
H161	H16	0.194000	0.448400	0.083200
H171	H17	0.196000	0.267300	0.793500
H181	H18	0.422000	0.186300	0.968500
C11	C1	0.813800	0.679900	0.723100
C21	C2	0.725500	0.610800	0.639800
C31	C3	0.684600	0.629100	0.565600
C41	C4	0.862200	0.661500	0.803600
C51	C5	0.872500	0.882100	0.663400
C61	C6	0.600800	0.553200	0.474300
C71	C7	0.727800	0.718800	0.574800
C81	C8	0.818600	0.788500	0.656200
C91	C9	0.860700	0.767900	0.728300
C101	C10	0.813800	0.043200	0.320100
C111	C11	0.725500	0.029000	0.389200
C121	C12	0.684600	0.936500	0.370900
C131	C13	0.862200	0.142100	0.338500
C141	C14	0.872500	0.781300	0.117900
C151	C15	0.600800	0.921100	0.446800
C161	C16	0.727800	0.856000	0.281200
C171	C17	0.818600	0.867700	0.211500
C181	C18	0.860700	0.960400	0.232100
C191	C19	0.813800	0.276900	0.956800
C201	C20	0.725500	0.360200	0.971000
C211	C21	0.684600	0.434400	0.063500
C221	C22	0.862200	0.196400	0.857900
C231	C23	0.872500	0.336600	0.218700
C241	C24	0.600800	0.525700	0.078900
C251	C25	0.727800	0.425200	0.144000
C261	C26	0.818600	0.343800	0.132300
C271	C27	0.860700	0.271700	0.039600
C281	C28	0.313800	0.956800	0.276900
C291	C29	0.225500	0.971000	0.360200
C301	C30	0.184600	0.063500	0.434400
C311	C31	0.362200	0.857900	0.196400
C321	C32	0.372500	0.218700	0.336600
C331	C33	0.100800	0.078900	0.525700
C341	C34	0.227800	0.144000	0.425200
C351	C35	0.318600	0.132300	0.343800
C361	C36	0.360700	0.039600	0.271700
C371	C37	0.313800	0.723100	0.679900
C381	C38	0.225500	0.639800	0.610800
C391	C39	0.184600	0.565600	0.629100
C401	C40	0.362200	0.803600	0.661500
C411	C41	0.372500	0.663400	0.882100
C421	C42	0.100800	0.474300	0.553200
C431	C43	0.227800	0.574800	0.718800
C441	C44	0.318600	0.656200	0.788500
C451	C45	0.360700	0.728300	0.767900
C461	C46	0.313800	0.320100	0.043200
C471	C47	0.225500	0.389200	0.029000
C481	C48	0.184600	0.370900	0.936500
C491	C49	0.362200	0.338500	0.142100
C501	C50	0.372500	0.117900	0.781300
C511	C51	0.100800	0.446800	0.921100
C521	C52	0.227800	0.281200	0.856000
C531	C53	0.318600	0.211500	0.867700
C541	C54	0.360700	0.232100	0.960400
O11	O1	0.925900	0.730800	0.880100
O21	O2	0.844400	0.577100	0.793000
O31	O3	0.774900	0.929300	0.637300
O41	O4	0.016800	0.913300	0.694600
O51	O5	0.548600	0.474800	0.471300
O61	O6	0.583700	0.565100	0.402000
O71	O7	0.925900	0.149300	0.269200
O81	O8	0.844400	0.215900	0.422900
O91	O9	0.774900	0.708000	0.070700
O101	O10	0.016800	0.781300	0.086700
O111	O11	0.548600	0.996500	0.525200
O121	O12	0.583700	0.836900	0.434900
O131	O13	0.925900	0.119900	0.850700
O141	O14	0.844400	0.207000	0.784100
O151	O15	0.774900	0.362700	0.292000
O161	O16	0.016800	0.305400	0.218700
O171	O17	0.548600	0.528700	0.003500
O181	O18	0.583700	0.598000	0.163100
O191	O19	0.425900	0.850700	0.119900
O201	O20	0.344400	0.784100	0.207000
O211	O21	0.274900	0.292000	0.362700
O221	O22	0.516800	0.218700	0.305400
O231	O23	0.048600	0.003500	0.528700
O241	O24	0.083700	0.163100	0.598000
O251	O25	0.425900	0.880100	0.730800
O261	O26	0.344400	0.793000	0.577100
O271	O27	0.274900	0.637300	0.929300
O281	O28	0.516800	0.694600	0.913300
O291	O29	0.048600	0.471300	0.474800
O301	O30	0.083700	0.402000	0.565100
O311	O31	0.425900	0.269200	0.149300
O321	O32	0.344400	0.422900	0.215900
O331	O33	0.274900	0.070700	0.708000
O341	O34	0.516800	0.086700	0.781300
O351	O35	0.048600	0.525200	0.996500
O361	O36	0.083700	0.434900	0.836900
