data_ODUNEH_freeONLY_PM
_symmetry_space_group_name_H-M	'P1'
_cell_length_a	12.829000
_cell_length_b	18.528000
_cell_length_c	21.323700
_cell_angle_alpha	95.902500
_cell_angle_beta	107.507000
_cell_angle_gamma	70.009900
_symmetry_Int_Tables_number 1

loop_
_symmetry_equiv_pos_as_xyz
'x,y,z'

loop_
_atom_site_label
_atom_site_type_symbol
_atom_site_fract_x
_atom_site_fract_y
_atom_site_fract_z
Zn11	Zn1	0.828380	0.093770	0.808180
Zn21	Zn2	0.952520	0.103600	0.697060
Zn31	Zn3	0.979800	0.406230	0.808180
Zn41	Zn4	0.744540	0.396400	0.697060
Zn51	Zn5	0.171620	0.906230	0.191820
Zn61	Zn6	0.047480	0.896400	0.302940
Zn71	Zn7	0.020200	0.593770	0.191820
Zn81	Zn8	0.255460	0.603600	0.302940
Zn91	Zn9	0.097210	0.750000	0.194420
Zn101	Zn10	0.902790	0.250000	0.805580
H11	H1	0.160400	0.987700	0.945400
H21	H2	0.342700	0.924500	0.013800
H31	H3	0.467400	0.877300	0.855800
H41	H4	0.291100	0.947400	0.789200
H51	H5	0.551200	0.938800	0.056200
H61	H6	0.736200	0.881400	0.115000
H71	H7	0.761900	0.693900	0.003400
H81	H8	0.580500	0.753800	0.933800
H91	H9	0.699800	0.920100	0.693800
H101	H10	0.607700	0.841700	0.622000
H111	H11	0.656100	0.921900	0.474200
H121	H12	0.772700	0.980500	0.546200
H131	H13	0.633600	0.727500	0.554000
H141	H14	0.540300	0.648600	0.481200
H151	H15	0.381800	0.822000	0.352800
H161	H16	0.475000	0.900200	0.430200
H171	H17	0.944100	0.985500	0.916000
H181	H18	0.692200	0.938900	0.880000
H191	H19	0.760400	0.852100	0.897200
H201	H20	0.720900	0.909400	0.951600
H211	H21	0.027000	0.882100	0.993400
H221	H22	0.937100	0.872100	0.025000
H231	H23	0.975700	0.815000	0.970200
H241	H24	0.615800	0.069900	0.750800
H251	H25	0.603800	0.104800	0.817200
H261	H26	0.461200	0.078100	0.786800
H271	H27	0.406300	0.160300	0.755200
H281	H28	0.444500	0.088100	0.711800
H291	H29	0.785000	0.512300	0.945400
H301	H30	0.671100	0.575500	0.013800
H311	H31	0.388400	0.622700	0.855800
H321	H32	0.498100	0.552600	0.789200
H331	H33	0.505000	0.561200	0.056200
H341	H34	0.378800	0.618600	0.115000
H351	H35	0.241500	0.806100	0.003400
H361	H36	0.353300	0.746200	0.933800
H371	H37	0.994000	0.579900	0.693800
H381	H38	0.014300	0.658300	0.622000
H391	H39	0.818100	0.578100	0.474200
H401	H40	0.773500	0.519500	0.546200
H411	H41	0.920400	0.772500	0.554000
H421	H42	0.940900	0.851400	0.481200
H431	H43	0.971000	0.678000	0.352800
H441	H44	0.955200	0.599800	0.430200
H451	H45	0.971900	0.514500	0.916000
H461	H46	0.187800	0.561100	0.880000
H471	H47	0.136800	0.647900	0.897200
H481	H48	0.230700	0.590600	0.951600
H491	H49	0.966400	0.617900	0.993400
H501	H50	0.087900	0.627900	0.025000
H511	H51	0.994500	0.685000	0.970200
H521	H52	0.135000	0.430100	0.750800
H531	H53	0.213400	0.395200	0.817200
H541	H54	0.325600	0.421900	0.786800
H551	H55	0.348900	0.339700	0.755200
H561	H56	0.267300	0.411900	0.711800
H571	H57	0.839600	0.012300	0.054600
H581	H58	0.657300	0.075500	0.986200
H591	H59	0.532600	0.122700	0.144200
H601	H60	0.708900	0.052600	0.210800
H611	H61	0.448800	0.061200	0.943800
H621	H62	0.263800	0.118600	0.885000
H631	H63	0.238100	0.306100	0.996600
H641	H64	0.419500	0.246200	0.066200
H651	H65	0.300200	0.079900	0.306200
H661	H66	0.392300	0.158300	0.378000
H671	H67	0.343900	0.078100	0.525800
H681	H68	0.227300	0.019500	0.453800
H691	H69	0.366400	0.272500	0.446000
H701	H70	0.459700	0.351400	0.518800
H711	H71	0.618200	0.178000	0.647200
H721	H72	0.525000	0.099800	0.569800
H731	H73	0.055900	0.014500	0.084000
H741	H74	0.307800	0.061100	0.120000
H751	H75	0.239600	0.147900	0.102800
H761	H76	0.279100	0.090600	0.048400
H771	H77	0.973000	0.117900	0.006600
H781	H78	0.062900	0.127900	0.975000
H791	H79	0.024300	0.185000	0.029800
H801	H80	0.384200	0.930100	0.249200
H811	H81	0.396200	0.895200	0.182800
H821	H82	0.538800	0.921900	0.213200
H831	H83	0.593700	0.839700	0.244800
H841	H84	0.555500	0.911900	0.288200
H851	H85	0.215000	0.487700	0.054600
H861	H86	0.328900	0.424500	0.986200
H871	H87	0.611600	0.377300	0.144200
H881	H88	0.501900	0.447400	0.210800
H891	H89	0.495000	0.438800	0.943800
H901	H90	0.621200	0.381400	0.885000
H911	H91	0.758500	0.193900	0.996600
H921	H92	0.646700	0.253800	0.066200
H931	H93	0.006000	0.420100	0.306200
H941	H94	0.985700	0.341700	0.378000
H951	H95	0.181900	0.421900	0.525800
H961	H96	0.226500	0.480500	0.453800
H971	H97	0.079600	0.227500	0.446000
H981	H98	0.059100	0.148600	0.518800
H991	H99	0.029000	0.322000	0.647200
H1001	H100	0.044800	0.400200	0.569800
H1011	H101	0.028100	0.485500	0.084000
H1021	H102	0.812200	0.438900	0.120000
H1031	H103	0.863200	0.352100	0.102800
H1041	H104	0.769300	0.409400	0.048400
H1051	H105	0.033600	0.382100	0.006600
H1061	H106	0.912100	0.372100	0.975000
H1071	H107	0.005500	0.315000	0.029800
H1081	H108	0.865000	0.569900	0.249200
H1091	H109	0.786600	0.604800	0.182800
H1101	H110	0.674400	0.578100	0.213200
H1111	H111	0.651100	0.660300	0.244800
H1121	H112	0.732700	0.588100	0.288200
C11	C1	0.092000	0.022700	0.818200
C21	C2	0.206260	0.976400	0.860720
C31	C3	0.222800	0.967200	0.928000
C41	C4	0.331520	0.927700	0.968840
C51	C5	0.424200	0.892900	0.942000
C61	C6	0.406200	0.900700	0.873800
C71	C7	0.300850	0.942000	0.833700
C81	C8	0.542880	0.853800	0.985360
C91	C9	0.593580	0.890800	0.043560
C101	C10	0.702530	0.855400	0.079460
C111	C11	0.768430	0.780000	0.065460
C121	C12	0.720480	0.743800	0.012560
C131	C13	0.610070	0.779400	0.971140
C141	C14	0.888160	0.743500	0.109920
C151	C15	0.806900	0.010400	0.670200
C161	C16	0.749940	0.961300	0.626680
C171	C17	0.696870	0.918200	0.649540
C181	C18	0.638580	0.871600	0.605360
C191	C19	0.626640	0.869500	0.539080
C201	C20	0.670020	0.915800	0.519040
C211	C21	0.735620	0.955600	0.563440
C221	C22	0.565010	0.823500	0.499220
C231	C23	0.581890	0.747900	0.513980
C241	C24	0.523260	0.699600	0.470520
C251	C25	0.443950	0.730200	0.414700
C261	C26	0.428500	0.803300	0.394200
C271	C27	0.489800	0.849700	0.441400
C281	C28	0.381670	0.682600	0.368540
C291	C29	0.872220	0.978600	0.902240
C301	C30	0.748360	0.903700	0.913520
C311	C31	0.959270	0.867300	0.985140
C321	C32	0.580200	0.117700	0.771000
C331	C33	0.462600	0.110400	0.754800
C341	C34	0.726200	0.477300	0.818200
C351	C35	0.654460	0.523600	0.860720
C361	C36	0.705200	0.532800	0.928000
C371	C37	0.637320	0.572300	0.968840
C381	C38	0.517800	0.607100	0.942000
C391	C39	0.467600	0.599300	0.873800
C401	C40	0.532850	0.558000	0.833700
C411	C41	0.442480	0.646200	0.985360
C421	C42	0.449980	0.609200	0.043560
C431	C43	0.376930	0.644600	0.079460
C441	C44	0.297030	0.720000	0.065460
C451	C45	0.292080	0.756200	0.012560
C461	C46	0.361070	0.720600	0.971140
C471	C47	0.221760	0.756500	0.109920
C481	C48	0.863300	0.489600	0.670200
C491	C49	0.876740	0.538700	0.626680
C501	C50	0.952670	0.581800	0.649540
C511	C51	0.966780	0.628400	0.605360
C521	C52	0.912440	0.630500	0.539080
C531	C53	0.849020	0.584200	0.519040
C541	C54	0.827820	0.544400	0.563440
C551	C55	0.934210	0.676500	0.499220
C561	C56	0.932090	0.752100	0.513980
C571	C57	0.947260	0.800400	0.470520
C581	C58	0.970750	0.769800	0.414700
C591	C59	0.965700	0.696700	0.394200
C601	C60	0.951600	0.650300	0.441400
C611	C61	0.986870	0.817400	0.368540
C621	C62	0.030020	0.521400	0.902240
C631	C63	0.165160	0.596300	0.913520
C641	C64	0.025870	0.632700	0.985140
C651	C65	0.190800	0.382300	0.771000
C661	C66	0.292200	0.389600	0.754800
C671	C67	0.908000	0.977300	0.181800
C681	C68	0.793740	0.023600	0.139280
C691	C69	0.777200	0.032800	0.072000
C701	C70	0.668480	0.072300	0.031160
C711	C71	0.575800	0.107100	0.058000
C721	C72	0.593800	0.099300	0.126200
C731	C73	0.699150	0.058000	0.166300
C741	C74	0.457120	0.146200	0.014640
C751	C75	0.406420	0.109200	0.956440
C761	C76	0.297470	0.144600	0.920540
C771	C77	0.231570	0.220000	0.934540
C781	C78	0.279520	0.256200	0.987440
C791	C79	0.389930	0.220600	0.028860
C801	C80	0.111840	0.256500	0.890080
C811	C81	0.193100	0.989600	0.329800
C821	C82	0.250060	0.038700	0.373320
C831	C83	0.303130	0.081800	0.350460
C841	C84	0.361420	0.128400	0.394640
C851	C85	0.373360	0.130500	0.460920
C861	C86	0.329980	0.084200	0.480960
C871	C87	0.264380	0.044400	0.436560
C881	C88	0.434990	0.176500	0.500780
C891	C89	0.418110	0.252100	0.486020
C901	C90	0.476740	0.300400	0.529480
C911	C91	0.556050	0.269800	0.585300
C921	C92	0.571500	0.196700	0.605800
C931	C93	0.510200	0.150300	0.558600
C941	C94	0.618330	0.317400	0.631460
C951	C95	0.127780	0.021400	0.097760
C961	C96	0.251640	0.096300	0.086480
C971	C97	0.040730	0.132700	0.014860
C981	C98	0.419800	0.882300	0.229000
C991	C99	0.537400	0.889600	0.245200
C1001	C100	0.273800	0.522700	0.181800
C1011	C101	0.345540	0.476400	0.139280
C1021	C102	0.294800	0.467200	0.072000
C1031	C103	0.362680	0.427700	0.031160
C1041	C104	0.482200	0.392900	0.058000
C1051	C105	0.532400	0.400700	0.126200
C1061	C106	0.467150	0.442000	0.166300
C1071	C107	0.557520	0.353800	0.014640
C1081	C108	0.550020	0.390800	0.956440
C1091	C109	0.623070	0.355400	0.920540
C1101	C110	0.702970	0.280000	0.934540
C1111	C111	0.707920	0.243800	0.987440
C1121	C112	0.638930	0.279400	0.028860
C1131	C113	0.778240	0.243500	0.890080
C1141	C114	0.136700	0.510400	0.329800
C1151	C115	0.123260	0.461300	0.373320
C1161	C116	0.047330	0.418200	0.350460
C1171	C117	0.033220	0.371600	0.394640
C1181	C118	0.087560	0.369500	0.460920
C1191	C119	0.150980	0.415800	0.480960
C1201	C120	0.172180	0.455600	0.436560
C1211	C121	0.065790	0.323500	0.500780
C1221	C122	0.067910	0.247900	0.486020
C1231	C123	0.052740	0.199600	0.529480
C1241	C124	0.029250	0.230200	0.585300
C1251	C125	0.034300	0.303300	0.605800
C1261	C126	0.048400	0.349700	0.558600
C1271	C127	0.013130	0.182600	0.631460
C1281	C128	0.969980	0.478600	0.097760
C1291	C129	0.834840	0.403700	0.086480
C1301	C130	0.974130	0.367300	0.014860
C1311	C131	0.809200	0.617700	0.229000
C1321	C132	0.707800	0.610400	0.245200
N11	N1	0.859590	0.920100	0.931780
N21	N2	0.072190	0.579900	0.931780
N31	N3	0.140410	0.079900	0.068220
N41	N4	0.927810	0.420100	0.068220
O11	O1	0.007240	0.043000	0.843680
O21	O2	0.087580	0.036770	0.761160
O31	O3	0.808540	0.015500	0.729480
O41	O4	0.858640	0.040780	0.645080
O51	O5	0.936700	0.790680	0.143000
O61	O6	0.931150	0.673230	0.110900
O71	O7	0.390290	0.620300	0.381980
O81	O8	0.320360	0.706400	0.312920
O91	O9	0.098440	0.668750	0.249080
O101	O10	0.649300	0.145600	0.773800
O111	O11	0.802450	0.018570	0.862900
O121	O12	0.836440	0.457000	0.843680
O131	O13	0.673580	0.463230	0.761160
O141	O14	0.920940	0.484500	0.729480
O151	O15	0.786440	0.459220	0.645080
O161	O16	0.206300	0.709320	0.143000
O171	O17	0.179750	0.826770	0.110900
O181	O18	0.991690	0.879700	0.381980
O191	O19	0.992560	0.793600	0.312920
O201	O20	0.150640	0.831250	0.249080
O211	O21	0.124500	0.354400	0.773800
O221	O22	0.060450	0.481430	0.862900
O231	O23	0.992760	0.957000	0.156320
O241	O24	0.912420	0.963230	0.238840
O251	O25	0.191460	0.984500	0.270520
O261	O26	0.141360	0.959220	0.354920
O271	O27	0.063300	0.209320	0.857000
O281	O28	0.068850	0.326770	0.889100
O291	O29	0.609710	0.379700	0.618020
O301	O30	0.679640	0.293600	0.687080
O311	O31	0.901560	0.331250	0.750920
O321	O32	0.350700	0.854400	0.226200
O331	O33	0.197550	0.981430	0.137100
O341	O34	0.163560	0.543000	0.156320
O351	O35	0.326420	0.536770	0.238840
O361	O36	0.079060	0.515500	0.270520
O371	O37	0.213560	0.540780	0.354920
O381	O38	0.793700	0.290680	0.857000
O391	O39	0.820250	0.173230	0.889100
O401	O40	0.008310	0.120300	0.618020
O411	O41	0.007440	0.206400	0.687080
O421	O42	0.849360	0.168750	0.750920
O431	O43	0.875500	0.645600	0.226200
O441	O44	0.939550	0.518570	0.137100
