data_OFEHAK_freeONLY_PM
_symmetry_space_group_name_H-M	'P1'
_cell_length_a	15.123000
_cell_length_b	17.481400
_cell_length_c	17.481400
_cell_angle_alpha	79.216700
_cell_angle_beta	64.370800
_cell_angle_gamma	64.370800
_symmetry_Int_Tables_number 1

loop_
_symmetry_equiv_pos_as_xyz
'x,y,z'

loop_
_atom_site_label
_atom_site_type_symbol
_atom_site_fract_x
_atom_site_fract_y
_atom_site_fract_z
Cd11	Cd1	0.127910	0.411840	0.933680
Cd21	Cd2	0.973430	0.088160	0.566320
Cd31	Cd3	0.061590	0.066320	0.911840
Cd41	Cd4	0.539750	0.433680	0.588160
Cd51	Cd5	0.872090	0.588160	0.066320
Cd61	Cd6	0.026570	0.911840	0.433680
Cd71	Cd7	0.938410	0.933680	0.088160
Cd81	Cd8	0.460250	0.566320	0.411840
H11	H1	0.787800	0.407300	0.018100
H21	H2	0.281800	0.079000	0.926600
H31	H3	0.461100	0.011600	0.840000
H41	H4	0.434200	0.206200	0.675800
H51	H5	0.255000	0.273600	0.762200
H61	H6	0.610400	0.018200	0.719200
H71	H7	0.584500	0.065200	0.641000
H81	H8	0.602200	0.111700	0.698300
H91	H9	0.207000	0.396000	0.032000
H101	H10	0.118000	0.382000	0.098000
H111	H11	0.713200	0.092700	0.481900
H121	H12	0.787400	0.421000	0.573400
H131	H13	0.812700	0.488400	0.660000
H141	H14	0.816200	0.293800	0.824200
H151	H15	0.790800	0.226400	0.737800
H161	H16	0.847800	0.481800	0.780800
H171	H17	0.790700	0.434800	0.859000
H181	H18	0.912200	0.388300	0.801700
H191	H19	0.135000	0.104000	0.468000
H201	H20	0.098000	0.118000	0.402000
H211	H21	0.805900	0.981900	0.907300
H221	H22	0.208400	0.073400	0.579000
H231	H23	0.301100	0.160000	0.511600
H241	H24	0.110000	0.324200	0.706200
H251	H25	0.017200	0.237800	0.773600
H261	H26	0.329600	0.280800	0.518200
H271	H27	0.225500	0.359000	0.565200
H281	H28	0.300500	0.301700	0.611700
H291	H29	0.239000	0.968000	0.896000
H301	H30	0.216000	0.902000	0.882000
H311	H31	0.195100	0.518100	0.592700
H321	H32	0.360800	0.426600	0.921000
H331	H33	0.472700	0.340000	0.988400
H341	H34	0.640400	0.175800	0.793800
H351	H35	0.528600	0.262200	0.726400
H361	H36	0.628600	0.219200	0.981800
H371	H37	0.649700	0.141000	0.934800
H381	H38	0.713900	0.198300	0.888300
H391	H39	0.603000	0.532000	0.604000
H401	H40	0.500000	0.598000	0.618000
H411	H41	0.212200	0.592700	0.981900
H421	H42	0.718200	0.921000	0.073400
H431	H43	0.538900	0.988400	0.160000
H441	H44	0.565800	0.793800	0.324200
H451	H45	0.745000	0.726400	0.237800
H461	H46	0.389600	0.981800	0.280800
H471	H47	0.415500	0.934800	0.359000
H481	H48	0.397800	0.888300	0.301700
H491	H49	0.793000	0.604000	0.968000
H501	H50	0.882000	0.618000	0.902000
H511	H51	0.286800	0.907300	0.518100
H521	H52	0.212600	0.579000	0.426600
H531	H53	0.187300	0.511600	0.340000
H541	H54	0.183800	0.706200	0.175800
H551	H55	0.209200	0.773600	0.262200
H561	H56	0.152200	0.518200	0.219200
H571	H57	0.209300	0.565200	0.141000
H581	H58	0.087800	0.611700	0.198300
H591	H59	0.865000	0.896000	0.532000
H601	H60	0.902000	0.882000	0.598000
H611	H61	0.194100	0.018100	0.092700
H621	H62	0.791600	0.926600	0.421000
H631	H63	0.698900	0.840000	0.488400
H641	H64	0.890000	0.675800	0.293800
H651	H65	0.982800	0.762200	0.226400
H661	H66	0.670400	0.719200	0.481800
H671	H67	0.774500	0.641000	0.434800
H681	H68	0.699500	0.698300	0.388300
H691	H69	0.761000	0.032000	0.104000
H701	H70	0.784000	0.098000	0.118000
H711	H71	0.804900	0.481900	0.407300
H721	H72	0.639200	0.573400	0.079000
H731	H73	0.527300	0.660000	0.011600
H741	H74	0.359600	0.824200	0.206200
H751	H75	0.471400	0.737800	0.273600
H761	H76	0.371400	0.780800	0.018200
H771	H77	0.350300	0.859000	0.065200
H781	H78	0.286100	0.801700	0.111700
H791	H79	0.397000	0.468000	0.396000
H801	H80	0.500000	0.402000	0.382000
C11	C1	0.902500	0.405100	0.015700
C21	C2	0.974400	0.322500	0.978300
C31	C3	0.960500	0.251000	0.973000
C41	C4	0.860300	0.235900	0.999700
C51	C5	0.128700	0.222700	0.911100
C61	C6	0.250600	0.183000	0.853000
C71	C7	0.312400	0.104500	0.876300
C81	C8	0.419800	0.064100	0.824500
C91	C9	0.465400	0.102200	0.749400
C101	C10	0.403700	0.180700	0.726100
C111	C11	0.296300	0.221100	0.777900
C121	C12	0.574000	0.072000	0.698000
C131	C13	0.823300	0.094900	0.484300
C141	C14	0.775200	0.177500	0.521700
C151	C15	0.684500	0.249000	0.527000
C161	C16	0.595900	0.264100	0.500300
C171	C17	0.762500	0.277300	0.588900
C181	C18	0.786600	0.317000	0.647000
C191	C19	0.793200	0.395500	0.623700
C201	C20	0.808400	0.435900	0.675500
C211	C21	0.817000	0.397800	0.750600
C221	C22	0.810500	0.319300	0.773900
C231	C23	0.795300	0.278900	0.722100
C241	C24	0.844000	0.428000	0.802000
C251	C25	0.918200	0.984300	0.905100
C261	C26	0.952700	0.021700	0.822500
C271	C27	0.933500	0.027000	0.751000
C281	C28	0.860000	0.000300	0.735900
C291	C29	0.039800	0.088900	0.722700
C301	C30	0.103600	0.147000	0.683000
C311	C31	0.188700	0.123700	0.604500
C321	C32	0.244300	0.175500	0.564100
C331	C33	0.214800	0.250600	0.602200
C341	C34	0.129800	0.273900	0.680700
C351	C35	0.074200	0.222100	0.721100
C361	C36	0.272000	0.302000	0.572000
C371	C37	0.307600	0.515700	0.594900
C381	C38	0.296900	0.478300	0.677500
C391	C39	0.211500	0.473000	0.749000
C401	C40	0.096200	0.499700	0.764100
C411	C41	0.351400	0.411100	0.777300
C421	C42	0.433600	0.353000	0.817000
C431	C43	0.416900	0.376300	0.895500
C441	C44	0.483900	0.324500	0.935900
C451	C45	0.567600	0.249400	0.897800
C461	C46	0.584400	0.226100	0.819300
C471	C47	0.517400	0.277900	0.778900
C481	C48	0.646000	0.198000	0.928000
C491	C49	0.097500	0.594900	0.984300
C501	C50	0.025600	0.677500	0.021700
C511	C51	0.039500	0.749000	0.027000
C521	C52	0.139700	0.764100	0.000300
C531	C53	0.871300	0.777300	0.088900
C541	C54	0.749400	0.817000	0.147000
C551	C55	0.687600	0.895500	0.123700
C561	C56	0.580200	0.935900	0.175500
C571	C57	0.534600	0.897800	0.250600
C581	C58	0.596300	0.819300	0.273900
C591	C59	0.703700	0.778900	0.222100
C601	C60	0.426000	0.928000	0.302000
C611	C61	0.176700	0.905100	0.515700
C621	C62	0.224800	0.822500	0.478300
C631	C63	0.315500	0.751000	0.473000
C641	C64	0.404100	0.735900	0.499700
C651	C65	0.237500	0.722700	0.411100
C661	C66	0.213400	0.683000	0.353000
C671	C67	0.206800	0.604500	0.376300
C681	C68	0.191600	0.564100	0.324500
C691	C69	0.183000	0.602200	0.249400
C701	C70	0.189500	0.680700	0.226100
C711	C71	0.204700	0.721100	0.277900
C721	C72	0.156000	0.572000	0.198000
C731	C73	0.081800	0.015700	0.094900
C741	C74	0.047300	0.978300	0.177500
C751	C75	0.066500	0.973000	0.249000
C761	C76	0.140000	0.999700	0.264100
C771	C77	0.960200	0.911100	0.277300
C781	C78	0.896400	0.853000	0.317000
C791	C79	0.811300	0.876300	0.395500
C801	C80	0.755700	0.824500	0.435900
C811	C81	0.785200	0.749400	0.397800
C821	C82	0.870200	0.726100	0.319300
C831	C83	0.925800	0.777900	0.278900
C841	C84	0.728000	0.698000	0.428000
C851	C85	0.692400	0.484300	0.405100
C861	C86	0.703100	0.521700	0.322500
C871	C87	0.788500	0.527000	0.251000
C881	C88	0.903800	0.500300	0.235900
C891	C89	0.648600	0.588900	0.222700
C901	C90	0.566400	0.647000	0.183000
C911	C91	0.583100	0.623700	0.104500
C921	C92	0.516100	0.675500	0.064100
C931	C93	0.432400	0.750600	0.102200
C941	C94	0.415600	0.773900	0.180700
C951	C95	0.482600	0.722100	0.221100
C961	C96	0.354000	0.802000	0.072000
N11	N1	0.081700	0.305200	0.937000
N21	N2	0.057400	0.189000	0.928000
N31	N3	0.823900	0.194800	0.563000
N41	N4	0.674400	0.311000	0.572000
N51	N5	0.018700	0.063000	0.805200
N61	N6	0.985400	0.072000	0.689000
N71	N7	0.386900	0.437000	0.694800
N81	N8	0.246400	0.428000	0.811000
N91	N9	0.918300	0.694800	0.063000
N101	N10	0.942600	0.811000	0.072000
N111	N11	0.176100	0.805200	0.437000
N121	N12	0.325600	0.689000	0.428000
N131	N13	0.981300	0.937000	0.194800
N141	N14	0.014600	0.928000	0.311000
N151	N15	0.613100	0.563000	0.305200
N161	N16	0.753600	0.572000	0.189000
O11	O1	0.940700	0.453000	0.018800
O21	O2	0.805200	0.421800	0.049600
O31	O3	0.772500	0.297400	0.038400
O41	O4	0.870400	0.166600	0.985600
O51	O5	0.179400	0.359600	0.044400
O61	O6	0.912500	0.047000	0.481200
O71	O7	0.776600	0.078200	0.450400
O81	O8	0.608300	0.202600	0.461600
O91	O9	0.522600	0.333400	0.514400
O101	O10	0.083400	0.140400	0.455600
O111	O11	0.959500	0.981200	0.953000
O121	O12	0.854800	0.950400	0.921800
O131	O13	0.810900	0.961600	0.797400
O141	O14	0.856000	0.014400	0.666600
O151	O15	0.223800	0.955600	0.859600
O161	O16	0.393700	0.518800	0.547000
O171	O17	0.227000	0.549600	0.578200
O181	O18	0.069900	0.538400	0.702600
O191	O19	0.037000	0.485600	0.833400
O201	O20	0.539000	0.544400	0.640400
O211	O21	0.059300	0.547000	0.981200
O221	O22	0.194800	0.578200	0.950400
O231	O23	0.227500	0.702600	0.961600
O241	O24	0.129600	0.833400	0.014400
O251	O25	0.820600	0.640400	0.955600
O261	O26	0.087500	0.953000	0.518800
O271	O27	0.223400	0.921800	0.549600
O281	O28	0.391700	0.797400	0.538400
O291	O29	0.477400	0.666600	0.485600
O301	O30	0.916600	0.859600	0.544400
O311	O31	0.040500	0.018800	0.047000
O321	O32	0.145200	0.049600	0.078200
O331	O33	0.189100	0.038400	0.202600
O341	O34	0.144000	0.985600	0.333400
O351	O35	0.776200	0.044400	0.140400
O361	O36	0.606300	0.481200	0.453000
O371	O37	0.773000	0.450400	0.421800
O381	O38	0.930100	0.461600	0.297400
O391	O39	0.963000	0.514400	0.166600
O401	O40	0.461000	0.455600	0.359600
