data_OFERUN06_freeONLY_PM
_symmetry_space_group_name_H-M	'P1'
_cell_length_a	14.751000
_cell_length_b	14.751000
_cell_length_c	14.751000
_cell_angle_alpha	109.471000
_cell_angle_beta	109.471000
_cell_angle_gamma	109.471000
_symmetry_Int_Tables_number 1

loop_
_symmetry_equiv_pos_as_xyz
'x,y,z'

loop_
_atom_site_label
_atom_site_type_symbol
_atom_site_fract_x
_atom_site_fract_y
_atom_site_fract_z
Zn11	Zn1	0.250000	0.500000	0.750000
Zn21	Zn2	0.500000	0.750000	0.250000
Zn31	Zn3	0.750000	0.250000	0.500000
Zn41	Zn4	0.500000	0.250000	0.750000
Zn51	Zn5	0.250000	0.750000	0.500000
Zn61	Zn6	0.750000	0.500000	0.250000
H11	H1	0.656400	0.236800	0.136000
H21	H2	0.419600	0.899200	0.763200
H31	H3	0.343600	0.479600	0.580400
H41	H4	0.656400	0.136000	0.236800
H51	H5	0.236800	0.656400	0.136000
H61	H6	0.419600	0.763200	0.899200
H71	H7	0.864000	0.100800	0.520400
H81	H8	0.580400	0.343600	0.479600
H91	H9	0.899200	0.419600	0.763200
H101	H10	0.136000	0.656400	0.236800
H111	H11	0.899200	0.763200	0.419600
H121	H12	0.236800	0.136000	0.656400
H131	H13	0.100800	0.520400	0.864000
H141	H14	0.864000	0.520400	0.100800
H151	H15	0.580400	0.479600	0.343600
H161	H16	0.763200	0.419600	0.899200
H171	H17	0.100800	0.864000	0.520400
H181	H18	0.136000	0.236800	0.656400
H191	H19	0.520400	0.100800	0.864000
H201	H20	0.479600	0.343600	0.580400
H211	H21	0.343600	0.580400	0.479600
H221	H22	0.520400	0.864000	0.100800
H231	H23	0.763200	0.899200	0.419600
H241	H24	0.479600	0.580400	0.343600
C11	C1	0.414850	0.944300	0.732350
C21	C2	0.944300	0.414850	0.732350
C31	C3	0.317500	0.529450	0.585150
C41	C4	0.383540	0.754080	0.383540
C51	C5	0.370540	0.616460	0.000000
C61	C6	0.414850	0.732350	0.944300
C71	C7	0.680400	0.680400	0.189400
C81	C8	0.585150	0.529450	0.317500
C91	C9	0.055700	0.470550	0.788050
C101	C10	0.629460	0.629460	0.245920
C111	C11	0.000000	0.509000	0.319600
C121	C12	0.319600	0.000000	0.509000
C131	C13	0.509000	0.000000	0.319600
C141	C14	0.629460	0.245920	0.629460
C151	C15	0.491000	0.491000	0.810600
C161	C16	0.189400	0.680400	0.680400
C171	C17	0.732350	0.944300	0.414850
C181	C18	0.682500	0.267650	0.211950
C191	C19	0.944300	0.732350	0.414850
C201	C20	0.585150	0.317500	0.529450
C211	C21	0.245920	0.629460	0.629460
C221	C22	0.317500	0.585150	0.529450
C231	C23	0.788050	0.055700	0.470550
C241	C24	0.267650	0.211950	0.682500
C251	C25	0.470550	0.055700	0.788050
C261	C26	0.529450	0.585150	0.317500
C271	C27	0.682500	0.211950	0.267650
C281	C28	0.754080	0.383540	0.383540
C291	C29	0.000000	0.616460	0.370540
C301	C30	0.055700	0.788050	0.470550
C311	C31	0.491000	0.810600	0.491000
C321	C32	0.000000	0.319600	0.509000
C331	C33	0.211950	0.267650	0.682500
C341	C34	0.616460	0.370540	0.000000
C351	C35	0.509000	0.319600	0.000000
C361	C36	0.370540	0.000000	0.616460
C371	C37	0.211950	0.682500	0.267650
C381	C38	0.319600	0.509000	0.000000
C391	C39	0.267650	0.682500	0.211950
C401	C40	0.470550	0.788050	0.055700
C411	C41	0.000000	0.370540	0.616460
C421	C42	0.732350	0.414850	0.944300
C431	C43	0.616460	0.000000	0.370540
C441	C44	0.383540	0.383540	0.754080
C451	C45	0.529450	0.317500	0.585150
C461	C46	0.810600	0.491000	0.491000
C471	C47	0.680400	0.189400	0.680400
C481	C48	0.788050	0.470550	0.055700
N11	N1	0.272450	0.650590	0.558220
N21	N2	0.349410	0.621860	0.907630
N31	N3	0.441780	0.092370	0.714230
N41	N4	0.441780	0.714230	0.092370
N51	N5	0.650590	0.272450	0.558220
N61	N6	0.558220	0.650590	0.272450
N71	N7	0.558220	0.272450	0.650590
N81	N8	0.378140	0.285770	0.727550
N91	N9	0.092370	0.714230	0.441780
N101	N10	0.907630	0.349410	0.621860
N111	N11	0.621860	0.349410	0.907630
N121	N12	0.621860	0.907630	0.349410
N131	N13	0.727550	0.285770	0.378140
N141	N14	0.378140	0.727550	0.285770
N151	N15	0.285770	0.378140	0.727550
N161	N16	0.349410	0.907630	0.621860
N171	N17	0.092370	0.441780	0.714230
N181	N18	0.650590	0.558220	0.272450
N191	N19	0.727550	0.378140	0.285770
N201	N20	0.714230	0.441780	0.092370
N211	N21	0.272450	0.558220	0.650590
N221	N22	0.907630	0.621860	0.349410
N231	N23	0.285770	0.727550	0.378140
N241	N24	0.714230	0.092370	0.441780
