data_OFEZEF_freeONLY_PM
_symmetry_space_group_name_H-M	'P1'
_cell_length_a	16.795000
_cell_length_b	16.795000
_cell_length_c	16.795000
_cell_angle_alpha	90.000000
_cell_angle_beta	90.000000
_cell_angle_gamma	90.000000
_symmetry_Int_Tables_number 1

loop_
_symmetry_equiv_pos_as_xyz
'x,y,z'

loop_
_atom_site_label
_atom_site_type_symbol
_atom_site_fract_x
_atom_site_fract_y
_atom_site_fract_z
O11	O1	0.094900	0.525300	0.195400
O21	O2	0.594900	0.025300	0.695400
O31	O3	0.905100	0.474700	0.195400
O41	O4	0.405100	0.974700	0.695400
O51	O5	0.905100	0.525300	0.804600
O61	O6	0.405100	0.025300	0.304600
O71	O7	0.094900	0.474700	0.804600
O81	O8	0.594900	0.974700	0.304600
O91	O9	0.195400	0.094900	0.525300
O101	O10	0.695400	0.594900	0.025300
O111	O11	0.195400	0.905100	0.474700
O121	O12	0.695400	0.405100	0.974700
O131	O13	0.804600	0.905100	0.525300
O141	O14	0.304600	0.405100	0.025300
O151	O15	0.804600	0.094900	0.474700
O161	O16	0.304600	0.594900	0.974700
O171	O17	0.525300	0.195400	0.094900
O181	O18	0.025300	0.695400	0.594900
O191	O19	0.474700	0.195400	0.905100
O201	O20	0.974700	0.695400	0.405100
O211	O21	0.525300	0.804600	0.905100
O221	O22	0.025300	0.304600	0.405100
O231	O23	0.474700	0.804600	0.094900
O241	O24	0.974700	0.304600	0.594900
O251	O25	0.525300	0.094900	0.195400
O261	O26	0.025300	0.594900	0.695400
O271	O27	0.474700	0.905100	0.195400
O281	O28	0.974700	0.405100	0.695400
O291	O29	0.525300	0.905100	0.804600
O301	O30	0.025300	0.405100	0.304600
O311	O31	0.474700	0.094900	0.804600
O321	O32	0.974700	0.594900	0.304600
O331	O33	0.094900	0.195400	0.525300
O341	O34	0.594900	0.695400	0.025300
O351	O35	0.905100	0.195400	0.474700
O361	O36	0.405100	0.695400	0.974700
O371	O37	0.905100	0.804600	0.525300
O381	O38	0.405100	0.304600	0.025300
O391	O39	0.094900	0.804600	0.474700
O401	O40	0.594900	0.304600	0.974700
O411	O41	0.195400	0.525300	0.094900
O421	O42	0.695400	0.025300	0.594900
O431	O43	0.195400	0.474700	0.905100
O441	O44	0.695400	0.974700	0.405100
O451	O45	0.804600	0.525300	0.905100
O461	O46	0.304600	0.025300	0.405100
O471	O47	0.804600	0.474700	0.094900
O481	O48	0.304600	0.974700	0.594900
Al11	Al1	0.000000	0.500000	0.250000
Al21	Al2	0.000000	0.500000	0.750000
Al31	Al3	0.500000	0.000000	0.250000
Al41	Al4	0.250000	0.000000	0.500000
Al51	Al5	0.750000	0.000000	0.500000
Al61	Al6	0.250000	0.500000	0.000000
Al71	Al7	0.500000	0.250000	0.000000
Al81	Al8	0.500000	0.750000	0.000000
Al91	Al9	0.000000	0.250000	0.500000
Al101	Al10	0.500000	0.000000	0.750000
Al111	Al11	0.000000	0.750000	0.500000
Al121	Al12	0.750000	0.500000	0.000000
Al131	Al13	0.000000	0.500000	0.000000
Al141	Al14	0.500000	0.000000	0.500000
Al151	Al15	0.000000	0.000000	0.500000
Al161	Al16	0.500000	0.500000	0.000000
Al171	Al17	0.500000	0.000000	0.000000
Al181	Al18	0.000000	0.500000	0.500000
P11	P1	0.122430	0.570890	0.122430
O491	O49	0.141800	0.655400	0.141800
O501	O50	0.057600	0.566600	0.057600
P21	P2	0.622430	0.070890	0.622430
O511	O51	0.641800	0.155400	0.641800
O521	O52	0.557600	0.066600	0.557600
P31	P3	0.877570	0.429110	0.122430
O531	O53	0.858200	0.344600	0.141800
O541	O54	0.942400	0.433400	0.057600
P41	P4	0.377570	0.929110	0.622430
O551	O55	0.358200	0.844600	0.641800
O561	O56	0.442400	0.933400	0.557600
P51	P5	0.877570	0.570890	0.877570
O571	O57	0.858200	0.655400	0.858200
O581	O58	0.942400	0.566600	0.942400
P61	P6	0.377570	0.070890	0.377570
O591	O59	0.358200	0.155400	0.358200
O601	O60	0.442400	0.066600	0.442400
P71	P7	0.122430	0.429110	0.877570
O611	O61	0.141800	0.344600	0.858200
O621	O62	0.057600	0.433400	0.942400
P81	P8	0.622430	0.929110	0.377570
O631	O63	0.641800	0.844600	0.358200
O641	O64	0.557600	0.933400	0.442400
P91	P9	0.122430	0.122430	0.570890
O651	O65	0.141800	0.141800	0.655400
O661	O66	0.057600	0.057600	0.566600
P101	P10	0.622430	0.622430	0.070890
O671	O67	0.641800	0.641800	0.155400
O681	O68	0.557600	0.557600	0.066600
P111	P11	0.122430	0.877570	0.429110
O691	O69	0.141800	0.858200	0.344600
O701	O70	0.057600	0.942400	0.433400
P121	P12	0.622430	0.377570	0.929110
O711	O71	0.641800	0.358200	0.844600
O721	O72	0.557600	0.442400	0.933400
P131	P13	0.877570	0.877570	0.570890
O731	O73	0.858200	0.858200	0.655400
O741	O74	0.942400	0.942400	0.566600
P141	P14	0.377570	0.377570	0.070890
O751	O75	0.358200	0.358200	0.155400
O761	O76	0.442400	0.442400	0.066600
P151	P15	0.877570	0.122430	0.429110
O771	O77	0.858200	0.141800	0.344600
O781	O78	0.942400	0.057600	0.433400
P161	P16	0.377570	0.622430	0.929110
O791	O79	0.358200	0.641800	0.844600
O801	O80	0.442400	0.557600	0.933400
P171	P17	0.570890	0.122430	0.122430
O811	O81	0.655400	0.141800	0.141800
O821	O82	0.566600	0.057600	0.057600
P181	P18	0.070890	0.622430	0.622430
O831	O83	0.155400	0.641800	0.641800
O841	O84	0.066600	0.557600	0.557600
P191	P19	0.429110	0.122430	0.877570
O851	O85	0.344600	0.141800	0.858200
O861	O86	0.433400	0.057600	0.942400
P201	P20	0.929110	0.622430	0.377570
O871	O87	0.844600	0.641800	0.358200
O881	O88	0.933400	0.557600	0.442400
P211	P21	0.570890	0.877570	0.877570
O891	O89	0.655400	0.858200	0.858200
O901	O90	0.566600	0.942400	0.942400
P221	P22	0.070890	0.377570	0.377570
O911	O91	0.155400	0.358200	0.358200
O921	O92	0.066600	0.442400	0.442400
P231	P23	0.429110	0.877570	0.122430
O931	O93	0.344600	0.858200	0.141800
O941	O94	0.433400	0.942400	0.057600
P241	P24	0.929110	0.377570	0.622430
O951	O95	0.844600	0.358200	0.641800
O961	O96	0.933400	0.442400	0.557600
