data_OFIWIK_charged_PM
_symmetry_space_group_name_H-M	'P1'
_cell_length_a	9.065500
_cell_length_b	16.767900
_cell_length_c	16.767900
_cell_angle_alpha	90.000000
_cell_angle_beta	90.000000
_cell_angle_gamma	90.000000
_symmetry_Int_Tables_number 1

loop_
_symmetry_equiv_pos_as_xyz
'x,y,z'

loop_
_atom_site_label
_atom_site_type_symbol
_atom_site_fract_x
_atom_site_fract_y
_atom_site_fract_z
Zn11	Zn1	0.832660	0.083250	0.213800
Zn21	Zn2	0.832660	0.916750	0.786200
Zn31	Zn3	0.832660	0.786200	0.083250
Zn41	Zn4	0.832660	0.213800	0.916750
Zn51	Zn5	0.332660	0.083250	0.786200
Zn61	Zn6	0.332660	0.916750	0.213800
Zn71	Zn7	0.332660	0.786200	0.916750
Zn81	Zn8	0.332660	0.213800	0.083250
Zn91	Zn9	0.101060	0.000000	0.500000
Zn101	Zn10	0.101060	0.500000	0.000000
Zn111	Zn11	0.601060	0.000000	0.500000
Zn121	Zn12	0.601060	0.500000	0.000000
P11	P1	0.846300	0.096810	0.405120
P21	P2	0.003740	0.928320	0.160380
P31	P3	0.846300	0.903190	0.594880
P41	P4	0.003740	0.071680	0.839620
P51	P5	0.846300	0.594880	0.096810
P61	P6	0.003740	0.839620	0.928320
P71	P7	0.846300	0.405120	0.903190
P81	P8	0.003740	0.160380	0.071680
P91	P9	0.346300	0.096810	0.594880
P101	P10	0.503740	0.928320	0.839620
P111	P11	0.346300	0.903190	0.405120
P121	P12	0.503740	0.071680	0.160380
P131	P13	0.346300	0.594880	0.903190
P141	P14	0.503740	0.839620	0.071680
P151	P15	0.346300	0.405120	0.096810
P161	P16	0.503740	0.160380	0.928320
H11	H1	0.029000	0.961000	0.089000
H21	H2	0.800000	0.163000	0.436000
H31	H3	0.029000	0.039000	0.911000
H41	H4	0.800000	0.837000	0.564000
H51	H5	0.029000	0.911000	0.961000
H61	H6	0.800000	0.564000	0.163000
H71	H7	0.029000	0.089000	0.039000
H81	H8	0.800000	0.436000	0.837000
H91	H9	0.529000	0.961000	0.911000
H101	H10	0.300000	0.163000	0.564000
H111	H11	0.529000	0.039000	0.089000
H121	H12	0.300000	0.837000	0.436000
H131	H13	0.529000	0.911000	0.039000
H141	H14	0.300000	0.564000	0.837000
H151	H15	0.529000	0.089000	0.961000
H161	H16	0.300000	0.436000	0.163000
O11	O1	0.973500	0.993100	0.215300
O21	O2	0.873000	0.866700	0.156000
O31	O3	0.130200	0.956800	0.212400
O41	O4	0.984000	0.082800	0.454800
O51	O5	0.883400	0.117000	0.320200
O61	O6	0.731500	0.031700	0.412600
O71	O7	0.973500	0.006900	0.784700
O81	O8	0.873000	0.133300	0.844000
O91	O9	0.130200	0.043200	0.787600
O101	O10	0.984000	0.917200	0.545200
O111	O11	0.883400	0.883000	0.679800
O121	O12	0.731500	0.968300	0.587400
O131	O13	0.973500	0.784700	0.993100
O141	O14	0.873000	0.844000	0.866700
O151	O15	0.130200	0.787600	0.956800
O161	O16	0.984000	0.545200	0.082800
O171	O17	0.883400	0.679800	0.117000
O181	O18	0.731500	0.587400	0.031700
O191	O19	0.973500	0.215300	0.006900
O201	O20	0.873000	0.156000	0.133300
O211	O21	0.130200	0.212400	0.043200
O221	O22	0.984000	0.454800	0.917200
O231	O23	0.883400	0.320200	0.883000
O241	O24	0.731500	0.412600	0.968300
O251	O25	0.473500	0.993100	0.784700
O261	O26	0.373000	0.866700	0.844000
O271	O27	0.630200	0.956800	0.787600
O281	O28	0.484000	0.082800	0.545200
O291	O29	0.383400	0.117000	0.679800
O301	O30	0.231500	0.031700	0.587400
O311	O31	0.473500	0.006900	0.215300
O321	O32	0.373000	0.133300	0.156000
O331	O33	0.630200	0.043200	0.212400
O341	O34	0.484000	0.917200	0.454800
O351	O35	0.383400	0.883000	0.320200
O361	O36	0.231500	0.968300	0.412600
O371	O37	0.473500	0.784700	0.006900
O381	O38	0.373000	0.844000	0.133300
O391	O39	0.630200	0.787600	0.043200
O401	O40	0.484000	0.545200	0.917200
O411	O41	0.383400	0.679800	0.883000
O421	O42	0.231500	0.587400	0.968300
O431	O43	0.473500	0.215300	0.993100
O441	O44	0.373000	0.156000	0.866700
O451	O45	0.630200	0.212400	0.956800
O461	O46	0.484000	0.454800	0.082800
O471	O47	0.383400	0.320200	0.117000
O481	O48	0.231500	0.412600	0.031700
H171	H17	0.977700	0.321500	0.176100
H181	H18	0.930300	0.398300	0.130500
H191	H19	0.728600	0.393400	0.161500
H201	H20	0.608800	0.289400	0.123200
H211	H21	0.709000	0.331100	0.070000
H221	H22	0.752300	0.255300	0.104900
H231	H23	0.669400	0.291700	0.274100
H241	H24	0.580600	0.363800	0.239800
H251	H25	0.070000	0.400200	0.255300
H261	H26	0.973400	0.471400	0.225900
H271	H27	0.896500	0.467600	0.344400
H281	H28	0.935300	0.377500	0.355300
H291	H29	0.710500	0.370900	0.366200
H301	H30	0.682400	0.445800	0.313400
C11	C1	0.915400	0.368400	0.179400
C21	C2	0.765500	0.341700	0.180000
C31	C3	0.678900	0.345400	0.253200
C41	C4	0.969400	0.416600	0.244200
C51	C5	0.887700	0.415400	0.320000
C61	C6	0.736400	0.395900	0.315900
N11	N1	0.703000	0.300500	0.113200
H311	H31	0.977700	0.678500	0.823900
H321	H32	0.930300	0.601700	0.869500
H331	H33	0.728600	0.606600	0.838500
H341	H34	0.608800	0.710600	0.876800
H351	H35	0.709000	0.668900	0.930000
H361	H36	0.752300	0.744700	0.895100
H371	H37	0.669400	0.708300	0.725900
H381	H38	0.580600	0.636200	0.760200
H391	H39	0.070000	0.599800	0.744700
H401	H40	0.973400	0.528600	0.774100
H411	H41	0.896500	0.532400	0.655600
H421	H42	0.935300	0.622500	0.644700
H431	H43	0.710500	0.629100	0.633800
H441	H44	0.682400	0.554200	0.686600
C71	C7	0.915400	0.631600	0.820600
C81	C8	0.765500	0.658300	0.820000
C91	C9	0.678900	0.654600	0.746800
C101	C10	0.969400	0.583400	0.755800
C111	C11	0.887700	0.584600	0.680000
C121	C12	0.736400	0.604100	0.684100
N21	N2	0.703000	0.699500	0.886800
H451	H45	0.977700	0.823900	0.321500
H461	H46	0.930300	0.869500	0.398300
H471	H47	0.728600	0.838500	0.393400
H481	H48	0.608800	0.876800	0.289400
H491	H49	0.709000	0.930000	0.331100
H501	H50	0.752300	0.895100	0.255300
H511	H51	0.669400	0.725900	0.291700
H521	H52	0.580600	0.760200	0.363800
H531	H53	0.070000	0.744700	0.400200
H541	H54	0.973400	0.774100	0.471400
H551	H55	0.896500	0.655600	0.467600
H561	H56	0.935300	0.644700	0.377500
H571	H57	0.710500	0.633800	0.370900
H581	H58	0.682400	0.686600	0.445800
C131	C13	0.915400	0.820600	0.368400
C141	C14	0.765500	0.820000	0.341700
C151	C15	0.678900	0.746800	0.345400
C161	C16	0.969400	0.755800	0.416600
C171	C17	0.887700	0.680000	0.415400
C181	C18	0.736400	0.684100	0.395900
N31	N3	0.703000	0.886800	0.300500
H591	H59	0.977700	0.176100	0.678500
H601	H60	0.930300	0.130500	0.601700
H611	H61	0.728600	0.161500	0.606600
H621	H62	0.608800	0.123200	0.710600
H631	H63	0.709000	0.070000	0.668900
H641	H64	0.752300	0.104900	0.744700
H651	H65	0.669400	0.274100	0.708300
H661	H66	0.580600	0.239800	0.636200
H671	H67	0.070000	0.255300	0.599800
H681	H68	0.973400	0.225900	0.528600
H691	H69	0.896500	0.344400	0.532400
H701	H70	0.935300	0.355300	0.622500
H711	H71	0.710500	0.366200	0.629100
H721	H72	0.682400	0.313400	0.554200
C191	C19	0.915400	0.179400	0.631600
C201	C20	0.765500	0.180000	0.658300
C211	C21	0.678900	0.253200	0.654600
C221	C22	0.969400	0.244200	0.583400
C231	C23	0.887700	0.320000	0.584600
C241	C24	0.736400	0.315900	0.604100
N41	N4	0.703000	0.113200	0.699500
H731	H73	0.477700	0.321500	0.823900
H741	H74	0.430300	0.398300	0.869500
H751	H75	0.228600	0.393400	0.838500
H761	H76	0.108800	0.289400	0.876800
H771	H77	0.209000	0.331100	0.930000
H781	H78	0.252300	0.255300	0.895100
H791	H79	0.169400	0.291700	0.725900
H801	H80	0.080600	0.363800	0.760200
H811	H81	0.570000	0.400200	0.744700
H821	H82	0.473400	0.471400	0.774100
H831	H83	0.396500	0.467600	0.655600
H841	H84	0.435300	0.377500	0.644700
H851	H85	0.210500	0.370900	0.633800
H861	H86	0.182400	0.445800	0.686600
C251	C25	0.415400	0.368400	0.820600
C261	C26	0.265500	0.341700	0.820000
C271	C27	0.178900	0.345400	0.746800
C281	C28	0.469400	0.416600	0.755800
C291	C29	0.387700	0.415400	0.680000
C301	C30	0.236400	0.395900	0.684100
N51	N5	0.203000	0.300500	0.886800
H871	H87	0.477700	0.678500	0.176100
H881	H88	0.430300	0.601700	0.130500
H891	H89	0.228600	0.606600	0.161500
H901	H90	0.108800	0.710600	0.123200
H911	H91	0.209000	0.668900	0.070000
H921	H92	0.252300	0.744700	0.104900
H931	H93	0.169400	0.708300	0.274100
H941	H94	0.080600	0.636200	0.239800
H951	H95	0.570000	0.599800	0.255300
H961	H96	0.473400	0.528600	0.225900
H971	H97	0.396500	0.532400	0.344400
H981	H98	0.435300	0.622500	0.355300
H991	H99	0.210500	0.629100	0.366200
H1001	H100	0.182400	0.554200	0.313400
C311	C31	0.415400	0.631600	0.179400
C321	C32	0.265500	0.658300	0.180000
C331	C33	0.178900	0.654600	0.253200
C341	C34	0.469400	0.583400	0.244200
C351	C35	0.387700	0.584600	0.320000
C361	C36	0.236400	0.604100	0.315900
N61	N6	0.203000	0.699500	0.113200
H1011	H101	0.477700	0.823900	0.678500
H1021	H102	0.430300	0.869500	0.601700
H1031	H103	0.228600	0.838500	0.606600
H1041	H104	0.108800	0.876800	0.710600
H1051	H105	0.209000	0.930000	0.668900
H1061	H106	0.252300	0.895100	0.744700
H1071	H107	0.169400	0.725900	0.708300
H1081	H108	0.080600	0.760200	0.636200
H1091	H109	0.570000	0.744700	0.599800
H1101	H110	0.473400	0.774100	0.528600
H1111	H111	0.396500	0.655600	0.532400
H1121	H112	0.435300	0.644700	0.622500
H1131	H113	0.210500	0.633800	0.629100
H1141	H114	0.182400	0.686600	0.554200
C371	C37	0.415400	0.820600	0.631600
C381	C38	0.265500	0.820000	0.658300
C391	C39	0.178900	0.746800	0.654600
C401	C40	0.469400	0.755800	0.583400
C411	C41	0.387700	0.680000	0.584600
C421	C42	0.236400	0.684100	0.604100
N71	N7	0.203000	0.886800	0.699500
H1151	H115	0.477700	0.176100	0.321500
H1161	H116	0.430300	0.130500	0.398300
H1171	H117	0.228600	0.161500	0.393400
H1181	H118	0.108800	0.123200	0.289400
H1191	H119	0.209000	0.070000	0.331100
H1201	H120	0.252300	0.104900	0.255300
H1211	H121	0.169400	0.274100	0.291700
H1221	H122	0.080600	0.239800	0.363800
H1231	H123	0.570000	0.255300	0.400200
H1241	H124	0.473400	0.225900	0.471400
H1251	H125	0.396500	0.344400	0.467600
H1261	H126	0.435300	0.355300	0.377500
H1271	H127	0.210500	0.366200	0.370900
H1281	H128	0.182400	0.313400	0.445800
C431	C43	0.415400	0.179400	0.368400
C441	C44	0.265500	0.180000	0.341700
C451	C45	0.178900	0.253200	0.345400
C461	C46	0.469400	0.244200	0.416600
C471	C47	0.387700	0.320000	0.415400
C481	C48	0.236400	0.315900	0.395900
N81	N8	0.203000	0.113200	0.300500
