data_OFUYUL_SL_PM
_symmetry_space_group_name_H-M	'P1'
_cell_length_a	18.384700
_cell_length_b	12.925600
_cell_length_c	14.555000
_cell_angle_alpha	90.000000
_cell_angle_beta	120.068300
_cell_angle_gamma	90.000000
_symmetry_Int_Tables_number 1

loop_
_symmetry_equiv_pos_as_xyz
'x,y,z'

loop_
_atom_site_label
_atom_site_type_symbol
_atom_site_fract_x
_atom_site_fract_y
_atom_site_fract_z
Zn11	Zn1	0.182100	0.513780	0.501820
Zn21	Zn2	0.654490	0.447070	0.253740
H31	H3	0.498500	0.330800	0.715200
H41	H4	0.490900	0.074600	0.555300
H51	H5	0.289600	0.261900	0.437800
H61	H6	0.957200	0.237500	0.237300
H71	H7	0.732400	0.272800	0.216700
H81	H8	0.930800	0.440500	0.427200
C91	C9	0.342900	0.400500	0.593500
C101	C10	0.386500	0.309200	0.580600
C111	C11	0.469500	0.286000	0.658100
C121	C12	0.509500	0.196800	0.651200
C131	C13	0.465300	0.134000	0.561900
C141	C14	0.384600	0.157400	0.482900
C151	C15	0.340700	0.094300	0.382000
C161	C16	0.343900	0.245700	0.491000
C171	C17	0.047400	0.378200	0.383100
C181	C18	0.957700	0.344300	0.340200
C191	C19	0.923600	0.269400	0.259900
C201	C20	0.839500	0.243200	0.214400
C211	C21	0.803400	0.162300	0.127800
C221	C22	0.788800	0.291100	0.247600
C231	C23	0.822300	0.366300	0.327000
C241	C24	0.907600	0.391400	0.373300
O251	O25	0.384000	0.457800	0.673000
O261	O26	0.268200	0.414100	0.523500
O271	O27	0.588100	0.177100	0.729700
O281	O28	0.377800	0.011800	0.381900
O291	O29	0.274300	0.123900	0.306500
O301	O30	0.076400	0.442000	0.459300
O311	O31	0.088500	0.346400	0.342700
O321	O32	0.855000	0.117700	0.108000
O331	O33	0.728800	0.140500	0.083000
O341	O34	0.772500	0.415200	0.358300
H351	H35	0.619530	0.254470	0.749590
H361	H36	0.227500	0.662170	0.614220
Zn371	Zn37	0.817900	0.013780	0.998180
Zn381	Zn38	0.345510	0.947070	0.246260
H391	H39	0.501500	0.830800	0.784800
H401	H40	0.509100	0.574600	0.944700
H411	H41	0.710400	0.761900	0.062200
H421	H42	0.042800	0.737500	0.262700
H431	H43	0.267600	0.772800	0.283300
H441	H44	0.069200	0.940500	0.072800
C451	C45	0.657100	0.900500	0.906500
C461	C46	0.613500	0.809200	0.919400
C471	C47	0.530500	0.786000	0.841900
C481	C48	0.490500	0.696800	0.848800
C491	C49	0.534700	0.634000	0.938100
C501	C50	0.615400	0.657400	0.017100
C511	C51	0.659300	0.594300	0.118000
C521	C52	0.656100	0.745700	0.009000
C531	C53	0.952600	0.878200	0.116900
C541	C54	0.042300	0.844300	0.159800
C551	C55	0.076400	0.769400	0.240100
C561	C56	0.160500	0.743200	0.285600
C571	C57	0.196600	0.662300	0.372200
C581	C58	0.211200	0.791100	0.252400
C591	C59	0.177700	0.866300	0.173000
C601	C60	0.092400	0.891400	0.126700
O611	O61	0.616000	0.957800	0.827000
O621	O62	0.731800	0.914100	0.976500
O631	O63	0.411900	0.677100	0.770300
O641	O64	0.622200	0.511800	0.118100
O651	O65	0.725700	0.623900	0.193500
O661	O66	0.923600	0.942000	0.040700
O671	O67	0.911500	0.846400	0.157300
O681	O68	0.145000	0.617700	0.392000
O691	O69	0.271200	0.640500	0.417000
O701	O70	0.227500	0.915200	0.141700
H711	H71	0.380470	0.754470	0.750410
H721	H72	0.772500	0.162170	0.885780
Zn731	Zn73	0.817900	0.486220	0.498180
Zn741	Zn74	0.345510	0.552930	0.746260
H751	H75	0.501500	0.669200	0.284800
H761	H76	0.509100	0.925400	0.444700
H771	H77	0.710400	0.738100	0.562200
H781	H78	0.042800	0.762500	0.762700
H791	H79	0.267600	0.727200	0.783300
H801	H80	0.069200	0.559500	0.572800
C811	C81	0.657100	0.599500	0.406500
C821	C82	0.613500	0.690800	0.419400
C831	C83	0.530500	0.714000	0.341900
C841	C84	0.490500	0.803200	0.348800
C851	C85	0.534700	0.866000	0.438100
C861	C86	0.615400	0.842600	0.517100
C871	C87	0.659300	0.905700	0.618000
C881	C88	0.656100	0.754300	0.509000
C891	C89	0.952600	0.621800	0.616900
C901	C90	0.042300	0.655700	0.659800
C911	C91	0.076400	0.730600	0.740100
C921	C92	0.160500	0.756800	0.785600
C931	C93	0.196600	0.837700	0.872200
C941	C94	0.211200	0.708900	0.752400
C951	C95	0.177700	0.633700	0.673000
C961	C96	0.092400	0.608600	0.626700
O971	O97	0.616000	0.542200	0.327000
O981	O98	0.731800	0.585900	0.476500
O991	O99	0.411900	0.822900	0.270300
O1001	O100	0.622200	0.988200	0.618100
O1011	O101	0.725700	0.876100	0.693500
O1021	O102	0.923600	0.558000	0.540700
O1031	O103	0.911500	0.653600	0.657300
O1041	O104	0.145000	0.882300	0.892000
O1051	O105	0.271200	0.859500	0.917000
O1061	O106	0.227500	0.584800	0.641700
H1071	H107	0.380470	0.745530	0.250410
H1081	H108	0.772500	0.337830	0.385780
Zn1091	Zn109	0.182100	0.986220	0.001820
Zn1101	Zn110	0.654490	0.052930	0.753740
H1111	H111	0.498500	0.169200	0.215200
H1121	H112	0.490900	0.425400	0.055300
H1131	H113	0.289600	0.238100	0.937800
H1141	H114	0.957200	0.262500	0.737300
H1151	H115	0.732400	0.227200	0.716700
H1161	H116	0.930800	0.059500	0.927200
C1171	C117	0.342900	0.099500	0.093500
C1181	C118	0.386500	0.190800	0.080600
C1191	C119	0.469500	0.214000	0.158100
C1201	C120	0.509500	0.303200	0.151200
C1211	C121	0.465300	0.366000	0.061900
C1221	C122	0.384600	0.342600	0.982900
C1231	C123	0.340700	0.405700	0.882000
C1241	C124	0.343900	0.254300	0.991000
C1251	C125	0.047400	0.121800	0.883100
C1261	C126	0.957700	0.155700	0.840200
C1271	C127	0.923600	0.230600	0.759900
C1281	C128	0.839500	0.256800	0.714400
C1291	C129	0.803400	0.337700	0.627800
C1301	C130	0.788800	0.208900	0.747600
C1311	C131	0.822300	0.133700	0.827000
C1321	C132	0.907600	0.108600	0.873300
O1331	O133	0.384000	0.042200	0.173000
O1341	O134	0.268200	0.085900	0.023500
O1351	O135	0.588100	0.322900	0.229700
O1361	O136	0.377800	0.488200	0.881900
O1371	O137	0.274300	0.376100	0.806500
O1381	O138	0.076400	0.058000	0.959300
O1391	O139	0.088500	0.153600	0.842700
O1401	O140	0.855000	0.382300	0.608000
O1411	O141	0.728800	0.359500	0.583000
O1421	O142	0.772500	0.084800	0.858300
H1431	H143	0.619530	0.245530	0.249590
H1441	H144	0.227500	0.837830	0.114220
