data_OGAGIN_freeONLY_PM
_symmetry_space_group_name_H-M	'P1'
_cell_length_a	9.771400
_cell_length_b	9.979700
_cell_length_c	22.922900
_cell_angle_alpha	90.000000
_cell_angle_beta	91.535000
_cell_angle_gamma	90.000000
_symmetry_Int_Tables_number 1

loop_
_symmetry_equiv_pos_as_xyz
'x,y,z'

loop_
_atom_site_label
_atom_site_type_symbol
_atom_site_fract_x
_atom_site_fract_y
_atom_site_fract_z
Zn11	Zn1	0.107520	0.317960	0.010870
Zn21	Zn2	0.346380	0.358830	0.503700
Zn31	Zn3	0.392480	0.817960	0.989130
Zn41	Zn4	0.153620	0.858830	0.496300
Zn51	Zn5	0.892480	0.682040	0.989130
Zn61	Zn6	0.653620	0.641170	0.496300
Zn71	Zn7	0.607520	0.182040	0.010870
Zn81	Zn8	0.846380	0.141170	0.503700
P11	P1	0.630980	0.337060	0.446190
P21	P2	0.827760	0.412510	0.059850
P31	P3	0.869020	0.837060	0.553810
P41	P4	0.672240	0.912510	0.940150
P51	P5	0.369020	0.662940	0.553810
P61	P6	0.172240	0.587490	0.940150
P71	P7	0.130980	0.162940	0.446190
P81	P8	0.327760	0.087490	0.059850
H11	H1	0.519400	0.421700	0.608100
H21	H2	0.663100	0.316900	0.675400
H31	H3	0.544100	0.960800	0.606800
H41	H4	0.399300	0.074300	0.542600
H51	H5	0.802700	0.028400	0.667900
H61	H6	0.675700	0.966400	0.700800
H71	H7	0.806200	0.212500	0.734400
H81	H8	0.682000	0.145800	0.768200
H91	H9	0.821900	0.956900	0.790700
H101	H10	0.945700	0.024800	0.757700
H111	H11	0.806900	0.281300	0.834100
H121	H12	0.894700	0.371100	0.920200
H131	H13	0.037300	0.951700	0.864300
H141	H14	0.121000	0.049600	0.949400
H151	H15	0.678500	0.335150	0.394700
H161	H16	0.789200	0.465700	0.108300
H171	H17	0.980600	0.921700	0.391900
H181	H18	0.836900	0.816900	0.324600
H191	H19	0.955900	0.460800	0.393200
H201	H20	0.100700	0.574300	0.457400
H211	H21	0.697300	0.528400	0.332100
H221	H22	0.824300	0.466400	0.299200
H231	H23	0.693800	0.712500	0.265600
H241	H24	0.818000	0.645800	0.231800
H251	H25	0.678100	0.456900	0.209300
H261	H26	0.554300	0.524800	0.242300
H271	H27	0.693100	0.781300	0.165900
H281	H28	0.605300	0.871100	0.079800
H291	H29	0.462700	0.451700	0.135700
H301	H30	0.379000	0.549600	0.050600
H311	H31	0.821500	0.835150	0.605300
H321	H32	0.710800	0.965700	0.891700
H331	H33	0.480600	0.578300	0.391900
H341	H34	0.336900	0.683100	0.324600
H351	H35	0.455900	0.039200	0.393200
H361	H36	0.600700	0.925700	0.457400
H371	H37	0.197300	0.971600	0.332100
H381	H38	0.324300	0.033600	0.299200
H391	H39	0.193800	0.787500	0.265600
H401	H40	0.318000	0.854200	0.231800
H411	H41	0.178100	0.043100	0.209300
H421	H42	0.054300	0.975200	0.242300
H431	H43	0.193100	0.718700	0.165900
H441	H44	0.105300	0.628900	0.079800
H451	H45	0.962700	0.048300	0.135700
H461	H46	0.879000	0.950400	0.050600
H471	H47	0.321500	0.664850	0.605300
H481	H48	0.210800	0.534300	0.891700
H491	H49	0.019400	0.078300	0.608100
H501	H50	0.163100	0.183100	0.675400
H511	H51	0.044100	0.539200	0.606800
H521	H52	0.899300	0.425700	0.542600
H531	H53	0.302700	0.471600	0.667900
H541	H54	0.175700	0.533600	0.700800
H551	H55	0.306200	0.287500	0.734400
H561	H56	0.182000	0.354200	0.768200
H571	H57	0.321900	0.543100	0.790700
H581	H58	0.445700	0.475200	0.757700
H591	H59	0.306900	0.218700	0.834100
H601	H60	0.394700	0.128900	0.920200
H611	H61	0.537300	0.548300	0.864300
H621	H62	0.621000	0.450400	0.949400
H631	H63	0.178500	0.164850	0.394700
H641	H64	0.289200	0.034300	0.108300
C11	C1	0.523800	0.326640	0.608160
C21	C2	0.611090	0.264750	0.648200
C31	C3	0.622590	0.125320	0.648520
C41	C4	0.540610	0.055870	0.608050
C51	C5	0.454140	0.124210	0.569650
C61	C6	0.719560	0.051550	0.689440
C71	C7	0.763550	0.126150	0.744930
C81	C8	0.865100	0.043850	0.781610
C91	C9	0.914840	0.106730	0.838090
C101	C10	0.872400	0.232100	0.856740
C111	C11	0.925400	0.285320	0.908300
C121	C12	0.007720	0.039000	0.874490
C131	C13	0.057270	0.097810	0.925390
C141	C14	0.976200	0.826640	0.391840
C151	C15	0.888910	0.764750	0.351800
C161	C16	0.877410	0.625320	0.351480
C171	C17	0.959390	0.555870	0.391950
C181	C18	0.045860	0.624210	0.430350
C191	C19	0.780440	0.551550	0.310560
C201	C20	0.736450	0.626150	0.255070
C211	C21	0.634900	0.543850	0.218390
C221	C22	0.585160	0.606730	0.161910
C231	C23	0.627600	0.732100	0.143260
C241	C24	0.574600	0.785320	0.091700
C251	C25	0.492280	0.539000	0.125510
C261	C26	0.442730	0.597810	0.074610
C271	C27	0.476200	0.673360	0.391840
C281	C28	0.388910	0.735250	0.351800
C291	C29	0.377410	0.874680	0.351480
C301	C30	0.459390	0.944130	0.391950
C311	C31	0.545860	0.875790	0.430350
C321	C32	0.280440	0.948450	0.310560
C331	C33	0.236450	0.873850	0.255070
C341	C34	0.134900	0.956150	0.218390
C351	C35	0.085160	0.893270	0.161910
C361	C36	0.127600	0.767900	0.143260
C371	C37	0.074600	0.714680	0.091700
C381	C38	0.992280	0.961000	0.125510
C391	C39	0.942730	0.902190	0.074610
C401	C40	0.023800	0.173360	0.608160
C411	C41	0.111090	0.235250	0.648200
C421	C42	0.122590	0.374680	0.648520
C431	C43	0.040610	0.444130	0.608050
C441	C44	0.954140	0.375790	0.569650
C451	C45	0.219560	0.448450	0.689440
C461	C46	0.263550	0.373850	0.744930
C471	C47	0.365100	0.456150	0.781610
C481	C48	0.414840	0.393270	0.838090
C491	C49	0.372400	0.267900	0.856740
C501	C50	0.425400	0.214680	0.908300
C511	C51	0.507720	0.461000	0.874490
C521	C52	0.557270	0.402190	0.925390
N11	N1	0.444870	0.259090	0.569210
N21	N2	0.018170	0.221390	0.942220
N31	N3	0.055130	0.759090	0.430790
N41	N4	0.481830	0.721390	0.057780
N51	N5	0.555130	0.740910	0.430790
N61	N6	0.981830	0.778610	0.057780
N71	N7	0.944870	0.240910	0.569210
N81	N8	0.518170	0.278610	0.942220
O11	O1	0.978850	0.376990	0.069090
O21	O2	0.474490	0.347240	0.438830
O31	O3	0.673930	0.206840	0.474790
O41	O4	0.693130	0.458400	0.476510
O51	O5	0.740160	0.291390	0.050270
O61	O6	0.804050	0.518060	0.013080
O71	O7	0.521150	0.876990	0.930910
O81	O8	0.025510	0.847240	0.561170
O91	O9	0.826070	0.706840	0.525210
O101	O10	0.806870	0.958400	0.523490
O111	O11	0.759840	0.791390	0.949730
O121	O12	0.695950	0.018060	0.986920
O131	O13	0.021150	0.623010	0.930910
O141	O14	0.525510	0.652760	0.561170
O151	O15	0.326070	0.793160	0.525210
O161	O16	0.306870	0.541600	0.523490
O171	O17	0.259840	0.708610	0.949730
O181	O18	0.195950	0.481940	0.986920
O191	O19	0.478850	0.123010	0.069090
O201	O20	0.974490	0.152760	0.438830
O211	O21	0.173930	0.293160	0.474790
O221	O22	0.193130	0.041600	0.476510
O231	O23	0.240160	0.208610	0.050270
O241	O24	0.304050	0.981940	0.013080
