data_OGAGEJ_freeONLY_PM
_symmetry_space_group_name_H-M	'P1'
_cell_length_a	10.334000
_cell_length_b	11.545100
_cell_length_c	28.446900
_cell_angle_alpha	90.000000
_cell_angle_beta	90.000000
_cell_angle_gamma	115.309000
_symmetry_Int_Tables_number 1

loop_
_symmetry_equiv_pos_as_xyz
'x,y,z'

loop_
_atom_site_label
_atom_site_type_symbol
_atom_site_fract_x
_atom_site_fract_y
_atom_site_fract_z
Zn11	Zn1	0.090270	0.007670	0.937670
Zn21	Zn2	0.330540	0.334250	0.522060
Zn31	Zn3	0.909730	0.492330	0.437670
Zn41	Zn4	0.669460	0.165750	0.022060
Zn51	Zn5	0.909730	0.992330	0.062330
Zn61	Zn6	0.669460	0.665750	0.477940
Zn71	Zn7	0.090270	0.507670	0.562330
Zn81	Zn8	0.330540	0.834250	0.977940
P11	P1	0.405770	0.122970	0.954890
P21	P2	0.064150	0.830370	0.022870
P31	P3	0.594230	0.377030	0.454890
P41	P4	0.935850	0.669630	0.522870
P51	P5	0.594230	0.877030	0.045110
P61	P6	0.935850	0.169630	0.977130
P71	P7	0.405770	0.622970	0.545110
P81	P8	0.064150	0.330370	0.477130
H11	H1	0.929200	0.032700	0.857100
H21	H2	0.906700	0.000600	0.777200
H31	H3	0.221400	0.880700	0.782800
H41	H4	0.238600	0.919200	0.862800
H51	H5	0.944700	0.863300	0.710800
H61	H6	0.074800	0.000400	0.702600
H71	H7	0.237200	0.907800	0.700800
H81	H8	0.111200	0.770000	0.712500
H91	H9	0.151600	0.774300	0.631800
H101	H10	0.999300	0.777200	0.638600
H111	H11	0.968800	0.970200	0.615100
H121	H12	0.053800	0.158300	0.572600
H131	H13	0.432200	0.154900	0.560100
H141	H14	0.358900	0.970800	0.604400
H151	H15	0.477490	0.194200	0.920600
H161	H16	0.965720	0.727300	0.034540
H171	H17	0.070800	0.467300	0.357100
H181	H18	0.093300	0.499400	0.277200
H191	H19	0.778600	0.619300	0.282800
H201	H20	0.761400	0.580800	0.362800
H211	H21	0.055300	0.636700	0.210800
H221	H22	0.925200	0.499600	0.202600
H231	H23	0.762800	0.592200	0.200800
H241	H24	0.888800	0.730000	0.212500
H251	H25	0.848400	0.725700	0.131800
H261	H26	0.000700	0.722800	0.138600
H271	H27	0.031200	0.529800	0.115100
H281	H28	0.946200	0.341700	0.072600
H291	H29	0.567800	0.345100	0.060100
H301	H30	0.641100	0.529200	0.104400
H311	H31	0.522510	0.305800	0.420600
H321	H32	0.034280	0.772700	0.534540
H331	H33	0.070800	0.967300	0.142900
H341	H34	0.093300	0.999400	0.222800
H351	H35	0.778600	0.119300	0.217200
H361	H36	0.761400	0.080800	0.137200
H371	H37	0.055300	0.136700	0.289200
H381	H38	0.925200	0.999600	0.297400
H391	H39	0.762800	0.092200	0.299200
H401	H40	0.888800	0.230000	0.287500
H411	H41	0.848400	0.225700	0.368200
H421	H42	0.000700	0.222800	0.361400
H431	H43	0.031200	0.029800	0.384900
H441	H44	0.946200	0.841700	0.427400
H451	H45	0.567800	0.845100	0.439900
H461	H46	0.641100	0.029200	0.395600
H471	H47	0.522510	0.805800	0.079400
H481	H48	0.034280	0.272700	0.965460
H491	H49	0.929200	0.532700	0.642900
H501	H50	0.906700	0.500600	0.722800
H511	H51	0.221400	0.380700	0.717200
H521	H52	0.238600	0.419200	0.637200
H531	H53	0.944700	0.363300	0.789200
H541	H54	0.074800	0.500400	0.797400
H551	H55	0.237200	0.407800	0.799200
H561	H56	0.111200	0.270000	0.787500
H571	H57	0.151600	0.274300	0.868200
H581	H58	0.999300	0.277200	0.861400
H591	H59	0.968800	0.470200	0.884900
H601	H60	0.053800	0.658300	0.927400
H611	H61	0.432200	0.654900	0.939900
H621	H62	0.358900	0.470800	0.895600
H631	H63	0.477490	0.694200	0.579400
H641	H64	0.965720	0.227300	0.465460
C11	C1	0.989730	0.001830	0.841670
C21	C2	0.975490	0.982730	0.794010
C31	C3	0.062540	0.936930	0.770350
C41	C4	0.160610	0.912810	0.797320
C51	C5	0.169890	0.935270	0.845130
C61	C6	0.047010	0.916210	0.717970
C71	C7	0.134010	0.852260	0.696210
C81	C8	0.103690	0.826890	0.643400
C91	C9	0.154540	0.948430	0.615050
C101	C10	0.065280	0.007350	0.604520
C111	C11	0.116170	0.119040	0.578880
C121	C12	0.337070	0.117440	0.571920
C131	C13	0.293690	0.006980	0.598040
C141	C14	0.010270	0.498170	0.341670
C151	C15	0.024510	0.517270	0.294010
C161	C16	0.937460	0.563070	0.270350
C171	C17	0.839390	0.587190	0.297320
C181	C18	0.830110	0.564730	0.345130
C191	C19	0.952990	0.583790	0.217970
C201	C20	0.865990	0.647740	0.196210
C211	C21	0.896310	0.673110	0.143400
C221	C22	0.845460	0.551570	0.115050
C231	C23	0.934720	0.492650	0.104520
C241	C24	0.883830	0.380960	0.078880
C251	C25	0.662930	0.382560	0.071920
C261	C26	0.706310	0.493020	0.098040
C271	C27	0.010270	0.998170	0.158330
C281	C28	0.024510	0.017270	0.205990
C291	C29	0.937460	0.063070	0.229650
C301	C30	0.839390	0.087190	0.202680
C311	C31	0.830110	0.064730	0.154870
C321	C32	0.952990	0.083790	0.282030
C331	C33	0.865990	0.147740	0.303790
C341	C34	0.896310	0.173110	0.356600
C351	C35	0.845460	0.051570	0.384950
C361	C36	0.934720	0.992650	0.395480
C371	C37	0.883830	0.880960	0.421120
C381	C38	0.662930	0.882560	0.428080
C391	C39	0.706310	0.993020	0.401960
C401	C40	0.989730	0.501830	0.658330
C411	C41	0.975490	0.482730	0.705990
C421	C42	0.062540	0.436930	0.729650
C431	C43	0.160610	0.412810	0.702680
C441	C44	0.169890	0.435270	0.654870
C451	C45	0.047010	0.416210	0.782030
C461	C46	0.134010	0.352260	0.803790
C471	C47	0.103690	0.326890	0.856600
C481	C48	0.154540	0.448430	0.884950
C491	C49	0.065280	0.507350	0.895480
C501	C50	0.116170	0.619040	0.921120
C511	C51	0.337070	0.617440	0.928080
C521	C52	0.293690	0.506980	0.901960
N11	N1	0.085390	0.978990	0.867670
N21	N2	0.250980	0.174960	0.562290
N31	N3	0.914610	0.521010	0.367670
N41	N4	0.749020	0.325040	0.062290
N51	N5	0.914610	0.021010	0.132330
N61	N6	0.749020	0.825040	0.437710
N71	N7	0.085390	0.478990	0.632330
N81	N8	0.250980	0.674960	0.937710
O11	O1	0.371100	0.986030	0.941250
O21	O2	0.269720	0.143890	0.959950
O31	O3	0.043900	0.848960	0.971040
O41	O4	0.204110	0.818160	0.031210
O51	O5	0.056710	0.931970	0.054920
O61	O6	0.497280	0.171100	0.998380
O71	O7	0.628900	0.513970	0.441250
O81	O8	0.730280	0.356110	0.459950
O91	O9	0.956100	0.651040	0.471040
O101	O10	0.795890	0.681840	0.531210
O111	O11	0.943290	0.568030	0.554920
O121	O12	0.502720	0.328900	0.498380
O131	O13	0.628900	0.013970	0.058750
O141	O14	0.730280	0.856110	0.040050
O151	O15	0.956100	0.151040	0.028960
O161	O16	0.795890	0.181840	0.968790
O171	O17	0.943290	0.068030	0.945080
O181	O18	0.502720	0.828900	0.001620
O191	O19	0.371100	0.486030	0.558750
O201	O20	0.269720	0.643890	0.540050
O211	O21	0.043900	0.348960	0.528960
O221	O22	0.204110	0.318160	0.468790
O231	O23	0.056710	0.431970	0.445080
O241	O24	0.497280	0.671100	0.501620
