data_OGIYAF_freeONLY_PM
_symmetry_space_group_name_H-M	'P1'
_cell_length_a	8.306960
_cell_length_b	8.382510
_cell_length_c	8.382500
_cell_angle_alpha	62.186300
_cell_angle_beta	60.297600
_cell_angle_gamma	60.297600
_symmetry_Int_Tables_number 1

loop_
_symmetry_equiv_pos_as_xyz
'x,y,z'

loop_
_atom_site_label
_atom_site_type_symbol
_atom_site_fract_x
_atom_site_fract_y
_atom_site_fract_z
Co11	Co1	0.000000	0.000000	0.000000
Co21	Co2	0.500000	0.500000	0.500000
H11	H1	0.299000	0.750000	0.750000
H21	H2	0.701000	0.250000	0.250000
H31	H3	0.798200	0.701800	0.201800
H41	H4	0.201800	0.798200	0.298200
H51	H5	0.201800	0.298200	0.798200
H61	H6	0.798200	0.201800	0.701800
C11	C1	0.187100	0.750000	0.750000
C21	C2	0.812900	0.250000	0.250000
C31	C3	0.718800	0.781200	0.281200
C41	C4	0.281200	0.718800	0.218800
C51	C5	0.281200	0.218800	0.718800
C61	C6	0.718800	0.281200	0.781200
O11	O1	0.777100	0.906300	0.234900
O21	O2	0.418300	0.593700	0.265100
O31	O3	0.581700	0.734900	0.406300
O41	O4	0.222900	0.765100	0.093700
O51	O5	0.222900	0.093700	0.765100
O61	O6	0.581700	0.406300	0.734900
O71	O7	0.418300	0.265100	0.593700
O81	O8	0.777100	0.234900	0.906300
O91	O9	0.023600	0.843800	0.843800
O101	O10	0.211200	0.656200	0.656200
O111	O11	0.788800	0.343800	0.343800
O121	O12	0.976400	0.156200	0.156200
