data_OGOWAJ_freeONLY_PM
_symmetry_space_group_name_H-M	'P1'
_cell_length_a	20.131900
_cell_length_b	20.131900
_cell_length_c	20.420000
_cell_angle_alpha	61.472100
_cell_angle_beta	61.472100
_cell_angle_gamma	65.338800
_symmetry_Int_Tables_number 1

loop_
_symmetry_equiv_pos_as_xyz
'x,y,z'

loop_
_atom_site_label
_atom_site_type_symbol
_atom_site_fract_x
_atom_site_fract_y
_atom_site_fract_z
Zn11	Zn1	0.824630	0.353330	0.016050
Zn21	Zn2	0.956040	0.427480	0.918560
Zn31	Zn3	0.353330	0.824630	0.516050
Zn41	Zn4	0.427480	0.956040	0.418560
H11	H1	0.681600	0.494000	0.859200
H21	H2	0.838400	0.617600	0.770000
H31	H3	0.776300	0.715700	0.684700
H41	H4	0.685900	0.810100	0.593900
H51	H5	0.594300	0.869500	0.531700
H61	H6	0.494600	0.688800	0.669400
H71	H7	0.561900	0.535700	0.729700
H81	H8	0.620000	0.483000	0.776200
H91	H9	0.650700	0.534700	0.686400
H101	H10	0.476500	0.605300	0.827900
H111	H11	0.511900	0.648700	0.845400
H121	H12	0.529600	0.557400	0.880200
H131	H13	0.291300	0.091300	0.256400
H141	H14	0.180400	0.920800	0.413200
H151	H15	0.088600	0.977200	0.355500
H161	H16	0.993200	0.071200	0.270200
H171	H17	0.930200	0.164200	0.183400
H181	H18	0.103000	0.275000	0.067900
H191	H19	0.234200	0.241400	0.181700
H201	H20	0.174600	0.292600	0.136900
H211	H21	0.144600	0.248400	0.229000
H221	H22	0.307400	0.162800	0.094500
H231	H23	0.265800	0.118200	0.085900
H241	H24	0.251500	0.209100	0.045300
H251	H25	0.564900	0.988700	0.405100
H261	H26	0.647500	0.069500	0.321700
H271	H27	0.518200	0.181400	0.186100
H281	H28	0.442200	0.094600	0.269500
H291	H29	0.670600	0.190600	0.271900
H301	H30	0.752900	0.271300	0.185800
H311	H31	0.711400	0.299200	0.009300
H321	H32	0.635100	0.210500	0.088000
H331	H33	0.494000	0.681600	0.359200
H341	H34	0.617600	0.838400	0.270000
H351	H35	0.715700	0.776300	0.184700
H361	H36	0.810100	0.685900	0.093900
H371	H37	0.869500	0.594300	0.031700
H381	H38	0.688800	0.494600	0.169400
H391	H39	0.535700	0.561900	0.229700
H401	H40	0.483000	0.620000	0.276200
H411	H41	0.534700	0.650700	0.186400
H421	H42	0.605300	0.476500	0.327900
H431	H43	0.648700	0.511900	0.345400
H441	H44	0.557400	0.529600	0.380200
H451	H45	0.091300	0.291300	0.756400
H461	H46	0.920800	0.180400	0.913200
H471	H47	0.977200	0.088600	0.855500
H481	H48	0.071200	0.993200	0.770200
H491	H49	0.164200	0.930200	0.683400
H501	H50	0.275000	0.103000	0.567900
H511	H51	0.241400	0.234200	0.681700
H521	H52	0.292600	0.174600	0.636900
H531	H53	0.248400	0.144600	0.729000
H541	H54	0.162800	0.307400	0.594500
H551	H55	0.118200	0.265800	0.585900
H561	H56	0.209100	0.251500	0.545300
H571	H57	0.988700	0.564900	0.905100
H581	H58	0.069500	0.647500	0.821700
H591	H59	0.181400	0.518200	0.686100
H601	H60	0.094600	0.442200	0.769500
H611	H61	0.190600	0.670600	0.771900
H621	H62	0.271300	0.752900	0.685800
H631	H63	0.299200	0.711400	0.509300
H641	H64	0.210500	0.635100	0.588000
C11	C1	0.701000	0.537800	0.823100
C21	C2	0.767900	0.546300	0.821900
C31	C3	0.794500	0.612500	0.769900
C41	C4	0.758200	0.670800	0.718500
C51	C5	0.648200	0.785600	0.608500
C61	C6	0.593100	0.820700	0.571600
C71	C7	0.536500	0.784900	0.592800
C81	C8	0.533100	0.712700	0.653900
C91	C9	0.593500	0.599100	0.760300
C101	C10	0.665200	0.595400	0.770200
C111	C11	0.693500	0.662700	0.716900
C121	C12	0.645300	0.713100	0.667400
C131	C13	0.586300	0.677500	0.690800
C141	C14	0.607900	0.531900	0.735900
C151	C15	0.521000	0.603000	0.835500
C161	C16	0.808600	0.484600	0.878300
C171	C17	0.479400	0.823800	0.550600
C181	C18	0.251000	0.068400	0.274900
C191	C19	0.244800	0.999200	0.341100
C201	C20	0.184000	0.966800	0.369400
C211	C21	0.129400	0.000000	0.335200
C221	C22	0.014600	0.112600	0.229800
C231	C23	0.977200	0.167800	0.177900
C241	C24	0.009300	0.230100	0.116300
C251	C25	0.080600	0.234400	0.108800
C261	C26	0.192300	0.174900	0.165400
C271	C27	0.197900	0.101700	0.238100
C281	C28	0.134500	0.068700	0.269100
C291	C29	0.084100	0.117900	0.222600
C301	C30	0.117000	0.179400	0.161500
C311	C31	0.185800	0.246000	0.179600
C321	C32	0.260600	0.165400	0.090900
C331	C33	0.303200	0.962400	0.382600
C341	C34	0.967400	0.291200	0.060600
C351	C35	0.555700	0.027700	0.359400
C361	C36	0.605400	0.076600	0.309700
C371	C37	0.592800	0.135000	0.243500
C381	C38	0.529900	0.141500	0.230100
C391	C39	0.483800	0.089600	0.281100
C401	C40	0.644600	0.188600	0.190700
C411	C41	0.679800	0.209400	0.217700
C421	C42	0.729300	0.258500	0.165300
C431	C43	0.706400	0.273600	0.062700
C441	C44	0.658100	0.222100	0.110300
C451	C45	0.537800	0.701000	0.323100
C461	C46	0.546300	0.767900	0.321900
C471	C47	0.612500	0.794500	0.269900
C481	C48	0.670800	0.758200	0.218500
C491	C49	0.785600	0.648200	0.108500
C501	C50	0.820700	0.593100	0.071600
C511	C51	0.784900	0.536500	0.092800
C521	C52	0.712700	0.533100	0.153900
C531	C53	0.599100	0.593500	0.260300
C541	C54	0.595400	0.665200	0.270200
C551	C55	0.662700	0.693500	0.216900
C561	C56	0.713100	0.645300	0.167400
C571	C57	0.677500	0.586300	0.190800
C581	C58	0.531900	0.607900	0.235900
C591	C59	0.603000	0.521000	0.335500
C601	C60	0.484600	0.808600	0.378300
C611	C61	0.823800	0.479400	0.050600
C621	C62	0.068400	0.251000	0.774900
C631	C63	0.999200	0.244800	0.841100
C641	C64	0.966800	0.184000	0.869400
C651	C65	0.000000	0.129400	0.835200
C661	C66	0.112600	0.014600	0.729800
C671	C67	0.167800	0.977200	0.677900
C681	C68	0.230100	0.009300	0.616300
C691	C69	0.234400	0.080600	0.608800
C701	C70	0.174900	0.192300	0.665400
C711	C71	0.101700	0.197900	0.738100
C721	C72	0.068700	0.134500	0.769100
C731	C73	0.117900	0.084100	0.722600
C741	C74	0.179400	0.117000	0.661500
C751	C75	0.246000	0.185800	0.679600
C761	C76	0.165400	0.260600	0.590900
C771	C77	0.962400	0.303200	0.882600
C781	C78	0.291200	0.967400	0.560600
C791	C79	0.027700	0.555700	0.859400
C801	C80	0.076600	0.605400	0.809700
C811	C81	0.135000	0.592800	0.743500
C821	C82	0.141500	0.529900	0.730100
C831	C83	0.089600	0.483800	0.781100
C841	C84	0.188600	0.644600	0.690700
C851	C85	0.209400	0.679800	0.717700
C861	C86	0.258500	0.729300	0.665300
C871	C87	0.273600	0.706400	0.562700
C881	C88	0.222100	0.658100	0.610300
N11	N1	0.495760	0.033360	0.345300
N21	N2	0.744720	0.287720	0.089000
N31	N3	0.033360	0.495760	0.845300
N41	N4	0.287720	0.744720	0.589000
O11	O1	0.774310	0.432110	0.934300
O21	O2	0.872710	0.489710	0.867300
O31	O3	0.483310	0.890310	0.498800
O41	O4	0.432420	0.787220	0.569200
O51	O5	0.354270	0.995870	0.358900
O61	O6	0.296150	0.898350	0.438100
O71	O7	0.002740	0.339740	0.001000
O81	O8	0.898990	0.289590	0.079300
O91	O9	0.432110	0.774310	0.434300
O101	O10	0.489710	0.872710	0.367300
O111	O11	0.890310	0.483310	0.998800
O121	O12	0.787220	0.432420	0.069200
O131	O13	0.995870	0.354270	0.858900
O141	O14	0.898350	0.296150	0.938100
O151	O15	0.339740	0.002740	0.501000
O161	O16	0.289590	0.898990	0.579300
Zn51	Zn5	0.646670	0.175370	0.483950
Zn61	Zn6	0.572520	0.043960	0.581440
Zn71	Zn7	0.175370	0.646670	0.983950
Zn81	Zn8	0.043960	0.572520	0.081440
H651	H65	0.506000	0.318400	0.640800
H661	H66	0.382400	0.161600	0.730000
H671	H67	0.284300	0.223700	0.815300
H681	H68	0.189900	0.314100	0.906100
H691	H69	0.130500	0.405700	0.968300
H701	H70	0.311200	0.505400	0.830600
H711	H71	0.464300	0.438100	0.770300
H721	H72	0.517000	0.380000	0.723800
H731	H73	0.465300	0.349300	0.813600
H741	H74	0.394700	0.523500	0.672100
H751	H75	0.351300	0.488100	0.654600
H761	H76	0.442600	0.470400	0.619800
H771	H77	0.908700	0.708700	0.243600
H781	H78	0.079200	0.819600	0.086800
H791	H79	0.022800	0.911400	0.144500
H801	H80	0.928800	0.006800	0.229800
H811	H81	0.835800	0.069800	0.316600
H821	H82	0.725000	0.897000	0.432100
H831	H83	0.758600	0.765800	0.318300
H841	H84	0.707400	0.825400	0.363100
H851	H85	0.751600	0.855400	0.271000
H861	H86	0.837200	0.692600	0.405500
H871	H87	0.881800	0.734200	0.414100
H881	H88	0.790900	0.748500	0.454700
H891	H89	0.011300	0.435100	0.094900
H901	H90	0.930500	0.352500	0.178300
H911	H91	0.818600	0.481800	0.313900
H921	H92	0.905400	0.557800	0.230500
H931	H93	0.809400	0.329400	0.228100
H941	H94	0.728700	0.247100	0.314200
H951	H95	0.700800	0.288600	0.490700
H961	H96	0.789500	0.364900	0.412000
H971	H97	0.318400	0.506000	0.140800
H981	H98	0.161600	0.382400	0.230000
H991	H99	0.223700	0.284300	0.315300
H1001	H100	0.314100	0.189900	0.406100
H1011	H101	0.405700	0.130500	0.468300
H1021	H102	0.505400	0.311200	0.330600
H1031	H103	0.438100	0.464300	0.270300
H1041	H104	0.380000	0.517000	0.223800
H1051	H105	0.349300	0.465300	0.313600
H1061	H106	0.523500	0.394700	0.172100
H1071	H107	0.488100	0.351300	0.154600
H1081	H108	0.470400	0.442600	0.119800
H1091	H109	0.708700	0.908700	0.743600
H1101	H110	0.819600	0.079200	0.586800
H1111	H111	0.911400	0.022800	0.644500
H1121	H112	0.006800	0.928800	0.729800
H1131	H113	0.069800	0.835800	0.816600
H1141	H114	0.897000	0.725000	0.932100
H1151	H115	0.765800	0.758600	0.818300
H1161	H116	0.825400	0.707400	0.863100
H1171	H117	0.855400	0.751600	0.771000
H1181	H118	0.692600	0.837200	0.905500
H1191	H119	0.734200	0.881800	0.914100
H1201	H120	0.748500	0.790900	0.954700
H1211	H121	0.435100	0.011300	0.594900
H1221	H122	0.352500	0.930500	0.678300
H1231	H123	0.481800	0.818600	0.813900
H1241	H124	0.557800	0.905400	0.730500
H1251	H125	0.329400	0.809400	0.728100
H1261	H126	0.247100	0.728700	0.814200
H1271	H127	0.288600	0.700800	0.990700
H1281	H128	0.364900	0.789500	0.912000
C891	C89	0.462200	0.299000	0.676900
C901	C90	0.453700	0.232100	0.678100
C911	C91	0.387500	0.205500	0.730100
C921	C92	0.329200	0.241800	0.781500
C931	C93	0.214400	0.351800	0.891500
C941	C94	0.179300	0.406900	0.928400
C951	C95	0.215100	0.463500	0.907200
C961	C96	0.287300	0.466900	0.846100
C971	C97	0.400900	0.406500	0.739700
C981	C98	0.404600	0.334800	0.729800
C991	C99	0.337300	0.306500	0.783100
C1001	C100	0.286900	0.354700	0.832600
C1011	C101	0.322500	0.413700	0.809200
C1021	C102	0.468100	0.392100	0.764100
C1031	C103	0.397000	0.479000	0.664500
C1041	C104	0.515400	0.191400	0.621700
C1051	C105	0.176200	0.520600	0.949400
C1061	C106	0.931600	0.749000	0.225100
C1071	C107	0.000800	0.755200	0.158900
C1081	C108	0.033200	0.816000	0.130600
C1091	C109	0.000000	0.870600	0.164800
C1101	C110	0.887400	0.985400	0.270200
C1111	C111	0.832200	0.022800	0.322100
C1121	C112	0.769900	0.990700	0.383700
C1131	C113	0.765600	0.919400	0.391200
C1141	C114	0.825100	0.807700	0.334600
C1151	C115	0.898300	0.802100	0.261900
C1161	C116	0.931300	0.865500	0.230900
C1171	C117	0.882100	0.915900	0.277400
C1181	C118	0.820600	0.883000	0.338500
C1191	C119	0.754000	0.814200	0.320400
C1201	C120	0.834600	0.739400	0.409100
C1211	C121	0.037600	0.696800	0.117400
C1221	C122	0.708800	0.032600	0.439400
C1231	C123	0.972300	0.444300	0.140600
C1241	C124	0.923400	0.394600	0.190300
C1251	C125	0.865000	0.407200	0.256500
C1261	C126	0.858500	0.470100	0.269900
C1271	C127	0.910400	0.516200	0.218900
C1281	C128	0.811400	0.355400	0.309300
C1291	C129	0.790600	0.320200	0.282300
C1301	C130	0.741500	0.270700	0.334700
C1311	C131	0.726400	0.293600	0.437300
C1321	C132	0.777900	0.341900	0.389700
C1331	C133	0.299000	0.462200	0.176900
C1341	C134	0.232100	0.453700	0.178100
C1351	C135	0.205500	0.387500	0.230100
C1361	C136	0.241800	0.329200	0.281500
C1371	C137	0.351800	0.214400	0.391500
C1381	C138	0.406900	0.179300	0.428400
C1391	C139	0.463500	0.215100	0.407200
C1401	C140	0.466900	0.287300	0.346100
C1411	C141	0.406500	0.400900	0.239700
C1421	C142	0.334800	0.404600	0.229800
C1431	C143	0.306500	0.337300	0.283100
C1441	C144	0.354700	0.286900	0.332600
C1451	C145	0.413700	0.322500	0.309200
C1461	C146	0.392100	0.468100	0.264100
C1471	C147	0.479000	0.397000	0.164500
C1481	C148	0.191400	0.515400	0.121700
C1491	C149	0.520600	0.176200	0.449400
C1501	C150	0.749000	0.931600	0.725100
C1511	C151	0.755200	0.000800	0.658900
C1521	C152	0.816000	0.033200	0.630600
C1531	C153	0.870600	0.000000	0.664800
C1541	C154	0.985400	0.887400	0.770200
C1551	C155	0.022800	0.832200	0.822100
C1561	C156	0.990700	0.769900	0.883700
C1571	C157	0.919400	0.765600	0.891200
C1581	C158	0.807700	0.825100	0.834600
C1591	C159	0.802100	0.898300	0.761900
C1601	C160	0.865500	0.931300	0.730900
C1611	C161	0.915900	0.882100	0.777400
C1621	C162	0.883000	0.820600	0.838500
C1631	C163	0.814200	0.754000	0.820400
C1641	C164	0.739400	0.834600	0.909100
C1651	C165	0.696800	0.037600	0.617400
C1661	C166	0.032600	0.708800	0.939400
C1671	C167	0.444300	0.972300	0.640600
C1681	C168	0.394600	0.923400	0.690300
C1691	C169	0.407200	0.865000	0.756500
C1701	C170	0.470100	0.858500	0.769900
C1711	C171	0.516200	0.910400	0.718900
C1721	C172	0.355400	0.811400	0.809300
C1731	C173	0.320200	0.790600	0.782300
C1741	C174	0.270700	0.741500	0.834700
C1751	C175	0.293600	0.726400	0.937300
C1761	C176	0.341900	0.777900	0.889700
N51	N5	0.966640	0.504240	0.154700
N61	N6	0.712280	0.255280	0.411000
N71	N7	0.504240	0.966640	0.654700
N81	N8	0.255280	0.712280	0.911000
O171	O17	0.567890	0.225690	0.565700
O181	O18	0.510290	0.127290	0.632700
O191	O19	0.109690	0.516690	0.001200
O201	O20	0.212780	0.567580	0.930800
O211	O21	0.004130	0.645730	0.141100
O221	O22	0.101650	0.703850	0.061900
O231	O23	0.660260	0.997260	0.499000
O241	O24	0.710410	0.101010	0.420700
O251	O25	0.225690	0.567890	0.065700
O261	O26	0.127290	0.510290	0.132700
O271	O27	0.516690	0.109690	0.501200
O281	O28	0.567580	0.212780	0.430800
O291	O29	0.645730	0.004130	0.641100
O301	O30	0.703850	0.101650	0.561900
O311	O31	0.997260	0.660260	0.999000
O321	O32	0.101010	0.710410	0.920700
