data_OHAKEO_freeONLY_PM
_symmetry_space_group_name_H-M	'P1'
_cell_length_a	8.254000
_cell_length_b	18.006000
_cell_length_c	18.896000
_cell_angle_alpha	90.000000
_cell_angle_beta	90.000000
_cell_angle_gamma	90.000000
_symmetry_Int_Tables_number 1

loop_
_symmetry_equiv_pos_as_xyz
'x,y,z'

loop_
_atom_site_label
_atom_site_type_symbol
_atom_site_fract_x
_atom_site_fract_y
_atom_site_fract_z
Cd11	Cd1	0.487310	0.093370	0.027270
Cd21	Cd2	0.512690	0.593370	0.972730
Cd31	Cd3	0.512690	0.093370	0.527270
Cd41	Cd4	0.487310	0.593370	0.472730
H11	H1	0.648900	0.084900	0.864100
H21	H2	0.501300	0.071900	0.750500
H31	H3	0.184000	0.108500	0.905400
H41	H4	0.001500	0.034200	0.828000
H51	H5	0.784200	0.037000	0.750600
H61	H6	0.066400	0.131500	0.602200
H71	H7	0.284100	0.129800	0.680100
H81	H8	0.418000	0.252500	0.130100
H91	H9	0.600500	0.360800	0.134900
H101	H10	0.786300	0.210700	0.003600
H111	H11	0.742000	0.444400	0.038700
H121	H12	0.957600	0.523300	0.012600
H131	H13	0.266100	0.351300	0.024000
H141	H14	0.052400	0.271300	0.049800
H151	H15	0.351100	0.584900	0.135900
H161	H16	0.498700	0.571900	0.249500
H171	H17	0.816000	0.608500	0.094600
H181	H18	0.998500	0.534200	0.172000
H191	H19	0.215800	0.537000	0.249400
H201	H20	0.933600	0.631500	0.397800
H211	H21	0.715900	0.629800	0.319900
H221	H22	0.582000	0.752500	0.869900
H231	H23	0.399500	0.860800	0.865100
H241	H24	0.213700	0.710700	0.996400
H251	H25	0.258000	0.944400	0.961300
H261	H26	0.042400	0.023300	0.987400
H271	H27	0.733900	0.851300	0.976000
H281	H28	0.947600	0.771300	0.950200
H291	H29	0.351100	0.084900	0.364100
H301	H30	0.498700	0.071900	0.250500
H311	H31	0.816000	0.108500	0.405400
H321	H32	0.998500	0.034200	0.328000
H331	H33	0.215800	0.037000	0.250600
H341	H34	0.933600	0.131500	0.102200
H351	H35	0.715900	0.129800	0.180100
H361	H36	0.582000	0.252500	0.630100
H371	H37	0.399500	0.360800	0.634900
H381	H38	0.213700	0.210700	0.503600
H391	H39	0.258000	0.444400	0.538700
H401	H40	0.042400	0.523300	0.512600
H411	H41	0.733900	0.351300	0.524000
H421	H42	0.947600	0.271300	0.549800
H431	H43	0.648900	0.584900	0.635900
H441	H44	0.501300	0.571900	0.749500
H451	H45	0.184000	0.608500	0.594600
H461	H46	0.001500	0.534200	0.672000
H471	H47	0.784200	0.537000	0.749400
H481	H48	0.066400	0.631500	0.897800
H491	H49	0.284100	0.629800	0.819900
H501	H50	0.418000	0.752500	0.369900
H511	H51	0.600500	0.860800	0.365100
H521	H52	0.786300	0.710700	0.496400
H531	H53	0.742000	0.944400	0.461300
H541	H54	0.957600	0.023300	0.487400
H551	H55	0.266100	0.851300	0.476000
H561	H56	0.052400	0.771300	0.450200
C11	C1	0.537300	0.087900	0.858100
C21	C2	0.456100	0.080200	0.794900
C31	C3	0.280900	0.100600	0.881500
C41	C4	0.161500	0.085800	0.762500
C51	C5	0.013200	0.054900	0.783200
C61	C6	0.884200	0.055500	0.736400
C71	C7	0.902500	0.083700	0.668100
C81	C8	0.053200	0.112300	0.647500
C91	C9	0.183300	0.112200	0.694400
C101	C10	0.763000	0.088200	0.617200
C111	C11	0.514600	0.257900	0.105300
C121	C12	0.615400	0.318100	0.108000
C131	C13	0.717400	0.234500	0.035200
C141	C14	0.878000	0.351100	0.047800
C151	C15	0.847100	0.425900	0.036100
C161	C16	0.976600	0.473100	0.020300
C171	C17	0.134000	0.445500	0.016100
C181	C18	0.161200	0.369900	0.027100
C191	C19	0.033900	0.321700	0.042800
C201	C20	0.272500	0.497300	0.000200
C211	C21	0.462700	0.587900	0.141900
C221	C22	0.543900	0.580200	0.205100
C231	C23	0.719100	0.600600	0.118500
C241	C24	0.838500	0.585800	0.237500
C251	C25	0.986800	0.554900	0.216800
C261	C26	0.115800	0.555500	0.263600
C271	C27	0.097500	0.583700	0.331900
C281	C28	0.946800	0.612300	0.352500
C291	C29	0.816700	0.612200	0.305600
C301	C30	0.237000	0.588200	0.382800
C311	C31	0.485400	0.757900	0.894700
C321	C32	0.384600	0.818100	0.892000
C331	C33	0.282600	0.734500	0.964800
C341	C34	0.122000	0.851100	0.952200
C351	C35	0.152900	0.925900	0.963900
C361	C36	0.023400	0.973100	0.979700
C371	C37	0.866000	0.945500	0.983900
C381	C38	0.838800	0.869900	0.972900
C391	C39	0.966100	0.821700	0.957200
C401	C40	0.727500	0.997300	0.999800
C411	C41	0.462700	0.087900	0.358100
C421	C42	0.543900	0.080200	0.294900
C431	C43	0.719100	0.100600	0.381500
C441	C44	0.838500	0.085800	0.262500
C451	C45	0.986800	0.054900	0.283200
C461	C46	0.115800	0.055500	0.236400
C471	C47	0.097500	0.083700	0.168100
C481	C48	0.946800	0.112300	0.147500
C491	C49	0.816700	0.112200	0.194400
C501	C50	0.237000	0.088200	0.117200
C511	C51	0.485400	0.257900	0.605300
C521	C52	0.384600	0.318100	0.608000
C531	C53	0.282600	0.234500	0.535200
C541	C54	0.122000	0.351100	0.547800
C551	C55	0.152900	0.425900	0.536100
C561	C56	0.023400	0.473100	0.520300
C571	C57	0.866000	0.445500	0.516100
C581	C58	0.838800	0.369900	0.527100
C591	C59	0.966100	0.321700	0.542800
C601	C60	0.727500	0.497300	0.500200
C611	C61	0.537300	0.587900	0.641900
C621	C62	0.456100	0.580200	0.705100
C631	C63	0.280900	0.600600	0.618500
C641	C64	0.161500	0.585800	0.737500
C651	C65	0.013200	0.554900	0.716800
C661	C66	0.884200	0.555500	0.763600
C671	C67	0.902500	0.583700	0.831900
C681	C68	0.053200	0.612300	0.852500
C691	C69	0.183300	0.612200	0.805600
C701	C70	0.763000	0.588200	0.882800
C711	C71	0.514600	0.757900	0.394700
C721	C72	0.615400	0.818100	0.392000
C731	C73	0.717400	0.734500	0.464800
C741	C74	0.878000	0.851100	0.452200
C751	C75	0.847100	0.925900	0.463900
C761	C76	0.976600	0.973100	0.479700
C771	C77	0.134000	0.945500	0.483900
C781	C78	0.161200	0.869900	0.472900
C791	C79	0.033900	0.821700	0.457200
C801	C80	0.272500	0.997300	0.499800
N11	N1	0.424900	0.101000	0.911100
N21	N2	0.293200	0.087200	0.811100
N31	N3	0.581600	0.206000	0.058800
N41	N4	0.745100	0.303200	0.062600
N51	N5	0.575100	0.601000	0.088900
N61	N6	0.706800	0.587200	0.188900
N71	N7	0.418400	0.706000	0.941200
N81	N8	0.254900	0.803200	0.937400
N91	N9	0.575100	0.101000	0.411100
N101	N10	0.706800	0.087200	0.311100
N111	N11	0.418400	0.206000	0.558800
N121	N12	0.254900	0.303200	0.562600
N131	N13	0.424900	0.601000	0.588900
N141	N14	0.293200	0.587200	0.688900
N151	N15	0.581600	0.706000	0.441200
N161	N16	0.745100	0.803200	0.437400
O11	O1	0.626800	0.061200	0.636100
O21	O2	0.785200	0.117700	0.557400
O31	O3	0.241700	0.566100	0.998400
O41	O4	0.413200	0.472000	0.989000
O51	O5	0.373200	0.561200	0.363900
O61	O6	0.214800	0.617700	0.442600
O71	O7	0.758300	0.066100	0.001600
O81	O8	0.586800	0.972000	0.011000
O91	O9	0.373200	0.061200	0.136100
O101	O10	0.214800	0.117700	0.057400
O111	O11	0.758300	0.566100	0.498400
O121	O12	0.586800	0.472000	0.489000
O131	O13	0.626800	0.561200	0.863900
O141	O14	0.785200	0.617700	0.942600
O151	O15	0.241700	0.066100	0.501600
O161	O16	0.413200	0.972000	0.511000
