data_OHIHET_freeONLY_PM
_symmetry_space_group_name_H-M	'P1'
_cell_length_a	13.982200
_cell_length_b	13.982200
_cell_length_c	6.223300
_cell_angle_alpha	90.000000
_cell_angle_beta	90.000000
_cell_angle_gamma	90.000000
_symmetry_Int_Tables_number 1

loop_
_symmetry_equiv_pos_as_xyz
'x,y,z'

loop_
_atom_site_label
_atom_site_type_symbol
_atom_site_fract_x
_atom_site_fract_y
_atom_site_fract_z
N11	N1	0.640900	0.704400	0.073700
C11	C1	0.554900	0.627500	0.835500
C21	C2	0.497000	0.697600	0.915400
C31	C3	0.640600	0.632800	0.929500
C41	C4	0.552800	0.741800	0.062600
C51	C5	0.524700	0.561900	0.664600
C61	C6	0.555500	0.467200	0.668400
H11	H1	0.592300	0.444900	0.782300
C71	C7	0.468900	0.593200	0.497300
H21	H2	0.447300	0.656100	0.495900
H31	H3	0.699000	0.597000	0.919000
H41	H4	0.541000	0.793000	0.155000
N21	N2	0.445100	0.372500	0.164500
N31	N3	0.859100	0.795600	0.073700
C81	C8	0.945100	0.872500	0.835500
C91	C9	0.003000	0.802400	0.915400
C101	C10	0.859400	0.867200	0.929500
C111	C11	0.947200	0.758200	0.062600
C121	C12	0.975300	0.938100	0.664600
C131	C13	0.944500	0.032800	0.668400
H51	H5	0.907700	0.055100	0.782300
C141	C14	0.031100	0.906800	0.497300
H61	H6	0.052700	0.843900	0.495900
H71	H7	0.801000	0.903000	0.919000
H81	H8	0.959000	0.707000	0.155000
N41	N4	0.054900	0.127500	0.164500
N51	N5	0.295600	0.140900	0.573700
C151	C15	0.372500	0.054900	0.335500
C161	C16	0.302400	0.997000	0.415400
C171	C17	0.367200	0.140600	0.429500
C181	C18	0.258200	0.052800	0.562600
C191	C19	0.438100	0.024700	0.164600
C201	C20	0.532800	0.055500	0.168400
H91	H9	0.555100	0.092300	0.282300
C211	C21	0.406800	0.968900	0.997300
H101	H10	0.343900	0.947300	0.995900
H111	H11	0.403000	0.199000	0.419000
H121	H12	0.207000	0.041000	0.655000
N61	N6	0.627500	0.945100	0.664500
N71	N7	0.204400	0.359100	0.573700
C221	C22	0.127500	0.445100	0.335500
C231	C23	0.197600	0.503000	0.415400
C241	C24	0.132800	0.359400	0.429500
C251	C25	0.241800	0.447200	0.562600
C261	C26	0.061900	0.475300	0.164600
C271	C27	0.967200	0.444500	0.168400
H131	H13	0.944900	0.407700	0.282300
C281	C28	0.093200	0.531100	0.997300
H141	H14	0.156100	0.552700	0.995900
H151	H15	0.097000	0.301000	0.419000
H161	H16	0.293000	0.459000	0.655000
N81	N8	0.872500	0.554900	0.664500
N91	N9	0.359100	0.295600	0.926300
C291	C29	0.503000	0.302400	0.084600
C301	C30	0.359400	0.367200	0.070500
C311	C31	0.447200	0.258200	0.937400
C321	C32	0.475300	0.438100	0.335400
C331	C33	0.444500	0.532800	0.331600
H171	H17	0.407700	0.555100	0.217700
C341	C34	0.531100	0.406800	0.502700
H181	H18	0.552700	0.343900	0.504100
H191	H19	0.301000	0.403000	0.081000
H201	H20	0.459000	0.207000	0.845000
N101	N10	0.140900	0.204400	0.926300
C351	C35	0.997000	0.197600	0.084600
C361	C36	0.140600	0.132800	0.070500
C371	C37	0.052800	0.241800	0.937400
C381	C38	0.024700	0.061900	0.335400
C391	C39	0.055500	0.967200	0.331600
H211	H21	0.092300	0.944900	0.217700
C401	C40	0.968900	0.093200	0.502700
H221	H22	0.947300	0.156100	0.504100
H231	H23	0.199000	0.097000	0.081000
H241	H24	0.041000	0.293000	0.845000
N111	N11	0.704400	0.859100	0.426300
C411	C41	0.697600	0.003000	0.584600
C421	C42	0.632800	0.859400	0.570500
C431	C43	0.741800	0.947200	0.437400
C441	C44	0.561900	0.975300	0.835400
C451	C45	0.467200	0.944500	0.831600
H251	H25	0.444900	0.907700	0.717700
C461	C46	0.593200	0.031100	0.002700
H261	H26	0.656100	0.052700	0.004100
H271	H27	0.597000	0.801000	0.581000
H281	H28	0.793000	0.959000	0.345000
N121	N12	0.795600	0.640900	0.426300
C471	C47	0.802400	0.497000	0.584600
C481	C48	0.867200	0.640600	0.570500
C491	C49	0.758200	0.552800	0.437400
C501	C50	0.938100	0.524700	0.835400
C511	C51	0.032800	0.555500	0.831600
H291	H29	0.055100	0.592300	0.717700
C521	C52	0.906800	0.468900	0.002700
H301	H30	0.843900	0.447300	0.004100
H311	H31	0.903000	0.699000	0.581000
H321	H32	0.707000	0.541000	0.345000
Zn11	Zn1	0.750000	0.750000	0.250000
Zn21	Zn2	0.250000	0.250000	0.750000
