data_OHOMIH_freeONLY_PM
_symmetry_space_group_name_H-M	'P1'
_cell_length_a	3.492600
_cell_length_b	9.828000
_cell_length_c	17.185000
_cell_angle_alpha	90.000000
_cell_angle_beta	93.753000
_cell_angle_gamma	90.000000
_symmetry_Int_Tables_number 1

loop_
_symmetry_equiv_pos_as_xyz
'x,y,z'

loop_
_atom_site_label
_atom_site_type_symbol
_atom_site_fract_x
_atom_site_fract_y
_atom_site_fract_z
Cu11	Cu1	0.581120	0.240950	0.728020
Cu21	Cu2	0.129300	0.455350	0.606640
Cu31	Cu3	0.081120	0.759050	0.228020
Cu41	Cu4	0.629300	0.544650	0.106640
H11	H1	0.610900	0.783000	0.715800
H21	H2	0.946100	0.542500	0.897000
H31	H3	0.088000	0.950200	0.912800
H41	H4	0.110900	0.217000	0.215800
H51	H5	0.446100	0.457500	0.397000
H61	H6	0.588000	0.049800	0.412800
C11	C1	0.839500	0.887100	0.808900
C21	C2	0.717000	0.773500	0.766600
C31	C3	0.752000	0.645500	0.800400
C41	C4	0.919000	0.629000	0.875400
C51	C5	0.047000	0.743200	0.918200
C61	C6	0.005300	0.873600	0.884700
C71	C7	0.770000	0.025200	0.775500
C81	C8	0.608000	0.525400	0.752600
C91	C9	0.239000	0.731000	0.998700
C101	C10	0.339500	0.112900	0.308900
C111	C11	0.217000	0.226500	0.266600
C121	C12	0.252000	0.354500	0.300400
C131	C13	0.419000	0.371000	0.375400
C141	C14	0.547000	0.256800	0.418200
C151	C15	0.505300	0.126400	0.384700
C161	C16	0.270000	0.974800	0.275500
C171	C17	0.108000	0.474600	0.252600
C181	C18	0.739000	0.269000	0.498700
O11	O1	0.581100	0.040200	0.710400
O21	O2	0.886600	0.131700	0.812200
O31	O3	0.630200	0.409000	0.785600
O41	O4	0.138200	0.287800	0.663100
O51	O5	0.493200	0.546100	0.683300
O61	O6	0.095000	0.630500	0.556300
O71	O7	0.248900	0.609200	0.027000
O81	O8	0.376500	0.831800	0.031900
O91	O9	0.081100	0.959800	0.210400
O101	O10	0.386600	0.868300	0.312200
O111	O11	0.130200	0.591000	0.285600
O121	O12	0.638200	0.712200	0.163100
O131	O13	0.993200	0.453900	0.183300
O141	O14	0.595000	0.369500	0.056300
O151	O15	0.748900	0.390800	0.527000
O161	O16	0.876500	0.168200	0.531900
