data_OJICEQ_charged_PM
_symmetry_space_group_name_H-M	'P1'
_cell_length_a	21.754400
_cell_length_b	21.754400
_cell_length_c	21.956000
_cell_angle_alpha	90.000000
_cell_angle_beta	90.000000
_cell_angle_gamma	111.117000
_symmetry_Int_Tables_number 1

loop_
_symmetry_equiv_pos_as_xyz
'x,y,z'

loop_
_atom_site_label
_atom_site_type_symbol
_atom_site_fract_x
_atom_site_fract_y
_atom_site_fract_z
Zn11	Zn1	0.926200	0.072780	0.005000
Zn21	Zn2	0.073800	0.927220	0.505000
Zn31	Zn3	0.927220	0.073800	0.505000
Zn41	Zn4	0.072780	0.926200	0.005000
Zn51	Zn5	0.978600	0.978600	0.256900
Zn61	Zn6	0.021400	0.021400	0.756900
H11	H1	0.924600	0.182400	0.967800
H21	H2	0.864500	0.185500	0.893900
H31	H3	0.841700	0.106900	0.891000
H41	H4	0.825200	0.141600	0.949800
H51	H5	0.841000	0.055000	0.078100
H61	H6	0.820900	0.121500	0.127000
H71	H7	0.892500	0.118100	0.137000
H81	H8	0.884100	0.175500	0.096300
H91	H9	0.820000	0.011800	0.955900
H101	H10	0.878000	0.005400	0.914400
H111	H11	0.858000	0.947800	0.167200
H121	H12	0.752200	0.937800	0.165900
H131	H13	0.755000	0.963000	0.348300
H141	H14	0.866800	0.978800	0.346300
H151	H15	0.655700	0.945300	0.161700
H161	H16	0.553000	0.954600	0.167000
H171	H17	0.566700	0.963900	0.350000
H181	H18	0.668500	0.955700	0.344100
H191	H19	0.457900	0.943900	0.224300
H201	H20	0.463200	0.941400	0.297000
H211	H21	0.517300	0.065300	0.229600
H221	H22	0.512200	0.059800	0.302600
H231	H23	0.410400	0.053800	0.164400
H241	H24	0.307200	0.050600	0.168500
H251	H25	0.298500	0.025300	0.347200
H261	H26	0.407800	0.032600	0.347400
H271	H27	0.218300	0.073300	0.184700
H281	H28	0.104700	0.045100	0.180000
H291	H29	0.086900	0.953900	0.335800
H301	H30	0.198400	0.980000	0.336100
H311	H31	0.075400	0.817600	0.467800
H321	H32	0.135500	0.814500	0.393900
H331	H33	0.158300	0.893100	0.391000
H341	H34	0.174800	0.858400	0.449800
H351	H35	0.159000	0.945000	0.578100
H361	H36	0.179100	0.878500	0.627000
H371	H37	0.107500	0.881900	0.637000
H381	H38	0.115900	0.824500	0.596300
H391	H39	0.180000	0.988200	0.455900
H401	H40	0.122000	0.994600	0.414400
H411	H41	0.142000	0.052200	0.667200
H421	H42	0.247800	0.062200	0.665900
H431	H43	0.245000	0.037000	0.848300
H441	H44	0.133200	0.021200	0.846300
H451	H45	0.344300	0.054700	0.661700
H461	H46	0.447000	0.045400	0.667000
H471	H47	0.433300	0.036100	0.850000
H481	H48	0.331500	0.044300	0.844100
H491	H49	0.542100	0.056100	0.724300
H501	H50	0.536800	0.058600	0.797000
H511	H51	0.482700	0.934700	0.729600
H521	H52	0.487800	0.940200	0.802600
H531	H53	0.589600	0.946200	0.664400
H541	H54	0.692800	0.949400	0.668500
H551	H55	0.701500	0.974700	0.847200
H561	H56	0.592200	0.967400	0.847400
H571	H57	0.781700	0.926700	0.684700
H581	H58	0.895300	0.954900	0.680000
H591	H59	0.913100	0.046100	0.835800
H601	H60	0.801600	0.020000	0.836100
H611	H61	0.817600	0.075400	0.467800
H621	H62	0.814500	0.135500	0.393900
H631	H63	0.893100	0.158300	0.391000
H641	H64	0.858400	0.174800	0.449800
H651	H65	0.945000	0.159000	0.578100
H661	H66	0.878500	0.179100	0.627000
H671	H67	0.881900	0.107500	0.637000
H681	H68	0.824500	0.115900	0.596300
H691	H69	0.988200	0.180000	0.455900
H701	H70	0.994600	0.122000	0.414400
H711	H71	0.052200	0.142000	0.667200
H721	H72	0.062200	0.247800	0.665900
H731	H73	0.037000	0.245000	0.848300
H741	H74	0.021200	0.133200	0.846300
H751	H75	0.054700	0.344300	0.661700
H761	H76	0.045400	0.447000	0.667000
H771	H77	0.036100	0.433300	0.850000
H781	H78	0.044300	0.331500	0.844100
H791	H79	0.056100	0.542100	0.724300
H801	H80	0.058600	0.536800	0.797000
H811	H81	0.934700	0.482700	0.729600
H821	H82	0.940200	0.487800	0.802600
H831	H83	0.946200	0.589600	0.664400
H841	H84	0.949400	0.692800	0.668500
H851	H85	0.974700	0.701500	0.847200
H861	H86	0.967400	0.592200	0.847400
H871	H87	0.926700	0.781700	0.684700
H881	H88	0.954900	0.895300	0.680000
H891	H89	0.046100	0.913100	0.835800
H901	H90	0.020000	0.801600	0.836100
H911	H91	0.182400	0.924600	0.967800
H921	H92	0.185500	0.864500	0.893900
H931	H93	0.106900	0.841700	0.891000
H941	H94	0.141600	0.825200	0.949800
H951	H95	0.055000	0.841000	0.078100
H961	H96	0.121500	0.820900	0.127000
H971	H97	0.118100	0.892500	0.137000
H981	H98	0.175500	0.884100	0.096300
H991	H99	0.011800	0.820000	0.955900
H1001	H100	0.005400	0.878000	0.914400
H1011	H101	0.947800	0.858000	0.167200
H1021	H102	0.937800	0.752200	0.165900
H1031	H103	0.963000	0.755000	0.348300
H1041	H104	0.978800	0.866800	0.346300
H1051	H105	0.945300	0.655700	0.161700
H1061	H106	0.954600	0.553000	0.167000
H1071	H107	0.963900	0.566700	0.350000
H1081	H108	0.955700	0.668500	0.344100
H1091	H109	0.943900	0.457900	0.224300
H1101	H110	0.941400	0.463200	0.297000
H1111	H111	0.065300	0.517300	0.229600
H1121	H112	0.059800	0.512200	0.302600
H1131	H113	0.053800	0.410400	0.164400
H1141	H114	0.050600	0.307200	0.168500
H1151	H115	0.025300	0.298500	0.347200
H1161	H116	0.032600	0.407800	0.347400
H1171	H117	0.073300	0.218300	0.184700
H1181	H118	0.045100	0.104700	0.180000
H1191	H119	0.953900	0.086900	0.335800
H1201	H120	0.980000	0.198400	0.336100
C11	C1	0.857700	0.145500	0.917800
C21	C2	0.863900	0.129100	0.108000
C31	C3	0.838400	0.951600	0.205000
C41	C4	0.775600	0.947000	0.203400
C51	C5	0.743300	0.955900	0.256500
C61	C6	0.776600	0.962600	0.310700
C71	C7	0.842100	0.968900	0.309600
C81	C8	0.674400	0.957200	0.259900
C91	C9	0.637300	0.951300	0.199600
C101	C10	0.576400	0.955200	0.203600
C111	C11	0.585400	0.961000	0.311500
C121	C12	0.646300	0.957700	0.307200
C131	C13	0.485300	0.965100	0.259900
C141	C14	0.490900	0.039700	0.263900
C151	C15	0.419100	0.039100	0.261000
C161	C16	0.387200	0.046800	0.202000
C171	C17	0.326500	0.043300	0.205300
C181	C18	0.288300	0.030500	0.254400
C191	C19	0.321300	0.029300	0.309700
C201	C20	0.386800	0.033600	0.309600
C211	C21	0.215500	0.017100	0.252700
C221	C22	0.190900	0.043900	0.213900
C231	C23	0.122500	0.030100	0.213900
C241	C24	0.112200	0.977800	0.302400
C251	C25	0.178200	0.990400	0.301200
C261	C26	0.142300	0.854500	0.417800
C271	C27	0.136100	0.870900	0.608000
C281	C28	0.161600	0.048400	0.705000
C291	C29	0.224400	0.053000	0.703400
C301	C30	0.256700	0.044100	0.756500
C311	C31	0.223400	0.037400	0.810700
C321	C32	0.157900	0.031100	0.809600
C331	C33	0.325600	0.042800	0.759900
C341	C34	0.362700	0.048700	0.699600
C351	C35	0.423600	0.044800	0.703600
C361	C36	0.414600	0.039000	0.811500
C371	C37	0.353700	0.042300	0.807200
C381	C38	0.514700	0.034900	0.759900
C391	C39	0.509100	0.960300	0.763900
C401	C40	0.580900	0.960900	0.761000
C411	C41	0.612800	0.953200	0.702000
C421	C42	0.673500	0.956700	0.705300
C431	C43	0.711700	0.969500	0.754400
C441	C44	0.678700	0.970700	0.809700
C451	C45	0.613200	0.966400	0.809600
C461	C46	0.784500	0.982900	0.752700
C471	C47	0.809100	0.956100	0.713900
C481	C48	0.877500	0.969900	0.713900
C491	C49	0.887800	0.022200	0.802400
C501	C50	0.821800	0.009600	0.801200
C511	C51	0.854500	0.142300	0.417800
C521	C52	0.870900	0.136100	0.608000
C531	C53	0.048400	0.161600	0.705000
C541	C54	0.053000	0.224400	0.703400
C551	C55	0.044100	0.256700	0.756500
C561	C56	0.037400	0.223400	0.810700
C571	C57	0.031100	0.157900	0.809600
C581	C58	0.042800	0.325600	0.759900
C591	C59	0.048700	0.362700	0.699600
C601	C60	0.044800	0.423600	0.703600
C611	C61	0.039000	0.414600	0.811500
C621	C62	0.042300	0.353700	0.807200
C631	C63	0.034900	0.514700	0.759900
C641	C64	0.960300	0.509100	0.763900
C651	C65	0.960900	0.580900	0.761000
C661	C66	0.953200	0.612800	0.702000
C671	C67	0.956700	0.673500	0.705300
C681	C68	0.969500	0.711700	0.754400
C691	C69	0.970700	0.678700	0.809700
C701	C70	0.966400	0.613200	0.809600
C711	C71	0.982900	0.784500	0.752700
C721	C72	0.956100	0.809100	0.713900
C731	C73	0.969900	0.877500	0.713900
C741	C74	0.022200	0.887800	0.802400
C751	C75	0.009600	0.821800	0.801200
C761	C76	0.145500	0.857700	0.917800
C771	C77	0.129100	0.863900	0.108000
C781	C78	0.951600	0.838400	0.205000
C791	C79	0.947000	0.775600	0.203400
C801	C80	0.955900	0.743300	0.256500
C811	C81	0.962600	0.776600	0.310700
C821	C82	0.968900	0.842100	0.309600
C831	C83	0.957200	0.674400	0.259900
C841	C84	0.951300	0.637300	0.199600
C851	C85	0.955200	0.576400	0.203600
C861	C86	0.961000	0.585400	0.311500
C871	C87	0.957700	0.646300	0.307200
C881	C88	0.965100	0.485300	0.259900
C891	C89	0.039700	0.490900	0.263900
C901	C90	0.039100	0.419100	0.261000
C911	C91	0.046800	0.387200	0.202000
C921	C92	0.043300	0.326500	0.205300
C931	C93	0.030500	0.288300	0.254400
C941	C94	0.029300	0.321300	0.309700
C951	C95	0.033600	0.386800	0.309600
C961	C96	0.017100	0.215500	0.252700
C971	C97	0.043900	0.190900	0.213900
C981	C98	0.030100	0.122500	0.213900
C991	C99	0.977800	0.112200	0.302400
C1001	C100	0.990400	0.178200	0.301200
S11	S1	0.994600	0.994600	0.093700
S21	S2	0.991600	0.991600	0.415400
S31	S3	0.005400	0.005400	0.593700
S41	S4	0.008400	0.008400	0.915400
N11	N1	0.874900	0.960700	0.252300
N21	N2	0.548900	0.959700	0.254200
N31	N3	0.081510	0.998090	0.257200
N41	N4	0.125100	0.039300	0.752300
N51	N5	0.451100	0.040300	0.754200
N61	N6	0.918490	0.001910	0.757200
N71	N7	0.039300	0.125100	0.752300
N81	N8	0.040300	0.451100	0.754200
N91	N9	0.001910	0.918490	0.757200
N101	N10	0.960700	0.874900	0.252300
N111	N11	0.959700	0.548900	0.254200
N121	N12	0.998090	0.081510	0.257200
O11	O1	0.932200	0.004800	0.065300
O21	O2	0.001800	0.938600	0.445000
O31	O3	0.918700	0.149100	0.944900
O41	O4	0.855000	0.088600	0.055000
O51	O5	0.861500	0.003500	0.956200
O61	O6	0.067800	0.995200	0.565300
O71	O7	0.998200	0.061400	0.945000
O81	O8	0.081300	0.850900	0.444900
O91	O9	0.145000	0.911400	0.555000
O101	O10	0.138500	0.996500	0.456200
O111	O11	0.995200	0.067800	0.565300
O121	O12	0.061400	0.998200	0.945000
O131	O13	0.850900	0.081300	0.444900
O141	O14	0.911400	0.145000	0.555000
O151	O15	0.996500	0.138500	0.456200
O161	O16	0.004800	0.932200	0.065300
O171	O17	0.938600	0.001800	0.445000
O181	O18	0.149100	0.918700	0.944900
O191	O19	0.088600	0.855000	0.055000
O201	O20	0.003500	0.861500	0.956200
O211	O21	0.976900	0.976900	0.160700
O221	O22	0.053300	0.053300	0.090200
O231	O23	0.047400	0.047400	0.421700
O241	O24	0.973300	0.973300	0.354800
O251	O25	0.023100	0.023100	0.660700
O261	O26	0.946700	0.946700	0.590200
O271	O27	0.952600	0.952600	0.921700
O281	O28	0.026700	0.026700	0.854800
H1211	H121	0.938800	0.359400	0.044100
H1221	H122	0.136200	0.427400	0.015600
H1231	H123	0.145100	0.528900	0.057900
H1241	H124	0.144400	0.600800	0.133500
H1251	H125	0.127100	0.625500	0.069100
H1261	H126	0.058800	0.673800	0.125300
H1271	H127	0.136600	0.710000	0.135000
H1281	H128	0.170400	0.637800	0.232000
H1291	H129	0.183000	0.714600	0.222500
H1301	H130	0.102100	0.695300	0.309400
H1311	H131	0.178400	0.710200	0.323900
H1321	H132	0.167200	0.642200	0.412100
H1331	H133	0.093300	0.641900	0.411500
H1341	H134	0.110500	0.549500	0.464800
H1351	H135	0.116100	0.521700	0.398200
H1361	H136	0.080700	0.438700	0.478100
H1371	H137	0.911100	0.279700	0.486400
H1381	H138	0.854900	0.339900	0.438400
H1391	H139	0.813800	0.388000	0.388900
H1401	H140	0.815600	0.432400	0.447700
H1411	H141	0.831400	0.524000	0.377700
H1421	H142	0.759400	0.467600	0.375800
H1431	H143	0.746000	0.501800	0.283700
H1441	H144	0.816800	0.543400	0.255600
H1451	H145	0.745700	0.481100	0.178400
H1461	H146	0.735600	0.414600	0.215400
H1471	H147	0.774400	0.406600	0.107800
H1481	H148	0.820700	0.481100	0.092600
H1491	H149	0.864500	0.402700	0.053100
H1501	H150	0.871300	0.380100	0.121600
C1011	C101	0.986000	0.454200	0.072000
C1021	C102	0.980700	0.393900	0.046900
C1031	C103	0.036600	0.383800	0.025800
C1041	C104	0.098000	0.434200	0.029900
C1051	C105	0.103200	0.494600	0.055100
C1061	C106	0.047300	0.504500	0.076100
C1071	C107	0.110600	0.612400	0.110900
C1081	C108	0.098900	0.668500	0.142100
C1091	C109	0.151200	0.672400	0.238000
C1101	C110	0.138500	0.678500	0.304400
C1111	C111	0.121800	0.618200	0.397200
C1121	C112	0.097000	0.549200	0.421800
C1131	C113	0.001500	0.454500	0.441500
C1141	C114	0.034900	0.418700	0.470000
C1151	C115	0.001100	0.353500	0.486800
C1161	C116	0.934000	0.324200	0.475000
C1171	C117	0.900800	0.360000	0.446400
C1181	C118	0.934500	0.425100	0.429700
C1191	C119	0.831100	0.433500	0.405200
C1201	C120	0.806700	0.477300	0.367300
C1211	C121	0.785700	0.498300	0.264500
C1221	C122	0.767200	0.459600	0.206600
C1231	C123	0.818000	0.441200	0.115900
C1241	C124	0.871800	0.417800	0.096000
S51	S5	0.039770	0.310430	0.993200
S61	S6	0.052130	0.313670	0.519600
O291	O29	0.050700	0.557300	0.108800
O301	O30	0.090900	0.655500	0.205600
O311	O31	0.121600	0.615800	0.332500
O321	O32	0.027200	0.522800	0.417300
O331	O33	0.901200	0.458000	0.403900
O341	O34	0.815500	0.466300	0.304700
O351	O35	0.824800	0.455800	0.179100
O361	O36	0.933400	0.470200	0.101600
O371	O37	0.977900	0.280700	0.964200
O381	O38	0.095600	0.335400	0.955300
O391	O39	0.049200	0.270200	0.044200
O401	O40	0.068800	0.276600	0.473300
O411	O41	0.010600	0.274600	0.563800
O421	O42	0.110600	0.363200	0.544000
H1511	H151	0.061200	0.640600	0.544100
H1521	H152	0.863800	0.572600	0.515600
H1531	H153	0.854900	0.471100	0.557900
H1541	H154	0.855600	0.399200	0.633500
H1551	H155	0.872900	0.374500	0.569100
H1561	H156	0.941200	0.326200	0.625300
H1571	H157	0.863400	0.290000	0.635000
H1581	H158	0.829600	0.362200	0.732000
H1591	H159	0.817000	0.285400	0.722500
H1601	H160	0.897900	0.304700	0.809400
H1611	H161	0.821600	0.289800	0.823900
H1621	H162	0.832800	0.357800	0.912100
H1631	H163	0.906700	0.358100	0.911500
H1641	H164	0.889500	0.450500	0.964800
H1651	H165	0.883900	0.478300	0.898200
H1661	H166	0.919300	0.561300	0.978100
H1671	H167	0.088900	0.720300	0.986400
H1681	H168	0.145100	0.660100	0.938400
H1691	H169	0.186200	0.612000	0.888900
H1701	H170	0.184400	0.567600	0.947700
H1711	H171	0.168600	0.476000	0.877700
H1721	H172	0.240600	0.532400	0.875800
H1731	H173	0.254000	0.498200	0.783700
H1741	H174	0.183200	0.456600	0.755600
H1751	H175	0.254300	0.518900	0.678400
H1761	H176	0.264400	0.585400	0.715400
H1771	H177	0.225600	0.593400	0.607800
H1781	H178	0.179300	0.518900	0.592600
H1791	H179	0.135500	0.597300	0.553100
H1801	H180	0.128700	0.619900	0.621600
C1251	C125	0.014000	0.545800	0.572000
C1261	C126	0.019300	0.606100	0.546900
C1271	C127	0.963400	0.616200	0.525800
C1281	C128	0.902000	0.565800	0.529900
C1291	C129	0.896800	0.505400	0.555100
C1301	C130	0.952700	0.495500	0.576100
C1311	C131	0.889400	0.387600	0.610900
C1321	C132	0.901100	0.331500	0.642100
C1331	C133	0.848800	0.327600	0.738000
C1341	C134	0.861500	0.321500	0.804400
C1351	C135	0.878200	0.381800	0.897200
C1361	C136	0.903000	0.450800	0.921800
C1371	C137	0.998500	0.545500	0.941500
C1381	C138	0.965100	0.581300	0.970000
C1391	C139	0.998900	0.646500	0.986800
C1401	C140	0.066000	0.675800	0.975000
C1411	C141	0.099200	0.640000	0.946400
C1421	C142	0.065500	0.574900	0.929700
C1431	C143	0.168900	0.566500	0.905200
C1441	C144	0.193300	0.522700	0.867300
C1451	C145	0.214300	0.501700	0.764500
C1461	C146	0.232800	0.540400	0.706600
C1471	C147	0.182000	0.558800	0.615900
C1481	C148	0.128200	0.582200	0.596000
S71	S7	0.960230	0.689570	0.493200
S81	S8	0.947870	0.686330	0.019600
O431	O43	0.949300	0.442700	0.608800
O441	O44	0.909100	0.344500	0.705600
O451	O45	0.878400	0.384200	0.832500
O461	O46	0.972800	0.477200	0.917300
O471	O47	0.098800	0.542000	0.903900
O481	O48	0.184500	0.533700	0.804700
O491	O49	0.175200	0.544200	0.679100
O501	O50	0.066600	0.529800	0.601600
O511	O51	0.022100	0.719300	0.464200
O521	O52	0.904400	0.664600	0.455300
O531	O53	0.950800	0.729800	0.544200
O541	O54	0.931200	0.723400	0.973300
O551	O55	0.989400	0.725400	0.063800
O561	O56	0.889400	0.636800	0.044000
H1811	H181	0.640600	0.061200	0.544100
H1821	H182	0.572600	0.863800	0.515600
H1831	H183	0.471100	0.854900	0.557900
H1841	H184	0.399200	0.855600	0.633500
H1851	H185	0.374500	0.872900	0.569100
H1861	H186	0.326200	0.941200	0.625300
H1871	H187	0.290000	0.863400	0.635000
H1881	H188	0.362200	0.829600	0.732000
H1891	H189	0.285400	0.817000	0.722500
H1901	H190	0.304700	0.897900	0.809400
H1911	H191	0.289800	0.821600	0.823900
H1921	H192	0.357800	0.832800	0.912100
H1931	H193	0.358100	0.906700	0.911500
H1941	H194	0.450500	0.889500	0.964800
H1951	H195	0.478300	0.883900	0.898200
H1961	H196	0.561300	0.919300	0.978100
H1971	H197	0.720300	0.088900	0.986400
H1981	H198	0.660100	0.145100	0.938400
H1991	H199	0.612000	0.186200	0.888900
H2001	H200	0.567600	0.184400	0.947700
H2011	H201	0.476000	0.168600	0.877700
H2021	H202	0.532400	0.240600	0.875800
H2031	H203	0.498200	0.254000	0.783700
H2041	H204	0.456600	0.183200	0.755600
H2051	H205	0.518900	0.254300	0.678400
H2061	H206	0.585400	0.264400	0.715400
H2071	H207	0.593400	0.225600	0.607800
H2081	H208	0.518900	0.179300	0.592600
H2091	H209	0.597300	0.135500	0.553100
H2101	H210	0.619900	0.128700	0.621600
C1491	C149	0.545800	0.014000	0.572000
C1501	C150	0.606100	0.019300	0.546900
C1511	C151	0.616200	0.963400	0.525800
C1521	C152	0.565800	0.902000	0.529900
C1531	C153	0.505400	0.896800	0.555100
C1541	C154	0.495500	0.952700	0.576100
C1551	C155	0.387600	0.889400	0.610900
C1561	C156	0.331500	0.901100	0.642100
C1571	C157	0.327600	0.848800	0.738000
C1581	C158	0.321500	0.861500	0.804400
C1591	C159	0.381800	0.878200	0.897200
C1601	C160	0.450800	0.903000	0.921800
C1611	C161	0.545500	0.998500	0.941500
C1621	C162	0.581300	0.965100	0.970000
C1631	C163	0.646500	0.998900	0.986800
C1641	C164	0.675800	0.066000	0.975000
C1651	C165	0.640000	0.099200	0.946400
C1661	C166	0.574900	0.065500	0.929700
C1671	C167	0.566500	0.168900	0.905200
C1681	C168	0.522700	0.193300	0.867300
C1691	C169	0.501700	0.214300	0.764500
C1701	C170	0.540400	0.232800	0.706600
C1711	C171	0.558800	0.182000	0.615900
C1721	C172	0.582200	0.128200	0.596000
S91	S9	0.689570	0.960230	0.493200
S101	S10	0.686330	0.947870	0.019600
O571	O57	0.442700	0.949300	0.608800
O581	O58	0.344500	0.909100	0.705600
O591	O59	0.384200	0.878400	0.832500
O601	O60	0.477200	0.972800	0.917300
O611	O61	0.542000	0.098800	0.903900
O621	O62	0.533700	0.184500	0.804700
O631	O63	0.544200	0.175200	0.679100
O641	O64	0.529800	0.066600	0.601600
O651	O65	0.719300	0.022100	0.464200
O661	O66	0.664600	0.904400	0.455300
O671	O67	0.729800	0.950800	0.544200
O681	O68	0.723400	0.931200	0.973300
O691	O69	0.725400	0.989400	0.063800
O701	O70	0.636800	0.889400	0.044000
H2111	H211	0.359400	0.938800	0.044100
H2121	H212	0.427400	0.136200	0.015600
H2131	H213	0.528900	0.145100	0.057900
H2141	H214	0.600800	0.144400	0.133500
H2151	H215	0.625500	0.127100	0.069100
H2161	H216	0.673800	0.058800	0.125300
H2171	H217	0.710000	0.136600	0.135000
H2181	H218	0.637800	0.170400	0.232000
H2191	H219	0.714600	0.183000	0.222500
H2201	H220	0.695300	0.102100	0.309400
H2211	H221	0.710200	0.178400	0.323900
H2221	H222	0.642200	0.167200	0.412100
H2231	H223	0.641900	0.093300	0.411500
H2241	H224	0.549500	0.110500	0.464800
H2251	H225	0.521700	0.116100	0.398200
H2261	H226	0.438700	0.080700	0.478100
H2271	H227	0.279700	0.911100	0.486400
H2281	H228	0.339900	0.854900	0.438400
H2291	H229	0.388000	0.813800	0.388900
H2301	H230	0.432400	0.815600	0.447700
H2311	H231	0.524000	0.831400	0.377700
H2321	H232	0.467600	0.759400	0.375800
H2331	H233	0.501800	0.746000	0.283700
H2341	H234	0.543400	0.816800	0.255600
H2351	H235	0.481100	0.745700	0.178400
H2361	H236	0.414600	0.735600	0.215400
H2371	H237	0.406600	0.774400	0.107800
H2381	H238	0.481100	0.820700	0.092600
H2391	H239	0.402700	0.864500	0.053100
H2401	H240	0.380100	0.871300	0.121600
C1731	C173	0.454200	0.986000	0.072000
C1741	C174	0.393900	0.980700	0.046900
C1751	C175	0.383800	0.036600	0.025800
C1761	C176	0.434200	0.098000	0.029900
C1771	C177	0.494600	0.103200	0.055100
C1781	C178	0.504500	0.047300	0.076100
C1791	C179	0.612400	0.110600	0.110900
C1801	C180	0.668500	0.098900	0.142100
C1811	C181	0.672400	0.151200	0.238000
C1821	C182	0.678500	0.138500	0.304400
C1831	C183	0.618200	0.121800	0.397200
C1841	C184	0.549200	0.097000	0.421800
C1851	C185	0.454500	0.001500	0.441500
C1861	C186	0.418700	0.034900	0.470000
C1871	C187	0.353500	0.001100	0.486800
C1881	C188	0.324200	0.934000	0.475000
C1891	C189	0.360000	0.900800	0.446400
C1901	C190	0.425100	0.934500	0.429700
C1911	C191	0.433500	0.831100	0.405200
C1921	C192	0.477300	0.806700	0.367300
C1931	C193	0.498300	0.785700	0.264500
C1941	C194	0.459600	0.767200	0.206600
C1951	C195	0.441200	0.818000	0.115900
C1961	C196	0.417800	0.871800	0.096000
S111	S11	0.310430	0.039770	0.993200
S121	S12	0.313670	0.052130	0.519600
O711	O71	0.557300	0.050700	0.108800
O721	O72	0.655500	0.090900	0.205600
O731	O73	0.615800	0.121600	0.332500
O741	O74	0.522800	0.027200	0.417300
O751	O75	0.458000	0.901200	0.403900
O761	O76	0.466300	0.815500	0.304700
O771	O77	0.455800	0.824800	0.179100
O781	O78	0.470200	0.933400	0.101600
O791	O79	0.280700	0.977900	0.964200
O801	O80	0.335400	0.095600	0.955300
O811	O81	0.270200	0.049200	0.044200
O821	O82	0.276600	0.068800	0.473300
O831	O83	0.274600	0.010600	0.563800
O841	O84	0.363200	0.110600	0.544000
