data_OJIDAN_freeONLY_PM
_symmetry_space_group_name_H-M	'P1'
_cell_length_a	16.843000
_cell_length_b	31.470000
_cell_length_c	31.470000
_cell_angle_alpha	120.000000
_cell_angle_beta	90.000000
_cell_angle_gamma	90.000000
_symmetry_Int_Tables_number 1

loop_
_symmetry_equiv_pos_as_xyz
'x,y,z'

loop_
_atom_site_label
_atom_site_type_symbol
_atom_site_fract_x
_atom_site_fract_y
_atom_site_fract_z
Sc11	Sc1	0.647260	0.570590	0.498630
Sc21	Sc2	0.647260	0.928040	0.429410
Sc31	Sc3	0.647260	0.501370	0.071960
Sc41	Sc4	0.852740	0.570590	0.498630
Sc51	Sc5	0.852740	0.928040	0.429410
Sc61	Sc6	0.852740	0.501370	0.071960
Sc71	Sc7	0.352740	0.071960	0.501370
Sc81	Sc8	0.352740	0.498630	0.570590
Sc91	Sc9	0.352740	0.429410	0.928040
Sc101	Sc10	0.147260	0.071960	0.501370
Sc111	Sc11	0.147260	0.498630	0.570590
Sc121	Sc12	0.147260	0.429410	0.928040
Sc131	Sc13	0.750000	0.642120	0.460960
Sc141	Sc14	0.750000	0.818840	0.357880
Sc151	Sc15	0.750000	0.539040	0.181160
Sc161	Sc16	0.250000	0.181160	0.539040
Sc171	Sc17	0.250000	0.460960	0.642120
Sc181	Sc18	0.250000	0.357880	0.818840
H11	H1	0.366000	0.519900	0.159900
H21	H2	0.371200	0.734000	0.610000
H31	H3	0.368900	0.549200	0.232400
H41	H4	0.469700	0.599600	0.292700
H51	H5	0.367100	0.475600	0.074600
H61	H6	0.478400	0.682800	0.587600
H71	H7	0.367600	0.852200	0.577800
H81	H8	0.567600	0.744400	0.513300
H91	H9	0.582400	0.603600	0.336100
H101	H10	0.453100	0.791500	0.531100
H111	H11	0.457500	0.553700	0.410600
H121	H12	0.346800	0.549400	0.367100
H131	H13	0.347000	0.939100	0.616000
H141	H14	0.354700	0.996700	0.591400
H151	H15	0.366000	0.640000	0.480100
H161	H16	0.371200	0.876000	0.266000
H171	H17	0.368900	0.683200	0.450800
H181	H18	0.469700	0.693100	0.400400
H191	H19	0.367100	0.599000	0.524400
H201	H20	0.478400	0.904800	0.317200
H211	H21	0.367600	0.725600	0.147800
H221	H22	0.567600	0.768900	0.255600
H231	H23	0.582400	0.732500	0.396400
H241	H24	0.453100	0.739600	0.208500
H251	H25	0.457500	0.856900	0.446300
H261	H26	0.346800	0.817700	0.450600
H271	H27	0.347000	0.676900	0.060900
H281	H28	0.354700	0.594700	0.003300
H291	H29	0.366000	0.840100	0.360000
H301	H30	0.371200	0.390000	0.124000
H311	H31	0.368900	0.767600	0.316800
H321	H32	0.469700	0.707300	0.306900
H331	H33	0.367100	0.925400	0.401000
H341	H34	0.478400	0.412400	0.095200
H351	H35	0.367600	0.422200	0.274400
H361	H36	0.567600	0.486700	0.231100
H371	H37	0.582400	0.663900	0.267500
H381	H38	0.453100	0.468900	0.260400
H391	H39	0.457500	0.589400	0.143100
H401	H40	0.346800	0.632900	0.182300
H411	H41	0.347000	0.384000	0.323100
H421	H42	0.354700	0.408600	0.405300
H431	H43	0.134000	0.519900	0.159900
H441	H44	0.128800	0.734000	0.610000
H451	H45	0.131100	0.549200	0.232400
H461	H46	0.030300	0.599600	0.292700
H471	H47	0.132900	0.475600	0.074600
H481	H48	0.021600	0.682800	0.587600
H491	H49	0.132400	0.852200	0.577800
H501	H50	0.932400	0.744400	0.513300
H511	H51	0.917600	0.603600	0.336100
H521	H52	0.046900	0.791500	0.531100
H531	H53	0.042500	0.553700	0.410600
H541	H54	0.153200	0.549400	0.367100
H551	H55	0.153000	0.939100	0.616000
H561	H56	0.145300	0.996700	0.591400
H571	H57	0.134000	0.640000	0.480100
H581	H58	0.128800	0.876000	0.266000
H591	H59	0.131100	0.683200	0.450800
H601	H60	0.030300	0.693100	0.400400
H611	H61	0.132900	0.599000	0.524400
H621	H62	0.021600	0.904800	0.317200
H631	H63	0.132400	0.725600	0.147800
H641	H64	0.932400	0.768900	0.255600
H651	H65	0.917600	0.732500	0.396400
H661	H66	0.046900	0.739600	0.208500
H671	H67	0.042500	0.856900	0.446300
H681	H68	0.153200	0.817700	0.450600
H691	H69	0.153000	0.676900	0.060900
H701	H70	0.145300	0.594700	0.003300
H711	H71	0.134000	0.840100	0.360000
H721	H72	0.128800	0.390000	0.124000
H731	H73	0.131100	0.767600	0.316800
H741	H74	0.030300	0.707300	0.306900
H751	H75	0.132900	0.925400	0.401000
H761	H76	0.021600	0.412400	0.095200
H771	H77	0.132400	0.422200	0.274400
H781	H78	0.932400	0.486700	0.231100
H791	H79	0.917600	0.663900	0.267500
H801	H80	0.046900	0.468900	0.260400
H811	H81	0.042500	0.589400	0.143100
H821	H82	0.153200	0.632900	0.182300
H831	H83	0.153000	0.384000	0.323100
H841	H84	0.145300	0.408600	0.405300
H851	H85	0.634000	0.360000	0.840100
H861	H86	0.628800	0.124000	0.390000
H871	H87	0.631100	0.316800	0.767600
H881	H88	0.530300	0.306900	0.707300
H891	H89	0.632900	0.401000	0.925400
H901	H90	0.521600	0.095200	0.412400
H911	H91	0.632400	0.274400	0.422200
H921	H92	0.432400	0.231100	0.486700
H931	H93	0.417600	0.267500	0.663900
H941	H94	0.546900	0.260400	0.468900
H951	H95	0.542500	0.143100	0.589400
H961	H96	0.653200	0.182300	0.632900
H971	H97	0.653000	0.323100	0.384000
H981	H98	0.645300	0.405300	0.408600
H991	H99	0.634000	0.159900	0.519900
H1001	H100	0.628800	0.610000	0.734000
H1011	H101	0.631100	0.232400	0.549200
H1021	H102	0.530300	0.292700	0.599600
H1031	H103	0.632900	0.074600	0.475600
H1041	H104	0.521600	0.587600	0.682800
H1051	H105	0.632400	0.577800	0.852200
H1061	H106	0.432400	0.513300	0.744400
H1071	H107	0.417600	0.336100	0.603600
H1081	H108	0.546900	0.531100	0.791500
H1091	H109	0.542500	0.410600	0.553700
H1101	H110	0.653200	0.367100	0.549400
H1111	H111	0.653000	0.616000	0.939100
H1121	H112	0.645300	0.591400	0.996700
H1131	H113	0.634000	0.480100	0.640000
H1141	H114	0.628800	0.266000	0.876000
H1151	H115	0.631100	0.450800	0.683200
H1161	H116	0.530300	0.400400	0.693100
H1171	H117	0.632900	0.524400	0.599000
H1181	H118	0.521600	0.317200	0.904800
H1191	H119	0.632400	0.147800	0.725600
H1201	H120	0.432400	0.255600	0.768900
H1211	H121	0.417600	0.396400	0.732500
H1221	H122	0.546900	0.208500	0.739600
H1231	H123	0.542500	0.446300	0.856900
H1241	H124	0.653200	0.450600	0.817700
H1251	H125	0.653000	0.060900	0.676900
H1261	H126	0.645300	0.003300	0.594700
H1271	H127	0.866000	0.360000	0.840100
H1281	H128	0.871200	0.124000	0.390000
H1291	H129	0.868900	0.316800	0.767600
H1301	H130	0.969700	0.306900	0.707300
H1311	H131	0.867100	0.401000	0.925400
H1321	H132	0.978400	0.095200	0.412400
H1331	H133	0.867600	0.274400	0.422200
H1341	H134	0.067600	0.231100	0.486700
H1351	H135	0.082400	0.267500	0.663900
H1361	H136	0.953100	0.260400	0.468900
H1371	H137	0.957500	0.143100	0.589400
H1381	H138	0.846800	0.182300	0.632900
H1391	H139	0.847000	0.323100	0.384000
H1401	H140	0.854700	0.405300	0.408600
H1411	H141	0.866000	0.159900	0.519900
H1421	H142	0.871200	0.610000	0.734000
H1431	H143	0.868900	0.232400	0.549200
H1441	H144	0.969700	0.292700	0.599600
H1451	H145	0.867100	0.074600	0.475600
H1461	H146	0.978400	0.587600	0.682800
H1471	H147	0.867600	0.577800	0.852200
H1481	H148	0.067600	0.513300	0.744400
H1491	H149	0.082400	0.336100	0.603600
H1501	H150	0.953100	0.531100	0.791500
H1511	H151	0.957500	0.410600	0.553700
H1521	H152	0.846800	0.367100	0.549400
H1531	H153	0.847000	0.616000	0.939100
H1541	H154	0.854700	0.591400	0.996700
H1551	H155	0.866000	0.480100	0.640000
H1561	H156	0.871200	0.266000	0.876000
H1571	H157	0.868900	0.450800	0.683200
H1581	H158	0.969700	0.400400	0.693100
H1591	H159	0.867100	0.524400	0.599000
H1601	H160	0.978400	0.317200	0.904800
H1611	H161	0.867600	0.147800	0.725600
H1621	H162	0.067600	0.255600	0.768900
H1631	H163	0.082400	0.396400	0.732500
H1641	H164	0.953100	0.208500	0.739600
H1651	H165	0.957500	0.446300	0.856900
H1661	H166	0.846800	0.450600	0.817700
H1671	H167	0.847000	0.060900	0.676900
H1681	H168	0.854700	0.003300	0.594700
H1691	H169	0.250000	0.592100	0.356800
H1701	H170	0.250000	0.740700	0.571800
H1711	H171	0.250000	0.764700	0.407900
H1721	H172	0.250000	0.831100	0.259300
H1731	H173	0.250000	0.643200	0.235300
H1741	H174	0.250000	0.428200	0.168900
H1751	H175	0.750000	0.235300	0.643200
H1761	H176	0.750000	0.168900	0.428200
H1771	H177	0.750000	0.356800	0.592100
H1781	H178	0.750000	0.571800	0.740700
H1791	H179	0.750000	0.407900	0.764700
H1801	H180	0.750000	0.259300	0.831100
C11	C1	0.321400	0.571100	0.299900
C21	C2	0.395800	0.574400	0.326300
C31	C3	0.532000	0.580100	0.379500
C41	C4	0.317800	0.510400	0.143300
C51	C5	0.394700	0.766800	0.571400
C61	C6	0.408600	0.735300	0.588900
C71	C7	0.321100	0.554400	0.249000
C81	C8	0.467500	0.590600	0.316700
C91	C9	0.319200	0.483700	0.091600
C101	C10	0.321300	0.793400	0.577100
C111	C11	0.474200	0.705700	0.577300
C121	C12	0.319800	0.837400	0.577700
C131	C13	0.527600	0.741700	0.532200
C141	C14	0.534700	0.593100	0.342700
C151	C15	0.458100	0.769900	0.543000
C161	C16	0.602100	0.676900	0.532100
C171	C17	0.601700	0.583000	0.408300
C181	C18	0.460500	0.563400	0.387200
C191	C19	0.394000	0.560700	0.361000
C201	C20	0.534800	0.710700	0.549600
C211	C21	0.308900	0.940200	0.595100
C221	C22	0.310100	0.976700	0.582600
C231	C23	0.321400	0.728800	0.428900
C241	C24	0.395800	0.751900	0.425600
C251	C25	0.532000	0.799400	0.419900
C261	C26	0.317800	0.632900	0.489600
C271	C27	0.394700	0.804600	0.233200
C281	C28	0.408600	0.853600	0.264700
C291	C29	0.321100	0.694600	0.445600
C301	C30	0.467500	0.726100	0.409400
C311	C31	0.319200	0.607900	0.516300
C321	C32	0.321300	0.783700	0.206600
C331	C33	0.474200	0.871600	0.294300
C341	C34	0.319800	0.740300	0.162600
C351	C35	0.527600	0.790500	0.258300
C361	C36	0.534700	0.749600	0.406900
C371	C37	0.458100	0.773100	0.230100
C381	C38	0.602100	0.855200	0.323100
C391	C39	0.601700	0.825300	0.417000
C401	C40	0.460500	0.823800	0.436600
C411	C41	0.394000	0.800300	0.439300
C421	C42	0.534800	0.838900	0.289300
C431	C43	0.308900	0.654900	0.059800
C441	C44	0.310100	0.605900	0.023300
C451	C45	0.321400	0.700100	0.271200
C461	C46	0.395800	0.673700	0.248100
C471	C47	0.532000	0.620500	0.200600
C481	C48	0.317800	0.856700	0.367100
C491	C49	0.394700	0.428600	0.195400
C501	C50	0.408600	0.411100	0.146400
C511	C51	0.321100	0.751000	0.305400
C521	C52	0.467500	0.683300	0.273900
C531	C53	0.319200	0.908400	0.392100
C541	C54	0.321300	0.422900	0.216300
C551	C55	0.474200	0.422700	0.128400
C561	C56	0.319800	0.422300	0.259700
C571	C57	0.527600	0.467800	0.209500
C581	C58	0.534700	0.657300	0.250400
C591	C59	0.458100	0.457000	0.226900
C601	C60	0.602100	0.467900	0.144800
C611	C61	0.601700	0.591700	0.174700
C621	C62	0.460500	0.612800	0.176200
C631	C63	0.394000	0.639000	0.199700
C641	C64	0.534800	0.450400	0.161100
C651	C65	0.308900	0.404900	0.345100
C661	C66	0.310100	0.417400	0.394100
C671	C67	0.178600	0.571100	0.299900
C681	C68	0.104200	0.574400	0.326300
C691	C69	0.968000	0.580100	0.379500
C701	C70	0.182200	0.510400	0.143300
C711	C71	0.105300	0.766800	0.571400
C721	C72	0.091400	0.735300	0.588900
C731	C73	0.178900	0.554400	0.249000
C741	C74	0.032500	0.590600	0.316700
C751	C75	0.180800	0.483700	0.091600
C761	C76	0.178700	0.793400	0.577100
C771	C77	0.025800	0.705700	0.577300
C781	C78	0.180200	0.837400	0.577700
C791	C79	0.972400	0.741700	0.532200
C801	C80	0.965300	0.593100	0.342700
C811	C81	0.041900	0.769900	0.543000
C821	C82	0.897900	0.676900	0.532100
C831	C83	0.898300	0.583000	0.408300
C841	C84	0.039500	0.563400	0.387200
C851	C85	0.106000	0.560700	0.361000
C861	C86	0.965200	0.710700	0.549600
C871	C87	0.191100	0.940200	0.595100
C881	C88	0.189900	0.976700	0.582600
C891	C89	0.178600	0.728800	0.428900
C901	C90	0.104200	0.751900	0.425600
C911	C91	0.968000	0.799400	0.419900
C921	C92	0.182200	0.632900	0.489600
C931	C93	0.105300	0.804600	0.233200
C941	C94	0.091400	0.853600	0.264700
C951	C95	0.178900	0.694600	0.445600
C961	C96	0.032500	0.726100	0.409400
C971	C97	0.180800	0.607900	0.516300
C981	C98	0.178700	0.783700	0.206600
C991	C99	0.025800	0.871600	0.294300
C1001	C100	0.180200	0.740300	0.162600
C1011	C101	0.972400	0.790500	0.258300
C1021	C102	0.965300	0.749600	0.406900
C1031	C103	0.041900	0.773100	0.230100
C1041	C104	0.897900	0.855200	0.323100
C1051	C105	0.898300	0.825300	0.417000
C1061	C106	0.039500	0.823800	0.436600
C1071	C107	0.106000	0.800300	0.439300
C1081	C108	0.965200	0.838900	0.289300
C1091	C109	0.191100	0.654900	0.059800
C1101	C110	0.189900	0.605900	0.023300
C1111	C111	0.178600	0.700100	0.271200
C1121	C112	0.104200	0.673700	0.248100
C1131	C113	0.968000	0.620500	0.200600
C1141	C114	0.182200	0.856700	0.367100
C1151	C115	0.105300	0.428600	0.195400
C1161	C116	0.091400	0.411100	0.146400
C1171	C117	0.178900	0.751000	0.305400
C1181	C118	0.032500	0.683300	0.273900
C1191	C119	0.180800	0.908400	0.392100
C1201	C120	0.178700	0.422900	0.216300
C1211	C121	0.025800	0.422700	0.128400
C1221	C122	0.180200	0.422300	0.259700
C1231	C123	0.972400	0.467800	0.209500
C1241	C124	0.965300	0.657300	0.250400
C1251	C125	0.041900	0.457000	0.226900
C1261	C126	0.897900	0.467900	0.144800
C1271	C127	0.898300	0.591700	0.174700
C1281	C128	0.039500	0.612800	0.176200
C1291	C129	0.106000	0.639000	0.199700
C1301	C130	0.965200	0.450400	0.161100
C1311	C131	0.191100	0.404900	0.345100
C1321	C132	0.189900	0.417400	0.394100
C1331	C133	0.678600	0.271200	0.700100
C1341	C134	0.604200	0.248100	0.673700
C1351	C135	0.468000	0.200600	0.620500
C1361	C136	0.682200	0.367100	0.856700
C1371	C137	0.605300	0.195400	0.428600
C1381	C138	0.591400	0.146400	0.411100
C1391	C139	0.678900	0.305400	0.751000
C1401	C140	0.532500	0.273900	0.683300
C1411	C141	0.680800	0.392100	0.908400
C1421	C142	0.678700	0.216300	0.422900
C1431	C143	0.525800	0.128400	0.422700
C1441	C144	0.680200	0.259700	0.422300
C1451	C145	0.472400	0.209500	0.467800
C1461	C146	0.465300	0.250400	0.657300
C1471	C147	0.541900	0.226900	0.457000
C1481	C148	0.397900	0.144800	0.467900
C1491	C149	0.398300	0.174700	0.591700
C1501	C150	0.539500	0.176200	0.612800
C1511	C151	0.606000	0.199700	0.639000
C1521	C152	0.465200	0.161100	0.450400
C1531	C153	0.691100	0.345100	0.404900
C1541	C154	0.689900	0.394100	0.417400
C1551	C155	0.678600	0.299900	0.571100
C1561	C156	0.604200	0.326300	0.574400
C1571	C157	0.468000	0.379500	0.580100
C1581	C158	0.682200	0.143300	0.510400
C1591	C159	0.605300	0.571400	0.766800
C1601	C160	0.591400	0.588900	0.735300
C1611	C161	0.678900	0.249000	0.554400
C1621	C162	0.532500	0.316700	0.590600
C1631	C163	0.680800	0.091600	0.483700
C1641	C164	0.678700	0.577100	0.793400
C1651	C165	0.525800	0.577300	0.705700
C1661	C166	0.680200	0.577700	0.837400
C1671	C167	0.472400	0.532200	0.741700
C1681	C168	0.465300	0.342700	0.593100
C1691	C169	0.541900	0.543000	0.769900
C1701	C170	0.397900	0.532100	0.676900
C1711	C171	0.398300	0.408300	0.583000
C1721	C172	0.539500	0.387200	0.563400
C1731	C173	0.606000	0.361000	0.560700
C1741	C174	0.465200	0.549600	0.710700
C1751	C175	0.691100	0.595100	0.940200
C1761	C176	0.689900	0.582600	0.976700
C1771	C177	0.678600	0.428900	0.728800
C1781	C178	0.604200	0.425600	0.751900
C1791	C179	0.468000	0.419900	0.799400
C1801	C180	0.682200	0.489600	0.632900
C1811	C181	0.605300	0.233200	0.804600
C1821	C182	0.591400	0.264700	0.853600
C1831	C183	0.678900	0.445600	0.694600
C1841	C184	0.532500	0.409400	0.726100
C1851	C185	0.680800	0.516300	0.607900
C1861	C186	0.678700	0.206600	0.783700
C1871	C187	0.525800	0.294300	0.871600
C1881	C188	0.680200	0.162600	0.740300
C1891	C189	0.472400	0.258300	0.790500
C1901	C190	0.465300	0.406900	0.749600
C1911	C191	0.541900	0.230100	0.773100
C1921	C192	0.397900	0.323100	0.855200
C1931	C193	0.398300	0.417000	0.825300
C1941	C194	0.539500	0.436600	0.823800
C1951	C195	0.606000	0.439300	0.800300
C1961	C196	0.465200	0.289300	0.838900
C1971	C197	0.691100	0.059800	0.654900
C1981	C198	0.689900	0.023300	0.605900
C1991	C199	0.821400	0.271200	0.700100
C2001	C200	0.895800	0.248100	0.673700
C2011	C201	0.032000	0.200600	0.620500
C2021	C202	0.817800	0.367100	0.856700
C2031	C203	0.894700	0.195400	0.428600
C2041	C204	0.908600	0.146400	0.411100
C2051	C205	0.821100	0.305400	0.751000
C2061	C206	0.967500	0.273900	0.683300
C2071	C207	0.819200	0.392100	0.908400
C2081	C208	0.821300	0.216300	0.422900
C2091	C209	0.974200	0.128400	0.422700
C2101	C210	0.819800	0.259700	0.422300
C2111	C211	0.027600	0.209500	0.467800
C2121	C212	0.034700	0.250400	0.657300
C2131	C213	0.958100	0.226900	0.457000
C2141	C214	0.102100	0.144800	0.467900
C2151	C215	0.101700	0.174700	0.591700
C2161	C216	0.960500	0.176200	0.612800
C2171	C217	0.894000	0.199700	0.639000
C2181	C218	0.034800	0.161100	0.450400
C2191	C219	0.808900	0.345100	0.404900
C2201	C220	0.810100	0.394100	0.417400
C2211	C221	0.821400	0.299900	0.571100
C2221	C222	0.895800	0.326300	0.574400
C2231	C223	0.032000	0.379500	0.580100
C2241	C224	0.817800	0.143300	0.510400
C2251	C225	0.894700	0.571400	0.766800
C2261	C226	0.908600	0.588900	0.735300
C2271	C227	0.821100	0.249000	0.554400
C2281	C228	0.967500	0.316700	0.590600
C2291	C229	0.819200	0.091600	0.483700
C2301	C230	0.821300	0.577100	0.793400
C2311	C231	0.974200	0.577300	0.705700
C2321	C232	0.819800	0.577700	0.837400
C2331	C233	0.027600	0.532200	0.741700
C2341	C234	0.034700	0.342700	0.593100
C2351	C235	0.958100	0.543000	0.769900
C2361	C236	0.102100	0.532100	0.676900
C2371	C237	0.101700	0.408300	0.583000
C2381	C238	0.960500	0.387200	0.563400
C2391	C239	0.894000	0.361000	0.560700
C2401	C240	0.034800	0.549600	0.710700
C2411	C241	0.808900	0.595100	0.940200
C2421	C242	0.810100	0.582600	0.976700
C2431	C243	0.821400	0.428900	0.728800
C2441	C244	0.895800	0.425600	0.751900
C2451	C245	0.032000	0.419900	0.799400
C2461	C246	0.817800	0.489600	0.632900
C2471	C247	0.894700	0.233200	0.804600
C2481	C248	0.908600	0.264700	0.853600
C2491	C249	0.821100	0.445600	0.694600
C2501	C250	0.967500	0.409400	0.726100
C2511	C251	0.819200	0.516300	0.607900
C2521	C252	0.821300	0.206600	0.783700
C2531	C253	0.974200	0.294300	0.871600
C2541	C254	0.819800	0.162600	0.740300
C2551	C255	0.027600	0.258300	0.790500
C2561	C256	0.034700	0.406900	0.749600
C2571	C257	0.958100	0.230100	0.773100
C2581	C258	0.102100	0.323100	0.855200
C2591	C259	0.101700	0.417000	0.825300
C2601	C260	0.960500	0.436600	0.823800
C2611	C261	0.894000	0.439300	0.800300
C2621	C262	0.034800	0.289300	0.838900
C2631	C263	0.808900	0.059800	0.654900
C2641	C264	0.810100	0.023300	0.605900
C2651	C265	0.250000	0.579600	0.323000
C2661	C266	0.250000	0.985600	0.558000
C2671	C267	0.250000	0.023200	0.546900
C2681	C268	0.250000	0.440900	0.013100
C2691	C269	0.250000	0.523000	0.170300
C2701	C270	0.250000	0.906200	0.575800
C2711	C271	0.250000	0.771700	0.574900
C2721	C272	0.250000	0.860100	0.577800
C2731	C273	0.250000	0.545600	0.223600
C2741	C274	0.250000	0.470300	0.067600
C2751	C275	0.250000	0.743400	0.420400
C2761	C276	0.250000	0.572400	0.014400
C2771	C277	0.250000	0.523700	0.976800
C2781	C278	0.250000	0.572200	0.559100
C2791	C279	0.250000	0.647300	0.477000
C2801	C280	0.250000	0.669600	0.093800
C2811	C281	0.250000	0.803200	0.228300
C2821	C282	0.250000	0.717700	0.139900
C2831	C283	0.250000	0.678000	0.454400
C2841	C284	0.250000	0.597300	0.529700
C2851	C285	0.250000	0.677000	0.256600
C2861	C286	0.250000	0.442000	0.427600
C2871	C287	0.250000	0.453100	0.476300
C2881	C288	0.250000	0.986900	0.427800
C2891	C289	0.250000	0.829700	0.352700
C2901	C290	0.250000	0.424200	0.330400
C2911	C291	0.250000	0.425100	0.196800
C2921	C292	0.250000	0.422200	0.282300
C2931	C293	0.250000	0.776400	0.322000
C2941	C294	0.250000	0.932400	0.402700
C2951	C295	0.750000	0.256600	0.677000
C2961	C296	0.750000	0.427600	0.442000
C2971	C297	0.750000	0.476300	0.453100
C2981	C298	0.750000	0.427800	0.986900
C2991	C299	0.750000	0.352700	0.829700
C3001	C300	0.750000	0.330400	0.424200
C3011	C301	0.750000	0.196800	0.425100
C3021	C302	0.750000	0.282300	0.422200
C3031	C303	0.750000	0.322000	0.776400
C3041	C304	0.750000	0.402700	0.932400
C3051	C305	0.750000	0.323000	0.579600
C3061	C306	0.750000	0.558000	0.985600
C3071	C307	0.750000	0.546900	0.023200
C3081	C308	0.750000	0.013100	0.440900
C3091	C309	0.750000	0.170300	0.523000
C3101	C310	0.750000	0.575800	0.906200
C3111	C311	0.750000	0.574900	0.771700
C3121	C312	0.750000	0.577800	0.860100
C3131	C313	0.750000	0.223600	0.545600
C3141	C314	0.750000	0.067600	0.470300
C3151	C315	0.750000	0.420400	0.743400
C3161	C316	0.750000	0.014400	0.572400
C3171	C317	0.750000	0.976800	0.523700
C3181	C318	0.750000	0.559100	0.572200
C3191	C319	0.750000	0.477000	0.647300
C3201	C320	0.750000	0.093800	0.669600
C3211	C321	0.750000	0.228300	0.803200
C3221	C322	0.750000	0.139900	0.717700
C3231	C323	0.750000	0.454400	0.678000
C3241	C324	0.750000	0.529700	0.597300
O11	O1	0.593500	0.569990	0.440120
O21	O2	0.538300	0.541640	0.509930
O31	O3	0.315100	0.039800	0.542100
O41	O4	0.662900	0.605100	0.406400
O51	O5	0.314600	0.431100	0.992050
O61	O6	0.656300	0.682530	0.509170
O71	O7	0.602400	0.641590	0.542040
O81	O8	0.593500	0.870130	0.430010
O91	O9	0.538300	0.968290	0.458360
O101	O10	0.315100	0.502300	0.960200
O111	O11	0.662900	0.801300	0.394900
O121	O12	0.314600	0.560950	0.568900
O131	O13	0.656300	0.826640	0.317470
O141	O14	0.602400	0.900450	0.358410
O151	O15	0.593500	0.559880	0.129870
O161	O16	0.538300	0.490070	0.031710
O171	O17	0.315100	0.457900	0.497700
O181	O18	0.662900	0.593600	0.198700
O191	O19	0.314600	0.007950	0.439050
O201	O20	0.656300	0.490830	0.173360
O211	O21	0.602400	0.457960	0.099550
O221	O22	0.906500	0.569990	0.440120
O231	O23	0.961700	0.541640	0.509930
O241	O24	0.184900	0.039800	0.542100
O251	O25	0.837100	0.605100	0.406400
O261	O26	0.185400	0.431100	0.992050
O271	O27	0.843700	0.682530	0.509170
O281	O28	0.897600	0.641590	0.542040
O291	O29	0.906500	0.870130	0.430010
O301	O30	0.961700	0.968290	0.458360
O311	O31	0.184900	0.502300	0.960200
O321	O32	0.837100	0.801300	0.394900
O331	O33	0.185400	0.560950	0.568900
O341	O34	0.843700	0.826640	0.317470
O351	O35	0.897600	0.900450	0.358410
O361	O36	0.906500	0.559880	0.129870
O371	O37	0.961700	0.490070	0.031710
O381	O38	0.184900	0.457900	0.497700
O391	O39	0.837100	0.593600	0.198700
O401	O40	0.185400	0.007950	0.439050
O411	O41	0.843700	0.490830	0.173360
O421	O42	0.897600	0.457960	0.099550
O431	O43	0.406500	0.129870	0.559880
O441	O44	0.461700	0.031710	0.490070
O451	O45	0.684900	0.497700	0.457900
O461	O46	0.337100	0.198700	0.593600
O471	O47	0.685400	0.439050	0.007950
O481	O48	0.343700	0.173360	0.490830
O491	O49	0.397600	0.099550	0.457960
O501	O50	0.406500	0.440120	0.569990
O511	O51	0.461700	0.509930	0.541640
O521	O52	0.684900	0.542100	0.039800
O531	O53	0.337100	0.406400	0.605100
O541	O54	0.685400	0.992050	0.431100
O551	O55	0.343700	0.509170	0.682530
O561	O56	0.397600	0.542040	0.641590
O571	O57	0.406500	0.430010	0.870130
O581	O58	0.461700	0.458360	0.968290
O591	O59	0.684900	0.960200	0.502300
O601	O60	0.337100	0.394900	0.801300
O611	O61	0.685400	0.568900	0.560950
O621	O62	0.343700	0.317470	0.826640
O631	O63	0.397600	0.358410	0.900450
O641	O64	0.093500	0.129870	0.559880
O651	O65	0.038300	0.031710	0.490070
O661	O66	0.815100	0.497700	0.457900
O671	O67	0.162900	0.198700	0.593600
O681	O68	0.814600	0.439050	0.007950
O691	O69	0.156300	0.173360	0.490830
O701	O70	0.102400	0.099550	0.457960
O711	O71	0.093500	0.440120	0.569990
O721	O72	0.038300	0.509930	0.541640
O731	O73	0.815100	0.542100	0.039800
O741	O74	0.162900	0.406400	0.605100
O751	O75	0.814600	0.992050	0.431100
O761	O76	0.156300	0.509170	0.682530
O771	O77	0.102400	0.542040	0.641590
O781	O78	0.093500	0.430010	0.870130
O791	O79	0.038300	0.458360	0.968290
O801	O80	0.815100	0.960200	0.502300
O811	O81	0.162900	0.394900	0.801300
O821	O82	0.814600	0.568900	0.560950
O831	O83	0.156300	0.317470	0.826640
O841	O84	0.102400	0.358410	0.900450
O851	O85	0.750000	0.593400	0.485740
O861	O86	0.750000	0.695800	0.438300
O871	O87	0.750000	0.892340	0.406600
O881	O88	0.750000	0.742500	0.304200
O891	O89	0.750000	0.514260	0.107660
O901	O90	0.750000	0.561700	0.257500
O911	O91	0.250000	0.107660	0.514260
O921	O92	0.250000	0.257500	0.561700
O931	O93	0.250000	0.485740	0.593400
O941	O94	0.250000	0.438300	0.695800
O951	O95	0.250000	0.406600	0.892340
O961	O96	0.250000	0.304200	0.742500
