data_OJIWIO_freeONLY_PM
_symmetry_space_group_name_H-M	'P1'
_cell_length_a	11.217000
_cell_length_b	11.526000
_cell_length_c	17.703000
_cell_angle_alpha	90.000000
_cell_angle_beta	90.000000
_cell_angle_gamma	106.917000
_symmetry_Int_Tables_number 1

loop_
_symmetry_equiv_pos_as_xyz
'x,y,z'

loop_
_atom_site_label
_atom_site_type_symbol
_atom_site_fract_x
_atom_site_fract_y
_atom_site_fract_z
Zn11	Zn1	0.458950	0.864650	0.992230
Zn21	Zn2	0.041050	0.135350	0.492230
Zn31	Zn3	0.541050	0.135350	0.007770
Zn41	Zn4	0.958950	0.864650	0.507770
H11	H1	0.648300	0.858900	0.634800
H21	H2	0.555900	0.846100	0.753800
H31	H3	0.703600	0.205500	0.781100
H41	H4	0.805100	0.218700	0.664000
H51	H5	0.212400	0.706400	0.035400
H61	H6	0.097200	0.502800	0.039100
H71	H7	0.380400	0.424300	0.933800
H81	H8	0.485400	0.628300	0.930500
H91	H9	0.902600	0.126300	0.843100
H101	H10	0.201500	0.081100	0.151800
H111	H11	0.851700	0.141100	0.134800
H121	H12	0.944100	0.153900	0.253800
H131	H13	0.796400	0.794500	0.281100
H141	H14	0.694900	0.781300	0.164000
H151	H15	0.287600	0.293600	0.535400
H161	H16	0.402800	0.497200	0.539100
H171	H17	0.119600	0.575700	0.433800
H181	H18	0.014600	0.371700	0.430500
H191	H19	0.597400	0.873700	0.343100
H201	H20	0.298500	0.918900	0.651800
H211	H21	0.351700	0.141100	0.365200
H221	H22	0.444100	0.153900	0.246200
H231	H23	0.296400	0.794500	0.218900
H241	H24	0.194900	0.781300	0.336000
H251	H25	0.787600	0.293600	0.964600
H261	H26	0.902800	0.497200	0.960900
H271	H27	0.619600	0.575700	0.066200
H281	H28	0.514600	0.371700	0.069500
H291	H29	0.097400	0.873700	0.156900
H301	H30	0.798500	0.918900	0.848200
H311	H31	0.148300	0.858900	0.865200
H321	H32	0.055900	0.846100	0.746200
H331	H33	0.203600	0.205500	0.718900
H341	H34	0.305100	0.218700	0.836000
H351	H35	0.712400	0.706400	0.464600
H361	H36	0.597200	0.502800	0.460900
H371	H37	0.880400	0.424300	0.566200
H381	H38	0.985400	0.628300	0.569500
H391	H39	0.402600	0.126300	0.656900
H401	H40	0.701500	0.081100	0.348200
C11	C1	0.816000	0.044100	0.566500
C21	C2	0.740700	0.039600	0.638700
C31	C3	0.662900	0.928600	0.665000
C41	C4	0.606800	0.921200	0.736300
C51	C5	0.625800	0.023800	0.781400
C61	C6	0.695800	0.134600	0.752800
C71	C7	0.755600	0.143200	0.681900
C81	C8	0.576500	0.014400	0.862400
C91	C9	0.247300	0.648200	0.015300
C101	C10	0.177500	0.526100	0.017900
C111	C11	0.228200	0.441300	0.989100
C121	C12	0.344500	0.480600	0.955500
C131	C13	0.407200	0.602500	0.954300
C141	C14	0.189000	0.244400	0.052800
C151	C15	0.119000	0.115600	0.056100
C161	C16	0.032000	0.064600	0.998800
C171	C17	0.003300	0.133700	0.938500
C181	C18	0.067900	0.266700	0.936800
C191	C19	0.918700	0.079300	0.883100
C201	C20	0.143300	0.045300	0.114200
C211	C21	0.684000	0.955900	0.066500
C221	C22	0.759300	0.960400	0.138700
C231	C23	0.837100	0.071400	0.165000
C241	C24	0.893200	0.078800	0.236300
C251	C25	0.874200	0.976200	0.281400
C261	C26	0.804200	0.865400	0.252800
C271	C27	0.744400	0.856800	0.181900
C281	C28	0.923500	0.985600	0.362400
C291	C29	0.252700	0.351800	0.515300
C301	C30	0.322500	0.473900	0.517900
C311	C31	0.271800	0.558700	0.489100
C321	C32	0.155500	0.519400	0.455500
C331	C33	0.092800	0.397500	0.454300
C341	C34	0.311000	0.755600	0.552800
C351	C35	0.381000	0.884400	0.556100
C361	C36	0.468000	0.935400	0.498800
C371	C37	0.496700	0.866300	0.438500
C381	C38	0.432100	0.733300	0.436800
C391	C39	0.581300	0.920700	0.383100
C401	C40	0.356700	0.954700	0.614200
C411	C41	0.184000	0.955900	0.433500
C421	C42	0.259300	0.960400	0.361300
C431	C43	0.337100	0.071400	0.335000
C441	C44	0.393200	0.078800	0.263700
C451	C45	0.374200	0.976200	0.218600
C461	C46	0.304200	0.865400	0.247200
C471	C47	0.244400	0.856800	0.318100
C481	C48	0.423500	0.985600	0.137600
C491	C49	0.752700	0.351800	0.984700
C501	C50	0.822500	0.473900	0.982100
C511	C51	0.771800	0.558700	0.010900
C521	C52	0.655500	0.519400	0.044500
C531	C53	0.592800	0.397500	0.045700
C541	C54	0.811000	0.755600	0.947200
C551	C55	0.881000	0.884400	0.943900
C561	C56	0.968000	0.935400	0.001200
C571	C57	0.996700	0.866300	0.061500
C581	C58	0.932100	0.733300	0.063200
C591	C59	0.081300	0.920700	0.116900
C601	C60	0.856700	0.954700	0.885800
C611	C61	0.316000	0.044100	0.933500
C621	C62	0.240700	0.039600	0.861300
C631	C63	0.162900	0.928600	0.835000
C641	C64	0.106800	0.921200	0.763700
C651	C65	0.125800	0.023800	0.718600
C661	C66	0.195800	0.134600	0.747200
C671	C67	0.255600	0.143200	0.818100
C681	C68	0.076500	0.014400	0.637600
C691	C69	0.747300	0.648200	0.484700
C701	C70	0.677500	0.526100	0.482100
C711	C71	0.728200	0.441300	0.510900
C721	C72	0.844500	0.480600	0.544500
C731	C73	0.907200	0.602500	0.545700
C741	C74	0.689000	0.244400	0.447200
C751	C75	0.619000	0.115600	0.443900
C761	C76	0.532000	0.064600	0.501200
C771	C77	0.503300	0.133700	0.561500
C781	C78	0.567900	0.266700	0.563200
C791	C79	0.418700	0.079300	0.616900
C801	C80	0.643300	0.045300	0.385800
N11	N1	0.360700	0.685600	0.985700
N21	N2	0.160000	0.311900	0.992000
N31	N3	0.139300	0.314400	0.485700
N41	N4	0.340000	0.688100	0.492000
N51	N5	0.639300	0.314400	0.014300
N61	N6	0.840000	0.688100	0.008000
N71	N7	0.860700	0.685600	0.514300
N81	N8	0.660000	0.311900	0.508000
O11	O1	0.817500	0.942200	0.539100
O21	O2	0.876100	0.146400	0.540800
O31	O3	0.529300	0.907000	0.887500
O41	O4	0.590900	0.111100	0.897900
O51	O5	0.271500	0.298000	0.097800
O61	O6	0.044700	0.335200	0.889000
O71	O7	0.682500	0.057800	0.039100
O81	O8	0.623900	0.853600	0.040800
O91	O9	0.970700	0.093000	0.387500
O101	O10	0.909100	0.888900	0.397900
O111	O11	0.228500	0.702000	0.597800
O121	O12	0.455300	0.664800	0.389000
O131	O13	0.182500	0.057800	0.460900
O141	O14	0.123900	0.853600	0.459200
O151	O15	0.470700	0.093000	0.112500
O161	O16	0.409100	0.888900	0.102100
O171	O17	0.728500	0.702000	0.902200
O181	O18	0.955300	0.664800	0.111000
O191	O19	0.317500	0.942200	0.960900
O201	O20	0.376100	0.146400	0.959200
O211	O21	0.029300	0.907000	0.612500
O221	O22	0.090900	0.111100	0.602100
O231	O23	0.771500	0.298000	0.402200
O241	O24	0.544700	0.335200	0.611000
