data_OKABEI_freeONLY_PM
_symmetry_space_group_name_H-M	'P1'
_cell_length_a	18.205600
_cell_length_b	18.205600
_cell_length_c	40.665500
_cell_angle_alpha	90.000000
_cell_angle_beta	90.000000
_cell_angle_gamma	120.000000
_symmetry_Int_Tables_number 1

loop_
_symmetry_equiv_pos_as_xyz
'x,y,z'

loop_
_atom_site_label
_atom_site_type_symbol
_atom_site_fract_x
_atom_site_fract_y
_atom_site_fract_z
Cu11	Cu1	0.474850	0.949700	0.525400
Cu21	Cu2	0.474850	0.525140	0.525400
Cu31	Cu3	0.050290	0.525140	0.525400
Cu41	Cu4	0.525150	0.050300	0.025400
Cu51	Cu5	0.525150	0.474860	0.025400
Cu61	Cu6	0.949710	0.474860	0.025400
Cu71	Cu7	0.525150	0.050300	0.474600
Cu81	Cu8	0.949710	0.474860	0.474600
Cu91	Cu9	0.525150	0.474860	0.474600
Cu101	Cu10	0.474850	0.949700	0.974600
Cu111	Cu11	0.050290	0.525140	0.974600
Cu121	Cu12	0.474850	0.525140	0.974600
Cu131	Cu13	0.941730	0.058280	0.250000
Cu141	Cu14	0.116550	0.058280	0.250000
Cu151	Cu15	0.941730	0.883460	0.250000
Cu161	Cu16	0.058270	0.941720	0.750000
Cu171	Cu17	0.883450	0.941720	0.750000
Cu181	Cu18	0.058270	0.116540	0.750000
H11	H1	0.638000	0.936000	0.416600
H21	H2	0.696700	0.955700	0.374900
H31	H3	0.778500	0.996400	0.328300
H41	H4	0.298000	0.362000	0.416600
H51	H5	0.259000	0.303300	0.374900
H61	H6	0.217900	0.221500	0.328300
H71	H7	0.064000	0.702000	0.416600
H81	H8	0.044300	0.741000	0.374900
H91	H9	0.003600	0.782100	0.328300
H101	H10	0.362000	0.064000	0.916600
H111	H11	0.303300	0.044300	0.874900
H121	H12	0.221500	0.003600	0.828300
H131	H13	0.702000	0.638000	0.916600
H141	H14	0.741000	0.696700	0.874900
H151	H15	0.782100	0.778500	0.828300
H161	H16	0.936000	0.298000	0.916600
H171	H17	0.955700	0.259000	0.874900
H181	H18	0.996400	0.217900	0.828300
H191	H19	0.702000	0.064000	0.583400
H201	H20	0.741000	0.044300	0.625100
H211	H21	0.782100	0.003600	0.671700
H221	H22	0.936000	0.638000	0.583400
H231	H23	0.955700	0.696700	0.625100
H241	H24	0.996400	0.778500	0.671700
H251	H25	0.362000	0.298000	0.583400
H261	H26	0.303300	0.259000	0.625100
H271	H27	0.221500	0.217900	0.671700
H281	H28	0.298000	0.936000	0.083400
H291	H29	0.259000	0.955700	0.125100
H301	H30	0.217900	0.996400	0.171700
H311	H31	0.064000	0.362000	0.083400
H321	H32	0.044300	0.303300	0.125100
H331	H33	0.003600	0.221500	0.171700
H341	H34	0.638000	0.702000	0.083400
H351	H35	0.696700	0.741000	0.125100
H361	H36	0.778500	0.782100	0.171700
H371	H37	0.362000	0.064000	0.583400
H381	H38	0.303300	0.044300	0.625100
H391	H39	0.221500	0.003600	0.671700
H401	H40	0.702000	0.638000	0.583400
H411	H41	0.741000	0.696700	0.625100
H421	H42	0.782100	0.778500	0.671700
H431	H43	0.936000	0.298000	0.583400
H441	H44	0.955700	0.259000	0.625100
H451	H45	0.996400	0.217900	0.671700
H461	H46	0.638000	0.936000	0.083400
H471	H47	0.696700	0.955700	0.125100
H481	H48	0.778500	0.996400	0.171700
H491	H49	0.298000	0.362000	0.083400
H501	H50	0.259000	0.303300	0.125100
H511	H51	0.217900	0.221500	0.171700
H521	H52	0.064000	0.702000	0.083400
H531	H53	0.044300	0.741000	0.125100
H541	H54	0.003600	0.782100	0.171700
H551	H55	0.298000	0.936000	0.416600
H561	H56	0.259000	0.955700	0.374900
H571	H57	0.217900	0.996400	0.328300
H581	H58	0.064000	0.362000	0.416600
H591	H59	0.044300	0.303300	0.374900
H601	H60	0.003600	0.221500	0.328300
H611	H61	0.638000	0.702000	0.416600
H621	H62	0.696700	0.741000	0.374900
H631	H63	0.778500	0.782100	0.328300
H641	H64	0.702000	0.064000	0.916600
H651	H65	0.741000	0.044300	0.874900
H661	H66	0.782100	0.003600	0.828300
H671	H67	0.936000	0.638000	0.916600
H681	H68	0.955700	0.696700	0.874900
H691	H69	0.996400	0.778500	0.828300
H701	H70	0.362000	0.298000	0.916600
H711	H71	0.303300	0.259000	0.874900
H721	H72	0.221500	0.217900	0.828300
H731	H73	0.534000	0.767000	0.490200
H741	H74	0.233000	0.466000	0.490200
H751	H75	0.233000	0.767000	0.490200
H761	H76	0.466000	0.233000	0.990200
H771	H77	0.767000	0.534000	0.990200
H781	H78	0.767000	0.233000	0.990200
H791	H79	0.767000	0.233000	0.509800
H801	H80	0.767000	0.534000	0.509800
H811	H81	0.466000	0.233000	0.509800
H821	H82	0.233000	0.767000	0.009800
H831	H83	0.233000	0.466000	0.009800
H841	H84	0.534000	0.767000	0.009800
C11	C1	0.553100	0.912700	0.471750
C21	C2	0.579600	0.855600	0.455750
C31	C3	0.622700	0.877700	0.426130
C41	C4	0.762900	0.943000	0.337880
C51	C5	0.359600	0.446900	0.471750
C61	C6	0.276000	0.420400	0.455750
C71	C7	0.255000	0.377300	0.426130
C81	C8	0.180100	0.237100	0.337880
C91	C9	0.087300	0.640400	0.471750
C101	C10	0.144400	0.724000	0.455750
C111	C11	0.122300	0.745000	0.426130
C121	C12	0.057000	0.819900	0.337880
C131	C13	0.446900	0.087300	0.971750
C141	C14	0.420400	0.144400	0.955750
C151	C15	0.377300	0.122300	0.926130
C161	C16	0.237100	0.057000	0.837880
C171	C17	0.640400	0.553100	0.971750
C181	C18	0.724000	0.579600	0.955750
C191	C19	0.745000	0.622700	0.926130
C201	C20	0.819900	0.762900	0.837880
C211	C21	0.912700	0.359600	0.971750
C221	C22	0.855600	0.276000	0.955750
C231	C23	0.877700	0.255000	0.926130
C241	C24	0.943000	0.180100	0.837880
C251	C25	0.640400	0.087300	0.528250
C261	C26	0.724000	0.144400	0.544250
C271	C27	0.745000	0.122300	0.573870
C281	C28	0.819900	0.057000	0.662120
C291	C29	0.912700	0.553100	0.528250
C301	C30	0.855600	0.579600	0.544250
C311	C31	0.877700	0.622700	0.573870
C321	C32	0.943000	0.762900	0.662120
C331	C33	0.446900	0.359600	0.528250
C341	C34	0.420400	0.276000	0.544250
C351	C35	0.377300	0.255000	0.573870
C361	C36	0.237100	0.180100	0.662120
C371	C37	0.359600	0.912700	0.028250
C381	C38	0.276000	0.855600	0.044250
C391	C39	0.255000	0.877700	0.073870
C401	C40	0.180100	0.943000	0.162120
C411	C41	0.087300	0.446900	0.028250
C421	C42	0.144400	0.420400	0.044250
C431	C43	0.122300	0.377300	0.073870
C441	C44	0.057000	0.237100	0.162120
C451	C45	0.553100	0.640400	0.028250
C461	C46	0.579600	0.724000	0.044250
C471	C47	0.622700	0.745000	0.073870
C481	C48	0.762900	0.819900	0.162120
C491	C49	0.446900	0.087300	0.528250
C501	C50	0.420400	0.144400	0.544250
C511	C51	0.377300	0.122300	0.573870
C521	C52	0.237100	0.057000	0.662120
C531	C53	0.640400	0.553100	0.528250
C541	C54	0.724000	0.579600	0.544250
C551	C55	0.745000	0.622700	0.573870
C561	C56	0.819900	0.762900	0.662120
C571	C57	0.912700	0.359600	0.528250
C581	C58	0.855600	0.276000	0.544250
C591	C59	0.877700	0.255000	0.573870
C601	C60	0.943000	0.180100	0.662120
C611	C61	0.553100	0.912700	0.028250
C621	C62	0.579600	0.855600	0.044250
C631	C63	0.622700	0.877700	0.073870
C641	C64	0.762900	0.943000	0.162120
C651	C65	0.359600	0.446900	0.028250
C661	C66	0.276000	0.420400	0.044250
C671	C67	0.255000	0.377300	0.073870
C681	C68	0.180100	0.237100	0.162120
C691	C69	0.087300	0.640400	0.028250
C701	C70	0.144400	0.724000	0.044250
C711	C71	0.122300	0.745000	0.073870
C721	C72	0.057000	0.819900	0.162120
C731	C73	0.359600	0.912700	0.471750
C741	C74	0.276000	0.855600	0.455750
C751	C75	0.255000	0.877700	0.426130
C761	C76	0.180100	0.943000	0.337880
C771	C77	0.087300	0.446900	0.471750
C781	C78	0.144400	0.420400	0.455750
C791	C79	0.122300	0.377300	0.426130
C801	C80	0.057000	0.237100	0.337880
C811	C81	0.553100	0.640400	0.471750
C821	C82	0.579600	0.724000	0.455750
C831	C83	0.622700	0.745000	0.426130
C841	C84	0.762900	0.819900	0.337880
C851	C85	0.640400	0.087300	0.971750
C861	C86	0.724000	0.144400	0.955750
C871	C87	0.745000	0.122300	0.926130
C881	C88	0.819900	0.057000	0.837880
C891	C89	0.912700	0.553100	0.971750
C901	C90	0.855600	0.579600	0.955750
C911	C91	0.877700	0.622700	0.926130
C921	C92	0.943000	0.762900	0.837880
C931	C93	0.446900	0.359600	0.971750
C941	C94	0.420400	0.276000	0.955750
C951	C95	0.377300	0.255000	0.926130
C961	C96	0.237100	0.180100	0.837880
C971	C97	0.559400	0.779700	0.470880
C981	C98	0.645500	0.822750	0.411170
C991	C99	0.692900	0.846450	0.379470
C1001	C100	0.788900	0.894450	0.323680
C1011	C101	0.845500	0.922750	0.294400
C1021	C102	0.220300	0.440600	0.470880
C1031	C103	0.177250	0.354500	0.411170
C1041	C104	0.153550	0.307100	0.379470
C1051	C105	0.105550	0.211100	0.323680
C1061	C106	0.077250	0.154500	0.294400
C1071	C107	0.220300	0.779700	0.470880
C1081	C108	0.177250	0.822750	0.411170
C1091	C109	0.153550	0.846450	0.379470
C1101	C110	0.105550	0.894450	0.323680
C1111	C111	0.077250	0.922750	0.294400
C1121	C112	0.440600	0.220300	0.970880
C1131	C113	0.354500	0.177250	0.911170
C1141	C114	0.307100	0.153550	0.879470
C1151	C115	0.211100	0.105550	0.823680
C1161	C116	0.154500	0.077250	0.794400
C1171	C117	0.779700	0.559400	0.970880
C1181	C118	0.822750	0.645500	0.911170
C1191	C119	0.846450	0.692900	0.879470
C1201	C120	0.894450	0.788900	0.823680
C1211	C121	0.922750	0.845500	0.794400
C1221	C122	0.779700	0.220300	0.970880
C1231	C123	0.822750	0.177250	0.911170
C1241	C124	0.846450	0.153550	0.879470
C1251	C125	0.894450	0.105550	0.823680
C1261	C126	0.922750	0.077250	0.794400
C1271	C127	0.779700	0.220300	0.529120
C1281	C128	0.822750	0.177250	0.588830
C1291	C129	0.846450	0.153550	0.620530
C1301	C130	0.894450	0.105550	0.676320
C1311	C131	0.922750	0.077250	0.705600
C1321	C132	0.779700	0.559400	0.529120
C1331	C133	0.822750	0.645500	0.588830
C1341	C134	0.846450	0.692900	0.620530
C1351	C135	0.894450	0.788900	0.676320
C1361	C136	0.922750	0.845500	0.705600
C1371	C137	0.440600	0.220300	0.529120
C1381	C138	0.354500	0.177250	0.588830
C1391	C139	0.307100	0.153550	0.620530
C1401	C140	0.211100	0.105550	0.676320
C1411	C141	0.154500	0.077250	0.705600
C1421	C142	0.220300	0.779700	0.029120
C1431	C143	0.177250	0.822750	0.088830
C1441	C144	0.153550	0.846450	0.120530
C1451	C145	0.105550	0.894450	0.176320
C1461	C146	0.077250	0.922750	0.205600
C1471	C147	0.220300	0.440600	0.029120
C1481	C148	0.177250	0.354500	0.088830
C1491	C149	0.153550	0.307100	0.120530
C1501	C150	0.105550	0.211100	0.176320
C1511	C151	0.077250	0.154500	0.205600
C1521	C152	0.559400	0.779700	0.029120
C1531	C153	0.645500	0.822750	0.088830
C1541	C154	0.692900	0.846450	0.120530
C1551	C155	0.788900	0.894450	0.176320
C1561	C156	0.845500	0.922750	0.205600
N11	N1	0.714600	0.919400	0.365620
N21	N2	0.204800	0.285400	0.365620
N31	N3	0.080600	0.795200	0.365620
N41	N4	0.285400	0.080600	0.865620
N51	N5	0.795200	0.714600	0.865620
N61	N6	0.919400	0.204800	0.865620
N71	N7	0.795200	0.080600	0.634380
N81	N8	0.919400	0.714600	0.634380
N91	N9	0.285400	0.204800	0.634380
N101	N10	0.204800	0.919400	0.134380
N111	N11	0.080600	0.285400	0.134380
N121	N12	0.714600	0.795200	0.134380
N131	N13	0.285400	0.080600	0.634380
N141	N14	0.795200	0.714600	0.634380
N151	N15	0.919400	0.204800	0.634380
N161	N16	0.714600	0.919400	0.134380
N171	N17	0.204800	0.285400	0.134380
N181	N18	0.080600	0.795200	0.134380
N191	N19	0.204800	0.919400	0.365620
N201	N20	0.080600	0.285400	0.365620
N211	N21	0.714600	0.795200	0.365620
N221	N22	0.795200	0.080600	0.865620
N231	N23	0.919400	0.714600	0.865620
N241	N24	0.285400	0.204800	0.865620
O11	O1	0.519870	0.890420	0.499860
O21	O2	0.564390	0.977460	0.456200
O31	O3	0.866100	0.991200	0.282880
O41	O4	0.370550	0.480130	0.499860
O51	O5	0.413070	0.435610	0.456200
O61	O6	0.125100	0.133900	0.282880
O71	O7	0.109580	0.629450	0.499860
O81	O8	0.022540	0.586930	0.456200
O91	O9	0.008800	0.874900	0.282880
O101	O10	0.480130	0.109580	0.999860
O111	O11	0.435610	0.022540	0.956200
O121	O12	0.133900	0.008800	0.782880
O131	O13	0.629450	0.519870	0.999860
O141	O14	0.586930	0.564390	0.956200
O151	O15	0.874900	0.866100	0.782880
O161	O16	0.890420	0.370550	0.999860
O171	O17	0.977460	0.413070	0.956200
O181	O18	0.991200	0.125100	0.782880
O191	O19	0.629450	0.109580	0.500140
O201	O20	0.586930	0.022540	0.543800
O211	O21	0.874900	0.008800	0.717120
O221	O22	0.890420	0.519870	0.500140
O231	O23	0.977460	0.564390	0.543800
O241	O24	0.991200	0.866100	0.717120
O251	O25	0.480130	0.370550	0.500140
O261	O26	0.435610	0.413070	0.543800
O271	O27	0.133900	0.125100	0.717120
O281	O28	0.370550	0.890420	0.000140
O291	O29	0.413070	0.977460	0.043800
O301	O30	0.125100	0.991200	0.217120
O311	O31	0.109580	0.480130	0.000140
O321	O32	0.022540	0.435610	0.043800
O331	O33	0.008800	0.133900	0.217120
O341	O34	0.519870	0.629450	0.000140
O351	O35	0.564390	0.586930	0.043800
O361	O36	0.866100	0.874900	0.217120
O371	O37	0.480130	0.109580	0.500140
O381	O38	0.435610	0.022540	0.543800
O391	O39	0.133900	0.008800	0.717120
O401	O40	0.629450	0.519870	0.500140
O411	O41	0.586930	0.564390	0.543800
O421	O42	0.874900	0.866100	0.717120
O431	O43	0.890420	0.370550	0.500140
O441	O44	0.977460	0.413070	0.543800
O451	O45	0.991200	0.125100	0.717120
O461	O46	0.519870	0.890420	0.000140
O471	O47	0.564390	0.977460	0.043800
O481	O48	0.866100	0.991200	0.217120
O491	O49	0.370550	0.480130	0.000140
O501	O50	0.413070	0.435610	0.043800
O511	O51	0.125100	0.133900	0.217120
O521	O52	0.109580	0.629450	0.000140
O531	O53	0.022540	0.586930	0.043800
O541	O54	0.008800	0.874900	0.217120
O551	O55	0.370550	0.890420	0.499860
O561	O56	0.413070	0.977460	0.456200
O571	O57	0.125100	0.991200	0.282880
O581	O58	0.109580	0.480130	0.499860
O591	O59	0.022540	0.435610	0.456200
O601	O60	0.008800	0.133900	0.282880
O611	O61	0.519870	0.629450	0.499860
O621	O62	0.564390	0.586930	0.456200
O631	O63	0.866100	0.874900	0.282880
O641	O64	0.629450	0.109580	0.999860
O651	O65	0.586930	0.022540	0.956200
O661	O66	0.874900	0.008800	0.782880
O671	O67	0.890420	0.519870	0.999860
O681	O68	0.977460	0.564390	0.956200
O691	O69	0.991200	0.866100	0.782880
O701	O70	0.480130	0.370550	0.999860
O711	O71	0.435610	0.413070	0.956200
O721	O72	0.133900	0.125100	0.782880
O731	O73	0.427710	0.855420	0.565430
O741	O74	0.427710	0.572290	0.565430
O751	O75	0.144580	0.572290	0.565430
O761	O76	0.572290	0.144580	0.065430
O771	O77	0.572290	0.427710	0.065430
O781	O78	0.855420	0.427710	0.065430
O791	O79	0.572290	0.144580	0.434570
O801	O80	0.855420	0.427710	0.434570
O811	O81	0.572290	0.427710	0.434570
O821	O82	0.427710	0.855420	0.934570
O831	O83	0.144580	0.572290	0.934570
O841	O84	0.427710	0.572290	0.934570
