data_OKAYUW_freeONLY_PM
_symmetry_space_group_name_H-M	'P1'
_cell_length_a	5.180300
_cell_length_b	10.650800
_cell_length_c	15.291400
_cell_angle_alpha	82.591000
_cell_angle_beta	85.945000
_cell_angle_gamma	82.739000
_symmetry_Int_Tables_number 1

loop_
_symmetry_equiv_pos_as_xyz
'x,y,z'

loop_
_atom_site_label
_atom_site_type_symbol
_atom_site_fract_x
_atom_site_fract_y
_atom_site_fract_z
C11	C1	0.981800	0.630600	0.487630
H11	H1	0.967600	0.721100	0.479200
C21	C2	0.080400	0.566600	0.565620
C31	C3	0.097300	0.432300	0.578750
C41	C4	0.185500	0.355800	0.662560
C51	C5	0.411100	0.269400	0.663050
H21	H2	0.504400	0.254200	0.608900
C61	C6	0.500100	0.205400	0.741900
H31	H3	0.657600	0.149100	0.741800
C71	C7	0.360000	0.223200	0.821410
C81	C8	0.128000	0.305200	0.820680
H41	H4	0.026900	0.315100	0.874200
C91	C9	0.045100	0.371900	0.742360
H51	H5	0.889700	0.429800	0.742700
C101	C10	0.462300	0.159300	0.906970
C111	C11	0.165400	0.640900	0.633160
C121	C12	0.395000	0.601500	0.675560
H61	H6	0.508800	0.531100	0.657800
C131	C13	0.460200	0.663600	0.743340
H71	H7	0.616400	0.634500	0.772600
C141	C14	0.297400	0.769000	0.769060
C151	C15	0.074500	0.813100	0.723630
H81	H8	0.966100	0.886700	0.739000
C161	C16	0.009800	0.750100	0.656090
H91	H9	0.858000	0.781400	0.624900
C171	C17	0.352900	0.829800	0.846920
O11	O1	0.299800	0.149940	0.974570
O21	O2	0.699000	0.120520	0.909690
O31	O3	0.193800	0.910060	0.877960
O41	O4	0.579300	0.788800	0.878510
H101	H10	0.598600	0.826600	0.922100
C181	C18	0.018200	0.369400	0.512370
H111	H11	0.032400	0.278900	0.520800
C191	C19	0.919600	0.433400	0.434380
C201	C20	0.902700	0.567700	0.421250
C211	C21	0.814500	0.644200	0.337440
C221	C22	0.588900	0.730600	0.336950
H121	H12	0.495600	0.745800	0.391100
C231	C23	0.499900	0.794600	0.258100
H131	H13	0.342400	0.850900	0.258200
C241	C24	0.640000	0.776800	0.178590
C251	C25	0.872000	0.694800	0.179320
H141	H14	0.973100	0.684900	0.125800
C261	C26	0.954900	0.628100	0.257640
H151	H15	0.110300	0.570200	0.257300
C271	C27	0.537700	0.840700	0.093030
C281	C28	0.834600	0.359100	0.366840
C291	C29	0.605000	0.398500	0.324440
H161	H16	0.491200	0.468900	0.342200
C301	C30	0.539800	0.336400	0.256660
H171	H17	0.383600	0.365500	0.227400
C311	C31	0.702600	0.231000	0.230940
C321	C32	0.925500	0.186900	0.276370
H181	H18	0.033900	0.113300	0.261000
C331	C33	0.990200	0.249900	0.343910
H191	H19	0.142000	0.218600	0.375100
C341	C34	0.647100	0.170200	0.153080
O51	O5	0.700200	0.850060	0.025430
O61	O6	0.301000	0.879480	0.090310
O71	O7	0.806200	0.089940	0.122040
O81	O8	0.420700	0.211200	0.121490
H201	H20	0.401400	0.173400	0.077900
Ca11	Ca1	0.000000	0.000000	0.000000
