data_OKAYOQ_freeONLY_PM
_symmetry_space_group_name_H-M	'P1'
_cell_length_a	5.163400
_cell_length_b	10.551800
_cell_length_c	15.484900
_cell_angle_alpha	82.725000
_cell_angle_beta	87.233000
_cell_angle_gamma	83.782000
_symmetry_Int_Tables_number 1

loop_
_symmetry_equiv_pos_as_xyz
'x,y,z'

loop_
_atom_site_label
_atom_site_type_symbol
_atom_site_fract_x
_atom_site_fract_y
_atom_site_fract_z
C11	C1	0.981600	0.632040	0.489610
H11	H1	0.968000	0.723200	0.482500
C21	C2	0.079000	0.565510	0.567080
C31	C3	0.096400	0.429910	0.577560
C41	C4	0.163200	0.638610	0.635560
C51	C5	0.393600	0.599060	0.679110
H21	H2	0.507900	0.529600	0.661300
C61	C6	0.457700	0.659970	0.748110
H31	H3	0.614500	0.631600	0.777600
C71	C7	0.293100	0.762680	0.774390
C81	C8	0.005700	0.746190	0.659170
H41	H4	0.854100	0.777600	0.627500
C91	C9	0.346200	0.821560	0.853550
C101	C10	0.182900	0.351720	0.660210
C111	C11	0.407400	0.264140	0.661150
H51	H5	0.498500	0.248900	0.608100
C121	C12	0.497000	0.199480	0.739720
H61	H6	0.653200	0.142900	0.740200
C131	C13	0.360200	0.216950	0.817460
C141	C14	0.129300	0.298470	0.816020
H71	H7	0.029800	0.307700	0.868500
C151	C15	0.044200	0.366170	0.738190
H81	H8	0.888800	0.423300	0.738100
C161	C16	0.464800	0.154540	0.903000
O11	O1	0.698900	0.112810	0.905740
O21	O2	0.305200	0.150160	0.969370
O31	O3	0.187200	0.900570	0.883730
O41	O4	0.571900	0.780490	0.886790
H91	H9	0.589800	0.817000	0.931000
C171	C17	0.069100	0.807460	0.728510
H101	H10	0.959800	0.879700	0.744600
C181	C18	0.018400	0.367960	0.510390
H111	H11	0.032000	0.276800	0.517500
C191	C19	0.921000	0.434490	0.432920
C201	C20	0.903600	0.570090	0.422440
C211	C21	0.836800	0.361390	0.364440
C221	C22	0.606400	0.400940	0.320890
H121	H12	0.492100	0.470400	0.338700
C231	C23	0.542300	0.340030	0.251890
H131	H13	0.385500	0.368400	0.222400
C241	C24	0.706900	0.237320	0.225610
C251	C25	0.994300	0.253810	0.340830
H141	H14	0.145900	0.222400	0.372500
C261	C26	0.653800	0.178440	0.146450
C271	C27	0.817100	0.648280	0.339790
C281	C28	0.592600	0.735860	0.338850
H151	H15	0.501500	0.751100	0.391900
C291	C29	0.503000	0.800520	0.260280
H161	H16	0.346800	0.857100	0.259800
C301	C30	0.639800	0.783050	0.182540
C311	C31	0.870700	0.701530	0.183980
H171	H17	0.970200	0.692300	0.131500
C321	C32	0.955800	0.633830	0.261810
H181	H18	0.111200	0.576700	0.261900
C331	C33	0.535200	0.845460	0.097000
O51	O5	0.301100	0.887190	0.094260
O61	O6	0.694800	0.849840	0.030630
O71	O7	0.812800	0.099430	0.116270
O81	O8	0.428100	0.219510	0.113210
H191	H19	0.410200	0.183000	0.069000
C341	C34	0.930900	0.192540	0.271490
H201	H20	0.040200	0.120300	0.255400
Ca11	Ca1	0.000000	0.000000	0.000000
