data_OKECIQ_freeONLY_PM
_symmetry_space_group_name_H-M	'P1'
_cell_length_a	16.794200
_cell_length_b	16.794200
_cell_length_c	16.794200
_cell_angle_alpha	90.000000
_cell_angle_beta	90.000000
_cell_angle_gamma	90.000000
_symmetry_Int_Tables_number 1

loop_
_symmetry_equiv_pos_as_xyz
'x,y,z'

loop_
_atom_site_label
_atom_site_type_symbol
_atom_site_fract_x
_atom_site_fract_y
_atom_site_fract_z
P11	P1	0.122890	0.435540	0.122170
O11	O1	0.145970	0.351320	0.142970
O21	O2	0.194710	0.483950	0.090070
O31	O3	0.093420	0.483180	0.194470
O41	O4	0.057570	0.435420	0.057920
P21	P2	0.877110	0.564460	0.122170
O51	O5	0.854030	0.648680	0.142970
O61	O6	0.805290	0.516050	0.090070
O71	O7	0.906580	0.516820	0.194470
O81	O8	0.942430	0.564580	0.057920
P31	P3	0.877110	0.435540	0.877830
O91	O9	0.854030	0.351320	0.857030
O101	O10	0.805290	0.483950	0.909930
O111	O11	0.906580	0.483180	0.805530
O121	O12	0.942430	0.435420	0.942080
P41	P4	0.122890	0.564460	0.877830
O131	O13	0.145970	0.648680	0.857030
O141	O14	0.194710	0.516050	0.909930
O151	O15	0.093420	0.516820	0.805530
O161	O16	0.057570	0.564580	0.942080
P51	P5	0.122170	0.122890	0.435540
O171	O17	0.142970	0.145970	0.351320
O181	O18	0.090070	0.194710	0.483950
O191	O19	0.194470	0.093420	0.483180
O201	O20	0.057920	0.057570	0.435420
P61	P6	0.122170	0.877110	0.564460
O211	O21	0.142970	0.854030	0.648680
O221	O22	0.090070	0.805290	0.516050
O231	O23	0.194470	0.906580	0.516820
O241	O24	0.057920	0.942430	0.564580
P71	P7	0.877830	0.877110	0.435540
O251	O25	0.857030	0.854030	0.351320
O261	O26	0.909930	0.805290	0.483950
O271	O27	0.805530	0.906580	0.483180
O281	O28	0.942080	0.942430	0.435420
P81	P8	0.877830	0.122890	0.564460
O291	O29	0.857030	0.145970	0.648680
O301	O30	0.909930	0.194710	0.516050
O311	O31	0.805530	0.093420	0.516820
O321	O32	0.942080	0.057570	0.564580
P91	P9	0.435540	0.122170	0.122890
O331	O33	0.351320	0.142970	0.145970
O341	O34	0.483950	0.090070	0.194710
O351	O35	0.483180	0.194470	0.093420
O361	O36	0.435420	0.057920	0.057570
P101	P10	0.564460	0.122170	0.877110
O371	O37	0.648680	0.142970	0.854030
O381	O38	0.516050	0.090070	0.805290
O391	O39	0.516820	0.194470	0.906580
O401	O40	0.564580	0.057920	0.942430
P111	P11	0.435540	0.877830	0.877110
O411	O41	0.351320	0.857030	0.854030
O421	O42	0.483950	0.909930	0.805290
O431	O43	0.483180	0.805530	0.906580
O441	O44	0.435420	0.942080	0.942430
P121	P12	0.564460	0.877830	0.122890
O451	O45	0.648680	0.857030	0.145970
O461	O46	0.516050	0.909930	0.194710
O471	O47	0.516820	0.805530	0.093420
O481	O48	0.564580	0.942080	0.057570
P131	P13	0.935540	0.622890	0.622170
O491	O49	0.851320	0.645970	0.642970
O501	O50	0.983950	0.694710	0.590070
O511	O51	0.983180	0.593420	0.694470
O521	O52	0.935420	0.557570	0.557920
P141	P14	0.064460	0.377110	0.622170
O531	O53	0.148680	0.354030	0.642970
O541	O54	0.016050	0.305290	0.590070
O551	O55	0.016820	0.406580	0.694470
O561	O56	0.064580	0.442430	0.557920
P151	P15	0.935540	0.377110	0.377830
O571	O57	0.851320	0.354030	0.357030
O581	O58	0.983950	0.305290	0.409930
O591	O59	0.983180	0.406580	0.305530
O601	O60	0.935420	0.442430	0.442080
P161	P16	0.064460	0.622890	0.377830
O611	O61	0.148680	0.645970	0.357030
O621	O62	0.016050	0.694710	0.409930
O631	O63	0.016820	0.593420	0.305530
O641	O64	0.064580	0.557570	0.442080
P171	P17	0.622890	0.622170	0.935540
O651	O65	0.645970	0.642970	0.851320
O661	O66	0.694710	0.590070	0.983950
O671	O67	0.593420	0.694470	0.983180
O681	O68	0.557570	0.557920	0.935420
P181	P18	0.377110	0.622170	0.064460
O691	O69	0.354030	0.642970	0.148680
O701	O70	0.305290	0.590070	0.016050
O711	O71	0.406580	0.694470	0.016820
O721	O72	0.442430	0.557920	0.064580
P191	P19	0.377110	0.377830	0.935540
O731	O73	0.354030	0.357030	0.851320
O741	O74	0.305290	0.409930	0.983950
O751	O75	0.406580	0.305530	0.983180
O761	O76	0.442430	0.442080	0.935420
P201	P20	0.622890	0.377830	0.064460
O771	O77	0.645970	0.357030	0.148680
O781	O78	0.694710	0.409930	0.016050
O791	O79	0.593420	0.305530	0.016820
O801	O80	0.557570	0.442080	0.064580
P211	P21	0.622170	0.935540	0.622890
O811	O81	0.642970	0.851320	0.645970
O821	O82	0.590070	0.983950	0.694710
O831	O83	0.694470	0.983180	0.593420
O841	O84	0.557920	0.935420	0.557570
P221	P22	0.622170	0.064460	0.377110
O851	O85	0.642970	0.148680	0.354030
O861	O86	0.590070	0.016050	0.305290
O871	O87	0.694470	0.016820	0.406580
O881	O88	0.557920	0.064580	0.442430
P231	P23	0.377830	0.935540	0.377110
O891	O89	0.357030	0.851320	0.354030
O901	O90	0.409930	0.983950	0.305290
O911	O91	0.305530	0.983180	0.406580
O921	O92	0.442080	0.935420	0.442430
P241	P24	0.377830	0.064460	0.622890
O931	O93	0.357030	0.148680	0.645970
O941	O94	0.409930	0.016050	0.694710
O951	O95	0.305530	0.016820	0.593420
O961	O96	0.442080	0.064580	0.557570
Al11	Al1	0.000000	0.500000	0.000000
Al21	Al2	0.000000	0.000000	0.500000
Al31	Al3	0.500000	0.000000	0.000000
Al41	Al4	0.000000	0.500000	0.500000
Al51	Al5	0.500000	0.500000	0.000000
Al61	Al6	0.500000	0.000000	0.500000
Al71	Al7	0.250000	0.500000	0.000000
Al81	Al8	0.750000	0.500000	0.000000
Al91	Al9	0.000000	0.250000	0.500000
Al101	Al10	0.000000	0.750000	0.500000
Al111	Al11	0.500000	0.000000	0.250000
Al121	Al12	0.500000	0.000000	0.750000
Al131	Al13	0.000000	0.500000	0.250000
Al141	Al14	0.000000	0.500000	0.750000
Al151	Al15	0.250000	0.000000	0.500000
Al161	Al16	0.750000	0.000000	0.500000
Al171	Al17	0.500000	0.250000	0.000000
Al181	Al18	0.500000	0.750000	0.000000
