data_OKIKOJ_freeONLY_PM
_symmetry_space_group_name_H-M	'P1'
_cell_length_a	10.523000
_cell_length_b	11.596800
_cell_length_c	50.242000
_cell_angle_alpha	90.000000
_cell_angle_beta	95.697000
_cell_angle_gamma	90.000000
_symmetry_Int_Tables_number 1

loop_
_symmetry_equiv_pos_as_xyz
'x,y,z'

loop_
_atom_site_label
_atom_site_type_symbol
_atom_site_fract_x
_atom_site_fract_y
_atom_site_fract_z
Ag11	Ag1	0.125010	0.005360	0.104560
Ag21	Ag2	0.858360	0.071470	0.081520
Ag31	Ag3	0.225950	0.603660	0.632990
Ag41	Ag4	0.569790	0.177270	0.879930
C11	C1	0.405900	0.097600	0.093600
C21	C2	0.487300	0.170200	0.079200
C31	C3	0.600600	0.217200	0.091100
H11	H1	0.627600	0.201300	0.109000
C41	C4	0.671500	0.286700	0.076500
H21	H2	0.748500	0.316000	0.084400
C51	C5	0.631900	0.314700	0.050300
C61	C6	0.520300	0.262000	0.037700
H31	H3	0.495700	0.275000	0.019700
C71	C7	0.449100	0.191800	0.052300
H41	H4	0.374800	0.158300	0.044200
C81	C8	0.768700	0.486400	0.047200
C91	C9	0.722400	0.545200	0.068500
H51	H5	0.646300	0.522300	0.074900
C101	C10	0.789600	0.636600	0.080100
H61	H6	0.760200	0.674100	0.094600
C111	C11	0.898200	0.672800	0.070400
C121	C12	0.967600	0.770300	0.081800
C131	C13	0.945300	0.614900	0.049500
H71	H7	0.021500	0.638700	0.043400
C141	C14	0.879700	0.521500	0.037600
H81	H8	0.910800	0.483300	0.023300
C151	C15	0.699900	0.376400	0.007500
C161	C16	0.673600	0.468700	0.990300
H91	H9	0.655800	0.541000	0.997100
C171	C17	0.674100	0.452600	0.963400
H101	H10	0.655600	0.515400	0.952200
C181	C18	0.699800	0.351100	0.952200
C191	C19	0.727300	0.254800	0.969400
H111	H11	0.746300	0.183100	0.962500
C201	C20	0.725000	0.270200	0.996800
H121	H12	0.740700	0.207400	0.008100
C211	C21	0.706400	0.335900	0.924300
C221	C22	0.967100	0.353900	0.680400
C231	C23	0.009500	0.314700	0.706100
H131	H13	0.082400	0.345700	0.715400
C241	C24	0.941800	0.230300	0.717200
H141	H14	0.971700	0.201800	0.733900
C251	C25	0.831200	0.185900	0.704400
C261	C26	0.786500	0.228600	0.679000
H151	H15	0.710400	0.201200	0.670300
C271	C27	0.856500	0.311600	0.667100
H161	H16	0.828700	0.338800	0.650100
C281	C28	0.689200	0.013800	0.701800
C291	C29	0.580200	0.971000	0.711500
H171	H17	0.555000	0.998700	0.727500
C301	C30	0.509400	0.888100	0.697500
H181	H18	0.434500	0.861200	0.703800
C311	C31	0.548700	0.845000	0.674600
C321	C32	0.655400	0.886500	0.664800
H191	H19	0.678800	0.859000	0.648600
C331	C33	0.728900	0.968800	0.678600
H201	H20	0.804500	0.994000	0.672400
C341	C34	0.755200	0.106400	0.744500
C351	C35	0.801000	0.021100	0.761500
H211	H21	0.841900	0.958400	0.754500
C361	C36	0.680000	0.205900	0.782300
H221	H22	0.636300	0.266900	0.789200
C371	C37	0.697000	0.199000	0.755000
H231	H23	0.667800	0.259000	0.743700
C381	C38	0.469300	0.757100	0.659300
C391	C39	0.716300	0.123200	0.826800
C401	C40	0.731900	0.117200	0.798700
C411	C41	0.789100	0.024000	0.788400
H241	H24	0.819500	0.963600	0.799500
C421	C42	0.040900	0.128500	0.042900
C431	C43	0.083000	0.165000	0.016700
C441	C44	0.946500	0.126100	0.141800
C451	C45	0.913100	0.175700	0.167300
C461	C46	0.605300	0.885100	0.072500
C471	C47	0.612700	0.897600	0.042100
C481	C48	0.387000	0.505000	0.851600
F11	F1	0.183100	0.133000	0.011100
F21	F2	0.099000	0.277000	0.017200
F31	F3	0.003900	0.145000	0.995700
F41	F4	0.804600	0.206600	0.169200
F51	F5	0.919000	0.105000	0.185200
F61	F6	0.984800	0.247000	0.178500
F71	F7	0.623900	0.799000	0.031000
F81	F8	0.506300	0.933900	0.029100
F91	F9	0.692800	0.967000	0.035300
F101	F10	0.295000	0.534700	0.862200
F111	F11	0.481000	0.528200	0.872300
F121	F12	0.424000	0.573300	0.834500
N11	N1	0.339400	0.046400	0.105100
N21	N2	0.702100	0.389000	0.035300
N31	N3	0.021500	0.848900	0.090500
N41	N4	0.712100	0.326400	0.902100
N51	N5	0.763300	0.100900	0.716700
N61	N6	0.408800	0.689000	0.649600
N71	N7	0.702000	0.127500	0.848800
O11	O1	0.126300	0.095400	0.059300
O21	O2	0.927700	0.136600	0.044500
O31	O3	0.060600	0.109100	0.139800
O41	O4	0.853800	0.102800	0.125620
O51	O5	0.697400	0.925800	0.086860
O61	O6	0.508900	0.843800	0.078600
O71	O7	0.381300	0.303300	0.866000
O81	O8	0.514400	0.347200	0.834100
O91	O9	0.281000	0.381000	0.822000
S11	S1	0.396800	0.365400	0.841820
N81	N8	0.093400	0.501900	0.656300
C491	C49	0.040300	0.439900	0.667100
Ag51	Ag5	0.374990	0.505360	0.395440
Ag61	Ag6	0.641640	0.571470	0.418480
Ag71	Ag7	0.274050	0.103660	0.867010
Ag81	Ag8	0.930210	0.677270	0.620070
C501	C50	0.094100	0.597600	0.406400
C511	C51	0.012700	0.670200	0.420800
C521	C52	0.899400	0.717200	0.408900
H251	H25	0.872400	0.701300	0.391000
C531	C53	0.828500	0.786700	0.423500
H261	H26	0.751500	0.816000	0.415600
C541	C54	0.868100	0.814700	0.449700
C551	C55	0.979700	0.762000	0.462300
H271	H27	0.004300	0.775000	0.480300
C561	C56	0.050900	0.691800	0.447700
H281	H28	0.125200	0.658300	0.455800
C571	C57	0.731300	0.986400	0.452800
C581	C58	0.777600	0.045200	0.431500
H291	H29	0.853700	0.022300	0.425100
C591	C59	0.710400	0.136600	0.419900
H301	H30	0.739800	0.174100	0.405400
C601	C60	0.601800	0.172800	0.429600
C611	C61	0.532400	0.270300	0.418200
C621	C62	0.554700	0.114900	0.450500
H311	H31	0.478500	0.138700	0.456600
C631	C63	0.620300	0.021500	0.462400
H321	H32	0.589200	0.983300	0.476700
C641	C64	0.800100	0.876400	0.492500
C651	C65	0.826400	0.968700	0.509700
H331	H33	0.844200	0.041000	0.502900
C661	C66	0.825900	0.952600	0.536600
H341	H34	0.844400	0.015400	0.547800
C671	C67	0.800200	0.851100	0.547800
C681	C68	0.772700	0.754800	0.530600
H351	H35	0.753700	0.683100	0.537500
C691	C69	0.775000	0.770200	0.503200
H361	H36	0.759300	0.707400	0.491900
C701	C70	0.793600	0.835900	0.575700
C711	C71	0.532900	0.853900	0.819600
C721	C72	0.490500	0.814700	0.793900
H371	H37	0.417600	0.845700	0.784600
C731	C73	0.558200	0.730300	0.782800
H381	H38	0.528300	0.701800	0.766100
C741	C74	0.668800	0.685900	0.795600
C751	C75	0.713500	0.728600	0.821000
H391	H39	0.789600	0.701200	0.829700
C761	C76	0.643500	0.811600	0.832900
H401	H40	0.671300	0.838800	0.849900
C771	C77	0.810800	0.513800	0.798200
C781	C78	0.919800	0.471000	0.788500
H411	H41	0.945000	0.498700	0.772500
C791	C79	0.990600	0.388100	0.802500
H421	H42	0.065500	0.361200	0.796200
C801	C80	0.951300	0.345000	0.825400
C811	C81	0.844600	0.386500	0.835200
H431	H43	0.821200	0.359000	0.851400
C821	C82	0.771100	0.468800	0.821400
H441	H44	0.695500	0.494000	0.827600
C831	C83	0.744800	0.606400	0.755500
C841	C84	0.699000	0.521100	0.738500
H451	H45	0.658100	0.458400	0.745500
C851	C85	0.820000	0.705900	0.717700
H461	H46	0.863700	0.766900	0.710800
C861	C86	0.803000	0.699000	0.745000
H471	H47	0.832200	0.759000	0.756300
C871	C87	0.030700	0.257100	0.840700
C881	C88	0.783700	0.623200	0.673200
C891	C89	0.768100	0.617200	0.701300
C901	C90	0.710900	0.524000	0.711600
H481	H48	0.680500	0.463600	0.700500
C911	C91	0.459100	0.628500	0.457100
C921	C92	0.417000	0.665000	0.483300
C931	C93	0.553500	0.626100	0.358200
C941	C94	0.586900	0.675700	0.332700
C951	C95	0.894700	0.385100	0.427500
C961	C96	0.887300	0.397600	0.457900
C971	C97	0.113000	0.005000	0.648400
F131	F13	0.316900	0.633000	0.488900
F141	F14	0.401000	0.777000	0.482800
F151	F15	0.496100	0.645000	0.504300
F161	F16	0.695400	0.706600	0.330800
F171	F17	0.581000	0.605000	0.314800
F181	F18	0.515200	0.747000	0.321500
F191	F19	0.876100	0.299000	0.469000
F201	F20	0.993700	0.433900	0.470900
F211	F21	0.807200	0.467000	0.464700
F221	F22	0.205000	0.034700	0.637800
F231	F23	0.019000	0.028200	0.627700
F241	F24	0.076000	0.073300	0.665500
N91	N9	0.160600	0.546400	0.394900
N101	N10	0.797900	0.889000	0.464700
N111	N11	0.478500	0.348900	0.409500
N121	N12	0.787900	0.826400	0.597900
N131	N13	0.736700	0.600900	0.783300
N141	N14	0.091200	0.189000	0.850400
N151	N15	0.798000	0.627500	0.651200
O101	O10	0.373700	0.595400	0.440700
O111	O11	0.572300	0.636600	0.455500
O121	O12	0.439400	0.609100	0.360200
O131	O13	0.646200	0.602800	0.374380
O141	O14	0.802600	0.425800	0.413140
O151	O15	0.991100	0.343800	0.421400
O161	O16	0.118700	0.803300	0.634000
O171	O17	0.985600	0.847200	0.665900
O181	O18	0.219000	0.881000	0.678000
S21	S2	0.103200	0.865400	0.658180
N161	N16	0.406600	0.001900	0.843700
C981	C98	0.459700	0.939900	0.832900
Ag91	Ag9	0.874990	0.994640	0.895440
Ag101	Ag10	0.141640	0.928530	0.918480
Ag111	Ag11	0.774050	0.396340	0.367010
Ag121	Ag12	0.430210	0.822730	0.120070
C991	C99	0.594100	0.902400	0.906400
C1001	C100	0.512700	0.829800	0.920800
C1011	C101	0.399400	0.782800	0.908900
H491	H49	0.372400	0.798700	0.891000
C1021	C102	0.328500	0.713300	0.923500
H501	H50	0.251500	0.684000	0.915600
C1031	C103	0.368100	0.685300	0.949700
C1041	C104	0.479700	0.738000	0.962300
H511	H51	0.504300	0.725000	0.980300
C1051	C105	0.550900	0.808200	0.947700
H521	H52	0.625200	0.841700	0.955800
C1061	C106	0.231300	0.513600	0.952800
C1071	C107	0.277600	0.454800	0.931500
H531	H53	0.353700	0.477700	0.925100
C1081	C108	0.210400	0.363400	0.919900
H541	H54	0.239800	0.325900	0.905400
C1091	C109	0.101800	0.327200	0.929600
C1101	C110	0.032400	0.229700	0.918200
C1111	C111	0.054700	0.385100	0.950500
H551	H55	0.978500	0.361300	0.956600
C1121	C112	0.120300	0.478500	0.962400
H561	H56	0.089200	0.516700	0.976700
C1131	C113	0.300100	0.623600	0.992500
C1141	C114	0.326400	0.531300	0.009700
H571	H57	0.344200	0.459000	0.002900
C1151	C115	0.325900	0.547400	0.036600
H581	H58	0.344400	0.484600	0.047800
C1161	C116	0.300200	0.648900	0.047800
C1171	C117	0.272700	0.745200	0.030600
H591	H59	0.253700	0.816900	0.037500
C1181	C118	0.275000	0.729800	0.003200
H601	H60	0.259300	0.792600	0.991900
C1191	C119	0.293600	0.664100	0.075700
C1201	C120	0.032900	0.646100	0.319600
C1211	C121	0.990500	0.685300	0.293900
H611	H61	0.917600	0.654300	0.284600
C1221	C122	0.058200	0.769700	0.282800
H621	H62	0.028300	0.798200	0.266100
C1231	C123	0.168800	0.814100	0.295600
C1241	C124	0.213500	0.771400	0.321000
H631	H63	0.289600	0.798800	0.329700
C1251	C125	0.143500	0.688400	0.332900
H641	H64	0.171300	0.661200	0.349900
C1261	C126	0.310800	0.986200	0.298200
C1271	C127	0.419800	0.029000	0.288500
H651	H65	0.445000	0.001300	0.272500
C1281	C128	0.490600	0.111900	0.302500
H661	H66	0.565500	0.138800	0.296200
C1291	C129	0.451300	0.155000	0.325400
C1301	C130	0.344600	0.113500	0.335200
H671	H67	0.321200	0.141000	0.351400
C1311	C131	0.271100	0.031200	0.321400
H681	H68	0.195500	0.006000	0.327600
C1321	C132	0.244800	0.893600	0.255500
C1331	C133	0.199000	0.978900	0.238500
H691	H69	0.158100	0.041600	0.245500
C1341	C134	0.320000	0.794100	0.217700
H701	H70	0.363700	0.733100	0.210800
C1351	C135	0.303000	0.801000	0.245000
H711	H71	0.332200	0.741000	0.256300
C1361	C136	0.530700	0.242900	0.340700
C1371	C137	0.283700	0.876800	0.173200
C1381	C138	0.268100	0.882800	0.201300
C1391	C139	0.210900	0.976000	0.211600
H721	H72	0.180500	0.036400	0.200500
C1401	C140	0.959100	0.871500	0.957100
C1411	C141	0.917000	0.835000	0.983300
C1421	C142	0.053500	0.873900	0.858200
C1431	C143	0.086900	0.824300	0.832700
C1441	C144	0.394700	0.114900	0.927500
C1451	C145	0.387300	0.102400	0.957900
C1461	C146	0.613000	0.495000	0.148400
F251	F25	0.816900	0.867000	0.988900
F261	F26	0.901000	0.723000	0.982800
F271	F27	0.996100	0.855000	0.004300
F281	F28	0.195400	0.793400	0.830800
F291	F29	0.081000	0.895000	0.814800
F301	F30	0.015200	0.753000	0.821500
F311	F31	0.376100	0.201000	0.969000
F321	F32	0.493700	0.066100	0.970900
F331	F33	0.307200	0.033000	0.964700
F341	F34	0.705000	0.465300	0.137800
F351	F35	0.519000	0.471800	0.127700
F361	F36	0.576000	0.426700	0.165500
N171	N17	0.660600	0.953600	0.894900
N181	N18	0.297900	0.611000	0.964700
N191	N19	0.978500	0.151100	0.909500
N201	N20	0.287900	0.673600	0.097900
N211	N21	0.236700	0.899100	0.283300
N221	N22	0.591200	0.311000	0.350400
N231	N23	0.298000	0.872500	0.151200
O191	O19	0.873700	0.904600	0.940700
O201	O20	0.072300	0.863400	0.955500
O211	O21	0.939400	0.890900	0.860200
O221	O22	0.146200	0.897200	0.874380
O231	O23	0.302600	0.074200	0.913140
O241	O24	0.491100	0.156200	0.921400
O251	O25	0.618700	0.696700	0.134000
O261	O26	0.485600	0.652800	0.165900
O271	O27	0.719000	0.619000	0.178000
S31	S3	0.603200	0.634600	0.158180
N241	N24	0.906600	0.498100	0.343700
C1471	C147	0.959700	0.560100	0.332900
Ag131	Ag13	0.625010	0.494640	0.604560
Ag141	Ag14	0.358360	0.428530	0.581520
Ag151	Ag15	0.725950	0.896340	0.132990
Ag161	Ag16	0.069790	0.322730	0.379930
C1481	C148	0.905900	0.402400	0.593600
C1491	C149	0.987300	0.329800	0.579200
C1501	C150	0.100600	0.282800	0.591100
H731	H73	0.127600	0.298700	0.609000
C1511	C151	0.171500	0.213300	0.576500
H741	H74	0.248500	0.184000	0.584400
C1521	C152	0.131900	0.185300	0.550300
C1531	C153	0.020300	0.238000	0.537700
H751	H75	0.995700	0.225000	0.519700
C1541	C154	0.949100	0.308200	0.552300
H761	H76	0.874800	0.341700	0.544200
C1551	C155	0.268700	0.013600	0.547200
C1561	C156	0.222400	0.954800	0.568500
H771	H77	0.146300	0.977700	0.574900
C1571	C157	0.289600	0.863400	0.580100
H781	H78	0.260200	0.825900	0.594600
C1581	C158	0.398200	0.827200	0.570400
C1591	C159	0.467600	0.729700	0.581800
C1601	C160	0.445300	0.885100	0.549500
H791	H79	0.521500	0.861300	0.543400
C1611	C161	0.379700	0.978500	0.537600
H801	H80	0.410800	0.016700	0.523300
C1621	C162	0.199900	0.123600	0.507500
C1631	C163	0.173600	0.031300	0.490300
H811	H81	0.155800	0.959000	0.497100
C1641	C164	0.174100	0.047400	0.463400
H821	H82	0.155600	0.984600	0.452200
C1651	C165	0.199800	0.148900	0.452200
C1661	C166	0.227300	0.245200	0.469400
H831	H83	0.246300	0.316900	0.462500
C1671	C167	0.225000	0.229800	0.496800
H841	H84	0.240700	0.292600	0.508100
C1681	C168	0.206400	0.164100	0.424300
C1691	C169	0.467100	0.146100	0.180400
C1701	C170	0.509500	0.185300	0.206100
H851	H85	0.582400	0.154300	0.215400
C1711	C171	0.441800	0.269700	0.217200
H861	H86	0.471700	0.298200	0.233900
C1721	C172	0.331200	0.314100	0.204400
C1731	C173	0.286500	0.271400	0.179000
H871	H87	0.210400	0.298800	0.170300
C1741	C174	0.356500	0.188400	0.167100
H881	H88	0.328700	0.161200	0.150100
C1751	C175	0.189200	0.486200	0.201800
C1761	C176	0.080200	0.529000	0.211500
H891	H89	0.055000	0.501300	0.227500
C1771	C177	0.009400	0.611900	0.197500
H901	H90	0.934500	0.638800	0.203800
C1781	C178	0.048700	0.655000	0.174600
C1791	C179	0.155400	0.613500	0.164800
H911	H91	0.178800	0.641000	0.148600
C1801	C180	0.228900	0.531200	0.178600
H921	H92	0.304500	0.506000	0.172400
C1811	C181	0.255200	0.393600	0.244500
C1821	C182	0.301000	0.478900	0.261500
H931	H93	0.341900	0.541600	0.254500
C1831	C183	0.180000	0.294100	0.282300
H941	H94	0.136300	0.233100	0.289200
C1841	C184	0.197000	0.301000	0.255000
H951	H95	0.167800	0.241000	0.243700
C1851	C185	0.969300	0.742900	0.159300
C1861	C186	0.216300	0.376800	0.326800
C1871	C187	0.231900	0.382800	0.298700
C1881	C188	0.289100	0.476000	0.288400
H961	H96	0.319500	0.536400	0.299500
C1891	C189	0.540900	0.371500	0.542900
C1901	C190	0.583000	0.335000	0.516700
C1911	C191	0.446500	0.373900	0.641800
C1921	C192	0.413100	0.324300	0.667300
C1931	C193	0.105300	0.614900	0.572500
C1941	C194	0.112700	0.602400	0.542100
C1951	C195	0.887000	0.995000	0.351600
F371	F37	0.683100	0.367000	0.511100
F381	F38	0.599000	0.223000	0.517200
F391	F39	0.503900	0.355000	0.495700
F401	F40	0.304600	0.293400	0.669200
F411	F41	0.419000	0.395000	0.685200
F421	F42	0.484800	0.253000	0.678500
F431	F43	0.123900	0.701000	0.531000
F441	F44	0.006300	0.566100	0.529100
F451	F45	0.192800	0.533000	0.535300
F461	F46	0.795000	0.965300	0.362200
F471	F47	0.981000	0.971800	0.372300
F481	F48	0.924000	0.926700	0.334500
N251	N25	0.839400	0.453600	0.605100
N261	N26	0.202100	0.111000	0.535300
N271	N27	0.521500	0.651100	0.590500
N281	N28	0.212100	0.173600	0.402100
N291	N29	0.263300	0.399100	0.216700
N301	N30	0.908800	0.811000	0.149600
N311	N31	0.202000	0.372500	0.348800
O281	O28	0.626300	0.404600	0.559300
O291	O29	0.427700	0.363400	0.544500
O301	O30	0.560600	0.390900	0.639800
O311	O31	0.353800	0.397200	0.625620
O321	O32	0.197400	0.574200	0.586860
O331	O33	0.008900	0.656200	0.578600
O341	O34	0.881300	0.196700	0.366000
O351	O35	0.014400	0.152800	0.334100
O361	O36	0.781000	0.119000	0.322000
S41	S4	0.896800	0.134600	0.341820
N321	N32	0.593400	0.998100	0.156300
C1961	C196	0.540300	0.060100	0.167100
