data_OKIKEZ_charged_PM
_symmetry_space_group_name_H-M	'P1'
_cell_length_a	10.061300
_cell_length_b	11.993000
_cell_length_c	26.359000
_cell_angle_alpha	90.000000
_cell_angle_beta	90.000000
_cell_angle_gamma	90.000000
_symmetry_Int_Tables_number 1

loop_
_symmetry_equiv_pos_as_xyz
'x,y,z'

loop_
_atom_site_label
_atom_site_type_symbol
_atom_site_fract_x
_atom_site_fract_y
_atom_site_fract_z
Ag11	Ag1	0.712510	0.215110	0.512760
Ag21	Ag2	0.287490	0.215110	0.487240
Ag31	Ag3	0.712510	0.715110	0.987240
Ag41	Ag4	0.287490	0.715110	0.012760
H11	H1	0.809700	0.065900	0.326200
H21	H2	0.832000	0.064400	0.239200
H31	H3	0.723500	0.383600	0.232600
H41	H4	0.712900	0.387700	0.320700
H51	H5	0.551100	0.145400	0.198400
H61	H6	0.415000	0.024900	0.156700
H71	H7	0.689900	0.988300	0.047100
H81	H8	0.826600	0.110300	0.089600
H91	H9	0.729600	0.319000	0.088100
H101	H10	0.845500	0.453500	0.045600
H111	H11	0.122300	0.453500	0.155800
H121	H12	0.005700	0.315400	0.197200
H131	H13	0.190300	0.065900	0.673800
H141	H14	0.168000	0.064400	0.760800
H151	H15	0.276500	0.383600	0.767400
H161	H16	0.287100	0.387700	0.679300
H171	H17	0.448900	0.145400	0.801600
H181	H18	0.585000	0.024900	0.843300
H191	H19	0.310100	0.988300	0.952900
H201	H20	0.173400	0.110300	0.910400
H211	H21	0.270400	0.319000	0.911900
H221	H22	0.154500	0.453500	0.954400
H231	H23	0.877700	0.453500	0.844200
H241	H24	0.994300	0.315400	0.802800
H251	H25	0.809700	0.565900	0.173800
H261	H26	0.832000	0.564400	0.260800
H271	H27	0.723500	0.883600	0.267400
H281	H28	0.712900	0.887700	0.179300
H291	H29	0.551100	0.645400	0.301600
H301	H30	0.415000	0.524900	0.343300
H311	H31	0.689900	0.488300	0.452900
H321	H32	0.826600	0.610300	0.410400
H331	H33	0.729600	0.819000	0.411900
H341	H34	0.845500	0.953500	0.454400
H351	H35	0.122300	0.953500	0.344200
H361	H36	0.005700	0.815400	0.302800
H371	H37	0.190300	0.565900	0.826200
H381	H38	0.168000	0.564400	0.739200
H391	H39	0.276500	0.883600	0.732600
H401	H40	0.287100	0.887700	0.820700
H411	H41	0.448900	0.645400	0.698400
H421	H42	0.585000	0.524900	0.656700
H431	H43	0.310100	0.488300	0.547100
H441	H44	0.173400	0.610300	0.589600
H451	H45	0.270400	0.819000	0.588100
H461	H46	0.154500	0.953500	0.545600
H471	H47	0.877700	0.953500	0.655800
H481	H48	0.994300	0.815400	0.697200
C11	C1	0.757900	0.232100	0.386410
C21	C2	0.762600	0.228900	0.331580
C31	C3	0.795200	0.130500	0.307600
C41	C4	0.805900	0.129400	0.255600
C51	C5	0.778400	0.223900	0.227490
C61	C6	0.742900	0.319900	0.251400
C71	C7	0.735900	0.322000	0.304200
C81	C8	0.700600	0.142800	0.148160
C91	C9	0.578500	0.114500	0.167750
C101	C10	0.497800	0.042400	0.143200
C111	C11	0.538500	0.993700	0.097260
C121	C12	0.662000	0.020200	0.077460
C131	C13	0.743200	0.093300	0.102700
C141	C14	0.450300	0.919500	0.070600
C151	C15	0.855700	0.302900	0.146970
C161	C16	0.808900	0.345700	0.101600
C171	C17	0.877400	0.426300	0.076330
C181	C18	0.995100	0.467900	0.096510
C191	C19	0.043600	0.426200	0.142100
C201	C20	0.973500	0.344000	0.166740
C211	C21	0.069700	0.551300	0.070300
C221	C22	0.242100	0.232100	0.613590
C231	C23	0.237400	0.228900	0.668420
C241	C24	0.204800	0.130500	0.692400
C251	C25	0.194100	0.129400	0.744400
C261	C26	0.221600	0.223900	0.772510
C271	C27	0.257100	0.319900	0.748600
C281	C28	0.264100	0.322000	0.695800
C291	C29	0.299400	0.142800	0.851840
C301	C30	0.421500	0.114500	0.832250
C311	C31	0.502200	0.042400	0.856800
C321	C32	0.461500	0.993700	0.902740
C331	C33	0.338000	0.020200	0.922540
C341	C34	0.256800	0.093300	0.897300
C351	C35	0.549700	0.919500	0.929400
C361	C36	0.144300	0.302900	0.853030
C371	C37	0.191100	0.345700	0.898400
C381	C38	0.122600	0.426300	0.923670
C391	C39	0.004900	0.467900	0.903490
C401	C40	0.956400	0.426200	0.857900
C411	C41	0.026500	0.344000	0.833260
C421	C42	0.930300	0.551300	0.929700
C431	C43	0.757900	0.732100	0.113590
C441	C44	0.762600	0.728900	0.168420
C451	C45	0.795200	0.630500	0.192400
C461	C46	0.805900	0.629400	0.244400
C471	C47	0.778400	0.723900	0.272510
C481	C48	0.742900	0.819900	0.248600
C491	C49	0.735900	0.822000	0.195800
C501	C50	0.700600	0.642800	0.351840
C511	C51	0.578500	0.614500	0.332250
C521	C52	0.497800	0.542400	0.356800
C531	C53	0.538500	0.493700	0.402740
C541	C54	0.662000	0.520200	0.422540
C551	C55	0.743200	0.593300	0.397300
C561	C56	0.450300	0.419500	0.429400
C571	C57	0.855700	0.802900	0.353030
C581	C58	0.808900	0.845700	0.398400
C591	C59	0.877400	0.926300	0.423670
C601	C60	0.995100	0.967900	0.403490
C611	C61	0.043600	0.926200	0.357900
C621	C62	0.973500	0.844000	0.333260
C631	C63	0.069700	0.051300	0.429700
C641	C64	0.242100	0.732100	0.886410
C651	C65	0.237400	0.728900	0.831580
C661	C66	0.204800	0.630500	0.807600
C671	C67	0.194100	0.629400	0.755600
C681	C68	0.221600	0.723900	0.727490
C691	C69	0.257100	0.819900	0.751400
C701	C70	0.264100	0.822000	0.804200
C711	C71	0.299400	0.642800	0.648160
C721	C72	0.421500	0.614500	0.667750
C731	C73	0.502200	0.542400	0.643200
C741	C74	0.461500	0.493700	0.597260
C751	C75	0.338000	0.520200	0.577460
C761	C76	0.256800	0.593300	0.602700
C771	C77	0.549700	0.419500	0.570600
C781	C78	0.144300	0.802900	0.646970
C791	C79	0.191100	0.845700	0.601600
C801	C80	0.122600	0.926300	0.576330
C811	C81	0.004900	0.967900	0.596510
C821	C82	0.956400	0.926200	0.642100
C831	C83	0.026500	0.844000	0.666740
C841	C84	0.930300	0.051300	0.570300
N11	N1	0.754800	0.237400	0.428970
N21	N2	0.784300	0.219500	0.173320
N31	N3	0.382900	0.860200	0.049600
N41	N4	0.126900	0.617200	0.049140
N51	N5	0.245200	0.237400	0.571030
N61	N6	0.215700	0.219500	0.826680
N71	N7	0.617100	0.860200	0.950400
N81	N8	0.873100	0.617200	0.950860
N91	N9	0.754800	0.737400	0.071030
N101	N10	0.784300	0.719500	0.326680
N111	N11	0.382900	0.360200	0.450400
N121	N12	0.126900	0.117200	0.450860
N131	N13	0.245200	0.737400	0.928970
N141	N14	0.215700	0.719500	0.673320
N151	N15	0.617100	0.360200	0.549600
N161	N16	0.873100	0.117200	0.549140
C851	C85	0.388800	0.346800	0.085100
S11	S1	0.464360	0.455490	0.122370
O11	O1	0.529700	0.398500	0.162070
O21	O2	0.352200	0.522100	0.136700
O31	O3	0.550700	0.506100	0.086300
F11	F1	0.318300	0.382800	0.046900
F21	F2	0.307100	0.283600	0.112200
F31	F3	0.478200	0.274500	0.066100
C861	C86	0.611200	0.346800	0.914900
S21	S2	0.535640	0.455490	0.877630
O41	O4	0.470300	0.398500	0.837930
O51	O5	0.647800	0.522100	0.863300
O61	O6	0.449300	0.506100	0.913700
F41	F4	0.681700	0.382800	0.953100
F51	F5	0.692900	0.283600	0.887800
F61	F6	0.521800	0.274500	0.933900
C871	C87	0.388800	0.846800	0.414900
S31	S3	0.464360	0.955490	0.377630
O71	O7	0.529700	0.898500	0.337930
O81	O8	0.352200	0.022100	0.363300
O91	O9	0.550700	0.006100	0.413700
F71	F7	0.318300	0.882800	0.453100
F81	F8	0.307100	0.783600	0.387800
F91	F9	0.478200	0.774500	0.433900
C881	C88	0.611200	0.846800	0.585100
S41	S4	0.535640	0.955490	0.622370
O101	O10	0.470300	0.898500	0.662070
O111	O11	0.647800	0.022100	0.636700
O121	O12	0.449300	0.006100	0.586300
F101	F10	0.681700	0.882800	0.546900
F111	F11	0.692900	0.783600	0.612200
F121	F12	0.521800	0.774500	0.566100
