data_OKIQEG_freeONLY_PM
_symmetry_space_group_name_H-M	'P1'
_cell_length_a	18.944000
_cell_length_b	23.156000
_cell_length_c	14.411000
_cell_angle_alpha	90.000000
_cell_angle_beta	126.630000
_cell_angle_gamma	90.000000
_symmetry_Int_Tables_number 1

loop_
_symmetry_equiv_pos_as_xyz
'x,y,z'

loop_
_atom_site_label
_atom_site_type_symbol
_atom_site_fract_x
_atom_site_fract_y
_atom_site_fract_z
Cd11	Cd1	0.442510	0.153140	0.996420
O11	O1	0.336900	0.106610	0.992900
O21	O2	0.449010	0.049810	0.092200
O31	O3	0.435930	0.920680	0.373400
O41	O4	0.319700	0.865500	0.278700
O51	O5	0.623950	0.954300	0.599800
O61	O6	0.588800	0.862460	0.601500
O71	O7	0.826200	0.734610	0.908100
O81	O8	0.951200	0.742430	0.933800
O91	O9	0.482300	0.200200	0.161000
N11	N1	0.041100	0.943200	0.928000
N21	N2	0.033000	0.034400	0.888000
H11	H1	0.047700	0.069300	0.886200
N31	N3	0.946800	0.013700	0.829900
C11	C1	0.373100	0.062800	0.053000
C21	C2	0.319900	0.024500	0.073000
C31	C3	0.229500	0.026400	0.000000
H21	H2	0.201000	0.051100	0.936700
C41	C4	0.180800	0.991200	0.020600
C51	C5	0.223100	0.953000	0.110800
H31	H3	0.190800	0.928500	0.123400
C61	C6	0.313900	0.950900	0.183100
C71	C7	0.362900	0.987500	0.168500
H41	H4	0.423900	0.987800	0.221200
C81	C8	0.358500	0.910000	0.286500
C91	C9	0.084900	0.993400	0.942900
C101	C10	0.955500	0.960300	0.856900
C111	C11	0.889200	0.916000	0.824600
C121	C12	0.800500	0.930900	0.745800
H51	H5	0.783800	0.967600	0.712900
C131	C13	0.737800	0.889200	0.718500
C141	C14	0.762900	0.834800	0.767700
H61	H6	0.720000	0.807700	0.748600
C151	C15	0.850400	0.820100	0.844600
C161	C16	0.913000	0.861300	0.870200
H71	H7	0.972300	0.851700	0.919300
C171	C17	0.641600	0.903300	0.632100
C181	C18	0.876800	0.761200	0.896600
Cd21	Cd2	0.942510	0.653140	0.996420
O101	O10	0.836900	0.606610	0.992900
O111	O11	0.949010	0.549810	0.092200
O121	O12	0.935930	0.420680	0.373400
O131	O13	0.819700	0.365500	0.278700
O141	O14	0.123950	0.454300	0.599800
O151	O15	0.088800	0.362460	0.601500
O161	O16	0.326200	0.234610	0.908100
O171	O17	0.451200	0.242430	0.933800
O181	O18	0.982300	0.700200	0.161000
N41	N4	0.541100	0.443200	0.928000
N51	N5	0.533000	0.534400	0.888000
H81	H8	0.547700	0.569300	0.886200
N61	N6	0.446800	0.513700	0.829900
C191	C19	0.873100	0.562800	0.053000
C201	C20	0.819900	0.524500	0.073000
C211	C21	0.729500	0.526400	0.000000
H91	H9	0.701000	0.551100	0.936700
C221	C22	0.680800	0.491200	0.020600
C231	C23	0.723100	0.453000	0.110800
H101	H10	0.690800	0.428500	0.123400
C241	C24	0.813900	0.450900	0.183100
C251	C25	0.862900	0.487500	0.168500
H111	H11	0.923900	0.487800	0.221200
C261	C26	0.858500	0.410000	0.286500
C271	C27	0.584900	0.493400	0.942900
C281	C28	0.455500	0.460300	0.856900
C291	C29	0.389200	0.416000	0.824600
C301	C30	0.300500	0.430900	0.745800
H121	H12	0.283800	0.467600	0.712900
C311	C31	0.237800	0.389200	0.718500
C321	C32	0.262900	0.334800	0.767700
H131	H13	0.220000	0.307700	0.748600
C331	C33	0.350400	0.320100	0.844600
C341	C34	0.413000	0.361300	0.870200
H141	H14	0.472300	0.351700	0.919300
C351	C35	0.141600	0.403300	0.632100
C361	C36	0.376800	0.261200	0.896600
Cd31	Cd3	0.557490	0.153140	0.503580
O191	O19	0.663100	0.106610	0.507100
O201	O20	0.550990	0.049810	0.407800
O211	O21	0.564070	0.920680	0.126600
O221	O22	0.680300	0.865500	0.221300
O231	O23	0.376050	0.954300	0.900200
O241	O24	0.411200	0.862460	0.898500
O251	O25	0.173800	0.734610	0.591900
O261	O26	0.048800	0.742430	0.566200
O271	O27	0.517700	0.200200	0.339000
N71	N7	0.958900	0.943200	0.572000
N81	N8	0.967000	0.034400	0.612000
H151	H15	0.952300	0.069300	0.613800
N91	N9	0.053200	0.013700	0.670100
C371	C37	0.626900	0.062800	0.447000
C381	C38	0.680100	0.024500	0.427000
C391	C39	0.770500	0.026400	0.500000
H161	H16	0.799000	0.051100	0.563300
C401	C40	0.819200	0.991200	0.479400
C411	C41	0.776900	0.953000	0.389200
H171	H17	0.809200	0.928500	0.376600
C421	C42	0.686100	0.950900	0.316900
C431	C43	0.637100	0.987500	0.331500
H181	H18	0.576100	0.987800	0.278800
C441	C44	0.641500	0.910000	0.213500
C451	C45	0.915100	0.993400	0.557100
C461	C46	0.044500	0.960300	0.643100
C471	C47	0.110800	0.916000	0.675400
C481	C48	0.199500	0.930900	0.754200
H191	H19	0.216200	0.967600	0.787100
C491	C49	0.262200	0.889200	0.781500
C501	C50	0.237100	0.834800	0.732300
H201	H20	0.280000	0.807700	0.751400
C511	C51	0.149600	0.820100	0.655400
C521	C52	0.087000	0.861300	0.629800
H211	H21	0.027700	0.851700	0.580700
C531	C53	0.358400	0.903300	0.867900
C541	C54	0.123200	0.761200	0.603400
Cd41	Cd4	0.057490	0.653140	0.503580
O281	O28	0.163100	0.606610	0.507100
O291	O29	0.050990	0.549810	0.407800
O301	O30	0.064070	0.420680	0.126600
O311	O31	0.180300	0.365500	0.221300
O321	O32	0.876050	0.454300	0.900200
O331	O33	0.911200	0.362460	0.898500
O341	O34	0.673800	0.234610	0.591900
O351	O35	0.548800	0.242430	0.566200
O361	O36	0.017700	0.700200	0.339000
N101	N10	0.458900	0.443200	0.572000
N111	N11	0.467000	0.534400	0.612000
H221	H22	0.452300	0.569300	0.613800
N121	N12	0.553200	0.513700	0.670100
C551	C55	0.126900	0.562800	0.447000
C561	C56	0.180100	0.524500	0.427000
C571	C57	0.270500	0.526400	0.500000
H231	H23	0.299000	0.551100	0.563300
C581	C58	0.319200	0.491200	0.479400
C591	C59	0.276900	0.453000	0.389200
H241	H24	0.309200	0.428500	0.376600
C601	C60	0.186100	0.450900	0.316900
C611	C61	0.137100	0.487500	0.331500
H251	H25	0.076100	0.487800	0.278800
C621	C62	0.141500	0.410000	0.213500
C631	C63	0.415100	0.493400	0.557100
C641	C64	0.544500	0.460300	0.643100
C651	C65	0.610800	0.416000	0.675400
C661	C66	0.699500	0.430900	0.754200
H261	H26	0.716200	0.467600	0.787100
C671	C67	0.762200	0.389200	0.781500
C681	C68	0.737100	0.334800	0.732300
H271	H27	0.780000	0.307700	0.751400
C691	C69	0.649600	0.320100	0.655400
C701	C70	0.587000	0.361300	0.629800
H281	H28	0.527700	0.351700	0.580700
C711	C71	0.858400	0.403300	0.867900
C721	C72	0.623200	0.261200	0.603400
Cd51	Cd5	0.557490	0.846860	0.003580
O371	O37	0.663100	0.893390	0.007100
O381	O38	0.550990	0.950190	0.907800
O391	O39	0.564070	0.079320	0.626600
O401	O40	0.680300	0.134500	0.721300
O411	O41	0.376050	0.045700	0.400200
O421	O42	0.411200	0.137540	0.398500
O431	O43	0.173800	0.265390	0.091900
O441	O44	0.048800	0.257570	0.066200
O451	O45	0.517700	0.799800	0.839000
N131	N13	0.958900	0.056800	0.072000
N141	N14	0.967000	0.965600	0.112000
H291	H29	0.952300	0.930700	0.113800
N151	N15	0.053200	0.986300	0.170100
C731	C73	0.626900	0.937200	0.947000
C741	C74	0.680100	0.975500	0.927000
C751	C75	0.770500	0.973600	0.000000
H301	H30	0.799000	0.948900	0.063300
C761	C76	0.819200	0.008800	0.979400
C771	C77	0.776900	0.047000	0.889200
H311	H31	0.809200	0.071500	0.876600
C781	C78	0.686100	0.049100	0.816900
C791	C79	0.637100	0.012500	0.831500
H321	H32	0.576100	0.012200	0.778800
C801	C80	0.641500	0.090000	0.713500
C811	C81	0.915100	0.006600	0.057100
C821	C82	0.044500	0.039700	0.143100
C831	C83	0.110800	0.084000	0.175400
C841	C84	0.199500	0.069100	0.254200
H331	H33	0.216200	0.032400	0.287100
C851	C85	0.262200	0.110800	0.281500
C861	C86	0.237100	0.165200	0.232300
H341	H34	0.280000	0.192300	0.251400
C871	C87	0.149600	0.179900	0.155400
C881	C88	0.087000	0.138700	0.129800
H351	H35	0.027700	0.148300	0.080700
C891	C89	0.358400	0.096700	0.367900
C901	C90	0.123200	0.238800	0.103400
Cd61	Cd6	0.057490	0.346860	0.003580
O461	O46	0.163100	0.393390	0.007100
O471	O47	0.050990	0.450190	0.907800
O481	O48	0.064070	0.579320	0.626600
O491	O49	0.180300	0.634500	0.721300
O501	O50	0.876050	0.545700	0.400200
O511	O51	0.911200	0.637540	0.398500
O521	O52	0.673800	0.765390	0.091900
O531	O53	0.548800	0.757570	0.066200
O541	O54	0.017700	0.299800	0.839000
N161	N16	0.458900	0.556800	0.072000
N171	N17	0.467000	0.465600	0.112000
H361	H36	0.452300	0.430700	0.113800
N181	N18	0.553200	0.486300	0.170100
C911	C91	0.126900	0.437200	0.947000
C921	C92	0.180100	0.475500	0.927000
C931	C93	0.270500	0.473600	0.000000
H371	H37	0.299000	0.448900	0.063300
C941	C94	0.319200	0.508800	0.979400
C951	C95	0.276900	0.547000	0.889200
H381	H38	0.309200	0.571500	0.876600
C961	C96	0.186100	0.549100	0.816900
C971	C97	0.137100	0.512500	0.831500
H391	H39	0.076100	0.512200	0.778800
C981	C98	0.141500	0.590000	0.713500
C991	C99	0.415100	0.506600	0.057100
C1001	C100	0.544500	0.539700	0.143100
C1011	C101	0.610800	0.584000	0.175400
C1021	C102	0.699500	0.569100	0.254200
H401	H40	0.716200	0.532400	0.287100
C1031	C103	0.762200	0.610800	0.281500
C1041	C104	0.737100	0.665200	0.232300
H411	H41	0.780000	0.692300	0.251400
C1051	C105	0.649600	0.679900	0.155400
C1061	C106	0.587000	0.638700	0.129800
H421	H42	0.527700	0.648300	0.080700
C1071	C107	0.858400	0.596700	0.367900
C1081	C108	0.623200	0.738800	0.103400
Cd71	Cd7	0.442510	0.846860	0.496420
O551	O55	0.336900	0.893390	0.492900
O561	O56	0.449010	0.950190	0.592200
O571	O57	0.435930	0.079320	0.873400
O581	O58	0.319700	0.134500	0.778700
O591	O59	0.623950	0.045700	0.099800
O601	O60	0.588800	0.137540	0.101500
O611	O61	0.826200	0.265390	0.408100
O621	O62	0.951200	0.257570	0.433800
O631	O63	0.482300	0.799800	0.661000
N191	N19	0.041100	0.056800	0.428000
N201	N20	0.033000	0.965600	0.388000
H431	H43	0.047700	0.930700	0.386200
N211	N21	0.946800	0.986300	0.329900
C1091	C109	0.373100	0.937200	0.553000
C1101	C110	0.319900	0.975500	0.573000
C1111	C111	0.229500	0.973600	0.500000
H441	H44	0.201000	0.948900	0.436700
C1121	C112	0.180800	0.008800	0.520600
C1131	C113	0.223100	0.047000	0.610800
H451	H45	0.190800	0.071500	0.623400
C1141	C114	0.313900	0.049100	0.683100
C1151	C115	0.362900	0.012500	0.668500
H461	H46	0.423900	0.012200	0.721200
C1161	C116	0.358500	0.090000	0.786500
C1171	C117	0.084900	0.006600	0.442900
C1181	C118	0.955500	0.039700	0.356900
C1191	C119	0.889200	0.084000	0.324600
C1201	C120	0.800500	0.069100	0.245800
H471	H47	0.783800	0.032400	0.212900
C1211	C121	0.737800	0.110800	0.218500
C1221	C122	0.762900	0.165200	0.267700
H481	H48	0.720000	0.192300	0.248600
C1231	C123	0.850400	0.179900	0.344600
C1241	C124	0.913000	0.138700	0.370200
H491	H49	0.972300	0.148300	0.419300
C1251	C125	0.641600	0.096700	0.132100
C1261	C126	0.876800	0.238800	0.396600
Cd81	Cd8	0.942510	0.346860	0.496420
O641	O64	0.836900	0.393390	0.492900
O651	O65	0.949010	0.450190	0.592200
O661	O66	0.935930	0.579320	0.873400
O671	O67	0.819700	0.634500	0.778700
O681	O68	0.123950	0.545700	0.099800
O691	O69	0.088800	0.637540	0.101500
O701	O70	0.326200	0.765390	0.408100
O711	O71	0.451200	0.757570	0.433800
O721	O72	0.982300	0.299800	0.661000
N221	N22	0.541100	0.556800	0.428000
N231	N23	0.533000	0.465600	0.388000
H501	H50	0.547700	0.430700	0.386200
N241	N24	0.446800	0.486300	0.329900
C1271	C127	0.873100	0.437200	0.553000
C1281	C128	0.819900	0.475500	0.573000
C1291	C129	0.729500	0.473600	0.500000
H511	H51	0.701000	0.448900	0.436700
C1301	C130	0.680800	0.508800	0.520600
C1311	C131	0.723100	0.547000	0.610800
H521	H52	0.690800	0.571500	0.623400
C1321	C132	0.813900	0.549100	0.683100
C1331	C133	0.862900	0.512500	0.668500
H531	H53	0.923900	0.512200	0.721200
C1341	C134	0.858500	0.590000	0.786500
C1351	C135	0.584900	0.506600	0.442900
C1361	C136	0.455500	0.539700	0.356900
C1371	C137	0.389200	0.584000	0.324600
C1381	C138	0.300500	0.569100	0.245800
H541	H54	0.283800	0.532400	0.212900
C1391	C139	0.237800	0.610800	0.218500
C1401	C140	0.262900	0.665200	0.267700
H551	H55	0.220000	0.692300	0.248600
C1411	C141	0.350400	0.679900	0.344600
C1421	C142	0.413000	0.638700	0.370200
H561	H56	0.472300	0.648300	0.419300
C1431	C143	0.141600	0.596700	0.132100
C1441	C144	0.376800	0.738800	0.396600
Cd91	Cd9	0.500000	0.000000	0.000000
Cd101	Cd10	0.000000	0.500000	0.000000
Cd111	Cd11	0.500000	0.000000	0.500000
Cd121	Cd12	0.000000	0.500000	0.500000
C1451	C145	0.500000	0.175800	0.250000
H571	H57	0.500000	0.135600	0.250000
C1461	C146	0.000000	0.675800	0.250000
H581	H58	0.000000	0.635600	0.250000
C1471	C147	0.500000	0.824200	0.750000
H591	H59	0.500000	0.864400	0.750000
C1481	C148	0.000000	0.324200	0.750000
H601	H60	0.000000	0.364400	0.750000
