data_OKIVAG_charged_PM
_symmetry_space_group_name_H-M	'P1'
_cell_length_a	15.937000
_cell_length_b	15.937000
_cell_length_c	21.884000
_cell_angle_alpha	90.000000
_cell_angle_beta	90.000000
_cell_angle_gamma	90.000000
_symmetry_Int_Tables_number 1

loop_
_symmetry_equiv_pos_as_xyz
'x,y,z'

loop_
_atom_site_label
_atom_site_type_symbol
_atom_site_fract_x
_atom_site_fract_y
_atom_site_fract_z
Cd11	Cd1	0.942650	0.057350	0.250000
Cd21	Cd2	0.057350	0.942650	0.750000
Cd31	Cd3	0.442650	0.442650	0.500000
Cd41	Cd4	0.557350	0.557350	0.000000
H11	H1	0.463600	0.390000	0.350700
H21	H2	0.416300	0.284900	0.285300
H31	H3	0.215300	0.259200	0.396200
H41	H4	0.273600	0.357900	0.460400
H51	H5	0.349300	0.201800	0.220800
H61	H6	0.294400	0.092800	0.164700
H71	H7	0.199200	0.997900	0.208200
H81	H8	0.203600	0.136100	0.364200
H91	H9	0.955700	0.878700	0.459100
H101	H10	0.937900	0.769900	0.528400
H111	H11	0.037700	0.665500	0.538400
H121	H12	0.175700	0.776200	0.404100
H131	H13	0.233500	0.651600	0.391200
H141	H14	0.340200	0.555700	0.405400
H151	H15	0.265800	0.511000	0.573600
H161	H16	0.155000	0.603700	0.562600
H171	H17	0.260100	0.973600	0.388400
H181	H18	0.259000	0.892100	0.355300
H191	H19	0.536400	0.610000	0.850700
H201	H20	0.583700	0.715100	0.785300
H211	H21	0.784700	0.740800	0.896200
H221	H22	0.726400	0.642100	0.960400
H231	H23	0.650700	0.798200	0.720800
H241	H24	0.705600	0.907200	0.664700
H251	H25	0.800800	0.002100	0.708200
H261	H26	0.796400	0.863900	0.864200
H271	H27	0.044300	0.121300	0.959100
H281	H28	0.062100	0.230100	0.028400
H291	H29	0.962300	0.334500	0.038400
H301	H30	0.824300	0.223800	0.904100
H311	H31	0.766500	0.348400	0.891200
H321	H32	0.659800	0.444300	0.905400
H331	H33	0.734200	0.489000	0.073600
H341	H34	0.845000	0.396300	0.062600
H351	H35	0.739900	0.026400	0.888400
H361	H36	0.741000	0.107900	0.855300
H371	H37	0.110000	0.963600	0.600700
H381	H38	0.215100	0.916300	0.535300
H391	H39	0.240800	0.715300	0.646200
H401	H40	0.142100	0.773600	0.710400
H411	H41	0.298200	0.849300	0.470800
H421	H42	0.407200	0.794400	0.414700
H431	H43	0.502100	0.699200	0.458200
H441	H44	0.363900	0.703600	0.614200
H451	H45	0.621300	0.455700	0.709100
H461	H46	0.730100	0.437900	0.778400
H471	H47	0.834500	0.537700	0.788400
H481	H48	0.723800	0.675700	0.654100
H491	H49	0.848400	0.733500	0.641200
H501	H50	0.944300	0.840200	0.655400
H511	H51	0.989000	0.765800	0.823600
H521	H52	0.896300	0.655000	0.812600
H531	H53	0.526400	0.760100	0.638400
H541	H54	0.607900	0.759000	0.605300
H551	H55	0.890000	0.036400	0.100700
H561	H56	0.784900	0.083700	0.035300
H571	H57	0.759200	0.284700	0.146200
H581	H58	0.857900	0.226400	0.210400
H591	H59	0.701800	0.150700	0.970800
H601	H60	0.592800	0.205600	0.914700
H611	H61	0.497900	0.300800	0.958200
H621	H62	0.636100	0.296400	0.114200
H631	H63	0.378700	0.544300	0.209100
H641	H64	0.269900	0.562100	0.278400
H651	H65	0.165500	0.462300	0.288400
H661	H66	0.276200	0.324300	0.154100
H671	H67	0.151600	0.266500	0.141200
H681	H68	0.055700	0.159800	0.155400
H691	H69	0.011000	0.234200	0.323600
H701	H70	0.103700	0.345000	0.312600
H711	H71	0.473600	0.239900	0.138400
H721	H72	0.392100	0.241000	0.105300
H731	H73	0.036400	0.890000	0.899300
H741	H74	0.083700	0.784900	0.964700
H751	H75	0.284700	0.759200	0.853800
H761	H76	0.226400	0.857900	0.789600
H771	H77	0.150700	0.701800	0.029200
H781	H78	0.205600	0.592800	0.085300
H791	H79	0.300800	0.497900	0.041800
H801	H80	0.296400	0.636100	0.885800
H811	H81	0.544300	0.378700	0.790900
H821	H82	0.562100	0.269900	0.721600
H831	H83	0.462300	0.165500	0.711600
H841	H84	0.324300	0.276200	0.845900
H851	H85	0.266500	0.151600	0.858800
H861	H86	0.159800	0.055700	0.844600
H871	H87	0.234200	0.011000	0.676400
H881	H88	0.345000	0.103700	0.687400
H891	H89	0.239900	0.473600	0.861600
H901	H90	0.241000	0.392100	0.894700
H911	H91	0.963600	0.110000	0.399300
H921	H92	0.916300	0.215100	0.464700
H931	H93	0.715300	0.240800	0.353800
H941	H94	0.773600	0.142100	0.289600
H951	H95	0.849300	0.298200	0.529200
H961	H96	0.794400	0.407200	0.585300
H971	H97	0.699200	0.502100	0.541800
H981	H98	0.703600	0.363900	0.385800
H991	H99	0.455700	0.621300	0.290900
H1001	H100	0.437900	0.730100	0.221600
H1011	H101	0.537700	0.834500	0.211600
H1021	H102	0.675700	0.723800	0.345900
H1031	H103	0.733500	0.848400	0.358800
H1041	H104	0.840200	0.944300	0.344600
H1051	H105	0.765800	0.989000	0.176400
H1061	H106	0.655000	0.896300	0.187400
H1071	H107	0.760100	0.526400	0.361600
H1081	H108	0.759000	0.607900	0.394700
H1091	H109	0.390000	0.463600	0.649300
H1101	H110	0.284900	0.416300	0.714700
H1111	H111	0.259200	0.215300	0.603800
H1121	H112	0.357900	0.273600	0.539600
H1131	H113	0.201800	0.349300	0.779200
H1141	H114	0.092800	0.294400	0.835300
H1151	H115	0.997900	0.199200	0.791800
H1161	H116	0.136100	0.203600	0.635800
H1171	H117	0.878700	0.955700	0.540900
H1181	H118	0.769900	0.937900	0.471600
H1191	H119	0.665500	0.037700	0.461600
H1201	H120	0.776200	0.175700	0.595900
H1211	H121	0.651600	0.233500	0.608800
H1221	H122	0.555700	0.340200	0.594600
H1231	H123	0.511000	0.265800	0.426400
H1241	H124	0.603700	0.155000	0.437400
H1251	H125	0.973600	0.260100	0.611600
H1261	H126	0.892100	0.259000	0.644700
H1271	H127	0.610000	0.536400	0.149300
H1281	H128	0.715100	0.583700	0.214700
H1291	H129	0.740800	0.784700	0.103800
H1301	H130	0.642100	0.726400	0.039600
H1311	H131	0.798200	0.650700	0.279200
H1321	H132	0.907200	0.705600	0.335300
H1331	H133	0.002100	0.800800	0.291800
H1341	H134	0.863900	0.796400	0.135800
H1351	H135	0.121300	0.044300	0.040900
H1361	H136	0.230100	0.062100	0.971600
H1371	H137	0.334500	0.962300	0.961600
H1381	H138	0.223800	0.824300	0.095900
H1391	H139	0.348400	0.766500	0.108800
H1401	H140	0.444300	0.659800	0.094600
H1411	H141	0.489000	0.734200	0.926400
H1421	H142	0.396300	0.845000	0.937400
H1431	H143	0.026400	0.739900	0.111600
H1441	H144	0.107900	0.741000	0.144700
C11	C1	0.414100	0.360300	0.361500
C21	C2	0.385900	0.297400	0.321500
C31	C3	0.312000	0.253000	0.335700
C41	C4	0.269000	0.281700	0.386900
C51	C5	0.303200	0.342400	0.424400
C61	C6	0.281400	0.181300	0.298000
C71	C7	0.308300	0.166100	0.238700
C81	C8	0.276600	0.100500	0.205700
C91	C9	0.218800	0.044800	0.230800
C101	C10	0.190100	0.060200	0.290900
C111	C11	0.222200	0.126900	0.323500
C121	C12	0.127500	0.003600	0.320700
C131	C13	0.076500	0.908500	0.381700
C141	C14	0.068600	0.839300	0.425700
C151	C15	0.997200	0.836100	0.462400
C161	C16	0.986700	0.771300	0.503500
C171	C17	0.045200	0.708800	0.509100
C181	C18	0.117400	0.709100	0.470500
C191	C19	0.127600	0.775000	0.429700
C201	C20	0.182500	0.642000	0.476800
C211	C21	0.239000	0.624000	0.429400
C221	C22	0.302700	0.566400	0.438200
C231	C23	0.259100	0.540100	0.536000
C241	C24	0.193300	0.596400	0.529700
C251	C25	0.585900	0.639700	0.861500
C261	C26	0.614100	0.702600	0.821500
C271	C27	0.688000	0.747000	0.835700
C281	C28	0.731000	0.718300	0.886900
C291	C29	0.696800	0.657600	0.924400
C301	C30	0.718600	0.818700	0.798000
C311	C31	0.691700	0.833900	0.738700
C321	C32	0.723400	0.899500	0.705700
C331	C33	0.781200	0.955200	0.730800
C341	C34	0.809900	0.939800	0.790900
C351	C35	0.777800	0.873100	0.823500
C361	C36	0.872500	0.996400	0.820700
C371	C37	0.923500	0.091500	0.881700
C381	C38	0.931400	0.160700	0.925700
C391	C39	0.002800	0.163900	0.962400
C401	C40	0.013300	0.228700	0.003500
C411	C41	0.954800	0.291200	0.009100
C421	C42	0.882600	0.290900	0.970500
C431	C43	0.872400	0.225000	0.929700
C441	C44	0.817500	0.358000	0.976800
C451	C45	0.761000	0.376000	0.929400
C461	C46	0.697300	0.433600	0.938200
C471	C47	0.740900	0.459900	0.036000
C481	C48	0.806700	0.403600	0.029700
C491	C49	0.139700	0.914100	0.611500
C501	C50	0.202600	0.885900	0.571500
C511	C51	0.247000	0.812000	0.585700
C521	C52	0.218300	0.769000	0.636900
C531	C53	0.157600	0.803200	0.674400
C541	C54	0.318700	0.781400	0.548000
C551	C55	0.333900	0.808300	0.488700
C561	C56	0.399500	0.776600	0.455700
C571	C57	0.455200	0.718800	0.480800
C581	C58	0.439800	0.690100	0.540900
C591	C59	0.373100	0.722200	0.573500
C601	C60	0.496400	0.627500	0.570700
C611	C61	0.591500	0.576500	0.631700
C621	C62	0.660700	0.568600	0.675700
C631	C63	0.663900	0.497200	0.712400
C641	C64	0.728700	0.486700	0.753500
C651	C65	0.791200	0.545200	0.759100
C661	C66	0.790900	0.617400	0.720500
C671	C67	0.725000	0.627600	0.679700
C681	C68	0.858000	0.682500	0.726800
C691	C69	0.876000	0.739000	0.679400
C701	C70	0.933600	0.802700	0.688200
C711	C71	0.959900	0.759100	0.786000
C721	C72	0.903600	0.693300	0.779700
C731	C73	0.860300	0.085900	0.111500
C741	C74	0.797400	0.114100	0.071500
C751	C75	0.753000	0.188000	0.085700
C761	C76	0.781700	0.231000	0.136900
C771	C77	0.842400	0.196800	0.174400
C781	C78	0.681300	0.218600	0.048000
C791	C79	0.666100	0.191700	0.988700
C801	C80	0.600500	0.223400	0.955700
C811	C81	0.544800	0.281200	0.980800
C821	C82	0.560200	0.309900	0.040900
C831	C83	0.626900	0.277800	0.073500
C841	C84	0.503600	0.372500	0.070700
C851	C85	0.408500	0.423500	0.131700
C861	C86	0.339300	0.431400	0.175700
C871	C87	0.336100	0.502800	0.212400
C881	C88	0.271300	0.513300	0.253500
C891	C89	0.208800	0.454800	0.259100
C901	C90	0.209100	0.382600	0.220500
C911	C91	0.275000	0.372400	0.179700
C921	C92	0.142000	0.317500	0.226800
C931	C93	0.124000	0.261000	0.179400
C941	C94	0.066400	0.197300	0.188200
C951	C95	0.040100	0.240900	0.286000
C961	C96	0.096400	0.306700	0.279700
C971	C97	0.085900	0.860300	0.888500
C981	C98	0.114100	0.797400	0.928500
C991	C99	0.188000	0.753000	0.914300
C1001	C100	0.231000	0.781700	0.863100
C1011	C101	0.196800	0.842400	0.825600
C1021	C102	0.218600	0.681300	0.952000
C1031	C103	0.191700	0.666100	0.011300
C1041	C104	0.223400	0.600500	0.044300
C1051	C105	0.281200	0.544800	0.019200
C1061	C106	0.309900	0.560200	0.959100
C1071	C107	0.277800	0.626900	0.926500
C1081	C108	0.372500	0.503600	0.929300
C1091	C109	0.423500	0.408500	0.868300
C1101	C110	0.431400	0.339300	0.824300
C1111	C111	0.502800	0.336100	0.787600
C1121	C112	0.513300	0.271300	0.746500
C1131	C113	0.454800	0.208800	0.740900
C1141	C114	0.382600	0.209100	0.779500
C1151	C115	0.372400	0.275000	0.820300
C1161	C116	0.317500	0.142000	0.773200
C1171	C117	0.261000	0.124000	0.820600
C1181	C118	0.197300	0.066400	0.811800
C1191	C119	0.240900	0.040100	0.714000
C1201	C120	0.306700	0.096400	0.720300
C1211	C121	0.914100	0.139700	0.388500
C1221	C122	0.885900	0.202600	0.428500
C1231	C123	0.812000	0.247000	0.414300
C1241	C124	0.769000	0.218300	0.363100
C1251	C125	0.803200	0.157600	0.325600
C1261	C126	0.781400	0.318700	0.452000
C1271	C127	0.808300	0.333900	0.511300
C1281	C128	0.776600	0.399500	0.544300
C1291	C129	0.718800	0.455200	0.519200
C1301	C130	0.690100	0.439800	0.459100
C1311	C131	0.722200	0.373100	0.426500
C1321	C132	0.627500	0.496400	0.429300
C1331	C133	0.576500	0.591500	0.368300
C1341	C134	0.568600	0.660700	0.324300
C1351	C135	0.497200	0.663900	0.287600
C1361	C136	0.486700	0.728700	0.246500
C1371	C137	0.545200	0.791200	0.240900
C1381	C138	0.617400	0.790900	0.279500
C1391	C139	0.627600	0.725000	0.320300
C1401	C140	0.682500	0.858000	0.273200
C1411	C141	0.739000	0.876000	0.320600
C1421	C142	0.802700	0.933600	0.311800
C1431	C143	0.759100	0.959900	0.214000
C1441	C144	0.693300	0.903600	0.220300
C1451	C145	0.360300	0.414100	0.638500
C1461	C146	0.297400	0.385900	0.678500
C1471	C147	0.253000	0.312000	0.664300
C1481	C148	0.281700	0.269000	0.613100
C1491	C149	0.342400	0.303200	0.575600
C1501	C150	0.181300	0.281400	0.702000
C1511	C151	0.166100	0.308300	0.761300
C1521	C152	0.100500	0.276600	0.794300
C1531	C153	0.044800	0.218800	0.769200
C1541	C154	0.060200	0.190100	0.709100
C1551	C155	0.126900	0.222200	0.676500
C1561	C156	0.003600	0.127500	0.679300
C1571	C157	0.908500	0.076500	0.618300
C1581	C158	0.839300	0.068600	0.574300
C1591	C159	0.836100	0.997200	0.537600
C1601	C160	0.771300	0.986700	0.496500
C1611	C161	0.708800	0.045200	0.490900
C1621	C162	0.709100	0.117400	0.529500
C1631	C163	0.775000	0.127600	0.570300
C1641	C164	0.642000	0.182500	0.523200
C1651	C165	0.624000	0.239000	0.570600
C1661	C166	0.566400	0.302700	0.561800
C1671	C167	0.540100	0.259100	0.464000
C1681	C168	0.596400	0.193300	0.470300
C1691	C169	0.639700	0.585900	0.138500
C1701	C170	0.702600	0.614100	0.178500
C1711	C171	0.747000	0.688000	0.164300
C1721	C172	0.718300	0.731000	0.113100
C1731	C173	0.657600	0.696800	0.075600
C1741	C174	0.818700	0.718600	0.202000
C1751	C175	0.833900	0.691700	0.261300
C1761	C176	0.899500	0.723400	0.294300
C1771	C177	0.955200	0.781200	0.269200
C1781	C178	0.939800	0.809900	0.209100
C1791	C179	0.873100	0.777800	0.176500
C1801	C180	0.996400	0.872500	0.179300
C1811	C181	0.091500	0.923500	0.118300
C1821	C182	0.160700	0.931400	0.074300
C1831	C183	0.163900	0.002800	0.037600
C1841	C184	0.228700	0.013300	0.996500
C1851	C185	0.291200	0.954800	0.990900
C1861	C186	0.290900	0.882600	0.029500
C1871	C187	0.225000	0.872400	0.070300
C1881	C188	0.358000	0.817500	0.023200
C1891	C189	0.376000	0.761000	0.070600
C1901	C190	0.433600	0.697300	0.061800
C1911	C191	0.459900	0.740900	0.964000
C1921	C192	0.403600	0.806700	0.970300
N11	N1	0.377000	0.380500	0.412000
N21	N2	0.013900	0.944800	0.354800
N31	N3	0.045800	0.005900	0.316500
N41	N4	0.149600	0.943600	0.361000
N51	N5	0.231400	0.924800	0.382800
N61	N6	0.313900	0.525400	0.490400
N71	N7	0.623000	0.619500	0.912000
N81	N8	0.986100	0.055200	0.854800
N91	N9	0.954200	0.994100	0.816500
N101	N10	0.850400	0.056400	0.861000
N111	N11	0.768600	0.075200	0.882800
N121	N12	0.686100	0.474600	0.990400
N131	N13	0.119500	0.877000	0.662000
N141	N14	0.555200	0.513900	0.604800
N151	N15	0.494100	0.545800	0.566500
N161	N16	0.556400	0.649600	0.611000
N171	N17	0.575200	0.731400	0.632800
N181	N18	0.974600	0.813900	0.740400
N191	N19	0.880500	0.123000	0.162000
N201	N20	0.444800	0.486100	0.104800
N211	N21	0.505900	0.454200	0.066500
N221	N22	0.443600	0.350400	0.111000
N231	N23	0.424800	0.268600	0.132800
N241	N24	0.025400	0.186100	0.240400
N251	N25	0.123000	0.880500	0.838000
N261	N26	0.486100	0.444800	0.895200
N271	N27	0.454200	0.505900	0.933500
N281	N28	0.350400	0.443600	0.889000
N291	N29	0.268600	0.424800	0.867200
N301	N30	0.186100	0.025400	0.759600
N311	N31	0.877000	0.119500	0.338000
N321	N32	0.513900	0.555200	0.395200
N331	N33	0.545800	0.494100	0.433500
N341	N34	0.649600	0.556400	0.389000
N351	N35	0.731400	0.575200	0.367200
N361	N36	0.813900	0.974600	0.259600
N371	N37	0.380500	0.377000	0.588000
N381	N38	0.944800	0.013900	0.645200
N391	N39	0.005900	0.045800	0.683500
N401	N40	0.943600	0.149600	0.639000
N411	N41	0.924800	0.231400	0.617200
N421	N42	0.525400	0.313900	0.509600
N431	N43	0.619500	0.623000	0.088000
N441	N44	0.055200	0.986100	0.145200
N451	N45	0.994100	0.954200	0.183500
N461	N46	0.056400	0.850400	0.139000
N471	N47	0.075200	0.768600	0.117200
N481	N48	0.474600	0.686100	0.009600
Cl11	Cl1	0.879390	0.879390	0.000000
O11	O1	0.820700	0.901700	0.048700
O21	O2	0.940400	0.859200	0.034100
O31	O3	0.901700	0.820700	0.951300
O41	O4	0.859200	0.940400	0.965900
Cl21	Cl2	0.268040	0.268040	0.000000
O51	O5	0.235700	0.228400	0.049400
O61	O6	0.337000	0.217000	0.998600
O71	O7	0.228400	0.235700	0.950600
O81	O8	0.217000	0.337000	0.001400
Cl31	Cl3	0.120610	0.120610	0.500000
O91	O9	0.179300	0.098300	0.548700
O101	O10	0.059600	0.140800	0.534100
O111	O11	0.098300	0.179300	0.451300
O121	O12	0.140800	0.059600	0.465900
Cl41	Cl4	0.731960	0.731960	0.500000
O131	O13	0.764300	0.771600	0.549400
O141	O14	0.663000	0.783000	0.498600
O151	O15	0.771600	0.764300	0.450600
O161	O16	0.783000	0.663000	0.501400
Cl51	Cl5	0.620610	0.379390	0.250000
O171	O17	0.598300	0.320700	0.298700
O181	O18	0.640800	0.440400	0.284100
O191	O19	0.679300	0.401700	0.201300
O201	O20	0.559600	0.359200	0.215900
Cl61	Cl6	0.231960	0.768040	0.250000
O211	O21	0.271600	0.735700	0.299400
O221	O22	0.283000	0.837000	0.248600
O231	O23	0.264300	0.728400	0.200600
O241	O24	0.163000	0.717000	0.251400
Cl71	Cl7	0.379390	0.620610	0.750000
O251	O25	0.401700	0.679300	0.798700
O261	O26	0.359200	0.559600	0.784100
O271	O27	0.320700	0.598300	0.701300
O281	O28	0.440400	0.640800	0.715900
Cl81	Cl8	0.768040	0.231960	0.750000
O291	O29	0.728400	0.264300	0.799400
O301	O30	0.717000	0.163000	0.748600
O311	O31	0.735700	0.271600	0.700600
O321	O32	0.837000	0.283000	0.751400
