data_OKIVIO02_charged_PM
_symmetry_space_group_name_H-M	'P1'
_cell_length_a	15.827100
_cell_length_b	15.827100
_cell_length_c	21.856000
_cell_angle_alpha	90.000000
_cell_angle_beta	90.000000
_cell_angle_gamma	90.000000
_symmetry_Int_Tables_number 1

loop_
_symmetry_equiv_pos_as_xyz
'x,y,z'

loop_
_atom_site_label
_atom_site_type_symbol
_atom_site_fract_x
_atom_site_fract_y
_atom_site_fract_z
Cd11	Cd1	0.942300	0.057700	0.750000
Cd21	Cd2	0.057700	0.942300	0.250000
Cd31	Cd3	0.442300	0.442300	0.500000
Cd41	Cd4	0.557700	0.557700	0.000000
H11	H1	0.464700	0.388000	0.649900
H21	H2	0.416600	0.285900	0.713600
H31	H3	0.215900	0.259800	0.605000
H41	H4	0.272900	0.360100	0.541500
H51	H5	0.347600	0.204200	0.779600
H61	H6	0.297000	0.091600	0.834000
H71	H7	0.198800	0.000600	0.792500
H81	H8	0.204200	0.135800	0.637100
H91	H9	0.957500	0.881700	0.540500
H101	H10	0.938600	0.772000	0.471100
H111	H11	0.039400	0.668300	0.461500
H121	H12	0.173700	0.776200	0.595200
H131	H13	0.154900	0.604000	0.437200
H141	H14	0.265200	0.511200	0.427500
H151	H15	0.338800	0.557300	0.593300
H161	H16	0.233000	0.650900	0.607800
H171	H17	0.257400	0.975600	0.609100
H181	H18	0.260500	0.899300	0.645800
H191	H19	0.535300	0.612000	0.149900
H201	H20	0.583400	0.714100	0.213600
H211	H21	0.784100	0.740200	0.105000
H221	H22	0.727100	0.639900	0.041500
H231	H23	0.652400	0.795800	0.279600
H241	H24	0.703000	0.908400	0.334000
H251	H25	0.801200	0.999400	0.292500
H261	H26	0.795800	0.864200	0.137100
H271	H27	0.042500	0.118300	0.040500
H281	H28	0.061400	0.228000	0.971100
H291	H29	0.960600	0.331700	0.961500
H301	H30	0.826300	0.223800	0.095200
H311	H31	0.845100	0.396000	0.937200
H321	H32	0.734800	0.488800	0.927500
H331	H33	0.661200	0.442700	0.093300
H341	H34	0.767000	0.349100	0.107800
H351	H35	0.742600	0.024400	0.109100
H361	H36	0.739500	0.100700	0.145800
H371	H37	0.112000	0.964700	0.399900
H381	H38	0.214100	0.916600	0.463600
H391	H39	0.240200	0.715900	0.355000
H401	H40	0.139900	0.772900	0.291500
H411	H41	0.295800	0.847600	0.529600
H421	H42	0.408400	0.797000	0.584000
H431	H43	0.499400	0.698800	0.542500
H441	H44	0.364200	0.704200	0.387100
H451	H45	0.618300	0.457500	0.290500
H461	H46	0.728000	0.438600	0.221100
H471	H47	0.831700	0.539400	0.211500
H481	H48	0.723800	0.673700	0.345200
H491	H49	0.896000	0.654900	0.187200
H501	H50	0.988800	0.765200	0.177500
H511	H51	0.942700	0.838800	0.343300
H521	H52	0.849100	0.733000	0.357800
H531	H53	0.524400	0.757400	0.359100
H541	H54	0.600700	0.760500	0.395800
H551	H55	0.888000	0.035300	0.899900
H561	H56	0.785900	0.083400	0.963600
H571	H57	0.759800	0.284100	0.855000
H581	H58	0.860100	0.227100	0.791500
H591	H59	0.704200	0.152400	0.029600
H601	H60	0.591600	0.203000	0.084000
H611	H61	0.500600	0.301200	0.042500
H621	H62	0.635800	0.295800	0.887100
H631	H63	0.381700	0.542500	0.790500
H641	H64	0.272000	0.561400	0.721100
H651	H65	0.168300	0.460600	0.711500
H661	H66	0.276200	0.326300	0.845200
H671	H67	0.104000	0.345100	0.687200
H681	H68	0.011200	0.234800	0.677500
H691	H69	0.057300	0.161200	0.843300
H701	H70	0.150900	0.267000	0.857800
H711	H71	0.475600	0.242600	0.859100
H721	H72	0.399300	0.239500	0.895800
H731	H73	0.035300	0.888000	0.100100
H741	H74	0.083400	0.785900	0.036400
H751	H75	0.284100	0.759800	0.145000
H761	H76	0.227100	0.860100	0.208500
H771	H77	0.152400	0.704200	0.970400
H781	H78	0.203000	0.591600	0.916000
H791	H79	0.301200	0.500600	0.957500
H801	H80	0.295800	0.635800	0.112900
H811	H81	0.542500	0.381700	0.209500
H821	H82	0.561400	0.272000	0.278900
H831	H83	0.460600	0.168300	0.288500
H841	H84	0.326300	0.276200	0.154800
H851	H85	0.345100	0.104000	0.312800
H861	H86	0.234800	0.011200	0.322500
H871	H87	0.161200	0.057300	0.156700
H881	H88	0.267000	0.150900	0.142200
H891	H89	0.242600	0.475600	0.140900
H901	H90	0.239500	0.399300	0.104200
H911	H91	0.964700	0.112000	0.600100
H921	H92	0.916600	0.214100	0.536400
H931	H93	0.715900	0.240200	0.645000
H941	H94	0.772900	0.139900	0.708500
H951	H95	0.847600	0.295800	0.470400
H961	H96	0.797000	0.408400	0.416000
H971	H97	0.698800	0.499400	0.457500
H981	H98	0.704200	0.364200	0.612900
H991	H99	0.457500	0.618300	0.709500
H1001	H100	0.438600	0.728000	0.778900
H1011	H101	0.539400	0.831700	0.788500
H1021	H102	0.673700	0.723800	0.654800
H1031	H103	0.654900	0.896000	0.812800
H1041	H104	0.765200	0.988800	0.822500
H1051	H105	0.838800	0.942700	0.656700
H1061	H106	0.733000	0.849100	0.642200
H1071	H107	0.757400	0.524400	0.640900
H1081	H108	0.760500	0.600700	0.604200
H1091	H109	0.388000	0.464700	0.350100
H1101	H110	0.285900	0.416600	0.286400
H1111	H111	0.259800	0.215900	0.395000
H1121	H112	0.360100	0.272900	0.458500
H1131	H113	0.204200	0.347600	0.220400
H1141	H114	0.091600	0.297000	0.166000
H1151	H115	0.000600	0.198800	0.207500
H1161	H116	0.135800	0.204200	0.362900
H1171	H117	0.881700	0.957500	0.459500
H1181	H118	0.772000	0.938600	0.528900
H1191	H119	0.668300	0.039400	0.538500
H1201	H120	0.776200	0.173700	0.404800
H1211	H121	0.604000	0.154900	0.562800
H1221	H122	0.511200	0.265200	0.572500
H1231	H123	0.557300	0.338800	0.406700
H1241	H124	0.650900	0.233000	0.392200
H1251	H125	0.975600	0.257400	0.390900
H1261	H126	0.899300	0.260500	0.354200
H1271	H127	0.612000	0.535300	0.850100
H1281	H128	0.714100	0.583400	0.786400
H1291	H129	0.740200	0.784100	0.895000
H1301	H130	0.639900	0.727100	0.958500
H1311	H131	0.795800	0.652400	0.720400
H1321	H132	0.908400	0.703000	0.666000
H1331	H133	0.999400	0.801200	0.707500
H1341	H134	0.864200	0.795800	0.862900
H1351	H135	0.118300	0.042500	0.959500
H1361	H136	0.228000	0.061400	0.028900
H1371	H137	0.331700	0.960600	0.038500
H1381	H138	0.223800	0.826300	0.904800
H1391	H139	0.396000	0.845100	0.062800
H1401	H140	0.488800	0.734800	0.072500
H1411	H141	0.442700	0.661200	0.906700
H1421	H142	0.349100	0.767000	0.892200
H1431	H143	0.024400	0.742600	0.890900
H1441	H144	0.100700	0.739500	0.854200
C11	C1	0.415500	0.359300	0.639400
C21	C2	0.386600	0.298300	0.678200
C31	C3	0.312500	0.254300	0.665000
C41	C4	0.268800	0.282400	0.613900
C51	C5	0.302800	0.343700	0.576100
C61	C6	0.281300	0.182200	0.702300
C71	C7	0.308400	0.167900	0.761800
C81	C8	0.277700	0.100700	0.794300
C91	C9	0.218900	0.046000	0.769800
C101	C10	0.190000	0.060100	0.710100
C111	C11	0.222300	0.127200	0.677100
C121	C12	0.127500	0.004100	0.680500
C131	C13	0.076800	0.909000	0.618300
C141	C14	0.068900	0.839400	0.574400
C151	C15	0.997400	0.838900	0.537400
C161	C16	0.986500	0.773300	0.495700
C171	C17	0.046000	0.710700	0.490600
C181	C18	0.115700	0.710500	0.528600
C191	C19	0.126400	0.775800	0.570000
C201	C20	0.182300	0.642500	0.522600
C211	C21	0.192500	0.596800	0.469500
C221	C22	0.258900	0.540000	0.464300
C231	C23	0.301700	0.567200	0.561100
C241	C24	0.238600	0.624200	0.570100
C251	C25	0.584500	0.640700	0.139400
C261	C26	0.613400	0.701700	0.178200
C271	C27	0.687500	0.745700	0.165000
C281	C28	0.731200	0.717600	0.113900
C291	C29	0.697200	0.656300	0.076100
C301	C30	0.718700	0.817800	0.202300
C311	C31	0.691600	0.832100	0.261800
C321	C32	0.722300	0.899300	0.294300
C331	C33	0.781100	0.954000	0.269800
C341	C34	0.810000	0.939900	0.210100
C351	C35	0.777700	0.872800	0.177100
C361	C36	0.872500	0.995900	0.180500
C371	C37	0.923200	0.091000	0.118300
C381	C38	0.931100	0.160600	0.074400
C391	C39	0.002600	0.161100	0.037400
C401	C40	0.013500	0.226700	0.995700
C411	C41	0.954000	0.289300	0.990600
C421	C42	0.884300	0.289500	0.028600
C431	C43	0.873600	0.224200	0.070000
C441	C44	0.817700	0.357500	0.022600
C451	C45	0.807500	0.403200	0.969500
C461	C46	0.741100	0.460000	0.964300
C471	C47	0.698300	0.432800	0.061100
C481	C48	0.761400	0.375800	0.070100
C491	C49	0.140700	0.915500	0.389400
C501	C50	0.201700	0.886600	0.428200
C511	C51	0.245700	0.812500	0.415000
C521	C52	0.217600	0.768800	0.363900
C531	C53	0.156300	0.802800	0.326100
C541	C54	0.317800	0.781300	0.452300
C551	C55	0.332100	0.808400	0.511800
C561	C56	0.399300	0.777700	0.544300
C571	C57	0.454000	0.718900	0.519800
C581	C58	0.439900	0.690000	0.460100
C591	C59	0.372800	0.722300	0.427100
C601	C60	0.495900	0.627500	0.430500
C611	C61	0.591000	0.576800	0.368300
C621	C62	0.660600	0.568900	0.324400
C631	C63	0.661100	0.497400	0.287400
C641	C64	0.726700	0.486500	0.245700
C651	C65	0.789300	0.546000	0.240600
C661	C66	0.789500	0.615700	0.278600
C671	C67	0.724200	0.626400	0.320000
C681	C68	0.857500	0.682300	0.272600
C691	C69	0.903200	0.692500	0.219500
C701	C70	0.960000	0.758900	0.214300
C711	C71	0.932800	0.801700	0.311100
C721	C72	0.875800	0.738600	0.320100
C731	C73	0.859300	0.084500	0.889400
C741	C74	0.798300	0.113400	0.928200
C751	C75	0.754300	0.187500	0.915000
C761	C76	0.782400	0.231200	0.863900
C771	C77	0.843700	0.197200	0.826100
C781	C78	0.682200	0.218700	0.952300
C791	C79	0.667900	0.191600	0.011800
C801	C80	0.600700	0.222300	0.044300
C811	C81	0.546000	0.281100	0.019800
C821	C82	0.560100	0.310000	0.960100
C831	C83	0.627200	0.277700	0.927100
C841	C84	0.504100	0.372500	0.930500
C851	C85	0.409000	0.423200	0.868300
C861	C86	0.339400	0.431100	0.824400
C871	C87	0.338900	0.502600	0.787400
C881	C88	0.273300	0.513500	0.745700
C891	C89	0.210700	0.454000	0.740600
C901	C90	0.210500	0.384300	0.778600
C911	C91	0.275800	0.373600	0.820000
C921	C92	0.142500	0.317700	0.772600
C931	C93	0.096800	0.307500	0.719500
C941	C94	0.040000	0.241100	0.714300
C951	C95	0.067200	0.198300	0.811100
C961	C96	0.124200	0.261400	0.820100
C971	C97	0.084500	0.859300	0.110600
C981	C98	0.113400	0.798300	0.071800
C991	C99	0.187500	0.754300	0.085000
C1001	C100	0.231200	0.782400	0.136100
C1011	C101	0.197200	0.843700	0.173900
C1021	C102	0.218700	0.682200	0.047700
C1031	C103	0.191600	0.667900	0.988200
C1041	C104	0.222300	0.600700	0.955700
C1051	C105	0.281100	0.546000	0.980200
C1061	C106	0.310000	0.560100	0.039900
C1071	C107	0.277700	0.627200	0.072900
C1081	C108	0.372500	0.504100	0.069500
C1091	C109	0.423200	0.409000	0.131700
C1101	C110	0.431100	0.339400	0.175600
C1111	C111	0.502600	0.338900	0.212600
C1121	C112	0.513500	0.273300	0.254300
C1131	C113	0.454000	0.210700	0.259400
C1141	C114	0.384300	0.210500	0.221400
C1151	C115	0.373600	0.275800	0.180000
C1161	C116	0.317700	0.142500	0.227400
C1171	C117	0.307500	0.096800	0.280500
C1181	C118	0.241100	0.040000	0.285700
C1191	C119	0.198300	0.067200	0.188900
C1201	C120	0.261400	0.124200	0.179900
C1211	C121	0.915500	0.140700	0.610600
C1221	C122	0.886600	0.201700	0.571800
C1231	C123	0.812500	0.245700	0.585000
C1241	C124	0.768800	0.217600	0.636100
C1251	C125	0.802800	0.156300	0.673900
C1261	C126	0.781300	0.317800	0.547700
C1271	C127	0.808400	0.332100	0.488200
C1281	C128	0.777700	0.399300	0.455700
C1291	C129	0.718900	0.454000	0.480200
C1301	C130	0.690000	0.439900	0.539900
C1311	C131	0.722300	0.372800	0.572900
C1321	C132	0.627500	0.495900	0.569500
C1331	C133	0.576800	0.591000	0.631700
C1341	C134	0.568900	0.660600	0.675600
C1351	C135	0.497400	0.661100	0.712600
C1361	C136	0.486500	0.726700	0.754300
C1371	C137	0.546000	0.789300	0.759400
C1381	C138	0.615700	0.789500	0.721400
C1391	C139	0.626400	0.724200	0.680000
C1401	C140	0.682300	0.857500	0.727400
C1411	C141	0.692500	0.903200	0.780500
C1421	C142	0.758900	0.960000	0.785700
C1431	C143	0.801700	0.932800	0.688900
C1441	C144	0.738600	0.875800	0.679900
C1451	C145	0.359300	0.415500	0.360600
C1461	C146	0.298300	0.386600	0.321800
C1471	C147	0.254300	0.312500	0.335000
C1481	C148	0.282400	0.268800	0.386100
C1491	C149	0.343700	0.302800	0.423900
C1501	C150	0.182200	0.281300	0.297700
C1511	C151	0.167900	0.308400	0.238200
C1521	C152	0.100700	0.277700	0.205700
C1531	C153	0.046000	0.218900	0.230200
C1541	C154	0.060100	0.190000	0.289900
C1551	C155	0.127200	0.222300	0.322900
C1561	C156	0.004100	0.127500	0.319500
C1571	C157	0.909000	0.076800	0.381700
C1581	C158	0.839400	0.068900	0.425600
C1591	C159	0.838900	0.997400	0.462600
C1601	C160	0.773300	0.986500	0.504300
C1611	C161	0.710700	0.046000	0.509400
C1621	C162	0.710500	0.115700	0.471400
C1631	C163	0.775800	0.126400	0.430000
C1641	C164	0.642500	0.182300	0.477400
C1651	C165	0.596800	0.192500	0.530500
C1661	C166	0.540000	0.258900	0.535700
C1671	C167	0.567200	0.301700	0.438900
C1681	C168	0.624200	0.238600	0.429900
C1691	C169	0.640700	0.584500	0.860600
C1701	C170	0.701700	0.613400	0.821800
C1711	C171	0.745700	0.687500	0.835000
C1721	C172	0.717600	0.731200	0.886100
C1731	C173	0.656300	0.697200	0.923900
C1741	C174	0.817800	0.718700	0.797700
C1751	C175	0.832100	0.691600	0.738200
C1761	C176	0.899300	0.722300	0.705700
C1771	C177	0.954000	0.781100	0.730200
C1781	C178	0.939900	0.810000	0.789900
C1791	C179	0.872800	0.777700	0.822900
C1801	C180	0.995900	0.872500	0.819500
C1811	C181	0.091000	0.923200	0.881700
C1821	C182	0.160600	0.931100	0.925600
C1831	C183	0.161100	0.002600	0.962600
C1841	C184	0.226700	0.013500	0.004300
C1851	C185	0.289300	0.954000	0.009400
C1861	C186	0.289500	0.884300	0.971400
C1871	C187	0.224200	0.873600	0.930000
C1881	C188	0.357500	0.817700	0.977400
C1891	C189	0.403200	0.807500	0.030500
C1901	C190	0.460000	0.741100	0.035700
C1911	C191	0.432800	0.698300	0.938900
C1921	C192	0.375800	0.761400	0.929900
N11	N1	0.377400	0.380100	0.587500
N21	N2	0.046000	0.006100	0.685000
N31	N3	0.013300	0.945100	0.645600
N41	N4	0.150100	0.944200	0.639190
N51	N5	0.231600	0.927000	0.617400
N61	N6	0.313900	0.524200	0.508700
N71	N7	0.622600	0.619900	0.087500
N81	N8	0.954000	0.993900	0.185000
N91	N9	0.986700	0.054900	0.145600
N101	N10	0.849900	0.055800	0.139190
N111	N11	0.768400	0.073000	0.117400
N121	N12	0.686100	0.475800	0.008700
N131	N13	0.119900	0.877400	0.337500
N141	N14	0.493900	0.546000	0.435000
N151	N15	0.554900	0.513300	0.395600
N161	N16	0.555800	0.650100	0.389190
N171	N17	0.573000	0.731600	0.367400
N181	N18	0.975800	0.813900	0.258700
N191	N19	0.880100	0.122600	0.837500
N201	N20	0.506100	0.454000	0.935000
N211	N21	0.445100	0.486700	0.895600
N221	N22	0.444200	0.349900	0.889190
N231	N23	0.427000	0.268400	0.867400
N241	N24	0.024200	0.186100	0.758700
N251	N25	0.122600	0.880100	0.162500
N261	N26	0.454000	0.506100	0.065000
N271	N27	0.486700	0.445100	0.104400
N281	N28	0.349900	0.444200	0.110810
N291	N29	0.268400	0.427000	0.132600
N301	N30	0.186100	0.024200	0.241300
N311	N31	0.877400	0.119900	0.662500
N321	N32	0.546000	0.493900	0.565000
N331	N33	0.513300	0.554900	0.604400
N341	N34	0.650100	0.555800	0.610810
N351	N35	0.731600	0.573000	0.632600
N361	N36	0.813900	0.975800	0.741300
N371	N37	0.380100	0.377400	0.412500
N381	N38	0.006100	0.046000	0.315000
N391	N39	0.945100	0.013300	0.354400
N401	N40	0.944200	0.150100	0.360810
N411	N41	0.927000	0.231600	0.382600
N421	N42	0.524200	0.313900	0.491300
N431	N43	0.619900	0.622600	0.912500
N441	N44	0.993900	0.954000	0.815000
N451	N45	0.054900	0.986700	0.854400
N461	N46	0.055800	0.849900	0.860810
N471	N47	0.073000	0.768400	0.882600
N481	N48	0.475800	0.686100	0.991300
Cl11	Cl1	0.879060	0.879060	0.000000
O11	O1	0.822700	0.886000	0.956300
O21	O2	0.944700	0.864400	0.967800
O31	O3	0.886000	0.822700	0.043700
O41	O4	0.864400	0.944700	0.032200
Cl21	Cl2	0.268810	0.268810	0.000000
O51	O5	0.233100	0.237200	0.950100
O61	O6	0.211800	0.332500	0.002000
O71	O7	0.237200	0.233100	0.049900
O81	O8	0.332500	0.211800	0.998000
Cl31	Cl3	0.120940	0.120940	0.500000
O91	O9	0.177300	0.114000	0.456300
O101	O10	0.055300	0.135600	0.467800
O111	O11	0.114000	0.177300	0.543700
O121	O12	0.135600	0.055300	0.532200
Cl41	Cl4	0.731190	0.731190	0.500000
O131	O13	0.766900	0.762800	0.450100
O141	O14	0.788200	0.667500	0.502000
O151	O15	0.762800	0.766900	0.549900
O161	O16	0.667500	0.788200	0.498000
Cl51	Cl5	0.620940	0.379060	0.750000
O171	O17	0.614000	0.322700	0.706300
O181	O18	0.635600	0.444700	0.717800
O191	O19	0.677300	0.386000	0.793700
O201	O20	0.555300	0.364400	0.782200
Cl61	Cl6	0.231190	0.768810	0.750000
O211	O21	0.262800	0.733100	0.700100
O221	O22	0.167500	0.711800	0.752000
O231	O23	0.266900	0.737200	0.799900
O241	O24	0.288200	0.832500	0.748000
Cl71	Cl7	0.379060	0.620940	0.250000
O251	O25	0.386000	0.677300	0.206300
O261	O26	0.364400	0.555300	0.217800
O271	O27	0.322700	0.614000	0.293700
O281	O28	0.444700	0.635600	0.282200
Cl81	Cl8	0.768810	0.231190	0.250000
O291	O29	0.737200	0.266900	0.200100
O301	O30	0.832500	0.288200	0.252000
O311	O31	0.733100	0.262800	0.299900
O321	O32	0.711800	0.167500	0.248000
