data_OKIVIO01_charged_PM
_symmetry_space_group_name_H-M	'P1'
_cell_length_a	15.844000
_cell_length_b	15.844000
_cell_length_c	21.837000
_cell_angle_alpha	90.000000
_cell_angle_beta	90.000000
_cell_angle_gamma	90.000000
_symmetry_Int_Tables_number 1

loop_
_symmetry_equiv_pos_as_xyz
'x,y,z'

loop_
_atom_site_label
_atom_site_type_symbol
_atom_site_fract_x
_atom_site_fract_y
_atom_site_fract_z
Cd11	Cd1	0.942280	0.057720	0.750000
Cd21	Cd2	0.057720	0.942280	0.250000
Cd31	Cd3	0.442280	0.442280	0.500000
Cd41	Cd4	0.557720	0.557720	0.000000
H11	H1	0.463900	0.388600	0.650300
H21	H2	0.416000	0.286500	0.714400
H31	H3	0.215300	0.259700	0.604400
H41	H4	0.272500	0.359200	0.541400
H51	H5	0.347500	0.203300	0.779400
H61	H6	0.295200	0.092600	0.834800
H71	H7	0.199300	0.999500	0.792500
H81	H8	0.204100	0.135500	0.637100
H91	H9	0.956900	0.880900	0.540300
H101	H10	0.938500	0.771200	0.470400
H111	H11	0.038400	0.666500	0.462100
H121	H12	0.174200	0.775900	0.594600
H131	H13	0.155200	0.604200	0.436500
H141	H14	0.266000	0.512200	0.426700
H151	H15	0.337300	0.555500	0.593700
H161	H16	0.233000	0.651700	0.607200
H171	H17	0.256800	0.974800	0.608800
H181	H18	0.259900	0.898500	0.645600
H191	H19	0.536100	0.611400	0.150300
H201	H20	0.584000	0.713500	0.214400
H211	H21	0.784700	0.740300	0.104400
H221	H22	0.727500	0.640800	0.041400
H231	H23	0.652500	0.796700	0.279400
H241	H24	0.704800	0.907400	0.334800
H251	H25	0.800700	0.000500	0.292500
H261	H26	0.795900	0.864500	0.137100
H271	H27	0.043100	0.119100	0.040300
H281	H28	0.061500	0.228800	0.970400
H291	H29	0.961600	0.333500	0.962100
H301	H30	0.825800	0.224100	0.094600
H311	H31	0.844800	0.395800	0.936500
H321	H32	0.734000	0.487800	0.926700
H331	H33	0.662700	0.444500	0.093700
H341	H34	0.767000	0.348300	0.107200
H351	H35	0.743200	0.025200	0.108800
H361	H36	0.740100	0.101500	0.145600
H371	H37	0.111400	0.963900	0.400300
H381	H38	0.213500	0.916000	0.464400
H391	H39	0.240300	0.715300	0.354400
H401	H40	0.140800	0.772500	0.291400
H411	H41	0.296700	0.847500	0.529400
H421	H42	0.407400	0.795200	0.584800
H431	H43	0.500500	0.699300	0.542500
H441	H44	0.364500	0.704100	0.387100
H451	H45	0.619100	0.456900	0.290300
H461	H46	0.728800	0.438500	0.220400
H471	H47	0.833500	0.538400	0.212100
H481	H48	0.724100	0.674200	0.344600
H491	H49	0.895800	0.655200	0.186500
H501	H50	0.987800	0.766000	0.176700
H511	H51	0.944500	0.837300	0.343700
H521	H52	0.848300	0.733000	0.357200
H531	H53	0.525200	0.756800	0.358800
H541	H54	0.601500	0.759900	0.395600
H551	H55	0.888600	0.036100	0.900300
H561	H56	0.786500	0.084000	0.964400
H571	H57	0.759700	0.284700	0.854400
H581	H58	0.859200	0.227500	0.791400
H591	H59	0.703300	0.152500	0.029400
H601	H60	0.592600	0.204800	0.084800
H611	H61	0.499500	0.300700	0.042500
H621	H62	0.635500	0.295900	0.887100
H631	H63	0.380900	0.543100	0.790300
H641	H64	0.271200	0.561500	0.720400
H651	H65	0.166500	0.461600	0.712100
H661	H66	0.275900	0.325800	0.844600
H671	H67	0.104200	0.344800	0.686500
H681	H68	0.012200	0.234000	0.676700
H691	H69	0.055500	0.162700	0.843700
H701	H70	0.151700	0.267000	0.857200
H711	H71	0.474800	0.243200	0.858800
H721	H72	0.398500	0.240100	0.895600
H731	H73	0.036100	0.888600	0.099700
H741	H74	0.084000	0.786500	0.035600
H751	H75	0.284700	0.759700	0.145600
H761	H76	0.227500	0.859200	0.208600
H771	H77	0.152500	0.703300	0.970600
H781	H78	0.204800	0.592600	0.915200
H791	H79	0.300700	0.499500	0.957500
H801	H80	0.295900	0.635500	0.112900
H811	H81	0.543100	0.380900	0.209700
H821	H82	0.561500	0.271200	0.279600
H831	H83	0.461600	0.166500	0.287900
H841	H84	0.325800	0.275900	0.155400
H851	H85	0.344800	0.104200	0.313500
H861	H86	0.234000	0.012200	0.323300
H871	H87	0.162700	0.055500	0.156300
H881	H88	0.267000	0.151700	0.142800
H891	H89	0.243200	0.474800	0.141200
H901	H90	0.240100	0.398500	0.104400
H911	H91	0.963900	0.111400	0.599700
H921	H92	0.916000	0.213500	0.535600
H931	H93	0.715300	0.240300	0.645600
H941	H94	0.772500	0.140800	0.708600
H951	H95	0.847500	0.296700	0.470600
H961	H96	0.795200	0.407400	0.415200
H971	H97	0.699300	0.500500	0.457500
H981	H98	0.704100	0.364500	0.612900
H991	H99	0.456900	0.619100	0.709700
H1001	H100	0.438500	0.728800	0.779600
H1011	H101	0.538400	0.833500	0.787900
H1021	H102	0.674200	0.724100	0.655400
H1031	H103	0.655200	0.895800	0.813500
H1041	H104	0.766000	0.987800	0.823300
H1051	H105	0.837300	0.944500	0.656300
H1061	H106	0.733000	0.848300	0.642800
H1071	H107	0.756800	0.525200	0.641200
H1081	H108	0.759900	0.601500	0.604400
H1091	H109	0.388600	0.463900	0.349700
H1101	H110	0.286500	0.416000	0.285600
H1111	H111	0.259700	0.215300	0.395600
H1121	H112	0.359200	0.272500	0.458600
H1131	H113	0.203300	0.347500	0.220600
H1141	H114	0.092600	0.295200	0.165200
H1151	H115	0.999500	0.199300	0.207500
H1161	H116	0.135500	0.204100	0.362900
H1171	H117	0.880900	0.956900	0.459700
H1181	H118	0.771200	0.938500	0.529600
H1191	H119	0.666500	0.038400	0.537900
H1201	H120	0.775900	0.174200	0.405400
H1211	H121	0.604200	0.155200	0.563500
H1221	H122	0.512200	0.266000	0.573300
H1231	H123	0.555500	0.337300	0.406300
H1241	H124	0.651700	0.233000	0.392800
H1251	H125	0.974800	0.256800	0.391200
H1261	H126	0.898500	0.259900	0.354400
H1271	H127	0.611400	0.536100	0.849700
H1281	H128	0.713500	0.584000	0.785600
H1291	H129	0.740300	0.784700	0.895600
H1301	H130	0.640800	0.727500	0.958600
H1311	H131	0.796700	0.652500	0.720600
H1321	H132	0.907400	0.704800	0.665200
H1331	H133	0.000500	0.800700	0.707500
H1341	H134	0.864500	0.795900	0.862900
H1351	H135	0.119100	0.043100	0.959700
H1361	H136	0.228800	0.061500	0.029600
H1371	H137	0.333500	0.961600	0.037900
H1381	H138	0.224100	0.825800	0.905400
H1391	H139	0.395800	0.844800	0.063500
H1401	H140	0.487800	0.734000	0.073300
H1411	H141	0.444500	0.662700	0.906300
H1421	H142	0.348300	0.767000	0.892800
H1431	H143	0.025200	0.743200	0.891200
H1441	H144	0.101500	0.740100	0.854400
C11	C1	0.415100	0.359500	0.639600
C21	C2	0.386300	0.298500	0.678700
C31	C3	0.311600	0.253700	0.665100
C41	C4	0.268100	0.282100	0.613600
C51	C5	0.302400	0.342800	0.576100
C61	C6	0.280800	0.181300	0.702700
C71	C7	0.307900	0.167300	0.761800
C81	C8	0.276900	0.100700	0.794800
C91	C9	0.218900	0.045200	0.769900
C101	C10	0.190000	0.059400	0.709900
C111	C11	0.222100	0.126700	0.677100
C121	C12	0.127500	0.003800	0.680300
C131	C13	0.076300	0.908400	0.617800
C141	C14	0.068500	0.839300	0.574000
C151	C15	0.997000	0.838300	0.537200
C161	C16	0.986100	0.772300	0.495300
C171	C17	0.045400	0.709400	0.490700
C181	C18	0.115600	0.709500	0.528700
C191	C19	0.126700	0.775100	0.569600
C201	C20	0.182300	0.642000	0.522300
C211	C21	0.192700	0.596800	0.468900
C221	C22	0.259100	0.540500	0.463700
C231	C23	0.301100	0.566500	0.561200
C241	C24	0.238300	0.624200	0.569700
C251	C25	0.584900	0.640500	0.139600
C261	C26	0.613700	0.701500	0.178700
C271	C27	0.688400	0.746300	0.165100
C281	C28	0.731900	0.717900	0.113600
C291	C29	0.697600	0.657200	0.076100
C301	C30	0.719200	0.818700	0.202700
C311	C31	0.692100	0.832700	0.261800
C321	C32	0.723100	0.899300	0.294800
C331	C33	0.781100	0.954800	0.269900
C341	C34	0.810000	0.940600	0.209900
C351	C35	0.777900	0.873300	0.177100
C361	C36	0.872500	0.996200	0.180300
C371	C37	0.923700	0.091600	0.117800
C381	C38	0.931500	0.160700	0.074000
C391	C39	0.003000	0.161700	0.037200
C401	C40	0.013900	0.227700	0.995300
C411	C41	0.954600	0.290600	0.990700
C421	C42	0.884400	0.290500	0.028700
C431	C43	0.873300	0.224900	0.069600
C441	C44	0.817700	0.358000	0.022300
C451	C45	0.807300	0.403200	0.968900
C461	C46	0.740900	0.459500	0.963700
C471	C47	0.698900	0.433500	0.061200
C481	C48	0.761700	0.375800	0.069700
C491	C49	0.140500	0.915100	0.389600
C501	C50	0.201500	0.886300	0.428700
C511	C51	0.246300	0.811600	0.415100
C521	C52	0.217900	0.768100	0.363600
C531	C53	0.157200	0.802400	0.326100
C541	C54	0.318700	0.780800	0.452700
C551	C55	0.332700	0.807900	0.511800
C561	C56	0.399300	0.776900	0.544800
C571	C57	0.454800	0.718900	0.519900
C581	C58	0.440600	0.690000	0.459900
C591	C59	0.373300	0.722100	0.427100
C601	C60	0.496200	0.627500	0.430300
C611	C61	0.591600	0.576300	0.367800
C621	C62	0.660700	0.568500	0.324000
C631	C63	0.661700	0.497000	0.287200
C641	C64	0.727700	0.486100	0.245300
C651	C65	0.790600	0.545400	0.240700
C661	C66	0.790500	0.615600	0.278700
C671	C67	0.724900	0.626700	0.319600
C681	C68	0.858000	0.682300	0.272300
C691	C69	0.903200	0.692700	0.218900
C701	C70	0.959500	0.759100	0.213700
C711	C71	0.933500	0.801100	0.311200
C721	C72	0.875800	0.738300	0.319700
C731	C73	0.859500	0.084900	0.889600
C741	C74	0.798500	0.113700	0.928700
C751	C75	0.753700	0.188400	0.915100
C761	C76	0.782100	0.231900	0.863600
C771	C77	0.842800	0.197600	0.826100
C781	C78	0.681300	0.219200	0.952700
C791	C79	0.667300	0.192100	0.011800
C801	C80	0.600700	0.223100	0.044800
C811	C81	0.545200	0.281100	0.019900
C821	C82	0.559400	0.310000	0.959900
C831	C83	0.626700	0.277900	0.927100
C841	C84	0.503800	0.372500	0.930300
C851	C85	0.408400	0.423700	0.867800
C861	C86	0.339300	0.431500	0.824000
C871	C87	0.338300	0.503000	0.787200
C881	C88	0.272300	0.513900	0.745300
C891	C89	0.209400	0.454600	0.740700
C901	C90	0.209500	0.384400	0.778700
C911	C91	0.275100	0.373300	0.819600
C921	C92	0.142000	0.317700	0.772300
C931	C93	0.096800	0.307300	0.718900
C941	C94	0.040500	0.240900	0.713700
C951	C95	0.066500	0.198900	0.811200
C961	C96	0.124200	0.261700	0.819700
C971	C97	0.084900	0.859500	0.110400
C981	C98	0.113700	0.798500	0.071300
C991	C99	0.188400	0.753700	0.084900
C1001	C100	0.231900	0.782100	0.136400
C1011	C101	0.197600	0.842800	0.173900
C1021	C102	0.219200	0.681300	0.047300
C1031	C103	0.192100	0.667300	0.988200
C1041	C104	0.223100	0.600700	0.955200
C1051	C105	0.281100	0.545200	0.980100
C1061	C106	0.310000	0.559400	0.040100
C1071	C107	0.277900	0.626700	0.072900
C1081	C108	0.372500	0.503800	0.069700
C1091	C109	0.423700	0.408400	0.132200
C1101	C110	0.431500	0.339300	0.176000
C1111	C111	0.503000	0.338300	0.212800
C1121	C112	0.513900	0.272300	0.254700
C1131	C113	0.454600	0.209400	0.259300
C1141	C114	0.384400	0.209500	0.221300
C1151	C115	0.373300	0.275100	0.180400
C1161	C116	0.317700	0.142000	0.227700
C1171	C117	0.307300	0.096800	0.281100
C1181	C118	0.240900	0.040500	0.286300
C1191	C119	0.198900	0.066500	0.188800
C1201	C120	0.261700	0.124200	0.180300
C1211	C121	0.915100	0.140500	0.610400
C1221	C122	0.886300	0.201500	0.571300
C1231	C123	0.811600	0.246300	0.584900
C1241	C124	0.768100	0.217900	0.636400
C1251	C125	0.802400	0.157200	0.673900
C1261	C126	0.780800	0.318700	0.547300
C1271	C127	0.807900	0.332700	0.488200
C1281	C128	0.776900	0.399300	0.455200
C1291	C129	0.718900	0.454800	0.480100
C1301	C130	0.690000	0.440600	0.540100
C1311	C131	0.722100	0.373300	0.572900
C1321	C132	0.627500	0.496200	0.569700
C1331	C133	0.576300	0.591600	0.632200
C1341	C134	0.568500	0.660700	0.676000
C1351	C135	0.497000	0.661700	0.712800
C1361	C136	0.486100	0.727700	0.754700
C1371	C137	0.545400	0.790600	0.759300
C1381	C138	0.615600	0.790500	0.721300
C1391	C139	0.626700	0.724900	0.680400
C1401	C140	0.682300	0.858000	0.727700
C1411	C141	0.692700	0.903200	0.781100
C1421	C142	0.759100	0.959500	0.786300
C1431	C143	0.801100	0.933500	0.688800
C1441	C144	0.738300	0.875800	0.680300
C1451	C145	0.359500	0.415100	0.360400
C1461	C146	0.298500	0.386300	0.321300
C1471	C147	0.253700	0.311600	0.334900
C1481	C148	0.282100	0.268100	0.386400
C1491	C149	0.342800	0.302400	0.423900
C1501	C150	0.181300	0.280800	0.297300
C1511	C151	0.167300	0.307900	0.238200
C1521	C152	0.100700	0.276900	0.205200
C1531	C153	0.045200	0.218900	0.230100
C1541	C154	0.059400	0.190000	0.290100
C1551	C155	0.126700	0.222100	0.322900
C1561	C156	0.003800	0.127500	0.319700
C1571	C157	0.908400	0.076300	0.382200
C1581	C158	0.839300	0.068500	0.426000
C1591	C159	0.838300	0.997000	0.462800
C1601	C160	0.772300	0.986100	0.504700
C1611	C161	0.709400	0.045400	0.509300
C1621	C162	0.709500	0.115600	0.471300
C1631	C163	0.775100	0.126700	0.430400
C1641	C164	0.642000	0.182300	0.477700
C1651	C165	0.596800	0.192700	0.531100
C1661	C166	0.540500	0.259100	0.536300
C1671	C167	0.566500	0.301100	0.438800
C1681	C168	0.624200	0.238300	0.430300
C1691	C169	0.640500	0.584900	0.860400
C1701	C170	0.701500	0.613700	0.821300
C1711	C171	0.746300	0.688400	0.834900
C1721	C172	0.717900	0.731900	0.886400
C1731	C173	0.657200	0.697600	0.923900
C1741	C174	0.818700	0.719200	0.797300
C1751	C175	0.832700	0.692100	0.738200
C1761	C176	0.899300	0.723100	0.705200
C1771	C177	0.954800	0.781100	0.730100
C1781	C178	0.940600	0.810000	0.790100
C1791	C179	0.873300	0.777900	0.822900
C1801	C180	0.996200	0.872500	0.819700
C1811	C181	0.091600	0.923700	0.882200
C1821	C182	0.160700	0.931500	0.926000
C1831	C183	0.161700	0.003000	0.962800
C1841	C184	0.227700	0.013900	0.004700
C1851	C185	0.290600	0.954600	0.009300
C1861	C186	0.290500	0.884400	0.971300
C1871	C187	0.224900	0.873300	0.930400
C1881	C188	0.358000	0.817700	0.977700
C1891	C189	0.403200	0.807300	0.031100
C1901	C190	0.459500	0.740900	0.036300
C1911	C191	0.433500	0.698900	0.938800
C1921	C192	0.375800	0.761700	0.930300
N11	N1	0.377500	0.379600	0.587400
N21	N2	0.045700	0.006000	0.684200
N31	N3	0.012800	0.944800	0.645000
N41	N4	0.149800	0.943800	0.638900
N51	N5	0.231000	0.926200	0.617100
N61	N6	0.313700	0.524500	0.508700
N71	N7	0.622500	0.620400	0.087400
N81	N8	0.954300	0.994000	0.184200
N91	N9	0.987200	0.055200	0.145000
N101	N10	0.850200	0.056200	0.138900
N111	N11	0.769000	0.073800	0.117100
N121	N12	0.686300	0.475500	0.008700
N131	N13	0.120400	0.877500	0.337400
N141	N14	0.494000	0.545700	0.434200
N151	N15	0.555200	0.512800	0.395000
N161	N16	0.556200	0.649800	0.388900
N171	N17	0.573800	0.731000	0.367100
N181	N18	0.975500	0.813700	0.258700
N191	N19	0.879600	0.122500	0.837400
N201	N20	0.506000	0.454300	0.934200
N211	N21	0.444800	0.487200	0.895000
N221	N22	0.443800	0.350200	0.888900
N231	N23	0.426200	0.269000	0.867100
N241	N24	0.024500	0.186300	0.758700
N251	N25	0.122500	0.879600	0.162600
N261	N26	0.454300	0.506000	0.065800
N271	N27	0.487200	0.444800	0.105000
N281	N28	0.350200	0.443800	0.111100
N291	N29	0.269000	0.426200	0.132900
N301	N30	0.186300	0.024500	0.241300
N311	N31	0.877500	0.120400	0.662600
N321	N32	0.545700	0.494000	0.565800
N331	N33	0.512800	0.555200	0.605000
N341	N34	0.649800	0.556200	0.611100
N351	N35	0.731000	0.573800	0.632900
N361	N36	0.813700	0.975500	0.741300
N371	N37	0.379600	0.377500	0.412600
N381	N38	0.006000	0.045700	0.315800
N391	N39	0.944800	0.012800	0.355000
N401	N40	0.943800	0.149800	0.361100
N411	N41	0.926200	0.231000	0.382900
N421	N42	0.524500	0.313700	0.491300
N431	N43	0.620400	0.622500	0.912600
N441	N44	0.994000	0.954300	0.815800
N451	N45	0.055200	0.987200	0.855000
N461	N46	0.056200	0.850200	0.861100
N471	N47	0.073800	0.769000	0.882900
N481	N48	0.475500	0.686300	0.991300
Cl11	Cl1	0.879220	0.879220	0.000000
O11	O1	0.823600	0.886100	0.956600
O21	O2	0.942500	0.862900	0.967500
O31	O3	0.886100	0.823600	0.043400
O41	O4	0.862900	0.942500	0.032500
Cl21	Cl2	0.268780	0.268780	0.000000
O51	O5	0.236900	0.234100	0.948900
O61	O6	0.211900	0.334700	0.992000
O71	O7	0.234100	0.236900	0.051100
O81	O8	0.334700	0.211900	0.008000
Cl31	Cl3	0.120780	0.120780	0.500000
O91	O9	0.176400	0.113900	0.456600
O101	O10	0.057500	0.137100	0.467500
O111	O11	0.113900	0.176400	0.543400
O121	O12	0.137100	0.057500	0.532500
Cl41	Cl4	0.731220	0.731220	0.500000
O131	O13	0.763100	0.765900	0.448900
O141	O14	0.788100	0.665300	0.492000
O151	O15	0.765900	0.763100	0.551100
O161	O16	0.665300	0.788100	0.508000
Cl51	Cl5	0.620780	0.379220	0.750000
O171	O17	0.613900	0.323600	0.706600
O181	O18	0.637100	0.442500	0.717500
O191	O19	0.676400	0.386100	0.793400
O201	O20	0.557500	0.362900	0.782500
Cl61	Cl6	0.231220	0.768780	0.750000
O211	O21	0.265900	0.736900	0.698900
O221	O22	0.165300	0.711900	0.742000
O231	O23	0.263100	0.734100	0.801100
O241	O24	0.288100	0.834700	0.758000
Cl71	Cl7	0.379220	0.620780	0.250000
O251	O25	0.386100	0.676400	0.206600
O261	O26	0.362900	0.557500	0.217500
O271	O27	0.323600	0.613900	0.293400
O281	O28	0.442500	0.637100	0.282500
Cl81	Cl8	0.768780	0.231220	0.250000
O291	O29	0.734100	0.263100	0.198900
O301	O30	0.834700	0.288100	0.242000
O311	O31	0.736900	0.265900	0.301100
O321	O32	0.711900	0.165300	0.258000
