data_OKIVAG01_charged_PM
_symmetry_space_group_name_H-M	'P1'
_cell_length_a	15.892600
_cell_length_b	15.892600
_cell_length_c	21.972000
_cell_angle_alpha	90.000000
_cell_angle_beta	90.000000
_cell_angle_gamma	90.000000
_symmetry_Int_Tables_number 1

loop_
_symmetry_equiv_pos_as_xyz
'x,y,z'

loop_
_atom_site_label
_atom_site_type_symbol
_atom_site_fract_x
_atom_site_fract_y
_atom_site_fract_z
Cd11	Cd1	0.943700	0.056300	0.250000
Cd21	Cd2	0.056300	0.943700	0.750000
Cd31	Cd3	0.443700	0.443700	0.500000
Cd41	Cd4	0.556300	0.556300	0.000000
H11	H1	0.464400	0.390500	0.351000
H21	H2	0.418100	0.284900	0.287300
H31	H3	0.217800	0.257200	0.397000
H41	H4	0.275200	0.356100	0.461100
H51	H5	0.348900	0.204500	0.221900
H61	H6	0.295900	0.093500	0.165800
H71	H7	0.198800	0.000200	0.208400
H81	H8	0.205500	0.133200	0.365200
H91	H9	0.956300	0.880500	0.457900
H101	H10	0.939700	0.770400	0.528300
H111	H11	0.038000	0.666200	0.537000
H121	H12	0.176500	0.776600	0.403800
H131	H13	0.233000	0.651300	0.391100
H141	H14	0.339000	0.554800	0.404300
H151	H15	0.266100	0.512300	0.571800
H161	H16	0.157300	0.607800	0.561800
H171	H17	0.260600	0.974700	0.389100
H181	H18	0.259400	0.893300	0.356000
H191	H19	0.535600	0.609500	0.851000
H201	H20	0.581900	0.715100	0.787300
H211	H21	0.782200	0.742800	0.897000
H221	H22	0.724800	0.643900	0.961100
H231	H23	0.651100	0.795500	0.721900
H241	H24	0.704100	0.906500	0.665800
H251	H25	0.801200	0.999800	0.708400
H261	H26	0.794500	0.866800	0.865200
H271	H27	0.043700	0.119500	0.957900
H281	H28	0.060300	0.229600	0.028300
H291	H29	0.962000	0.333800	0.037000
H301	H30	0.823500	0.223400	0.903800
H311	H31	0.767000	0.348700	0.891100
H321	H32	0.661000	0.445200	0.904300
H331	H33	0.733900	0.487700	0.071800
H341	H34	0.842700	0.392200	0.061800
H351	H35	0.739400	0.025300	0.889100
H361	H36	0.740600	0.106700	0.856000
H371	H37	0.109500	0.964400	0.601000
H381	H38	0.215100	0.918100	0.537300
H391	H39	0.242800	0.717800	0.647000
H401	H40	0.143900	0.775200	0.711100
H411	H41	0.295500	0.848900	0.471900
H421	H42	0.406500	0.795900	0.415800
H431	H43	0.499800	0.698800	0.458400
H441	H44	0.366800	0.705500	0.615200
H451	H45	0.619500	0.456300	0.707900
H461	H46	0.729600	0.439700	0.778300
H471	H47	0.833800	0.538000	0.787000
H481	H48	0.723400	0.676500	0.653800
H491	H49	0.848700	0.733000	0.641100
H501	H50	0.945200	0.839000	0.654300
H511	H51	0.987700	0.766100	0.821800
H521	H52	0.892200	0.657300	0.811800
H531	H53	0.525300	0.760600	0.639100
H541	H54	0.606700	0.759400	0.606000
H551	H55	0.890500	0.035600	0.101000
H561	H56	0.784900	0.081900	0.037300
H571	H57	0.757200	0.282200	0.147000
H581	H58	0.856100	0.224800	0.211100
H591	H59	0.704500	0.151100	0.971900
H601	H60	0.593500	0.204100	0.915800
H611	H61	0.500200	0.301200	0.958400
H621	H62	0.633200	0.294500	0.115200
H631	H63	0.380500	0.543700	0.207900
H641	H64	0.270400	0.560300	0.278300
H651	H65	0.166200	0.462000	0.287000
H661	H66	0.276600	0.323500	0.153800
H671	H67	0.151300	0.267000	0.141100
H681	H68	0.054800	0.161000	0.154300
H691	H69	0.012300	0.233900	0.321800
H701	H70	0.107800	0.342700	0.311800
H711	H71	0.474700	0.239400	0.139100
H721	H72	0.393300	0.240600	0.106000
H731	H73	0.035600	0.890500	0.899000
H741	H74	0.081900	0.784900	0.962700
H751	H75	0.282200	0.757200	0.853000
H761	H76	0.224800	0.856100	0.788900
H771	H77	0.151100	0.704500	0.028100
H781	H78	0.204100	0.593500	0.084200
H791	H79	0.301200	0.500200	0.041600
H801	H80	0.294500	0.633200	0.884800
H811	H81	0.543700	0.380500	0.792100
H821	H82	0.560300	0.270400	0.721700
H831	H83	0.462000	0.166200	0.713000
H841	H84	0.323500	0.276600	0.846200
H851	H85	0.267000	0.151300	0.858900
H861	H86	0.161000	0.054800	0.845700
H871	H87	0.233900	0.012300	0.678200
H881	H88	0.342700	0.107800	0.688200
H891	H89	0.239400	0.474700	0.860900
H901	H90	0.240600	0.393300	0.894000
H911	H91	0.964400	0.109500	0.399000
H921	H92	0.918100	0.215100	0.462700
H931	H93	0.717800	0.242800	0.353000
H941	H94	0.775200	0.143900	0.288900
H951	H95	0.848900	0.295500	0.528100
H961	H96	0.795900	0.406500	0.584200
H971	H97	0.698800	0.499800	0.541600
H981	H98	0.705500	0.366800	0.384800
H991	H99	0.456300	0.619500	0.292100
H1001	H100	0.439700	0.729600	0.221700
H1011	H101	0.538000	0.833800	0.213000
H1021	H102	0.676500	0.723400	0.346200
H1031	H103	0.733000	0.848700	0.358900
H1041	H104	0.839000	0.945200	0.345700
H1051	H105	0.766100	0.987700	0.178200
H1061	H106	0.657300	0.892200	0.188200
H1071	H107	0.760600	0.525300	0.360900
H1081	H108	0.759400	0.606700	0.394000
H1091	H109	0.390500	0.464400	0.649000
H1101	H110	0.284900	0.418100	0.712700
H1111	H111	0.257200	0.217800	0.603000
H1121	H112	0.356100	0.275200	0.538900
H1131	H113	0.204500	0.348900	0.778100
H1141	H114	0.093500	0.295900	0.834200
H1151	H115	0.000200	0.198800	0.791600
H1161	H116	0.133200	0.205500	0.634800
H1171	H117	0.880500	0.956300	0.542100
H1181	H118	0.770400	0.939700	0.471700
H1191	H119	0.666200	0.038000	0.463000
H1201	H120	0.776600	0.176500	0.596200
H1211	H121	0.651300	0.233000	0.608900
H1221	H122	0.554800	0.339000	0.595700
H1231	H123	0.512300	0.266100	0.428200
H1241	H124	0.607800	0.157300	0.438200
H1251	H125	0.974700	0.260600	0.610900
H1261	H126	0.893300	0.259400	0.644000
H1271	H127	0.609500	0.535600	0.149000
H1281	H128	0.715100	0.581900	0.212700
H1291	H129	0.742800	0.782200	0.103000
H1301	H130	0.643900	0.724800	0.038900
H1311	H131	0.795500	0.651100	0.278100
H1321	H132	0.906500	0.704100	0.334200
H1331	H133	0.999800	0.801200	0.291600
H1341	H134	0.866800	0.794500	0.134800
H1351	H135	0.119500	0.043700	0.042100
H1361	H136	0.229600	0.060300	0.971700
H1371	H137	0.333800	0.962000	0.963000
H1381	H138	0.223400	0.823500	0.096200
H1391	H139	0.348700	0.767000	0.108900
H1401	H140	0.445200	0.661000	0.095700
H1411	H141	0.487700	0.733900	0.928200
H1421	H142	0.392200	0.842700	0.938200
H1431	H143	0.025300	0.739400	0.110900
H1441	H144	0.106700	0.740600	0.144000
C11	C1	0.415400	0.360100	0.362200
C21	C2	0.387300	0.297400	0.323200
C31	C3	0.313500	0.252500	0.336500
C41	C4	0.271300	0.280400	0.387600
C51	C5	0.305000	0.341000	0.425200
C61	C6	0.283200	0.181300	0.299300
C71	C7	0.308900	0.167600	0.239900
C81	C8	0.277500	0.101500	0.206500
C91	C9	0.219400	0.046500	0.231400
C101	C10	0.191500	0.060200	0.291400
C111	C11	0.223600	0.125300	0.324400
C121	C12	0.128400	0.004100	0.320500
C131	C13	0.077400	0.908700	0.381200
C141	C14	0.068600	0.840200	0.425300
C151	C15	0.997900	0.837900	0.461200
C161	C16	0.988200	0.771700	0.503000
C171	C17	0.045900	0.710000	0.508100
C181	C18	0.118600	0.710000	0.470400
C191	C19	0.128500	0.775400	0.429500
C201	C20	0.183500	0.642900	0.476700
C211	C21	0.239100	0.624100	0.429300
C221	C22	0.302500	0.566500	0.437500
C231	C23	0.260200	0.541800	0.534400
C241	C24	0.194700	0.599200	0.528700
C251	C25	0.584600	0.639900	0.862200
C261	C26	0.612700	0.702600	0.823200
C271	C27	0.686500	0.747500	0.836500
C281	C28	0.728700	0.719600	0.887600
C291	C29	0.695000	0.659000	0.925200
C301	C30	0.716800	0.818700	0.799300
C311	C31	0.691100	0.832400	0.739900
C321	C32	0.722500	0.898500	0.706500
C331	C33	0.780600	0.953500	0.731400
C341	C34	0.808500	0.939800	0.791400
C351	C35	0.776400	0.874700	0.824400
C361	C36	0.871600	0.995900	0.820500
C371	C37	0.922600	0.091300	0.881200
C381	C38	0.931400	0.159800	0.925300
C391	C39	0.002100	0.162100	0.961200
C401	C40	0.011800	0.228300	0.003000
C411	C41	0.954100	0.290000	0.008100
C421	C42	0.881400	0.290000	0.970400
C431	C43	0.871500	0.224600	0.929500
C441	C44	0.816500	0.357100	0.976700
C451	C45	0.760900	0.375900	0.929300
C461	C46	0.697500	0.433500	0.937500
C471	C47	0.739800	0.458200	0.034400
C481	C48	0.805300	0.400800	0.028700
C491	C49	0.139900	0.915400	0.612200
C501	C50	0.202600	0.887300	0.573200
C511	C51	0.247500	0.813500	0.586500
C521	C52	0.219600	0.771300	0.637600
C531	C53	0.159000	0.805000	0.675200
C541	C54	0.318700	0.783200	0.549300
C551	C55	0.332400	0.808900	0.489900
C561	C56	0.398500	0.777500	0.456500
C571	C57	0.453500	0.719400	0.481400
C581	C58	0.439800	0.691500	0.541400
C591	C59	0.374700	0.723600	0.574400
C601	C60	0.495900	0.628400	0.570500
C611	C61	0.591300	0.577400	0.631200
C621	C62	0.659800	0.568600	0.675300
C631	C63	0.662100	0.497900	0.711200
C641	C64	0.728300	0.488200	0.753000
C651	C65	0.790000	0.545900	0.758100
C661	C66	0.790000	0.618600	0.720400
C671	C67	0.724600	0.628500	0.679500
C681	C68	0.857100	0.683500	0.726700
C691	C69	0.875900	0.739100	0.679300
C701	C70	0.933500	0.802500	0.687500
C711	C71	0.958200	0.760200	0.784400
C721	C72	0.900800	0.694700	0.778700
C731	C73	0.860100	0.084600	0.112200
C741	C74	0.797400	0.112700	0.073200
C751	C75	0.752500	0.186500	0.086500
C761	C76	0.780400	0.228700	0.137600
C771	C77	0.841000	0.195000	0.175200
C781	C78	0.681300	0.216800	0.049300
C791	C79	0.667600	0.191100	0.989900
C801	C80	0.601500	0.222500	0.956500
C811	C81	0.546500	0.280600	0.981400
C821	C82	0.560200	0.308500	0.041400
C831	C83	0.625300	0.276400	0.074400
C841	C84	0.504100	0.371600	0.070500
C851	C85	0.408700	0.422600	0.131200
C861	C86	0.340200	0.431400	0.175300
C871	C87	0.337900	0.502100	0.211200
C881	C88	0.271700	0.511800	0.253000
C891	C89	0.210000	0.454100	0.258100
C901	C90	0.210000	0.381400	0.220400
C911	C91	0.275400	0.371500	0.179500
C921	C92	0.142900	0.316500	0.226700
C931	C93	0.124100	0.260900	0.179300
C941	C94	0.066500	0.197500	0.187500
C951	C95	0.041800	0.239800	0.284400
C961	C96	0.099200	0.305300	0.278700
C971	C97	0.084600	0.860100	0.887800
C981	C98	0.112700	0.797400	0.926800
C991	C99	0.186500	0.752500	0.913500
C1001	C100	0.228700	0.780400	0.862400
C1011	C101	0.195000	0.841000	0.824800
C1021	C102	0.216800	0.681300	0.950700
C1031	C103	0.191100	0.667600	0.010100
C1041	C104	0.222500	0.601500	0.043500
C1051	C105	0.280600	0.546500	0.018600
C1061	C106	0.308500	0.560200	0.958600
C1071	C107	0.276400	0.625300	0.925600
C1081	C108	0.371600	0.504100	0.929500
C1091	C109	0.422600	0.408700	0.868800
C1101	C110	0.431400	0.340200	0.824700
C1111	C111	0.502100	0.337900	0.788800
C1121	C112	0.511800	0.271700	0.747000
C1131	C113	0.454100	0.210000	0.741900
C1141	C114	0.381400	0.210000	0.779600
C1151	C115	0.371500	0.275400	0.820500
C1161	C116	0.316500	0.142900	0.773300
C1171	C117	0.260900	0.124100	0.820700
C1181	C118	0.197500	0.066500	0.812500
C1191	C119	0.239800	0.041800	0.715600
C1201	C120	0.305300	0.099200	0.721300
C1211	C121	0.915400	0.139900	0.387800
C1221	C122	0.887300	0.202600	0.426800
C1231	C123	0.813500	0.247500	0.413500
C1241	C124	0.771300	0.219600	0.362400
C1251	C125	0.805000	0.159000	0.324800
C1261	C126	0.783200	0.318700	0.450700
C1271	C127	0.808900	0.332400	0.510100
C1281	C128	0.777500	0.398500	0.543500
C1291	C129	0.719400	0.453500	0.518600
C1301	C130	0.691500	0.439800	0.458600
C1311	C131	0.723600	0.374700	0.425600
C1321	C132	0.628400	0.495900	0.429500
C1331	C133	0.577400	0.591300	0.368800
C1341	C134	0.568600	0.659800	0.324700
C1351	C135	0.497900	0.662100	0.288800
C1361	C136	0.488200	0.728300	0.247000
C1371	C137	0.545900	0.790000	0.241900
C1381	C138	0.618600	0.790000	0.279600
C1391	C139	0.628500	0.724600	0.320500
C1401	C140	0.683500	0.857100	0.273300
C1411	C141	0.739100	0.875900	0.320700
C1421	C142	0.802500	0.933500	0.312500
C1431	C143	0.760200	0.958200	0.215600
C1441	C144	0.694700	0.900800	0.221300
C1451	C145	0.360100	0.415400	0.637800
C1461	C146	0.297400	0.387300	0.676800
C1471	C147	0.252500	0.313500	0.663500
C1481	C148	0.280400	0.271300	0.612400
C1491	C149	0.341000	0.305000	0.574800
C1501	C150	0.181300	0.283200	0.700700
C1511	C151	0.167600	0.308900	0.760100
C1521	C152	0.101500	0.277500	0.793500
C1531	C153	0.046500	0.219400	0.768600
C1541	C154	0.060200	0.191500	0.708600
C1551	C155	0.125300	0.223600	0.675600
C1561	C156	0.004100	0.128400	0.679500
C1571	C157	0.908700	0.077400	0.618800
C1581	C158	0.840200	0.068600	0.574700
C1591	C159	0.837900	0.997900	0.538800
C1601	C160	0.771700	0.988200	0.497000
C1611	C161	0.710000	0.045900	0.491900
C1621	C162	0.710000	0.118600	0.529600
C1631	C163	0.775400	0.128500	0.570500
C1641	C164	0.642900	0.183500	0.523300
C1651	C165	0.624100	0.239100	0.570700
C1661	C166	0.566500	0.302500	0.562500
C1671	C167	0.541800	0.260200	0.465600
C1681	C168	0.599200	0.194700	0.471300
C1691	C169	0.639900	0.584600	0.137800
C1701	C170	0.702600	0.612700	0.176800
C1711	C171	0.747500	0.686500	0.163500
C1721	C172	0.719600	0.728700	0.112400
C1731	C173	0.659000	0.695000	0.074800
C1741	C174	0.818700	0.716800	0.200700
C1751	C175	0.832400	0.691100	0.260100
C1761	C176	0.898500	0.722500	0.293500
C1771	C177	0.953500	0.780600	0.268600
C1781	C178	0.939800	0.808500	0.208600
C1791	C179	0.874700	0.776400	0.175600
C1801	C180	0.995900	0.871600	0.179500
C1811	C181	0.091300	0.922600	0.118800
C1821	C182	0.159800	0.931400	0.074700
C1831	C183	0.162100	0.002100	0.038800
C1841	C184	0.228300	0.011800	0.997000
C1851	C185	0.290000	0.954100	0.991900
C1861	C186	0.290000	0.881400	0.029600
C1871	C187	0.224600	0.871500	0.070500
C1881	C188	0.357100	0.816500	0.023300
C1891	C189	0.375900	0.760900	0.070700
C1901	C190	0.433500	0.697500	0.062500
C1911	C191	0.458200	0.739800	0.965600
C1921	C192	0.400800	0.805300	0.971300
N11	N1	0.378800	0.379600	0.413000
N21	N2	0.014900	0.944200	0.354000
N31	N3	0.047500	0.005200	0.316300
N41	N4	0.150300	0.943900	0.361600
N51	N5	0.231800	0.925900	0.383500
N61	N6	0.315000	0.526200	0.490100
N71	N7	0.621200	0.620400	0.913000
N81	N8	0.985100	0.055800	0.854000
N91	N9	0.952500	0.994800	0.816300
N101	N10	0.849700	0.056100	0.861600
N111	N11	0.768200	0.074100	0.883500
N121	N12	0.685000	0.473800	0.990100
N131	N13	0.120400	0.878800	0.663000
N141	N14	0.555800	0.514900	0.604000
N151	N15	0.494800	0.547500	0.566300
N161	N16	0.556100	0.650300	0.611600
N171	N17	0.574100	0.731800	0.633500
N181	N18	0.973800	0.815000	0.740100
N191	N19	0.879600	0.121200	0.163000
N201	N20	0.444200	0.485100	0.104000
N211	N21	0.505200	0.452500	0.066300
N221	N22	0.443900	0.349700	0.111600
N231	N23	0.425900	0.268200	0.133500
N241	N24	0.026200	0.185000	0.240100
N251	N25	0.121200	0.879600	0.837000
N261	N26	0.485100	0.444200	0.896000
N271	N27	0.452500	0.505200	0.933700
N281	N28	0.349700	0.443900	0.888400
N291	N29	0.268200	0.425900	0.866500
N301	N30	0.185000	0.026200	0.759900
N311	N31	0.878800	0.120400	0.337000
N321	N32	0.514900	0.555800	0.396000
N331	N33	0.547500	0.494800	0.433700
N341	N34	0.650300	0.556100	0.388400
N351	N35	0.731800	0.574100	0.366500
N361	N36	0.815000	0.973800	0.259900
N371	N37	0.379600	0.378800	0.587000
N381	N38	0.944200	0.014900	0.646000
N391	N39	0.005200	0.047500	0.683700
N401	N40	0.943900	0.150300	0.638400
N411	N41	0.925900	0.231800	0.616500
N421	N42	0.526200	0.315000	0.509900
N431	N43	0.620400	0.621200	0.087000
N441	N44	0.055800	0.985100	0.146000
N451	N45	0.994800	0.952500	0.183700
N461	N46	0.056100	0.849700	0.138400
N471	N47	0.074100	0.768200	0.116500
N481	N48	0.473800	0.685000	0.009900
Cl11	Cl1	0.880410	0.880410	0.000000
O11	O1	0.824000	0.901600	0.049700
O21	O2	0.937700	0.848300	0.034400
O31	O3	0.901600	0.824000	0.950300
O41	O4	0.848300	0.937700	0.965600
Cl21	Cl2	0.268830	0.268830	0.000000
O51	O5	0.239000	0.228700	0.050300
O61	O6	0.336800	0.215300	0.998000
O71	O7	0.228700	0.239000	0.949700
O81	O8	0.215300	0.336800	0.002000
Cl31	Cl3	0.119590	0.119590	0.500000
O91	O9	0.176000	0.098400	0.549700
O101	O10	0.062300	0.151700	0.534400
O111	O11	0.098400	0.176000	0.450300
O121	O12	0.151700	0.062300	0.465600
Cl41	Cl4	0.731170	0.731170	0.500000
O131	O13	0.761000	0.771300	0.550300
O141	O14	0.663200	0.784700	0.498000
O151	O15	0.771300	0.761000	0.449700
O161	O16	0.784700	0.663200	0.502000
Cl51	Cl5	0.619590	0.380410	0.250000
O171	O17	0.598400	0.324000	0.299700
O181	O18	0.651700	0.437700	0.284400
O191	O19	0.676000	0.401600	0.200300
O201	O20	0.562300	0.348300	0.215600
Cl61	Cl6	0.231170	0.768830	0.250000
O211	O21	0.271300	0.739000	0.300300
O221	O22	0.284700	0.836800	0.248000
O231	O23	0.261000	0.728700	0.199700
O241	O24	0.163200	0.715300	0.252000
Cl71	Cl7	0.380410	0.619590	0.750000
O251	O25	0.401600	0.676000	0.799700
O261	O26	0.348300	0.562300	0.784400
O271	O27	0.324000	0.598400	0.700300
O281	O28	0.437700	0.651700	0.715600
Cl81	Cl8	0.768830	0.231170	0.750000
O291	O29	0.728700	0.261000	0.800300
O301	O30	0.715300	0.163200	0.748000
O311	O31	0.739000	0.271300	0.699700
O321	O32	0.836800	0.284700	0.752000
