data_OKIWUB_charged_PM
_symmetry_space_group_name_H-M	'P1'
_cell_length_a	15.849600
_cell_length_b	15.849600
_cell_length_c	21.709000
_cell_angle_alpha	90.000000
_cell_angle_beta	90.000000
_cell_angle_gamma	90.000000
_symmetry_Int_Tables_number 1

loop_
_symmetry_equiv_pos_as_xyz
'x,y,z'

loop_
_atom_site_label
_atom_site_type_symbol
_atom_site_fract_x
_atom_site_fract_y
_atom_site_fract_z
Cd11	Cd1	0.941210	0.058790	0.750000
Cd21	Cd2	0.058790	0.941210	0.250000
Cd31	Cd3	0.441210	0.441210	0.500000
Cd41	Cd4	0.558790	0.558790	0.000000
H11	H1	0.464200	0.386700	0.649300
H21	H2	0.415200	0.286500	0.715200
H31	H3	0.212400	0.260900	0.604200
H41	H4	0.269800	0.361100	0.540900
H51	H5	0.347300	0.204500	0.780400
H61	H6	0.295700	0.090400	0.835600
H71	H7	0.197300	0.999000	0.792600
H81	H8	0.197700	0.139800	0.637300
H91	H9	0.956100	0.881200	0.540800
H101	H10	0.935000	0.769600	0.473100
H111	H11	0.037400	0.665600	0.461700
H121	H12	0.175400	0.776500	0.595600
H131	H13	0.150400	0.601700	0.437300
H141	H14	0.259600	0.504400	0.427900
H151	H15	0.342400	0.559900	0.592300
H161	H16	0.235200	0.654100	0.608300
H171	H17	0.259700	0.897600	0.647700
H181	H18	0.257800	0.975300	0.609400
H191	H19	0.535800	0.613300	0.149300
H201	H20	0.584800	0.713500	0.215200
H211	H21	0.787600	0.739100	0.104200
H221	H22	0.730200	0.638900	0.040900
H231	H23	0.652700	0.795500	0.280400
H241	H24	0.704300	0.909600	0.335600
H251	H25	0.802700	0.001000	0.292600
H261	H26	0.802300	0.860200	0.137300
H271	H27	0.043900	0.118800	0.040800
H281	H28	0.065000	0.230400	0.973100
H291	H29	0.962600	0.334400	0.961700
H301	H30	0.824600	0.223500	0.095600
H311	H31	0.849600	0.398300	0.937300
H321	H32	0.740400	0.495600	0.927900
H331	H33	0.657600	0.440100	0.092300
H341	H34	0.764800	0.345900	0.108300
H351	H35	0.740300	0.102400	0.147700
H361	H36	0.742200	0.024700	0.109400
H371	H37	0.113300	0.964200	0.399300
H381	H38	0.213500	0.915200	0.465200
H391	H39	0.239100	0.712400	0.354200
H401	H40	0.138900	0.769800	0.290900
H411	H41	0.295500	0.847300	0.530400
H421	H42	0.409600	0.795700	0.585600
H431	H43	0.501000	0.697300	0.542600
H441	H44	0.360200	0.697700	0.387300
H451	H45	0.618800	0.456100	0.290800
H461	H46	0.730400	0.435000	0.223100
H471	H47	0.834400	0.537400	0.211700
H481	H48	0.723500	0.675400	0.345600
H491	H49	0.898300	0.650400	0.187300
H501	H50	0.995600	0.759600	0.177900
H511	H51	0.940100	0.842400	0.342300
H521	H52	0.845900	0.735200	0.358300
H531	H53	0.602400	0.759700	0.397700
H541	H54	0.524700	0.757800	0.359400
H551	H55	0.886700	0.035800	0.899300
H561	H56	0.786500	0.084800	0.965200
H571	H57	0.760900	0.287600	0.854200
H581	H58	0.861100	0.230200	0.790900
H591	H59	0.704500	0.152700	0.030400
H601	H60	0.590400	0.204300	0.085600
H611	H61	0.499000	0.302700	0.042600
H621	H62	0.639800	0.302300	0.887300
H631	H63	0.381200	0.543900	0.790800
H641	H64	0.269600	0.565000	0.723100
H651	H65	0.165600	0.462600	0.711700
H661	H66	0.276500	0.324600	0.845600
H671	H67	0.101700	0.349600	0.687300
H681	H68	0.004400	0.240400	0.677900
H691	H69	0.059900	0.157600	0.842300
H701	H70	0.154100	0.264800	0.858300
H711	H71	0.397600	0.240300	0.897700
H721	H72	0.475300	0.242200	0.859400
H731	H73	0.035800	0.886700	0.100700
H741	H74	0.084800	0.786500	0.034800
H751	H75	0.287600	0.760900	0.145800
H761	H76	0.230200	0.861100	0.209100
H771	H77	0.152700	0.704500	0.969600
H781	H78	0.204300	0.590400	0.914400
H791	H79	0.302700	0.499000	0.957400
H801	H80	0.302300	0.639800	0.112700
H811	H81	0.543900	0.381200	0.209200
H821	H82	0.565000	0.269600	0.276900
H831	H83	0.462600	0.165600	0.288300
H841	H84	0.324600	0.276500	0.154400
H851	H85	0.349600	0.101700	0.312700
H861	H86	0.240400	0.004400	0.322100
H871	H87	0.157600	0.059900	0.157700
H881	H88	0.264800	0.154100	0.141700
H891	H89	0.240300	0.397600	0.102300
H901	H90	0.242200	0.475300	0.140600
H911	H91	0.964200	0.113300	0.600700
H921	H92	0.915200	0.213500	0.534800
H931	H93	0.712400	0.239100	0.645800
H941	H94	0.769800	0.138900	0.709100
H951	H95	0.847300	0.295500	0.469600
H961	H96	0.795700	0.409600	0.414400
H971	H97	0.697300	0.501000	0.457400
H981	H98	0.697700	0.360200	0.612700
H991	H99	0.456100	0.618800	0.709200
H1001	H100	0.435000	0.730400	0.776900
H1011	H101	0.537400	0.834400	0.788300
H1021	H102	0.675400	0.723500	0.654400
H1031	H103	0.650400	0.898300	0.812700
H1041	H104	0.759600	0.995600	0.822100
H1051	H105	0.842400	0.940100	0.657700
H1061	H106	0.735200	0.845900	0.641700
H1071	H107	0.759700	0.602400	0.602300
H1081	H108	0.757800	0.524700	0.640600
H1091	H109	0.386700	0.464200	0.350700
H1101	H110	0.286500	0.415200	0.284800
H1111	H111	0.260900	0.212400	0.395800
H1121	H112	0.361100	0.269800	0.459100
H1131	H113	0.204500	0.347300	0.219600
H1141	H114	0.090400	0.295700	0.164400
H1151	H115	0.999000	0.197300	0.207400
H1161	H116	0.139800	0.197700	0.362700
H1171	H117	0.881200	0.956100	0.459200
H1181	H118	0.769600	0.935000	0.526900
H1191	H119	0.665600	0.037400	0.538300
H1201	H120	0.776500	0.175400	0.404400
H1211	H121	0.601700	0.150400	0.562700
H1221	H122	0.504400	0.259600	0.572100
H1231	H123	0.559900	0.342400	0.407700
H1241	H124	0.654100	0.235200	0.391700
H1251	H125	0.897600	0.259700	0.352300
H1261	H126	0.975300	0.257800	0.390600
H1271	H127	0.613300	0.535800	0.850700
H1281	H128	0.713500	0.584800	0.784800
H1291	H129	0.739100	0.787600	0.895800
H1301	H130	0.638900	0.730200	0.959100
H1311	H131	0.795500	0.652700	0.719600
H1321	H132	0.909600	0.704300	0.664400
H1331	H133	0.001000	0.802700	0.707400
H1341	H134	0.860200	0.802300	0.862700
H1351	H135	0.118800	0.043900	0.959200
H1361	H136	0.230400	0.065000	0.026900
H1371	H137	0.334400	0.962600	0.038300
H1381	H138	0.223500	0.824600	0.904400
H1391	H139	0.398300	0.849600	0.062700
H1401	H140	0.495600	0.740400	0.072100
H1411	H141	0.440100	0.657600	0.907700
H1421	H142	0.345900	0.764800	0.891700
H1431	H143	0.102400	0.740300	0.852300
H1441	H144	0.024700	0.742200	0.890600
C11	C1	0.413200	0.358500	0.639000
C21	C2	0.384500	0.298900	0.678700
C31	C3	0.309300	0.255600	0.665700
C41	C4	0.266300	0.283800	0.613800
C51	C5	0.300700	0.344100	0.576300
C61	C6	0.278500	0.183700	0.702700
C71	C7	0.306700	0.168200	0.762200
C81	C8	0.276100	0.100100	0.794900
C91	C9	0.217600	0.045900	0.769700
C101	C10	0.188600	0.060800	0.710100
C111	C11	0.218500	0.129400	0.677700
C121	C12	0.126700	0.005100	0.680300
C131	C13	0.075600	0.908600	0.618600
C141	C14	0.067600	0.839000	0.574200
C151	C15	0.996700	0.837300	0.537900
C161	C16	0.984800	0.771700	0.497400
C171	C17	0.044600	0.708900	0.491600
C181	C18	0.115500	0.709100	0.529500
C191	C19	0.126600	0.775000	0.570100
C201	C20	0.181200	0.642000	0.523300
C211	C21	0.189400	0.594700	0.470100
C221	C22	0.255500	0.536600	0.464700
C231	C23	0.302800	0.568600	0.560100
C241	C24	0.239500	0.625700	0.569900
C251	C25	0.586800	0.641500	0.139000
C261	C26	0.615500	0.701100	0.178700
C271	C27	0.690700	0.744400	0.165700
C281	C28	0.733700	0.716200	0.113800
C291	C29	0.699300	0.655900	0.076300
C301	C30	0.721500	0.816300	0.202700
C311	C31	0.693300	0.831800	0.262200
C321	C32	0.723900	0.899900	0.294900
C331	C33	0.782400	0.954100	0.269700
C341	C34	0.811400	0.939200	0.210100
C351	C35	0.781500	0.870600	0.177700
C361	C36	0.873300	0.994900	0.180300
C371	C37	0.924400	0.091400	0.118600
C381	C38	0.932400	0.161000	0.074200
C391	C39	0.003300	0.162700	0.037900
C401	C40	0.015200	0.228300	0.997400
C411	C41	0.955400	0.291100	0.991600
C421	C42	0.884500	0.290900	0.029500
C431	C43	0.873400	0.225000	0.070100
C441	C44	0.818800	0.358000	0.023300
C451	C45	0.810600	0.405300	0.970100
C461	C46	0.744500	0.463400	0.964700
C471	C47	0.697200	0.431400	0.060100
C481	C48	0.760500	0.374300	0.069900
C491	C49	0.141500	0.913200	0.389000
C501	C50	0.201100	0.884500	0.428700
C511	C51	0.244400	0.809300	0.415700
C521	C52	0.216200	0.766300	0.363800
C531	C53	0.155900	0.800700	0.326300
C541	C54	0.316300	0.778500	0.452700
C551	C55	0.331800	0.806700	0.512200
C561	C56	0.399900	0.776100	0.544900
C571	C57	0.454100	0.717600	0.519700
C581	C58	0.439200	0.688600	0.460100
C591	C59	0.370600	0.718500	0.427700
C601	C60	0.494900	0.626700	0.430300
C611	C61	0.591400	0.575600	0.368600
C621	C62	0.661000	0.567600	0.324200
C631	C63	0.662700	0.496700	0.287900
C641	C64	0.728300	0.484800	0.247400
C651	C65	0.791100	0.544600	0.241600
C661	C66	0.790900	0.615500	0.279500
C671	C67	0.725000	0.626600	0.320100
C681	C68	0.858000	0.681200	0.273300
C691	C69	0.905300	0.689400	0.220100
C701	C70	0.963400	0.755500	0.214700
C711	C71	0.931400	0.802800	0.310100
C721	C72	0.874300	0.739500	0.319900
C731	C73	0.858500	0.086800	0.889000
C741	C74	0.798900	0.115500	0.928700
C751	C75	0.755600	0.190700	0.915700
C761	C76	0.783800	0.233700	0.863800
C771	C77	0.844100	0.199300	0.826300
C781	C78	0.683700	0.221500	0.952700
C791	C79	0.668200	0.193300	0.012200
C801	C80	0.600100	0.223900	0.044900
C811	C81	0.545900	0.282400	0.019700
C821	C82	0.560800	0.311400	0.960100
C831	C83	0.629400	0.281500	0.927700
C841	C84	0.505100	0.373300	0.930300
C851	C85	0.408600	0.424400	0.868600
C861	C86	0.339000	0.432400	0.824200
C871	C87	0.337300	0.503300	0.787900
C881	C88	0.271700	0.515200	0.747400
C891	C89	0.208900	0.455400	0.741600
C901	C90	0.209100	0.384500	0.779500
C911	C91	0.275000	0.373400	0.820100
C921	C92	0.142000	0.318800	0.773300
C931	C93	0.094700	0.310600	0.720100
C941	C94	0.036600	0.244500	0.714700
C951	C95	0.068600	0.197200	0.810100
C961	C96	0.125700	0.260500	0.819900
C971	C97	0.086800	0.858500	0.111000
C981	C98	0.115500	0.798900	0.071300
C991	C99	0.190700	0.755600	0.084300
C1001	C100	0.233700	0.783800	0.136200
C1011	C101	0.199300	0.844100	0.173700
C1021	C102	0.221500	0.683700	0.047300
C1031	C103	0.193300	0.668200	0.987800
C1041	C104	0.223900	0.600100	0.955100
C1051	C105	0.282400	0.545900	0.980300
C1061	C106	0.311400	0.560800	0.039900
C1071	C107	0.281500	0.629400	0.072300
C1081	C108	0.373300	0.505100	0.069700
C1091	C109	0.424400	0.408600	0.131400
C1101	C110	0.432400	0.339000	0.175800
C1111	C111	0.503300	0.337300	0.212100
C1121	C112	0.515200	0.271700	0.252600
C1131	C113	0.455400	0.208900	0.258400
C1141	C114	0.384500	0.209100	0.220500
C1151	C115	0.373400	0.275000	0.179900
C1161	C116	0.318800	0.142000	0.226700
C1171	C117	0.310600	0.094700	0.279900
C1181	C118	0.244500	0.036600	0.285300
C1191	C119	0.197200	0.068600	0.189900
C1201	C120	0.260500	0.125700	0.180100
C1211	C121	0.913200	0.141500	0.611000
C1221	C122	0.884500	0.201100	0.571300
C1231	C123	0.809300	0.244400	0.584300
C1241	C124	0.766300	0.216200	0.636200
C1251	C125	0.800700	0.155900	0.673700
C1261	C126	0.778500	0.316300	0.547300
C1271	C127	0.806700	0.331800	0.487800
C1281	C128	0.776100	0.399900	0.455100
C1291	C129	0.717600	0.454100	0.480300
C1301	C130	0.688600	0.439200	0.539900
C1311	C131	0.718500	0.370600	0.572300
C1321	C132	0.626700	0.494900	0.569700
C1331	C133	0.575600	0.591400	0.631400
C1341	C134	0.567600	0.661000	0.675800
C1351	C135	0.496700	0.662700	0.712100
C1361	C136	0.484800	0.728300	0.752600
C1371	C137	0.544600	0.791100	0.758400
C1381	C138	0.615500	0.790900	0.720500
C1391	C139	0.626600	0.725000	0.679900
C1401	C140	0.681200	0.858000	0.726700
C1411	C141	0.689400	0.905300	0.779900
C1421	C142	0.755500	0.963400	0.785300
C1431	C143	0.802800	0.931400	0.689900
C1441	C144	0.739500	0.874300	0.680100
C1451	C145	0.358500	0.413200	0.361000
C1461	C146	0.298900	0.384500	0.321300
C1471	C147	0.255600	0.309300	0.334300
C1481	C148	0.283800	0.266300	0.386200
C1491	C149	0.344100	0.300700	0.423700
C1501	C150	0.183700	0.278500	0.297300
C1511	C151	0.168200	0.306700	0.237800
C1521	C152	0.100100	0.276100	0.205100
C1531	C153	0.045900	0.217600	0.230300
C1541	C154	0.060800	0.188600	0.289900
C1551	C155	0.129400	0.218500	0.322300
C1561	C156	0.005100	0.126700	0.319700
C1571	C157	0.908600	0.075600	0.381400
C1581	C158	0.839000	0.067600	0.425800
C1591	C159	0.837300	0.996700	0.462100
C1601	C160	0.771700	0.984800	0.502600
C1611	C161	0.708900	0.044600	0.508400
C1621	C162	0.709100	0.115500	0.470500
C1631	C163	0.775000	0.126600	0.429900
C1641	C164	0.642000	0.181200	0.476700
C1651	C165	0.594700	0.189400	0.529900
C1661	C166	0.536600	0.255500	0.535300
C1671	C167	0.568600	0.302800	0.439900
C1681	C168	0.625700	0.239500	0.430100
C1691	C169	0.641500	0.586800	0.861000
C1701	C170	0.701100	0.615500	0.821300
C1711	C171	0.744400	0.690700	0.834300
C1721	C172	0.716200	0.733700	0.886200
C1731	C173	0.655900	0.699300	0.923700
C1741	C174	0.816300	0.721500	0.797300
C1751	C175	0.831800	0.693300	0.737800
C1761	C176	0.899900	0.723900	0.705100
C1771	C177	0.954100	0.782400	0.730300
C1781	C178	0.939200	0.811400	0.789900
C1791	C179	0.870600	0.781500	0.822300
C1801	C180	0.994900	0.873300	0.819700
C1811	C181	0.091400	0.924400	0.881400
C1821	C182	0.161000	0.932400	0.925800
C1831	C183	0.162700	0.003300	0.962100
C1841	C184	0.228300	0.015200	0.002600
C1851	C185	0.291100	0.955400	0.008400
C1861	C186	0.290900	0.884500	0.970500
C1871	C187	0.225000	0.873400	0.929900
C1881	C188	0.358000	0.818800	0.976700
C1891	C189	0.405300	0.810600	0.029900
C1901	C190	0.463400	0.744500	0.035300
C1911	C191	0.431400	0.697200	0.939900
C1921	C192	0.374300	0.760500	0.930100
N11	N1	0.375200	0.380200	0.586800
N21	N2	0.044800	0.006500	0.683900
N31	N3	0.012100	0.945200	0.645870
N41	N4	0.149500	0.944100	0.639540
N51	N5	0.230700	0.926100	0.618100
N61	N6	0.312500	0.524200	0.508200
N71	N7	0.624800	0.619800	0.086800
N81	N8	0.955200	0.993500	0.183900
N91	N9	0.987900	0.054800	0.145870
N101	N10	0.850500	0.055900	0.139540
N111	N11	0.769300	0.073900	0.118100
N121	N12	0.687500	0.475800	0.008200
N131	N13	0.119800	0.875200	0.336800
N141	N14	0.493500	0.544800	0.433900
N151	N15	0.554800	0.512100	0.395870
N161	N16	0.555900	0.649500	0.389540
N171	N17	0.573900	0.730700	0.368100
N181	N18	0.975800	0.812500	0.258200
N191	N19	0.880200	0.124800	0.836800
N201	N20	0.506500	0.455200	0.933900
N211	N21	0.445200	0.487900	0.895870
N221	N22	0.444100	0.350500	0.889540
N231	N23	0.426100	0.269300	0.868100
N241	N24	0.024200	0.187500	0.758200
N251	N25	0.124800	0.880200	0.163200
N261	N26	0.455200	0.506500	0.066100
N271	N27	0.487900	0.445200	0.104130
N281	N28	0.350500	0.444100	0.110460
N291	N29	0.269300	0.426100	0.131900
N301	N30	0.187500	0.024200	0.241800
N311	N31	0.875200	0.119800	0.663200
N321	N32	0.544800	0.493500	0.566100
N331	N33	0.512100	0.554800	0.604130
N341	N34	0.649500	0.555900	0.610460
N351	N35	0.730700	0.573900	0.631900
N361	N36	0.812500	0.975800	0.741800
N371	N37	0.380200	0.375200	0.413200
N381	N38	0.006500	0.044800	0.316100
N391	N39	0.945200	0.012100	0.354130
N401	N40	0.944100	0.149500	0.360460
N411	N41	0.926100	0.230700	0.381900
N421	N42	0.524200	0.312500	0.491800
N431	N43	0.619800	0.624800	0.913200
N441	N44	0.993500	0.955200	0.816100
N451	N45	0.054800	0.987900	0.854130
N461	N46	0.055900	0.850500	0.860460
N471	N47	0.073900	0.769300	0.881900
N481	N48	0.475800	0.687500	0.991800
Cl11	Cl1	0.878040	0.878040	0.000000
O11	O1	0.815300	0.886200	0.962200
O21	O2	0.938900	0.875700	0.963300
O31	O3	0.886200	0.815300	0.037800
O41	O4	0.875700	0.938900	0.036700
Cl21	Cl2	0.121960	0.121960	0.500000
O51	O5	0.184700	0.113800	0.462200
O61	O6	0.061100	0.124300	0.463300
O71	O7	0.113800	0.184700	0.537800
O81	O8	0.124300	0.061100	0.536700
Cl31	Cl3	0.621960	0.378040	0.750000
O91	O9	0.613800	0.315300	0.712200
O101	O10	0.624300	0.438900	0.713300
O111	O11	0.684700	0.386200	0.787800
O121	O12	0.561100	0.375700	0.786700
Cl41	Cl4	0.378040	0.621960	0.250000
O131	O13	0.386200	0.684700	0.212200
O141	O14	0.375700	0.561100	0.213300
O151	O15	0.315300	0.613800	0.287800
O161	O16	0.438900	0.624300	0.286700
