data_OKIWEL01_charged_PM
_symmetry_space_group_name_H-M	'P1'
_cell_length_a	15.877000
_cell_length_b	15.877000
_cell_length_c	21.806000
_cell_angle_alpha	90.000000
_cell_angle_beta	90.000000
_cell_angle_gamma	90.000000
_symmetry_Int_Tables_number 1

loop_
_symmetry_equiv_pos_as_xyz
'x,y,z'

loop_
_atom_site_label
_atom_site_type_symbol
_atom_site_fract_x
_atom_site_fract_y
_atom_site_fract_z
Cd11	Cd1	0.557810	0.442190	0.250000
Cd21	Cd2	0.442190	0.557810	0.750000
Cd31	Cd3	0.057810	0.057810	0.500000
Cd41	Cd4	0.942190	0.942190	0.000000
H11	H1	0.036600	0.110900	0.350600
H21	H2	0.084100	0.214600	0.284500
H31	H3	0.284400	0.243400	0.396800
H41	H4	0.227800	0.141100	0.459400
H51	H5	0.153400	0.294800	0.220200
H61	H6	0.202500	0.410400	0.164600
H71	H7	0.304300	0.503400	0.208600
H81	H8	0.297600	0.365200	0.364700
H91	H9	0.545100	0.619400	0.460900
H101	H10	0.563400	0.728500	0.530400
H111	H11	0.464400	0.833600	0.538600
H121	H12	0.325100	0.724700	0.403800
H131	H13	0.344100	0.891800	0.565100
H141	H14	0.234600	0.989400	0.574100
H151	H15	0.161000	0.943100	0.406000
H161	H16	0.266700	0.848500	0.391200
H171	H17	0.241600	0.527200	0.391200
H181	H18	0.240700	0.604100	0.352300
H191	H19	0.963400	0.889100	0.850600
H201	H20	0.915900	0.785400	0.784500
H211	H21	0.715600	0.756600	0.896800
H221	H22	0.772200	0.858900	0.959400
H231	H23	0.846600	0.705200	0.720200
H241	H24	0.797500	0.589600	0.664600
H251	H25	0.695700	0.496600	0.708600
H261	H26	0.702400	0.634800	0.864700
H271	H27	0.454900	0.380600	0.960900
H281	H28	0.436600	0.271500	0.030400
H291	H29	0.535600	0.166400	0.038600
H301	H30	0.674900	0.275300	0.903800
H311	H31	0.655900	0.108200	0.065100
H321	H32	0.765400	0.010600	0.074100
H331	H33	0.839000	0.056900	0.906000
H341	H34	0.733300	0.151500	0.891200
H351	H35	0.758400	0.472800	0.891200
H361	H36	0.759300	0.395900	0.852300
H371	H37	0.389100	0.536600	0.600600
H381	H38	0.285400	0.584100	0.534500
H391	H39	0.256600	0.784400	0.646800
H401	H40	0.358900	0.727800	0.709400
H411	H41	0.205200	0.653400	0.470200
H421	H42	0.089600	0.702500	0.414600
H431	H43	0.996600	0.804300	0.458600
H441	H44	0.134800	0.797600	0.614700
H451	H45	0.880600	0.045100	0.710900
H461	H46	0.771500	0.063400	0.780400
H471	H47	0.666400	0.964400	0.788600
H481	H48	0.775300	0.825100	0.653800
H491	H49	0.608200	0.844100	0.815100
H501	H50	0.510600	0.734600	0.824100
H511	H51	0.556900	0.661000	0.656000
H521	H52	0.651500	0.766700	0.641200
H531	H53	0.972800	0.741600	0.641200
H541	H54	0.895900	0.740700	0.602300
H551	H55	0.610900	0.463400	0.100600
H561	H56	0.714600	0.415900	0.034500
H571	H57	0.743400	0.215600	0.146800
H581	H58	0.641100	0.272200	0.209400
H591	H59	0.794800	0.346600	0.970200
H601	H60	0.910400	0.297500	0.914600
H611	H61	0.003400	0.195700	0.958600
H621	H62	0.865200	0.202400	0.114700
H631	H63	0.119400	0.954900	0.210900
H641	H64	0.228500	0.936600	0.280400
H651	H65	0.333600	0.035600	0.288600
H661	H66	0.224700	0.174900	0.153800
H671	H67	0.391800	0.155900	0.315100
H681	H68	0.489400	0.265400	0.324100
H691	H69	0.443100	0.339000	0.156000
H701	H70	0.348500	0.233300	0.141200
H711	H71	0.027200	0.258400	0.141200
H721	H72	0.104100	0.259300	0.102300
H731	H73	0.463400	0.610900	0.899400
H741	H74	0.415900	0.714600	0.965500
H751	H75	0.215600	0.743400	0.853200
H761	H76	0.272200	0.641100	0.790600
H771	H77	0.346600	0.794800	0.029800
H781	H78	0.297500	0.910400	0.085400
H791	H79	0.195700	0.003400	0.041400
H801	H80	0.202400	0.865200	0.885300
H811	H81	0.954900	0.119400	0.789100
H821	H82	0.936600	0.228500	0.719600
H831	H83	0.035600	0.333600	0.711400
H841	H84	0.174900	0.224700	0.846200
H851	H85	0.155900	0.391800	0.684900
H861	H86	0.265400	0.489400	0.675900
H871	H87	0.339000	0.443100	0.844000
H881	H88	0.233300	0.348500	0.858800
H891	H89	0.258400	0.027200	0.858800
H901	H90	0.259300	0.104100	0.897700
H911	H91	0.536600	0.389100	0.399400
H921	H92	0.584100	0.285400	0.465500
H931	H93	0.784400	0.256600	0.353200
H941	H94	0.727800	0.358900	0.290600
H951	H95	0.653400	0.205200	0.529800
H961	H96	0.702500	0.089600	0.585400
H971	H97	0.804300	0.996600	0.541400
H981	H98	0.797600	0.134800	0.385300
H991	H99	0.045100	0.880600	0.289100
H1001	H100	0.063400	0.771500	0.219600
H1011	H101	0.964400	0.666400	0.211400
H1021	H102	0.825100	0.775300	0.346200
H1031	H103	0.844100	0.608200	0.184900
H1041	H104	0.734600	0.510600	0.175900
H1051	H105	0.661000	0.556900	0.344000
H1061	H106	0.766700	0.651500	0.358800
H1071	H107	0.741600	0.972800	0.358800
H1081	H108	0.740700	0.895900	0.397700
H1091	H109	0.110900	0.036600	0.649400
H1101	H110	0.214600	0.084100	0.715500
H1111	H111	0.243400	0.284400	0.603200
H1121	H112	0.141100	0.227800	0.540600
H1131	H113	0.294800	0.153400	0.779800
H1141	H114	0.410400	0.202500	0.835400
H1151	H115	0.503400	0.304300	0.791400
H1161	H116	0.365200	0.297600	0.635300
H1171	H117	0.619400	0.545100	0.539100
H1181	H118	0.728500	0.563400	0.469600
H1191	H119	0.833600	0.464400	0.461400
H1201	H120	0.724700	0.325100	0.596200
H1211	H121	0.891800	0.344100	0.434900
H1221	H122	0.989400	0.234600	0.425900
H1231	H123	0.943100	0.161000	0.594000
H1241	H124	0.848500	0.266700	0.608800
H1251	H125	0.527200	0.241600	0.608800
H1261	H126	0.604100	0.240700	0.647700
H1271	H127	0.889100	0.963400	0.149400
H1281	H128	0.785400	0.915900	0.215500
H1291	H129	0.756600	0.715600	0.103200
H1301	H130	0.858900	0.772200	0.040600
H1311	H131	0.705200	0.846600	0.279800
H1321	H132	0.589600	0.797500	0.335400
H1331	H133	0.496600	0.695700	0.291400
H1341	H134	0.634800	0.702400	0.135300
H1351	H135	0.380600	0.454900	0.039100
H1361	H136	0.271500	0.436600	0.969600
H1371	H137	0.166400	0.535600	0.961400
H1381	H138	0.275300	0.674900	0.096200
H1391	H139	0.108200	0.655900	0.934900
H1401	H140	0.010600	0.765400	0.925900
H1411	H141	0.056900	0.839000	0.094000
H1421	H142	0.151500	0.733300	0.108800
H1431	H143	0.472800	0.758400	0.108800
H1441	H144	0.395900	0.759300	0.147700
C11	C1	0.086500	0.140700	0.361100
C21	C2	0.114400	0.202500	0.321000
C31	C3	0.188600	0.247000	0.335400
C41	C4	0.231200	0.219600	0.386800
C51	C5	0.197200	0.157700	0.423900
C61	C6	0.218200	0.319800	0.298000
C71	C7	0.192300	0.332800	0.238500
C81	C8	0.222500	0.400900	0.205100
C91	C9	0.283100	0.456700	0.231100
C101	C10	0.309900	0.440300	0.290200
C111	C11	0.278500	0.374200	0.323900
C121	C12	0.371800	0.496700	0.319500
C131	C13	0.423800	0.591600	0.382000
C141	C14	0.432400	0.661500	0.426200
C151	C15	0.504200	0.662900	0.463900
C161	C16	0.514900	0.727300	0.504900
C171	C17	0.456100	0.789900	0.509400
C181	C18	0.383500	0.791900	0.472100
C191	C19	0.373000	0.725600	0.429900
C201	C20	0.318000	0.858000	0.477600
C211	C21	0.307100	0.901200	0.531500
C221	C22	0.240800	0.959500	0.536600
C231	C23	0.198600	0.932700	0.439100
C241	C24	0.261200	0.876000	0.429700
C251	C25	0.913500	0.859300	0.861100
C261	C26	0.885600	0.797500	0.821000
C271	C27	0.811400	0.753000	0.835400
C281	C28	0.768800	0.780400	0.886800
C291	C29	0.802800	0.842300	0.923900
C301	C30	0.781800	0.680200	0.798000
C311	C31	0.807700	0.667200	0.738500
C321	C32	0.777500	0.599100	0.705100
C331	C33	0.716900	0.543300	0.731100
C341	C34	0.690100	0.559700	0.790200
C351	C35	0.721500	0.625800	0.823900
C361	C36	0.628200	0.503300	0.819500
C371	C37	0.576200	0.408400	0.882000
C381	C38	0.567600	0.338500	0.926200
C391	C39	0.495800	0.337100	0.963900
C401	C40	0.485100	0.272700	0.004900
C411	C41	0.543900	0.210100	0.009400
C421	C42	0.616500	0.208100	0.972100
C431	C43	0.627000	0.274400	0.929900
C441	C44	0.682000	0.142000	0.977600
C451	C45	0.692900	0.098800	0.031500
C461	C46	0.759200	0.040500	0.036600
C471	C47	0.801400	0.067300	0.939100
C481	C48	0.738800	0.124000	0.929700
C491	C49	0.359300	0.586500	0.611100
C501	C50	0.297500	0.614400	0.571000
C511	C51	0.253000	0.688600	0.585400
C521	C52	0.280400	0.731200	0.636800
C531	C53	0.342300	0.697200	0.673900
C541	C54	0.180200	0.718200	0.548000
C551	C55	0.167200	0.692300	0.488500
C561	C56	0.099100	0.722500	0.455100
C571	C57	0.043300	0.783100	0.481100
C581	C58	0.059700	0.809900	0.540200
C591	C59	0.125800	0.778500	0.573900
C601	C60	0.003300	0.871800	0.569500
C611	C61	0.908400	0.923800	0.632000
C621	C62	0.838500	0.932400	0.676200
C631	C63	0.837100	0.004200	0.713900
C641	C64	0.772700	0.014900	0.754900
C651	C65	0.710100	0.956100	0.759400
C661	C66	0.708100	0.883500	0.722100
C671	C67	0.774400	0.873000	0.679900
C681	C68	0.642000	0.818000	0.727600
C691	C69	0.598800	0.807100	0.781500
C701	C70	0.540500	0.740800	0.786600
C711	C71	0.567300	0.698600	0.689100
C721	C72	0.624000	0.761200	0.679700
C731	C73	0.640700	0.413500	0.111100
C741	C74	0.702500	0.385600	0.071000
C751	C75	0.747000	0.311400	0.085400
C761	C76	0.719600	0.268800	0.136800
C771	C77	0.657700	0.302800	0.173900
C781	C78	0.819800	0.281800	0.048000
C791	C79	0.832800	0.307700	0.988500
C801	C80	0.900900	0.277500	0.955100
C811	C81	0.956700	0.216900	0.981100
C821	C82	0.940300	0.190100	0.040200
C831	C83	0.874200	0.221500	0.073900
C841	C84	0.996700	0.128200	0.069500
C851	C85	0.091600	0.076200	0.132000
C861	C86	0.161500	0.067600	0.176200
C871	C87	0.162900	0.995800	0.213900
C881	C88	0.227300	0.985100	0.254900
C891	C89	0.289900	0.043900	0.259400
C901	C90	0.291900	0.116500	0.222100
C911	C91	0.225600	0.127000	0.179900
C921	C92	0.358000	0.182000	0.227600
C931	C93	0.401200	0.192900	0.281500
C941	C94	0.459500	0.259200	0.286600
C951	C95	0.432700	0.301400	0.189100
C961	C96	0.376000	0.238800	0.179700
C971	C97	0.413500	0.640700	0.888900
C981	C98	0.385600	0.702500	0.929000
C991	C99	0.311400	0.747000	0.914600
C1001	C100	0.268800	0.719600	0.863200
C1011	C101	0.302800	0.657700	0.826100
C1021	C102	0.281800	0.819800	0.952000
C1031	C103	0.307700	0.832800	0.011500
C1041	C104	0.277500	0.900900	0.044900
C1051	C105	0.216900	0.956700	0.018900
C1061	C106	0.190100	0.940300	0.959800
C1071	C107	0.221500	0.874200	0.926100
C1081	C108	0.128200	0.996700	0.930500
C1091	C109	0.076200	0.091600	0.868000
C1101	C110	0.067600	0.161500	0.823800
C1111	C111	0.995800	0.162900	0.786100
C1121	C112	0.985100	0.227300	0.745100
C1131	C113	0.043900	0.289900	0.740600
C1141	C114	0.116500	0.291900	0.777900
C1151	C115	0.127000	0.225600	0.820100
C1161	C116	0.182000	0.358000	0.772400
C1171	C117	0.192900	0.401200	0.718500
C1181	C118	0.259200	0.459500	0.713400
C1191	C119	0.301400	0.432700	0.810900
C1201	C120	0.238800	0.376000	0.820300
C1211	C121	0.586500	0.359300	0.388900
C1221	C122	0.614400	0.297500	0.429000
C1231	C123	0.688600	0.253000	0.414600
C1241	C124	0.731200	0.280400	0.363200
C1251	C125	0.697200	0.342300	0.326100
C1261	C126	0.718200	0.180200	0.452000
C1271	C127	0.692300	0.167200	0.511500
C1281	C128	0.722500	0.099100	0.544900
C1291	C129	0.783100	0.043300	0.518900
C1301	C130	0.809900	0.059700	0.459800
C1311	C131	0.778500	0.125800	0.426100
C1321	C132	0.871800	0.003300	0.430500
C1331	C133	0.923800	0.908400	0.368000
C1341	C134	0.932400	0.838500	0.323800
C1351	C135	0.004200	0.837100	0.286100
C1361	C136	0.014900	0.772700	0.245100
C1371	C137	0.956100	0.710100	0.240600
C1381	C138	0.883500	0.708100	0.277900
C1391	C139	0.873000	0.774400	0.320100
C1401	C140	0.818000	0.642000	0.272400
C1411	C141	0.807100	0.598800	0.218500
C1421	C142	0.740800	0.540500	0.213400
C1431	C143	0.698600	0.567300	0.310900
C1441	C144	0.761200	0.624000	0.320300
C1451	C145	0.140700	0.086500	0.638900
C1461	C146	0.202500	0.114400	0.679000
C1471	C147	0.247000	0.188600	0.664600
C1481	C148	0.219600	0.231200	0.613200
C1491	C149	0.157700	0.197200	0.576100
C1501	C150	0.319800	0.218200	0.702000
C1511	C151	0.332800	0.192300	0.761500
C1521	C152	0.400900	0.222500	0.794900
C1531	C153	0.456700	0.283100	0.768900
C1541	C154	0.440300	0.309900	0.709800
C1551	C155	0.374200	0.278500	0.676100
C1561	C156	0.496700	0.371800	0.680500
C1571	C157	0.591600	0.423800	0.618000
C1581	C158	0.661500	0.432400	0.573800
C1591	C159	0.662900	0.504200	0.536100
C1601	C160	0.727300	0.514900	0.495100
C1611	C161	0.789900	0.456100	0.490600
C1621	C162	0.791900	0.383500	0.527900
C1631	C163	0.725600	0.373000	0.570100
C1641	C164	0.858000	0.318000	0.522400
C1651	C165	0.901200	0.307100	0.468500
C1661	C166	0.959500	0.240800	0.463400
C1671	C167	0.932700	0.198600	0.560900
C1681	C168	0.876000	0.261200	0.570300
C1691	C169	0.859300	0.913500	0.138900
C1701	C170	0.797500	0.885600	0.179000
C1711	C171	0.753000	0.811400	0.164600
C1721	C172	0.780400	0.768800	0.113200
C1731	C173	0.842300	0.802800	0.076100
C1741	C174	0.680200	0.781800	0.202000
C1751	C175	0.667200	0.807700	0.261500
C1761	C176	0.599100	0.777500	0.294900
C1771	C177	0.543300	0.716900	0.268900
C1781	C178	0.559700	0.690100	0.209800
C1791	C179	0.625800	0.721500	0.176100
C1801	C180	0.503300	0.628200	0.180500
C1811	C181	0.408400	0.576200	0.118000
C1821	C182	0.338500	0.567600	0.073800
C1831	C183	0.337100	0.495800	0.036100
C1841	C184	0.272700	0.485100	0.995100
C1851	C185	0.210100	0.543900	0.990600
C1861	C186	0.208100	0.616500	0.027900
C1871	C187	0.274400	0.627000	0.070100
C1881	C188	0.142000	0.682000	0.022400
C1891	C189	0.098800	0.692900	0.968500
C1901	C190	0.040500	0.759200	0.963400
C1911	C191	0.067300	0.801400	0.060900
C1921	C192	0.124000	0.738800	0.070300
N11	N1	0.124600	0.120400	0.412600
N21	N2	0.455100	0.494500	0.315700
N31	N3	0.487800	0.554700	0.354900
N41	N4	0.350600	0.557000	0.360700
N51	N5	0.269200	0.575900	0.382200
N61	N6	0.185700	0.975100	0.491300
N71	N7	0.875400	0.879600	0.912600
N81	N8	0.544900	0.505500	0.815700
N91	N9	0.512200	0.445300	0.854900
N101	N10	0.649400	0.443000	0.860700
N111	N11	0.730800	0.424100	0.882200
N121	N12	0.814300	0.024900	0.991300
N131	N13	0.379600	0.624600	0.662600
N141	N14	0.005500	0.955100	0.565700
N151	N15	0.945300	0.987800	0.604900
N161	N16	0.943000	0.850600	0.610700
N171	N17	0.924100	0.769200	0.632200
N181	N18	0.524900	0.685700	0.741300
N191	N19	0.620400	0.375400	0.162600
N201	N20	0.994500	0.044900	0.065700
N211	N21	0.054700	0.012200	0.104900
N221	N22	0.057000	0.149400	0.110700
N231	N23	0.075900	0.230800	0.132200
N241	N24	0.475100	0.314300	0.241300
N251	N25	0.375400	0.620400	0.837400
N261	N26	0.044900	0.994500	0.934300
N271	N27	0.012200	0.054700	0.895100
N281	N28	0.149400	0.057000	0.889300
N291	N29	0.230800	0.075900	0.867800
N301	N30	0.314300	0.475100	0.758700
N311	N31	0.624600	0.379600	0.337400
N321	N32	0.955100	0.005500	0.434300
N331	N33	0.987800	0.945300	0.395100
N341	N34	0.850600	0.943000	0.389300
N351	N35	0.769200	0.924100	0.367800
N361	N36	0.685700	0.524900	0.258700
N371	N37	0.120400	0.124600	0.587400
N381	N38	0.494500	0.455100	0.684300
N391	N39	0.554700	0.487800	0.645100
N401	N40	0.557000	0.350600	0.639300
N411	N41	0.575900	0.269200	0.617800
N421	N42	0.975100	0.185700	0.508700
N431	N43	0.879600	0.875400	0.087400
N441	N44	0.505500	0.544900	0.184300
N451	N45	0.445300	0.512200	0.145100
N461	N46	0.443000	0.649400	0.139300
N471	N47	0.424100	0.730800	0.117800
N481	N48	0.024900	0.814300	0.008700
Cl11	Cl1	0.231780	0.231780	0.000000
O11	O1	0.260100	0.272400	0.052300
O21	O2	0.275800	0.157600	0.008000
O31	O3	0.272400	0.260100	0.947700
O41	O4	0.157600	0.275800	0.992000
Cl21	Cl2	0.621160	0.621160	0.000000
O51	O5	0.643000	0.552700	0.970000
O61	O6	0.667700	0.596400	0.054000
O71	O7	0.552700	0.643000	0.030000
O81	O8	0.596400	0.667700	0.946000
Cl31	Cl3	0.768220	0.768220	0.500000
O91	O9	0.739900	0.727600	0.552300
O101	O10	0.724200	0.842400	0.508000
O111	O11	0.727600	0.739900	0.447700
O121	O12	0.842400	0.724200	0.492000
Cl41	Cl4	0.378840	0.378840	0.500000
O131	O13	0.357000	0.447300	0.470000
O141	O14	0.332300	0.403600	0.554000
O151	O15	0.447300	0.357000	0.530000
O161	O16	0.403600	0.332300	0.446000
Cl51	Cl5	0.268220	0.731780	0.250000
O171	O17	0.227600	0.760100	0.302300
O181	O18	0.342400	0.775800	0.258000
O191	O19	0.239900	0.772400	0.197700
O201	O20	0.224200	0.657600	0.242000
Cl61	Cl6	0.878840	0.121160	0.250000
O211	O21	0.947300	0.143000	0.220000
O221	O22	0.903600	0.167700	0.304000
O231	O23	0.857000	0.052700	0.280000
O241	O24	0.832300	0.096400	0.196000
Cl71	Cl7	0.731780	0.268220	0.750000
O251	O25	0.772400	0.239900	0.802300
O261	O26	0.657600	0.224200	0.758000
O271	O27	0.760100	0.227600	0.697700
O281	O28	0.775800	0.342400	0.742000
Cl81	Cl8	0.121160	0.878840	0.750000
O291	O29	0.052700	0.857000	0.720000
O301	O30	0.096400	0.832300	0.804000
O311	O31	0.143000	0.947300	0.780000
O321	O32	0.167700	0.903600	0.696000
