data_OKIXIQ_charged_PM
_symmetry_space_group_name_H-M	'P1'
_cell_length_a	15.883200
_cell_length_b	15.883200
_cell_length_c	21.700000
_cell_angle_alpha	90.000000
_cell_angle_beta	90.000000
_cell_angle_gamma	90.000000
_symmetry_Int_Tables_number 1

loop_
_symmetry_equiv_pos_as_xyz
'x,y,z'

loop_
_atom_site_label
_atom_site_type_symbol
_atom_site_fract_x
_atom_site_fract_y
_atom_site_fract_z
Cd11	Cd1	0.058720	0.941280	0.250000
Cd21	Cd2	0.941280	0.058720	0.750000
Cd31	Cd3	0.558720	0.558720	0.500000
Cd41	Cd4	0.441280	0.441280	0.000000
H11	H1	0.536900	0.612200	0.350400
H21	H2	0.586700	0.714600	0.284500
H31	H3	0.790100	0.736200	0.394800
H41	H4	0.730300	0.639900	0.459400
H51	H5	0.653800	0.794900	0.219900
H61	H6	0.702900	0.910700	0.164800
H71	H7	0.802200	0.002400	0.208200
H81	H8	0.803600	0.859700	0.362900
H91	H9	0.046100	0.121700	0.459500
H101	H10	0.066600	0.234100	0.525000
H111	H11	0.965700	0.337600	0.536200
H121	H12	0.823900	0.222900	0.405600
H131	H13	0.851000	0.401300	0.562000
H141	H14	0.740400	0.495200	0.573300
H151	H15	0.656000	0.438800	0.408900
H161	H16	0.762100	0.343700	0.392900
H171	H17	0.744800	0.025800	0.395900
H181	H18	0.738600	0.095800	0.350700
H191	H19	0.463100	0.387800	0.850400
H201	H20	0.413300	0.285400	0.784500
H211	H21	0.209900	0.263800	0.894800
H221	H22	0.269700	0.360100	0.959400
H231	H23	0.346200	0.205100	0.719900
H241	H24	0.297100	0.089300	0.664800
H251	H25	0.197800	0.997600	0.708200
H261	H26	0.196400	0.140300	0.862900
H271	H27	0.953900	0.878300	0.959500
H281	H28	0.933400	0.765900	0.025000
H291	H29	0.034300	0.662400	0.036200
H301	H30	0.176100	0.777100	0.905600
H311	H31	0.149000	0.598700	0.062000
H321	H32	0.259600	0.504800	0.073300
H331	H33	0.344000	0.561200	0.908900
H341	H34	0.237900	0.656300	0.892900
H351	H35	0.255200	0.974200	0.895900
H361	H36	0.261400	0.904200	0.850700
H371	H37	0.887800	0.036900	0.600400
H381	H38	0.785400	0.086700	0.534500
H391	H39	0.763800	0.290100	0.644800
H401	H40	0.860100	0.230300	0.709400
H411	H41	0.705100	0.153800	0.469900
H421	H42	0.589300	0.202900	0.414800
H431	H43	0.497600	0.302200	0.458200
H441	H44	0.640300	0.303600	0.612900
H451	H45	0.378300	0.546100	0.709500
H461	H46	0.265900	0.566600	0.775000
H471	H47	0.162400	0.465700	0.786200
H481	H48	0.277100	0.323900	0.655600
H491	H49	0.098700	0.351000	0.812000
H501	H50	0.004800	0.240400	0.823300
H511	H51	0.061200	0.156000	0.658900
H521	H52	0.156300	0.262100	0.642900
H531	H53	0.474200	0.244800	0.645900
H541	H54	0.404200	0.238600	0.600700
H551	H55	0.112200	0.963100	0.100400
H561	H56	0.214600	0.913300	0.034500
H571	H57	0.236200	0.709900	0.144800
H581	H58	0.139900	0.769700	0.209400
H591	H59	0.294900	0.846200	0.969900
H601	H60	0.410700	0.797100	0.914800
H611	H61	0.502400	0.697800	0.958200
H621	H62	0.359700	0.696400	0.112900
H631	H63	0.621700	0.453900	0.209500
H641	H64	0.734100	0.433400	0.275000
H651	H65	0.837600	0.534300	0.286200
H661	H66	0.722900	0.676100	0.155600
H671	H67	0.901300	0.649000	0.312000
H681	H68	0.995200	0.759600	0.323300
H691	H69	0.938800	0.844000	0.158900
H701	H70	0.843700	0.737900	0.142900
H711	H71	0.525800	0.755200	0.145900
H721	H72	0.595800	0.761400	0.100700
H731	H73	0.963100	0.112200	0.899600
H741	H74	0.913300	0.214600	0.965500
H751	H75	0.709900	0.236200	0.855200
H761	H76	0.769700	0.139900	0.790600
H771	H77	0.846200	0.294900	0.030100
H781	H78	0.797100	0.410700	0.085200
H791	H79	0.697800	0.502400	0.041800
H801	H80	0.696400	0.359700	0.887100
H811	H81	0.453900	0.621700	0.790500
H821	H82	0.433400	0.734100	0.725000
H831	H83	0.534300	0.837600	0.713800
H841	H84	0.676100	0.722900	0.844400
H851	H85	0.649000	0.901300	0.688000
H861	H86	0.759600	0.995200	0.676700
H871	H87	0.844000	0.938800	0.841100
H881	H88	0.737900	0.843700	0.857100
H891	H89	0.755200	0.525800	0.854100
H901	H90	0.761400	0.595800	0.899300
H911	H91	0.036900	0.887800	0.399600
H921	H92	0.086700	0.785400	0.465500
H931	H93	0.290100	0.763800	0.355200
H941	H94	0.230300	0.860100	0.290600
H951	H95	0.153800	0.705100	0.530100
H961	H96	0.202900	0.589300	0.585200
H971	H97	0.302200	0.497600	0.541800
H981	H98	0.303600	0.640300	0.387100
H991	H99	0.546100	0.378300	0.290500
H1001	H100	0.566600	0.265900	0.225000
H1011	H101	0.465700	0.162400	0.213800
H1021	H102	0.323900	0.277100	0.344400
H1031	H103	0.351000	0.098700	0.188000
H1041	H104	0.240400	0.004800	0.176700
H1051	H105	0.156000	0.061200	0.341100
H1061	H106	0.262100	0.156300	0.357100
H1071	H107	0.244800	0.474200	0.354100
H1081	H108	0.238600	0.404200	0.399300
H1091	H109	0.612200	0.536900	0.649600
H1101	H110	0.714600	0.586700	0.715500
H1111	H111	0.736200	0.790100	0.605200
H1121	H112	0.639900	0.730300	0.540600
H1131	H113	0.794900	0.653800	0.780100
H1141	H114	0.910700	0.702900	0.835200
H1151	H115	0.002400	0.802200	0.791800
H1161	H116	0.859700	0.803600	0.637100
H1171	H117	0.121700	0.046100	0.540500
H1181	H118	0.234100	0.066600	0.475000
H1191	H119	0.337600	0.965700	0.463800
H1201	H120	0.222900	0.823900	0.594400
H1211	H121	0.401300	0.851000	0.438000
H1221	H122	0.495200	0.740400	0.426700
H1231	H123	0.438800	0.656000	0.591100
H1241	H124	0.343700	0.762100	0.607100
H1251	H125	0.025800	0.744800	0.604100
H1261	H126	0.095800	0.738600	0.649300
H1271	H127	0.387800	0.463100	0.149600
H1281	H128	0.285400	0.413300	0.215500
H1291	H129	0.263800	0.209900	0.105200
H1301	H130	0.360100	0.269700	0.040600
H1311	H131	0.205100	0.346200	0.280100
H1321	H132	0.089300	0.297100	0.335200
H1331	H133	0.997600	0.197800	0.291800
H1341	H134	0.140300	0.196400	0.137100
H1351	H135	0.878300	0.953900	0.040500
H1361	H136	0.765900	0.933400	0.975000
H1371	H137	0.662400	0.034300	0.963800
H1381	H138	0.777100	0.176100	0.094400
H1391	H139	0.598700	0.149000	0.938000
H1401	H140	0.504800	0.259600	0.926700
H1411	H141	0.561200	0.344000	0.091100
H1421	H142	0.656300	0.237900	0.107100
H1431	H143	0.974200	0.255200	0.104100
H1441	H144	0.904200	0.261400	0.149300
C11	C1	0.587500	0.640700	0.361000
C21	C2	0.617000	0.701600	0.321000
C31	C3	0.691300	0.743800	0.334700
C41	C4	0.735500	0.714900	0.386000
C51	C5	0.700100	0.656100	0.423500
C61	C6	0.722800	0.816500	0.297600
C71	C7	0.693800	0.831800	0.238100
C81	C8	0.723300	0.900600	0.205300
C91	C9	0.782400	0.955200	0.230800
C101	C10	0.812000	0.939000	0.290500
C111	C11	0.782600	0.870400	0.322700
C121	C12	0.873500	0.994600	0.320100
C131	C13	0.924500	0.091700	0.381700
C141	C14	0.932700	0.161400	0.425600
C151	C15	0.005000	0.165100	0.462100
C161	C16	0.016400	0.231200	0.501300
C171	C17	0.957200	0.293400	0.507400
C181	C18	0.884400	0.292000	0.471300
C191	C19	0.873100	0.225000	0.430400
C201	C20	0.818300	0.357900	0.477900
C211	C21	0.810700	0.406600	0.530000
C221	C22	0.744600	0.463600	0.536300
C231	C23	0.696000	0.430400	0.440900
C241	C24	0.758700	0.373100	0.431000
C251	C25	0.412500	0.359300	0.861000
C261	C26	0.383000	0.298400	0.821000
C271	C27	0.308700	0.256200	0.834700
C281	C28	0.264500	0.285100	0.886000
C291	C29	0.299900	0.343900	0.923500
C301	C30	0.277200	0.183500	0.797600
C311	C31	0.306200	0.168200	0.738100
C321	C32	0.276700	0.099400	0.705300
C331	C33	0.217600	0.044800	0.730800
C341	C34	0.188000	0.061000	0.790500
C351	C35	0.217400	0.129600	0.822700
C361	C36	0.126500	0.005400	0.820100
C371	C37	0.075500	0.908300	0.881700
C381	C38	0.067300	0.838600	0.925600
C391	C39	0.995000	0.834900	0.962100
C401	C40	0.983600	0.768800	0.001300
C411	C41	0.042800	0.706600	0.007400
C421	C42	0.115600	0.708000	0.971300
C431	C43	0.126900	0.775000	0.930400
C441	C44	0.181700	0.642100	0.977900
C451	C45	0.189300	0.593400	0.030000
C461	C46	0.255400	0.536400	0.036300
C471	C47	0.304000	0.569600	0.940900
C481	C48	0.241300	0.626900	0.931000
C491	C49	0.859300	0.087500	0.611000
C501	C50	0.798400	0.117000	0.571000
C511	C51	0.756200	0.191300	0.584700
C521	C52	0.785100	0.235500	0.636000
C531	C53	0.843900	0.200100	0.673500
C541	C54	0.683500	0.222800	0.547600
C551	C55	0.668200	0.193800	0.488100
C561	C56	0.599400	0.223300	0.455300
C571	C57	0.544800	0.282400	0.480800
C581	C58	0.561000	0.312000	0.540500
C591	C59	0.629600	0.282600	0.572700
C601	C60	0.505400	0.373500	0.570100
C611	C61	0.408300	0.424500	0.631700
C621	C62	0.338600	0.432700	0.675600
C631	C63	0.334900	0.505000	0.712100
C641	C64	0.268800	0.516400	0.751300
C651	C65	0.206600	0.457200	0.757400
C661	C66	0.208000	0.384400	0.721300
C671	C67	0.275000	0.373100	0.680400
C681	C68	0.142100	0.318300	0.727900
C691	C69	0.093400	0.310700	0.780000
C701	C70	0.036400	0.244600	0.786300
C711	C71	0.069600	0.196000	0.690900
C721	C72	0.126900	0.258700	0.681000
C731	C73	0.140700	0.912500	0.111000
C741	C74	0.201600	0.883000	0.071000
C751	C75	0.243800	0.808700	0.084700
C761	C76	0.214900	0.764500	0.136000
C771	C77	0.156100	0.799900	0.173500
C781	C78	0.316500	0.777200	0.047600
C791	C79	0.331800	0.806200	0.988100
C801	C80	0.400600	0.776700	0.955300
C811	C81	0.455200	0.717600	0.980800
C821	C82	0.439000	0.688000	0.040500
C831	C83	0.370400	0.717400	0.072700
C841	C84	0.494600	0.626500	0.070100
C851	C85	0.591700	0.575500	0.131700
C861	C86	0.661400	0.567300	0.175600
C871	C87	0.665100	0.495000	0.212100
C881	C88	0.731200	0.483600	0.251300
C891	C89	0.793400	0.542800	0.257400
C901	C90	0.792000	0.615600	0.221300
C911	C91	0.725000	0.626900	0.180400
C921	C92	0.857900	0.681700	0.227900
C931	C93	0.906600	0.689300	0.280000
C941	C94	0.963600	0.755400	0.286300
C951	C95	0.930400	0.804000	0.190900
C961	C96	0.873100	0.741300	0.181000
C971	C97	0.912500	0.140700	0.889000
C981	C98	0.883000	0.201600	0.929000
C991	C99	0.808700	0.243800	0.915300
C1001	C100	0.764500	0.214900	0.864000
C1011	C101	0.799900	0.156100	0.826500
C1021	C102	0.777200	0.316500	0.952400
C1031	C103	0.806200	0.331800	0.011900
C1041	C104	0.776700	0.400600	0.044700
C1051	C105	0.717600	0.455200	0.019200
C1061	C106	0.688000	0.439000	0.959500
C1071	C107	0.717400	0.370400	0.927300
C1081	C108	0.626500	0.494600	0.929900
C1091	C109	0.575500	0.591700	0.868300
C1101	C110	0.567300	0.661400	0.824400
C1111	C111	0.495000	0.665100	0.787900
C1121	C112	0.483600	0.731200	0.748700
C1131	C113	0.542800	0.793400	0.742600
C1141	C114	0.615600	0.792000	0.778700
C1151	C115	0.626900	0.725000	0.819600
C1161	C116	0.681700	0.857900	0.772100
C1171	C117	0.689300	0.906600	0.720000
C1181	C118	0.755400	0.963600	0.713700
C1191	C119	0.804000	0.930400	0.809100
C1201	C120	0.741300	0.873100	0.819000
C1211	C121	0.087500	0.859300	0.389000
C1221	C122	0.117000	0.798400	0.429000
C1231	C123	0.191300	0.756200	0.415300
C1241	C124	0.235500	0.785100	0.364000
C1251	C125	0.200100	0.843900	0.326500
C1261	C126	0.222800	0.683500	0.452400
C1271	C127	0.193800	0.668200	0.511900
C1281	C128	0.223300	0.599400	0.544700
C1291	C129	0.282400	0.544800	0.519200
C1301	C130	0.312000	0.561000	0.459500
C1311	C131	0.282600	0.629600	0.427300
C1321	C132	0.373500	0.505400	0.429900
C1331	C133	0.424500	0.408300	0.368300
C1341	C134	0.432700	0.338600	0.324400
C1351	C135	0.505000	0.334900	0.287900
C1361	C136	0.516400	0.268800	0.248700
C1371	C137	0.457200	0.206600	0.242600
C1381	C138	0.384400	0.208000	0.278700
C1391	C139	0.373100	0.275000	0.319600
C1401	C140	0.318300	0.142100	0.272100
C1411	C141	0.310700	0.093400	0.220000
C1421	C142	0.244600	0.036400	0.213700
C1431	C143	0.196000	0.069600	0.309100
C1441	C144	0.258700	0.126900	0.319000
C1451	C145	0.640700	0.587500	0.639000
C1461	C146	0.701600	0.617000	0.679000
C1471	C147	0.743800	0.691300	0.665300
C1481	C148	0.714900	0.735500	0.614000
C1491	C149	0.656100	0.700100	0.576500
C1501	C150	0.816500	0.722800	0.702400
C1511	C151	0.831800	0.693800	0.761900
C1521	C152	0.900600	0.723300	0.794700
C1531	C153	0.955200	0.782400	0.769200
C1541	C154	0.939000	0.812000	0.709500
C1551	C155	0.870400	0.782600	0.677300
C1561	C156	0.994600	0.873500	0.679900
C1571	C157	0.091700	0.924500	0.618300
C1581	C158	0.161400	0.932700	0.574400
C1591	C159	0.165100	0.005000	0.537900
C1601	C160	0.231200	0.016400	0.498700
C1611	C161	0.293400	0.957200	0.492600
C1621	C162	0.292000	0.884400	0.528700
C1631	C163	0.225000	0.873100	0.569600
C1641	C164	0.357900	0.818300	0.522100
C1651	C165	0.406600	0.810700	0.470000
C1661	C166	0.463600	0.744600	0.463700
C1671	C167	0.430400	0.696000	0.559100
C1681	C168	0.373100	0.758700	0.569000
C1691	C169	0.359300	0.412500	0.139000
C1701	C170	0.298400	0.383000	0.179000
C1711	C171	0.256200	0.308700	0.165300
C1721	C172	0.285100	0.264500	0.114000
C1731	C173	0.343900	0.299900	0.076500
C1741	C174	0.183500	0.277200	0.202400
C1751	C175	0.168200	0.306200	0.261900
C1761	C176	0.099400	0.276700	0.294700
C1771	C177	0.044800	0.217600	0.269200
C1781	C178	0.061000	0.188000	0.209500
C1791	C179	0.129600	0.217400	0.177300
C1801	C180	0.005400	0.126500	0.179900
C1811	C181	0.908300	0.075500	0.118300
C1821	C182	0.838600	0.067300	0.074400
C1831	C183	0.834900	0.995000	0.037900
C1841	C184	0.768800	0.983600	0.998700
C1851	C185	0.706600	0.042800	0.992600
C1861	C186	0.708000	0.115600	0.028700
C1871	C187	0.775000	0.126900	0.069600
C1881	C188	0.642100	0.181700	0.022100
C1891	C189	0.593400	0.189300	0.970000
C1901	C190	0.536400	0.255400	0.963700
C1911	C191	0.569600	0.304000	0.059100
C1921	C192	0.626900	0.241300	0.069000
N11	N1	0.625300	0.619600	0.413000
N21	N2	0.955600	0.993900	0.316300
N31	N3	0.987800	0.054900	0.354800
N41	N4	0.851300	0.055500	0.361100
N51	N5	0.769500	0.074000	0.382200
N61	N6	0.687000	0.475500	0.492500
N71	N7	0.374700	0.380400	0.913000
N81	N8	0.044400	0.006100	0.816300
N91	N9	0.012200	0.945100	0.854800
N101	N10	0.148700	0.944500	0.861100
N111	N11	0.230500	0.926000	0.882200
N121	N12	0.313000	0.524500	0.992500
N131	N13	0.880400	0.125300	0.663000
N141	N14	0.506100	0.455600	0.566300
N151	N15	0.445100	0.487800	0.604800
N161	N16	0.444500	0.351300	0.611100
N171	N17	0.426000	0.269500	0.632200
N181	N18	0.024500	0.187000	0.742500
N191	N19	0.119600	0.874700	0.163000
N201	N20	0.493900	0.544400	0.066300
N211	N21	0.554900	0.512200	0.104800
N221	N22	0.555500	0.648700	0.111100
N231	N23	0.574000	0.730500	0.132200
N241	N24	0.975500	0.813000	0.242500
N251	N25	0.874700	0.119600	0.837000
N261	N26	0.544400	0.493900	0.933700
N271	N27	0.512200	0.554900	0.895200
N281	N28	0.648700	0.555500	0.888900
N291	N29	0.730500	0.574000	0.867800
N301	N30	0.813000	0.975500	0.757500
N311	N31	0.125300	0.880400	0.337000
N321	N32	0.455600	0.506100	0.433700
N331	N33	0.487800	0.445100	0.395200
N341	N34	0.351300	0.444500	0.388900
N351	N35	0.269500	0.426000	0.367800
N361	N36	0.187000	0.024500	0.257500
N371	N37	0.619600	0.625300	0.587000
N381	N38	0.993900	0.955600	0.683700
N391	N39	0.054900	0.987800	0.645200
N401	N40	0.055500	0.851300	0.638900
N411	N41	0.074000	0.769500	0.617800
N421	N42	0.475500	0.687000	0.507500
N431	N43	0.380400	0.374700	0.087000
N441	N44	0.006100	0.044400	0.183700
N451	N45	0.945100	0.012200	0.145200
N461	N46	0.944500	0.148700	0.138900
N471	N47	0.926000	0.230500	0.117800
N481	N48	0.524500	0.313000	0.007500
Cl11	Cl1	0.620820	0.379180	0.750000
O11	O1	0.612800	0.323000	0.794000
O21	O2	0.634800	0.441900	0.784500
O31	O3	0.677000	0.387200	0.706000
O41	O4	0.558100	0.365200	0.715500
Cl21	Cl2	0.379180	0.620820	0.250000
O51	O5	0.387200	0.677000	0.294000
O61	O6	0.365200	0.558100	0.284500
O71	O7	0.323000	0.612800	0.206000
O81	O8	0.441900	0.634800	0.215500
Cl31	Cl3	0.120820	0.120820	0.000000
O91	O9	0.177000	0.112800	0.044000
O101	O10	0.058100	0.134800	0.034500
O111	O11	0.112800	0.177000	0.956000
O121	O12	0.134800	0.058100	0.965500
Cl41	Cl4	0.879180	0.879180	0.500000
O131	O13	0.823000	0.887200	0.544000
O141	O14	0.941900	0.865200	0.534500
O151	O15	0.887200	0.823000	0.456000
O161	O16	0.865200	0.941900	0.465500
