data_OKIXIQ01_charged_PM
_symmetry_space_group_name_H-M	'P1'
_cell_length_a	15.872500
_cell_length_b	15.872500
_cell_length_c	21.673000
_cell_angle_alpha	90.000000
_cell_angle_beta	90.000000
_cell_angle_gamma	90.000000
_symmetry_Int_Tables_number 1

loop_
_symmetry_equiv_pos_as_xyz
'x,y,z'

loop_
_atom_site_label
_atom_site_type_symbol
_atom_site_fract_x
_atom_site_fract_y
_atom_site_fract_z
Cd11	Cd1	0.559080	0.559080	0.500000
Cd21	Cd2	0.440920	0.440920	0.000000
Cd31	Cd3	0.940920	0.059080	0.250000
Cd41	Cd4	0.059080	0.940920	0.750000
H11	H1	0.004800	0.241100	0.176400
H21	H2	0.098200	0.352100	0.188200
H31	H3	0.156500	0.261600	0.356900
H41	H4	0.061600	0.155100	0.340900
H51	H5	0.161400	0.465500	0.214100
H61	H6	0.266100	0.566700	0.224400
H71	H7	0.378200	0.547000	0.291000
H81	H8	0.276000	0.324100	0.344800
H91	H9	0.496900	0.301600	0.541300
H101	H10	0.589100	0.203600	0.585700
H111	H11	0.704800	0.153500	0.530600
H121	H12	0.640800	0.304000	0.387700
H131	H13	0.764300	0.290800	0.355500
H141	H14	0.861100	0.231000	0.291200
H151	H15	0.887600	0.036700	0.399600
H161	H16	0.785700	0.087500	0.466400
H171	H17	0.409300	0.237600	0.399800
H181	H18	0.472800	0.247300	0.350100
H191	H19	0.995200	0.758900	0.676400
H201	H20	0.901800	0.647900	0.688200
H211	H21	0.843500	0.738400	0.856900
H221	H22	0.938400	0.844900	0.840900
H231	H23	0.838600	0.534500	0.714100
H241	H24	0.733900	0.433300	0.724400
H251	H25	0.621800	0.453000	0.791000
H261	H26	0.724000	0.675900	0.844800
H271	H27	0.503100	0.698400	0.041300
H281	H28	0.410900	0.796400	0.085700
H291	H29	0.295200	0.846500	0.030600
H301	H30	0.359200	0.696000	0.887700
H311	H31	0.235700	0.709200	0.855500
H321	H32	0.138900	0.769000	0.791200
H331	H33	0.112400	0.963300	0.899600
H341	H34	0.214300	0.912500	0.966400
H351	H35	0.590700	0.762400	0.899800
H361	H36	0.527200	0.752700	0.850100
H371	H37	0.258900	0.504800	0.926400
H381	H38	0.147900	0.598200	0.938200
H391	H39	0.238400	0.656500	0.106900
H401	H40	0.344900	0.561600	0.090900
H411	H41	0.034500	0.661400	0.964100
H421	H42	0.933300	0.766100	0.974400
H431	H43	0.953000	0.878200	0.041000
H441	H44	0.175900	0.776000	0.094800
H451	H45	0.198400	0.996900	0.291300
H461	H46	0.296400	0.089100	0.335700
H471	H47	0.346500	0.204800	0.280600
H481	H48	0.196000	0.140800	0.137700
H491	H49	0.209200	0.264300	0.105500
H501	H50	0.269000	0.361100	0.041200
H511	H51	0.463300	0.387600	0.149600
H521	H52	0.412500	0.285700	0.216400
H531	H53	0.262400	0.909300	0.149800
H541	H54	0.252700	0.972800	0.100100
H551	H55	0.741100	0.495200	0.426400
H561	H56	0.852100	0.401800	0.438200
H571	H57	0.761600	0.343500	0.606900
H581	H58	0.655100	0.438400	0.590900
H591	H59	0.965500	0.338600	0.464100
H601	H60	0.066700	0.233900	0.474400
H611	H61	0.047000	0.121800	0.541000
H621	H62	0.824100	0.224000	0.594800
H631	H63	0.801600	0.003100	0.791300
H641	H64	0.703600	0.910900	0.835700
H651	H65	0.653500	0.795200	0.780600
H661	H66	0.804000	0.859200	0.637700
H671	H67	0.790800	0.735700	0.605500
H681	H68	0.731000	0.638900	0.541200
H691	H69	0.536700	0.612400	0.649600
H701	H70	0.587500	0.714300	0.716400
H711	H71	0.737600	0.090700	0.649800
H721	H72	0.747300	0.027200	0.600100
H731	H73	0.495200	0.741100	0.573600
H741	H74	0.401800	0.852100	0.561800
H751	H75	0.343500	0.761600	0.393100
H761	H76	0.438400	0.655100	0.409100
H771	H77	0.338600	0.965500	0.535900
H781	H78	0.233900	0.066700	0.525600
H791	H79	0.121800	0.047000	0.459000
H801	H80	0.224000	0.824100	0.405200
H811	H81	0.003100	0.801600	0.208700
H821	H82	0.910900	0.703600	0.164300
H831	H83	0.795200	0.653500	0.219400
H841	H84	0.859200	0.804000	0.362300
H851	H85	0.735700	0.790800	0.394500
H861	H86	0.638900	0.731000	0.458800
H871	H87	0.612400	0.536700	0.350400
H881	H88	0.714300	0.587500	0.283600
H891	H89	0.090700	0.737600	0.350200
H901	H90	0.027200	0.747300	0.399900
H911	H91	0.504800	0.258900	0.073600
H921	H92	0.598200	0.147900	0.061800
H931	H93	0.656500	0.238400	0.893100
H941	H94	0.561600	0.344900	0.909100
H951	H95	0.661400	0.034500	0.035900
H961	H96	0.766100	0.933300	0.025600
H971	H97	0.878200	0.953000	0.959000
H981	H98	0.776000	0.175900	0.905200
H991	H99	0.996900	0.198400	0.708700
H1001	H100	0.089100	0.296400	0.664300
H1011	H101	0.204800	0.346500	0.719400
H1021	H102	0.140800	0.196000	0.862300
H1031	H103	0.264300	0.209200	0.894500
H1041	H104	0.361100	0.269000	0.958800
H1051	H105	0.387600	0.463300	0.850400
H1061	H106	0.285700	0.412500	0.783600
H1071	H107	0.909300	0.262400	0.850200
H1081	H108	0.972800	0.252700	0.899900
H1091	H109	0.241100	0.004800	0.823600
H1101	H110	0.352100	0.098200	0.811800
H1111	H111	0.261600	0.156500	0.643100
H1121	H112	0.155100	0.061600	0.659100
H1131	H113	0.465500	0.161400	0.785900
H1141	H114	0.566700	0.266100	0.775600
H1151	H115	0.547000	0.378200	0.709000
H1161	H116	0.324100	0.276000	0.655200
H1171	H117	0.301600	0.496900	0.458700
H1181	H118	0.203600	0.589100	0.414300
H1191	H119	0.153500	0.704800	0.469400
H1201	H120	0.304000	0.640800	0.612300
H1211	H121	0.290800	0.764300	0.644500
H1221	H122	0.231000	0.861100	0.708800
H1231	H123	0.036700	0.887600	0.600400
H1241	H124	0.087500	0.785700	0.533600
H1251	H125	0.237600	0.409300	0.600200
H1261	H126	0.247300	0.472800	0.649900
H1271	H127	0.758900	0.995200	0.323600
H1281	H128	0.647900	0.901800	0.311800
H1291	H129	0.738400	0.843500	0.143100
H1301	H130	0.844900	0.938400	0.159100
H1311	H131	0.534500	0.838600	0.285900
H1321	H132	0.433300	0.733900	0.275600
H1331	H133	0.453000	0.621800	0.209000
H1341	H134	0.675900	0.724000	0.155200
H1351	H135	0.698400	0.503100	0.958700
H1361	H136	0.796400	0.410900	0.914300
H1371	H137	0.846500	0.295200	0.969400
H1381	H138	0.696000	0.359200	0.112300
H1391	H139	0.709200	0.235700	0.144500
H1401	H140	0.769000	0.138900	0.208800
H1411	H141	0.963300	0.112400	0.100400
H1421	H142	0.912500	0.214300	0.033600
H1431	H143	0.762400	0.590700	0.100200
H1441	H144	0.752700	0.527200	0.149900
C11	C1	0.036300	0.245300	0.213600
C21	C2	0.092900	0.311500	0.220200
C31	C3	0.141400	0.318800	0.272500
C41	C4	0.126800	0.258500	0.318900
C51	C5	0.069600	0.195500	0.309100
C61	C6	0.208200	0.384700	0.278700
C71	C7	0.206000	0.457100	0.242700
C81	C8	0.268900	0.516800	0.248500
C91	C9	0.335100	0.505700	0.288100
C101	C10	0.338600	0.433000	0.324200
C111	C11	0.274300	0.373100	0.319600
C121	C12	0.408400	0.425000	0.368300
C131	C13	0.505000	0.374000	0.429700
C141	C14	0.560900	0.312100	0.459700
C151	C15	0.544600	0.282200	0.519000
C161	C16	0.599200	0.223600	0.545100
C171	C17	0.668200	0.193900	0.512500
C181	C18	0.684000	0.223400	0.453000
C191	C19	0.629900	0.282900	0.427900
C201	C20	0.756500	0.191500	0.415400
C211	C21	0.785500	0.236100	0.364200
C221	C22	0.844400	0.200600	0.326900
C231	C23	0.859400	0.087600	0.389200
C241	C24	0.798400	0.117400	0.429600
C251	C25	0.963700	0.754700	0.713600
C261	C26	0.907100	0.688500	0.720200
C271	C27	0.858600	0.681200	0.772500
C281	C28	0.873200	0.741500	0.818900
C291	C29	0.930400	0.804500	0.809100
C301	C30	0.791800	0.615300	0.778700
C311	C31	0.794000	0.542900	0.742700
C321	C32	0.731100	0.483200	0.748500
C331	C33	0.664900	0.494300	0.788100
C341	C34	0.661400	0.567000	0.824200
C351	C35	0.725700	0.626900	0.819600
C361	C36	0.591600	0.575000	0.868300
C371	C37	0.495000	0.626000	0.929700
C381	C38	0.439100	0.687900	0.959700
C391	C39	0.455400	0.717800	0.019000
C401	C40	0.400800	0.776400	0.045100
C411	C41	0.331800	0.806100	0.012500
C421	C42	0.316000	0.776600	0.953000
C431	C43	0.370100	0.717100	0.927900
C441	C44	0.243500	0.808500	0.915400
C451	C45	0.214500	0.763900	0.864200
C461	C46	0.155600	0.799400	0.826900
C471	C47	0.140600	0.912400	0.889200
C481	C48	0.201600	0.882600	0.929600
C491	C49	0.254700	0.536300	0.963600
C501	C50	0.188500	0.592900	0.970200
C511	C51	0.181200	0.641400	0.022500
C521	C52	0.241500	0.626800	0.068900
C531	C53	0.304500	0.569600	0.059100
C541	C54	0.115300	0.708200	0.028700
C551	C55	0.042900	0.706000	0.992700
C561	C56	0.983200	0.768900	0.998500
C571	C57	0.994300	0.835100	0.038100
C581	C58	0.067000	0.838600	0.074200
C591	C59	0.126900	0.774300	0.069600
C601	C60	0.075000	0.908400	0.118300
C611	C61	0.126000	0.005000	0.179700
C621	C62	0.187900	0.060900	0.209700
C631	C63	0.217800	0.044600	0.269000
C641	C64	0.276400	0.099200	0.295100
C651	C65	0.306100	0.168200	0.262500
C661	C66	0.276600	0.184000	0.203000
C671	C67	0.217100	0.129900	0.177900
C681	C68	0.308500	0.256500	0.165400
C691	C69	0.263900	0.285500	0.114200
C701	C70	0.299400	0.344400	0.076900
C711	C71	0.412400	0.359400	0.139200
C721	C72	0.382600	0.298400	0.179600
C731	C73	0.745300	0.463700	0.463600
C741	C74	0.811500	0.407100	0.470200
C751	C75	0.818800	0.358600	0.522500
C761	C76	0.758500	0.373200	0.568900
C771	C77	0.695500	0.430400	0.559100
C781	C78	0.884700	0.291800	0.528700
C791	C79	0.957100	0.294000	0.492700
C801	C80	0.016800	0.231100	0.498500
C811	C81	0.005700	0.164900	0.538100
C821	C82	0.933000	0.161400	0.574200
C831	C83	0.873100	0.225700	0.569600
C841	C84	0.925000	0.091600	0.618300
C851	C85	0.874000	0.995000	0.679700
C861	C86	0.812100	0.939100	0.709700
C871	C87	0.782200	0.955400	0.769000
C881	C88	0.723600	0.900800	0.795100
C891	C89	0.693900	0.831800	0.762500
C901	C90	0.723400	0.816000	0.703000
C911	C91	0.782900	0.870100	0.677900
C921	C92	0.691500	0.743500	0.665400
C931	C93	0.736100	0.714500	0.614200
C941	C94	0.700600	0.655600	0.576900
C951	C95	0.587600	0.640600	0.639200
C961	C96	0.617400	0.701600	0.679600
C971	C97	0.463700	0.745300	0.536400
C981	C98	0.407100	0.811500	0.529800
C991	C99	0.358600	0.818800	0.477500
C1001	C100	0.373200	0.758500	0.431100
C1011	C101	0.430400	0.695500	0.440900
C1021	C102	0.291800	0.884700	0.471300
C1031	C103	0.294000	0.957100	0.507300
C1041	C104	0.231100	0.016800	0.501500
C1051	C105	0.164900	0.005700	0.461900
C1061	C106	0.161400	0.933000	0.425800
C1071	C107	0.225700	0.873100	0.430400
C1081	C108	0.091600	0.925000	0.381700
C1091	C109	0.995000	0.874000	0.320300
C1101	C110	0.939100	0.812100	0.290300
C1111	C111	0.955400	0.782200	0.231000
C1121	C112	0.900800	0.723600	0.204900
C1131	C113	0.831800	0.693900	0.237500
C1141	C114	0.816000	0.723400	0.297000
C1151	C115	0.870100	0.782900	0.322100
C1161	C116	0.743500	0.691500	0.334600
C1171	C117	0.714500	0.736100	0.385800
C1181	C118	0.655600	0.700600	0.423100
C1191	C119	0.640600	0.587600	0.360800
C1201	C120	0.701600	0.617400	0.320400
C1211	C121	0.536300	0.254700	0.036400
C1221	C122	0.592900	0.188500	0.029800
C1231	C123	0.641400	0.181200	0.977500
C1241	C124	0.626800	0.241500	0.931100
C1251	C125	0.569600	0.304500	0.940900
C1261	C126	0.708200	0.115300	0.971300
C1271	C127	0.706000	0.042900	0.007300
C1281	C128	0.768900	0.983200	0.001500
C1291	C129	0.835100	0.994300	0.961900
C1301	C130	0.838600	0.067000	0.925800
C1311	C131	0.774300	0.126900	0.930400
C1321	C132	0.908400	0.075000	0.881700
C1331	C133	0.005000	0.126000	0.820300
C1341	C134	0.060900	0.187900	0.790300
C1351	C135	0.044600	0.217800	0.731000
C1361	C136	0.099200	0.276400	0.704900
C1371	C137	0.168200	0.306100	0.737500
C1381	C138	0.184000	0.276600	0.797000
C1391	C139	0.129900	0.217100	0.822100
C1401	C140	0.256500	0.308500	0.834600
C1411	C141	0.285500	0.263900	0.885800
C1421	C142	0.344400	0.299400	0.923100
C1431	C143	0.359400	0.412400	0.860800
C1441	C144	0.298400	0.382600	0.820400
C1451	C145	0.245300	0.036300	0.786400
C1461	C146	0.311500	0.092900	0.779800
C1471	C147	0.318800	0.141400	0.727500
C1481	C148	0.258500	0.126800	0.681100
C1491	C149	0.195500	0.069600	0.690900
C1501	C150	0.384700	0.208200	0.721300
C1511	C151	0.457100	0.206000	0.757300
C1521	C152	0.516800	0.268900	0.751500
C1531	C153	0.505700	0.335100	0.711900
C1541	C154	0.433000	0.338600	0.675800
C1551	C155	0.373100	0.274300	0.680400
C1561	C156	0.425000	0.408400	0.631700
C1571	C157	0.374000	0.505000	0.570300
C1581	C158	0.312100	0.560900	0.540300
C1591	C159	0.282200	0.544600	0.481000
C1601	C160	0.223600	0.599200	0.454900
C1611	C161	0.193900	0.668200	0.487500
C1621	C162	0.223400	0.684000	0.547000
C1631	C163	0.282900	0.629900	0.572100
C1641	C164	0.191500	0.756500	0.584600
C1651	C165	0.236100	0.785500	0.635800
C1661	C166	0.200600	0.844400	0.673100
C1671	C167	0.087600	0.859400	0.610800
C1681	C168	0.117400	0.798400	0.570400
C1691	C169	0.754700	0.963700	0.286400
C1701	C170	0.688500	0.907100	0.279800
C1711	C171	0.681200	0.858600	0.227500
C1721	C172	0.741500	0.873200	0.181100
C1731	C173	0.804500	0.930400	0.190900
C1741	C174	0.615300	0.791800	0.221300
C1751	C175	0.542900	0.794000	0.257300
C1761	C176	0.483200	0.731100	0.251500
C1771	C177	0.494300	0.664900	0.211900
C1781	C178	0.567000	0.661400	0.175800
C1791	C179	0.626900	0.725700	0.180400
C1801	C180	0.575000	0.591600	0.131700
C1811	C181	0.626000	0.495000	0.070300
C1821	C182	0.687900	0.439100	0.040300
C1831	C183	0.717800	0.455400	0.981000
C1841	C184	0.776400	0.400800	0.954900
C1851	C185	0.806100	0.331800	0.987500
C1861	C186	0.776600	0.316000	0.047000
C1871	C187	0.717100	0.370100	0.072100
C1881	C188	0.808500	0.243500	0.084600
C1891	C189	0.763900	0.214500	0.135800
C1901	C190	0.799400	0.155600	0.173100
C1911	C191	0.912400	0.140600	0.110800
C1921	C192	0.882600	0.201600	0.070400
N11	N1	0.024300	0.187500	0.257400
N21	N2	0.445200	0.488000	0.395000
N31	N3	0.506300	0.456100	0.433400
N41	N4	0.444600	0.351300	0.389000
N51	N5	0.426000	0.270100	0.367500
N61	N6	0.880600	0.125600	0.337200
N71	N7	0.975700	0.812500	0.757400
N81	N8	0.554800	0.512000	0.895000
N91	N9	0.493700	0.543900	0.933400
N101	N10	0.555400	0.648700	0.889000
N111	N11	0.574000	0.729900	0.867500
N121	N12	0.119400	0.874400	0.837200
N131	N13	0.312500	0.524300	0.007400
N141	N14	0.012000	0.945200	0.145000
N151	N15	0.043900	0.006300	0.183400
N161	N16	0.148700	0.944600	0.139000
N171	N17	0.229900	0.926000	0.117500
N181	N18	0.374400	0.380600	0.087200
N191	N19	0.687500	0.475700	0.507400
N201	N20	0.988000	0.054800	0.645000
N211	N21	0.956100	0.993700	0.683400
N221	N22	0.851300	0.055400	0.639000
N231	N23	0.770100	0.074000	0.617500
N241	N24	0.625600	0.619400	0.587200
N251	N25	0.475700	0.687500	0.492600
N261	N26	0.054800	0.988000	0.355000
N271	N27	0.993700	0.956100	0.316600
N281	N28	0.055400	0.851300	0.361000
N291	N29	0.074000	0.770100	0.382500
N301	N30	0.619400	0.625600	0.412800
N311	N31	0.524300	0.312500	0.992600
N321	N32	0.945200	0.012000	0.855000
N331	N33	0.006300	0.043900	0.816600
N341	N34	0.944600	0.148700	0.861000
N351	N35	0.926000	0.229900	0.882500
N361	N36	0.380600	0.374400	0.912800
N371	N37	0.187500	0.024300	0.742600
N381	N38	0.488000	0.445200	0.605000
N391	N39	0.456100	0.506300	0.566600
N401	N40	0.351300	0.444600	0.611000
N411	N41	0.270100	0.426000	0.632500
N421	N42	0.125600	0.880600	0.662800
N431	N43	0.812500	0.975700	0.242600
N441	N44	0.512000	0.554800	0.105000
N451	N45	0.543900	0.493700	0.066600
N461	N46	0.648700	0.555400	0.111000
N471	N47	0.729900	0.574000	0.132500
N481	N48	0.874400	0.119400	0.162800
Cl11	Cl1	0.121840	0.121840	0.000000
O11	O1	0.111000	0.177300	0.045400
O21	O2	0.135500	0.058800	0.034500
O31	O3	0.177300	0.111000	0.954600
O41	O4	0.058800	0.135500	0.965500
Cl21	Cl2	0.878160	0.878160	0.500000
O51	O5	0.889000	0.822700	0.545400
O61	O6	0.864500	0.941200	0.534500
O71	O7	0.822700	0.889000	0.454600
O81	O8	0.941200	0.864500	0.465500
Cl31	Cl3	0.378160	0.621840	0.750000
O91	O9	0.322700	0.611000	0.795400
O101	O10	0.441200	0.635500	0.784500
O111	O11	0.389000	0.677300	0.704600
O121	O12	0.364500	0.558800	0.715500
Cl41	Cl4	0.621840	0.378160	0.250000
O131	O13	0.677300	0.389000	0.295400
O141	O14	0.558800	0.364500	0.284500
O151	O15	0.611000	0.322700	0.204600
O161	O16	0.635500	0.441200	0.215500
