data_OKIYIR01_charged_PM
_symmetry_space_group_name_H-M	'P1'
_cell_length_a	15.854800
_cell_length_b	15.854800
_cell_length_c	21.746000
_cell_angle_alpha	90.000000
_cell_angle_beta	90.000000
_cell_angle_gamma	90.000000
_symmetry_Int_Tables_number 1

loop_
_symmetry_equiv_pos_as_xyz
'x,y,z'

loop_
_atom_site_label
_atom_site_type_symbol
_atom_site_fract_x
_atom_site_fract_y
_atom_site_fract_z
Cd11	Cd1	0.059730	0.940270	0.250000
Cd21	Cd2	0.940270	0.059730	0.750000
Cd31	Cd3	0.559730	0.559730	0.500000
Cd41	Cd4	0.440270	0.440270	0.000000
H11	H1	0.743100	0.495400	0.571100
H21	H2	0.853800	0.403500	0.558900
H31	H3	0.763900	0.345500	0.393400
H41	H4	0.657600	0.440300	0.408800
H51	H5	0.967000	0.336400	0.534300
H61	H6	0.066600	0.234200	0.524400
H71	H7	0.046400	0.120700	0.459000
H81	H8	0.825700	0.223300	0.405000
H91	H9	0.801500	0.001900	0.208900
H101	H10	0.705200	0.909900	0.164300
H111	H11	0.656500	0.794800	0.218700
H121	H12	0.804200	0.859300	0.360400
H131	H13	0.587900	0.714200	0.284200
H141	H14	0.536200	0.614400	0.350700
H151	H15	0.732000	0.639700	0.457300
H161	H16	0.789600	0.736500	0.394000
H171	H17	0.741800	0.026500	0.386500
H181	H18	0.743200	0.105900	0.353000
H191	H19	0.256900	0.504600	0.071100
H201	H20	0.146200	0.596500	0.058900
H211	H21	0.236100	0.654500	0.893400
H221	H22	0.342400	0.559700	0.908800
H231	H23	0.033000	0.663600	0.034300
H241	H24	0.933400	0.765800	0.024400
H251	H25	0.953600	0.879300	0.959000
H261	H26	0.174300	0.776700	0.905000
H271	H27	0.198500	0.998100	0.708900
H281	H28	0.294800	0.090100	0.664300
H291	H29	0.343500	0.205200	0.718700
H301	H30	0.195800	0.140700	0.860400
H311	H31	0.412100	0.285800	0.784200
H321	H32	0.463800	0.385600	0.850700
H331	H33	0.268000	0.360300	0.957300
H341	H34	0.210400	0.263500	0.894000
H351	H35	0.258200	0.973500	0.886500
H361	H36	0.256800	0.894100	0.853000
H371	H37	0.004600	0.243100	0.821100
H381	H38	0.096500	0.353800	0.808900
H391	H39	0.154500	0.263900	0.643400
H401	H40	0.059700	0.157600	0.658800
H411	H41	0.163600	0.467000	0.784300
H421	H42	0.265800	0.566600	0.774400
H431	H43	0.379300	0.546400	0.709000
H441	H44	0.276700	0.325700	0.655000
H451	H45	0.498100	0.301500	0.458900
H461	H46	0.590100	0.205200	0.414300
H471	H47	0.705200	0.156500	0.468700
H481	H48	0.640700	0.304200	0.610400
H491	H49	0.785800	0.087900	0.534200
H501	H50	0.885600	0.036200	0.600700
H511	H51	0.860300	0.232000	0.707300
H521	H52	0.763500	0.289600	0.644000
H531	H53	0.473500	0.241800	0.636500
H541	H54	0.394100	0.243200	0.603000
H551	H55	0.995400	0.756900	0.321100
H561	H56	0.903500	0.646200	0.308900
H571	H57	0.845500	0.736100	0.143400
H581	H58	0.940300	0.842400	0.158800
H591	H59	0.836400	0.533000	0.284300
H601	H60	0.734200	0.433400	0.274400
H611	H61	0.620700	0.453600	0.209000
H621	H62	0.723300	0.674300	0.155000
H631	H63	0.501900	0.698500	0.958900
H641	H64	0.409900	0.794800	0.914300
H651	H65	0.294800	0.843500	0.968700
H661	H66	0.359300	0.695800	0.110400
H671	H67	0.214200	0.912100	0.034200
H681	H68	0.114400	0.963800	0.100700
H691	H69	0.139700	0.768000	0.207300
H701	H70	0.236500	0.710400	0.144000
H711	H71	0.526500	0.758200	0.136500
H721	H72	0.605900	0.756800	0.103000
H731	H73	0.756900	0.995400	0.678900
H741	H74	0.646200	0.903500	0.691100
H751	H75	0.736100	0.845500	0.856600
H761	H76	0.842400	0.940300	0.841200
H771	H77	0.533000	0.836400	0.715700
H781	H78	0.433400	0.734200	0.725600
H791	H79	0.453600	0.620700	0.791000
H801	H80	0.674300	0.723300	0.845000
H811	H81	0.698500	0.501900	0.041100
H821	H82	0.794800	0.409900	0.085700
H831	H83	0.843500	0.294800	0.031300
H841	H84	0.695800	0.359300	0.889600
H851	H85	0.912100	0.214200	0.965800
H861	H86	0.963800	0.114400	0.899300
H871	H87	0.768000	0.139700	0.792700
H881	H88	0.710400	0.236500	0.856000
H891	H89	0.758200	0.526500	0.863500
H901	H90	0.756800	0.605900	0.897000
H911	H91	0.243100	0.004600	0.178900
H921	H92	0.353800	0.096500	0.191100
H931	H93	0.263900	0.154500	0.356600
H941	H94	0.157600	0.059700	0.341200
H951	H95	0.467000	0.163600	0.215700
H961	H96	0.566600	0.265800	0.225600
H971	H97	0.546400	0.379300	0.291000
H981	H98	0.325700	0.276700	0.345000
H991	H99	0.301500	0.498100	0.541100
H1001	H100	0.205200	0.590100	0.585700
H1011	H101	0.156500	0.705200	0.531300
H1021	H102	0.304200	0.640700	0.389600
H1031	H103	0.087900	0.785800	0.465800
H1041	H104	0.036200	0.885600	0.399300
H1051	H105	0.232000	0.860300	0.292700
H1061	H106	0.289600	0.763500	0.356000
H1071	H107	0.241800	0.473500	0.363500
H1081	H108	0.243200	0.394100	0.397000
H1091	H109	0.495400	0.743100	0.428900
H1101	H110	0.403500	0.853800	0.441100
H1111	H111	0.345500	0.763900	0.606600
H1121	H112	0.440300	0.657600	0.591200
H1131	H113	0.336400	0.967000	0.465700
H1141	H114	0.234200	0.066600	0.475600
H1151	H115	0.120700	0.046400	0.541000
H1161	H116	0.223300	0.825700	0.595000
H1171	H117	0.001900	0.801500	0.791100
H1181	H118	0.909900	0.705200	0.835700
H1191	H119	0.794800	0.656500	0.781300
H1201	H120	0.859300	0.804200	0.639600
H1211	H121	0.714200	0.587900	0.715800
H1221	H122	0.614400	0.536200	0.649300
H1231	H123	0.639700	0.732000	0.542700
H1241	H124	0.736500	0.789600	0.606000
H1251	H125	0.026500	0.741800	0.613500
H1261	H126	0.105900	0.743200	0.647000
H1271	H127	0.504600	0.256900	0.928900
H1281	H128	0.596500	0.146200	0.941100
H1291	H129	0.654500	0.236100	0.106600
H1301	H130	0.559700	0.342400	0.091200
H1311	H131	0.663600	0.033000	0.965700
H1321	H132	0.765800	0.933400	0.975600
H1331	H133	0.879300	0.953600	0.041000
H1341	H134	0.776700	0.174300	0.095000
H1351	H135	0.998100	0.198500	0.291100
H1361	H136	0.090100	0.294800	0.335700
H1371	H137	0.205200	0.343500	0.281300
H1381	H138	0.140700	0.195800	0.139600
H1391	H139	0.285800	0.412100	0.215800
H1401	H140	0.385600	0.463800	0.149300
H1411	H141	0.360300	0.268000	0.042700
H1421	H142	0.263500	0.210400	0.106000
H1431	H143	0.973500	0.258200	0.113500
H1441	H144	0.894100	0.256800	0.147000
C11	C1	0.747000	0.464500	0.534800
C21	C2	0.813500	0.408100	0.528000
C31	C3	0.820100	0.359500	0.476400
C41	C4	0.760600	0.374500	0.430500
C51	C5	0.696800	0.432000	0.440100
C61	C6	0.885900	0.293000	0.470200
C71	C7	0.958600	0.293100	0.506100
C81	C8	0.017700	0.231100	0.500900
C91	C9	0.006500	0.163600	0.461300
C101	C10	0.933500	0.161400	0.424700
C111	C11	0.874000	0.225300	0.429300
C121	C12	0.924800	0.091100	0.381210
C131	C13	0.874300	0.995500	0.319600
C141	C14	0.812800	0.938600	0.289100
C151	C15	0.782800	0.954800	0.230400
C161	C16	0.724600	0.900100	0.204000
C171	C17	0.695500	0.831000	0.236600
C181	C18	0.724000	0.815300	0.296100
C191	C19	0.783600	0.869700	0.321100
C201	C20	0.693200	0.742800	0.333400
C211	C21	0.617400	0.701400	0.319900
C221	C22	0.586700	0.641300	0.360300
C231	C23	0.701700	0.656000	0.422700
C241	C24	0.736500	0.714800	0.385100
C251	C25	0.253000	0.535500	0.034800
C261	C26	0.186500	0.591900	0.028000
C271	C27	0.179900	0.640500	0.976400
C281	C28	0.239400	0.625500	0.930500
C291	C29	0.303200	0.568000	0.940100
C301	C30	0.114100	0.707000	0.970200
C311	C31	0.041400	0.706900	0.006100
C321	C32	0.982300	0.768900	0.000900
C331	C33	0.993500	0.836400	0.961300
C341	C34	0.066500	0.838600	0.924700
C351	C35	0.126000	0.774700	0.929300
C361	C36	0.075200	0.908900	0.881210
C371	C37	0.125700	0.004500	0.819600
C381	C38	0.187200	0.061400	0.789100
C391	C39	0.217200	0.045200	0.730400
C401	C40	0.275400	0.099900	0.704000
C411	C41	0.304500	0.169000	0.736600
C421	C42	0.276000	0.184700	0.796100
C431	C43	0.216400	0.130300	0.821100
C441	C44	0.306800	0.257200	0.833400
C451	C45	0.382600	0.298600	0.819900
C461	C46	0.413300	0.358700	0.860300
C471	C47	0.298300	0.344000	0.922700
C481	C48	0.263500	0.285200	0.885100
C491	C49	0.035500	0.247000	0.784800
C501	C50	0.091900	0.313500	0.778000
C511	C51	0.140500	0.320100	0.726400
C521	C52	0.125500	0.260600	0.680500
C531	C53	0.068000	0.196800	0.690100
C541	C54	0.207000	0.385900	0.720200
C551	C55	0.206900	0.458600	0.756100
C561	C56	0.268900	0.517700	0.750900
C571	C57	0.336400	0.506500	0.711300
C581	C58	0.338600	0.433500	0.674700
C591	C59	0.274700	0.374000	0.679300
C601	C60	0.408900	0.424800	0.631210
C611	C61	0.504500	0.374300	0.569600
C621	C62	0.561400	0.312800	0.539100
C631	C63	0.545200	0.282800	0.480400
C641	C64	0.599900	0.224600	0.454000
C651	C65	0.669000	0.195500	0.486600
C661	C66	0.684700	0.224000	0.546100
C671	C67	0.630300	0.283600	0.571100
C681	C68	0.757200	0.193200	0.583400
C691	C69	0.798600	0.117400	0.569900
C701	C70	0.858700	0.086700	0.610300
C711	C71	0.844000	0.201700	0.672700
C721	C72	0.785200	0.236500	0.635100
C731	C73	0.964500	0.753000	0.284800
C741	C74	0.908100	0.686500	0.278000
C751	C75	0.859500	0.679900	0.226400
C761	C76	0.874500	0.739400	0.180500
C771	C77	0.932000	0.803200	0.190100
C781	C78	0.793000	0.614100	0.220200
C791	C79	0.793100	0.541400	0.256100
C801	C80	0.731100	0.482300	0.250900
C811	C81	0.663600	0.493500	0.211300
C821	C82	0.661400	0.566500	0.174700
C831	C83	0.725300	0.626000	0.179300
C841	C84	0.591100	0.575200	0.131210
C851	C85	0.495500	0.625700	0.069600
C861	C86	0.438600	0.687200	0.039100
C871	C87	0.454800	0.717200	0.980400
C881	C88	0.400100	0.775400	0.954000
C891	C89	0.331000	0.804500	0.986600
C901	C90	0.315300	0.776000	0.046100
C911	C91	0.369700	0.716400	0.071100
C921	C92	0.242800	0.806800	0.083400
C931	C93	0.201400	0.882600	0.069900
C941	C94	0.141300	0.913300	0.110300
C951	C95	0.156000	0.798300	0.172700
C961	C96	0.214800	0.763500	0.135100
C971	C97	0.753000	0.964500	0.715200
C981	C98	0.686500	0.908100	0.722000
C991	C99	0.679900	0.859500	0.773600
C1001	C100	0.739400	0.874500	0.819500
C1011	C101	0.803200	0.932000	0.809900
C1021	C102	0.614100	0.793000	0.779800
C1031	C103	0.541400	0.793100	0.743900
C1041	C104	0.482300	0.731100	0.749100
C1051	C105	0.493500	0.663600	0.788700
C1061	C106	0.566500	0.661400	0.825300
C1071	C107	0.626000	0.725300	0.820700
C1081	C108	0.575200	0.591100	0.868790
C1091	C109	0.625700	0.495500	0.930400
C1101	C110	0.687200	0.438600	0.960900
C1111	C111	0.717200	0.454800	0.019600
C1121	C112	0.775400	0.400100	0.046000
C1131	C113	0.804500	0.331000	0.013400
C1141	C114	0.776000	0.315300	0.953900
C1151	C115	0.716400	0.369700	0.928900
C1161	C116	0.806800	0.242800	0.916600
C1171	C117	0.882600	0.201400	0.930100
C1181	C118	0.913300	0.141300	0.889700
C1191	C119	0.798300	0.156000	0.827300
C1201	C120	0.763500	0.214800	0.864900
C1211	C121	0.247000	0.035500	0.215200
C1221	C122	0.313500	0.091900	0.222000
C1231	C123	0.320100	0.140500	0.273600
C1241	C124	0.260600	0.125500	0.319500
C1251	C125	0.196800	0.068000	0.309900
C1261	C126	0.385900	0.207000	0.279800
C1271	C127	0.458600	0.206900	0.243900
C1281	C128	0.517700	0.268900	0.249100
C1291	C129	0.506500	0.336400	0.288700
C1301	C130	0.433500	0.338600	0.325300
C1311	C131	0.374000	0.274700	0.320700
C1321	C132	0.424800	0.408900	0.368790
C1331	C133	0.374300	0.504500	0.430400
C1341	C134	0.312800	0.561400	0.460900
C1351	C135	0.282800	0.545200	0.519600
C1361	C136	0.224600	0.599900	0.546000
C1371	C137	0.195500	0.669000	0.513400
C1381	C138	0.224000	0.684700	0.453900
C1391	C139	0.283600	0.630300	0.428900
C1401	C140	0.193200	0.757200	0.416600
C1411	C141	0.117400	0.798600	0.430100
C1421	C142	0.086700	0.858700	0.389700
C1431	C143	0.201700	0.844000	0.327300
C1441	C144	0.236500	0.785200	0.364900
C1451	C145	0.464500	0.747000	0.465200
C1461	C146	0.408100	0.813500	0.472000
C1471	C147	0.359500	0.820100	0.523600
C1481	C148	0.374500	0.760600	0.569500
C1491	C149	0.432000	0.696800	0.559900
C1501	C150	0.293000	0.885900	0.529800
C1511	C151	0.293100	0.958600	0.493900
C1521	C152	0.231100	0.017700	0.499100
C1531	C153	0.163600	0.006500	0.538700
C1541	C154	0.161400	0.933500	0.575300
C1551	C155	0.225300	0.874000	0.570700
C1561	C156	0.091100	0.924800	0.618790
C1571	C157	0.995500	0.874300	0.680400
C1581	C158	0.938600	0.812800	0.710900
C1591	C159	0.954800	0.782800	0.769600
C1601	C160	0.900100	0.724600	0.796000
C1611	C161	0.831000	0.695500	0.763400
C1621	C162	0.815300	0.724000	0.703900
C1631	C163	0.869700	0.783600	0.678900
C1641	C164	0.742800	0.693200	0.666600
C1651	C165	0.701400	0.617400	0.680100
C1661	C166	0.641300	0.586700	0.639700
C1671	C167	0.656000	0.701700	0.577300
C1681	C168	0.714800	0.736500	0.614900
C1691	C169	0.535500	0.253000	0.965200
C1701	C170	0.591900	0.186500	0.972000
C1711	C171	0.640500	0.179900	0.023600
C1721	C172	0.625500	0.239400	0.069500
C1731	C173	0.568000	0.303200	0.059900
C1741	C174	0.707000	0.114100	0.029800
C1751	C175	0.706900	0.041400	0.993900
C1761	C176	0.768900	0.982300	0.999100
C1771	C177	0.836400	0.993500	0.038700
C1781	C178	0.838600	0.066500	0.075300
C1791	C179	0.774700	0.126000	0.070700
C1801	C180	0.908900	0.075200	0.118790
C1811	C181	0.004500	0.125700	0.180400
C1821	C182	0.061400	0.187200	0.210900
C1831	C183	0.045200	0.217200	0.269600
C1841	C184	0.099900	0.275400	0.296000
C1851	C185	0.169000	0.304500	0.263400
C1861	C186	0.184700	0.276000	0.203900
C1871	C187	0.130300	0.216400	0.178900
C1881	C188	0.257200	0.306800	0.166600
C1891	C189	0.298600	0.382600	0.180100
C1901	C190	0.358700	0.413300	0.139700
C1911	C191	0.344000	0.298300	0.077300
C1921	C192	0.285200	0.263500	0.114900
N11	N1	0.688300	0.476300	0.491350
N21	N2	0.988800	0.054000	0.354950
N31	N3	0.956200	0.993300	0.316330
N41	N4	0.851700	0.056400	0.360010
N51	N5	0.769800	0.074600	0.380900
N61	N6	0.626200	0.619900	0.412950
N71	N7	0.311700	0.523700	0.991350
N81	N8	0.011200	0.946000	0.854950
N91	N9	0.043800	0.006700	0.816330
N101	N10	0.148300	0.943600	0.860010
N111	N11	0.230200	0.925400	0.880900
N121	N12	0.373800	0.380100	0.912950
N131	N13	0.023700	0.188300	0.741350
N141	N14	0.446000	0.488800	0.604950
N151	N15	0.506700	0.456200	0.566330
N161	N16	0.443600	0.351700	0.610010
N171	N17	0.425400	0.269800	0.630900
N181	N18	0.880100	0.126200	0.662950
N191	N19	0.976300	0.811700	0.241350
N201	N20	0.554000	0.511200	0.104950
N211	N21	0.493300	0.543800	0.066330
N221	N22	0.556400	0.648300	0.110010
N231	N23	0.574600	0.730200	0.130900
N241	N24	0.119900	0.873800	0.162950
N251	N25	0.811700	0.976300	0.758650
N261	N26	0.511200	0.554000	0.895050
N271	N27	0.543800	0.493300	0.933670
N281	N28	0.648300	0.556400	0.889990
N291	N29	0.730200	0.574600	0.869100
N301	N30	0.873800	0.119900	0.837050
N311	N31	0.188300	0.023700	0.258650
N321	N32	0.488800	0.446000	0.395050
N331	N33	0.456200	0.506700	0.433670
N341	N34	0.351700	0.443600	0.389990
N351	N35	0.269800	0.425400	0.369100
N361	N36	0.126200	0.880100	0.337050
N371	N37	0.476300	0.688300	0.508650
N381	N38	0.054000	0.988800	0.645050
N391	N39	0.993300	0.956200	0.683670
N401	N40	0.056400	0.851700	0.639990
N411	N41	0.074600	0.769800	0.619100
N421	N42	0.619900	0.626200	0.587050
N431	N43	0.523700	0.311700	0.008650
N441	N44	0.946000	0.011200	0.145050
N451	N45	0.006700	0.043800	0.183670
N461	N46	0.943600	0.148300	0.139990
N471	N47	0.925400	0.230200	0.119100
N481	N48	0.380100	0.373800	0.087050
Cl11	Cl1	0.626470	0.373530	0.750000
O11	O1	0.631300	0.443000	0.788000
O21	O2	0.668700	0.405900	0.699400
O31	O3	0.557000	0.368700	0.712000
O41	O4	0.594100	0.331300	0.800600
Cl21	Cl2	0.373530	0.626470	0.250000
O51	O5	0.368700	0.557000	0.288000
O61	O6	0.331300	0.594100	0.199400
O71	O7	0.443000	0.631300	0.212000
O81	O8	0.405900	0.668700	0.300600
Cl31	Cl3	0.126470	0.126470	0.000000
O91	O9	0.057000	0.131300	0.038000
O101	O10	0.094100	0.168700	0.949400
O111	O11	0.131300	0.057000	0.962000
O121	O12	0.168700	0.094100	0.050600
Cl41	Cl4	0.873530	0.873530	0.500000
O131	O13	0.943000	0.868700	0.538000
O141	O14	0.905900	0.831300	0.449400
O151	O15	0.868700	0.943000	0.462000
O161	O16	0.831300	0.905900	0.550600
