data_OKIYAJ_charged_PM
_symmetry_space_group_name_H-M	'P1'
_cell_length_a	15.880000
_cell_length_b	15.880000
_cell_length_c	21.505000
_cell_angle_alpha	90.000000
_cell_angle_beta	90.000000
_cell_angle_gamma	90.000000
_symmetry_Int_Tables_number 1

loop_
_symmetry_equiv_pos_as_xyz
'x,y,z'

loop_
_atom_site_label
_atom_site_type_symbol
_atom_site_fract_x
_atom_site_fract_y
_atom_site_fract_z
Cd11	Cd1	0.441150	0.558850	0.250000
Cd21	Cd2	0.558850	0.441150	0.750000
Cd31	Cd3	0.941150	0.941150	0.500000
Cd41	Cd4	0.058850	0.058850	0.000000
H11	H1	0.768300	0.860000	0.461100
H21	H2	0.710700	0.758600	0.396700
H31	H3	0.910800	0.785300	0.282500
H41	H4	0.959700	0.889300	0.349000
H51	H5	0.694900	0.638700	0.362600
H61	H6	0.700400	0.493300	0.208800
H71	H7	0.797700	0.585800	0.164400
H81	H8	0.848300	0.700200	0.220100
H91	H9	0.450400	0.375400	0.458500
H101	H10	0.430600	0.262800	0.526800
H111	H11	0.532900	0.159000	0.536800
H121	H12	0.674300	0.276100	0.408000
H131	H13	0.651200	0.099200	0.564200
H141	H14	0.763000	0.008900	0.575000
H151	H15	0.840400	0.058600	0.407000
H161	H16	0.731700	0.153200	0.391700
H171	H17	0.754300	0.473500	0.394000
H181	H18	0.758500	0.397700	0.354200
H191	H19	0.231700	0.140000	0.961100
H201	H20	0.289300	0.241400	0.896700
H211	H21	0.089200	0.214700	0.782500
H221	H22	0.040300	0.110700	0.849000
H231	H23	0.305100	0.361300	0.862600
H241	H24	0.299600	0.506700	0.708800
H251	H25	0.202300	0.414200	0.664400
H261	H26	0.151700	0.299800	0.720100
H271	H27	0.549600	0.624600	0.958500
H281	H28	0.569400	0.737200	0.026800
H291	H29	0.467100	0.841000	0.036800
H301	H30	0.325700	0.723900	0.908000
H311	H31	0.348800	0.900800	0.064200
H321	H32	0.237000	0.991100	0.075000
H331	H33	0.159600	0.941400	0.907000
H341	H34	0.268300	0.846800	0.891700
H351	H35	0.245700	0.526500	0.894000
H361	H36	0.241500	0.602300	0.854200
H371	H37	0.640000	0.268300	0.711100
H381	H38	0.741400	0.210700	0.646700
H391	H39	0.714700	0.410800	0.532500
H401	H40	0.610700	0.459700	0.599000
H411	H41	0.861300	0.194900	0.612600
H421	H42	0.006700	0.200400	0.458800
H431	H43	0.914200	0.297700	0.414400
H441	H44	0.799800	0.348300	0.470100
H451	H45	0.124600	0.950400	0.708500
H461	H46	0.237200	0.930600	0.776800
H471	H47	0.341000	0.032900	0.786800
H481	H48	0.223900	0.174300	0.658000
H491	H49	0.400800	0.151200	0.814200
H501	H50	0.491100	0.263000	0.825000
H511	H51	0.441400	0.340400	0.657000
H521	H52	0.346800	0.231700	0.641700
H531	H53	0.026500	0.254300	0.644000
H541	H54	0.102300	0.258500	0.604200
H551	H55	0.360000	0.731700	0.211100
H561	H56	0.258600	0.789300	0.146700
H571	H57	0.285300	0.589200	0.032500
H581	H58	0.389300	0.540300	0.099000
H591	H59	0.138700	0.805100	0.112600
H601	H60	0.993300	0.799600	0.958800
H611	H61	0.085800	0.702300	0.914400
H621	H62	0.200200	0.651700	0.970100
H631	H63	0.875400	0.049600	0.208500
H641	H64	0.762800	0.069400	0.276800
H651	H65	0.659000	0.967100	0.286800
H661	H66	0.776100	0.825700	0.158000
H671	H67	0.599200	0.848800	0.314200
H681	H68	0.508900	0.737000	0.325000
H691	H69	0.558600	0.659600	0.157000
H701	H70	0.653200	0.768300	0.141700
H711	H71	0.973500	0.745700	0.144000
H721	H72	0.897700	0.741500	0.104200
H731	H73	0.731700	0.360000	0.788900
H741	H74	0.789300	0.258600	0.853300
H751	H75	0.589200	0.285300	0.967500
H761	H76	0.540300	0.389300	0.901000
H771	H77	0.805100	0.138700	0.887400
H781	H78	0.799600	0.993300	0.041200
H791	H79	0.702300	0.085800	0.085600
H801	H80	0.651700	0.200200	0.029900
H811	H81	0.049600	0.875400	0.791500
H821	H82	0.069400	0.762800	0.723200
H831	H83	0.967100	0.659000	0.713200
H841	H84	0.825700	0.776100	0.842000
H851	H85	0.848800	0.599200	0.685800
H861	H86	0.737000	0.508900	0.675000
H871	H87	0.659600	0.558600	0.843000
H881	H88	0.768300	0.653200	0.858300
H891	H89	0.745700	0.973500	0.856000
H901	H90	0.741500	0.897700	0.895800
H911	H91	0.268300	0.640000	0.288900
H921	H92	0.210700	0.741400	0.353300
H931	H93	0.410800	0.714700	0.467500
H941	H94	0.459700	0.610700	0.401000
H951	H95	0.194900	0.861300	0.387400
H961	H96	0.200400	0.006700	0.541200
H971	H97	0.297700	0.914200	0.585600
H981	H98	0.348300	0.799800	0.529900
H991	H99	0.950400	0.124600	0.291500
H1001	H100	0.930600	0.237200	0.223200
H1011	H101	0.032900	0.341000	0.213200
H1021	H102	0.174300	0.223900	0.342000
H1031	H103	0.151200	0.400800	0.185800
H1041	H104	0.263000	0.491100	0.175000
H1051	H105	0.340400	0.441400	0.343000
H1061	H106	0.231700	0.346800	0.358300
H1071	H107	0.254300	0.026500	0.356000
H1081	H108	0.258500	0.102300	0.395800
H1091	H109	0.860000	0.768300	0.538900
H1101	H110	0.758600	0.710700	0.603300
H1111	H111	0.785300	0.910800	0.717500
H1121	H112	0.889300	0.959700	0.651000
H1131	H113	0.638700	0.694900	0.637400
H1141	H114	0.493300	0.700400	0.791200
H1151	H115	0.585800	0.797700	0.835600
H1161	H116	0.700200	0.848300	0.779900
H1171	H117	0.375400	0.450400	0.541500
H1181	H118	0.262800	0.430600	0.473200
H1191	H119	0.159000	0.532900	0.463200
H1201	H120	0.276100	0.674300	0.592000
H1211	H121	0.099200	0.651200	0.435800
H1221	H122	0.008900	0.763000	0.425000
H1231	H123	0.058600	0.840400	0.593000
H1241	H124	0.153200	0.731700	0.608300
H1251	H125	0.473500	0.754300	0.606000
H1261	H126	0.397700	0.758500	0.645800
H1271	H127	0.140000	0.231700	0.038900
H1281	H128	0.241400	0.289300	0.103300
H1291	H129	0.214700	0.089200	0.217500
H1301	H130	0.110700	0.040300	0.151000
H1311	H131	0.361300	0.305100	0.137400
H1321	H132	0.506700	0.299600	0.291200
H1331	H133	0.414200	0.202300	0.335600
H1341	H134	0.299800	0.151700	0.279900
H1351	H135	0.624600	0.549600	0.041500
H1361	H136	0.737200	0.569400	0.973200
H1371	H137	0.841000	0.467100	0.963200
H1381	H138	0.723900	0.325700	0.092000
H1391	H139	0.900800	0.348800	0.935800
H1401	H140	0.991100	0.237000	0.925000
H1411	H141	0.941400	0.159600	0.093000
H1421	H142	0.846800	0.268300	0.108300
H1431	H143	0.526500	0.245700	0.106000
H1441	H144	0.602300	0.241500	0.145800
C11	C1	0.798400	0.843200	0.425100
C21	C2	0.764300	0.781700	0.387000
C31	C3	0.807500	0.753200	0.334700
C41	C4	0.881100	0.797500	0.319700
C51	C5	0.910000	0.859700	0.360200
C61	C6	0.777400	0.681400	0.297400
C71	C7	0.716500	0.627300	0.322300
C81	C8	0.687100	0.558700	0.290800
C91	C9	0.718800	0.541500	0.231100
C101	C10	0.777500	0.595900	0.205300
C111	C11	0.807200	0.664400	0.238300
C121	C12	0.624300	0.503200	0.320700
C131	C13	0.573700	0.407100	0.383600
C141	C14	0.565600	0.337100	0.427200
C151	C15	0.492200	0.332800	0.462200
C161	C16	0.480500	0.265900	0.502600
C171	C17	0.540500	0.203600	0.508000
C181	C18	0.612900	0.206400	0.470800
C191	C19	0.624400	0.273200	0.432200
C201	C20	0.679700	0.139900	0.477900
C211	C21	0.690300	0.093400	0.531100
C221	C22	0.756900	0.038500	0.536900
C231	C23	0.801600	0.067700	0.439900
C241	C24	0.736900	0.124700	0.430400
C251	C25	0.201600	0.156800	0.925100
C261	C26	0.235700	0.218300	0.887000
C271	C27	0.192500	0.246800	0.834700
C281	C28	0.118900	0.202500	0.819700
C291	C29	0.090000	0.140300	0.860200
C301	C30	0.222600	0.318600	0.797400
C311	C31	0.283500	0.372700	0.822300
C321	C32	0.312900	0.441300	0.790800
C331	C33	0.281200	0.458500	0.731100
C341	C34	0.222500	0.404100	0.705300
C351	C35	0.192800	0.335600	0.738300
C361	C36	0.375700	0.496800	0.820700
C371	C37	0.426300	0.592900	0.883600
C381	C38	0.434400	0.662900	0.927200
C391	C39	0.507800	0.667200	0.962200
C401	C40	0.519500	0.734100	0.002600
C411	C41	0.459500	0.796400	0.008000
C421	C42	0.387100	0.793600	0.970800
C431	C43	0.375600	0.726800	0.932200
C441	C44	0.320300	0.860100	0.977900
C451	C45	0.309700	0.906600	0.031100
C461	C46	0.243100	0.961500	0.036900
C471	C47	0.198400	0.932300	0.939900
C481	C48	0.263100	0.875300	0.930400
C491	C49	0.656800	0.298400	0.675100
C501	C50	0.718300	0.264300	0.637000
C511	C51	0.746800	0.307500	0.584700
C521	C52	0.702500	0.381100	0.569700
C531	C53	0.640300	0.410000	0.610200
C541	C54	0.818600	0.277400	0.547400
C551	C55	0.872700	0.216500	0.572300
C561	C56	0.941300	0.187100	0.540800
C571	C57	0.958500	0.218800	0.481100
C581	C58	0.904100	0.277500	0.455300
C591	C59	0.835600	0.307200	0.488300
C601	C60	0.996800	0.124300	0.570700
C611	C61	0.092900	0.073700	0.633600
C621	C62	0.162900	0.065600	0.677200
C631	C63	0.167200	0.992200	0.712200
C641	C64	0.234100	0.980500	0.752600
C651	C65	0.296400	0.040500	0.758000
C661	C66	0.293600	0.112900	0.720800
C671	C67	0.226800	0.124400	0.682200
C681	C68	0.360100	0.179700	0.727900
C691	C69	0.406600	0.190300	0.781100
C701	C70	0.461500	0.256900	0.786900
C711	C71	0.432300	0.301600	0.689900
C721	C72	0.375300	0.236900	0.680400
C731	C73	0.343200	0.701600	0.175100
C741	C74	0.281700	0.735700	0.137000
C751	C75	0.253200	0.692500	0.084700
C761	C76	0.297500	0.618900	0.069700
C771	C77	0.359700	0.590000	0.110200
C781	C78	0.181400	0.722600	0.047400
C791	C79	0.127300	0.783500	0.072300
C801	C80	0.058700	0.812900	0.040800
C811	C81	0.041500	0.781200	0.981100
C821	C82	0.095900	0.722500	0.955300
C831	C83	0.164400	0.692800	0.988300
C841	C84	0.003200	0.875700	0.070700
C851	C85	0.907100	0.926300	0.133600
C861	C86	0.837100	0.934400	0.177200
C871	C87	0.832800	0.007800	0.212200
C881	C88	0.765900	0.019500	0.252600
C891	C89	0.703600	0.959500	0.258000
C901	C90	0.706400	0.887100	0.220800
C911	C91	0.773200	0.875600	0.182200
C921	C92	0.639900	0.820300	0.227900
C931	C93	0.593400	0.809700	0.281100
C941	C94	0.538500	0.743100	0.286900
C951	C95	0.567700	0.698400	0.189900
C961	C96	0.624700	0.763100	0.180400
C971	C97	0.701600	0.343200	0.824900
C981	C98	0.735700	0.281700	0.863000
C991	C99	0.692500	0.253200	0.915300
C1001	C100	0.618900	0.297500	0.930300
C1011	C101	0.590000	0.359700	0.889800
C1021	C102	0.722600	0.181400	0.952600
C1031	C103	0.783500	0.127300	0.927700
C1041	C104	0.812900	0.058700	0.959200
C1051	C105	0.781200	0.041500	0.018900
C1061	C106	0.722500	0.095900	0.044700
C1071	C107	0.692800	0.164400	0.011700
C1081	C108	0.875700	0.003200	0.929300
C1091	C109	0.926300	0.907100	0.866400
C1101	C110	0.934400	0.837100	0.822800
C1111	C111	0.007800	0.832800	0.787800
C1121	C112	0.019500	0.765900	0.747400
C1131	C113	0.959500	0.703600	0.742000
C1141	C114	0.887100	0.706400	0.779200
C1151	C115	0.875600	0.773200	0.817800
C1161	C116	0.820300	0.639900	0.772100
C1171	C117	0.809700	0.593400	0.718900
C1181	C118	0.743100	0.538500	0.713100
C1191	C119	0.698400	0.567700	0.810100
C1201	C120	0.763100	0.624700	0.819600
C1211	C121	0.298400	0.656800	0.324900
C1221	C122	0.264300	0.718300	0.363000
C1231	C123	0.307500	0.746800	0.415300
C1241	C124	0.381100	0.702500	0.430300
C1251	C125	0.410000	0.640300	0.389800
C1261	C126	0.277400	0.818600	0.452600
C1271	C127	0.216500	0.872700	0.427700
C1281	C128	0.187100	0.941300	0.459200
C1291	C129	0.218800	0.958500	0.518900
C1301	C130	0.277500	0.904100	0.544700
C1311	C131	0.307200	0.835600	0.511700
C1321	C132	0.124300	0.996800	0.429300
C1331	C133	0.073700	0.092900	0.366400
C1341	C134	0.065600	0.162900	0.322800
C1351	C135	0.992200	0.167200	0.287800
C1361	C136	0.980500	0.234100	0.247400
C1371	C137	0.040500	0.296400	0.242000
C1381	C138	0.112900	0.293600	0.279200
C1391	C139	0.124400	0.226800	0.317800
C1401	C140	0.179700	0.360100	0.272100
C1411	C141	0.190300	0.406600	0.218900
C1421	C142	0.256900	0.461500	0.213100
C1431	C143	0.301600	0.432300	0.310100
C1441	C144	0.236900	0.375300	0.319600
C1451	C145	0.843200	0.798400	0.574900
C1461	C146	0.781700	0.764300	0.613000
C1471	C147	0.753200	0.807500	0.665300
C1481	C148	0.797500	0.881100	0.680300
C1491	C149	0.859700	0.910000	0.639800
C1501	C150	0.681400	0.777400	0.702600
C1511	C151	0.627300	0.716500	0.677700
C1521	C152	0.558700	0.687100	0.709200
C1531	C153	0.541500	0.718800	0.768900
C1541	C154	0.595900	0.777500	0.794700
C1551	C155	0.664400	0.807200	0.761700
C1561	C156	0.503200	0.624300	0.679300
C1571	C157	0.407100	0.573700	0.616400
C1581	C158	0.337100	0.565600	0.572800
C1591	C159	0.332800	0.492200	0.537800
C1601	C160	0.265900	0.480500	0.497400
C1611	C161	0.203600	0.540500	0.492000
C1621	C162	0.206400	0.612900	0.529200
C1631	C163	0.273200	0.624400	0.567800
C1641	C164	0.139900	0.679700	0.522100
C1651	C165	0.093400	0.690300	0.468900
C1661	C166	0.038500	0.756900	0.463100
C1671	C167	0.067700	0.801600	0.560100
C1681	C168	0.124700	0.736900	0.569600
C1691	C169	0.156800	0.201600	0.074900
C1701	C170	0.218300	0.235700	0.113000
C1711	C171	0.246800	0.192500	0.165300
C1721	C172	0.202500	0.118900	0.180300
C1731	C173	0.140300	0.090000	0.139800
C1741	C174	0.318600	0.222600	0.202600
C1751	C175	0.372700	0.283500	0.177700
C1761	C176	0.441300	0.312900	0.209200
C1771	C177	0.458500	0.281200	0.268900
C1781	C178	0.404100	0.222500	0.294700
C1791	C179	0.335600	0.192800	0.261700
C1801	C180	0.496800	0.375700	0.179300
C1811	C181	0.592900	0.426300	0.116400
C1821	C182	0.662900	0.434400	0.072800
C1831	C183	0.667200	0.507800	0.037800
C1841	C184	0.734100	0.519500	0.997400
C1851	C185	0.796400	0.459500	0.992000
C1861	C186	0.793600	0.387100	0.029200
C1871	C187	0.726800	0.375600	0.067800
C1881	C188	0.860100	0.320300	0.022100
C1891	C189	0.906600	0.309700	0.968900
C1901	C190	0.961500	0.243100	0.963100
C1911	C191	0.932300	0.198400	0.060100
C1921	C192	0.875300	0.263100	0.069600
N11	N1	0.873400	0.880100	0.412500
N21	N2	0.543600	0.506200	0.317300
N31	N3	0.510200	0.444700	0.356100
N41	N4	0.647200	0.443300	0.362100
N51	N5	0.728300	0.424300	0.383900
N61	N6	0.812900	0.024600	0.492800
N71	N7	0.126600	0.119900	0.912500
N81	N8	0.456400	0.493800	0.817300
N91	N9	0.489800	0.555300	0.856100
N101	N10	0.352800	0.556700	0.862100
N111	N11	0.271700	0.575700	0.883900
N121	N12	0.187100	0.975400	0.992800
N131	N13	0.619900	0.373400	0.662500
N141	N14	0.993800	0.043600	0.567300
N151	N15	0.055300	0.010200	0.606100
N161	N16	0.056700	0.147200	0.612100
N171	N17	0.075700	0.228300	0.633900
N181	N18	0.475400	0.312900	0.742800
N191	N19	0.380100	0.626600	0.162500
N201	N20	0.006200	0.956400	0.067300
N211	N21	0.944700	0.989800	0.106100
N221	N22	0.943300	0.852800	0.112100
N231	N23	0.924300	0.771700	0.133900
N241	N24	0.524600	0.687100	0.242800
N251	N25	0.626600	0.380100	0.837500
N261	N26	0.956400	0.006200	0.932700
N271	N27	0.989800	0.944700	0.893900
N281	N28	0.852800	0.943300	0.887900
N291	N29	0.771700	0.924300	0.866100
N301	N30	0.687100	0.524600	0.757200
N311	N31	0.373400	0.619900	0.337500
N321	N32	0.043600	0.993800	0.432700
N331	N33	0.010200	0.055300	0.393900
N341	N34	0.147200	0.056700	0.387900
N351	N35	0.228300	0.075700	0.366100
N361	N36	0.312900	0.475400	0.257200
N371	N37	0.880100	0.873400	0.587500
N381	N38	0.506200	0.543600	0.682700
N391	N39	0.444700	0.510200	0.643900
N401	N40	0.443300	0.647200	0.637900
N411	N41	0.424300	0.728300	0.616100
N421	N42	0.024600	0.812900	0.507200
N431	N43	0.119900	0.126600	0.087500
N441	N44	0.493800	0.456400	0.182700
N451	N45	0.555300	0.489800	0.143900
N461	N46	0.556700	0.352800	0.137900
N471	N47	0.575700	0.271700	0.116100
N481	N48	0.975400	0.187100	0.007200
Cl11	Cl1	0.880660	0.119340	0.750000
O11	O1	0.895800	0.187500	0.777900
O21	O2	0.879200	0.066200	0.786900
O31	O3	0.812500	0.104200	0.722100
O41	O4	0.933800	0.120800	0.713100
Cl21	Cl2	0.119340	0.880660	0.250000
O51	O5	0.104200	0.812500	0.277900
O61	O6	0.120800	0.933800	0.286900
O71	O7	0.187500	0.895800	0.222100
O81	O8	0.066200	0.879200	0.213100
Cl31	Cl3	0.380660	0.380660	0.000000
O91	O9	0.312500	0.395800	0.027900
O101	O10	0.433800	0.379200	0.036900
O111	O11	0.395800	0.312500	0.972100
O121	O12	0.379200	0.433800	0.963100
Cl41	Cl4	0.619340	0.619340	0.500000
O131	O13	0.687500	0.604200	0.527900
O141	O14	0.566200	0.620800	0.536900
O151	O15	0.604200	0.687500	0.472100
O161	O16	0.620800	0.566200	0.463100
Cl51	Cl5	0.770650	0.770650	0.000000
O171	O17	0.738700	0.736900	0.051600
O181	O18	0.705800	0.851000	0.009500
O191	O19	0.736900	0.738700	0.948400
O201	O20	0.851000	0.705800	0.990500
Cl61	Cl6	0.229350	0.229350	0.500000
O211	O21	0.261300	0.263100	0.551600
O221	O22	0.294200	0.149000	0.509500
O231	O23	0.263100	0.261300	0.448400
O241	O24	0.149000	0.294200	0.490500
Cl71	Cl7	0.729350	0.270650	0.250000
O251	O25	0.763100	0.238700	0.301600
O261	O26	0.649000	0.205800	0.259500
O271	O27	0.761300	0.236900	0.198400
O281	O28	0.794200	0.351000	0.240500
Cl81	Cl8	0.270650	0.729350	0.750000
O291	O29	0.236900	0.761300	0.801600
O301	O30	0.351000	0.794200	0.759500
O311	O31	0.238700	0.763100	0.698400
O321	O32	0.205800	0.649000	0.740500
