data_OKIYIR03_charged_PM
_symmetry_space_group_name_H-M	'P1'
_cell_length_a	15.856200
_cell_length_b	15.856200
_cell_length_c	21.765000
_cell_angle_alpha	90.000000
_cell_angle_beta	90.000000
_cell_angle_gamma	90.000000
_symmetry_Int_Tables_number 1

loop_
_symmetry_equiv_pos_as_xyz
'x,y,z'

loop_
_atom_site_label
_atom_site_type_symbol
_atom_site_fract_x
_atom_site_fract_y
_atom_site_fract_z
Cd11	Cd1	0.059790	0.940210	0.250000
Cd21	Cd2	0.940210	0.059790	0.750000
Cd31	Cd3	0.559790	0.559790	0.500000
Cd41	Cd4	0.440210	0.440210	0.000000
H11	H1	0.743100	0.495200	0.570800
H21	H2	0.853200	0.403400	0.559300
H31	H3	0.763900	0.345600	0.393400
H41	H4	0.657600	0.440100	0.408800
H51	H5	0.967300	0.337100	0.533800
H61	H6	0.066500	0.233900	0.524000
H71	H7	0.045700	0.120400	0.459100
H81	H8	0.826100	0.223900	0.405000
H91	H9	0.801100	0.002500	0.208800
H101	H10	0.705300	0.909700	0.164300
H111	H11	0.656300	0.794500	0.219000
H121	H12	0.804300	0.859400	0.360400
H131	H13	0.587300	0.714900	0.284700
H141	H14	0.536500	0.613900	0.350200
H151	H15	0.731800	0.640100	0.457500
H161	H16	0.789600	0.736500	0.393700
H171	H17	0.741700	0.026900	0.386100
H181	H18	0.743000	0.106200	0.352600
H191	H19	0.256900	0.504800	0.070800
H201	H20	0.146800	0.596600	0.059300
H211	H21	0.236100	0.654400	0.893400
H221	H22	0.342400	0.559900	0.908800
H231	H23	0.032700	0.662900	0.033800
H241	H24	0.933500	0.766100	0.024000
H251	H25	0.954300	0.879600	0.959100
H261	H26	0.173900	0.776100	0.905000
H271	H27	0.198900	0.997500	0.708800
H281	H28	0.294700	0.090300	0.664300
H291	H29	0.343700	0.205500	0.719000
H301	H30	0.195700	0.140600	0.860400
H311	H31	0.412700	0.285100	0.784700
H321	H32	0.463500	0.386100	0.850200
H331	H33	0.268200	0.359900	0.957500
H341	H34	0.210400	0.263500	0.893700
H351	H35	0.258300	0.973100	0.886100
H361	H36	0.257000	0.893800	0.852600
H371	H37	0.004800	0.243100	0.820800
H381	H38	0.096600	0.353200	0.809300
H391	H39	0.154400	0.263900	0.643400
H401	H40	0.059900	0.157600	0.658800
H411	H41	0.162900	0.467300	0.783800
H421	H42	0.266100	0.566500	0.774000
H431	H43	0.379600	0.545700	0.709100
H441	H44	0.276100	0.326100	0.655000
H451	H45	0.497500	0.301100	0.458800
H461	H46	0.590300	0.205300	0.414300
H471	H47	0.705500	0.156300	0.469000
H481	H48	0.640600	0.304300	0.610400
H491	H49	0.785100	0.087300	0.534700
H501	H50	0.886100	0.036500	0.600200
H511	H51	0.859900	0.231800	0.707500
H521	H52	0.763500	0.289600	0.643700
H531	H53	0.473100	0.241700	0.636100
H541	H54	0.393800	0.243000	0.602600
H551	H55	0.995200	0.756900	0.320800
H561	H56	0.903400	0.646800	0.309300
H571	H57	0.845600	0.736100	0.143400
H581	H58	0.940100	0.842400	0.158800
H591	H59	0.837100	0.532700	0.283800
H601	H60	0.733900	0.433500	0.274000
H611	H61	0.620400	0.454300	0.209100
H621	H62	0.723900	0.673900	0.155000
H631	H63	0.502500	0.698900	0.958800
H641	H64	0.409700	0.794700	0.914300
H651	H65	0.294500	0.843700	0.969000
H661	H66	0.359400	0.695700	0.110400
H671	H67	0.214900	0.912700	0.034700
H681	H68	0.113900	0.963500	0.100200
H691	H69	0.140100	0.768200	0.207500
H701	H70	0.236500	0.710400	0.143700
H711	H71	0.526900	0.758300	0.136100
H721	H72	0.606200	0.757000	0.102600
H731	H73	0.756900	0.995200	0.679200
H741	H74	0.646800	0.903400	0.690700
H751	H75	0.736100	0.845600	0.856600
H761	H76	0.842400	0.940100	0.841200
H771	H77	0.532700	0.837100	0.716200
H781	H78	0.433500	0.733900	0.726000
H791	H79	0.454300	0.620400	0.790900
H801	H80	0.673900	0.723900	0.845000
H811	H81	0.698900	0.502500	0.041200
H821	H82	0.794700	0.409700	0.085700
H831	H83	0.843700	0.294500	0.031000
H841	H84	0.695700	0.359400	0.889600
H851	H85	0.912700	0.214900	0.965300
H861	H86	0.963500	0.113900	0.899800
H871	H87	0.768200	0.140100	0.792500
H881	H88	0.710400	0.236500	0.856300
H891	H89	0.758300	0.526900	0.863900
H901	H90	0.757000	0.606200	0.897400
H911	H91	0.243100	0.004800	0.179200
H921	H92	0.353200	0.096600	0.190700
H931	H93	0.263900	0.154400	0.356600
H941	H94	0.157600	0.059900	0.341200
H951	H95	0.467300	0.162900	0.216200
H961	H96	0.566500	0.266100	0.226000
H971	H97	0.545700	0.379600	0.290900
H981	H98	0.326100	0.276100	0.345000
H991	H99	0.301100	0.497500	0.541200
H1001	H100	0.205300	0.590300	0.585700
H1011	H101	0.156300	0.705500	0.531000
H1021	H102	0.304300	0.640600	0.389600
H1031	H103	0.087300	0.785100	0.465300
H1041	H104	0.036500	0.886100	0.399800
H1051	H105	0.231800	0.859900	0.292500
H1061	H106	0.289600	0.763500	0.356300
H1071	H107	0.241700	0.473100	0.363900
H1081	H108	0.243000	0.393800	0.397400
H1091	H109	0.495200	0.743100	0.429200
H1101	H110	0.403400	0.853200	0.440700
H1111	H111	0.345600	0.763900	0.606600
H1121	H112	0.440100	0.657600	0.591200
H1131	H113	0.337100	0.967300	0.466200
H1141	H114	0.233900	0.066500	0.476000
H1151	H115	0.120400	0.045700	0.540900
H1161	H116	0.223900	0.826100	0.595000
H1171	H117	0.002500	0.801100	0.791200
H1181	H118	0.909700	0.705300	0.835700
H1191	H119	0.794500	0.656300	0.781000
H1201	H120	0.859400	0.804300	0.639600
H1211	H121	0.714900	0.587300	0.715300
H1221	H122	0.613900	0.536500	0.649800
H1231	H123	0.640100	0.731800	0.542500
H1241	H124	0.736500	0.789600	0.606300
H1251	H125	0.026900	0.741700	0.613900
H1261	H126	0.106200	0.743000	0.647400
H1271	H127	0.504800	0.256900	0.929200
H1281	H128	0.596600	0.146800	0.940700
H1291	H129	0.654400	0.236100	0.106600
H1301	H130	0.559900	0.342400	0.091200
H1311	H131	0.662900	0.032700	0.966200
H1321	H132	0.766100	0.933500	0.976000
H1331	H133	0.879600	0.954300	0.040900
H1341	H134	0.776100	0.173900	0.095000
H1351	H135	0.997500	0.198900	0.291200
H1361	H136	0.090300	0.294700	0.335700
H1371	H137	0.205500	0.343700	0.281000
H1381	H138	0.140600	0.195700	0.139600
H1391	H139	0.285100	0.412700	0.215300
H1401	H140	0.386100	0.463500	0.149800
H1411	H141	0.359900	0.268200	0.042500
H1421	H142	0.263500	0.210400	0.106300
H1431	H143	0.973100	0.258300	0.113900
H1441	H144	0.893800	0.257000	0.147400
C11	C1	0.747000	0.464300	0.534600
C21	C2	0.813200	0.408100	0.528200
C31	C3	0.820500	0.359100	0.476100
C41	C4	0.760700	0.374400	0.430600
C51	C5	0.696800	0.431900	0.440000
C61	C6	0.885400	0.292600	0.470000
C71	C7	0.958700	0.293400	0.505900
C81	C8	0.017600	0.231000	0.500600
C91	C9	0.006000	0.163500	0.461300
C101	C10	0.933100	0.161300	0.424600
C111	C11	0.874200	0.225600	0.429400
C121	C12	0.925000	0.091400	0.381100
C131	C13	0.874300	0.995400	0.319500
C141	C14	0.812500	0.938700	0.289100
C151	C15	0.782600	0.955200	0.230300
C161	C16	0.724600	0.900100	0.204000
C171	C17	0.695400	0.830800	0.236900
C181	C18	0.724100	0.815400	0.296100
C191	C19	0.783700	0.869800	0.321100
C201	C20	0.693200	0.742700	0.333400
C211	C21	0.617100	0.701500	0.320200
C221	C22	0.586600	0.641200	0.360100
C231	C23	0.701700	0.656100	0.422700
C241	C24	0.736500	0.714900	0.384900
C251	C25	0.253000	0.535700	0.034600
C261	C26	0.186800	0.591900	0.028200
C271	C27	0.179500	0.640900	0.976100
C281	C28	0.239300	0.625600	0.930600
C291	C29	0.303200	0.568100	0.940000
C301	C30	0.114600	0.707400	0.970000
C311	C31	0.041300	0.706600	0.005900
C321	C32	0.982400	0.769000	0.000600
C331	C33	0.994000	0.836500	0.961300
C341	C34	0.066900	0.838700	0.924600
C351	C35	0.125800	0.774400	0.929400
C361	C36	0.075000	0.908600	0.881100
C371	C37	0.125700	0.004600	0.819500
C381	C38	0.187500	0.061300	0.789100
C391	C39	0.217400	0.044800	0.730300
C401	C40	0.275400	0.099900	0.704000
C411	C41	0.304600	0.169200	0.736900
C421	C42	0.275900	0.184600	0.796100
C431	C43	0.216300	0.130200	0.821100
C441	C44	0.306800	0.257300	0.833400
C451	C45	0.382900	0.298500	0.820200
C461	C46	0.413400	0.358800	0.860100
C471	C47	0.298300	0.343900	0.922700
C481	C48	0.263500	0.285100	0.884900
C491	C49	0.035700	0.247000	0.784600
C501	C50	0.091900	0.313200	0.778200
C511	C51	0.140900	0.320500	0.726100
C521	C52	0.125600	0.260700	0.680600
C531	C53	0.068100	0.196800	0.690000
C541	C54	0.207400	0.385400	0.720000
C551	C55	0.206600	0.458700	0.755900
C561	C56	0.269000	0.517600	0.750600
C571	C57	0.336500	0.506000	0.711300
C581	C58	0.338700	0.433100	0.674600
C591	C59	0.274400	0.374200	0.679400
C601	C60	0.408600	0.425000	0.631100
C611	C61	0.504600	0.374300	0.569500
C621	C62	0.561300	0.312500	0.539100
C631	C63	0.544800	0.282600	0.480300
C641	C64	0.599900	0.224600	0.454000
C651	C65	0.669200	0.195400	0.486900
C661	C66	0.684600	0.224100	0.546100
C671	C67	0.630200	0.283700	0.571100
C681	C68	0.757300	0.193200	0.583400
C691	C69	0.798500	0.117100	0.570200
C701	C70	0.858800	0.086600	0.610100
C711	C71	0.843900	0.201700	0.672700
C721	C72	0.785100	0.236500	0.634900
C731	C73	0.964300	0.753000	0.284600
C741	C74	0.908100	0.686800	0.278200
C751	C75	0.859100	0.679500	0.226100
C761	C76	0.874400	0.739300	0.180600
C771	C77	0.931900	0.803200	0.190000
C781	C78	0.792600	0.614600	0.220000
C791	C79	0.793400	0.541300	0.255900
C801	C80	0.731000	0.482400	0.250600
C811	C81	0.663500	0.494000	0.211300
C821	C82	0.661300	0.566900	0.174600
C831	C83	0.725600	0.625800	0.179400
C841	C84	0.591400	0.575000	0.131100
C851	C85	0.495400	0.625700	0.069500
C861	C86	0.438700	0.687500	0.039100
C871	C87	0.455200	0.717400	0.980300
C881	C88	0.400100	0.775400	0.954000
C891	C89	0.330800	0.804600	0.986900
C901	C90	0.315400	0.775900	0.046100
C911	C91	0.369800	0.716300	0.071100
C921	C92	0.242700	0.806800	0.083400
C931	C93	0.201500	0.882900	0.070200
C941	C94	0.141200	0.913400	0.110100
C951	C95	0.156100	0.798300	0.172700
C961	C96	0.214900	0.763500	0.134900
C971	C97	0.753000	0.964300	0.715400
C981	C98	0.686800	0.908100	0.721800
C991	C99	0.679500	0.859100	0.773900
C1001	C100	0.739300	0.874400	0.819400
C1011	C101	0.803200	0.931900	0.810000
C1021	C102	0.614600	0.792600	0.780000
C1031	C103	0.541300	0.793400	0.744100
C1041	C104	0.482400	0.731000	0.749400
C1051	C105	0.494000	0.663500	0.788700
C1061	C106	0.566900	0.661300	0.825400
C1071	C107	0.625800	0.725600	0.820600
C1081	C108	0.575000	0.591400	0.868900
C1091	C109	0.625700	0.495400	0.930500
C1101	C110	0.687500	0.438700	0.960900
C1111	C111	0.717400	0.455200	0.019700
C1121	C112	0.775400	0.400100	0.046000
C1131	C113	0.804600	0.330800	0.013100
C1141	C114	0.775900	0.315400	0.953900
C1151	C115	0.716300	0.369800	0.928900
C1161	C116	0.806800	0.242700	0.916600
C1171	C117	0.882900	0.201500	0.929800
C1181	C118	0.913400	0.141200	0.889900
C1191	C119	0.798300	0.156100	0.827300
C1201	C120	0.763500	0.214900	0.865100
C1211	C121	0.247000	0.035700	0.215400
C1221	C122	0.313200	0.091900	0.221800
C1231	C123	0.320500	0.140900	0.273900
C1241	C124	0.260700	0.125600	0.319400
C1251	C125	0.196800	0.068100	0.310000
C1261	C126	0.385400	0.207400	0.280000
C1271	C127	0.458700	0.206600	0.244100
C1281	C128	0.517600	0.269000	0.249400
C1291	C129	0.506000	0.336500	0.288700
C1301	C130	0.433100	0.338700	0.325400
C1311	C131	0.374200	0.274400	0.320600
C1321	C132	0.425000	0.408600	0.368900
C1331	C133	0.374300	0.504600	0.430500
C1341	C134	0.312500	0.561300	0.460900
C1351	C135	0.282600	0.544800	0.519700
C1361	C136	0.224600	0.599900	0.546000
C1371	C137	0.195400	0.669200	0.513100
C1381	C138	0.224100	0.684600	0.453900
C1391	C139	0.283700	0.630200	0.428900
C1401	C140	0.193200	0.757300	0.416600
C1411	C141	0.117100	0.798500	0.429800
C1421	C142	0.086600	0.858800	0.389900
C1431	C143	0.201700	0.843900	0.327300
C1441	C144	0.236500	0.785100	0.365100
C1451	C145	0.464300	0.747000	0.465400
C1461	C146	0.408100	0.813200	0.471800
C1471	C147	0.359100	0.820500	0.523900
C1481	C148	0.374400	0.760700	0.569400
C1491	C149	0.431900	0.696800	0.560000
C1501	C150	0.292600	0.885400	0.530000
C1511	C151	0.293400	0.958700	0.494100
C1521	C152	0.231000	0.017600	0.499400
C1531	C153	0.163500	0.006000	0.538700
C1541	C154	0.161300	0.933100	0.575400
C1551	C155	0.225600	0.874200	0.570600
C1561	C156	0.091400	0.925000	0.618900
C1571	C157	0.995400	0.874300	0.680500
C1581	C158	0.938700	0.812500	0.710900
C1591	C159	0.955200	0.782600	0.769700
C1601	C160	0.900100	0.724600	0.796000
C1611	C161	0.830800	0.695400	0.763100
C1621	C162	0.815400	0.724100	0.703900
C1631	C163	0.869800	0.783700	0.678900
C1641	C164	0.742700	0.693200	0.666600
C1651	C165	0.701500	0.617100	0.679800
C1661	C166	0.641200	0.586600	0.639900
C1671	C167	0.656100	0.701700	0.577300
C1681	C168	0.714900	0.736500	0.615100
C1691	C169	0.535700	0.253000	0.965400
C1701	C170	0.591900	0.186800	0.971800
C1711	C171	0.640900	0.179500	0.023900
C1721	C172	0.625600	0.239300	0.069400
C1731	C173	0.568100	0.303200	0.060000
C1741	C174	0.707400	0.114600	0.030000
C1751	C175	0.706600	0.041300	0.994100
C1761	C176	0.769000	0.982400	0.999400
C1771	C177	0.836500	0.994000	0.038700
C1781	C178	0.838700	0.066900	0.075400
C1791	C179	0.774400	0.125800	0.070600
C1801	C180	0.908600	0.075000	0.118900
C1811	C181	0.004600	0.125700	0.180500
C1821	C182	0.061300	0.187500	0.210900
C1831	C183	0.044800	0.217400	0.269700
C1841	C184	0.099900	0.275400	0.296000
C1851	C185	0.169200	0.304600	0.263100
C1861	C186	0.184600	0.275900	0.203900
C1871	C187	0.130200	0.216300	0.178900
C1881	C188	0.257300	0.306800	0.166600
C1891	C189	0.298500	0.382900	0.179800
C1901	C190	0.358800	0.413400	0.139900
C1911	C191	0.343900	0.298300	0.077300
C1921	C192	0.285100	0.263500	0.115100
N11	N1	0.688500	0.476300	0.491600
N21	N2	0.988900	0.053800	0.354860
N31	N3	0.956000	0.993000	0.316290
N41	N4	0.851400	0.056300	0.359780
N51	N5	0.769600	0.074900	0.380500
N61	N6	0.626300	0.619800	0.412740
N71	N7	0.311500	0.523700	0.991600
N81	N8	0.011100	0.946200	0.854860
N91	N9	0.044000	0.007000	0.816290
N101	N10	0.148600	0.943700	0.859780
N111	N11	0.230400	0.925100	0.880500
N121	N12	0.373700	0.380200	0.912740
N131	N13	0.023700	0.188500	0.741600
N141	N14	0.446200	0.488900	0.604860
N151	N15	0.507000	0.456000	0.566290
N161	N16	0.443700	0.351400	0.609780
N171	N17	0.425100	0.269600	0.630500
N181	N18	0.880200	0.126300	0.662740
N191	N19	0.976300	0.811500	0.241600
N201	N20	0.553800	0.511100	0.104860
N211	N21	0.493000	0.544000	0.066290
N221	N22	0.556300	0.648600	0.109780
N231	N23	0.574900	0.730400	0.130500
N241	N24	0.119800	0.873700	0.162740
N251	N25	0.811500	0.976300	0.758400
N261	N26	0.511100	0.553800	0.895140
N271	N27	0.544000	0.493000	0.933710
N281	N28	0.648600	0.556300	0.890220
N291	N29	0.730400	0.574900	0.869500
N301	N30	0.873700	0.119800	0.837260
N311	N31	0.188500	0.023700	0.258400
N321	N32	0.488900	0.446200	0.395140
N331	N33	0.456000	0.507000	0.433710
N341	N34	0.351400	0.443700	0.390220
N351	N35	0.269600	0.425100	0.369500
N361	N36	0.126300	0.880200	0.337260
N371	N37	0.476300	0.688500	0.508400
N381	N38	0.053800	0.988900	0.645140
N391	N39	0.993000	0.956000	0.683710
N401	N40	0.056300	0.851400	0.640220
N411	N41	0.074900	0.769600	0.619500
N421	N42	0.619800	0.626300	0.587260
N431	N43	0.523700	0.311500	0.008400
N441	N44	0.946200	0.011100	0.145140
N451	N45	0.007000	0.044000	0.183710
N461	N46	0.943700	0.148600	0.140220
N471	N47	0.925100	0.230400	0.119500
N481	N48	0.380200	0.373700	0.087260
Cl11	Cl1	0.626150	0.373850	0.750000
O11	O1	0.631600	0.442700	0.788000
O21	O2	0.670900	0.405900	0.698900
O31	O3	0.557300	0.368400	0.712000
O41	O4	0.594100	0.329100	0.801100
Cl21	Cl2	0.373850	0.626150	0.250000
O51	O5	0.368400	0.557300	0.288000
O61	O6	0.329100	0.594100	0.198900
O71	O7	0.442700	0.631600	0.212000
O81	O8	0.405900	0.670900	0.301100
Cl31	Cl3	0.126150	0.126150	0.000000
O91	O9	0.057300	0.131600	0.038000
O101	O10	0.094100	0.170900	0.948900
O111	O11	0.131600	0.057300	0.962000
O121	O12	0.170900	0.094100	0.051100
Cl41	Cl4	0.873850	0.873850	0.500000
O131	O13	0.942700	0.868400	0.538000
O141	O14	0.905900	0.829100	0.448900
O151	O15	0.868400	0.942700	0.462000
O161	O16	0.829100	0.905900	0.551100
Cl51	Cl5	0.730560	0.730560	0.000000
O171	O17	0.763000	0.767100	0.053100
O181	O18	0.782800	0.645500	0.997800
O191	O19	0.767100	0.763000	0.946900
O201	O20	0.645500	0.782800	0.002200
Cl61	Cl6	0.269440	0.269440	0.500000
O211	O21	0.237000	0.232900	0.553100
O221	O22	0.217200	0.354500	0.497800
O231	O23	0.232900	0.237000	0.446900
O241	O24	0.354500	0.217200	0.502200
Cl71	Cl7	0.769440	0.230560	0.250000
O251	O25	0.732900	0.263000	0.303100
O261	O26	0.854500	0.282800	0.247800
O271	O27	0.737000	0.267100	0.196900
O281	O28	0.717200	0.145500	0.252200
Cl81	Cl8	0.230560	0.769440	0.750000
O291	O29	0.267100	0.737000	0.803100
O301	O30	0.145500	0.717200	0.747800
O311	O31	0.263000	0.732900	0.696900
O321	O32	0.282800	0.854500	0.752200
