data_OLAGIR_freeONLY_PM
_symmetry_space_group_name_H-M	'P1'
_cell_length_a	9.271000
_cell_length_b	19.781000
_cell_length_c	27.045000
_cell_angle_alpha	90.000000
_cell_angle_beta	90.000000
_cell_angle_gamma	90.000000
_symmetry_Int_Tables_number 1

loop_
_symmetry_equiv_pos_as_xyz
'x,y,z'

loop_
_atom_site_label
_atom_site_type_symbol
_atom_site_fract_x
_atom_site_fract_y
_atom_site_fract_z
P11	P1	0.022700	0.253250	0.592840
P21	P2	0.344300	0.107030	0.478420
O11	O1	0.103900	0.211300	0.554830
O21	O2	0.318300	0.181100	0.466940
O31	O3	0.902400	0.211800	0.616220
O41	O4	0.457600	0.080000	0.444400
O51	O5	0.955300	0.316500	0.568600
O61	O6	0.130100	0.277100	0.633500
H11	H1	0.087000	0.300000	0.654000
O71	O7	0.378500	0.096000	0.533700
O81	O8	0.198200	0.065600	0.471600
H21	H2	0.170100	0.069200	0.443000
P31	P3	0.022700	0.753250	0.092840
P41	P4	0.344300	0.607030	0.978420
O91	O9	0.103900	0.711300	0.054830
O101	O10	0.318300	0.681100	0.966940
O111	O11	0.902400	0.711800	0.116220
O121	O12	0.457600	0.580000	0.944400
O131	O13	0.955300	0.816500	0.068600
O141	O14	0.130100	0.777100	0.133500
H31	H3	0.087000	0.800000	0.154000
O151	O15	0.378500	0.596000	0.033700
O161	O16	0.198200	0.565600	0.971600
H41	H4	0.170100	0.569200	0.943000
P51	P5	0.522700	0.253250	0.092840
P61	P6	0.844300	0.107030	0.978420
O171	O17	0.603900	0.211300	0.054830
O181	O18	0.818300	0.181100	0.966940
O191	O19	0.402400	0.211800	0.116220
O201	O20	0.957600	0.080000	0.944400
O211	O21	0.455300	0.316500	0.068600
O221	O22	0.630100	0.277100	0.133500
H51	H5	0.587000	0.300000	0.154000
O231	O23	0.878500	0.096000	0.033700
O241	O24	0.698200	0.065600	0.971600
H61	H6	0.670100	0.069200	0.943000
P71	P7	0.522700	0.753250	0.592840
P81	P8	0.844300	0.607030	0.478420
O251	O25	0.603900	0.711300	0.554830
O261	O26	0.818300	0.681100	0.466940
O271	O27	0.402400	0.711800	0.616220
O281	O28	0.957600	0.580000	0.444400
O291	O29	0.455300	0.816500	0.568600
O301	O30	0.630100	0.777100	0.633500
H71	H7	0.587000	0.800000	0.654000
O311	O31	0.878500	0.596000	0.533700
O321	O32	0.698200	0.565600	0.471600
H81	H8	0.670100	0.569200	0.443000
P91	P9	0.977300	0.746750	0.592840
P101	P10	0.655700	0.892970	0.478420
O331	O33	0.896100	0.788700	0.554830
O341	O34	0.681700	0.818900	0.466940
O351	O35	0.097600	0.788200	0.616220
O361	O36	0.542400	0.920000	0.444400
O371	O37	0.044700	0.683500	0.568600
O381	O38	0.869900	0.722900	0.633500
H91	H9	0.913000	0.700000	0.654000
O391	O39	0.621500	0.904000	0.533700
O401	O40	0.801800	0.934400	0.471600
H101	H10	0.829900	0.930800	0.443000
P111	P11	0.977300	0.246750	0.092840
P121	P12	0.655700	0.392970	0.978420
O411	O41	0.896100	0.288700	0.054830
O421	O42	0.681700	0.318900	0.966940
O431	O43	0.097600	0.288200	0.116220
O441	O44	0.542400	0.420000	0.944400
O451	O45	0.044700	0.183500	0.068600
O461	O46	0.869900	0.222900	0.133500
H111	H11	0.913000	0.200000	0.154000
O471	O47	0.621500	0.404000	0.033700
O481	O48	0.801800	0.434400	0.971600
H121	H12	0.829900	0.430800	0.943000
P131	P13	0.477300	0.746750	0.092840
P141	P14	0.155700	0.892970	0.978420
O491	O49	0.396100	0.788700	0.054830
O501	O50	0.181700	0.818900	0.966940
O511	O51	0.597600	0.788200	0.116220
O521	O52	0.042400	0.920000	0.944400
O531	O53	0.544700	0.683500	0.068600
O541	O54	0.369900	0.722900	0.133500
H131	H13	0.413000	0.700000	0.154000
O551	O55	0.121500	0.904000	0.033700
O561	O56	0.301800	0.934400	0.971600
H141	H14	0.329900	0.930800	0.943000
P151	P15	0.477300	0.246750	0.592840
P161	P16	0.155700	0.392970	0.478420
O571	O57	0.396100	0.288700	0.554830
O581	O58	0.181700	0.318900	0.466940
O591	O59	0.597600	0.288200	0.616220
O601	O60	0.042400	0.420000	0.444400
O611	O61	0.544700	0.183500	0.568600
O621	O62	0.369900	0.222900	0.633500
H151	H15	0.413000	0.200000	0.654000
O631	O63	0.121500	0.404000	0.533700
O641	O64	0.301800	0.434400	0.471600
H161	H16	0.329900	0.430800	0.443000
P171	P17	0.272700	0.996750	0.842840
P181	P18	0.594300	0.142970	0.728420
O651	O65	0.353900	0.038700	0.804830
O661	O66	0.568300	0.068900	0.716940
O671	O67	0.152400	0.038200	0.866220
O681	O68	0.707600	0.170000	0.694400
O691	O69	0.205300	0.933500	0.818600
O701	O70	0.380100	0.972900	0.883500
H171	H17	0.337000	0.950000	0.904000
O711	O71	0.628500	0.154000	0.783700
O721	O72	0.448200	0.184400	0.721600
H181	H18	0.420100	0.180800	0.693000
P191	P19	0.272700	0.496750	0.342840
P201	P20	0.594300	0.642970	0.228420
O731	O73	0.353900	0.538700	0.304830
O741	O74	0.568300	0.568900	0.216940
O751	O75	0.152400	0.538200	0.366220
O761	O76	0.707600	0.670000	0.194400
O771	O77	0.205300	0.433500	0.318600
O781	O78	0.380100	0.472900	0.383500
H191	H19	0.337000	0.450000	0.404000
O791	O79	0.628500	0.654000	0.283700
O801	O80	0.448200	0.684400	0.221600
H201	H20	0.420100	0.680800	0.193000
P211	P21	0.772700	0.996750	0.342840
P221	P22	0.094300	0.142970	0.228420
O811	O81	0.853900	0.038700	0.304830
O821	O82	0.068300	0.068900	0.216940
O831	O83	0.652400	0.038200	0.366220
O841	O84	0.207600	0.170000	0.194400
O851	O85	0.705300	0.933500	0.318600
O861	O86	0.880100	0.972900	0.383500
H211	H21	0.837000	0.950000	0.404000
O871	O87	0.128500	0.154000	0.283700
O881	O88	0.948200	0.184400	0.221600
H221	H22	0.920100	0.180800	0.193000
P231	P23	0.772700	0.496750	0.842840
P241	P24	0.094300	0.642970	0.728420
O891	O89	0.853900	0.538700	0.804830
O901	O90	0.068300	0.568900	0.716940
O911	O91	0.652400	0.538200	0.866220
O921	O92	0.207600	0.670000	0.694400
O931	O93	0.705300	0.433500	0.818600
O941	O94	0.880100	0.472900	0.883500
H231	H23	0.837000	0.450000	0.904000
O951	O95	0.128500	0.654000	0.783700
O961	O96	0.948200	0.684400	0.721600
H241	H24	0.920100	0.680800	0.693000
P251	P25	0.227300	0.503250	0.842840
P261	P26	0.905700	0.357030	0.728420
O971	O97	0.146100	0.461300	0.804830
O981	O98	0.931700	0.431100	0.716940
O991	O99	0.347600	0.461800	0.866220
O1001	O100	0.792400	0.330000	0.694400
O1011	O101	0.294700	0.566500	0.818600
O1021	O102	0.119900	0.527100	0.883500
H251	H25	0.163000	0.550000	0.904000
O1031	O103	0.871500	0.346000	0.783700
O1041	O104	0.051800	0.315600	0.721600
H261	H26	0.079900	0.319200	0.693000
P271	P27	0.227300	0.003250	0.342840
P281	P28	0.905700	0.857030	0.228420
O1051	O105	0.146100	0.961300	0.304830
O1061	O106	0.931700	0.931100	0.216940
O1071	O107	0.347600	0.961800	0.366220
O1081	O108	0.792400	0.830000	0.194400
O1091	O109	0.294700	0.066500	0.318600
O1101	O110	0.119900	0.027100	0.383500
H271	H27	0.163000	0.050000	0.404000
O1111	O111	0.871500	0.846000	0.283700
O1121	O112	0.051800	0.815600	0.221600
H281	H28	0.079900	0.819200	0.193000
P291	P29	0.727300	0.503250	0.342840
P301	P30	0.405700	0.357030	0.228420
O1131	O113	0.646100	0.461300	0.304830
O1141	O114	0.431700	0.431100	0.216940
O1151	O115	0.847600	0.461800	0.366220
O1161	O116	0.292400	0.330000	0.194400
O1171	O117	0.794700	0.566500	0.318600
O1181	O118	0.619900	0.527100	0.383500
H291	H29	0.663000	0.550000	0.404000
O1191	O119	0.371500	0.346000	0.283700
O1201	O120	0.551800	0.315600	0.221600
H301	H30	0.579900	0.319200	0.193000
P311	P31	0.727300	0.003250	0.842840
P321	P32	0.405700	0.857030	0.728420
O1211	O121	0.646100	0.961300	0.804830
O1221	O122	0.431700	0.931100	0.716940
O1231	O123	0.847600	0.961800	0.866220
O1241	O124	0.292400	0.830000	0.694400
O1251	O125	0.794700	0.066500	0.818600
O1261	O126	0.619900	0.027100	0.883500
H311	H31	0.663000	0.050000	0.904000
O1271	O127	0.371500	0.846000	0.783700
O1281	O128	0.551800	0.815600	0.721600
H321	H32	0.579900	0.819200	0.693000
Zn11	Zn1	0.250000	0.250000	0.510730
Zn21	Zn2	0.250000	0.750000	0.010730
Zn31	Zn3	0.750000	0.750000	0.510730
Zn41	Zn4	0.750000	0.250000	0.010730
Zn51	Zn5	0.500000	0.000000	0.760730
Zn61	Zn6	0.500000	0.500000	0.260730
Zn71	Zn7	0.000000	0.500000	0.760730
Zn81	Zn8	0.000000	0.000000	0.260730
Zn91	Zn9	0.750000	0.250000	0.656470
Zn101	Zn10	0.750000	0.750000	0.156470
Zn111	Zn11	0.250000	0.250000	0.156470
Zn121	Zn12	0.250000	0.750000	0.656470
Zn131	Zn13	0.000000	0.000000	0.906470
Zn141	Zn14	0.000000	0.500000	0.406470
Zn151	Zn15	0.500000	0.500000	0.906470
Zn161	Zn16	0.500000	0.000000	0.406470
