data_OLEKUL_freeONLY_PM
_symmetry_space_group_name_H-M	'P1'
_cell_length_a	12.874000
_cell_length_b	13.079000
_cell_length_c	16.471000
_cell_angle_alpha	86.193000
_cell_angle_beta	85.954000
_cell_angle_gamma	80.815000
_symmetry_Int_Tables_number 1

loop_
_symmetry_equiv_pos_as_xyz
'x,y,z'

loop_
_atom_site_label
_atom_site_type_symbol
_atom_site_fract_x
_atom_site_fract_y
_atom_site_fract_z
Pd11	Pd1	0.998080	0.771530	0.988390
Cu11	Cu1	0.458560	0.233310	0.489540
Na11	Na1	0.607460	0.397610	0.495180
C11	C1	0.951100	0.845300	0.160400
C21	C2	0.878900	0.930900	0.136900
C31	C3	0.856000	0.959500	0.056600
C41	C4	0.783900	0.050000	0.030900
H11	H1	0.750300	0.103700	0.064200
C51	C5	0.773100	0.043900	0.950500
H21	H2	0.730300	0.092900	0.917000
C61	C6	0.837900	0.950200	0.924500
C71	C7	0.840100	0.912000	0.847100
C81	C8	0.905000	0.822000	0.822700
C91	C9	0.914800	0.787000	0.741000
H31	H3	0.874600	0.816700	0.696700
C101	C10	0.992200	0.703900	0.739200
H41	H4	0.016300	0.664200	0.693400
C111	C11	0.031200	0.686600	0.819400
C121	C12	0.115400	0.610600	0.840400
C131	C13	0.153700	0.594700	0.917900
C141	C14	0.241300	0.517700	0.940100
H51	H5	0.284100	0.471900	0.904600
C151	C15	0.251500	0.522300	0.020500
H61	H6	0.302200	0.480100	0.052400
C161	C16	0.170700	0.603400	0.048600
C171	C17	0.154900	0.630700	0.129500
C181	C18	0.077500	0.710600	0.156500
C191	C19	0.056100	0.734000	0.240700
H71	H7	0.090600	0.698800	0.286000
C201	C20	0.977100	0.815800	0.242900
H81	H8	0.944900	0.847900	0.290400
N11	N1	0.012600	0.778500	0.108710
N21	N2	0.889400	0.901600	0.990090
N31	N3	0.976600	0.759100	0.869420
N41	N4	0.113600	0.647600	0.984940
C211	C21	0.818500	0.994400	0.202100
C221	C22	0.742900	0.951800	0.252800
H91	H9	0.734300	0.881700	0.247700
C231	C23	0.680200	0.010100	0.310400
H101	H10	0.627800	0.980400	0.343200
C241	C24	0.693800	0.112300	0.320400
C251	C25	0.771900	0.152700	0.272300
H111	H11	0.784000	0.221100	0.279900
C261	C26	0.832800	0.095200	0.213300
H121	H12	0.884800	0.125300	0.180200
C271	C27	0.624300	0.178500	0.379500
C281	C28	0.773500	0.974500	0.785400
C291	C29	0.796800	0.071400	0.758200
H131	H13	0.853000	0.097100	0.780400
C301	C30	0.739500	0.131000	0.699500
H141	H14	0.758100	0.196300	0.680700
C311	C31	0.654900	0.096800	0.667700
C321	C32	0.631400	0.998500	0.693900
H151	H15	0.574700	0.973100	0.672100
C331	C33	0.691200	0.937600	0.752200
H161	H16	0.675600	0.870600	0.769200
C341	C34	0.593600	0.166200	0.605000
C351	C35	0.165000	0.538400	0.776600
C361	C36	0.262800	0.545100	0.738400
H171	H17	0.300100	0.597900	0.752200
C371	C37	0.307800	0.476500	0.680400
H181	H18	0.375200	0.482600	0.654700
C381	C38	0.253700	0.398700	0.660100
C391	C39	0.155600	0.391900	0.698000
H191	H19	0.118000	0.339300	0.684100
C401	C40	0.111300	0.460700	0.755900
H201	H20	0.043900	0.454700	0.781500
C411	C41	0.300200	0.319500	0.600000
C421	C42	0.222900	0.570400	0.191400
C431	C43	0.210300	0.469300	0.217800
H211	H21	0.160700	0.436200	0.193400
C441	C44	0.269300	0.416600	0.279100
H221	H22	0.260400	0.347600	0.296500
C451	C45	0.341600	0.464900	0.315200
C461	C46	0.356900	0.564900	0.288200
H231	H23	0.407100	0.597700	0.312100
C471	C47	0.298300	0.616000	0.226300
H241	H24	0.309700	0.683700	0.207200
C481	C48	0.402900	0.410200	0.384300
O11	O1	0.546000	0.139430	0.414470
O21	O2	0.643600	0.266320	0.391210
O31	O3	0.622000	0.249840	0.582450
O41	O4	0.513900	0.134010	0.579120
O51	O5	0.389900	0.330750	0.567030
O61	O6	0.249600	0.249800	0.587200
O71	O7	0.393500	0.314520	0.398800
O81	O8	0.457700	0.459050	0.422260
N51	N5	0.205500	0.602400	0.501000
C491	C49	0.149200	0.694300	0.522400
H251	H25	0.183900	0.738000	0.551400
C501	C50	0.045000	0.730000	0.505400
H261	H26	0.009800	0.795000	0.522900
C511	C51	0.996400	0.670600	0.464200
H271	H27	0.925400	0.692300	0.450800
C521	C52	0.052000	0.573700	0.440200
H281	H28	0.019900	0.530200	0.408900
C531	C53	0.154500	0.543900	0.463600
H291	H29	0.189200	0.476500	0.451400
O91	O9	0.329900	0.099400	0.488640
H301	H30	0.304600	0.108900	0.450400
H311	H31	0.295700	0.130300	0.522500
Pd21	Pd2	0.001920	0.228470	0.011610
Cu21	Cu2	0.541440	0.766690	0.510460
Na21	Na2	0.392540	0.602390	0.504820
C541	C54	0.048900	0.154700	0.839600
C551	C55	0.121100	0.069100	0.863100
C561	C56	0.144000	0.040500	0.943400
C571	C57	0.216100	0.950000	0.969100
H321	H32	0.249700	0.896300	0.935800
C581	C58	0.226900	0.956100	0.049500
H331	H33	0.269700	0.907100	0.083000
C591	C59	0.162100	0.049800	0.075500
C601	C60	0.159900	0.088000	0.152900
C611	C61	0.095000	0.178000	0.177300
C621	C62	0.085200	0.213000	0.259000
H341	H34	0.125400	0.183300	0.303300
C631	C63	0.007800	0.296100	0.260800
H351	H35	0.983700	0.335800	0.306600
C641	C64	0.968800	0.313400	0.180600
C651	C65	0.884600	0.389400	0.159600
C661	C66	0.846300	0.405300	0.082100
C671	C67	0.758700	0.482300	0.059900
H361	H36	0.715900	0.528100	0.095400
C681	C68	0.748500	0.477700	0.979500
H371	H37	0.697800	0.519900	0.947600
C691	C69	0.829300	0.396600	0.951400
C701	C70	0.845100	0.369300	0.870500
C711	C71	0.922500	0.289400	0.843500
C721	C72	0.943900	0.266000	0.759300
H381	H38	0.909400	0.301200	0.714000
C731	C73	0.022900	0.184200	0.757100
H391	H39	0.055100	0.152100	0.709600
N61	N6	0.987400	0.221500	0.891290
N71	N7	0.110600	0.098400	0.009910
N81	N8	0.023400	0.240900	0.130580
N91	N9	0.886400	0.352400	0.015060
C741	C74	0.181500	0.005600	0.797900
C751	C75	0.257100	0.048200	0.747200
H401	H40	0.265700	0.118300	0.752300
C761	C76	0.319800	0.989900	0.689600
H411	H41	0.372200	0.019600	0.656800
C771	C77	0.306200	0.887700	0.679600
C781	C78	0.228100	0.847300	0.727700
H421	H42	0.216000	0.778900	0.720100
C791	C79	0.167200	0.904800	0.786700
H431	H43	0.115200	0.874700	0.819800
C801	C80	0.375700	0.821500	0.620500
C811	C81	0.226500	0.025500	0.214600
C821	C82	0.203200	0.928600	0.241800
H441	H44	0.147000	0.902900	0.219600
C831	C83	0.260500	0.869000	0.300500
H451	H45	0.241900	0.803700	0.319300
C841	C84	0.345100	0.903200	0.332300
C851	C85	0.368600	0.001500	0.306100
H461	H46	0.425300	0.026900	0.327900
C861	C86	0.308800	0.062400	0.247800
H471	H47	0.324400	0.129400	0.230800
C871	C87	0.406400	0.833800	0.395000
C881	C88	0.835000	0.461600	0.223400
C891	C89	0.737200	0.454900	0.261600
H481	H48	0.699900	0.402100	0.247800
C901	C90	0.692200	0.523500	0.319600
H491	H49	0.624800	0.517400	0.345300
C911	C91	0.746300	0.601300	0.339900
C921	C92	0.844400	0.608100	0.302000
H501	H50	0.882000	0.660700	0.315900
C931	C93	0.888700	0.539300	0.244100
H511	H51	0.956100	0.545300	0.218500
C941	C94	0.699800	0.680500	0.400000
C951	C95	0.777100	0.429600	0.808600
C961	C96	0.789700	0.530700	0.782200
H521	H52	0.839300	0.563800	0.806600
C971	C97	0.730700	0.583400	0.720900
H531	H53	0.739600	0.652400	0.703500
C981	C98	0.658400	0.535100	0.684800
C991	C99	0.643100	0.435100	0.711800
H541	H54	0.592900	0.402300	0.687900
C1001	C100	0.701700	0.384000	0.773700
H551	H55	0.690300	0.316300	0.792800
C1011	C101	0.597100	0.589800	0.615700
O101	O10	0.454000	0.860570	0.585530
O111	O11	0.356400	0.733680	0.608790
O121	O12	0.378000	0.750160	0.417550
O131	O13	0.486100	0.865990	0.420880
O141	O14	0.610100	0.669250	0.432970
O151	O15	0.750400	0.750200	0.412800
O161	O16	0.606500	0.685480	0.601200
O171	O17	0.542300	0.540950	0.577740
N101	N10	0.794500	0.397600	0.499000
C1021	C102	0.850800	0.305700	0.477600
H561	H56	0.816100	0.262000	0.448600
C1031	C103	0.955000	0.270000	0.494600
H571	H57	0.990200	0.205000	0.477100
C1041	C104	0.003600	0.329400	0.535800
H581	H58	0.074600	0.307700	0.549200
C1051	C105	0.948000	0.426300	0.559800
H591	H59	0.980100	0.469800	0.591100
C1061	C106	0.845500	0.456100	0.536400
H601	H60	0.810800	0.523500	0.548600
O181	O18	0.670100	0.900600	0.511360
H611	H61	0.695400	0.891100	0.549600
H621	H62	0.704300	0.869700	0.477500
Na31	Na3	0.500000	0.000000	0.500000
