data_OLELAS_freeONLY_PM
_symmetry_space_group_name_H-M	'P1'
_cell_length_a	12.924000
_cell_length_b	13.137000
_cell_length_c	16.600000
_cell_angle_alpha	85.575000
_cell_angle_beta	85.426000
_cell_angle_gamma	80.098000
_symmetry_Int_Tables_number 1

loop_
_symmetry_equiv_pos_as_xyz
'x,y,z'

loop_
_atom_site_label
_atom_site_type_symbol
_atom_site_fract_x
_atom_site_fract_y
_atom_site_fract_z
Pt11	Pt1	0.997360	0.773810	0.988200
Cu11	Cu1	0.457460	0.234850	0.489860
Na11	Na1	0.607120	0.398080	0.493220
C11	C1	0.949300	0.848000	0.159300
C21	C2	0.877100	0.934100	0.135500
C31	C3	0.854200	0.962300	0.055700
C41	C4	0.783000	0.051600	0.028900
H11	H1	0.749600	0.105700	0.061600
C51	C5	0.770900	0.046700	0.949600
H21	H2	0.727100	0.095500	0.916500
C61	C6	0.837100	0.953500	0.924500
C71	C7	0.839700	0.914800	0.848300
C81	C8	0.904500	0.823900	0.823400
C91	C9	0.913300	0.788500	0.743100
H31	H3	0.872500	0.818300	0.699500
C101	C10	0.990500	0.704900	0.741300
H41	H4	0.014200	0.664900	0.696100
C111	C11	0.029900	0.688000	0.820700
C121	C12	0.114300	0.610900	0.842000
C131	C13	0.153200	0.595800	0.918300
C141	C14	0.240800	0.517200	0.941100
H51	H5	0.282700	0.470000	0.906300
C151	C15	0.252400	0.522900	0.020000
H61	H6	0.304200	0.481200	0.051200
C161	C16	0.171200	0.604700	0.048500
C171	C17	0.155600	0.632600	0.128700
C181	C18	0.077700	0.713300	0.155400
C191	C19	0.055100	0.737100	0.239000
H71	H7	0.089600	0.701700	0.284000
C201	C20	0.976100	0.818500	0.241700
H81	H8	0.944100	0.850600	0.288900
N11	N1	0.012100	0.781100	0.106900
N21	N2	0.889000	0.904200	0.989800
N31	N3	0.976800	0.760500	0.870900
N41	N4	0.112400	0.648700	0.986100
C211	C21	0.816500	0.996800	0.200200
C221	C22	0.741300	0.954500	0.252000
H91	H9	0.732300	0.885000	0.247400
C231	C23	0.680600	0.012200	0.309100
H101	H10	0.628300	0.982800	0.342000
C241	C24	0.694000	0.113400	0.320000
C251	C25	0.770700	0.155100	0.270500
H111	H11	0.781800	0.223500	0.277200
C261	C26	0.831200	0.097400	0.211500
H121	H12	0.883200	0.126900	0.178400
C271	C27	0.624000	0.180200	0.380200
C281	C28	0.771400	0.977400	0.785900
C291	C29	0.793200	0.073000	0.758000
H131	H13	0.848700	0.098800	0.779600
C301	C30	0.735500	0.133200	0.698300
H141	H14	0.753800	0.197900	0.678200
C311	C31	0.651800	0.098400	0.668600
C321	C32	0.628900	0.001700	0.696600
H151	H15	0.572100	0.976700	0.676100
C331	C33	0.689200	0.940400	0.755200
H161	H16	0.673600	0.874100	0.773600
C341	C34	0.590800	0.167500	0.605300
C351	C35	0.163600	0.537900	0.778500
C361	C36	0.262100	0.544900	0.739800
H171	H17	0.299700	0.596800	0.753200
C371	C37	0.305600	0.475900	0.681500
H181	H18	0.372300	0.481500	0.654700
C381	C38	0.251600	0.398800	0.662600
C391	C39	0.154400	0.392100	0.701500
H191	H19	0.116900	0.340100	0.688500
C401	C40	0.110600	0.460800	0.759700
H201	H20	0.044000	0.454700	0.786600
C411	C41	0.298800	0.319200	0.603000
C421	C42	0.224300	0.573100	0.190600
C431	C43	0.213600	0.471200	0.217300
H211	H21	0.165600	0.437500	0.193100
C441	C44	0.272000	0.419800	0.278100
H221	H22	0.263600	0.351000	0.295900
C451	C45	0.343900	0.467800	0.314300
C461	C46	0.357300	0.567300	0.286500
H231	H23	0.406500	0.600500	0.309800
C471	C47	0.298300	0.618400	0.224200
H241	H24	0.309200	0.685800	0.204300
C481	C48	0.404500	0.412900	0.383600
O11	O1	0.546400	0.141200	0.415700
O21	O2	0.643600	0.267300	0.391000
O31	O3	0.617500	0.250800	0.582000
O41	O4	0.512100	0.134100	0.579900
O51	O5	0.384900	0.332500	0.566300
O61	O6	0.249900	0.247600	0.594200
O71	O7	0.395500	0.318300	0.399000
O81	O8	0.457700	0.462600	0.421100
N51	N5	0.205700	0.604100	0.502500
C491	C49	0.147900	0.696400	0.524600
H251	H25	0.180200	0.738200	0.555900
C501	C50	0.046000	0.732700	0.504600
H261	H26	0.010100	0.798400	0.520000
C511	C51	0.997600	0.670200	0.461300
H271	H27	0.927100	0.691700	0.446900
C521	C52	0.055000	0.574000	0.438800
H281	H28	0.025200	0.530000	0.407700
C531	C53	0.156700	0.546200	0.463900
H291	H29	0.193500	0.479600	0.451800
O91	O9	0.330200	0.104500	0.492200
H301	H30	0.303700	0.062800	0.484400
H311	H31	0.283700	0.149600	0.516600
Pt21	Pt2	0.002640	0.226190	0.011800
Cu21	Cu2	0.542540	0.765150	0.510140
Na21	Na2	0.392880	0.601920	0.506780
C541	C54	0.050700	0.152000	0.840700
C551	C55	0.122900	0.065900	0.864500
C561	C56	0.145800	0.037700	0.944300
C571	C57	0.217000	0.948400	0.971100
H321	H32	0.250400	0.894300	0.938400
C581	C58	0.229100	0.953300	0.050400
H331	H33	0.272900	0.904500	0.083500
C591	C59	0.162900	0.046500	0.075500
C601	C60	0.160300	0.085200	0.151700
C611	C61	0.095500	0.176100	0.176600
C621	C62	0.086700	0.211500	0.256900
H341	H34	0.127500	0.181700	0.300500
C631	C63	0.009500	0.295100	0.258700
H351	H35	0.985800	0.335100	0.303900
C641	C64	0.970100	0.312000	0.179300
C651	C65	0.885700	0.389100	0.158000
C661	C66	0.846800	0.404200	0.081700
C671	C67	0.759200	0.482800	0.058900
H361	H36	0.717300	0.530000	0.093700
C681	C68	0.747600	0.477100	0.980000
H371	H37	0.695800	0.518800	0.948800
C691	C69	0.828800	0.395300	0.951500
C701	C70	0.844400	0.367400	0.871300
C711	C71	0.922300	0.286700	0.844600
C721	C72	0.944900	0.262900	0.761000
H381	H38	0.910400	0.298300	0.716000
C731	C73	0.023900	0.181500	0.758300
H391	H39	0.055900	0.149400	0.711100
N61	N6	0.987900	0.218900	0.893100
N71	N7	0.111000	0.095800	0.010200
N81	N8	0.023200	0.239500	0.129100
N91	N9	0.887600	0.351300	0.013900
C741	C74	0.183500	0.003200	0.799800
C751	C75	0.258700	0.045500	0.748000
H401	H40	0.267700	0.115000	0.752600
C761	C76	0.319400	0.987800	0.690900
H411	H41	0.371700	0.017200	0.658000
C771	C77	0.306000	0.886600	0.680000
C781	C78	0.229300	0.844900	0.729500
H421	H42	0.218200	0.776500	0.722800
C791	C79	0.168800	0.902600	0.788500
H431	H43	0.116800	0.873100	0.821600
C801	C80	0.376000	0.819800	0.619800
C811	C81	0.228600	0.022600	0.214100
C821	C82	0.206800	0.927000	0.242000
H441	H44	0.151300	0.901200	0.220400
C831	C83	0.264500	0.866800	0.301700
H451	H45	0.246200	0.802100	0.321800
C841	C84	0.348200	0.901600	0.331400
C851	C85	0.371100	0.998300	0.303400
H461	H46	0.427900	0.023300	0.323900
C861	C86	0.310800	0.059600	0.244800
H471	H47	0.326400	0.125900	0.226400
C871	C87	0.409200	0.832500	0.394700
C881	C88	0.836400	0.462100	0.221500
C891	C89	0.737900	0.455100	0.260200
H481	H48	0.700300	0.403200	0.246800
C901	C90	0.694400	0.524100	0.318500
H491	H49	0.627700	0.518500	0.345300
C911	C91	0.748400	0.601200	0.337400
C921	C92	0.845600	0.607900	0.298500
H501	H50	0.883100	0.659900	0.311500
C931	C93	0.889400	0.539200	0.240300
H511	H51	0.956000	0.545300	0.213400
C941	C94	0.701200	0.680800	0.397000
C951	C95	0.775700	0.426900	0.809400
C961	C96	0.786400	0.528800	0.782700
H521	H52	0.834400	0.562500	0.806900
C971	C97	0.728000	0.580200	0.721900
H531	H53	0.736400	0.649000	0.704100
C981	C98	0.656100	0.532200	0.685700
C991	C99	0.642700	0.432700	0.713500
H541	H54	0.593500	0.399500	0.690200
C1001	C100	0.701700	0.381600	0.775800
H551	H55	0.690800	0.314200	0.795700
C1011	C101	0.595500	0.587100	0.616400
O101	O10	0.453600	0.858800	0.584300
O111	O11	0.356400	0.732700	0.609000
O121	O12	0.382500	0.749200	0.418000
O131	O13	0.487900	0.865900	0.420100
O141	O14	0.615100	0.667500	0.433700
O151	O15	0.750100	0.752400	0.405800
O161	O16	0.604500	0.681700	0.601000
O171	O17	0.542300	0.537400	0.578900
N101	N10	0.794300	0.395900	0.497500
C1021	C102	0.852100	0.303600	0.475400
H561	H56	0.819800	0.261800	0.444100
C1031	C103	0.954000	0.267300	0.495400
H571	H57	0.989900	0.201600	0.480000
C1041	C104	0.002400	0.329800	0.538700
H581	H58	0.072900	0.308300	0.553100
C1051	C105	0.945000	0.426000	0.561200
H591	H59	0.974800	0.470000	0.592300
C1061	C106	0.843300	0.453800	0.536100
H601	H60	0.806500	0.520400	0.548200
O181	O18	0.669800	0.895500	0.507800
H611	H61	0.696300	0.937200	0.515600
H621	H62	0.716300	0.850400	0.483400
Na31	Na3	0.500000	0.000000	0.500000
