data_OLUROC_freeONLY_PM
_symmetry_space_group_name_H-M	'P1'
_cell_length_a	17.709900
_cell_length_b	17.709900
_cell_length_c	32.977000
_cell_angle_alpha	90.000000
_cell_angle_beta	90.000000
_cell_angle_gamma	120.000000
_symmetry_Int_Tables_number 1

loop_
_symmetry_equiv_pos_as_xyz
'x,y,z'

loop_
_atom_site_label
_atom_site_type_symbol
_atom_site_fract_x
_atom_site_fract_y
_atom_site_fract_z
C11	C1	0.128600	0.752600	0.008580
C21	C2	0.182300	0.766700	0.975390
C31	C3	0.155400	0.627700	0.980050
H11	H1	0.161800	0.582000	0.970100
C41	C4	0.103000	0.612600	0.013610
H21	H2	0.076700	0.558300	0.026200
C51	C5	0.230700	0.851900	0.953100
C61	C6	0.110500	0.821500	0.024770
N11	N1	0.089900	0.675500	0.027960
N21	N2	0.197300	0.704400	0.961210
O11	O1	0.057910	0.799630	0.054490
O21	O2	0.307100	0.904000	0.963990
O31	O3	0.330800	0.197300	0.076380
O41	O4	0.147100	0.892800	0.008410
C71	C7	0.795270	0.085930	0.341910
C81	C8	0.848970	0.100030	0.308720
C91	C9	0.822070	0.961030	0.313380
H31	H3	0.828470	0.915330	0.303430
C101	C10	0.769670	0.945930	0.346940
H41	H4	0.743370	0.891630	0.359530
C111	C11	0.897370	0.185230	0.286430
C121	C12	0.777170	0.154830	0.358100
N31	N3	0.756570	0.008830	0.361290
N41	N4	0.863970	0.037730	0.294540
O51	O5	0.724580	0.132960	0.387820
O61	O6	0.973770	0.237330	0.297320
O71	O7	0.997470	0.530630	0.409710
O81	O8	0.813770	0.226130	0.341740
C131	C13	0.461930	0.419270	0.675250
C141	C14	0.515630	0.433370	0.642060
C151	C15	0.488730	0.294370	0.646720
H51	H5	0.495130	0.248670	0.636770
C161	C16	0.436330	0.279270	0.680280
H61	H6	0.410030	0.224970	0.692870
C171	C17	0.564030	0.518570	0.619770
C181	C18	0.443830	0.488170	0.691440
N51	N5	0.423230	0.342170	0.694630
N61	N6	0.530630	0.371070	0.627880
O91	O9	0.391240	0.466300	0.721160
O101	O10	0.640430	0.570670	0.630660
O111	O11	0.664130	0.863970	0.743050
O121	O12	0.480430	0.559470	0.675080
C191	C19	0.247400	0.376000	0.008580
C201	C20	0.233300	0.415600	0.975390
C211	C21	0.372300	0.527700	0.980050
H71	H7	0.418000	0.579800	0.970100
C221	C22	0.387400	0.490400	0.013610
H81	H8	0.441700	0.518400	0.026200
C231	C23	0.148100	0.378800	0.953100
C241	C24	0.178500	0.289000	0.024770
N71	N7	0.324500	0.414400	0.027960
N81	N8	0.295600	0.492900	0.961210
O131	O13	0.200370	0.258280	0.054490
O141	O14	0.096000	0.403100	0.963990
O151	O15	0.802700	0.133500	0.076380
O161	O16	0.107200	0.254300	0.008410
C251	C25	0.914070	0.709330	0.341910
C261	C26	0.899970	0.748930	0.308720
C271	C27	0.038970	0.861030	0.313380
H91	H9	0.084670	0.913130	0.303430
C281	C28	0.054070	0.823730	0.346940
H101	H10	0.108370	0.851730	0.359530
C291	C29	0.814770	0.712130	0.286430
C301	C30	0.845170	0.622330	0.358100
N91	N9	0.991170	0.747730	0.361290
N101	N10	0.962270	0.826230	0.294540
O171	O17	0.867040	0.591610	0.387820
O181	O18	0.762670	0.736430	0.297320
O191	O19	0.469370	0.466830	0.409710
O201	O20	0.773870	0.587630	0.341740
C311	C31	0.580730	0.042670	0.675250
C321	C32	0.566630	0.082270	0.642060
C331	C33	0.705630	0.194370	0.646720
H111	H11	0.751330	0.246470	0.636770
C341	C34	0.720730	0.157070	0.680280
H121	H12	0.775030	0.185070	0.692870
C351	C35	0.481430	0.045470	0.619770
C361	C36	0.511830	0.955670	0.691440
N111	N11	0.657830	0.081070	0.694630
N121	N12	0.628930	0.159570	0.627880
O211	O21	0.533700	0.924950	0.721160
O221	O22	0.429330	0.069770	0.630660
O231	O23	0.136030	0.800170	0.743050
O241	O24	0.440530	0.920970	0.675080
C371	C37	0.624000	0.871400	0.008580
C381	C38	0.584400	0.817700	0.975390
C391	C39	0.472300	0.844600	0.980050
H131	H13	0.420200	0.838200	0.970100
C401	C40	0.509600	0.897000	0.013610
H141	H14	0.481600	0.923300	0.026200
C411	C41	0.621200	0.769300	0.953100
C421	C42	0.711000	0.889500	0.024770
N131	N13	0.585600	0.910100	0.027960
N141	N14	0.507100	0.802700	0.961210
O251	O25	0.741720	0.942090	0.054490
O261	O26	0.596900	0.692900	0.963990
O271	O27	0.866500	0.669200	0.076380
O281	O28	0.745700	0.852900	0.008410
C431	C43	0.290670	0.204730	0.341910
C441	C44	0.251070	0.151030	0.308720
C451	C45	0.138970	0.177930	0.313380
H151	H15	0.086870	0.171530	0.303430
C461	C46	0.176270	0.230330	0.346940
H161	H16	0.148270	0.256630	0.359530
C471	C47	0.287870	0.102630	0.286430
C481	C48	0.377670	0.222830	0.358100
N151	N15	0.252270	0.243430	0.361290
N161	N16	0.173770	0.136030	0.294540
O291	O29	0.408390	0.275420	0.387820
O301	O30	0.263570	0.026230	0.297320
O311	O31	0.533170	0.002530	0.409710
O321	O32	0.412370	0.186230	0.341740
C491	C49	0.957330	0.538070	0.675250
C501	C50	0.917730	0.484370	0.642060
C511	C51	0.805630	0.511270	0.646720
H171	H17	0.753530	0.504870	0.636770
C521	C52	0.842930	0.563670	0.680280
H181	H18	0.814930	0.589970	0.692870
C531	C53	0.954530	0.435970	0.619770
C541	C54	0.044330	0.556170	0.691440
N171	N17	0.918930	0.576770	0.694630
N181	N18	0.840430	0.469370	0.627880
O331	O33	0.075050	0.608760	0.721160
O341	O34	0.930230	0.359570	0.630660
O351	O35	0.199830	0.335870	0.743050
O361	O36	0.079030	0.519570	0.675080
C551	C55	0.752600	0.128600	0.491420
C561	C56	0.766700	0.182300	0.524610
C571	C57	0.627700	0.155400	0.519950
H191	H19	0.582000	0.161800	0.529900
C581	C58	0.612600	0.103000	0.486390
H201	H20	0.558300	0.076700	0.473800
C591	C59	0.851900	0.230700	0.546900
C601	C60	0.821500	0.110500	0.475230
N191	N19	0.675500	0.089900	0.472040
N201	N20	0.704400	0.197300	0.538790
O371	O37	0.799630	0.057910	0.445510
O381	O38	0.904000	0.307100	0.536010
O391	O39	0.197300	0.330800	0.423620
O401	O40	0.892800	0.147100	0.491590
C611	C61	0.419270	0.461930	0.824750
C621	C62	0.433370	0.515630	0.857940
C631	C63	0.294370	0.488730	0.853280
H211	H21	0.248670	0.495130	0.863230
C641	C64	0.279270	0.436330	0.819720
H221	H22	0.224970	0.410030	0.807130
C651	C65	0.518570	0.564030	0.880230
C661	C66	0.488170	0.443830	0.808560
N211	N21	0.342170	0.423230	0.805370
N221	N22	0.371070	0.530630	0.872120
O411	O41	0.466300	0.391240	0.778840
O421	O42	0.570670	0.640430	0.869340
O431	O43	0.863970	0.664130	0.756950
O441	O44	0.559470	0.480430	0.824920
C671	C67	0.085930	0.795270	0.158090
C681	C68	0.100030	0.848970	0.191280
C691	C69	0.961030	0.822070	0.186620
H231	H23	0.915330	0.828470	0.196570
C701	C70	0.945930	0.769670	0.153060
H241	H24	0.891630	0.743370	0.140470
C711	C71	0.185230	0.897370	0.213570
C721	C72	0.154830	0.777170	0.141900
N231	N23	0.008830	0.756570	0.138710
N241	N24	0.037730	0.863970	0.205460
O451	O45	0.132960	0.724580	0.112180
O461	O46	0.237330	0.973770	0.202680
O471	O47	0.530630	0.997470	0.090290
O481	O48	0.226130	0.813770	0.158260
C731	C73	0.376000	0.247400	0.491420
C741	C74	0.415600	0.233300	0.524610
C751	C75	0.527700	0.372300	0.519950
H251	H25	0.579800	0.418000	0.529900
C761	C76	0.490400	0.387400	0.486390
H261	H26	0.518400	0.441700	0.473800
C771	C77	0.378800	0.148100	0.546900
C781	C78	0.289000	0.178500	0.475230
N251	N25	0.414400	0.324500	0.472040
N261	N26	0.492900	0.295600	0.538790
O491	O49	0.258280	0.200370	0.445510
O501	O50	0.403100	0.096000	0.536010
O511	O51	0.133500	0.802700	0.423620
O521	O52	0.254300	0.107200	0.491590
C791	C79	0.042670	0.580730	0.824750
C801	C80	0.082270	0.566630	0.857940
C811	C81	0.194370	0.705630	0.853280
H271	H27	0.246470	0.751330	0.863230
C821	C82	0.157070	0.720730	0.819720
H281	H28	0.185070	0.775030	0.807130
C831	C83	0.045470	0.481430	0.880230
C841	C84	0.955670	0.511830	0.808560
N271	N27	0.081070	0.657830	0.805370
N281	N28	0.159570	0.628930	0.872120
O531	O53	0.924950	0.533700	0.778840
O541	O54	0.069770	0.429330	0.869340
O551	O55	0.800170	0.136030	0.756950
O561	O56	0.920970	0.440530	0.824920
C851	C85	0.709330	0.914070	0.158090
C861	C86	0.748930	0.899970	0.191280
C871	C87	0.861030	0.038970	0.186620
H291	H29	0.913130	0.084670	0.196570
C881	C88	0.823730	0.054070	0.153060
H301	H30	0.851730	0.108370	0.140470
C891	C89	0.712130	0.814770	0.213570
C901	C90	0.622330	0.845170	0.141900
N291	N29	0.747730	0.991170	0.138710
N301	N30	0.826230	0.962270	0.205460
O571	O57	0.591610	0.867040	0.112180
O581	O58	0.736430	0.762670	0.202680
O591	O59	0.466830	0.469370	0.090290
O601	O60	0.587630	0.773870	0.158260
C911	C91	0.871400	0.624000	0.491420
C921	C92	0.817700	0.584400	0.524610
C931	C93	0.844600	0.472300	0.519950
H311	H31	0.838200	0.420200	0.529900
C941	C94	0.897000	0.509600	0.486390
H321	H32	0.923300	0.481600	0.473800
C951	C95	0.769300	0.621200	0.546900
C961	C96	0.889500	0.711000	0.475230
N311	N31	0.910100	0.585600	0.472040
N321	N32	0.802700	0.507100	0.538790
O611	O61	0.942090	0.741720	0.445510
O621	O62	0.692900	0.596900	0.536010
O631	O63	0.669200	0.866500	0.423620
O641	O64	0.852900	0.745700	0.491590
C971	C97	0.538070	0.957330	0.824750
C981	C98	0.484370	0.917730	0.857940
C991	C99	0.511270	0.805630	0.853280
H331	H33	0.504870	0.753530	0.863230
C1001	C100	0.563670	0.842930	0.819720
H341	H34	0.589970	0.814930	0.807130
C1011	C101	0.435970	0.954530	0.880230
C1021	C102	0.556170	0.044330	0.808560
N331	N33	0.576770	0.918930	0.805370
N341	N34	0.469370	0.840430	0.872120
O651	O65	0.608760	0.075050	0.778840
O661	O66	0.359570	0.930230	0.869340
O671	O67	0.335870	0.199830	0.756950
O681	O68	0.519570	0.079030	0.824920
C1031	C103	0.204730	0.290670	0.158090
C1041	C104	0.151030	0.251070	0.191280
C1051	C105	0.177930	0.138970	0.186620
H351	H35	0.171530	0.086870	0.196570
C1061	C106	0.230330	0.176270	0.153060
H361	H36	0.256630	0.148270	0.140470
C1071	C107	0.102630	0.287870	0.213570
C1081	C108	0.222830	0.377670	0.141900
N351	N35	0.243430	0.252270	0.138710
N361	N36	0.136030	0.173770	0.205460
O691	O69	0.275420	0.408390	0.112180
O701	O70	0.026230	0.263570	0.202680
O711	O71	0.002530	0.533170	0.090290
O721	O72	0.186230	0.412370	0.158260
C1091	C109	0.871400	0.247400	0.991420
C1101	C110	0.817700	0.233300	0.024610
C1111	C111	0.844600	0.372300	0.019950
H371	H37	0.838200	0.418000	0.029900
C1121	C112	0.897000	0.387400	0.986390
H381	H38	0.923300	0.441700	0.973800
C1131	C113	0.769300	0.148100	0.046900
C1141	C114	0.889500	0.178500	0.975230
N371	N37	0.910100	0.324500	0.972040
N381	N38	0.802700	0.295600	0.038790
O731	O73	0.942090	0.200370	0.945510
O741	O74	0.692900	0.096000	0.036010
O751	O75	0.669200	0.802700	0.923620
O761	O76	0.852900	0.107200	0.991590
C1151	C115	0.538070	0.580730	0.324750
C1161	C116	0.484370	0.566630	0.357940
C1171	C117	0.511270	0.705630	0.353280
H391	H39	0.504870	0.751330	0.363230
C1181	C118	0.563670	0.720730	0.319720
H401	H40	0.589970	0.775030	0.307130
C1191	C119	0.435970	0.481430	0.380230
C1201	C120	0.556170	0.511830	0.308560
N391	N39	0.576770	0.657830	0.305370
N401	N40	0.469370	0.628930	0.372120
O771	O77	0.608760	0.533700	0.278840
O781	O78	0.359570	0.429330	0.369340
O791	O79	0.335870	0.136030	0.256950
O801	O80	0.519570	0.440530	0.324920
C1211	C121	0.204730	0.914070	0.658090
C1221	C122	0.151030	0.899970	0.691280
C1231	C123	0.177930	0.038970	0.686620
H411	H41	0.171530	0.084670	0.696570
C1241	C124	0.230330	0.054070	0.653060
H421	H42	0.256630	0.108370	0.640470
C1251	C125	0.102630	0.814770	0.713570
C1261	C126	0.222830	0.845170	0.641900
N411	N41	0.243430	0.991170	0.638710
N421	N42	0.136030	0.962270	0.705460
O811	O81	0.275420	0.867040	0.612180
O821	O82	0.026230	0.762670	0.702680
O831	O83	0.002530	0.469370	0.590290
O841	O84	0.186230	0.773870	0.658260
C1271	C127	0.752600	0.624000	0.991420
C1281	C128	0.766700	0.584400	0.024610
C1291	C129	0.627700	0.472300	0.019950
H431	H43	0.582000	0.420200	0.029900
C1301	C130	0.612600	0.509600	0.986390
H441	H44	0.558300	0.481600	0.973800
C1311	C131	0.851900	0.621200	0.046900
C1321	C132	0.821500	0.711000	0.975230
N431	N43	0.675500	0.585600	0.972040
N441	N44	0.704400	0.507100	0.038790
O851	O85	0.799630	0.741720	0.945510
O861	O86	0.904000	0.596900	0.036010
O871	O87	0.197300	0.866500	0.923620
O881	O88	0.892800	0.745700	0.991590
C1331	C133	0.419270	0.957330	0.324750
C1341	C134	0.433370	0.917730	0.357940
C1351	C135	0.294370	0.805630	0.353280
H451	H45	0.248670	0.753530	0.363230
C1361	C136	0.279270	0.842930	0.319720
H461	H46	0.224970	0.814930	0.307130
C1371	C137	0.518570	0.954530	0.380230
C1381	C138	0.488170	0.044330	0.308560
N451	N45	0.342170	0.918930	0.305370
N461	N46	0.371070	0.840430	0.372120
O891	O89	0.466300	0.075050	0.278840
O901	O90	0.570670	0.930230	0.369340
O911	O91	0.863970	0.199830	0.256950
O921	O92	0.559470	0.079030	0.324920
C1391	C139	0.085930	0.290670	0.658090
C1401	C140	0.100030	0.251070	0.691280
C1411	C141	0.961030	0.138970	0.686620
H471	H47	0.915330	0.086870	0.696570
C1421	C142	0.945930	0.176270	0.653060
H481	H48	0.891630	0.148270	0.640470
C1431	C143	0.185230	0.287870	0.713570
C1441	C144	0.154830	0.377670	0.641900
N471	N47	0.008830	0.252270	0.638710
N481	N48	0.037730	0.173770	0.705460
O931	O93	0.132960	0.408390	0.612180
O941	O94	0.237330	0.263570	0.702680
O951	O95	0.530630	0.533170	0.590290
O961	O96	0.226130	0.412370	0.658260
C1451	C145	0.376000	0.128600	0.991420
C1461	C146	0.415600	0.182300	0.024610
C1471	C147	0.527700	0.155400	0.019950
H491	H49	0.579800	0.161800	0.029900
C1481	C148	0.490400	0.103000	0.986390
H501	H50	0.518400	0.076700	0.973800
C1491	C149	0.378800	0.230700	0.046900
C1501	C150	0.289000	0.110500	0.975230
N491	N49	0.414400	0.089900	0.972040
N501	N50	0.492900	0.197300	0.038790
O971	O97	0.258280	0.057910	0.945510
O981	O98	0.403100	0.307100	0.036010
O991	O99	0.133500	0.330800	0.923620
O1001	O100	0.254300	0.147100	0.991590
C1511	C151	0.042670	0.461930	0.324750
C1521	C152	0.082270	0.515630	0.357940
C1531	C153	0.194370	0.488730	0.353280
H511	H51	0.246470	0.495130	0.363230
C1541	C154	0.157070	0.436330	0.319720
H521	H52	0.185070	0.410030	0.307130
C1551	C155	0.045470	0.564030	0.380230
C1561	C156	0.955670	0.443830	0.308560
N511	N51	0.081070	0.423230	0.305370
N521	N52	0.159570	0.530630	0.372120
O1011	O101	0.924950	0.391240	0.278840
O1021	O102	0.069770	0.640430	0.369340
O1031	O103	0.800170	0.664130	0.256950
O1041	O104	0.920970	0.480430	0.324920
C1571	C157	0.709330	0.795270	0.658090
C1581	C158	0.748930	0.848970	0.691280
C1591	C159	0.861030	0.822070	0.686620
H531	H53	0.913130	0.828470	0.696570
C1601	C160	0.823730	0.769670	0.653060
H541	H54	0.851730	0.743370	0.640470
C1611	C161	0.712130	0.897370	0.713570
C1621	C162	0.622330	0.777170	0.641900
N531	N53	0.747730	0.756570	0.638710
N541	N54	0.826230	0.863970	0.705460
O1051	O105	0.591610	0.724580	0.612180
O1061	O106	0.736430	0.973770	0.702680
O1071	O107	0.466830	0.997470	0.590290
O1081	O108	0.587630	0.813770	0.658260
C1631	C163	0.247400	0.871400	0.508580
C1641	C164	0.233300	0.817700	0.475390
C1651	C165	0.372300	0.844600	0.480050
H551	H55	0.418000	0.838200	0.470100
C1661	C166	0.387400	0.897000	0.513610
H561	H56	0.441700	0.923300	0.526200
C1671	C167	0.148100	0.769300	0.453100
C1681	C168	0.178500	0.889500	0.524770
N551	N55	0.324500	0.910100	0.527960
N561	N56	0.295600	0.802700	0.461210
O1091	O109	0.200370	0.942090	0.554490
O1101	O110	0.096000	0.692900	0.463990
O1111	O111	0.802700	0.669200	0.576380
O1121	O112	0.107200	0.852900	0.508410
C1691	C169	0.914070	0.204730	0.841910
C1701	C170	0.899970	0.151030	0.808720
C1711	C171	0.038970	0.177930	0.813380
H571	H57	0.084670	0.171530	0.803430
C1721	C172	0.054070	0.230330	0.846940
H581	H58	0.108370	0.256630	0.859530
C1731	C173	0.814770	0.102630	0.786430
C1741	C174	0.845170	0.222830	0.858100
N571	N57	0.991170	0.243430	0.861290
N581	N58	0.962270	0.136030	0.794540
O1131	O113	0.867040	0.275420	0.887820
O1141	O114	0.762670	0.026230	0.797320
O1151	O115	0.469370	0.002530	0.909710
O1161	O116	0.773870	0.186230	0.841740
C1751	C175	0.580730	0.538070	0.175250
C1761	C176	0.566630	0.484370	0.142060
C1771	C177	0.705630	0.511270	0.146720
H591	H59	0.751330	0.504870	0.136770
C1781	C178	0.720730	0.563670	0.180280
H601	H60	0.775030	0.589970	0.192870
C1791	C179	0.481430	0.435970	0.119770
C1801	C180	0.511830	0.556170	0.191440
N591	N59	0.657830	0.576770	0.194630
N601	N60	0.628930	0.469370	0.127880
O1171	O117	0.533700	0.608760	0.221160
O1181	O118	0.429330	0.359570	0.130660
O1191	O119	0.136030	0.335870	0.243050
O1201	O120	0.440530	0.519570	0.175080
C1811	C181	0.624000	0.752600	0.508580
C1821	C182	0.584400	0.766700	0.475390
C1831	C183	0.472300	0.627700	0.480050
H611	H61	0.420200	0.582000	0.470100
C1841	C184	0.509600	0.612600	0.513610
H621	H62	0.481600	0.558300	0.526200
C1851	C185	0.621200	0.851900	0.453100
C1861	C186	0.711000	0.821500	0.524770
N611	N61	0.585600	0.675500	0.527960
N621	N62	0.507100	0.704400	0.461210
O1211	O121	0.741720	0.799630	0.554490
O1221	O122	0.596900	0.904000	0.463990
O1231	O123	0.866500	0.197300	0.576380
O1241	O124	0.745700	0.892800	0.508410
C1871	C187	0.290670	0.085930	0.841910
C1881	C188	0.251070	0.100030	0.808720
C1891	C189	0.138970	0.961030	0.813380
H631	H63	0.086870	0.915330	0.803430
C1901	C190	0.176270	0.945930	0.846940
H641	H64	0.148270	0.891630	0.859530
C1911	C191	0.287870	0.185230	0.786430
C1921	C192	0.377670	0.154830	0.858100
N631	N63	0.252270	0.008830	0.861290
N641	N64	0.173770	0.037730	0.794540
O1251	O125	0.408390	0.132960	0.887820
O1261	O126	0.263570	0.237330	0.797320
O1271	O127	0.533170	0.530630	0.909710
O1281	O128	0.412370	0.226130	0.841740
C1931	C193	0.957330	0.419270	0.175250
C1941	C194	0.917730	0.433370	0.142060
C1951	C195	0.805630	0.294370	0.146720
H651	H65	0.753530	0.248670	0.136770
C1961	C196	0.842930	0.279270	0.180280
H661	H66	0.814930	0.224970	0.192870
C1971	C197	0.954530	0.518570	0.119770
C1981	C198	0.044330	0.488170	0.191440
N651	N65	0.918930	0.342170	0.194630
N661	N66	0.840430	0.371070	0.127880
O1291	O129	0.075050	0.466300	0.221160
O1301	O130	0.930230	0.570670	0.130660
O1311	O131	0.199830	0.863970	0.243050
O1321	O132	0.079030	0.559470	0.175080
C1991	C199	0.128600	0.376000	0.508580
C2001	C200	0.182300	0.415600	0.475390
C2011	C201	0.155400	0.527700	0.480050
H671	H67	0.161800	0.579800	0.470100
C2021	C202	0.103000	0.490400	0.513610
H681	H68	0.076700	0.518400	0.526200
C2031	C203	0.230700	0.378800	0.453100
C2041	C204	0.110500	0.289000	0.524770
N671	N67	0.089900	0.414400	0.527960
N681	N68	0.197300	0.492900	0.461210
O1331	O133	0.057910	0.258280	0.554490
O1341	O134	0.307100	0.403100	0.463990
O1351	O135	0.330800	0.133500	0.576380
O1361	O136	0.147100	0.254300	0.508410
C2051	C205	0.795270	0.709330	0.841910
C2061	C206	0.848970	0.748930	0.808720
C2071	C207	0.822070	0.861030	0.813380
H691	H69	0.828470	0.913130	0.803430
C2081	C208	0.769670	0.823730	0.846940
H701	H70	0.743370	0.851730	0.859530
C2091	C209	0.897370	0.712130	0.786430
C2101	C210	0.777170	0.622330	0.858100
N691	N69	0.756570	0.747730	0.861290
N701	N70	0.863970	0.826230	0.794540
O1371	O137	0.724580	0.591610	0.887820
O1381	O138	0.973770	0.736430	0.797320
O1391	O139	0.997470	0.466830	0.909710
O1401	O140	0.813770	0.587630	0.841740
C2111	C211	0.461930	0.042670	0.175250
C2121	C212	0.515630	0.082270	0.142060
C2131	C213	0.488730	0.194370	0.146720
H711	H71	0.495130	0.246470	0.136770
C2141	C214	0.436330	0.157070	0.180280
H721	H72	0.410030	0.185070	0.192870
C2151	C215	0.564030	0.045470	0.119770
C2161	C216	0.443830	0.955670	0.191440
N711	N71	0.423230	0.081070	0.194630
N721	N72	0.530630	0.159570	0.127880
O1411	O141	0.391240	0.924950	0.221160
O1421	O142	0.640430	0.069770	0.130660
O1431	O143	0.664130	0.800170	0.243050
O1441	O144	0.480430	0.920970	0.175080
In11	In1	0.005340	0.672010	0.083330
In21	In2	0.338670	0.338670	0.750000
In31	In3	0.327990	0.333330	0.083330
In41	In4	0.666670	0.994660	0.083330
In51	In5	0.333330	0.327990	0.416670
In61	In6	0.672010	0.005340	0.416670
In71	In7	0.000000	0.661330	0.750000
In81	In8	0.994660	0.666670	0.416670
In91	In9	0.661330	0.000000	0.750000
In101	In10	0.994660	0.327990	0.916670
In111	In11	0.661330	0.661330	0.250000
In121	In12	0.672010	0.666670	0.916670
In131	In13	0.338670	0.000000	0.250000
In141	In14	0.005340	0.333330	0.583330
In151	In15	0.333330	0.005340	0.916670
In161	In16	0.000000	0.338670	0.250000
In171	In17	0.327990	0.994660	0.583330
In181	In18	0.666670	0.672010	0.583330
