data_om701262m-file004_freeONLY_PM
_symmetry_space_group_name_H-M	'P1'
_cell_length_a	12.486800
_cell_length_b	13.025500
_cell_length_c	23.755500
_cell_angle_alpha	90.000000
_cell_angle_beta	90.000000
_cell_angle_gamma	90.000000
_symmetry_Int_Tables_number 1

loop_
_symmetry_equiv_pos_as_xyz
'x,y,z'

loop_
_atom_site_label
_atom_site_type_symbol
_atom_site_fract_x
_atom_site_fract_y
_atom_site_fract_z
Zn11	Zn1	0.250000	0.500000	0.798520
Zn21	Zn2	0.759300	0.250000	0.250000
Zn31	Zn3	0.240700	0.750000	0.750000
Zn41	Zn4	0.250000	0.000000	0.701480
Zn51	Zn5	0.750000	0.500000	0.201480
Zn61	Zn6	0.259300	0.250000	0.750000
Zn71	Zn7	0.750000	0.000000	0.298520
Zn81	Zn8	0.740700	0.750000	0.250000
Si11	Si1	0.250000	0.500000	0.461580
Si21	Si2	0.250000	0.000000	0.038420
Si31	Si3	0.750000	0.000000	0.961580
Si41	Si4	0.750000	0.500000	0.538420
H11	H1	0.894100	0.823100	0.460800
H21	H2	0.999900	0.091100	0.189100
H31	H3	0.633000	0.122500	0.877000
H41	H4	0.133000	0.377500	0.377000
H51	H5	0.399700	0.166300	0.063100
H61	H6	0.643400	0.700000	0.375800
H71	H7	0.899700	0.166300	0.936900
H81	H8	0.865800	0.068800	0.057700
H91	H9	0.032300	0.302000	0.629700
H101	H10	0.532300	0.198000	0.129700
H111	H11	0.967700	0.698000	0.370300
H121	H12	0.600300	0.833700	0.936900
H131	H13	0.634200	0.931200	0.057700
H141	H14	0.394100	0.676900	0.960800
H151	H15	0.113500	0.310100	0.474000
H161	H16	0.113500	0.189900	0.026000
H171	H17	0.386500	0.689900	0.474000
H181	H18	0.134200	0.568800	0.557700
H191	H19	0.886500	0.810100	0.974000
H201	H20	0.643400	0.800000	0.124200
H211	H21	0.634200	0.568800	0.442300
H221	H22	0.133000	0.122500	0.123000
H231	H23	0.399700	0.333700	0.436900
H241	H24	0.134200	0.931200	0.942300
H251	H25	0.899700	0.333700	0.563100
H261	H26	0.500100	0.908900	0.189100
H271	H27	0.365800	0.431200	0.557700
H281	H28	0.467700	0.802000	0.870300
H291	H29	0.605900	0.323100	0.039200
H301	H30	0.633000	0.377500	0.623000
H311	H31	0.600300	0.666300	0.563100
H321	H32	0.867000	0.622500	0.623000
H331	H33	0.100300	0.833700	0.063100
H341	H34	0.143400	0.700000	0.624200
H351	H35	0.856600	0.200000	0.124200
H361	H36	0.467700	0.698000	0.629700
H371	H37	0.367000	0.877500	0.123000
H381	H38	0.967700	0.802000	0.129700
H391	H39	0.499900	0.091100	0.810900
H401	H40	0.000100	0.908900	0.810900
H411	H41	0.105900	0.176900	0.539200
H421	H42	0.867000	0.877500	0.877000
H431	H43	0.999900	0.408900	0.310900
H441	H44	0.100300	0.666300	0.436900
H451	H45	0.894100	0.676900	0.039200
H461	H46	0.367000	0.622500	0.377000
H471	H47	0.886500	0.689900	0.526000
H481	H48	0.105900	0.323100	0.960800
H491	H49	0.032300	0.198000	0.870300
H501	H50	0.856600	0.300000	0.375800
H511	H51	0.605900	0.176900	0.460800
H521	H52	0.143400	0.800000	0.875800
H531	H53	0.394100	0.823100	0.539200
H541	H54	0.613500	0.189900	0.974000
H551	H55	0.865800	0.431200	0.442300
H561	H56	0.500100	0.591100	0.310900
H571	H57	0.499900	0.408900	0.689100
H581	H58	0.386500	0.810100	0.026000
H591	H59	0.356600	0.300000	0.624200
H601	H60	0.000100	0.591100	0.689100
H611	H61	0.365800	0.068800	0.942300
H621	H62	0.532300	0.302000	0.370300
H631	H63	0.613500	0.310100	0.526000
H641	H64	0.356600	0.200000	0.875800
C11	C1	0.229100	0.273200	0.911290
C21	C2	0.193000	0.698000	0.593910
C31	C3	0.132400	0.981200	0.086060
C41	C4	0.028700	0.057100	0.833820
C51	C5	0.693000	0.802000	0.093910
C61	C6	0.307000	0.198000	0.906090
C71	C7	0.219100	0.355600	0.868120
C81	C8	0.400100	0.556900	0.375780
C91	C9	0.342100	0.770400	0.543400
C101	C10	0.979300	0.538300	0.663660
C111	C11	0.001500	0.867300	0.128500
C121	C12	0.811700	0.380300	0.445680
C131	C13	0.080800	0.613700	0.411140
C141	C14	0.280900	0.644400	0.868120
C151	C15	0.998500	0.367300	0.628500
C161	C16	0.337200	0.808700	0.995490
C171	C17	0.900100	0.556900	0.624220
C181	C18	0.780900	0.855600	0.368120
C191	C19	0.971300	0.557100	0.333820
C201	C20	0.688300	0.619700	0.445680
C211	C21	0.270900	0.773200	0.588710
C221	C22	0.188300	0.619700	0.554320
C231	C23	0.113800	0.077900	0.790450
C241	C24	0.867600	0.018800	0.913940
C251	C25	0.599900	0.056900	0.875780
C261	C26	0.811700	0.119700	0.054320
C271	C27	0.632400	0.518800	0.586060
C281	C28	0.739000	0.386400	0.490500
C291	C29	0.157900	0.270400	0.956600
C301	C30	0.311700	0.119700	0.945680
C311	C31	0.780900	0.644400	0.131880
C321	C32	0.311700	0.380300	0.554320
C331	C33	0.842100	0.770400	0.456600
C341	C34	0.261000	0.613600	0.509500
C351	C35	0.580800	0.613700	0.588860
C361	C36	0.342100	0.729600	0.956600
C371	C37	0.099900	0.443100	0.375780
C381	C38	0.386200	0.922100	0.790450
C391	C39	0.471300	0.557100	0.666180
C401	C40	0.867600	0.481200	0.586060
C411	C41	0.020700	0.461700	0.336340
C421	C42	0.479300	0.538300	0.336340
C431	C43	0.080800	0.886300	0.088860
C441	C44	0.307000	0.302000	0.593910
C451	C45	0.386200	0.577900	0.709550
C461	C46	0.498500	0.132700	0.128500
C471	C47	0.729100	0.273200	0.088710
C481	C48	0.807000	0.198000	0.093910
C491	C49	0.270900	0.726800	0.911290
C501	C50	0.188300	0.880300	0.945680
C511	C51	0.498500	0.367300	0.371500
C521	C52	0.157900	0.229600	0.543400
C531	C53	0.998500	0.132700	0.871500
C541	C54	0.657900	0.229600	0.456600
C551	C55	0.113800	0.422100	0.709550
C561	C56	0.528700	0.442900	0.333820
C571	C57	0.662800	0.308700	0.495490
C581	C58	0.280900	0.855600	0.631880
C591	C59	0.099900	0.056900	0.124220
C601	C60	0.979300	0.961700	0.836340
C611	C61	0.837200	0.808700	0.004510
C621	C62	0.239000	0.386400	0.509500
C631	C63	0.419200	0.113700	0.088860
C641	C64	0.239000	0.113600	0.990500
C651	C65	0.613800	0.422100	0.290450
C661	C66	0.662800	0.191300	0.004510
C671	C67	0.132400	0.518800	0.413940
C681	C68	0.613800	0.077900	0.209550
C691	C69	0.739000	0.113600	0.009500
C701	C70	0.971300	0.942900	0.166180
C711	C71	0.761000	0.886400	0.009500
C721	C72	0.367600	0.481200	0.413940
C731	C73	0.632400	0.981200	0.913940
C741	C74	0.400100	0.943100	0.124220
C751	C75	0.419200	0.386300	0.411140
C761	C76	0.162800	0.308700	0.504510
C771	C77	0.528700	0.057100	0.166180
C781	C78	0.807000	0.302000	0.406090
C791	C79	0.261000	0.886400	0.990500
C801	C80	0.729100	0.226800	0.411290
C811	C81	0.770900	0.773200	0.411290
C821	C82	0.919200	0.386300	0.588860
C831	C83	0.900100	0.943100	0.875780
C841	C84	0.337200	0.691300	0.504510
C851	C85	0.471300	0.942900	0.833820
C861	C86	0.001500	0.632700	0.371500
C871	C87	0.886200	0.577900	0.290450
C881	C88	0.520700	0.461700	0.663660
C891	C89	0.520700	0.038300	0.836340
C901	C90	0.770900	0.726800	0.088710
C911	C91	0.193000	0.802000	0.906090
C921	C92	0.028700	0.442900	0.666180
C931	C93	0.719100	0.355600	0.131880
C941	C94	0.886200	0.922100	0.209550
C951	C95	0.501500	0.632700	0.628500
C961	C96	0.229100	0.226800	0.588710
C971	C97	0.020700	0.038300	0.163660
C981	C98	0.842100	0.729600	0.043400
C991	C99	0.580800	0.886300	0.911140
C1001	C100	0.501500	0.867300	0.871500
C1011	C101	0.599900	0.443100	0.624220
C1021	C102	0.219100	0.144400	0.631880
C1031	C103	0.837200	0.691300	0.495490
C1041	C104	0.761000	0.613600	0.490500
C1051	C105	0.693000	0.698000	0.406090
C1061	C106	0.479300	0.961700	0.163660
C1071	C107	0.719100	0.144400	0.368120
C1081	C108	0.367600	0.018800	0.086060
C1091	C109	0.919200	0.113700	0.911140
C1101	C110	0.162800	0.191300	0.995490
C1111	C111	0.657900	0.270400	0.043400
C1121	C112	0.688300	0.880300	0.054320
O11	O1	0.157700	0.070300	0.624330
O21	O2	0.161090	0.337080	0.706850
O31	O3	0.915500	0.250000	0.250000
O41	O4	0.157700	0.429700	0.875670
O51	O5	0.370300	0.508610	0.745180
O61	O6	0.657700	0.070300	0.375670
O71	O7	0.629700	0.491390	0.254820
O81	O8	0.777800	0.149390	0.323410
O91	O9	0.842300	0.570300	0.124330
O101	O10	0.338910	0.837080	0.793150
O111	O11	0.222200	0.850610	0.676590
O121	O12	0.838910	0.837080	0.206850
O131	O13	0.342300	0.570300	0.875670
O141	O14	0.661090	0.162920	0.206850
O151	O15	0.777800	0.350610	0.176590
O161	O16	0.629700	0.008610	0.245180
O171	O17	0.722200	0.850610	0.323410
O181	O18	0.870300	0.991390	0.245180
O191	O19	0.129700	0.491390	0.745180
O201	O20	0.870300	0.508610	0.254820
O211	O21	0.842300	0.929700	0.375670
O221	O22	0.338910	0.662920	0.706850
O231	O23	0.161090	0.162920	0.793150
O241	O24	0.657700	0.429700	0.124330
O251	O25	0.584500	0.750000	0.250000
O261	O26	0.661090	0.337080	0.293150
O271	O27	0.129700	0.008610	0.754820
O281	O28	0.084500	0.750000	0.750000
O291	O29	0.722200	0.649390	0.176590
O301	O30	0.415500	0.250000	0.750000
O311	O31	0.838910	0.662920	0.293150
O321	O32	0.277800	0.149390	0.676590
O331	O33	0.342300	0.929700	0.624330
O341	O34	0.222200	0.649390	0.823410
O351	O35	0.370300	0.991390	0.754820
O361	O36	0.277800	0.350610	0.823410
