data_OMAMEU_freeONLY_PM
_symmetry_space_group_name_H-M	'P1'
_cell_length_a	10.478700
_cell_length_b	20.009100
_cell_length_c	14.959400
_cell_angle_alpha	90.000000
_cell_angle_beta	90.000000
_cell_angle_gamma	90.000000
_symmetry_Int_Tables_number 1

loop_
_symmetry_equiv_pos_as_xyz
'x,y,z'

loop_
_atom_site_label
_atom_site_type_symbol
_atom_site_fract_x
_atom_site_fract_y
_atom_site_fract_z
Zn11	Zn1	0.073520	0.756280	0.386580
Zn21	Zn2	0.905680	0.588930	0.434160
Zn31	Zn3	0.367400	0.083860	0.982100
P11	P1	0.307730	0.765690	0.521510
P21	P2	0.136400	0.441270	0.078960
O11	O1	0.075300	0.838400	0.314000
O21	O2	0.920000	0.679100	0.188800
O31	O3	0.245000	0.745800	0.434800
O41	O4	0.945800	0.758000	0.479600
O51	O5	0.087000	0.931100	0.201900
H11	H1	0.141800	0.911000	0.173400
O61	O6	0.907900	0.593200	0.302000
O71	O7	0.735800	0.767100	0.397700
H21	H2	0.737900	0.807900	0.402600
O81	O8	0.292800	0.840000	0.539700
O91	O9	0.190700	0.506300	0.050500
O101	O10	0.244100	0.393500	0.103000
O111	O11	0.052900	0.408600	0.011900
O121	O12	0.943400	0.544000	0.837800
H31	H3	0.918400	0.567200	0.796200
O131	O13	0.286200	0.081800	0.863400
Zn41	Zn4	0.426480	0.743720	0.886580
Zn51	Zn5	0.594320	0.911070	0.934160
Zn61	Zn6	0.132600	0.416140	0.482100
P31	P3	0.192270	0.734310	0.021510
P41	P4	0.363600	0.058730	0.578960
O141	O14	0.424700	0.661600	0.814000
O151	O15	0.580000	0.820900	0.688800
O161	O16	0.255000	0.754200	0.934800
O171	O17	0.554200	0.742000	0.979600
O181	O18	0.413000	0.568900	0.701900
H41	H4	0.358200	0.589000	0.673400
O191	O19	0.592100	0.906800	0.802000
O201	O20	0.764200	0.732900	0.897700
H51	H5	0.762100	0.692100	0.902600
O211	O21	0.207200	0.660000	0.039700
O221	O22	0.309300	0.993700	0.550500
O231	O23	0.255900	0.106500	0.603000
O241	O24	0.447100	0.091400	0.511900
O251	O25	0.556600	0.956000	0.337800
H61	H6	0.581600	0.932800	0.296200
O261	O26	0.213800	0.418200	0.363400
Zn71	Zn7	0.926480	0.756280	0.113420
Zn81	Zn8	0.094320	0.588930	0.065840
Zn91	Zn9	0.632600	0.083860	0.517900
P51	P5	0.692270	0.765690	0.978490
P61	P6	0.863600	0.441270	0.421040
O271	O27	0.924700	0.838400	0.186000
O281	O28	0.080000	0.679100	0.311200
O291	O29	0.755000	0.745800	0.065200
O301	O30	0.054200	0.758000	0.020400
O311	O31	0.913000	0.931100	0.298100
H71	H7	0.858200	0.911000	0.326600
O321	O32	0.092100	0.593200	0.198000
O331	O33	0.264200	0.767100	0.102300
H81	H8	0.262100	0.807900	0.097400
O341	O34	0.707200	0.840000	0.960300
O351	O35	0.809300	0.506300	0.449500
O361	O36	0.755900	0.393500	0.397000
O371	O37	0.947100	0.408600	0.488100
O381	O38	0.056600	0.544000	0.662200
H91	H9	0.081600	0.567200	0.703800
O391	O39	0.713800	0.081800	0.636600
Zn101	Zn10	0.573520	0.743720	0.613420
Zn111	Zn11	0.405680	0.911070	0.565840
Zn121	Zn12	0.867400	0.416140	0.017900
P71	P7	0.807730	0.734310	0.478490
P81	P8	0.636400	0.058730	0.921040
O401	O40	0.575300	0.661600	0.686000
O411	O41	0.420000	0.820900	0.811200
O421	O42	0.745000	0.754200	0.565200
O431	O43	0.445800	0.742000	0.520400
O441	O44	0.587000	0.568900	0.798100
H101	H10	0.641800	0.589000	0.826600
O451	O45	0.407900	0.906800	0.698000
O461	O46	0.235800	0.732900	0.602300
H111	H11	0.237900	0.692100	0.597400
O471	O47	0.792800	0.660000	0.460300
O481	O48	0.690700	0.993700	0.949500
O491	O49	0.744100	0.106500	0.897000
O501	O50	0.552900	0.091400	0.988100
O511	O51	0.443400	0.956000	0.162200
H121	H12	0.418400	0.932800	0.203800
O521	O52	0.786200	0.418200	0.136600
Zn131	Zn13	0.926480	0.243720	0.613420
Zn141	Zn14	0.094320	0.411070	0.565840
Zn151	Zn15	0.632600	0.916140	0.017900
P91	P9	0.692270	0.234310	0.478490
P101	P10	0.863600	0.558730	0.921040
O531	O53	0.924700	0.161600	0.686000
O541	O54	0.080000	0.320900	0.811200
O551	O55	0.755000	0.254200	0.565200
O561	O56	0.054200	0.242000	0.520400
O571	O57	0.913000	0.068900	0.798100
H131	H13	0.858200	0.089000	0.826600
O581	O58	0.092100	0.406800	0.698000
O591	O59	0.264200	0.232900	0.602300
H141	H14	0.262100	0.192100	0.597400
O601	O60	0.707200	0.160000	0.460300
O611	O61	0.809300	0.493700	0.949500
O621	O62	0.755900	0.606500	0.897000
O631	O63	0.947100	0.591400	0.988100
O641	O64	0.056600	0.456000	0.162200
H151	H15	0.081600	0.432800	0.203800
O651	O65	0.713800	0.918200	0.136600
Zn161	Zn16	0.573520	0.256280	0.113420
Zn171	Zn17	0.405680	0.088930	0.065840
Zn181	Zn18	0.867400	0.583860	0.517900
P111	P11	0.807730	0.265690	0.978490
P121	P12	0.636400	0.941270	0.421040
O661	O66	0.575300	0.338400	0.186000
O671	O67	0.420000	0.179100	0.311200
O681	O68	0.745000	0.245800	0.065200
O691	O69	0.445800	0.258000	0.020400
O701	O70	0.587000	0.431100	0.298100
H161	H16	0.641800	0.411000	0.326600
O711	O71	0.407900	0.093200	0.198000
O721	O72	0.235800	0.267100	0.102300
H171	H17	0.237900	0.307900	0.097400
O731	O73	0.792800	0.340000	0.960300
O741	O74	0.690700	0.006300	0.449500
O751	O75	0.744100	0.893500	0.397000
O761	O76	0.552900	0.908600	0.488100
O771	O77	0.443400	0.044000	0.662200
H181	H18	0.418400	0.067200	0.703800
O781	O78	0.786200	0.581800	0.636600
Zn191	Zn19	0.073520	0.243720	0.886580
Zn201	Zn20	0.905680	0.411070	0.934160
Zn211	Zn21	0.367400	0.916140	0.482100
P131	P13	0.307730	0.234310	0.021510
P141	P14	0.136400	0.558730	0.578960
O791	O79	0.075300	0.161600	0.814000
O801	O80	0.920000	0.320900	0.688800
O811	O81	0.245000	0.254200	0.934800
O821	O82	0.945800	0.242000	0.979600
O831	O83	0.087000	0.068900	0.701900
H191	H19	0.141800	0.089000	0.673400
O841	O84	0.907900	0.406800	0.802000
O851	O85	0.735800	0.232900	0.897700
H201	H20	0.737900	0.192100	0.902600
O861	O86	0.292800	0.160000	0.039700
O871	O87	0.190700	0.493700	0.550500
O881	O88	0.244100	0.606500	0.603000
O891	O89	0.052900	0.591400	0.511900
O901	O90	0.943400	0.456000	0.337800
H211	H21	0.918400	0.432800	0.296200
O911	O91	0.286200	0.918200	0.363400
Zn221	Zn22	0.426480	0.256280	0.386580
Zn231	Zn23	0.594320	0.088930	0.434160
Zn241	Zn24	0.132600	0.583860	0.982100
P151	P15	0.192270	0.265690	0.521510
P161	P16	0.363600	0.941270	0.078960
O921	O92	0.424700	0.338400	0.314000
O931	O93	0.580000	0.179100	0.188800
O941	O94	0.255000	0.245800	0.434800
O951	O95	0.554200	0.258000	0.479600
O961	O96	0.413000	0.431100	0.201900
H221	H22	0.358200	0.411000	0.173400
O971	O97	0.592100	0.093200	0.302000
O981	O98	0.764200	0.267100	0.397700
H231	H23	0.762100	0.307900	0.402600
O991	O99	0.207200	0.340000	0.539700
O1001	O100	0.309300	0.006300	0.050500
O1011	O101	0.255900	0.893500	0.103000
O1021	O102	0.447100	0.908600	0.011900
O1031	O103	0.556600	0.044000	0.837800
H241	H24	0.581600	0.067200	0.796200
O1041	O104	0.213800	0.581800	0.863400
P171	P17	0.000000	0.880210	0.250000
P181	P18	0.000000	0.637980	0.250000
P191	P19	0.500000	0.619790	0.750000
P201	P20	0.500000	0.862020	0.750000
P211	P21	0.000000	0.119790	0.750000
P221	P22	0.000000	0.362020	0.750000
P231	P23	0.500000	0.380210	0.250000
P241	P24	0.500000	0.137980	0.250000
