data_ONAWEG02_freeONLY_PM
_symmetry_space_group_name_H-M	'P1'
_cell_length_a	16.998200
_cell_length_b	12.892400
_cell_length_c	24.714300
_cell_angle_alpha	90.000000
_cell_angle_beta	90.000000
_cell_angle_gamma	90.000000
_symmetry_Int_Tables_number 1

loop_
_symmetry_equiv_pos_as_xyz
'x,y,z'

loop_
_atom_site_label
_atom_site_type_symbol
_atom_site_fract_x
_atom_site_fract_y
_atom_site_fract_z
C11	C1	0.822000	0.189500	0.942800
H11	H1	0.775900	0.182000	0.923000
C21	C2	0.931000	0.248400	0.969560
H21	H2	0.976500	0.287800	0.973600
C31	C3	0.958400	0.116100	0.041260
H31	H3	0.923400	0.078700	0.065300
H41	H4	0.986200	0.167700	0.062500
C41	C4	0.016900	0.041500	0.017300
H51	H5	0.054300	0.080700	0.995900
H61	H6	0.045700	0.009000	0.046600
N11	N1	0.875800	0.265000	0.932870
N21	N2	0.912000	0.168000	0.999450
N31	N3	0.841300	0.128400	0.982840
C51	C5	0.822000	0.689500	0.442800
H71	H7	0.775900	0.682000	0.423000
C61	C6	0.931000	0.748400	0.469560
H81	H8	0.976500	0.787800	0.473600
C71	C7	0.958400	0.616100	0.541260
H91	H9	0.923400	0.578700	0.565300
H101	H10	0.986200	0.667700	0.562500
C81	C8	0.016900	0.541500	0.517300
H111	H11	0.054300	0.580700	0.495900
H121	H12	0.045700	0.509000	0.546600
N41	N4	0.875800	0.765000	0.432870
N51	N5	0.912000	0.668000	0.499450
N61	N6	0.841300	0.628400	0.482840
C91	C9	0.322000	0.189500	0.442800
H131	H13	0.275900	0.182000	0.423000
C101	C10	0.431000	0.248400	0.469560
H141	H14	0.476500	0.287800	0.473600
C111	C11	0.458400	0.116100	0.541260
H151	H15	0.423400	0.078700	0.565300
H161	H16	0.486200	0.167700	0.562500
C121	C12	0.516900	0.041500	0.517300
H171	H17	0.554300	0.080700	0.495900
H181	H18	0.545700	0.009000	0.546600
N71	N7	0.375800	0.265000	0.432870
N81	N8	0.412000	0.168000	0.499450
N91	N9	0.341300	0.128400	0.482840
C131	C13	0.322000	0.689500	0.942800
H191	H19	0.275900	0.682000	0.923000
C141	C14	0.431000	0.748400	0.969560
H201	H20	0.476500	0.787800	0.973600
C151	C15	0.458400	0.616100	0.041260
H211	H21	0.423400	0.578700	0.065300
H221	H22	0.486200	0.667700	0.062500
C161	C16	0.516900	0.541500	0.017300
H231	H23	0.554300	0.580700	0.995900
H241	H24	0.545700	0.509000	0.046600
N101	N10	0.375800	0.765000	0.932870
N111	N11	0.412000	0.668000	0.999450
N121	N12	0.341300	0.628400	0.982840
C171	C17	0.928000	0.560500	0.942800
H251	H25	0.974100	0.568000	0.923000
C181	C18	0.819000	0.501600	0.969560
H261	H26	0.773500	0.462200	0.973600
C191	C19	0.791600	0.633900	0.041260
H271	H27	0.826600	0.671300	0.065300
H281	H28	0.763800	0.582300	0.062500
C201	C20	0.733100	0.708500	0.017300
H291	H29	0.695700	0.669300	0.995900
H301	H30	0.704300	0.741000	0.046600
N131	N13	0.874200	0.485000	0.932870
N141	N14	0.838000	0.582000	0.999450
N151	N15	0.908700	0.621600	0.982840
C211	C21	0.928000	0.060500	0.442800
H311	H31	0.974100	0.068000	0.423000
C221	C22	0.819000	0.001600	0.469560
H321	H32	0.773500	0.962200	0.473600
C231	C23	0.791600	0.133900	0.541260
H331	H33	0.826600	0.171300	0.565300
H341	H34	0.763800	0.082300	0.562500
C241	C24	0.733100	0.208500	0.517300
H351	H35	0.695700	0.169300	0.495900
H361	H36	0.704300	0.241000	0.546600
N161	N16	0.874200	0.985000	0.432870
N171	N17	0.838000	0.082000	0.499450
N181	N18	0.908700	0.121600	0.482840
C251	C25	0.428000	0.560500	0.442800
H371	H37	0.474100	0.568000	0.423000
C261	C26	0.319000	0.501600	0.469560
H381	H38	0.273500	0.462200	0.473600
C271	C27	0.291600	0.633900	0.541260
H391	H39	0.326600	0.671300	0.565300
H401	H40	0.263800	0.582300	0.562500
C281	C28	0.233100	0.708500	0.517300
H411	H41	0.195700	0.669300	0.495900
H421	H42	0.204300	0.741000	0.546600
N191	N19	0.374200	0.485000	0.432870
N201	N20	0.338000	0.582000	0.499450
N211	N21	0.408700	0.621600	0.482840
C291	C29	0.428000	0.060500	0.942800
H431	H43	0.474100	0.068000	0.923000
C301	C30	0.319000	0.001600	0.969560
H441	H44	0.273500	0.962200	0.973600
C311	C31	0.291600	0.133900	0.041260
H451	H45	0.326600	0.171300	0.065300
H461	H46	0.263800	0.082300	0.062500
C321	C32	0.233100	0.208500	0.017300
H471	H47	0.195700	0.169300	0.995900
H481	H48	0.204300	0.241000	0.046600
N221	N22	0.374200	0.985000	0.932870
N231	N23	0.338000	0.082000	0.999450
N241	N24	0.408700	0.121600	0.982840
C331	C33	0.928000	0.189500	0.807200
H491	H49	0.974100	0.182000	0.827000
C341	C34	0.819000	0.248400	0.780440
H501	H50	0.773500	0.287800	0.776400
C351	C35	0.791600	0.116100	0.708740
H511	H51	0.826600	0.078700	0.684700
H521	H52	0.763800	0.167700	0.687500
C361	C36	0.733100	0.041500	0.732700
H531	H53	0.695700	0.080700	0.754100
H541	H54	0.704300	0.009000	0.703400
N251	N25	0.874200	0.265000	0.817130
N261	N26	0.838000	0.168000	0.750550
N271	N27	0.908700	0.128400	0.767160
C371	C37	0.928000	0.689500	0.307200
H551	H55	0.974100	0.682000	0.327000
C381	C38	0.819000	0.748400	0.280440
H561	H56	0.773500	0.787800	0.276400
C391	C39	0.791600	0.616100	0.208740
H571	H57	0.826600	0.578700	0.184700
H581	H58	0.763800	0.667700	0.187500
C401	C40	0.733100	0.541500	0.232700
H591	H59	0.695700	0.580700	0.254100
H601	H60	0.704300	0.509000	0.203400
N281	N28	0.874200	0.765000	0.317130
N291	N29	0.838000	0.668000	0.250550
N301	N30	0.908700	0.628400	0.267160
C411	C41	0.428000	0.189500	0.307200
H611	H61	0.474100	0.182000	0.327000
C421	C42	0.319000	0.248400	0.280440
H621	H62	0.273500	0.287800	0.276400
C431	C43	0.291600	0.116100	0.208740
H631	H63	0.326600	0.078700	0.184700
H641	H64	0.263800	0.167700	0.187500
C441	C44	0.233100	0.041500	0.232700
H651	H65	0.195700	0.080700	0.254100
H661	H66	0.204300	0.009000	0.203400
N311	N31	0.374200	0.265000	0.317130
N321	N32	0.338000	0.168000	0.250550
N331	N33	0.408700	0.128400	0.267160
C451	C45	0.428000	0.689500	0.807200
H671	H67	0.474100	0.682000	0.827000
C461	C46	0.319000	0.748400	0.780440
H681	H68	0.273500	0.787800	0.776400
C471	C47	0.291600	0.616100	0.708740
H691	H69	0.326600	0.578700	0.684700
H701	H70	0.263800	0.667700	0.687500
C481	C48	0.233100	0.541500	0.732700
H711	H71	0.195700	0.580700	0.754100
H721	H72	0.204300	0.509000	0.703400
N341	N34	0.374200	0.765000	0.817130
N351	N35	0.338000	0.668000	0.750550
N361	N36	0.408700	0.628400	0.767160
C491	C49	0.822000	0.560500	0.807200
H731	H73	0.775900	0.568000	0.827000
C501	C50	0.931000	0.501600	0.780440
H741	H74	0.976500	0.462200	0.776400
C511	C51	0.958400	0.633900	0.708740
H751	H75	0.923400	0.671300	0.684700
H761	H76	0.986200	0.582300	0.687500
C521	C52	0.016900	0.708500	0.732700
H771	H77	0.054300	0.669300	0.754100
H781	H78	0.045700	0.741000	0.703400
N371	N37	0.875800	0.485000	0.817130
N381	N38	0.912000	0.582000	0.750550
N391	N39	0.841300	0.621600	0.767160
C531	C53	0.822000	0.060500	0.307200
H791	H79	0.775900	0.068000	0.327000
C541	C54	0.931000	0.001600	0.280440
H801	H80	0.976500	0.962200	0.276400
C551	C55	0.958400	0.133900	0.208740
H811	H81	0.923400	0.171300	0.184700
H821	H82	0.986200	0.082300	0.187500
C561	C56	0.016900	0.208500	0.232700
H831	H83	0.054300	0.169300	0.254100
H841	H84	0.045700	0.241000	0.203400
N401	N40	0.875800	0.985000	0.317130
N411	N41	0.912000	0.082000	0.250550
N421	N42	0.841300	0.121600	0.267160
C571	C57	0.322000	0.560500	0.307200
H851	H85	0.275900	0.568000	0.327000
C581	C58	0.431000	0.501600	0.280440
H861	H86	0.476500	0.462200	0.276400
C591	C59	0.458400	0.633900	0.208740
H871	H87	0.423400	0.671300	0.184700
H881	H88	0.486200	0.582300	0.187500
C601	C60	0.516900	0.708500	0.232700
H891	H89	0.554300	0.669300	0.254100
H901	H90	0.545700	0.741000	0.203400
N431	N43	0.375800	0.485000	0.317130
N441	N44	0.412000	0.582000	0.250550
N451	N45	0.341300	0.621600	0.267160
C611	C61	0.322000	0.060500	0.807200
H911	H91	0.275900	0.068000	0.827000
C621	C62	0.431000	0.001600	0.780440
H921	H92	0.476500	0.962200	0.776400
C631	C63	0.458400	0.133900	0.708740
H931	H93	0.423400	0.171300	0.684700
H941	H94	0.486200	0.082300	0.687500
C641	C64	0.516900	0.208500	0.732700
H951	H95	0.554300	0.169300	0.754100
H961	H96	0.545700	0.241000	0.703400
N461	N46	0.375800	0.985000	0.817130
N471	N47	0.412000	0.082000	0.750550
N481	N48	0.341300	0.121600	0.767160
C651	C65	0.178000	0.810500	0.057200
H971	H97	0.224100	0.818000	0.077000
C661	C66	0.069000	0.751600	0.030440
H981	H98	0.023500	0.712200	0.026400
C671	C67	0.041600	0.883900	0.958740
H991	H99	0.076600	0.921300	0.934700
H1001	H100	0.013800	0.832300	0.937500
C681	C68	0.983100	0.958500	0.982700
H1011	H101	0.945700	0.919300	0.004100
H1021	H102	0.954300	0.991000	0.953400
N491	N49	0.124200	0.735000	0.067130
N501	N50	0.088000	0.832000	0.000550
N511	N51	0.158700	0.871600	0.017160
C691	C69	0.178000	0.310500	0.557200
H1031	H103	0.224100	0.318000	0.577000
C701	C70	0.069000	0.251600	0.530440
H1041	H104	0.023500	0.212200	0.526400
C711	C71	0.041600	0.383900	0.458740
H1051	H105	0.076600	0.421300	0.434700
H1061	H106	0.013800	0.332300	0.437500
C721	C72	0.983100	0.458500	0.482700
H1071	H107	0.945700	0.419300	0.504100
H1081	H108	0.954300	0.491000	0.453400
N521	N52	0.124200	0.235000	0.567130
N531	N53	0.088000	0.332000	0.500550
N541	N54	0.158700	0.371600	0.517160
C731	C73	0.678000	0.810500	0.557200
H1091	H109	0.724100	0.818000	0.577000
C741	C74	0.569000	0.751600	0.530440
H1101	H110	0.523500	0.712200	0.526400
C751	C75	0.541600	0.883900	0.458740
H1111	H111	0.576600	0.921300	0.434700
H1121	H112	0.513800	0.832300	0.437500
C761	C76	0.483100	0.958500	0.482700
H1131	H113	0.445700	0.919300	0.504100
H1141	H114	0.454300	0.991000	0.453400
N551	N55	0.624200	0.735000	0.567130
N561	N56	0.588000	0.832000	0.500550
N571	N57	0.658700	0.871600	0.517160
C771	C77	0.678000	0.310500	0.057200
H1151	H115	0.724100	0.318000	0.077000
C781	C78	0.569000	0.251600	0.030440
H1161	H116	0.523500	0.212200	0.026400
C791	C79	0.541600	0.383900	0.958740
H1171	H117	0.576600	0.421300	0.934700
H1181	H118	0.513800	0.332300	0.937500
C801	C80	0.483100	0.458500	0.982700
H1191	H119	0.445700	0.419300	0.004100
H1201	H120	0.454300	0.491000	0.953400
N581	N58	0.624200	0.235000	0.067130
N591	N59	0.588000	0.332000	0.000550
N601	N60	0.658700	0.371600	0.017160
C811	C81	0.072000	0.439500	0.057200
H1211	H121	0.025900	0.432000	0.077000
C821	C82	0.181000	0.498400	0.030440
H1221	H122	0.226500	0.537800	0.026400
C831	C83	0.208400	0.366100	0.958740
H1231	H123	0.173400	0.328700	0.934700
H1241	H124	0.236200	0.417700	0.937500
C841	C84	0.266900	0.291500	0.982700
H1251	H125	0.304300	0.330700	0.004100
H1261	H126	0.295700	0.259000	0.953400
N611	N61	0.125800	0.515000	0.067130
N621	N62	0.162000	0.418000	0.000550
N631	N63	0.091300	0.378400	0.017160
C851	C85	0.072000	0.939500	0.557200
H1271	H127	0.025900	0.932000	0.577000
C861	C86	0.181000	0.998400	0.530440
H1281	H128	0.226500	0.037800	0.526400
C871	C87	0.208400	0.866100	0.458740
H1291	H129	0.173400	0.828700	0.434700
H1301	H130	0.236200	0.917700	0.437500
C881	C88	0.266900	0.791500	0.482700
H1311	H131	0.304300	0.830700	0.504100
H1321	H132	0.295700	0.759000	0.453400
N641	N64	0.125800	0.015000	0.567130
N651	N65	0.162000	0.918000	0.500550
N661	N66	0.091300	0.878400	0.517160
C891	C89	0.572000	0.439500	0.557200
H1331	H133	0.525900	0.432000	0.577000
C901	C90	0.681000	0.498400	0.530440
H1341	H134	0.726500	0.537800	0.526400
C911	C91	0.708400	0.366100	0.458740
H1351	H135	0.673400	0.328700	0.434700
H1361	H136	0.736200	0.417700	0.437500
C921	C92	0.766900	0.291500	0.482700
H1371	H137	0.804300	0.330700	0.504100
H1381	H138	0.795700	0.259000	0.453400
N671	N67	0.625800	0.515000	0.567130
N681	N68	0.662000	0.418000	0.500550
N691	N69	0.591300	0.378400	0.517160
C931	C93	0.572000	0.939500	0.057200
H1391	H139	0.525900	0.932000	0.077000
C941	C94	0.681000	0.998400	0.030440
H1401	H140	0.726500	0.037800	0.026400
C951	C95	0.708400	0.866100	0.958740
H1411	H141	0.673400	0.828700	0.934700
H1421	H142	0.736200	0.917700	0.937500
C961	C96	0.766900	0.791500	0.982700
H1431	H143	0.804300	0.830700	0.004100
H1441	H144	0.795700	0.759000	0.953400
N701	N70	0.625800	0.015000	0.067130
N711	N71	0.662000	0.918000	0.000550
N721	N72	0.591300	0.878400	0.017160
C971	C97	0.072000	0.810500	0.192800
H1451	H145	0.025900	0.818000	0.173000
C981	C98	0.181000	0.751600	0.219560
H1461	H146	0.226500	0.712200	0.223600
C991	C99	0.208400	0.883900	0.291260
H1471	H147	0.173400	0.921300	0.315300
H1481	H148	0.236200	0.832300	0.312500
C1001	C100	0.266900	0.958500	0.267300
H1491	H149	0.304300	0.919300	0.245900
H1501	H150	0.295700	0.991000	0.296600
N731	N73	0.125800	0.735000	0.182870
N741	N74	0.162000	0.832000	0.249450
N751	N75	0.091300	0.871600	0.232840
C1011	C101	0.072000	0.310500	0.692800
H1511	H151	0.025900	0.318000	0.673000
C1021	C102	0.181000	0.251600	0.719560
H1521	H152	0.226500	0.212200	0.723600
C1031	C103	0.208400	0.383900	0.791260
H1531	H153	0.173400	0.421300	0.815300
H1541	H154	0.236200	0.332300	0.812500
C1041	C104	0.266900	0.458500	0.767300
H1551	H155	0.304300	0.419300	0.745900
H1561	H156	0.295700	0.491000	0.796600
N761	N76	0.125800	0.235000	0.682870
N771	N77	0.162000	0.332000	0.749450
N781	N78	0.091300	0.371600	0.732840
C1051	C105	0.572000	0.810500	0.692800
H1571	H157	0.525900	0.818000	0.673000
C1061	C106	0.681000	0.751600	0.719560
H1581	H158	0.726500	0.712200	0.723600
C1071	C107	0.708400	0.883900	0.791260
H1591	H159	0.673400	0.921300	0.815300
H1601	H160	0.736200	0.832300	0.812500
C1081	C108	0.766900	0.958500	0.767300
H1611	H161	0.804300	0.919300	0.745900
H1621	H162	0.795700	0.991000	0.796600
N791	N79	0.625800	0.735000	0.682870
N801	N80	0.662000	0.832000	0.749450
N811	N81	0.591300	0.871600	0.732840
C1091	C109	0.572000	0.310500	0.192800
H1631	H163	0.525900	0.318000	0.173000
C1101	C110	0.681000	0.251600	0.219560
H1641	H164	0.726500	0.212200	0.223600
C1111	C111	0.708400	0.383900	0.291260
H1651	H165	0.673400	0.421300	0.315300
H1661	H166	0.736200	0.332300	0.312500
C1121	C112	0.766900	0.458500	0.267300
H1671	H167	0.804300	0.419300	0.245900
H1681	H168	0.795700	0.491000	0.296600
N821	N82	0.625800	0.235000	0.182870
N831	N83	0.662000	0.332000	0.249450
N841	N84	0.591300	0.371600	0.232840
C1131	C113	0.178000	0.439500	0.192800
H1691	H169	0.224100	0.432000	0.173000
C1141	C114	0.069000	0.498400	0.219560
H1701	H170	0.023500	0.537800	0.223600
C1151	C115	0.041600	0.366100	0.291260
H1711	H171	0.076600	0.328700	0.315300
H1721	H172	0.013800	0.417700	0.312500
C1161	C116	0.983100	0.291500	0.267300
H1731	H173	0.945700	0.330700	0.245900
H1741	H174	0.954300	0.259000	0.296600
N851	N85	0.124200	0.515000	0.182870
N861	N86	0.088000	0.418000	0.249450
N871	N87	0.158700	0.378400	0.232840
C1171	C117	0.178000	0.939500	0.692800
H1751	H175	0.224100	0.932000	0.673000
C1181	C118	0.069000	0.998400	0.719560
H1761	H176	0.023500	0.037800	0.723600
C1191	C119	0.041600	0.866100	0.791260
H1771	H177	0.076600	0.828700	0.815300
H1781	H178	0.013800	0.917700	0.812500
C1201	C120	0.983100	0.791500	0.767300
H1791	H179	0.945700	0.830700	0.745900
H1801	H180	0.954300	0.759000	0.796600
N881	N88	0.124200	0.015000	0.682870
N891	N89	0.088000	0.918000	0.749450
N901	N90	0.158700	0.878400	0.732840
C1211	C121	0.678000	0.439500	0.692800
H1811	H181	0.724100	0.432000	0.673000
C1221	C122	0.569000	0.498400	0.719560
H1821	H182	0.523500	0.537800	0.723600
C1231	C123	0.541600	0.366100	0.791260
H1831	H183	0.576600	0.328700	0.815300
H1841	H184	0.513800	0.417700	0.812500
C1241	C124	0.483100	0.291500	0.767300
H1851	H185	0.445700	0.330700	0.745900
H1861	H186	0.454300	0.259000	0.796600
N911	N91	0.624200	0.515000	0.682870
N921	N92	0.588000	0.418000	0.749450
N931	N93	0.658700	0.378400	0.732840
C1251	C125	0.678000	0.939500	0.192800
H1871	H187	0.724100	0.932000	0.173000
C1261	C126	0.569000	0.998400	0.219560
H1881	H188	0.523500	0.037800	0.223600
C1271	C127	0.541600	0.866100	0.291260
H1891	H189	0.576600	0.828700	0.315300
H1901	H190	0.513800	0.917700	0.312500
C1281	C128	0.483100	0.791500	0.267300
H1911	H191	0.445700	0.830700	0.245900
H1921	H192	0.454300	0.759000	0.296600
N941	N94	0.624200	0.015000	0.182870
N951	N95	0.588000	0.918000	0.249450
N961	N96	0.658700	0.878400	0.232840
Cu11	Cu1	0.875000	0.375000	0.875000
Cu21	Cu2	0.875000	0.875000	0.375000
Cu31	Cu3	0.375000	0.375000	0.375000
Cu41	Cu4	0.375000	0.875000	0.875000
Cu51	Cu5	0.125000	0.625000	0.125000
Cu61	Cu6	0.125000	0.125000	0.625000
Cu71	Cu7	0.625000	0.625000	0.625000
Cu81	Cu8	0.625000	0.125000	0.125000
