data_ONIXOZ_freeONLY_PM
_symmetry_space_group_name_H-M	'P1'
_cell_length_a	12.816400
_cell_length_b	22.286600
_cell_length_c	22.286600
_cell_angle_alpha	120.000000
_cell_angle_beta	90.000000
_cell_angle_gamma	90.000000
_symmetry_Int_Tables_number 1

loop_
_symmetry_equiv_pos_as_xyz
'x,y,z'

loop_
_atom_site_label
_atom_site_type_symbol
_atom_site_fract_x
_atom_site_fract_y
_atom_site_fract_z
Cu11	Cu1	0.250000	0.000000	0.379100
Cu21	Cu2	0.250000	0.000000	0.268700
Cu31	Cu3	0.250000	0.379100	0.000000
Cu41	Cu4	0.250000	0.268700	0.000000
Cu51	Cu5	0.250000	0.620900	0.620900
Cu61	Cu6	0.250000	0.731300	0.731300
Cu71	Cu7	0.750000	0.000000	0.620900
Cu81	Cu8	0.750000	0.000000	0.731300
Cu91	Cu9	0.750000	0.620900	0.000000
Cu101	Cu10	0.750000	0.731300	0.000000
Cu111	Cu11	0.750000	0.379100	0.379100
Cu121	Cu12	0.750000	0.268700	0.268700
H11	H1	0.096000	0.825900	0.333100
H21	H2	0.096000	0.507200	0.174100
H31	H3	0.096000	0.666900	0.492800
H41	H4	0.596000	0.174100	0.666900
H51	H5	0.596000	0.492800	0.825900
H61	H6	0.596000	0.333100	0.507200
H71	H7	0.404000	0.492800	0.666900
H81	H8	0.404000	0.333100	0.825900
H91	H9	0.404000	0.174100	0.507200
H101	H10	0.904000	0.507200	0.333100
H111	H11	0.904000	0.666900	0.174100
H121	H12	0.904000	0.825900	0.492800
H131	H13	0.904000	0.174100	0.666900
H141	H14	0.904000	0.492800	0.825900
H151	H15	0.904000	0.333100	0.507200
H161	H16	0.404000	0.825900	0.333100
H171	H17	0.404000	0.507200	0.174100
H181	H18	0.404000	0.666900	0.492800
H191	H19	0.596000	0.507200	0.333100
H201	H20	0.596000	0.666900	0.174100
H211	H21	0.596000	0.825900	0.492800
H221	H22	0.096000	0.492800	0.666900
H231	H23	0.096000	0.333100	0.825900
H241	H24	0.096000	0.174100	0.507200
H251	H25	0.000000	0.842850	0.157150
H261	H26	0.000000	0.314300	0.157150
H271	H27	0.000000	0.842850	0.685700
H281	H28	0.500000	0.157150	0.842850
H291	H29	0.500000	0.685700	0.842850
H301	H30	0.500000	0.157150	0.314300
H311	H31	0.000000	0.157150	0.842850
H321	H32	0.000000	0.685700	0.842850
H331	H33	0.000000	0.157150	0.314300
H341	H34	0.500000	0.842850	0.157150
H351	H35	0.500000	0.314300	0.157150
H361	H36	0.500000	0.842850	0.685700
H371	H37	0.000000	0.602300	0.204600
H381	H38	0.000000	0.602300	0.397700
H391	H39	0.000000	0.795400	0.397700
H401	H40	0.500000	0.397700	0.795400
H411	H41	0.500000	0.397700	0.602300
H421	H42	0.500000	0.204600	0.602300
H431	H43	0.000000	0.397700	0.795400
H441	H44	0.000000	0.397700	0.602300
H451	H45	0.000000	0.204600	0.602300
H461	H46	0.500000	0.602300	0.204600
H471	H47	0.500000	0.602300	0.397700
H481	H48	0.500000	0.795400	0.397700
C11	C1	0.052400	0.804400	0.284700
C21	C2	0.117500	0.904300	0.276300
C31	C3	0.053200	0.840400	0.248100
C41	C4	0.052400	0.480300	0.195600
C51	C5	0.117500	0.372000	0.095700
C61	C6	0.053200	0.407700	0.159600
C71	C7	0.052400	0.715300	0.519700
C81	C8	0.117500	0.723700	0.628000
C91	C9	0.053200	0.751900	0.592300
C101	C10	0.552400	0.195600	0.715300
C111	C11	0.617500	0.095700	0.723700
C121	C12	0.553200	0.159600	0.751900
C131	C13	0.552400	0.519700	0.804400
C141	C14	0.617500	0.628000	0.904300
C151	C15	0.553200	0.592300	0.840400
C161	C16	0.552400	0.284700	0.480300
C171	C17	0.617500	0.276300	0.372000
C181	C18	0.553200	0.248100	0.407700
C191	C19	0.447600	0.519700	0.715300
C201	C20	0.382500	0.628000	0.723700
C211	C21	0.446800	0.592300	0.751900
C221	C22	0.447600	0.284700	0.804400
C231	C23	0.382500	0.276300	0.904300
C241	C24	0.446800	0.248100	0.840400
C251	C25	0.447600	0.195600	0.480300
C261	C26	0.382500	0.095700	0.372000
C271	C27	0.446800	0.159600	0.407700
C281	C28	0.947600	0.480300	0.284700
C291	C29	0.882500	0.372000	0.276300
C301	C30	0.946800	0.407700	0.248100
C311	C31	0.947600	0.715300	0.195600
C321	C32	0.882500	0.723700	0.095700
C331	C33	0.946800	0.751900	0.159600
C341	C34	0.947600	0.804400	0.519700
C351	C35	0.882500	0.904300	0.628000
C361	C36	0.946800	0.840400	0.592300
C371	C37	0.947600	0.195600	0.715300
C381	C38	0.882500	0.095700	0.723700
C391	C39	0.946800	0.159600	0.751900
C401	C40	0.947600	0.519700	0.804400
C411	C41	0.882500	0.628000	0.904300
C421	C42	0.946800	0.592300	0.840400
C431	C43	0.947600	0.284700	0.480300
C441	C44	0.882500	0.276300	0.372000
C451	C45	0.946800	0.248100	0.407700
C461	C46	0.447600	0.804400	0.284700
C471	C47	0.382500	0.904300	0.276300
C481	C48	0.446800	0.840400	0.248100
C491	C49	0.447600	0.480300	0.195600
C501	C50	0.382500	0.372000	0.095700
C511	C51	0.446800	0.407700	0.159600
C521	C52	0.447600	0.715300	0.519700
C531	C53	0.382500	0.723700	0.628000
C541	C54	0.446800	0.751900	0.592300
C551	C55	0.552400	0.480300	0.284700
C561	C56	0.617500	0.372000	0.276300
C571	C57	0.553200	0.407700	0.248100
C581	C58	0.552400	0.715300	0.195600
C591	C59	0.617500	0.723700	0.095700
C601	C60	0.553200	0.751900	0.159600
C611	C61	0.552400	0.804400	0.519700
C621	C62	0.617500	0.904300	0.628000
C631	C63	0.553200	0.840400	0.592300
C641	C64	0.052400	0.519700	0.715300
C651	C65	0.117500	0.628000	0.723700
C661	C66	0.053200	0.592300	0.751900
C671	C67	0.052400	0.284700	0.804400
C681	C68	0.117500	0.276300	0.904300
C691	C69	0.053200	0.248100	0.840400
C701	C70	0.052400	0.195600	0.480300
C711	C71	0.117500	0.095700	0.372000
C721	C72	0.053200	0.159600	0.407700
C731	C73	0.000000	0.703100	0.296900
C741	C74	0.000000	0.741250	0.258750
C751	C75	0.000000	0.814650	0.185350
C761	C76	0.000000	0.593800	0.296900
C771	C77	0.000000	0.517500	0.258750
C781	C78	0.000000	0.370700	0.185350
C791	C79	0.000000	0.703100	0.406200
C801	C80	0.000000	0.741250	0.482500
C811	C81	0.000000	0.814650	0.629300
C821	C82	0.500000	0.296900	0.703100
C831	C83	0.500000	0.258750	0.741250
C841	C84	0.500000	0.185350	0.814650
C851	C85	0.500000	0.406200	0.703100
C861	C86	0.500000	0.482500	0.741250
C871	C87	0.500000	0.629300	0.814650
C881	C88	0.500000	0.296900	0.593800
C891	C89	0.500000	0.258750	0.517500
C901	C90	0.500000	0.185350	0.370700
C911	C91	0.000000	0.296900	0.703100
C921	C92	0.000000	0.258750	0.741250
C931	C93	0.000000	0.185350	0.814650
C941	C94	0.000000	0.406200	0.703100
C951	C95	0.000000	0.482500	0.741250
C961	C96	0.000000	0.629300	0.814650
C971	C97	0.000000	0.296900	0.593800
C981	C98	0.000000	0.258750	0.517500
C991	C99	0.000000	0.185350	0.370700
C1001	C100	0.500000	0.703100	0.296900
C1011	C101	0.500000	0.741250	0.258750
C1021	C102	0.500000	0.814650	0.185350
C1031	C103	0.500000	0.593800	0.296900
C1041	C104	0.500000	0.517500	0.258750
C1051	C105	0.500000	0.370700	0.185350
C1061	C106	0.500000	0.703100	0.406200
C1071	C107	0.500000	0.741250	0.482500
C1081	C108	0.500000	0.814650	0.629300
C1091	C109	0.000000	0.630600	0.261200
C1101	C110	0.000000	0.630600	0.369400
C1111	C111	0.000000	0.738800	0.369400
C1121	C112	0.500000	0.369400	0.738800
C1131	C113	0.500000	0.369400	0.630600
C1141	C114	0.500000	0.261200	0.630600
C1151	C115	0.000000	0.369400	0.738800
C1161	C116	0.000000	0.369400	0.630600
C1171	C117	0.000000	0.261200	0.630600
C1181	C118	0.500000	0.630600	0.261200
C1191	C119	0.500000	0.630600	0.369400
C1201	C120	0.500000	0.738800	0.369400
O11	O1	0.142300	0.926600	0.235600
O21	O2	0.145000	0.929200	0.339700
O31	O3	0.142300	0.309000	0.073400
O41	O4	0.145000	0.410500	0.070800
O51	O5	0.142300	0.764400	0.691000
O61	O6	0.145000	0.660300	0.589500
O71	O7	0.642300	0.073400	0.764400
O81	O8	0.645000	0.070800	0.660300
O91	O9	0.642300	0.691000	0.926600
O101	O10	0.645000	0.589500	0.929200
O111	O11	0.642300	0.235600	0.309000
O121	O12	0.645000	0.339700	0.410500
O131	O13	0.357700	0.691000	0.764400
O141	O14	0.355000	0.589500	0.660300
O151	O15	0.357700	0.235600	0.926600
O161	O16	0.355000	0.339700	0.929200
O171	O17	0.357700	0.073400	0.309000
O181	O18	0.355000	0.070800	0.410500
O191	O19	0.857700	0.309000	0.235600
O201	O20	0.855000	0.410500	0.339700
O211	O21	0.857700	0.764400	0.073400
O221	O22	0.855000	0.660300	0.070800
O231	O23	0.857700	0.926600	0.691000
O241	O24	0.855000	0.929200	0.589500
O251	O25	0.857700	0.073400	0.764400
O261	O26	0.855000	0.070800	0.660300
O271	O27	0.857700	0.691000	0.926600
O281	O28	0.855000	0.589500	0.929200
O291	O29	0.857700	0.235600	0.309000
O301	O30	0.855000	0.339700	0.410500
O311	O31	0.357700	0.926600	0.235600
O321	O32	0.355000	0.929200	0.339700
O331	O33	0.357700	0.309000	0.073400
O341	O34	0.355000	0.410500	0.070800
O351	O35	0.357700	0.764400	0.691000
O361	O36	0.355000	0.660300	0.589500
O371	O37	0.642300	0.309000	0.235600
O381	O38	0.645000	0.410500	0.339700
O391	O39	0.642300	0.764400	0.073400
O401	O40	0.645000	0.660300	0.070800
O411	O41	0.642300	0.926600	0.691000
O421	O42	0.645000	0.929200	0.589500
O431	O43	0.142300	0.691000	0.764400
O441	O44	0.145000	0.589500	0.660300
O451	O45	0.142300	0.235600	0.926600
O461	O46	0.145000	0.339700	0.929200
O471	O47	0.142300	0.073400	0.309000
O481	O48	0.145000	0.070800	0.410500
