data_ONUQOE_freeONLY_PM
_symmetry_space_group_name_H-M	'P1'
_cell_length_a	12.236000
_cell_length_b	27.179000
_cell_length_c	12.467000
_cell_angle_alpha	90.000000
_cell_angle_beta	109.754000
_cell_angle_gamma	90.000000
_symmetry_Int_Tables_number 1

loop_
_symmetry_equiv_pos_as_xyz
'x,y,z'

loop_
_atom_site_label
_atom_site_type_symbol
_atom_site_fract_x
_atom_site_fract_y
_atom_site_fract_z
Cd11	Cd1	0.904070	0.108730	0.099170
C11	C1	0.917500	0.206400	0.103800
C21	C2	0.945600	0.260500	0.113900
C31	C3	0.016400	0.279600	0.216100
H11	H1	0.042000	0.258800	0.278900
C41	C4	0.051800	0.329200	0.229500
H21	H2	0.098700	0.341300	0.299800
C51	C5	0.014900	0.358800	0.136200
H31	H3	0.038500	0.391500	0.141700
C61	C6	0.943000	0.340600	0.033700
H41	H4	0.917200	0.361700	0.971400
C71	C7	0.907400	0.291500	0.020200
C81	C8	0.662400	0.409600	0.611200
C91	C9	0.780600	0.387900	0.641700
C101	C10	0.821700	0.351400	0.725300
C111	C11	0.935900	0.333000	0.748500
H51	H5	0.962700	0.308300	0.802500
C121	C12	0.007800	0.350700	0.693800
H61	H6	0.082500	0.338200	0.710700
C131	C13	0.967700	0.387400	0.613100
H71	H7	0.015200	0.400000	0.575100
C141	C14	0.856300	0.405100	0.589700
H81	H8	0.830900	0.430000	0.535800
C151	C15	0.745200	0.563200	0.592400
C161	C16	0.813500	0.533100	0.694300
C171	C17	0.756400	0.513800	0.762200
H91	H9	0.677900	0.521000	0.744700
C181	C18	0.808900	0.484800	0.853800
H101	H10	0.768100	0.472800	0.899100
C191	C19	0.924700	0.473600	0.877500
H111	H11	0.962500	0.453800	0.939900
C201	C20	0.984200	0.491100	0.811300
H121	H12	0.062200	0.483000	0.828700
C211	C21	0.929100	0.521100	0.716900
C221	C22	0.257900	0.530900	0.782500
C231	C23	0.234100	0.565100	0.855300
H131	H13	0.157200	0.573100	0.844800
C241	C24	0.321100	0.587200	0.941800
H141	H14	0.303200	0.609800	0.989400
C251	C25	0.434200	0.575700	0.957600
H151	H15	0.493400	0.590500	0.016400
C261	C26	0.461200	0.543000	0.888400
H161	H16	0.538600	0.535700	0.899900
C271	C27	0.374100	0.520200	0.800300
C281	C28	0.406500	0.483800	0.724900
O11	O1	0.910500	0.184400	0.189500
O21	O2	0.911100	0.185600	0.014300
O31	O3	0.796800	0.589600	0.544000
O41	O4	0.634700	0.560900	0.559200
O51	O5	0.474700	0.497100	0.676500
O61	O6	0.363200	0.441600	0.717600
O71	O7	0.597700	0.392200	0.661000
O81	O8	0.636100	0.443100	0.536200
S11	S1	0.151400	0.501550	0.667000
S21	S2	0.006700	0.544360	0.629900
S31	S3	0.728400	0.327990	0.797000
S41	S4	0.815000	0.268290	0.886500
Cd21	Cd2	0.595930	0.608730	0.400830
C291	C29	0.582500	0.706400	0.396200
C301	C30	0.554400	0.760500	0.386100
C311	C31	0.483600	0.779600	0.283900
H171	H17	0.458000	0.758800	0.221100
C321	C32	0.448200	0.829200	0.270500
H181	H18	0.401300	0.841300	0.200200
C331	C33	0.485100	0.858800	0.363800
H191	H19	0.461500	0.891500	0.358300
C341	C34	0.557000	0.840600	0.466300
H201	H20	0.582800	0.861700	0.528600
C351	C35	0.592600	0.791500	0.479800
C361	C36	0.837600	0.909600	0.888800
C371	C37	0.719400	0.887900	0.858300
C381	C38	0.678300	0.851400	0.774700
C391	C39	0.564100	0.833000	0.751500
H211	H21	0.537300	0.808300	0.697500
C401	C40	0.492200	0.850700	0.806200
H221	H22	0.417500	0.838200	0.789300
C411	C41	0.532300	0.887400	0.886900
H231	H23	0.484800	0.900000	0.924900
C421	C42	0.643700	0.905100	0.910300
H241	H24	0.669100	0.930000	0.964200
C431	C43	0.754800	0.063200	0.907600
C441	C44	0.686500	0.033100	0.805700
C451	C45	0.743600	0.013800	0.737800
H251	H25	0.822100	0.021000	0.755300
C461	C46	0.691100	0.984800	0.646200
H261	H26	0.731900	0.972800	0.600900
C471	C47	0.575300	0.973600	0.622500
H271	H27	0.537500	0.953800	0.560100
C481	C48	0.515800	0.991100	0.688700
H281	H28	0.437800	0.983000	0.671300
C491	C49	0.570900	0.021100	0.783100
C501	C50	0.242100	0.030900	0.717500
C511	C51	0.265900	0.065100	0.644700
H291	H29	0.342800	0.073100	0.655200
C521	C52	0.178900	0.087200	0.558200
H301	H30	0.196800	0.109800	0.510600
C531	C53	0.065800	0.075700	0.542400
H311	H31	0.006600	0.090500	0.483600
C541	C54	0.038800	0.043000	0.611600
H321	H32	0.961400	0.035700	0.600100
C551	C55	0.125900	0.020200	0.699700
C561	C56	0.093500	0.983800	0.775100
O91	O9	0.589500	0.684400	0.310500
O101	O10	0.588900	0.685600	0.485700
O111	O11	0.703200	0.089600	0.956000
O121	O12	0.865300	0.060900	0.940800
O131	O13	0.025300	0.997100	0.823500
O141	O14	0.136800	0.941600	0.782400
O151	O15	0.902300	0.892200	0.839000
O161	O16	0.863900	0.943100	0.963800
S51	S5	0.348600	0.001550	0.833000
S61	S6	0.493300	0.044360	0.870100
S71	S7	0.771600	0.827990	0.703000
S81	S8	0.685000	0.768290	0.613500
Cd31	Cd3	0.095930	0.891270	0.900830
C571	C57	0.082500	0.793600	0.896200
C581	C58	0.054400	0.739500	0.886100
C591	C59	0.983600	0.720400	0.783900
H331	H33	0.958000	0.741200	0.721100
C601	C60	0.948200	0.670800	0.770500
H341	H34	0.901300	0.658700	0.700200
C611	C61	0.985100	0.641200	0.863800
H351	H35	0.961500	0.608500	0.858300
C621	C62	0.057000	0.659400	0.966300
H361	H36	0.082800	0.638300	0.028600
C631	C63	0.092600	0.708500	0.979800
C641	C64	0.337600	0.590400	0.388800
C651	C65	0.219400	0.612100	0.358300
C661	C66	0.178300	0.648600	0.274700
C671	C67	0.064100	0.667000	0.251500
H371	H37	0.037300	0.691700	0.197500
C681	C68	0.992200	0.649300	0.306200
H381	H38	0.917500	0.661800	0.289300
C691	C69	0.032300	0.612600	0.386900
H391	H39	0.984800	0.600000	0.424900
C701	C70	0.143700	0.594900	0.410300
H401	H40	0.169100	0.570000	0.464200
C711	C71	0.254800	0.436800	0.407600
C721	C72	0.186500	0.466900	0.305700
C731	C73	0.243600	0.486200	0.237800
H411	H41	0.322100	0.479000	0.255300
C741	C74	0.191100	0.515200	0.146200
H421	H42	0.231900	0.527200	0.100900
C751	C75	0.075300	0.526400	0.122500
H431	H43	0.037500	0.546200	0.060100
C761	C76	0.015800	0.508900	0.188700
H441	H44	0.937800	0.517000	0.171300
C771	C77	0.070900	0.478900	0.283100
C781	C78	0.742100	0.469100	0.217500
C791	C79	0.765900	0.434900	0.144700
H451	H45	0.842800	0.426900	0.155200
C801	C80	0.678900	0.412800	0.058200
H461	H46	0.696800	0.390200	0.010600
C811	C81	0.565800	0.424300	0.042400
H471	H47	0.506600	0.409500	0.983600
C821	C82	0.538800	0.457000	0.111600
H481	H48	0.461400	0.464300	0.100100
C831	C83	0.625900	0.479800	0.199700
C841	C84	0.593500	0.516200	0.275100
O171	O17	0.089500	0.815600	0.810500
O181	O18	0.088900	0.814400	0.985700
O191	O19	0.203200	0.410400	0.456000
O201	O20	0.365300	0.439100	0.440800
O211	O21	0.525300	0.502900	0.323500
O221	O22	0.636800	0.558400	0.282400
O231	O23	0.402300	0.607800	0.339000
O241	O24	0.363900	0.556900	0.463800
S91	S9	0.848600	0.498450	0.333000
S101	S10	0.993300	0.455640	0.370100
S111	S11	0.271600	0.672010	0.203000
S121	S12	0.185000	0.731710	0.113500
Cd41	Cd4	0.404070	0.391270	0.599170
C851	C85	0.417500	0.293600	0.603800
C861	C86	0.445600	0.239500	0.613900
C871	C87	0.516400	0.220400	0.716100
H491	H49	0.542000	0.241200	0.778900
C881	C88	0.551800	0.170800	0.729500
H501	H50	0.598700	0.158700	0.799800
C891	C89	0.514900	0.141200	0.636200
H511	H51	0.538500	0.108500	0.641700
C901	C90	0.443000	0.159400	0.533700
H521	H52	0.417200	0.138300	0.471400
C911	C91	0.407400	0.208500	0.520200
C921	C92	0.162400	0.090400	0.111200
C931	C93	0.280600	0.112100	0.141700
C941	C94	0.321700	0.148600	0.225300
C951	C95	0.435900	0.167000	0.248500
H531	H53	0.462700	0.191700	0.302500
C961	C96	0.507800	0.149300	0.193800
H541	H54	0.582500	0.161800	0.210700
C971	C97	0.467700	0.112600	0.113100
H551	H55	0.515200	0.100000	0.075100
C981	C98	0.356300	0.094900	0.089700
H561	H56	0.330900	0.070000	0.035800
C991	C99	0.245200	0.936800	0.092400
C1001	C100	0.313500	0.966900	0.194300
C1011	C101	0.256400	0.986200	0.262200
H571	H57	0.177900	0.979000	0.244700
C1021	C102	0.308900	0.015200	0.353800
H581	H58	0.268100	0.027200	0.399100
C1031	C103	0.424700	0.026400	0.377500
H591	H59	0.462500	0.046200	0.439900
C1041	C104	0.484200	0.008900	0.311300
H601	H60	0.562200	0.017000	0.328700
C1051	C105	0.429100	0.978900	0.216900
C1061	C106	0.757900	0.969100	0.282500
C1071	C107	0.734100	0.934900	0.355300
H611	H61	0.657200	0.926900	0.344800
C1081	C108	0.821100	0.912800	0.441800
H621	H62	0.803200	0.890200	0.489400
C1091	C109	0.934200	0.924300	0.457600
H631	H63	0.993400	0.909500	0.516400
C1101	C110	0.961200	0.957000	0.388400
H641	H64	0.038600	0.964300	0.399900
C1111	C111	0.874100	0.979800	0.300300
C1121	C112	0.906500	0.016200	0.224900
O251	O25	0.410500	0.315600	0.689500
O261	O26	0.411100	0.314400	0.514300
O271	O27	0.296800	0.910400	0.044000
O281	O28	0.134700	0.939100	0.059200
O291	O29	0.974700	0.002900	0.176500
O301	O30	0.863200	0.058400	0.217600
O311	O31	0.097700	0.107800	0.161000
O321	O32	0.136100	0.056900	0.036200
S131	S13	0.651400	0.998450	0.167000
S141	S14	0.506700	0.955640	0.129900
S151	S15	0.228400	0.172010	0.297000
S161	S16	0.315000	0.231710	0.386500
Cd51	Cd5	0.500000	0.500000	0.500000
Cd61	Cd6	0.000000	0.000000	0.000000
