data_OPENIH_freeONLY_PM
_symmetry_space_group_name_H-M	'P1'
_cell_length_a	8.497000
_cell_length_b	9.490000
_cell_length_c	14.135000
_cell_angle_alpha	80.550000
_cell_angle_beta	88.560000
_cell_angle_gamma	73.510000
_symmetry_Int_Tables_number 1

loop_
_symmetry_equiv_pos_as_xyz
'x,y,z'

loop_
_atom_site_label
_atom_site_type_symbol
_atom_site_fract_x
_atom_site_fract_y
_atom_site_fract_z
Cu11	Cu1	0.556520	0.644150	0.143090
Cu21	Cu2	0.515390	0.798440	0.902220
Cu31	Cu3	0.443480	0.355850	0.856910
Cu41	Cu4	0.484610	0.201560	0.097780
H11	H1	0.063600	0.900200	0.174000
H21	H2	0.966000	0.377100	0.010200
H31	H3	0.579900	0.372200	0.289400
H41	H4	0.457200	0.303900	0.428500
H51	H5	0.223300	0.733900	0.427200
H61	H6	0.350700	0.791400	0.288200
H71	H7	0.908800	0.778200	0.639200
H81	H8	0.699000	0.884100	0.733100
H91	H9	0.731800	0.500700	0.893000
H101	H10	0.934900	0.383000	0.799400
H111	H11	0.140800	0.281200	0.695800
H121	H12	0.936400	0.099800	0.826000
H131	H13	0.034000	0.622900	0.989800
H141	H14	0.420100	0.627800	0.710600
H151	H15	0.542800	0.696100	0.571500
H161	H16	0.776700	0.266100	0.572800
H171	H17	0.649300	0.208600	0.711800
H181	H18	0.091200	0.221800	0.360800
H191	H19	0.301000	0.115900	0.266900
H201	H20	0.268200	0.499300	0.107000
H211	H21	0.065100	0.617000	0.200600
H221	H22	0.859200	0.718800	0.304200
C11	C1	0.302500	0.910100	0.052800
C21	C2	0.154400	0.029400	0.072500
C31	C3	0.040900	0.995600	0.138700
C41	C4	0.895000	0.100400	0.153200
C51	C5	0.867800	0.245800	0.104700
C61	C6	0.983600	0.279400	0.041100
C71	C7	0.124300	0.173200	0.021900
C81	C8	0.234800	0.223600	0.947100
C91	C9	0.775400	0.050500	0.223500
C101	C10	0.721900	0.375000	0.115500
C111	C11	0.505400	0.445800	0.317000
C121	C12	0.432500	0.403600	0.400600
C131	C13	0.322200	0.511300	0.442600
C141	C14	0.294100	0.658200	0.399600
C151	C15	0.371100	0.691900	0.316200
C161	C16	0.234200	0.474200	0.529700
C171	C17	0.071800	0.500500	0.643100
C181	C18	0.944600	0.566300	0.708200
C191	C19	0.873200	0.719400	0.689500
C201	C20	0.748900	0.782100	0.747100
C211	C21	0.766800	0.556600	0.840700
C221	C22	0.889300	0.485600	0.785100
C231	C23	0.697500	0.089900	0.947200
C241	C24	0.845600	0.970600	0.927500
C251	C25	0.959100	0.004400	0.861300
C261	C26	0.105000	0.899600	0.846800
C271	C27	0.132200	0.754200	0.895300
C281	C28	0.016400	0.720600	0.958900
C291	C29	0.875700	0.826800	0.978100
C301	C30	0.765200	0.776400	0.052900
C311	C31	0.224600	0.949500	0.776500
C321	C32	0.278100	0.625000	0.884500
C331	C33	0.494600	0.554200	0.683000
C341	C34	0.567500	0.596400	0.599400
C351	C35	0.677800	0.488700	0.557400
C361	C36	0.705900	0.341800	0.600400
C371	C37	0.628900	0.308100	0.683800
C381	C38	0.765800	0.525800	0.470300
C391	C39	0.928200	0.499500	0.356900
C401	C40	0.055400	0.433700	0.291800
C411	C41	0.126800	0.280600	0.310500
C421	C42	0.251100	0.217900	0.252900
C431	C43	0.233200	0.443400	0.159300
C441	C44	0.110700	0.514400	0.214900
N11	N1	0.474400	0.587900	0.273000
N21	N2	0.121100	0.578900	0.568000
N31	N3	0.257200	0.337100	0.575700
N41	N4	0.151900	0.355600	0.649000
N51	N5	0.696500	0.703600	0.821900
N61	N6	0.525600	0.412100	0.727000
N71	N7	0.878900	0.421100	0.432000
N81	N8	0.742800	0.662900	0.424300
N91	N9	0.848100	0.644400	0.351000
N101	N10	0.303500	0.296400	0.178100
O11	O1	0.348300	0.795900	0.115200
O21	O2	0.366500	0.934700	0.973400
O31	O3	0.346900	0.276200	0.977100
O41	O4	0.211300	0.229500	0.862200
O51	O5	0.621900	0.114600	0.212700
O61	O6	0.835400	0.948400	0.289900
O71	O7	0.748700	0.471300	0.159500
O81	O8	0.587000	0.388500	0.077400
O91	O9	0.651700	0.204100	0.884800
O101	O10	0.633500	0.065300	0.026600
O111	O11	0.653100	0.723800	0.022900
O121	O12	0.788700	0.770500	0.137800
O131	O13	0.378100	0.885400	0.787300
O141	O14	0.164600	0.051600	0.710100
O151	O15	0.251300	0.528700	0.840500
O161	O16	0.413000	0.611500	0.922600
