data_OPENON_freeONLY_PM
_symmetry_space_group_name_H-M	'P1'
_cell_length_a	7.686000
_cell_length_b	9.243000
_cell_length_c	12.560000
_cell_angle_alpha	95.270000
_cell_angle_beta	98.430000
_cell_angle_gamma	101.910000
_symmetry_Int_Tables_number 1

loop_
_symmetry_equiv_pos_as_xyz
'x,y,z'

loop_
_atom_site_label
_atom_site_type_symbol
_atom_site_fract_x
_atom_site_fract_y
_atom_site_fract_z
Cu11	Cu1	0.354050	0.101350	0.053980
Cu21	Cu2	0.645950	0.898650	0.946020
H11	H1	0.285900	0.569800	0.102600
H21	H2	0.618300	0.257200	0.230000
H31	H3	0.774000	0.235400	0.394500
H41	H4	0.497200	0.810600	0.363800
H51	H5	0.350100	0.844700	0.199600
H61	H6	0.106900	0.349800	0.676300
H71	H7	0.320900	0.487700	0.817300
H81	H8	0.411000	0.377000	0.964500
H91	H9	0.084500	0.995800	0.840100
H101	H10	0.853800	0.867900	0.694700
H111	H11	0.714100	0.430200	0.897400
H121	H12	0.381700	0.742800	0.770000
H131	H13	0.226000	0.764600	0.605500
H141	H14	0.502800	0.189400	0.636200
H151	H15	0.649900	0.155300	0.800400
H161	H16	0.893100	0.650200	0.323700
H171	H17	0.679100	0.512300	0.182700
H181	H18	0.589000	0.623000	0.035500
H191	H19	0.915500	0.004200	0.159900
H201	H20	0.146200	0.132100	0.305300
C11	C1	0.130900	0.305900	0.148400
C21	C2	0.060700	0.403800	0.070000
C31	C3	0.170800	0.541800	0.061300
C41	C4	0.112100	0.637800	0.992400
C51	C5	0.239600	0.785600	0.989600
C61	C6	0.594800	0.166000	0.256900
C71	C7	0.689000	0.153900	0.356100
C81	C8	0.656700	0.019000	0.398900
C91	C9	0.525200	0.902200	0.337900
C101	C10	0.437300	0.923800	0.239200
C111	C11	0.758600	0.006100	0.504400
C121	C12	0.939800	0.068700	0.652100
C131	C13	0.073000	0.157100	0.743500
C141	C14	0.144700	0.306000	0.736800
C151	C15	0.271600	0.387700	0.820300
C161	C16	0.325100	0.320400	0.908000
C171	C17	0.132800	0.095300	0.835000
C181	C18	0.869100	0.694100	0.851600
C191	C19	0.939300	0.596200	0.930000
C201	C20	0.829200	0.458200	0.938700
C211	C21	0.887900	0.362200	0.007600
C221	C22	0.760400	0.214400	0.010400
C231	C23	0.405200	0.834000	0.743100
C241	C24	0.311000	0.846100	0.643900
C251	C25	0.343300	0.981000	0.601100
C261	C26	0.474800	0.097800	0.662100
C271	C27	0.562700	0.076200	0.760800
C281	C28	0.241400	0.993900	0.495600
C291	C29	0.060200	0.931300	0.347900
C301	C30	0.927000	0.842900	0.256500
C311	C31	0.855300	0.694000	0.263200
C321	C32	0.728400	0.612300	0.179700
C331	C33	0.674900	0.679600	0.092000
C341	C34	0.867200	0.904700	0.165000
N11	N1	0.470900	0.053600	0.196800
N21	N2	0.875800	0.125500	0.565300
N31	N3	0.746600	0.878800	0.548500
N41	N4	0.864100	0.921900	0.643800
N51	N5	0.258900	0.175900	0.916300
N61	N6	0.529100	0.946400	0.803200
N71	N7	0.124200	0.874500	0.434700
N81	N8	0.253400	0.121200	0.451500
N91	N9	0.135900	0.078100	0.356200
N101	N10	0.741100	0.824100	0.083700
O11	O1	0.286700	0.283400	0.144100
O21	O2	0.031100	0.257400	0.212600
O31	O3	0.390700	0.779100	0.967200
O41	O4	0.186800	0.903600	0.016300
O51	O5	0.713300	0.716600	0.855900
O61	O6	0.968900	0.742600	0.787400
O71	O7	0.609300	0.220900	0.032800
O81	O8	0.813200	0.096400	0.983700
