data_OPIWEQ_freeONLY_PM
_symmetry_space_group_name_H-M	'P1'
_cell_length_a	6.943300
_cell_length_b	22.192300
_cell_length_c	7.730200
_cell_angle_alpha	90.000000
_cell_angle_beta	90.000000
_cell_angle_gamma	90.000000
_symmetry_Int_Tables_number 1

loop_
_symmetry_equiv_pos_as_xyz
'x,y,z'

loop_
_atom_site_label
_atom_site_type_symbol
_atom_site_fract_x
_atom_site_fract_y
_atom_site_fract_z
Co11	Co1	0.546940	0.712530	0.242240
Co21	Co2	0.453060	0.287470	0.242240
Co31	Co3	0.046940	0.787470	0.757760
Co41	Co4	0.953060	0.212530	0.757760
H11	H1	0.649300	0.885600	0.389500
H21	H2	0.843300	0.877500	0.281600
H31	H3	0.563900	0.874600	0.106300
H41	H4	0.344100	0.803900	0.143400
H51	H5	0.397100	0.814800	0.328400
H61	H6	0.961900	0.671900	0.273600
H71	H7	0.151000	0.586100	0.297400
H81	H8	0.683800	0.491400	0.121300
H91	H9	0.515500	0.578300	0.128900
H101	H10	0.350700	0.114400	0.389500
H111	H11	0.156700	0.122500	0.281600
H121	H12	0.436100	0.125400	0.106300
H131	H13	0.655900	0.196100	0.143400
H141	H14	0.602900	0.185200	0.328400
H151	H15	0.038100	0.328100	0.273600
H161	H16	0.849000	0.413900	0.297400
H171	H17	0.316200	0.508600	0.121300
H181	H18	0.484500	0.421700	0.128900
H191	H19	0.149300	0.614400	0.610500
H201	H20	0.343300	0.622500	0.718400
H211	H21	0.063900	0.625400	0.893700
H221	H22	0.844100	0.696100	0.856600
H231	H23	0.897100	0.685200	0.671600
H241	H24	0.461900	0.828100	0.726400
H251	H25	0.651000	0.913900	0.702600
H261	H26	0.183800	0.008600	0.878700
H271	H27	0.015500	0.921700	0.871100
H281	H28	0.850700	0.385600	0.610500
H291	H29	0.656700	0.377500	0.718400
H301	H30	0.936100	0.374600	0.893700
H311	H31	0.155900	0.303900	0.856600
H321	H32	0.102900	0.314800	0.671600
H331	H33	0.538100	0.171900	0.726400
H341	H34	0.349000	0.086100	0.702600
H351	H35	0.816200	0.991400	0.878700
H361	H36	0.984500	0.078300	0.871100
C11	C1	0.790000	0.805700	0.446300
C21	C2	0.726500	0.856250	0.322600
C31	C3	0.611000	0.837610	0.166600
C41	C4	0.735400	0.801120	0.040700
C51	C5	0.022100	0.583570	0.257000
C61	C6	0.942000	0.527500	0.200300
C71	C7	0.745800	0.527600	0.156100
C81	C8	0.646700	0.579700	0.163500
C91	C9	0.905000	0.633830	0.250700
C101	C10	0.210000	0.194300	0.446300
C111	C11	0.273500	0.143750	0.322600
C121	C12	0.389000	0.162390	0.166600
C131	C13	0.264600	0.198880	0.040700
C141	C14	0.977900	0.416430	0.257000
C151	C15	0.058000	0.472500	0.200300
C161	C16	0.254200	0.472400	0.156100
C171	C17	0.353300	0.420300	0.163500
C181	C18	0.095000	0.366170	0.250700
C191	C19	0.290000	0.694300	0.553700
C201	C20	0.226500	0.643750	0.677400
C211	C21	0.111000	0.662390	0.833400
C221	C22	0.235400	0.698880	0.959300
C231	C23	0.522100	0.916430	0.743000
C241	C24	0.442000	0.972500	0.799700
C251	C25	0.245800	0.972400	0.843900
C261	C26	0.146700	0.920300	0.836500
C271	C27	0.405000	0.866170	0.749300
C281	C28	0.710000	0.305700	0.553700
C291	C29	0.773500	0.356250	0.677400
C301	C30	0.889000	0.337610	0.833400
C311	C31	0.764600	0.301120	0.959300
C321	C32	0.477900	0.083570	0.743000
C331	C33	0.558000	0.027500	0.799700
C341	C34	0.754200	0.027600	0.843900
C351	C35	0.853300	0.079700	0.836500
C361	C36	0.595000	0.133830	0.749300
N11	N1	0.442100	0.801520	0.223200
N21	N2	0.713000	0.632200	0.213500
N31	N3	0.557900	0.198480	0.223200
N41	N4	0.287000	0.367800	0.213500
N51	N5	0.942100	0.698480	0.776800
N61	N6	0.213000	0.867800	0.786500
N71	N7	0.057900	0.301520	0.776800
N81	N8	0.787000	0.132200	0.786500
O11	O1	0.752500	0.751680	0.420700
O21	O2	0.884700	0.825770	0.571500
O31	O3	0.709300	0.744960	0.039900
O41	O4	0.851800	0.828860	0.944700
O51	O5	0.247500	0.248320	0.420700
O61	O6	0.115300	0.174230	0.571500
O71	O7	0.290700	0.255040	0.039900
O81	O8	0.148200	0.171140	0.944700
O91	O9	0.252500	0.748320	0.579300
O101	O10	0.384700	0.674230	0.428500
O111	O11	0.209300	0.755040	0.960100
O121	O12	0.351800	0.671140	0.055300
O131	O13	0.747500	0.251680	0.579300
O141	O14	0.615300	0.325770	0.428500
O151	O15	0.790700	0.244960	0.960100
O161	O16	0.648200	0.328860	0.055300
