data_OPOBIF_freeONLY_PM
_symmetry_space_group_name_H-M	'P1'
_cell_length_a	8.408440
_cell_length_b	19.184700
_cell_length_c	19.184700
_cell_angle_alpha	62.096500
_cell_angle_beta	81.599200
_cell_angle_gamma	98.400800
_symmetry_Int_Tables_number 1

loop_
_symmetry_equiv_pos_as_xyz
'x,y,z'

loop_
_atom_site_label
_atom_site_type_symbol
_atom_site_fract_x
_atom_site_fract_y
_atom_site_fract_z
Zn11	Zn1	0.852350	0.951040	0.455220
Zn21	Zn2	0.459650	0.812230	0.486720
Zn31	Zn3	0.307570	0.455220	0.593740
Zn41	Zn4	0.946370	0.486720	0.701050
Zn51	Zn5	0.901310	0.593740	0.951040
Zn61	Zn6	0.647420	0.701050	0.812230
Zn71	Zn7	0.147650	0.048960	0.544780
Zn81	Zn8	0.540350	0.187770	0.513280
Zn91	Zn9	0.692430	0.544780	0.406260
Zn101	Zn10	0.053630	0.513280	0.298950
Zn111	Zn11	0.098690	0.406260	0.048960
Zn121	Zn12	0.352580	0.298950	0.187770
H11	H1	0.140300	0.950400	0.238400
H21	H2	0.401000	0.925700	0.244900
H31	H3	0.433000	0.795300	0.299300
H41	H4	0.203400	0.687700	0.350400
H51	H5	0.773900	0.819100	0.279900
H61	H6	0.858300	0.909400	0.252000
H71	H7	0.819100	0.864300	0.647900
H81	H8	0.431500	0.706300	0.679800
H91	H9	0.379000	0.936700	0.538500
H101	H10	0.122600	0.856700	0.427900
H111	H11	0.378700	0.238400	0.811200
H121	H12	0.645900	0.244900	0.829400
H131	H13	0.732300	0.299300	0.905400
H141	H14	0.553800	0.350400	0.961900
H151	H15	0.053800	0.279900	0.901000
H161	H16	0.110300	0.252000	0.838600
H171	H17	0.467000	0.647900	0.487800
H181	H18	0.111300	0.679800	0.613900
H191	H19	0.917500	0.538500	0.524800
H201	H20	0.550500	0.427900	0.715400
H211	H21	0.189900	0.811200	0.950400
H221	H22	0.475300	0.829400	0.925700
H231	H23	0.637700	0.905400	0.795300
H241	H24	0.515700	0.961900	0.687700
H251	H25	0.954800	0.901000	0.819100
H261	H26	0.948900	0.838600	0.909400
H271	H27	0.954800	0.487800	0.864300
H281	H28	0.725200	0.613900	0.706300
H291	H29	0.442300	0.524800	0.936700
H301	H30	0.265900	0.715400	0.856700
H311	H31	0.859700	0.049600	0.761600
H321	H32	0.599000	0.074300	0.755100
H331	H33	0.567000	0.204700	0.700700
H341	H34	0.796600	0.312300	0.649600
H351	H35	0.226100	0.180900	0.720100
H361	H36	0.141700	0.090600	0.748000
H371	H37	0.180900	0.135700	0.352100
H381	H38	0.568500	0.293700	0.320200
H391	H39	0.621000	0.063300	0.461500
H401	H40	0.877400	0.143300	0.572100
H411	H41	0.621300	0.761600	0.188800
H421	H42	0.354100	0.755100	0.170600
H431	H43	0.267700	0.700700	0.094600
H441	H44	0.446200	0.649600	0.038100
H451	H45	0.946200	0.720100	0.099000
H461	H46	0.889700	0.748000	0.161400
H471	H47	0.533000	0.352100	0.512200
H481	H48	0.888700	0.320200	0.386100
H491	H49	0.082500	0.461500	0.475200
H501	H50	0.449500	0.572100	0.284600
H511	H51	0.810100	0.188800	0.049600
H521	H52	0.524700	0.170600	0.074300
H531	H53	0.362300	0.094600	0.204700
H541	H54	0.484300	0.038100	0.312300
H551	H55	0.045200	0.099000	0.180900
H561	H56	0.051100	0.161400	0.090600
H571	H57	0.045200	0.512200	0.135700
H581	H58	0.274800	0.386100	0.293700
H591	H59	0.557700	0.475200	0.063300
H601	H60	0.734100	0.284600	0.143300
C11	C1	0.031180	0.754530	0.326990
C21	C2	0.010040	0.833000	0.294880
C31	C3	0.151280	0.897140	0.262300
C41	C4	0.308690	0.882390	0.265220
C51	C5	0.327910	0.804860	0.297730
C61	C6	0.190450	0.740630	0.328480
C71	C7	0.890500	0.680050	0.361650
C81	C8	0.842830	0.853380	0.293990
C91	C9	0.752890	0.842170	0.374100
C101	C10	0.731690	0.836870	0.638500
C111	C11	0.521540	0.751260	0.655940
C121	C12	0.296950	0.927340	0.513990
C131	C13	0.158670	0.884150	0.453940
C141	C14	0.358170	0.326990	0.918480
C151	C15	0.304920	0.294880	0.872120
C161	C16	0.413580	0.262300	0.840560
C171	C17	0.573910	0.265220	0.852390
C181	C18	0.625640	0.297730	0.897410
C191	C19	0.518930	0.328480	0.930890
C201	C20	0.252150	0.361650	0.958300
C211	C21	0.136820	0.293990	0.852630
C221	C22	0.126990	0.374100	0.783730
C231	C23	0.370190	0.638500	0.524630
C241	C24	0.177480	0.655940	0.592800
C251	C25	0.810940	0.513990	0.558670
C261	C26	0.612610	0.453940	0.661910
C271	C27	0.276650	0.918480	0.754530
C281	C28	0.177040	0.872120	0.833000
C291	C29	0.254140	0.840560	0.897140
C301	C30	0.426300	0.852390	0.882390
C311	C31	0.523050	0.897410	0.804860
C321	C32	0.449820	0.930890	0.740630
C331	C33	0.210450	0.958300	0.680050
C341	C34	0.989450	0.852630	0.853380
C351	C35	0.910720	0.783730	0.842170
C361	C36	0.894820	0.524630	0.836870
C371	C37	0.770280	0.592800	0.751260
C381	C38	0.369610	0.558670	0.927340
C391	C39	0.274520	0.661910	0.884150
C401	C40	0.968820	0.245470	0.673010
C411	C41	0.989960	0.167000	0.705120
C421	C42	0.848720	0.102860	0.737700
C431	C43	0.691310	0.117610	0.734780
C441	C44	0.672090	0.195140	0.702270
C451	C45	0.809550	0.259370	0.671520
C461	C46	0.109500	0.319950	0.638350
C471	C47	0.157170	0.146620	0.706010
C481	C48	0.247110	0.157830	0.625900
C491	C49	0.268310	0.163130	0.361500
C501	C50	0.478460	0.248740	0.344060
C511	C51	0.703050	0.072660	0.486010
C521	C52	0.841330	0.115850	0.546060
C531	C53	0.641830	0.673010	0.081520
C541	C54	0.695080	0.705120	0.127880
C551	C55	0.586420	0.737700	0.159440
C561	C56	0.426090	0.734780	0.147610
C571	C57	0.374360	0.702270	0.102590
C581	C58	0.481070	0.671520	0.069110
C591	C59	0.747850	0.638350	0.041700
C601	C60	0.863180	0.706010	0.147370
C611	C61	0.873010	0.625900	0.216270
C621	C62	0.629810	0.361500	0.475370
C631	C63	0.822520	0.344060	0.407200
C641	C64	0.189060	0.486010	0.441330
C651	C65	0.387390	0.546060	0.338090
C661	C66	0.723350	0.081520	0.245470
C671	C67	0.822960	0.127880	0.167000
C681	C68	0.745860	0.159440	0.102860
C691	C69	0.573700	0.147610	0.117610
C701	C70	0.476950	0.102590	0.195140
C711	C71	0.550180	0.069110	0.259370
C721	C72	0.789550	0.041700	0.319950
C731	C73	0.010550	0.147370	0.146620
C741	C74	0.089280	0.216270	0.157830
C751	C75	0.105180	0.475370	0.163130
C761	C76	0.229720	0.407200	0.248740
C771	C77	0.630390	0.441330	0.072660
C781	C78	0.725480	0.338090	0.115850
N11	N1	0.563110	0.805620	0.578390
N21	N2	0.701140	0.861690	0.566870
N31	N3	0.623330	0.767520	0.697130
N41	N4	0.078760	0.932000	0.468820
N51	N5	0.168370	0.959700	0.508790
N61	N6	0.297660	0.879700	0.480720
N71	N7	0.141500	0.578390	0.615990
N81	N8	0.268010	0.566870	0.571440
N91	N9	0.320460	0.697130	0.535350
N101	N10	0.547580	0.468820	0.599180
N111	N11	0.677160	0.508790	0.531510
N121	N12	0.778380	0.480720	0.639580
N131	N13	0.757490	0.615990	0.805620
N141	N14	0.839450	0.571440	0.861690
N151	N15	0.855810	0.535350	0.767520
N161	N16	0.146760	0.599180	0.932000
N171	N17	0.208670	0.531510	0.959700
N181	N18	0.417960	0.639580	0.879700
N191	N19	0.436890	0.194380	0.421610
N201	N20	0.298860	0.138310	0.433130
N211	N21	0.376670	0.232480	0.302870
N221	N22	0.921240	0.068000	0.531180
N231	N23	0.831630	0.040300	0.491210
N241	N24	0.702340	0.120300	0.519280
N251	N25	0.858500	0.421610	0.384010
N261	N26	0.731990	0.433130	0.428560
N271	N27	0.679540	0.302870	0.464650
N281	N28	0.452420	0.531180	0.400820
N291	N29	0.322840	0.491210	0.468490
N301	N30	0.221620	0.519280	0.360420
N311	N31	0.242510	0.384010	0.194380
N321	N32	0.160550	0.428560	0.138310
N331	N33	0.144190	0.464650	0.232480
N341	N34	0.853240	0.400820	0.068000
N351	N35	0.791330	0.468490	0.040300
N361	N36	0.582040	0.360420	0.120300
O11	O1	0.926020	0.613520	0.374560
O21	O2	0.744230	0.683540	0.376450
O31	O3	0.595790	0.827260	0.388590
O41	O4	0.834000	0.850530	0.419930
O51	O5	0.300580	0.374560	0.011920
O61	O6	0.120680	0.376450	0.940010
O71	O7	0.984380	0.388590	0.784150
O81	O8	0.253930	0.419930	0.729540
O91	O9	0.312500	0.011920	0.613520
O101	O10	0.060690	0.940010	0.683540
O111	O11	0.768530	0.784150	0.827260
O121	O12	0.983470	0.729540	0.850530
O131	O13	0.073980	0.386480	0.625440
O141	O14	0.255770	0.316460	0.623550
O151	O15	0.404210	0.172740	0.611410
O161	O16	0.166000	0.149470	0.580070
O171	O17	0.699420	0.625440	0.988080
O181	O18	0.879320	0.623550	0.059990
O191	O19	0.015620	0.611410	0.215850
O201	O20	0.746070	0.580070	0.270460
O211	O21	0.687500	0.988080	0.386480
O221	O22	0.939310	0.059990	0.316460
O231	O23	0.231470	0.215850	0.172740
O241	O24	0.016530	0.270460	0.149470
