data_OPOCUS_freeONLY_PM
_symmetry_space_group_name_H-M	'P1'
_cell_length_a	14.823300
_cell_length_b	20.578700
_cell_length_c	18.557900
_cell_angle_alpha	90.000000
_cell_angle_beta	104.674000
_cell_angle_gamma	90.000000
_symmetry_Int_Tables_number 1

loop_
_symmetry_equiv_pos_as_xyz
'x,y,z'

loop_
_atom_site_label
_atom_site_type_symbol
_atom_site_fract_x
_atom_site_fract_y
_atom_site_fract_z
Ag11	Ag1	0.264180	0.417160	0.627460
Ag21	Ag2	0.493240	0.338210	0.383690
Ag31	Ag3	0.878660	0.257460	0.577400
Ag41	Ag4	0.138460	0.181130	0.400390
Ag51	Ag5	0.095340	0.469180	0.301000
Ag61	Ag6	0.631900	0.451550	0.876830
C11	C1	0.003100	0.186000	0.483100
C21	C2	0.918000	0.178800	0.414100
C31	C3	0.884200	0.231700	0.377100
H11	H1	0.910400	0.271900	0.393200
C41	C4	0.811500	0.228300	0.315600
H21	H2	0.790500	0.266800	0.290800
C51	C5	0.767500	0.172500	0.288200
H31	H3	0.716800	0.172400	0.246600
C61	C6	0.803700	0.111800	0.327400
C71	C7	0.765700	0.052500	0.301400
H41	H4	0.716000	0.050800	0.259200
C81	C8	0.799600	0.997200	0.336100
C91	C9	0.870700	0.998700	0.402900
H51	H5	0.890700	0.960400	0.428500
C101	C10	0.912100	0.059000	0.431100
H61	H6	0.959400	0.060600	0.474900
C111	C11	0.880500	0.115400	0.391900
C121	C12	0.198700	0.419800	0.453300
H71	H7	0.137500	0.423700	0.462700
H81	H8	0.227300	0.462600	0.459300
C131	C13	0.145000	0.332200	0.367500
H91	H9	0.138000	0.317100	0.316900
H101	H10	0.083400	0.334700	0.376500
C141	C14	0.296400	0.282200	0.406800
H111	H11	0.291300	0.266600	0.356600
H121	H12	0.334300	0.251600	0.441200
C151	C15	0.349700	0.369700	0.492400
H131	H13	0.379500	0.412000	0.499000
H141	H14	0.388500	0.339900	0.527500
C161	C16	0.283800	0.391500	0.362600
H151	H15	0.278100	0.375800	0.312300
H161	H16	0.313100	0.434000	0.366900
C171	C17	0.212300	0.309300	0.497000
H171	H17	0.249700	0.278900	0.532100
H181	H18	0.151100	0.311600	0.506800
C181	C18	0.318500	0.527300	0.751200
H191	H19	0.263000	0.548200	0.721100
H201	H20	0.299300	0.496900	0.784300
C191	C19	0.408300	0.622200	0.745800
H211	H21	0.448300	0.654900	0.775300
H221	H22	0.353900	0.643900	0.715200
C201	C20	0.542200	0.555300	0.745800
H231	H23	0.576900	0.533100	0.715400
H241	H24	0.582900	0.587600	0.775500
C211	C21	0.450200	0.459200	0.750000
H251	H25	0.430900	0.428300	0.782700
H261	H26	0.483000	0.435600	0.719300
C221	C22	0.397500	0.538600	0.652900
H271	H27	0.430000	0.515700	0.621300
H281	H28	0.343400	0.559600	0.620900
C231	C23	0.461300	0.544500	0.841800
H291	H29	0.442300	0.514700	0.875600
H301	H30	0.501800	0.577000	0.871400
C241	C24	0.930200	0.389900	0.659100
H311	H31	0.905200	0.405700	0.608800
H321	H32	0.878200	0.381100	0.680500
C251	C25	0.028000	0.415900	0.780600
H331	H33	0.977100	0.408200	0.803700
H341	H34	0.068900	0.448300	0.809900
C261	C26	0.062200	0.343500	0.625600
H351	H35	0.039500	0.358600	0.574700
H361	H36	0.097300	0.303800	0.624600
C271	C27	0.158700	0.368500	0.746100
H371	H37	0.194500	0.329100	0.745700
H381	H38	0.199600	0.400600	0.775900
C281	C28	0.017800	0.305800	0.733500
H391	H39	0.966000	0.296900	0.755100
H401	H40	0.051800	0.265600	0.733200
C291	C29	0.069700	0.452400	0.670200
H411	H41	0.109800	0.485600	0.698600
H421	H42	0.046200	0.468200	0.619700
C301	C30	0.535500	0.230800	0.515000
H431	H43	0.534000	0.268700	0.545700
H441	H44	0.471900	0.215900	0.495500
C311	C31	0.577500	0.190100	0.406600
H451	H45	0.604300	0.200800	0.365500
H461	H46	0.514200	0.175100	0.385900
C321	C32	0.673700	0.270700	0.483000
H471	H47	0.701600	0.281100	0.442500
H481	H48	0.674100	0.309800	0.512300
C331	C33	0.592100	0.122400	0.515400
H491	H49	0.529400	0.105700	0.496700
H501	H50	0.629200	0.089000	0.546200
C341	C34	0.684800	0.203100	0.591200
H511	H51	0.720900	0.169700	0.622600
H521	H52	0.683600	0.241100	0.621800
C351	C35	0.728500	0.161600	0.483000
H531	H53	0.756700	0.172300	0.442700
H541	H54	0.765600	0.127600	0.512600
N11	N1	0.256600	0.374600	0.508600
N21	N2	0.188400	0.397500	0.376300
N31	N3	0.342600	0.346700	0.416100
N41	N4	0.202700	0.285200	0.420200
N51	N5	0.366200	0.491200	0.701600
N61	N6	0.379200	0.576300	0.795100
N71	N7	0.459900	0.588600	0.696300
N81	N8	0.513900	0.508100	0.795600
N91	N9	0.990100	0.440600	0.703700
N101	N10	0.981900	0.329100	0.656600
N111	N11	0.124400	0.392800	0.669100
N121	N12	0.080500	0.354700	0.779900
N131	N13	0.575600	0.249100	0.451900
N141	N14	0.632700	0.137200	0.451400
N151	N15	0.729800	0.219900	0.530400
N161	N16	0.589500	0.179800	0.560500
O11	O1	0.068400	0.146900	0.490600
O21	O2	0.004400	0.232600	0.523700
O31	O3	0.766300	0.939500	0.304300
H551	H55	0.788300	0.909600	0.332600
O41	O4	0.030700	0.384700	0.209000
O51	O5	0.887800	0.433100	0.205000
O61	O6	0.912700	0.380100	0.102700
O71	O7	0.899300	0.322400	0.202100
Cl11	Cl1	0.932620	0.382310	0.180700
Ag71	Ag7	0.735820	0.917160	0.872540
Ag81	Ag8	0.506760	0.838210	0.116310
Ag91	Ag9	0.121340	0.757460	0.922600
Ag101	Ag10	0.861540	0.681130	0.099610
Ag111	Ag11	0.904660	0.969180	0.199000
Ag121	Ag12	0.368100	0.951550	0.623170
C361	C36	0.996900	0.686000	0.016900
C371	C37	0.082000	0.678800	0.085900
C381	C38	0.115800	0.731700	0.122900
H561	H56	0.089600	0.771900	0.106800
C391	C39	0.188500	0.728300	0.184400
H571	H57	0.209500	0.766800	0.209200
C401	C40	0.232500	0.672500	0.211800
H581	H58	0.283200	0.672400	0.253400
C411	C41	0.196300	0.611800	0.172600
C421	C42	0.234300	0.552500	0.198600
H591	H59	0.284000	0.550800	0.240800
C431	C43	0.200400	0.497200	0.163900
C441	C44	0.129300	0.498700	0.097100
H601	H60	0.109300	0.460400	0.071500
C451	C45	0.087900	0.559000	0.068900
H611	H61	0.040600	0.560600	0.025100
C461	C46	0.119500	0.615400	0.108100
C471	C47	0.801300	0.919800	0.046700
H621	H62	0.862500	0.923700	0.037300
H631	H63	0.772700	0.962600	0.040700
C481	C48	0.855000	0.832200	0.132500
H641	H64	0.862000	0.817100	0.183100
H651	H65	0.916600	0.834700	0.123500
C491	C49	0.703600	0.782200	0.093200
H661	H66	0.708700	0.766600	0.143400
H671	H67	0.665700	0.751600	0.058800
C501	C50	0.650300	0.869700	0.007600
H681	H68	0.620500	0.912000	0.001000
H691	H69	0.611500	0.839900	0.972500
C511	C51	0.716200	0.891500	0.137400
H701	H70	0.721900	0.875800	0.187700
H711	H71	0.686900	0.934000	0.133100
C521	C52	0.787700	0.809300	0.003000
H721	H72	0.750300	0.778900	0.967900
H731	H73	0.848900	0.811600	0.993200
C531	C53	0.681500	0.027300	0.748800
H741	H74	0.737000	0.048200	0.778900
H751	H75	0.700700	0.996900	0.715700
C541	C54	0.591700	0.122200	0.754200
H761	H76	0.551700	0.154900	0.724700
H771	H77	0.646100	0.143900	0.784800
C551	C55	0.457800	0.055300	0.754200
H781	H78	0.423100	0.033100	0.784600
H791	H79	0.417100	0.087600	0.724500
C561	C56	0.549800	0.959200	0.750000
H801	H80	0.569100	0.928300	0.717300
H811	H81	0.517000	0.935600	0.780700
C571	C57	0.602500	0.038600	0.847100
H821	H82	0.570000	0.015700	0.878700
H831	H83	0.656600	0.059600	0.879100
C581	C58	0.538700	0.044500	0.658200
H841	H84	0.557700	0.014700	0.624400
H851	H85	0.498200	0.077000	0.628600
C591	C59	0.069800	0.889900	0.840900
H861	H86	0.094800	0.905700	0.891200
H871	H87	0.121800	0.881100	0.819500
C601	C60	0.972000	0.915900	0.719400
H881	H88	0.022900	0.908200	0.696300
H891	H89	0.931100	0.948300	0.690100
C611	C61	0.937800	0.843500	0.874400
H901	H90	0.960500	0.858600	0.925300
H911	H91	0.902700	0.803800	0.875400
C621	C62	0.841300	0.868500	0.753900
H921	H92	0.805500	0.829100	0.754300
H931	H93	0.800400	0.900600	0.724100
C631	C63	0.982200	0.805800	0.766500
H941	H94	0.034000	0.796900	0.744900
H951	H95	0.948200	0.765600	0.766800
C641	C64	0.930300	0.952400	0.829800
H961	H96	0.890200	0.985600	0.801400
H971	H97	0.953800	0.968200	0.880300
C651	C65	0.464500	0.730800	0.985000
H981	H98	0.466000	0.768700	0.954300
H991	H99	0.528100	0.715900	0.004500
C661	C66	0.422500	0.690100	0.093400
H1001	H100	0.395700	0.700800	0.134500
H1011	H101	0.485800	0.675100	0.114100
C671	C67	0.326300	0.770700	0.017000
H1021	H102	0.298400	0.781100	0.057500
H1031	H103	0.325900	0.809800	0.987700
C681	C68	0.407900	0.622400	0.984600
H1041	H104	0.470600	0.605700	0.003300
H1051	H105	0.370800	0.589000	0.953800
C691	C69	0.315200	0.703100	0.908800
H1061	H106	0.279100	0.669700	0.877400
H1071	H107	0.316400	0.741100	0.878200
C701	C70	0.271500	0.661600	0.017000
H1081	H108	0.243300	0.672300	0.057300
H1091	H109	0.234400	0.627600	0.987400
N171	N17	0.743400	0.874600	0.991400
N181	N18	0.811600	0.897500	0.123700
N191	N19	0.657400	0.846700	0.083900
N201	N20	0.797300	0.785200	0.079800
N211	N21	0.633800	0.991200	0.798400
N221	N22	0.620800	0.076300	0.704900
N231	N23	0.540100	0.088600	0.803700
N241	N24	0.486100	0.008100	0.704400
N251	N25	0.009900	0.940600	0.796300
N261	N26	0.018100	0.829100	0.843400
N271	N27	0.875600	0.892800	0.830900
N281	N28	0.919500	0.854700	0.720100
N291	N29	0.424400	0.749100	0.048100
N301	N30	0.367300	0.637200	0.048600
N311	N31	0.270200	0.719900	0.969600
N321	N32	0.410500	0.679800	0.939500
O81	O8	0.931600	0.646900	0.009400
O91	O9	0.995600	0.732600	0.976300
O101	O10	0.233700	0.439500	0.195700
H1101	H110	0.211700	0.409600	0.167400
O111	O11	0.969300	0.884700	0.291000
O121	O12	0.112200	0.933100	0.295000
O131	O13	0.087300	0.880100	0.397300
O141	O14	0.100700	0.822400	0.297900
Cl21	Cl2	0.067380	0.882310	0.319300
Ag131	Ag13	0.735820	0.582840	0.372540
Ag141	Ag14	0.506760	0.661790	0.616310
Ag151	Ag15	0.121340	0.742540	0.422600
Ag161	Ag16	0.861540	0.818870	0.599610
Ag171	Ag17	0.904660	0.530820	0.699000
Ag181	Ag18	0.368100	0.548450	0.123170
C711	C71	0.996900	0.814000	0.516900
C721	C72	0.082000	0.821200	0.585900
C731	C73	0.115800	0.768300	0.622900
H1111	H111	0.089600	0.728100	0.606800
C741	C74	0.188500	0.771700	0.684400
H1121	H112	0.209500	0.733200	0.709200
C751	C75	0.232500	0.827500	0.711800
H1131	H113	0.283200	0.827600	0.753400
C761	C76	0.196300	0.888200	0.672600
C771	C77	0.234300	0.947500	0.698600
H1141	H114	0.284000	0.949200	0.740800
C781	C78	0.200400	0.002800	0.663900
C791	C79	0.129300	0.001300	0.597100
H1151	H115	0.109300	0.039600	0.571500
C801	C80	0.087900	0.941000	0.568900
H1161	H116	0.040600	0.939400	0.525100
C811	C81	0.119500	0.884600	0.608100
C821	C82	0.801300	0.580200	0.546700
H1171	H117	0.862500	0.576300	0.537300
H1181	H118	0.772700	0.537400	0.540700
C831	C83	0.855000	0.667800	0.632500
H1191	H119	0.862000	0.682900	0.683100
H1201	H120	0.916600	0.665300	0.623500
C841	C84	0.703600	0.717800	0.593200
H1211	H121	0.708700	0.733400	0.643400
H1221	H122	0.665700	0.748400	0.558800
C851	C85	0.650300	0.630300	0.507600
H1231	H123	0.620500	0.588000	0.501000
H1241	H124	0.611500	0.660100	0.472500
C861	C86	0.716200	0.608500	0.637400
H1251	H125	0.721900	0.624200	0.687700
H1261	H126	0.686900	0.566000	0.633100
C871	C87	0.787700	0.690700	0.503000
H1271	H127	0.750300	0.721100	0.467900
H1281	H128	0.848900	0.688400	0.493200
C881	C88	0.681500	0.472700	0.248800
H1291	H129	0.737000	0.451800	0.278900
H1301	H130	0.700700	0.503100	0.215700
C891	C89	0.591700	0.377800	0.254200
H1311	H131	0.551700	0.345100	0.224700
H1321	H132	0.646100	0.356100	0.284800
C901	C90	0.457800	0.444700	0.254200
H1331	H133	0.423100	0.466900	0.284600
H1341	H134	0.417100	0.412400	0.224500
C911	C91	0.549800	0.540800	0.250000
H1351	H135	0.569100	0.571700	0.217300
H1361	H136	0.517000	0.564400	0.280700
C921	C92	0.602500	0.461400	0.347100
H1371	H137	0.570000	0.484300	0.378700
H1381	H138	0.656600	0.440400	0.379100
C931	C93	0.538700	0.455500	0.158200
H1391	H139	0.557700	0.485300	0.124400
H1401	H140	0.498200	0.423000	0.128600
C941	C94	0.069800	0.610100	0.340900
H1411	H141	0.094800	0.594300	0.391200
H1421	H142	0.121800	0.618900	0.319500
C951	C95	0.972000	0.584100	0.219400
H1431	H143	0.022900	0.591800	0.196300
H1441	H144	0.931100	0.551700	0.190100
C961	C96	0.937800	0.656500	0.374400
H1451	H145	0.960500	0.641400	0.425300
H1461	H146	0.902700	0.696200	0.375400
C971	C97	0.841300	0.631500	0.253900
H1471	H147	0.805500	0.670900	0.254300
H1481	H148	0.800400	0.599400	0.224100
C981	C98	0.982200	0.694200	0.266500
H1491	H149	0.034000	0.703100	0.244900
H1501	H150	0.948200	0.734400	0.266800
C991	C99	0.930300	0.547600	0.329800
H1511	H151	0.890200	0.514400	0.301400
H1521	H152	0.953800	0.531800	0.380300
C1001	C100	0.464500	0.769200	0.485000
H1531	H153	0.466000	0.731300	0.454300
H1541	H154	0.528100	0.784100	0.504500
C1011	C101	0.422500	0.809900	0.593400
H1551	H155	0.395700	0.799200	0.634500
H1561	H156	0.485800	0.824900	0.614100
C1021	C102	0.326300	0.729300	0.517000
H1571	H157	0.298400	0.718900	0.557500
H1581	H158	0.325900	0.690200	0.487700
C1031	C103	0.407900	0.877600	0.484600
H1591	H159	0.470600	0.894300	0.503300
H1601	H160	0.370800	0.911000	0.453800
C1041	C104	0.315200	0.796900	0.408800
H1611	H161	0.279100	0.830300	0.377400
H1621	H162	0.316400	0.758900	0.378200
C1051	C105	0.271500	0.838400	0.517000
H1631	H163	0.243300	0.827700	0.557300
H1641	H164	0.234400	0.872400	0.487400
N331	N33	0.743400	0.625400	0.491400
N341	N34	0.811600	0.602500	0.623700
N351	N35	0.657400	0.653300	0.583900
N361	N36	0.797300	0.714800	0.579800
N371	N37	0.633800	0.508800	0.298400
N381	N38	0.620800	0.423700	0.204900
N391	N39	0.540100	0.411400	0.303700
N401	N40	0.486100	0.491900	0.204400
N411	N41	0.009900	0.559400	0.296300
N421	N42	0.018100	0.670900	0.343400
N431	N43	0.875600	0.607200	0.330900
N441	N44	0.919500	0.645300	0.220100
N451	N45	0.424400	0.750900	0.548100
N461	N46	0.367300	0.862800	0.548600
N471	N47	0.270200	0.780100	0.469600
N481	N48	0.410500	0.820200	0.439500
O151	O15	0.931600	0.853100	0.509400
O161	O16	0.995600	0.767400	0.476300
O171	O17	0.233700	0.060500	0.695700
H1651	H165	0.211700	0.090400	0.667400
O181	O18	0.969300	0.615300	0.791000
O191	O19	0.112200	0.566900	0.795000
O201	O20	0.087300	0.619900	0.897300
O211	O21	0.100700	0.677600	0.797900
Cl31	Cl3	0.067380	0.617690	0.819300
Ag191	Ag19	0.264180	0.082840	0.127460
Ag201	Ag20	0.493240	0.161790	0.883690
Ag211	Ag21	0.878660	0.242540	0.077400
Ag221	Ag22	0.138460	0.318870	0.900390
Ag231	Ag23	0.095340	0.030820	0.801000
Ag241	Ag24	0.631900	0.048450	0.376830
C1061	C106	0.003100	0.314000	0.983100
C1071	C107	0.918000	0.321200	0.914100
C1081	C108	0.884200	0.268300	0.877100
H1661	H166	0.910400	0.228100	0.893200
C1091	C109	0.811500	0.271700	0.815600
H1671	H167	0.790500	0.233200	0.790800
C1101	C110	0.767500	0.327500	0.788200
H1681	H168	0.716800	0.327600	0.746600
C1111	C111	0.803700	0.388200	0.827400
C1121	C112	0.765700	0.447500	0.801400
H1691	H169	0.716000	0.449200	0.759200
C1131	C113	0.799600	0.502800	0.836100
C1141	C114	0.870700	0.501300	0.902900
H1701	H170	0.890700	0.539600	0.928500
C1151	C115	0.912100	0.441000	0.931100
H1711	H171	0.959400	0.439400	0.974900
C1161	C116	0.880500	0.384600	0.891900
C1171	C117	0.198700	0.080200	0.953300
H1721	H172	0.137500	0.076300	0.962700
H1731	H173	0.227300	0.037400	0.959300
C1181	C118	0.145000	0.167800	0.867500
H1741	H174	0.138000	0.182900	0.816900
H1751	H175	0.083400	0.165300	0.876500
C1191	C119	0.296400	0.217800	0.906800
H1761	H176	0.291300	0.233400	0.856600
H1771	H177	0.334300	0.248400	0.941200
C1201	C120	0.349700	0.130300	0.992400
H1781	H178	0.379500	0.088000	0.999000
H1791	H179	0.388500	0.160100	0.027500
C1211	C121	0.283800	0.108500	0.862600
H1801	H180	0.278100	0.124200	0.812300
H1811	H181	0.313100	0.066000	0.866900
C1221	C122	0.212300	0.190700	0.997000
H1821	H182	0.249700	0.221100	0.032100
H1831	H183	0.151100	0.188400	0.006800
C1231	C123	0.318500	0.972700	0.251200
H1841	H184	0.263000	0.951800	0.221100
H1851	H185	0.299300	0.003100	0.284300
C1241	C124	0.408300	0.877800	0.245800
H1861	H186	0.448300	0.845100	0.275300
H1871	H187	0.353900	0.856100	0.215200
C1251	C125	0.542200	0.944700	0.245800
H1881	H188	0.576900	0.966900	0.215400
H1891	H189	0.582900	0.912400	0.275500
C1261	C126	0.450200	0.040800	0.250000
H1901	H190	0.430900	0.071700	0.282700
H1911	H191	0.483000	0.064400	0.219300
C1271	C127	0.397500	0.961400	0.152900
H1921	H192	0.430000	0.984300	0.121300
H1931	H193	0.343400	0.940400	0.120900
C1281	C128	0.461300	0.955500	0.341800
H1941	H194	0.442300	0.985300	0.375600
H1951	H195	0.501800	0.923000	0.371400
C1291	C129	0.930200	0.110100	0.159100
H1961	H196	0.905200	0.094300	0.108800
H1971	H197	0.878200	0.118900	0.180500
C1301	C130	0.028000	0.084100	0.280600
H1981	H198	0.977100	0.091800	0.303700
H1991	H199	0.068900	0.051700	0.309900
C1311	C131	0.062200	0.156500	0.125600
H2001	H200	0.039500	0.141400	0.074700
H2011	H201	0.097300	0.196200	0.124600
C1321	C132	0.158700	0.131500	0.246100
H2021	H202	0.194500	0.170900	0.245700
H2031	H203	0.199600	0.099400	0.275900
C1331	C133	0.017800	0.194200	0.233500
H2041	H204	0.966000	0.203100	0.255100
H2051	H205	0.051800	0.234400	0.233200
C1341	C134	0.069700	0.047600	0.170200
H2061	H206	0.109800	0.014400	0.198600
H2071	H207	0.046200	0.031800	0.119700
C1351	C135	0.535500	0.269200	0.015000
H2081	H208	0.534000	0.231300	0.045700
H2091	H209	0.471900	0.284100	0.995500
C1361	C136	0.577500	0.309900	0.906600
H2101	H210	0.604300	0.299200	0.865500
H2111	H211	0.514200	0.324900	0.885900
C1371	C137	0.673700	0.229300	0.983000
H2121	H212	0.701600	0.218900	0.942500
H2131	H213	0.674100	0.190200	0.012300
C1381	C138	0.592100	0.377600	0.015400
H2141	H214	0.529400	0.394300	0.996700
H2151	H215	0.629200	0.411000	0.046200
C1391	C139	0.684800	0.296900	0.091200
H2161	H216	0.720900	0.330300	0.122600
H2171	H217	0.683600	0.258900	0.121800
C1401	C140	0.728500	0.338400	0.983000
H2181	H218	0.756700	0.327700	0.942700
H2191	H219	0.765600	0.372400	0.012600
N491	N49	0.256600	0.125400	0.008600
N501	N50	0.188400	0.102500	0.876300
N511	N51	0.342600	0.153300	0.916100
N521	N52	0.202700	0.214800	0.920200
N531	N53	0.366200	0.008800	0.201600
N541	N54	0.379200	0.923700	0.295100
N551	N55	0.459900	0.911400	0.196300
N561	N56	0.513900	0.991900	0.295600
N571	N57	0.990100	0.059400	0.203700
N581	N58	0.981900	0.170900	0.156600
N591	N59	0.124400	0.107200	0.169100
N601	N60	0.080500	0.145300	0.279900
N611	N61	0.575600	0.250900	0.951900
N621	N62	0.632700	0.362800	0.951400
N631	N63	0.729800	0.280100	0.030400
N641	N64	0.589500	0.320200	0.060500
O221	O22	0.068400	0.353100	0.990600
O231	O23	0.004400	0.267400	0.023700
O241	O24	0.766300	0.560500	0.804300
H2201	H220	0.788300	0.590400	0.832600
O251	O25	0.030700	0.115300	0.709000
O261	O26	0.887800	0.066900	0.705000
O271	O27	0.912700	0.119900	0.602700
O281	O28	0.899300	0.177600	0.702100
Cl41	Cl4	0.932620	0.117690	0.680700
