data_OPOZEZ_freeONLY_PM
_symmetry_space_group_name_H-M	'P1'
_cell_length_a	15.938800
_cell_length_b	16.183700
_cell_length_c	28.520000
_cell_angle_alpha	90.000000
_cell_angle_beta	90.000000
_cell_angle_gamma	105.714000
_symmetry_Int_Tables_number 1

loop_
_symmetry_equiv_pos_as_xyz
'x,y,z'

loop_
_atom_site_label
_atom_site_type_symbol
_atom_site_fract_x
_atom_site_fract_y
_atom_site_fract_z
Cd11	Cd1	0.619990	0.136080	0.966190
Cd21	Cd2	0.662010	0.350160	0.033980
Cd31	Cd3	0.619990	0.636080	0.533810
Cd41	Cd4	0.662010	0.850160	0.466020
H11	H1	0.689600	0.506200	0.887000
H21	H2	0.667200	0.253300	0.870200
H31	H3	0.655000	0.264300	0.789600
H41	H4	0.635000	0.309000	0.701300
H51	H5	0.617700	0.376600	0.631300
H61	H6	0.657900	0.606500	0.698500
H71	H7	0.547700	0.539000	0.802800
H81	H8	0.603000	0.630900	0.784300
H91	H9	0.613500	0.603300	0.837400
H101	H10	0.810200	0.588800	0.784900
H111	H11	0.771300	0.633500	0.826500
H121	H12	0.761900	0.661200	0.773300
H131	H13	0.611900	0.986400	0.113100
H141	H14	0.588600	0.229500	0.131900
H151	H15	0.590400	0.213100	0.213300
H161	H16	0.610000	0.165900	0.301500
H171	H17	0.633600	0.100600	0.371400
H181	H18	0.651900	0.889300	0.300100
H191	H19	0.496000	0.885100	0.212700
H201	H20	0.558100	0.824900	0.224400
H211	H21	0.546100	0.851500	0.171300
H221	H22	0.760900	0.977700	0.198900
H231	H23	0.705800	0.907800	0.163000
H241	H24	0.718300	0.881300	0.216100
H251	H25	0.862200	0.427600	0.996200
H261	H26	0.999500	0.417800	0.006700
H271	H27	0.914200	0.242000	0.104900
H281	H28	0.774100	0.260600	0.095200
H291	H29	0.069400	0.283100	0.089800
H301	H30	0.245700	0.408300	0.999000
H311	H31	0.334300	0.291500	0.086800
H321	H32	0.475700	0.276900	0.086300
H331	H33	0.527900	0.412500	0.970300
H341	H34	0.390300	0.430500	0.968500
H351	H35	0.436200	0.092200	0.015500
H361	H36	0.294500	0.106900	0.009900
H371	H37	0.366600	0.241800	0.891500
H381	H38	0.505200	0.223700	0.899900
H391	H39	0.217300	0.221300	0.919400
H401	H40	0.037100	0.088700	0.014400
H411	H41	0.887800	0.046400	0.035100
H421	H42	0.743500	0.053800	0.024800
H431	H43	0.815300	0.239300	0.934800
H441	H44	0.960200	0.231100	0.936500
H451	H45	0.689600	0.006200	0.613000
H461	H46	0.667200	0.753300	0.629800
H471	H47	0.655000	0.764300	0.710400
H481	H48	0.635000	0.809000	0.798700
H491	H49	0.617700	0.876600	0.868700
H501	H50	0.657900	0.106500	0.801500
H511	H51	0.547700	0.039000	0.697200
H521	H52	0.603000	0.130900	0.715700
H531	H53	0.613500	0.103300	0.662600
H541	H54	0.810200	0.088800	0.715100
H551	H55	0.771300	0.133500	0.673500
H561	H56	0.761900	0.161200	0.726700
H571	H57	0.611900	0.486400	0.386900
H581	H58	0.588600	0.729500	0.368100
H591	H59	0.590400	0.713100	0.286700
H601	H60	0.610000	0.665900	0.198500
H611	H61	0.633600	0.600600	0.128600
H621	H62	0.651900	0.389300	0.199900
H631	H63	0.496000	0.385100	0.287300
H641	H64	0.558100	0.324900	0.275600
H651	H65	0.546100	0.351500	0.328700
H661	H66	0.760900	0.477700	0.301100
H671	H67	0.705800	0.407800	0.337000
H681	H68	0.718300	0.381300	0.283900
H691	H69	0.862200	0.927600	0.503800
H701	H70	0.999500	0.917800	0.493300
H711	H71	0.914200	0.742000	0.395100
H721	H72	0.774100	0.760600	0.404800
H731	H73	0.069400	0.783100	0.410200
H741	H74	0.245700	0.908300	0.501000
H751	H75	0.334300	0.791500	0.413200
H761	H76	0.475700	0.776900	0.413700
H771	H77	0.527900	0.912500	0.529700
H781	H78	0.390300	0.930500	0.531500
H791	H79	0.436200	0.592200	0.484500
H801	H80	0.294500	0.606900	0.490100
H811	H81	0.366600	0.741800	0.608500
H821	H82	0.505200	0.723700	0.600100
H831	H83	0.217300	0.721300	0.580600
H841	H84	0.037100	0.588700	0.485600
H851	H85	0.887800	0.546400	0.464900
H861	H86	0.743500	0.553800	0.475200
H871	H87	0.815300	0.739300	0.565200
H881	H88	0.960200	0.731100	0.563500
C11	C1	0.682300	0.457700	0.867100
C21	C2	0.677800	0.376100	0.886100
C31	C3	0.668500	0.307500	0.856900
C41	C4	0.660900	0.313100	0.809100
C51	C5	0.638700	0.368600	0.700800
C61	C6	0.629800	0.409500	0.659300
C71	C7	0.637900	0.498200	0.657000
C81	C8	0.653200	0.546700	0.699100
C91	C9	0.661500	0.506000	0.741100
C101	C10	0.653400	0.417100	0.741800
C111	C11	0.662100	0.391900	0.790500
C121	C12	0.676000	0.465800	0.819100
C131	C13	0.676300	0.544500	0.790100
C141	C14	0.603700	0.582800	0.804900
C151	C15	0.762500	0.613100	0.794100
C161	C16	0.680700	0.365600	0.938700
C171	C17	0.627800	0.540800	0.611800
C181	C18	0.609700	0.032600	0.133200
C191	C19	0.601200	0.111000	0.114800
C201	C20	0.594500	0.177300	0.144900
C211	C21	0.596200	0.168400	0.193000
C221	C22	0.618700	0.110100	0.301300
C231	C23	0.632300	0.071200	0.342500
C241	C24	0.644000	0.989400	0.342000
C251	C25	0.643500	0.945200	0.300300
C261	C26	0.630500	0.984800	0.258600
C271	C27	0.618000	0.065900	0.259500
C281	C28	0.606800	0.090900	0.210800
C291	C29	0.614500	0.025500	0.181300
C301	C30	0.628300	0.951300	0.209600
C311	C31	0.549900	0.870800	0.204000
C321	C32	0.710600	0.927400	0.195700
C331	C33	0.600900	0.124600	0.062400
C341	C34	0.659000	0.947000	0.388100
C351	C35	0.872300	0.389800	0.019600
C361	C36	0.953700	0.384600	0.025700
C371	C37	0.970600	0.332500	0.058500
C381	C38	0.904500	0.283000	0.083200
C391	C39	0.820500	0.292900	0.076200
C401	C40	0.060300	0.321400	0.066400
C411	C41	0.259600	0.375300	0.024000
C421	C42	0.345800	0.364100	0.026800
C431	C43	0.373400	0.317300	0.062500
C441	C44	0.458000	0.308800	0.062100
C451	C45	0.488200	0.387900	0.994600
C461	C46	0.405800	0.398400	0.993300
C471	C47	0.421600	0.122900	0.989700
C481	C48	0.336700	0.131400	0.986700
C491	C49	0.315900	0.175600	0.949800
C501	C50	0.379400	0.210400	0.917400
C511	C51	0.461700	0.199500	0.922500
C521	C52	0.228900	0.186900	0.944300
C531	C53	0.025500	0.125900	0.991100
C541	C54	0.938900	0.136300	0.985800
C551	C55	0.874800	0.085100	0.013000
C561	C56	0.788400	0.091400	0.007000
C571	C57	0.829300	0.197500	0.954400
C581	C58	0.917200	0.194300	0.955800
C591	C59	0.682300	0.957700	0.632900
C601	C60	0.677800	0.876100	0.613900
C611	C61	0.668500	0.807500	0.643100
C621	C62	0.660900	0.813100	0.690900
C631	C63	0.638700	0.868600	0.799200
C641	C64	0.629800	0.909500	0.840700
C651	C65	0.637900	0.998200	0.843000
C661	C66	0.653200	0.046700	0.800900
C671	C67	0.661500	0.006000	0.758900
C681	C68	0.653400	0.917100	0.758200
C691	C69	0.662100	0.891900	0.709500
C701	C70	0.676000	0.965800	0.680900
C711	C71	0.676300	0.044500	0.709900
C721	C72	0.603700	0.082800	0.695100
C731	C73	0.762500	0.113100	0.705900
C741	C74	0.680700	0.865600	0.561300
C751	C75	0.627800	0.040800	0.888200
C761	C76	0.609700	0.532600	0.366800
C771	C77	0.601200	0.611000	0.385200
C781	C78	0.594500	0.677300	0.355100
C791	C79	0.596200	0.668400	0.307000
C801	C80	0.618700	0.610100	0.198700
C811	C81	0.632300	0.571200	0.157500
C821	C82	0.644000	0.489400	0.158000
C831	C83	0.643500	0.445200	0.199700
C841	C84	0.630500	0.484800	0.241400
C851	C85	0.618000	0.565900	0.240500
C861	C86	0.606800	0.590900	0.289200
C871	C87	0.614500	0.525500	0.318700
C881	C88	0.628300	0.451300	0.290400
C891	C89	0.549900	0.370800	0.296000
C901	C90	0.710600	0.427400	0.304300
C911	C91	0.600900	0.624600	0.437600
C921	C92	0.659000	0.447000	0.111900
C931	C93	0.872300	0.889800	0.480400
C941	C94	0.953700	0.884600	0.474300
C951	C95	0.970600	0.832500	0.441500
C961	C96	0.904500	0.783000	0.416800
C971	C97	0.820500	0.792900	0.423800
C981	C98	0.060300	0.821400	0.433600
C991	C99	0.259600	0.875300	0.476000
C1001	C100	0.345800	0.864100	0.473200
C1011	C101	0.373400	0.817300	0.437500
C1021	C102	0.458000	0.808800	0.437900
C1031	C103	0.488200	0.887900	0.505400
C1041	C104	0.405800	0.898400	0.506700
C1051	C105	0.421600	0.622900	0.510300
C1061	C106	0.336700	0.631400	0.513300
C1071	C107	0.315900	0.675600	0.550200
C1081	C108	0.379400	0.710400	0.582600
C1091	C109	0.461700	0.699500	0.577500
C1101	C110	0.228900	0.686900	0.555700
C1111	C111	0.025500	0.625900	0.508900
C1121	C112	0.938900	0.636300	0.514200
C1131	C113	0.874800	0.585100	0.487000
C1141	C114	0.788400	0.591400	0.493000
C1151	C115	0.829300	0.697500	0.545600
C1161	C116	0.917200	0.694300	0.544200
N11	N1	0.803700	0.344800	0.044600
N21	N2	0.122800	0.362700	0.042000
N31	N3	0.203000	0.342900	0.053400
N41	N4	0.514800	0.343900	0.028800
N51	N5	0.481800	0.155500	0.958600
N61	N6	0.168000	0.150700	0.972800
N71	N7	0.088700	0.168600	0.963100
N81	N8	0.766200	0.146200	0.978400
N91	N9	0.803700	0.844800	0.455400
N101	N10	0.122800	0.862700	0.458000
N111	N11	0.203000	0.842900	0.446600
N121	N12	0.514800	0.843900	0.471200
N131	N13	0.481800	0.655500	0.541400
N141	N14	0.168000	0.650700	0.527200
N151	N15	0.088700	0.668600	0.536900
N161	N16	0.766200	0.646200	0.521600
O11	O1	0.690200	0.429400	0.964200
O21	O2	0.669300	0.291200	0.954900
O31	O3	0.625800	0.616400	0.613000
O41	O4	0.625200	0.498600	0.574900
O51	O5	0.592800	0.061300	0.036400
O61	O6	0.612600	0.200200	0.046900
O71	O7	0.672900	0.989300	0.425200
O81	O8	0.654600	0.868100	0.386100
O91	O9	0.690200	0.929400	0.535800
O101	O10	0.669300	0.791200	0.545100
O111	O11	0.625800	0.116400	0.887000
O121	O12	0.625200	0.998600	0.925100
O131	O13	0.592800	0.561300	0.463600
O141	O14	0.612600	0.700200	0.453100
O151	O15	0.672900	0.489300	0.074800
O161	O16	0.654600	0.368100	0.113900
Cd51	Cd5	0.380010	0.363920	0.466190
Cd61	Cd6	0.337990	0.149840	0.533980
Cd71	Cd7	0.380010	0.863920	0.033810
Cd81	Cd8	0.337990	0.649840	0.966020
H891	H89	0.310400	0.993800	0.387000
H901	H90	0.332800	0.246700	0.370200
H911	H91	0.345000	0.235700	0.289600
H921	H92	0.365000	0.191000	0.201300
H931	H93	0.382300	0.123400	0.131300
H941	H94	0.342100	0.893500	0.198500
H951	H95	0.452300	0.961000	0.302800
H961	H96	0.397000	0.869100	0.284300
H971	H97	0.386500	0.896700	0.337400
H981	H98	0.189800	0.911200	0.284900
H991	H99	0.228700	0.866500	0.326500
H1001	H100	0.238100	0.838800	0.273300
H1011	H101	0.388100	0.513600	0.613100
H1021	H102	0.411400	0.270500	0.631900
H1031	H103	0.409600	0.286900	0.713300
H1041	H104	0.390000	0.334100	0.801500
H1051	H105	0.366400	0.399400	0.871400
H1061	H106	0.348100	0.610700	0.800100
H1071	H107	0.504000	0.614900	0.712700
H1081	H108	0.441900	0.675100	0.724400
H1091	H109	0.453900	0.648500	0.671300
H1101	H110	0.239100	0.522300	0.698900
H1111	H111	0.294200	0.592200	0.663000
H1121	H112	0.281700	0.618700	0.716100
H1131	H113	0.137800	0.072400	0.496200
H1141	H114	0.000500	0.082200	0.506700
H1151	H115	0.085800	0.258000	0.604900
H1161	H116	0.225900	0.239400	0.595200
H1171	H117	0.930600	0.216900	0.589800
H1181	H118	0.754300	0.091700	0.499000
H1191	H119	0.665700	0.208500	0.586800
H1201	H120	0.524300	0.223100	0.586300
H1211	H121	0.472100	0.087500	0.470300
H1221	H122	0.609700	0.069500	0.468500
H1231	H123	0.563800	0.407800	0.515500
H1241	H124	0.705500	0.393100	0.509900
H1251	H125	0.633400	0.258200	0.391500
H1261	H126	0.494800	0.276300	0.399900
H1271	H127	0.782700	0.278700	0.419400
H1281	H128	0.962900	0.411300	0.514400
H1291	H129	0.112200	0.453600	0.535100
H1301	H130	0.256500	0.446200	0.524800
H1311	H131	0.184700	0.260700	0.434800
H1321	H132	0.039800	0.268900	0.436500
H1331	H133	0.310400	0.493800	0.113000
H1341	H134	0.332800	0.746700	0.129800
H1351	H135	0.345000	0.735700	0.210400
H1361	H136	0.365000	0.691000	0.298700
H1371	H137	0.382300	0.623400	0.368700
H1381	H138	0.342100	0.393500	0.301500
H1391	H139	0.452300	0.461000	0.197200
H1401	H140	0.397000	0.369100	0.215700
H1411	H141	0.386500	0.396700	0.162600
H1421	H142	0.189800	0.411200	0.215100
H1431	H143	0.228700	0.366500	0.173500
H1441	H144	0.238100	0.338800	0.226700
H1451	H145	0.388100	0.013600	0.886900
H1461	H146	0.411400	0.770500	0.868100
H1471	H147	0.409600	0.786900	0.786700
H1481	H148	0.390000	0.834100	0.698500
H1491	H149	0.366400	0.899400	0.628600
H1501	H150	0.348100	0.110700	0.699900
H1511	H151	0.504000	0.114900	0.787300
H1521	H152	0.441900	0.175100	0.775600
H1531	H153	0.453900	0.148500	0.828700
H1541	H154	0.239100	0.022300	0.801100
H1551	H155	0.294200	0.092200	0.837000
H1561	H156	0.281700	0.118700	0.783900
H1571	H157	0.137800	0.572400	0.003800
H1581	H158	0.000500	0.582200	0.993300
H1591	H159	0.085800	0.758000	0.895100
H1601	H160	0.225900	0.739400	0.904800
H1611	H161	0.930600	0.716900	0.910200
H1621	H162	0.754300	0.591700	0.001000
H1631	H163	0.665700	0.708500	0.913200
H1641	H164	0.524300	0.723100	0.913700
H1651	H165	0.472100	0.587500	0.029700
H1661	H166	0.609700	0.569500	0.031500
H1671	H167	0.563800	0.907800	0.984500
H1681	H168	0.705500	0.893100	0.990100
H1691	H169	0.633400	0.758200	0.108500
H1701	H170	0.494800	0.776300	0.100100
H1711	H171	0.782700	0.778700	0.080600
H1721	H172	0.962900	0.911300	0.985600
H1731	H173	0.112200	0.953600	0.964900
H1741	H174	0.256500	0.946200	0.975200
H1751	H175	0.184700	0.760700	0.065200
H1761	H176	0.039800	0.768900	0.063500
C1171	C117	0.317700	0.042300	0.367100
C1181	C118	0.322200	0.123900	0.386100
C1191	C119	0.331500	0.192500	0.356900
C1201	C120	0.339100	0.186900	0.309100
C1211	C121	0.361300	0.131400	0.200800
C1221	C122	0.370200	0.090500	0.159300
C1231	C123	0.362100	0.001800	0.157000
C1241	C124	0.346800	0.953300	0.199100
C1251	C125	0.338500	0.994000	0.241100
C1261	C126	0.346600	0.082900	0.241800
C1271	C127	0.337900	0.108100	0.290500
C1281	C128	0.324000	0.034200	0.319100
C1291	C129	0.323700	0.955500	0.290100
C1301	C130	0.396300	0.917200	0.304900
C1311	C131	0.237500	0.886900	0.294100
C1321	C132	0.319300	0.134400	0.438700
C1331	C133	0.372200	0.959200	0.111800
C1341	C134	0.390300	0.467400	0.633200
C1351	C135	0.398800	0.389000	0.614800
C1361	C136	0.405500	0.322700	0.644900
C1371	C137	0.403800	0.331600	0.693000
C1381	C138	0.381300	0.389900	0.801300
C1391	C139	0.367700	0.428800	0.842500
C1401	C140	0.356000	0.510600	0.842000
C1411	C141	0.356500	0.554800	0.800300
C1421	C142	0.369500	0.515200	0.758600
C1431	C143	0.382000	0.434100	0.759500
C1441	C144	0.393200	0.409100	0.710800
C1451	C145	0.385500	0.474500	0.681300
C1461	C146	0.371700	0.548700	0.709600
C1471	C147	0.450100	0.629200	0.704000
C1481	C148	0.289400	0.572600	0.695700
C1491	C149	0.399100	0.375400	0.562400
C1501	C150	0.341000	0.553000	0.888100
C1511	C151	0.127700	0.110200	0.519600
C1521	C152	0.046300	0.115400	0.525700
C1531	C153	0.029400	0.167500	0.558500
C1541	C154	0.095500	0.217000	0.583200
C1551	C155	0.179500	0.207100	0.576200
C1561	C156	0.939700	0.178600	0.566400
C1571	C157	0.740400	0.124700	0.524000
C1581	C158	0.654200	0.135900	0.526800
C1591	C159	0.626600	0.182700	0.562500
C1601	C160	0.542000	0.191200	0.562100
C1611	C161	0.511800	0.112100	0.494600
C1621	C162	0.594200	0.101600	0.493300
C1631	C163	0.578400	0.377100	0.489700
C1641	C164	0.663300	0.368600	0.486700
C1651	C165	0.684100	0.324400	0.449800
C1661	C166	0.620600	0.289600	0.417400
C1671	C167	0.538300	0.300500	0.422500
C1681	C168	0.771100	0.313100	0.444300
C1691	C169	0.974500	0.374100	0.491100
C1701	C170	0.061100	0.363700	0.485800
C1711	C171	0.125200	0.414900	0.513000
C1721	C172	0.211600	0.408600	0.507000
C1731	C173	0.170700	0.302500	0.454400
C1741	C174	0.082800	0.305700	0.455800
C1751	C175	0.317700	0.542300	0.132900
C1761	C176	0.322200	0.623900	0.113900
C1771	C177	0.331500	0.692500	0.143100
C1781	C178	0.339100	0.686900	0.190900
C1791	C179	0.361300	0.631400	0.299200
C1801	C180	0.370200	0.590500	0.340700
C1811	C181	0.362100	0.501800	0.343000
C1821	C182	0.346800	0.453300	0.300900
C1831	C183	0.338500	0.494000	0.258900
C1841	C184	0.346600	0.582900	0.258200
C1851	C185	0.337900	0.608100	0.209500
C1861	C186	0.324000	0.534200	0.180900
C1871	C187	0.323700	0.455500	0.209900
C1881	C188	0.396300	0.417200	0.195100
C1891	C189	0.237500	0.386900	0.205900
C1901	C190	0.319300	0.634400	0.061300
C1911	C191	0.372200	0.459200	0.388200
C1921	C192	0.390300	0.967400	0.866800
C1931	C193	0.398800	0.889000	0.885200
C1941	C194	0.405500	0.822700	0.855100
C1951	C195	0.403800	0.831600	0.807000
C1961	C196	0.381300	0.889900	0.698700
C1971	C197	0.367700	0.928800	0.657500
C1981	C198	0.356000	0.010600	0.658000
C1991	C199	0.356500	0.054800	0.699700
C2001	C200	0.369500	0.015200	0.741400
C2011	C201	0.382000	0.934100	0.740500
C2021	C202	0.393200	0.909100	0.789200
C2031	C203	0.385500	0.974500	0.818700
C2041	C204	0.371700	0.048700	0.790400
C2051	C205	0.450100	0.129200	0.796000
C2061	C206	0.289400	0.072600	0.804300
C2071	C207	0.399100	0.875400	0.937600
C2081	C208	0.341000	0.053000	0.611900
C2091	C209	0.127700	0.610200	0.980400
C2101	C210	0.046300	0.615400	0.974300
C2111	C211	0.029400	0.667500	0.941500
C2121	C212	0.095500	0.717000	0.916800
C2131	C213	0.179500	0.707100	0.923800
C2141	C214	0.939700	0.678600	0.933600
C2151	C215	0.740400	0.624700	0.976000
C2161	C216	0.654200	0.635900	0.973200
C2171	C217	0.626600	0.682700	0.937500
C2181	C218	0.542000	0.691200	0.937900
C2191	C219	0.511800	0.612100	0.005400
C2201	C220	0.594200	0.601600	0.006700
C2211	C221	0.578400	0.877100	0.010300
C2221	C222	0.663300	0.868600	0.013300
C2231	C223	0.684100	0.824400	0.050200
C2241	C224	0.620600	0.789600	0.082600
C2251	C225	0.538300	0.800500	0.077500
C2261	C226	0.771100	0.813100	0.055700
C2271	C227	0.974500	0.874100	0.008900
C2281	C228	0.061100	0.863700	0.014200
C2291	C229	0.125200	0.914900	0.987000
C2301	C230	0.211600	0.908600	0.993000
C2311	C231	0.170700	0.802500	0.045600
C2321	C232	0.082800	0.805700	0.044200
N171	N17	0.196300	0.155200	0.544600
N181	N18	0.877200	0.137300	0.542000
N191	N19	0.797000	0.157100	0.553400
N201	N20	0.485200	0.156100	0.528800
N211	N21	0.518200	0.344500	0.458600
N221	N22	0.832000	0.349300	0.472800
N231	N23	0.911300	0.331400	0.463100
N241	N24	0.233800	0.353800	0.478400
N251	N25	0.196300	0.655200	0.955400
N261	N26	0.877200	0.637300	0.958000
N271	N27	0.797000	0.657100	0.946600
N281	N28	0.485200	0.656100	0.971200
N291	N29	0.518200	0.844500	0.041400
N301	N30	0.832000	0.849300	0.027200
N311	N31	0.911300	0.831400	0.036900
N321	N32	0.233800	0.853800	0.021600
O171	O17	0.309800	0.070600	0.464200
O181	O18	0.330700	0.208800	0.454900
O191	O19	0.374200	0.883600	0.113000
O201	O20	0.374800	0.001400	0.074900
O211	O21	0.407200	0.438700	0.536400
O221	O22	0.387400	0.299800	0.546900
O231	O23	0.327100	0.510700	0.925200
O241	O24	0.345400	0.631900	0.886100
O251	O25	0.309800	0.570600	0.035800
O261	O26	0.330700	0.708800	0.045100
O271	O27	0.374200	0.383600	0.387000
O281	O28	0.374800	0.501400	0.425100
O291	O29	0.407200	0.938700	0.963600
O301	O30	0.387400	0.799800	0.953100
O311	O31	0.327100	0.010700	0.574800
O321	O32	0.345400	0.131900	0.613900
