data_OPUDOT_freeONLY_PM
_symmetry_space_group_name_H-M	'P1'
_cell_length_a	10.230000
_cell_length_b	11.059000
_cell_length_c	13.818000
_cell_angle_alpha	69.010000
_cell_angle_beta	78.310000
_cell_angle_gamma	72.150000
_symmetry_Int_Tables_number 1

loop_
_symmetry_equiv_pos_as_xyz
'x,y,z'

loop_
_atom_site_label
_atom_site_type_symbol
_atom_site_fract_x
_atom_site_fract_y
_atom_site_fract_z
Zn11	Zn1	0.921460	0.149060	0.085230
Zn21	Zn2	0.077500	0.352390	0.914300
Zn31	Zn3	0.382530	0.014460	0.172980
Zn41	Zn4	0.379690	0.514970	0.174480
Zn51	Zn5	0.021360	0.724160	0.490370
P11	P1	0.222990	0.031040	0.981650
P21	P2	0.222960	0.530980	0.981460
P31	P3	0.156490	0.978810	0.381310
P41	P4	0.156540	0.485710	0.383950
O11	O1	0.100600	0.151900	0.986200
O21	O2	0.821200	0.094500	0.002100
O31	O3	0.331400	0.004600	0.049800
O41	O4	0.584100	0.027000	0.170700
O51	O5	0.510500	0.814600	0.197500
O61	O6	0.279000	0.309500	0.825300
O71	O7	0.179400	0.405800	0.997000
O81	O8	0.899800	0.349100	0.014400
O91	O9	0.330000	0.505600	0.050800
O101	O10	0.582100	0.528500	0.169100
O111	O11	0.719300	0.191600	0.173900
O121	O12	0.507800	0.316900	0.197200
O131	O13	0.279700	0.944500	0.307000
O141	O14	0.167600	0.089400	0.421100
O151	O15	0.133800	0.858400	0.471500
O161	O16	0.014800	0.160100	0.220000
O171	O17	0.966000	0.963100	0.188400
O181	O18	0.939300	0.843300	0.353800
O191	O19	0.280900	0.450100	0.309900
O201	O20	0.166600	0.595700	0.422200
O211	O21	0.867300	0.635800	0.525500
O221	O22	0.018200	0.660300	0.217700
O231	O23	0.030600	0.539500	0.810200
O241	O24	0.056200	0.656700	0.646500
O251	O25	0.316500	0.211200	0.154200
O261	O26	0.317000	0.713700	0.153700
C11	C1	0.305200	0.080300	0.847400
H11	H1	0.236200	0.102900	0.799500
C21	C2	0.638500	0.799000	0.176600
C31	C3	0.307500	0.577800	0.848600
H21	H2	0.239400	0.600300	0.800100
C41	C4	0.635800	0.301000	0.175800
C51	C5	0.000200	0.051300	0.314300
H31	H3	0.923200	0.084400	0.361200
C61	C6	0.965900	0.946000	0.283700
C71	C7	0.001600	0.552400	0.312900
H41	H4	0.922700	0.586900	0.357800
C81	C8	0.030400	0.554600	0.715900
Zn61	Zn6	0.016600	0.231500	0.493600
Zn71	Zn7	0.078540	0.850940	0.914770
Zn81	Zn8	0.922500	0.647610	0.085700
Zn91	Zn9	0.617470	0.985540	0.827020
Zn101	Zn10	0.620310	0.485030	0.825520
Zn111	Zn11	0.978640	0.275840	0.509630
P51	P5	0.777010	0.968960	0.018350
P61	P6	0.777040	0.469020	0.018540
P71	P7	0.843510	0.021190	0.618690
P81	P8	0.843460	0.514290	0.616050
O271	O27	0.899400	0.848100	0.013800
O281	O28	0.178800	0.905500	0.997900
O291	O29	0.668600	0.995400	0.950200
O301	O30	0.415900	0.973000	0.829300
O311	O31	0.489500	0.185400	0.802500
O321	O32	0.721000	0.690500	0.174700
O331	O33	0.820600	0.594200	0.003000
O341	O34	0.100200	0.650900	0.985600
O351	O35	0.670000	0.494400	0.949200
O361	O36	0.417900	0.471500	0.830900
O371	O37	0.280700	0.808400	0.826100
O381	O38	0.492200	0.683100	0.802800
O391	O39	0.720300	0.055500	0.693000
O401	O40	0.832400	0.910600	0.578900
O411	O41	0.866200	0.141600	0.528500
O421	O42	0.985200	0.839900	0.780000
O431	O43	0.034000	0.036900	0.811600
O441	O44	0.060700	0.156700	0.646200
O451	O45	0.719100	0.549900	0.690100
O461	O46	0.833400	0.404300	0.577800
O471	O47	0.132700	0.364200	0.474500
O481	O48	0.981800	0.339700	0.782300
O491	O49	0.969400	0.460500	0.189800
O501	O50	0.943800	0.343300	0.353500
O511	O51	0.683500	0.788800	0.845800
O521	O52	0.683000	0.286300	0.846300
C91	C9	0.694800	0.919700	0.152600
H51	H5	0.763800	0.897100	0.200500
C101	C10	0.361500	0.201000	0.823400
C111	C11	0.692500	0.422200	0.151400
H61	H6	0.760600	0.399700	0.199900
C121	C12	0.364200	0.699000	0.824200
C131	C13	0.999800	0.948700	0.685700
H71	H7	0.076800	0.915600	0.638800
C141	C14	0.034100	0.054000	0.716300
C151	C15	0.998400	0.447600	0.687100
H81	H8	0.077300	0.413100	0.642200
C161	C16	0.969600	0.445400	0.284100
Zn121	Zn12	0.983400	0.768500	0.506400
