data_OQANIE_freeONLY_PM
_symmetry_space_group_name_H-M	'P1'
_cell_length_a	11.928000
_cell_length_b	18.253000
_cell_length_c	18.660000
_cell_angle_alpha	90.000000
_cell_angle_beta	90.000000
_cell_angle_gamma	90.000000
_symmetry_Int_Tables_number 1

loop_
_symmetry_equiv_pos_as_xyz
'x,y,z'

loop_
_atom_site_label
_atom_site_type_symbol
_atom_site_fract_x
_atom_site_fract_y
_atom_site_fract_z
Cu11	Cu1	0.087290	0.280420	0.271430
Cu21	Cu2	0.928870	0.208520	0.202400
Cu31	Cu3	0.087290	0.719580	0.728570
Cu41	Cu4	0.928870	0.791480	0.797600
Cu51	Cu5	0.912710	0.219580	0.771430
Cu61	Cu6	0.071130	0.291480	0.702400
Cu71	Cu7	0.912710	0.780420	0.228570
Cu81	Cu8	0.071130	0.708520	0.297600
H11	H1	0.953200	0.496600	0.251800
H21	H2	0.673200	0.383500	0.195800
H31	H3	0.660100	0.601900	0.211700
H41	H4	0.485800	0.569600	0.252700
H51	H5	0.479500	0.584300	0.167900
H61	H6	0.331400	0.495400	0.160600
H71	H7	0.296900	0.565800	0.206900
H81	H8	0.169900	0.514700	0.274700
H91	H9	0.178400	0.440000	0.230000
H101	H10	0.103200	0.429600	0.351900
H111	H11	0.228700	0.443100	0.379100
H121	H12	0.030600	0.256100	0.990500
H131	H13	0.299200	0.342300	0.094000
H141	H14	0.289400	0.342700	0.876100
H151	H15	0.452100	0.431500	0.064300
H161	H16	0.482700	0.346000	0.067300
H171	H17	0.642500	0.418700	0.056500
H181	H18	0.595600	0.451500	0.983300
H191	H19	0.797000	0.326800	0.934300
H201	H20	0.796700	0.335500	0.018100
H211	H21	0.785900	0.220600	0.035800
H221	H22	0.861900	0.226900	0.963800
H231	H23	0.269400	0.343200	0.309600
H241	H24	0.717100	0.218400	0.902700
H251	H25	0.819500	0.143700	0.102300
H261	H26	0.741300	0.164000	0.152400
H271	H27	0.953200	0.503400	0.748200
H281	H28	0.673200	0.616500	0.804200
H291	H29	0.660100	0.398100	0.788300
H301	H30	0.485800	0.430400	0.747300
H311	H31	0.479500	0.415700	0.832100
H321	H32	0.331400	0.504600	0.839400
H331	H33	0.296900	0.434200	0.793100
H341	H34	0.169900	0.485300	0.725300
H351	H35	0.178400	0.560000	0.770000
H361	H36	0.103200	0.570400	0.648100
H371	H37	0.228700	0.556900	0.620900
H381	H38	0.030600	0.743900	0.009500
H391	H39	0.299200	0.657700	0.906000
H401	H40	0.289400	0.657300	0.123900
H411	H41	0.452100	0.568500	0.935700
H421	H42	0.482700	0.654000	0.932700
H431	H43	0.642500	0.581300	0.943500
H441	H44	0.595600	0.548500	0.016700
H451	H45	0.797000	0.673200	0.065700
H461	H46	0.796700	0.664500	0.981900
H471	H47	0.785900	0.779400	0.964200
H481	H48	0.861900	0.773100	0.036200
H491	H49	0.269400	0.656800	0.690400
H501	H50	0.717100	0.781600	0.097300
H511	H51	0.819500	0.856300	0.897700
H521	H52	0.741300	0.836000	0.847600
H531	H53	0.046800	0.003400	0.751800
H541	H54	0.326800	0.116500	0.695800
H551	H55	0.339900	0.898100	0.711700
H561	H56	0.514200	0.930400	0.752700
H571	H57	0.520500	0.915700	0.667900
H581	H58	0.668600	0.004600	0.660600
H591	H59	0.703100	0.934200	0.706900
H601	H60	0.830100	0.985300	0.774700
H611	H61	0.821600	0.060000	0.730000
H621	H62	0.896800	0.070400	0.851900
H631	H63	0.771300	0.056900	0.879100
H641	H64	0.969400	0.243900	0.490500
H651	H65	0.700800	0.157700	0.594000
H661	H66	0.710600	0.157300	0.376100
H671	H67	0.547900	0.068500	0.564300
H681	H68	0.517300	0.154000	0.567300
H691	H69	0.357500	0.081300	0.556500
H701	H70	0.404400	0.048500	0.483300
H711	H71	0.203000	0.173200	0.434300
H721	H72	0.203300	0.164500	0.518100
H731	H73	0.214100	0.279400	0.535800
H741	H74	0.138100	0.273100	0.463800
H751	H75	0.730600	0.156800	0.809600
H761	H76	0.282900	0.281600	0.402700
H771	H77	0.180500	0.356300	0.602300
H781	H78	0.258700	0.336000	0.652400
H791	H79	0.046800	0.996600	0.248200
H801	H80	0.326800	0.883500	0.304200
H811	H81	0.339900	0.101900	0.288300
H821	H82	0.514200	0.069600	0.247300
H831	H83	0.520500	0.084300	0.332100
H841	H84	0.668600	0.995400	0.339400
H851	H85	0.703100	0.065800	0.293100
H861	H86	0.830100	0.014700	0.225300
H871	H87	0.821600	0.940000	0.270000
H881	H88	0.896800	0.929600	0.148100
H891	H89	0.771300	0.943100	0.120900
H901	H90	0.969400	0.756100	0.509500
H911	H91	0.700800	0.842300	0.406000
H921	H92	0.710600	0.842700	0.623900
H931	H93	0.547900	0.931500	0.435700
H941	H94	0.517300	0.846000	0.432700
H951	H95	0.357500	0.918700	0.443500
H961	H96	0.404400	0.951500	0.516700
H971	H97	0.203000	0.826800	0.565700
H981	H98	0.203300	0.835500	0.481900
H991	H99	0.214100	0.720600	0.464200
H1001	H100	0.138100	0.726900	0.536200
H1011	H101	0.730600	0.843200	0.190400
H1021	H102	0.282900	0.718400	0.597300
H1031	H103	0.180500	0.643700	0.397700
H1041	H104	0.258700	0.664000	0.347600
C11	C1	0.817000	0.558300	0.234100
C21	C2	0.876400	0.494900	0.238600
C31	C3	0.826000	0.426700	0.224000
C41	C4	0.710200	0.428100	0.206900
C51	C5	0.649200	0.493100	0.205800
C61	C6	0.700600	0.557300	0.216200
C71	C7	0.875300	0.629800	0.243600
C81	C8	0.888300	0.357500	0.224300
C91	C9	0.466900	0.547300	0.205900
C101	C10	0.346900	0.522500	0.205400
C111	C11	0.207800	0.466600	0.272200
C121	C12	0.183200	0.423500	0.339200
C131	C13	0.151600	0.298300	0.920900
C141	C14	0.101300	0.279900	0.988300
C151	C15	0.158900	0.297600	0.050000
C161	C16	0.261700	0.332000	0.050200
C171	C17	0.309200	0.351300	0.985300
C181	C18	0.254300	0.332000	0.920600
C191	C19	0.091500	0.283100	0.855600
C201	C20	0.106600	0.274700	0.120700
C211	C21	0.482600	0.390000	0.036300
C221	C22	0.598000	0.406800	0.013000
C231	C23	0.757000	0.311300	0.978000
C241	C24	0.788000	0.237800	0.986000
C251	C25	0.817000	0.441700	0.765900
C261	C26	0.876400	0.505100	0.761400
C271	C27	0.826000	0.573300	0.776000
C281	C28	0.710200	0.571900	0.793100
C291	C29	0.649200	0.506900	0.794200
C301	C30	0.700600	0.442700	0.783800
C311	C31	0.875300	0.370200	0.756400
C321	C32	0.888300	0.642500	0.775700
C331	C33	0.466900	0.452700	0.794100
C341	C34	0.346900	0.477500	0.794600
C351	C35	0.207800	0.533400	0.727800
C361	C36	0.183200	0.576500	0.660800
C371	C37	0.151600	0.701700	0.079100
C381	C38	0.101300	0.720100	0.011700
C391	C39	0.158900	0.702400	0.950000
C401	C40	0.261700	0.668000	0.949800
C411	C41	0.309200	0.648700	0.014700
C421	C42	0.254300	0.668000	0.079400
C431	C43	0.091500	0.716900	0.144400
C441	C44	0.106600	0.725300	0.879300
C451	C45	0.482600	0.610000	0.963700
C461	C46	0.598000	0.593200	0.987000
C471	C47	0.757000	0.688700	0.022000
C481	C48	0.788000	0.762200	0.014000
C491	C49	0.183000	0.941700	0.734100
C501	C50	0.123600	0.005100	0.738600
C511	C51	0.174000	0.073300	0.724000
C521	C52	0.289800	0.071900	0.706900
C531	C53	0.350800	0.006900	0.705800
C541	C54	0.299400	0.942700	0.716200
C551	C55	0.124700	0.870200	0.743600
C561	C56	0.111700	0.142500	0.724300
C571	C57	0.533100	0.952700	0.705900
C581	C58	0.653100	0.977500	0.705400
C591	C59	0.792200	0.033400	0.772200
C601	C60	0.816800	0.076500	0.839200
C611	C61	0.848400	0.201700	0.420900
C621	C62	0.898700	0.220100	0.488300
C631	C63	0.841100	0.202400	0.550000
C641	C64	0.738300	0.168000	0.550200
C651	C65	0.690800	0.148700	0.485300
C661	C66	0.745700	0.168000	0.420600
C671	C67	0.908500	0.216900	0.355600
C681	C68	0.893400	0.225300	0.620700
C691	C69	0.517400	0.110000	0.536300
C701	C70	0.402000	0.093200	0.513000
C711	C71	0.243000	0.188700	0.478000
C721	C72	0.212000	0.262200	0.486000
C731	C73	0.183000	0.058300	0.265900
C741	C74	0.123600	0.994900	0.261400
C751	C75	0.174000	0.926700	0.276000
C761	C76	0.289800	0.928100	0.293100
C771	C77	0.350800	0.993100	0.294200
C781	C78	0.299400	0.057300	0.283800
C791	C79	0.124700	0.129800	0.256400
C801	C80	0.111700	0.857500	0.275700
C811	C81	0.533100	0.047300	0.294100
C821	C82	0.653100	0.022500	0.294600
C831	C83	0.792200	0.966600	0.227800
C841	C84	0.816800	0.923500	0.160800
C851	C85	0.848400	0.798300	0.579100
C861	C86	0.898700	0.779900	0.511700
C871	C87	0.841100	0.797600	0.450000
C881	C88	0.738300	0.832000	0.449800
C891	C89	0.690800	0.851300	0.514700
C901	C90	0.745700	0.832000	0.579400
C911	C91	0.908500	0.783100	0.644400
C921	C92	0.893400	0.774700	0.379300
C931	C93	0.517400	0.890000	0.463700
C941	C94	0.402000	0.906800	0.487000
C951	C95	0.243000	0.811300	0.522000
C961	C96	0.212000	0.737800	0.514000
O11	O1	0.846800	0.302400	0.197400
O21	O2	0.985900	0.363000	0.255900
O31	O3	0.967100	0.626600	0.279600
O41	O4	0.830900	0.687700	0.222900
O51	O5	0.534800	0.484600	0.193500
O61	O6	0.324200	0.477000	0.264600
O71	O7	0.207100	0.347000	0.330400
O81	O8	0.140500	0.305400	0.796900
O91	O9	0.002100	0.248900	0.855000
O101	O10	0.017000	0.239000	0.118400
O111	O11	0.153600	0.299500	0.177600
O121	O12	0.417000	0.377800	0.977500
O131	O13	0.656200	0.350800	0.974000
O141	O14	0.702200	0.213000	0.946500
O151	O15	0.804500	0.144700	0.146300
O161	O16	0.846800	0.697600	0.802600
O171	O17	0.985900	0.637000	0.744100
O181	O18	0.967100	0.373400	0.720400
O191	O19	0.830900	0.312300	0.777100
O201	O20	0.534800	0.515400	0.806500
O211	O21	0.324200	0.523000	0.735400
O221	O22	0.207100	0.653000	0.669600
O231	O23	0.140500	0.694600	0.203100
O241	O24	0.002100	0.751100	0.145000
O251	O25	0.017000	0.761000	0.881600
O261	O26	0.153600	0.700500	0.822400
O271	O27	0.417000	0.622200	0.022500
O281	O28	0.656200	0.649200	0.026000
O291	O29	0.702200	0.787000	0.053500
O301	O30	0.804500	0.855300	0.853700
O311	O31	0.153200	0.197600	0.697400
O321	O32	0.014100	0.137000	0.755900
O331	O33	0.032900	0.873400	0.779600
O341	O34	0.169100	0.812300	0.722900
O351	O35	0.465200	0.015400	0.693500
O361	O36	0.675800	0.023000	0.764600
O371	O37	0.792900	0.153000	0.830400
O381	O38	0.859500	0.194600	0.296900
O391	O39	0.997900	0.251100	0.355000
O401	O40	0.983000	0.261000	0.618400
O411	O41	0.846400	0.200500	0.677600
O421	O42	0.583000	0.122200	0.477500
O431	O43	0.343800	0.149200	0.474000
O441	O44	0.297800	0.287000	0.446500
O451	O45	0.195500	0.355300	0.646300
O461	O46	0.153200	0.802400	0.302600
O471	O47	0.014100	0.863000	0.244100
O481	O48	0.032900	0.126600	0.220400
O491	O49	0.169100	0.187700	0.277100
O501	O50	0.465200	0.984600	0.306500
O511	O51	0.675800	0.977000	0.235400
O521	O52	0.792900	0.847000	0.169600
O531	O53	0.859500	0.805400	0.703100
O541	O54	0.997900	0.748900	0.645000
O551	O55	0.983000	0.739000	0.381600
O561	O56	0.846400	0.799500	0.322400
O571	O57	0.583000	0.877800	0.522500
O581	O58	0.343800	0.850800	0.526000
O591	O59	0.297800	0.713000	0.553500
O601	O60	0.195500	0.644700	0.353700
