data_OQEPUW_freeONLY_PM
_symmetry_space_group_name_H-M	'P1'
_cell_length_a	7.711340
_cell_length_b	23.189600
_cell_length_c	23.189600
_cell_angle_alpha	61.212000
_cell_angle_beta	83.636000
_cell_angle_gamma	96.364000
_symmetry_Int_Tables_number 1

loop_
_symmetry_equiv_pos_as_xyz
'x,y,z'

loop_
_atom_site_label
_atom_site_type_symbol
_atom_site_fract_x
_atom_site_fract_y
_atom_site_fract_z
Cd11	Cd1	0.253860	0.475770	0.562940
Cd21	Cd2	0.816920	0.522120	0.599150
Cd31	Cd3	0.816800	0.562940	0.961290
Cd41	Cd4	0.416070	0.599150	0.878730
Cd51	Cd5	0.778090	0.961290	0.475770
Cd61	Cd6	0.294800	0.878730	0.522120
Cd71	Cd7	0.746140	0.524230	0.437060
Cd81	Cd8	0.183080	0.477880	0.400850
Cd91	Cd9	0.183200	0.437060	0.038710
Cd101	Cd10	0.583930	0.400850	0.121270
Cd111	Cd11	0.221910	0.038710	0.524230
Cd121	Cd12	0.705200	0.121270	0.477880
H11	H1	0.840900	0.639200	0.593200
H21	H2	0.666700	0.622300	0.588600
H31	H3	0.029900	0.299300	0.609700
H41	H4	0.603400	0.207300	0.758000
H51	H5	0.463800	0.295700	0.701800
H61	H6	0.886400	0.170500	0.623700
H71	H7	0.473800	0.167700	0.640400
H81	H8	0.285500	0.180600	0.715700
H91	H9	0.434100	0.593200	0.767600
H101	H10	0.255300	0.588600	0.789100
H111	H11	0.639600	0.609700	0.091000
H121	H12	0.361400	0.758000	0.034700
H131	H13	0.165600	0.701800	0.002500
H141	H14	0.510100	0.623700	0.205800
H151	H15	0.114200	0.640400	0.191900
H161	H16	0.001200	0.715700	0.103700
H171	H17	0.201700	0.767600	0.639200
H181	H18	0.044400	0.789100	0.622300
H191	H19	0.730600	0.091000	0.299300
H201	H20	0.396100	0.034700	0.207300
H211	H21	0.168100	0.002500	0.295700
H221	H22	0.715900	0.205800	0.170500
H231	H23	0.306100	0.191900	0.167700
H241	H24	0.104900	0.103700	0.180600
H251	H25	0.159100	0.360800	0.406800
H261	H26	0.333300	0.377700	0.411400
H271	H27	0.970100	0.700700	0.390300
H281	H28	0.396600	0.792700	0.242000
H291	H29	0.536200	0.704300	0.298200
H301	H30	0.113600	0.829500	0.376300
H311	H31	0.526200	0.832300	0.359600
H321	H32	0.714500	0.819400	0.284300
H331	H33	0.565900	0.406800	0.232400
H341	H34	0.744700	0.411400	0.210900
H351	H35	0.360400	0.390300	0.909000
H361	H36	0.638600	0.242000	0.965300
H371	H37	0.834400	0.298200	0.997500
H381	H38	0.489900	0.376300	0.794200
H391	H39	0.885800	0.359600	0.808100
H401	H40	0.998800	0.284300	0.896300
H411	H41	0.798300	0.232400	0.360800
H421	H42	0.955600	0.210900	0.377700
H431	H43	0.269400	0.909000	0.700700
H441	H44	0.603900	0.965300	0.792700
H451	H45	0.831900	0.997500	0.704300
H461	H46	0.284100	0.794200	0.829500
H471	H47	0.693900	0.808100	0.832300
H481	H48	0.895100	0.896300	0.819400
C11	C1	0.555540	0.404850	0.586430
C21	C2	0.656580	0.349210	0.620070
C31	C3	0.827990	0.350120	0.592750
C41	C4	0.914070	0.297620	0.627610
C51	C5	0.828650	0.242260	0.689310
C61	C6	0.660650	0.242920	0.716370
C71	C7	0.576360	0.295940	0.682360
C81	C8	0.917890	0.403190	0.523720
C91	C9	0.927480	0.184680	0.726740
C101	C10	0.063780	0.176510	0.678670
C111	C11	0.004110	0.168290	0.628360
C121	C12	0.114260	0.156950	0.584470
C131	C13	0.292960	0.157360	0.588180
C141	C14	0.354340	0.166980	0.637460
C151	C15	0.241220	0.175500	0.682340
C161	C16	0.033150	0.146350	0.533100
C171	C17	0.428420	0.148280	0.542320
C181	C18	0.794650	0.116450	0.768400
C191	C19	0.013500	0.199440	0.776240
C201	C20	0.141970	0.586430	0.008720
C211	C21	0.276650	0.620070	0.030720
C221	C22	0.420740	0.592750	0.057130
C231	C23	0.541680	0.627610	0.074770
C241	C24	0.517960	0.689310	0.068430
C251	C25	0.377020	0.716370	0.040710
C261	C26	0.258720	0.682360	0.021700
C271	C27	0.441610	0.523720	0.073090
C281	C28	0.654220	0.726740	0.088580
C291	C29	0.742450	0.678670	0.144820
C301	C30	0.632470	0.628360	0.203350
C311	C31	0.698730	0.584470	0.258580
C321	C32	0.881140	0.588180	0.254460
C331	C33	0.991800	0.637460	0.195560
C341	C34	0.923560	0.682340	0.142160
C351	C35	0.566250	0.533100	0.320550
C361	C36	0.970740	0.542320	0.309400
C371	C37	0.563050	0.768400	0.115150
C381	C38	0.789740	0.776240	0.024320
C391	C39	0.150690	0.008720	0.404850
C401	C40	0.307370	0.030720	0.349210
C411	C41	0.477870	0.057130	0.350120
C421	C42	0.616450	0.074770	0.297620
C431	C43	0.586390	0.068430	0.242260
C441	C44	0.417730	0.040710	0.242920
C451	C45	0.280420	0.021700	0.295940
C461	C46	0.514700	0.073090	0.403190
C471	C47	0.742800	0.088580	0.184680
C481	C48	0.887270	0.144820	0.176510
C491	C49	0.835820	0.203350	0.168290
C501	C50	0.957310	0.258580	0.156950
C511	C51	0.135600	0.254460	0.157360
C521	C52	0.187360	0.195560	0.166980
C531	C53	0.065720	0.142160	0.175500
C541	C54	0.886800	0.320550	0.146350
C551	C55	0.280140	0.309400	0.148280
C561	C56	0.678200	0.115150	0.116450
C571	C57	0.814060	0.024320	0.199440
C581	C58	0.444460	0.595150	0.413570
C591	C59	0.343420	0.650790	0.379930
C601	C60	0.172010	0.649880	0.407250
C611	C61	0.085930	0.702380	0.372390
C621	C62	0.171350	0.757740	0.310690
C631	C63	0.339350	0.757080	0.283630
C641	C64	0.423640	0.704060	0.317640
C651	C65	0.082110	0.596810	0.476280
C661	C66	0.072520	0.815320	0.273260
C671	C67	0.936220	0.823490	0.321330
C681	C68	0.995890	0.831710	0.371640
C691	C69	0.885740	0.843050	0.415530
C701	C70	0.707040	0.842640	0.411820
C711	C71	0.645660	0.833020	0.362540
C721	C72	0.758780	0.824500	0.317660
C731	C73	0.966850	0.853650	0.466900
C741	C74	0.571580	0.851720	0.457680
C751	C75	0.205350	0.883550	0.231600
C761	C76	0.986500	0.800560	0.223760
C771	C77	0.858030	0.413570	0.991280
C781	C78	0.723350	0.379930	0.969280
C791	C79	0.579260	0.407250	0.942870
C801	C80	0.458320	0.372390	0.925230
C811	C81	0.482040	0.310690	0.931570
C821	C82	0.622980	0.283630	0.959290
C831	C83	0.741280	0.317640	0.978300
C841	C84	0.558390	0.476280	0.926910
C851	C85	0.345780	0.273260	0.911420
C861	C86	0.257550	0.321330	0.855180
C871	C87	0.367530	0.371640	0.796650
C881	C88	0.301270	0.415530	0.741420
C891	C89	0.118860	0.411820	0.745540
C901	C90	0.008200	0.362540	0.804440
C911	C91	0.076440	0.317660	0.857840
C921	C92	0.433750	0.466900	0.679450
C931	C93	0.029260	0.457680	0.690600
C941	C94	0.436950	0.231600	0.884850
C951	C95	0.210260	0.223760	0.975680
C961	C96	0.849310	0.991280	0.595150
C971	C97	0.692630	0.969280	0.650790
C981	C98	0.522130	0.942870	0.649880
C991	C99	0.383550	0.925230	0.702380
C1001	C100	0.413610	0.931570	0.757740
C1011	C101	0.582270	0.959290	0.757080
C1021	C102	0.719580	0.978300	0.704060
C1031	C103	0.485300	0.926910	0.596810
C1041	C104	0.257200	0.911420	0.815320
C1051	C105	0.112730	0.855180	0.823490
C1061	C106	0.164180	0.796650	0.831710
C1071	C107	0.042690	0.741420	0.843050
C1081	C108	0.864400	0.745540	0.842640
C1091	C109	0.812640	0.804440	0.833020
C1101	C110	0.934280	0.857840	0.824500
C1111	C111	0.113200	0.679450	0.853650
C1121	C112	0.719860	0.690600	0.851720
C1131	C113	0.321800	0.884850	0.883550
C1141	C114	0.185940	0.975680	0.800560
O11	O1	0.641040	0.464900	0.550780
O21	O2	0.774970	0.624460	0.574350
O31	O3	0.390080	0.389200	0.597660
O41	O4	0.835590	0.418840	0.475770
O51	O5	0.079710	0.429350	0.514120
O61	O6	0.869770	0.147300	0.535790
O71	O7	0.128070	0.136560	0.492650
O81	O8	0.536060	0.196690	0.497610
O91	O9	0.437690	0.087980	0.555610
O101	O10	0.191820	0.550780	0.984320
O111	O11	0.349320	0.574350	0.801190
O121	O12	0.987740	0.597660	0.013140
O131	O13	0.311360	0.475770	0.105390
O141	O14	0.593830	0.514120	0.056530
O151	O15	0.405560	0.535790	0.316910
O161	O16	0.620720	0.492650	0.370790
O171	O17	0.033670	0.497610	0.305700
O181	O18	0.993300	0.555610	0.356410
O191	O19	0.176140	0.984320	0.464900
O201	O20	0.150510	0.801190	0.624460
O211	O21	0.000880	0.013140	0.389200
O221	O22	0.416750	0.105390	0.418840
O231	O23	0.650360	0.056530	0.429350
O241	O24	0.722470	0.316910	0.147300
O251	O25	0.991510	0.370790	0.136560
O261	O26	0.339370	0.305700	0.196690
O271	O27	0.349710	0.356410	0.087980
O281	O28	0.358960	0.535100	0.449220
O291	O29	0.225030	0.375540	0.425650
O301	O30	0.609920	0.610800	0.402340
O311	O31	0.164410	0.581160	0.524230
O321	O32	0.920290	0.570650	0.485880
O331	O33	0.130230	0.852700	0.464210
O341	O34	0.871930	0.863440	0.507350
O351	O35	0.463940	0.803310	0.502390
O361	O36	0.562310	0.912020	0.444390
O371	O37	0.808180	0.449220	0.015680
O381	O38	0.650680	0.425650	0.198810
O391	O39	0.012260	0.402340	0.986860
O401	O40	0.688640	0.524230	0.894610
O411	O41	0.406170	0.485880	0.943470
O421	O42	0.594440	0.464210	0.683090
O431	O43	0.379280	0.507350	0.629210
O441	O44	0.966330	0.502390	0.694300
O451	O45	0.006700	0.444390	0.643590
O461	O46	0.823860	0.015680	0.535100
O471	O47	0.849490	0.198810	0.375540
O481	O48	0.999120	0.986860	0.610800
O491	O49	0.583250	0.894610	0.581160
O501	O50	0.349640	0.943470	0.570650
O511	O51	0.277530	0.683090	0.852700
O521	O52	0.008490	0.629210	0.863440
O531	O53	0.660630	0.694300	0.803310
O541	O54	0.650290	0.643590	0.912020
F11	F1	0.877210	0.064970	0.787840
F21	F2	0.697660	0.109180	0.823800
F31	F3	0.678640	0.109840	0.732120
F41	F4	0.087520	0.149200	0.816540
F51	F5	0.898010	0.210670	0.815040
F61	F6	0.140340	0.254370	0.742850
F71	F7	0.665050	0.787840	0.147190
F81	F8	0.521460	0.823800	0.067020
F91	F9	0.410760	0.732120	0.158040
F101	F10	0.904060	0.816540	0.034260
F111	F11	0.713050	0.815040	0.974290
F121	F12	0.883190	0.742850	0.002780
F131	F13	0.812240	0.147190	0.064970
F141	F14	0.588480	0.067020	0.109180
F151	F15	0.568800	0.158040	0.109840
F161	F16	0.938320	0.034260	0.149200
F171	F17	0.687340	0.974290	0.210670
F181	F18	0.885970	0.002780	0.254370
F191	F19	0.122790	0.935030	0.212160
F201	F20	0.302340	0.890820	0.176200
F211	F21	0.321360	0.890160	0.267880
F221	F22	0.912480	0.850800	0.183460
F231	F23	0.101990	0.789330	0.184960
F241	F24	0.859660	0.745630	0.257150
F251	F25	0.334950	0.212160	0.852810
F261	F26	0.478540	0.176200	0.932980
F271	F27	0.589240	0.267880	0.841960
F281	F28	0.095940	0.183460	0.965740
F291	F29	0.286950	0.184960	0.025710
F301	F30	0.116810	0.257150	0.997220
F311	F31	0.187760	0.852810	0.935030
F321	F32	0.411520	0.932980	0.890820
F331	F33	0.431200	0.841960	0.890160
F341	F34	0.061680	0.965740	0.850800
F351	F35	0.312660	0.025710	0.789330
F361	F36	0.114030	0.997220	0.745630
