data_OQUCOU_freeONLY_PM
_symmetry_space_group_name_H-M	'P1'
_cell_length_a	25.643300
_cell_length_b	13.390400
_cell_length_c	15.120900
_cell_angle_alpha	90.000000
_cell_angle_beta	92.753000
_cell_angle_gamma	90.000000
_symmetry_Int_Tables_number 1

loop_
_symmetry_equiv_pos_as_xyz
'x,y,z'

loop_
_atom_site_label
_atom_site_type_symbol
_atom_site_fract_x
_atom_site_fract_y
_atom_site_fract_z
Cd11	Cd1	0.887720	0.920390	0.064000
Cd21	Cd2	0.761360	0.049730	0.997700
C11	C1	0.993700	0.059300	0.115500
H11	H1	0.016100	0.005300	0.125400
O11	O1	0.686300	0.001000	0.115700
N11	N1	0.962600	0.627500	0.103800
O21	O2	0.817300	0.018700	0.113100
O31	O3	0.595500	0.410400	0.093000
O41	O4	0.561900	0.986400	0.370300
C21	C2	0.683900	0.093100	0.122100
C31	C3	0.565200	0.077200	0.376400
C41	C4	0.826900	0.004300	0.193900
C51	C5	0.990900	0.780800	0.108700
H21	H2	0.012900	0.836000	0.113000
N21	N2	0.939100	0.784800	0.090900
N31	N3	0.963100	0.210900	0.106400
C61	C6	0.929600	0.366600	0.043400
H31	H3	0.909900	0.331100	0.000900
C71	C7	0.598300	0.239100	0.317800
H41	H4	0.580000	0.271800	0.361000
C81	C8	0.960100	0.522200	0.104900
N41	N4	0.941500	0.053100	0.089500
C91	C9	0.006400	0.685000	0.119300
H51	H5	0.040000	0.662500	0.134200
C101	C10	0.922000	0.692100	0.086600
H61	H6	0.887600	0.673400	0.073600
C111	C11	0.989300	0.473000	0.170100
H71	H7	0.008800	0.508800	0.212700
C121	C12	0.924200	0.145400	0.083700
H81	H8	0.890200	0.163400	0.066600
C131	C13	0.624600	0.087400	0.249800
H91	H9	0.623700	0.018100	0.246300
C141	C14	0.960100	0.316800	0.107200
O51	O5	0.769100	0.380200	0.060300
O61	O6	0.707600	0.148700	0.069300
C151	C15	0.989400	0.368600	0.171500
H101	H10	0.008900	0.334200	0.215000
C161	C16	0.929000	0.470500	0.043600
H111	H11	0.907700	0.505000	0.002600
C171	C17	0.635600	0.455400	0.117200
C181	C18	0.791900	0.428900	0.122400
O71	O7	0.951500	0.376900	0.428600
O81	O8	0.929000	0.520300	0.371200
C191	C19	0.654600	0.246000	0.195600
H121	H12	0.674500	0.282400	0.157100
C201	C20	0.653000	0.141400	0.190900
C211	C21	0.836100	0.223600	0.280700
C221	C22	0.821200	0.374700	0.195600
C231	C23	0.625800	0.294600	0.258800
O91	O9	0.623300	0.396500	0.269500
O101	O10	0.827400	0.128400	0.309600
C241	C24	0.653300	0.458900	0.213900
H131	H13	0.690000	0.439000	0.220100
C251	C25	0.884400	0.373600	0.317800
C261	C26	0.810300	0.273400	0.209800
H141	H14	0.786300	0.239700	0.172600
O111	O11	0.541700	0.127000	0.434300
C271	C27	0.874600	0.276400	0.334500
H151	H15	0.892700	0.243900	0.380700
O121	O12	0.818100	0.803800	0.054800
C281	C28	0.924200	0.427100	0.376700
C291	C29	0.856200	0.425200	0.248800
H161	H16	0.861700	0.493100	0.240100
O131	O13	0.862000	0.947900	0.220900
C301	C30	0.769900	0.991300	0.320800
H171	H17	0.747500	0.946500	0.287000
H181	H18	0.796600	0.953800	0.352700
H191	H19	0.749700	0.027700	0.361800
C311	C31	0.007100	0.155800	0.124100
H201	H20	0.040200	0.180500	0.139300
C321	C32	0.597200	0.136000	0.314200
O141	O14	0.802600	0.206200	0.977400
O151	O15	0.790200	0.523500	0.126000
C331	C33	0.794600	0.062600	0.259800
H211	H21	0.767300	0.101000	0.227300
C341	C34	0.647600	0.564900	0.249800
H221	H22	0.667000	0.610400	0.215000
H231	H23	0.611400	0.583500	0.246700
H241	H24	0.660800	0.567300	0.310300
O161	O16	0.663800	0.499100	0.064300
Cd31	Cd3	0.387720	0.420390	0.064000
Cd41	Cd4	0.261360	0.549730	0.997700
C351	C35	0.493700	0.559300	0.115500
H251	H25	0.516100	0.505300	0.125400
O171	O17	0.186300	0.501000	0.115700
N51	N5	0.462600	0.127500	0.103800
O181	O18	0.317300	0.518700	0.113100
O191	O19	0.095500	0.910400	0.093000
O201	O20	0.061900	0.486400	0.370300
C361	C36	0.183900	0.593100	0.122100
C371	C37	0.065200	0.577200	0.376400
C381	C38	0.326900	0.504300	0.193900
C391	C39	0.490900	0.280800	0.108700
H261	H26	0.512900	0.336000	0.113000
N61	N6	0.439100	0.284800	0.090900
N71	N7	0.463100	0.710900	0.106400
C401	C40	0.429600	0.866600	0.043400
H271	H27	0.409900	0.831100	0.000900
C411	C41	0.098300	0.739100	0.317800
H281	H28	0.080000	0.771800	0.361000
C421	C42	0.460100	0.022200	0.104900
N81	N8	0.441500	0.553100	0.089500
C431	C43	0.506400	0.185000	0.119300
H291	H29	0.540000	0.162500	0.134200
C441	C44	0.422000	0.192100	0.086600
H301	H30	0.387600	0.173400	0.073600
C451	C45	0.489300	0.973000	0.170100
H311	H31	0.508800	0.008800	0.212700
C461	C46	0.424200	0.645400	0.083700
H321	H32	0.390200	0.663400	0.066600
C471	C47	0.124600	0.587400	0.249800
H331	H33	0.123700	0.518100	0.246300
C481	C48	0.460100	0.816800	0.107200
O211	O21	0.269100	0.880200	0.060300
O221	O22	0.207600	0.648700	0.069300
C491	C49	0.489400	0.868600	0.171500
H341	H34	0.508900	0.834200	0.215000
C501	C50	0.429000	0.970500	0.043600
H351	H35	0.407700	0.005000	0.002600
C511	C51	0.135600	0.955400	0.117200
C521	C52	0.291900	0.928900	0.122400
O231	O23	0.451500	0.876900	0.428600
O241	O24	0.429000	0.020300	0.371200
C531	C53	0.154600	0.746000	0.195600
H361	H36	0.174500	0.782400	0.157100
C541	C54	0.153000	0.641400	0.190900
C551	C55	0.336100	0.723600	0.280700
C561	C56	0.321200	0.874700	0.195600
C571	C57	0.125800	0.794600	0.258800
O251	O25	0.123300	0.896500	0.269500
O261	O26	0.327400	0.628400	0.309600
C581	C58	0.153300	0.958900	0.213900
H371	H37	0.190000	0.939000	0.220100
C591	C59	0.384400	0.873600	0.317800
C601	C60	0.310300	0.773400	0.209800
H381	H38	0.286300	0.739700	0.172600
O271	O27	0.041700	0.627000	0.434300
C611	C61	0.374600	0.776400	0.334500
H391	H39	0.392700	0.743900	0.380700
O281	O28	0.318100	0.303800	0.054800
C621	C62	0.424200	0.927100	0.376700
C631	C63	0.356200	0.925200	0.248800
H401	H40	0.361700	0.993100	0.240100
O291	O29	0.362000	0.447900	0.220900
C641	C64	0.269900	0.491300	0.320800
H411	H41	0.247500	0.446500	0.287000
H421	H42	0.296600	0.453800	0.352700
H431	H43	0.249700	0.527700	0.361800
C651	C65	0.507100	0.655800	0.124100
H441	H44	0.540200	0.680500	0.139300
C661	C66	0.097200	0.636000	0.314200
O301	O30	0.302600	0.706200	0.977400
O311	O31	0.290200	0.023500	0.126000
C671	C67	0.294600	0.562600	0.259800
H451	H45	0.267300	0.601000	0.227300
C681	C68	0.147600	0.064900	0.249800
H461	H46	0.167000	0.110400	0.215000
H471	H47	0.111400	0.083500	0.246700
H481	H48	0.160800	0.067300	0.310300
O321	O32	0.163800	0.999100	0.064300
Cd51	Cd5	0.112280	0.920390	0.936000
Cd61	Cd6	0.238640	0.049730	0.002300
C691	C69	0.006300	0.059300	0.884500
H491	H49	0.983900	0.005300	0.874600
O331	O33	0.313700	0.001000	0.884300
N91	N9	0.037400	0.627500	0.896200
O341	O34	0.182700	0.018700	0.886900
O351	O35	0.404500	0.410400	0.907000
O361	O36	0.438100	0.986400	0.629700
C701	C70	0.316100	0.093100	0.877900
C711	C71	0.434800	0.077200	0.623600
C721	C72	0.173100	0.004300	0.806100
C731	C73	0.009100	0.780800	0.891300
H501	H50	0.987100	0.836000	0.887000
N101	N10	0.060900	0.784800	0.909100
N111	N11	0.036900	0.210900	0.893600
C741	C74	0.070400	0.366600	0.956600
H511	H51	0.090100	0.331100	0.999100
C751	C75	0.401700	0.239100	0.682200
H521	H52	0.420000	0.271800	0.639000
C761	C76	0.039900	0.522200	0.895100
N121	N12	0.058500	0.053100	0.910500
C771	C77	0.993600	0.685000	0.880700
H531	H53	0.960000	0.662500	0.865800
C781	C78	0.078000	0.692100	0.913400
H541	H54	0.112400	0.673400	0.926400
C791	C79	0.010700	0.473000	0.829900
H551	H55	0.991200	0.508800	0.787300
C801	C80	0.075800	0.145400	0.916300
H561	H56	0.109800	0.163400	0.933400
C811	C81	0.375400	0.087400	0.750200
H571	H57	0.376300	0.018100	0.753700
C821	C82	0.039900	0.316800	0.892800
O371	O37	0.230900	0.380200	0.939700
O381	O38	0.292400	0.148700	0.930700
C831	C83	0.010600	0.368600	0.828500
H581	H58	0.991100	0.334200	0.785000
C841	C84	0.071000	0.470500	0.956400
H591	H59	0.092300	0.505000	0.997400
C851	C85	0.364400	0.455400	0.882800
C861	C86	0.208100	0.428900	0.877600
O391	O39	0.048500	0.376900	0.571400
O401	O40	0.071000	0.520300	0.628800
C871	C87	0.345400	0.246000	0.804400
H601	H60	0.325500	0.282400	0.842900
C881	C88	0.347000	0.141400	0.809100
C891	C89	0.163900	0.223600	0.719300
C901	C90	0.178800	0.374700	0.804400
C911	C91	0.374200	0.294600	0.741200
O411	O41	0.376700	0.396500	0.730500
O421	O42	0.172600	0.128400	0.690400
C921	C92	0.346700	0.458900	0.786100
H611	H61	0.310000	0.439000	0.779900
C931	C93	0.115600	0.373600	0.682200
C941	C94	0.189700	0.273400	0.790200
H621	H62	0.213700	0.239700	0.827400
O431	O43	0.458300	0.127000	0.565700
C951	C95	0.125400	0.276400	0.665500
H631	H63	0.107300	0.243900	0.619300
O441	O44	0.181900	0.803800	0.945200
C961	C96	0.075800	0.427100	0.623300
C971	C97	0.143800	0.425200	0.751200
H641	H64	0.138300	0.493100	0.759900
O451	O45	0.138000	0.947900	0.779100
C981	C98	0.230100	0.991300	0.679200
H651	H65	0.252500	0.946500	0.713000
H661	H66	0.203400	0.953800	0.647300
H671	H67	0.250300	0.027700	0.638200
C991	C99	0.992900	0.155800	0.875900
H681	H68	0.959800	0.180500	0.860700
C1001	C100	0.402800	0.136000	0.685800
O461	O46	0.197400	0.206200	0.022600
O471	O47	0.209800	0.523500	0.874000
C1011	C101	0.205400	0.062600	0.740200
H691	H69	0.232700	0.101000	0.772700
C1021	C102	0.352400	0.564900	0.750200
H701	H70	0.333000	0.610400	0.785000
H711	H71	0.388600	0.583500	0.753300
H721	H72	0.339200	0.567300	0.689700
O481	O48	0.336200	0.499100	0.935700
Cd71	Cd7	0.612280	0.420390	0.936000
Cd81	Cd8	0.738640	0.549730	0.002300
C1031	C103	0.506300	0.559300	0.884500
H731	H73	0.483900	0.505300	0.874600
O491	O49	0.813700	0.501000	0.884300
N131	N13	0.537400	0.127500	0.896200
O501	O50	0.682700	0.518700	0.886900
O511	O51	0.904500	0.910400	0.907000
O521	O52	0.938100	0.486400	0.629700
C1041	C104	0.816100	0.593100	0.877900
C1051	C105	0.934800	0.577200	0.623600
C1061	C106	0.673100	0.504300	0.806100
C1071	C107	0.509100	0.280800	0.891300
H741	H74	0.487100	0.336000	0.887000
N141	N14	0.560900	0.284800	0.909100
N151	N15	0.536900	0.710900	0.893600
C1081	C108	0.570400	0.866600	0.956600
H751	H75	0.590100	0.831100	0.999100
C1091	C109	0.901700	0.739100	0.682200
H761	H76	0.920000	0.771800	0.639000
C1101	C110	0.539900	0.022200	0.895100
N161	N16	0.558500	0.553100	0.910500
C1111	C111	0.493600	0.185000	0.880700
H771	H77	0.460000	0.162500	0.865800
C1121	C112	0.578000	0.192100	0.913400
H781	H78	0.612400	0.173400	0.926400
C1131	C113	0.510700	0.973000	0.829900
H791	H79	0.491200	0.008800	0.787300
C1141	C114	0.575800	0.645400	0.916300
H801	H80	0.609800	0.663400	0.933400
C1151	C115	0.875400	0.587400	0.750200
H811	H81	0.876300	0.518100	0.753700
C1161	C116	0.539900	0.816800	0.892800
O531	O53	0.730900	0.880200	0.939700
O541	O54	0.792400	0.648700	0.930700
C1171	C117	0.510600	0.868600	0.828500
H821	H82	0.491100	0.834200	0.785000
C1181	C118	0.571000	0.970500	0.956400
H831	H83	0.592300	0.005000	0.997400
C1191	C119	0.864400	0.955400	0.882800
C1201	C120	0.708100	0.928900	0.877600
O551	O55	0.548500	0.876900	0.571400
O561	O56	0.571000	0.020300	0.628800
C1211	C121	0.845400	0.746000	0.804400
H841	H84	0.825500	0.782400	0.842900
C1221	C122	0.847000	0.641400	0.809100
C1231	C123	0.663900	0.723600	0.719300
C1241	C124	0.678800	0.874700	0.804400
C1251	C125	0.874200	0.794600	0.741200
O571	O57	0.876700	0.896500	0.730500
O581	O58	0.672600	0.628400	0.690400
C1261	C126	0.846700	0.958900	0.786100
H851	H85	0.810000	0.939000	0.779900
C1271	C127	0.615600	0.873600	0.682200
C1281	C128	0.689700	0.773400	0.790200
H861	H86	0.713700	0.739700	0.827400
O591	O59	0.958300	0.627000	0.565700
C1291	C129	0.625400	0.776400	0.665500
H871	H87	0.607300	0.743900	0.619300
O601	O60	0.681900	0.303800	0.945200
C1301	C130	0.575800	0.927100	0.623300
C1311	C131	0.643800	0.925200	0.751200
H881	H88	0.638300	0.993100	0.759900
O611	O61	0.638000	0.447900	0.779100
C1321	C132	0.730100	0.491300	0.679200
H891	H89	0.752500	0.446500	0.713000
H901	H90	0.703400	0.453800	0.647300
H911	H91	0.750300	0.527700	0.638200
C1331	C133	0.492900	0.655800	0.875900
H921	H92	0.459800	0.680500	0.860700
C1341	C134	0.902800	0.636000	0.685800
O621	O62	0.697400	0.706200	0.022600
O631	O63	0.709800	0.023500	0.874000
C1351	C135	0.705400	0.562600	0.740200
H931	H93	0.732700	0.601000	0.772700
C1361	C136	0.852400	0.064900	0.750200
H941	H94	0.833000	0.110400	0.785000
H951	H95	0.888600	0.083500	0.753300
H961	H96	0.839200	0.067300	0.689700
O641	O64	0.836200	0.999100	0.935700
Cd91	Cd9	0.500000	0.993420	0.500000
Cd101	Cd10	0.000000	0.493420	0.500000
