data_OQUXAB_freeONLY_PM
_symmetry_space_group_name_H-M	'P1'
_cell_length_a	26.863500
_cell_length_b	20.062700
_cell_length_c	13.110700
_cell_angle_alpha	90.000000
_cell_angle_beta	90.000000
_cell_angle_gamma	90.000000
_symmetry_Int_Tables_number 1

loop_
_symmetry_equiv_pos_as_xyz
'x,y,z'

loop_
_atom_site_label
_atom_site_type_symbol
_atom_site_fract_x
_atom_site_fract_y
_atom_site_fract_z
W11	W1	0.266750	0.166990	0.876310
W21	W2	0.267030	0.074660	0.120060
W31	W3	0.268190	0.157990	0.339970
W41	W4	0.369290	0.157590	0.191550
W51	W5	0.154420	0.166490	0.038390
Co11	Co1	0.258680	0.109720	0.613500
O11	O1	0.375300	0.184500	0.053600
O21	O2	0.201200	0.107400	0.103100
O31	O3	0.279100	0.108300	0.986300
O41	O4	0.336900	0.075900	0.145700
O51	O5	0.259200	0.991900	0.102500
O61	O6	0.260100	0.127200	0.460100
O71	O7	0.338600	0.144200	0.324300
O81	O8	0.259700	0.113900	0.774300
O91	O9	0.427500	0.128500	0.218400
O101	O10	0.337600	0.182900	0.864500
O111	O11	0.257500	0.076200	0.264200
O121	O12	0.203100	0.185700	0.306600
O131	O13	0.286000	0.180100	0.174100
O141	O14	0.201300	0.171600	0.931700
O151	O15	0.110700	0.113500	0.990200
O161	O16	0.127100	0.182000	0.173100
N11	N1	0.336300	0.082000	0.610600
N21	N2	0.680400	0.124000	0.884500
N31	N3	0.418200	0.070900	0.648400
N41	N4	0.599600	0.118800	0.845300
C11	C1	0.372700	0.098400	0.674000
H11	H1	0.368000	0.125600	0.731100
C21	C2	0.465700	0.082500	0.700000
C31	C3	0.471900	0.137800	0.749000
H21	H2	0.446700	0.169600	0.750700
C41	C4	0.408100	0.031300	0.564000
H31	H3	0.431200	0.006200	0.528000
C51	C5	0.359400	0.035700	0.544000
H41	H4	0.343000	0.011700	0.493800
C61	C6	0.502400	0.036500	0.694000
H51	H5	0.497000	0.996400	0.660100
C71	C7	0.645300	0.101600	0.817000
H61	H6	0.652600	0.077500	0.758100
C81	C8	0.653500	0.156200	0.962000
H71	H7	0.667500	0.175100	0.020200
C91	C9	0.547900	0.049300	0.739000
H81	H8	0.574200	0.019700	0.730500
C101	C10	0.554000	0.105400	0.795000
C111	C11	0.516300	0.149200	0.799000
H91	H9	0.520300	0.188100	0.836400
C121	C12	0.604700	0.155500	0.940300
H101	H10	0.579300	0.174700	0.978300
W61	W6	0.233250	0.833010	0.376310
W71	W7	0.232970	0.925340	0.620060
W81	W8	0.231810	0.842010	0.839970
W91	W9	0.130710	0.842410	0.691550
W101	W10	0.345580	0.833510	0.538390
Co21	Co2	0.241320	0.890280	0.113500
O171	O17	0.124700	0.815500	0.553600
O181	O18	0.298800	0.892600	0.603100
O191	O19	0.220900	0.891700	0.486300
O201	O20	0.163100	0.924100	0.645700
O211	O21	0.240800	0.008100	0.602500
O221	O22	0.239900	0.872800	0.960100
O231	O23	0.161400	0.855800	0.824300
O241	O24	0.240300	0.886100	0.274300
O251	O25	0.072500	0.871500	0.718400
O261	O26	0.162400	0.817100	0.364500
O271	O27	0.242500	0.923800	0.764200
O281	O28	0.296900	0.814300	0.806600
O291	O29	0.214000	0.819900	0.674100
O301	O30	0.298700	0.828400	0.431700
O311	O31	0.389300	0.886500	0.490200
O321	O32	0.372900	0.818000	0.673100
N51	N5	0.163700	0.918000	0.110600
N61	N6	0.819600	0.876000	0.384500
N71	N7	0.081800	0.929100	0.148400
N81	N8	0.900400	0.881200	0.345300
C131	C13	0.127300	0.901600	0.174000
H111	H11	0.132000	0.874400	0.231100
C141	C14	0.034300	0.917500	0.200000
C151	C15	0.028100	0.862200	0.249000
H121	H12	0.053300	0.830400	0.250700
C161	C16	0.091900	0.968700	0.064000
H131	H13	0.068800	0.993800	0.028000
C171	C17	0.140600	0.964300	0.044000
H141	H14	0.157000	0.988300	0.993800
C181	C18	0.997600	0.963500	0.194000
H151	H15	0.003000	0.003600	0.160100
C191	C19	0.854700	0.898400	0.317000
H161	H16	0.847400	0.922500	0.258100
C201	C20	0.846500	0.843800	0.462000
H171	H17	0.832500	0.824900	0.520200
C211	C21	0.952100	0.950700	0.239000
H181	H18	0.925800	0.980300	0.230500
C221	C22	0.946000	0.894600	0.295000
C231	C23	0.983700	0.850800	0.299000
H191	H19	0.979700	0.811900	0.336400
C241	C24	0.895300	0.844500	0.440300
H201	H20	0.920700	0.825300	0.478300
W111	W11	0.733250	0.666990	0.123690
W121	W12	0.732970	0.574660	0.879940
W131	W13	0.731810	0.657990	0.660030
W141	W14	0.630710	0.657590	0.808450
W151	W15	0.845580	0.666490	0.961610
Co31	Co3	0.741320	0.609720	0.386500
O331	O33	0.624700	0.684500	0.946400
O341	O34	0.798800	0.607400	0.896900
O351	O35	0.720900	0.608300	0.013700
O361	O36	0.663100	0.575900	0.854300
O371	O37	0.740800	0.491900	0.897500
O381	O38	0.739900	0.627200	0.539900
O391	O39	0.661400	0.644200	0.675700
O401	O40	0.740300	0.613900	0.225700
O411	O41	0.572500	0.628500	0.781600
O421	O42	0.662400	0.682900	0.135500
O431	O43	0.742500	0.576200	0.735800
O441	O44	0.796900	0.685700	0.693400
O451	O45	0.714000	0.680100	0.825900
O461	O46	0.798700	0.671600	0.068300
O471	O47	0.889300	0.613500	0.009800
O481	O48	0.872900	0.682000	0.826900
N91	N9	0.663700	0.582000	0.389400
N101	N10	0.319600	0.624000	0.115500
N111	N11	0.581800	0.570900	0.351600
N121	N12	0.400400	0.618800	0.154700
C251	C25	0.627300	0.598400	0.326000
H211	H21	0.632000	0.625600	0.268900
C261	C26	0.534300	0.582500	0.300000
C271	C27	0.528100	0.637800	0.251000
H221	H22	0.553300	0.669600	0.249300
C281	C28	0.591900	0.531300	0.436000
H231	H23	0.568800	0.506200	0.472000
C291	C29	0.640600	0.535700	0.456000
H241	H24	0.657000	0.511700	0.506200
C301	C30	0.497600	0.536500	0.306000
H251	H25	0.503000	0.496400	0.339900
C311	C31	0.354700	0.601600	0.183000
H261	H26	0.347400	0.577500	0.241900
C321	C32	0.346500	0.656200	0.038000
H271	H27	0.332500	0.675100	0.979800
C331	C33	0.452100	0.549300	0.261000
H281	H28	0.425800	0.519700	0.269500
C341	C34	0.446000	0.605400	0.205000
C351	C35	0.483700	0.649200	0.201000
H291	H29	0.479700	0.688100	0.163600
C361	C36	0.395300	0.655500	0.059700
H301	H30	0.420700	0.674700	0.021700
W161	W16	0.766750	0.333010	0.623690
W171	W17	0.767030	0.425340	0.379940
W181	W18	0.768190	0.342010	0.160030
W191	W19	0.869290	0.342410	0.308450
W201	W20	0.654420	0.333510	0.461610
Co41	Co4	0.758680	0.390280	0.886500
O491	O49	0.875300	0.315500	0.446400
O501	O50	0.701200	0.392600	0.396900
O511	O51	0.779100	0.391700	0.513700
O521	O52	0.836900	0.424100	0.354300
O531	O53	0.759200	0.508100	0.397500
O541	O54	0.760100	0.372800	0.039900
O551	O55	0.838600	0.355800	0.175700
O561	O56	0.759700	0.386100	0.725700
O571	O57	0.927500	0.371500	0.281600
O581	O58	0.837600	0.317100	0.635500
O591	O59	0.757500	0.423800	0.235800
O601	O60	0.703100	0.314300	0.193400
O611	O61	0.786000	0.319900	0.325900
O621	O62	0.701300	0.328400	0.568300
O631	O63	0.610700	0.386500	0.509800
O641	O64	0.627100	0.318000	0.326900
N131	N13	0.836300	0.418000	0.889400
N141	N14	0.180400	0.376000	0.615500
N151	N15	0.918200	0.429100	0.851600
N161	N16	0.099600	0.381200	0.654700
C371	C37	0.872700	0.401600	0.826000
H311	H31	0.868000	0.374400	0.768900
C381	C38	0.965700	0.417500	0.800000
C391	C39	0.971900	0.362200	0.751000
H321	H32	0.946700	0.330400	0.749300
C401	C40	0.908100	0.468700	0.936000
H331	H33	0.931200	0.493800	0.972000
C411	C41	0.859400	0.464300	0.956000
H341	H34	0.843000	0.488300	0.006200
C421	C42	0.002400	0.463500	0.806000
H351	H35	0.997000	0.503600	0.839900
C431	C43	0.145300	0.398400	0.683000
H361	H36	0.152600	0.422500	0.741900
C441	C44	0.153500	0.343800	0.538000
H371	H37	0.167500	0.324900	0.479800
C451	C45	0.047900	0.450700	0.761000
H381	H38	0.074200	0.480300	0.769500
C461	C46	0.054000	0.394600	0.705000
C471	C47	0.016300	0.350800	0.701000
H391	H39	0.020300	0.311900	0.663600
C481	C48	0.104700	0.344500	0.559700
H401	H40	0.079300	0.325300	0.521700
W211	W21	0.733250	0.833010	0.123690
W221	W22	0.732970	0.925340	0.879940
W231	W23	0.731810	0.842010	0.660030
W241	W24	0.630710	0.842410	0.808450
W251	W25	0.845580	0.833510	0.961610
Co51	Co5	0.741320	0.890280	0.386500
O651	O65	0.624700	0.815500	0.946400
O661	O66	0.798800	0.892600	0.896900
O671	O67	0.720900	0.891700	0.013700
O681	O68	0.663100	0.924100	0.854300
O691	O69	0.740800	0.008100	0.897500
O701	O70	0.739900	0.872800	0.539900
O711	O71	0.661400	0.855800	0.675700
O721	O72	0.740300	0.886100	0.225700
O731	O73	0.572500	0.871500	0.781600
O741	O74	0.662400	0.817100	0.135500
O751	O75	0.742500	0.923800	0.735800
O761	O76	0.796900	0.814300	0.693400
O771	O77	0.714000	0.819900	0.825900
O781	O78	0.798700	0.828400	0.068300
O791	O79	0.889300	0.886500	0.009800
O801	O80	0.872900	0.818000	0.826900
N171	N17	0.663700	0.918000	0.389400
N181	N18	0.319600	0.876000	0.115500
N191	N19	0.581800	0.929100	0.351600
N201	N20	0.400400	0.881200	0.154700
C491	C49	0.627300	0.901600	0.326000
H411	H41	0.632000	0.874400	0.268900
C501	C50	0.534300	0.917500	0.300000
C511	C51	0.528100	0.862200	0.251000
H421	H42	0.553300	0.830400	0.249300
C521	C52	0.591900	0.968700	0.436000
H431	H43	0.568800	0.993800	0.472000
C531	C53	0.640600	0.964300	0.456000
H441	H44	0.657000	0.988300	0.506200
C541	C54	0.497600	0.963500	0.306000
H451	H45	0.503000	0.003600	0.339900
C551	C55	0.354700	0.898400	0.183000
H461	H46	0.347400	0.922500	0.241900
C561	C56	0.346500	0.843800	0.038000
H471	H47	0.332500	0.824900	0.979800
C571	C57	0.452100	0.950700	0.261000
H481	H48	0.425800	0.980300	0.269500
C581	C58	0.446000	0.894600	0.205000
C591	C59	0.483700	0.850800	0.201000
H491	H49	0.479700	0.811900	0.163600
C601	C60	0.395300	0.844500	0.059700
H501	H50	0.420700	0.825300	0.021700
W261	W26	0.766750	0.166990	0.623690
W271	W27	0.767030	0.074660	0.379940
W281	W28	0.768190	0.157990	0.160030
W291	W29	0.869290	0.157590	0.308450
W301	W30	0.654420	0.166490	0.461610
Co61	Co6	0.758680	0.109720	0.886500
O811	O81	0.875300	0.184500	0.446400
O821	O82	0.701200	0.107400	0.396900
O831	O83	0.779100	0.108300	0.513700
O841	O84	0.836900	0.075900	0.354300
O851	O85	0.759200	0.991900	0.397500
O861	O86	0.760100	0.127200	0.039900
O871	O87	0.838600	0.144200	0.175700
O881	O88	0.759700	0.113900	0.725700
O891	O89	0.927500	0.128500	0.281600
O901	O90	0.837600	0.182900	0.635500
O911	O91	0.757500	0.076200	0.235800
O921	O92	0.703100	0.185700	0.193400
O931	O93	0.786000	0.180100	0.325900
O941	O94	0.701300	0.171600	0.568300
O951	O95	0.610700	0.113500	0.509800
O961	O96	0.627100	0.182000	0.326900
N211	N21	0.836300	0.082000	0.889400
N221	N22	0.180400	0.124000	0.615500
N231	N23	0.918200	0.070900	0.851600
N241	N24	0.099600	0.118800	0.654700
C611	C61	0.872700	0.098400	0.826000
H511	H51	0.868000	0.125600	0.768900
C621	C62	0.965700	0.082500	0.800000
C631	C63	0.971900	0.137800	0.751000
H521	H52	0.946700	0.169600	0.749300
C641	C64	0.908100	0.031300	0.936000
H531	H53	0.931200	0.006200	0.972000
C651	C65	0.859400	0.035700	0.956000
H541	H54	0.843000	0.011700	0.006200
C661	C66	0.002400	0.036500	0.806000
H551	H55	0.997000	0.996400	0.839900
C671	C67	0.145300	0.101600	0.683000
H561	H56	0.152600	0.077500	0.741900
C681	C68	0.153500	0.156200	0.538000
H571	H57	0.167500	0.175100	0.479800
C691	C69	0.047900	0.049300	0.761000
H581	H58	0.074200	0.019700	0.769500
C701	C70	0.054000	0.105400	0.705000
C711	C71	0.016300	0.149200	0.701000
H591	H59	0.020300	0.188100	0.663600
C721	C72	0.104700	0.155500	0.559700
H601	H60	0.079300	0.174700	0.521700
W311	W31	0.266750	0.333010	0.876310
W321	W32	0.267030	0.425340	0.120060
W331	W33	0.268190	0.342010	0.339970
W341	W34	0.369290	0.342410	0.191550
W351	W35	0.154420	0.333510	0.038390
Co71	Co7	0.258680	0.390280	0.613500
O971	O97	0.375300	0.315500	0.053600
O981	O98	0.201200	0.392600	0.103100
O991	O99	0.279100	0.391700	0.986300
O1001	O100	0.336900	0.424100	0.145700
O1011	O101	0.259200	0.508100	0.102500
O1021	O102	0.260100	0.372800	0.460100
O1031	O103	0.338600	0.355800	0.324300
O1041	O104	0.259700	0.386100	0.774300
O1051	O105	0.427500	0.371500	0.218400
O1061	O106	0.337600	0.317100	0.864500
O1071	O107	0.257500	0.423800	0.264200
O1081	O108	0.203100	0.314300	0.306600
O1091	O109	0.286000	0.319900	0.174100
O1101	O110	0.201300	0.328400	0.931700
O1111	O111	0.110700	0.386500	0.990200
O1121	O112	0.127100	0.318000	0.173100
N251	N25	0.336300	0.418000	0.610600
N261	N26	0.680400	0.376000	0.884500
N271	N27	0.418200	0.429100	0.648400
N281	N28	0.599600	0.381200	0.845300
C731	C73	0.372700	0.401600	0.674000
H611	H61	0.368000	0.374400	0.731100
C741	C74	0.465700	0.417500	0.700000
C751	C75	0.471900	0.362200	0.749000
H621	H62	0.446700	0.330400	0.750700
C761	C76	0.408100	0.468700	0.564000
H631	H63	0.431200	0.493800	0.528000
C771	C77	0.359400	0.464300	0.544000
H641	H64	0.343000	0.488300	0.493800
C781	C78	0.502400	0.463500	0.694000
H651	H65	0.497000	0.503600	0.660100
C791	C79	0.645300	0.398400	0.817000
H661	H66	0.652600	0.422500	0.758100
C801	C80	0.653500	0.343800	0.962000
H671	H67	0.667500	0.324900	0.020200
C811	C81	0.547900	0.450700	0.739000
H681	H68	0.574200	0.480300	0.730500
C821	C82	0.554000	0.394600	0.795000
C831	C83	0.516300	0.350800	0.799000
H691	H69	0.520300	0.311900	0.836400
C841	C84	0.604700	0.344500	0.940300
H701	H70	0.579300	0.325300	0.978300
W361	W36	0.233250	0.666990	0.376310
W371	W37	0.232970	0.574660	0.620060
W381	W38	0.231810	0.657990	0.839970
W391	W39	0.130710	0.657590	0.691550
W401	W40	0.345580	0.666490	0.538390
Co81	Co8	0.241320	0.609720	0.113500
O1131	O113	0.124700	0.684500	0.553600
O1141	O114	0.298800	0.607400	0.603100
O1151	O115	0.220900	0.608300	0.486300
O1161	O116	0.163100	0.575900	0.645700
O1171	O117	0.240800	0.491900	0.602500
O1181	O118	0.239900	0.627200	0.960100
O1191	O119	0.161400	0.644200	0.824300
O1201	O120	0.240300	0.613900	0.274300
O1211	O121	0.072500	0.628500	0.718400
O1221	O122	0.162400	0.682900	0.364500
O1231	O123	0.242500	0.576200	0.764200
O1241	O124	0.296900	0.685700	0.806600
O1251	O125	0.214000	0.680100	0.674100
O1261	O126	0.298700	0.671600	0.431700
O1271	O127	0.389300	0.613500	0.490200
O1281	O128	0.372900	0.682000	0.673100
N291	N29	0.163700	0.582000	0.110600
N301	N30	0.819600	0.624000	0.384500
N311	N31	0.081800	0.570900	0.148400
N321	N32	0.900400	0.618800	0.345300
C851	C85	0.127300	0.598400	0.174000
H711	H71	0.132000	0.625600	0.231100
C861	C86	0.034300	0.582500	0.200000
C871	C87	0.028100	0.637800	0.249000
H721	H72	0.053300	0.669600	0.250700
C881	C88	0.091900	0.531300	0.064000
H731	H73	0.068800	0.506200	0.028000
C891	C89	0.140600	0.535700	0.044000
H741	H74	0.157000	0.511700	0.993800
C901	C90	0.997600	0.536500	0.194000
H751	H75	0.003000	0.496400	0.160100
C911	C91	0.854700	0.601600	0.317000
H761	H76	0.847400	0.577500	0.258100
C921	C92	0.846500	0.656200	0.462000
H771	H77	0.832500	0.675100	0.520200
C931	C93	0.952100	0.549300	0.239000
H781	H78	0.925800	0.519700	0.230500
C941	C94	0.946000	0.605400	0.295000
C951	C95	0.983700	0.649200	0.299000
H791	H79	0.979700	0.688100	0.336400
C961	C96	0.895300	0.655500	0.440300
H801	H80	0.920700	0.674700	0.478300
W411	W41	0.155140	0.250000	0.259690
W421	W42	0.368510	0.250000	0.947820
Ge11	Ge1	0.264130	0.250000	0.111950
O1291	O129	0.427200	0.250000	0.896200
O1301	O130	0.124900	0.250000	0.996500
O1311	O131	0.113900	0.250000	0.358400
O1321	O132	0.255100	0.250000	0.803200
O1331	O133	0.282200	0.250000	0.362100
O1341	O134	0.375500	0.250000	0.224100
O1351	O135	0.200300	0.250000	0.111600
O1361	O136	0.285100	0.250000	0.988300
W431	W43	0.344860	0.750000	0.759690
W441	W44	0.131490	0.750000	0.447820
Ge21	Ge2	0.235870	0.750000	0.611950
O1371	O137	0.072800	0.750000	0.396200
O1381	O138	0.375100	0.750000	0.496500
O1391	O139	0.386100	0.750000	0.858400
O1401	O140	0.244900	0.750000	0.303200
O1411	O141	0.217800	0.750000	0.862100
O1421	O142	0.124500	0.750000	0.724100
O1431	O143	0.299700	0.750000	0.611600
O1441	O144	0.214900	0.750000	0.488300
W451	W45	0.844860	0.750000	0.740310
W461	W46	0.631490	0.750000	0.052180
Ge31	Ge3	0.735870	0.750000	0.888050
O1451	O145	0.572800	0.750000	0.103800
O1461	O146	0.875100	0.750000	0.003500
O1471	O147	0.886100	0.750000	0.641600
O1481	O148	0.744900	0.750000	0.196800
O1491	O149	0.717800	0.750000	0.637900
O1501	O150	0.624500	0.750000	0.775900
O1511	O151	0.799700	0.750000	0.888400
O1521	O152	0.714900	0.750000	0.011700
W471	W47	0.655140	0.250000	0.240310
W481	W48	0.868510	0.250000	0.552180
Ge41	Ge4	0.764130	0.250000	0.388050
O1531	O153	0.927200	0.250000	0.603800
O1541	O154	0.624900	0.250000	0.503500
O1551	O155	0.613900	0.250000	0.141600
O1561	O156	0.755100	0.250000	0.696800
O1571	O157	0.782200	0.250000	0.137900
O1581	O158	0.875500	0.250000	0.275900
O1591	O159	0.700300	0.250000	0.388400
O1601	O160	0.785100	0.250000	0.511700
