data_ORANAY_freeONLY_PM
_symmetry_space_group_name_H-M	'P1'
_cell_length_a	15.611500
_cell_length_b	15.611500
_cell_length_c	15.184200
_cell_angle_alpha	90.000000
_cell_angle_beta	90.000000
_cell_angle_gamma	120.000000
_symmetry_Int_Tables_number 1

loop_
_symmetry_equiv_pos_as_xyz
'x,y,z'

loop_
_atom_site_label
_atom_site_type_symbol
_atom_site_fract_x
_atom_site_fract_y
_atom_site_fract_z
H11	H1	0.833600	0.476400	0.960100
O11	O1	0.804420	0.384490	0.858580
O21	O2	0.941690	0.388390	0.905780
C11	C1	0.865350	0.353030	0.860780
C21	C2	0.840680	0.264900	0.803100
C31	C3	0.893000	0.215300	0.805700
H21	H2	0.946100	0.235200	0.844100
H31	H3	0.523600	0.357200	0.960100
O31	O3	0.615510	0.419930	0.858580
O41	O4	0.611610	0.553300	0.905780
C41	C4	0.646970	0.512320	0.860780
C51	C5	0.735100	0.575780	0.803100
C61	C6	0.784700	0.677700	0.805700
H41	H4	0.764800	0.710900	0.844100
H51	H5	0.642800	0.166400	0.960100
O51	O5	0.580070	0.195580	0.858580
O61	O6	0.446700	0.058310	0.905780
C71	C7	0.487680	0.134650	0.860780
C81	C8	0.424220	0.159320	0.803100
C91	C9	0.322300	0.107000	0.805700
H61	H6	0.289100	0.053900	0.844100
H71	H7	0.166400	0.523600	0.960100
O71	O7	0.195580	0.615510	0.858580
O81	O8	0.058310	0.611610	0.905780
C101	C10	0.134650	0.646970	0.860780
C111	C11	0.159320	0.735100	0.803100
C121	C12	0.107000	0.784700	0.805700
H81	H8	0.053900	0.764800	0.844100
H91	H9	0.476400	0.642800	0.960100
O91	O9	0.384490	0.580070	0.858580
O101	O10	0.388390	0.446700	0.905780
C131	C13	0.353030	0.487680	0.860780
C141	C14	0.264900	0.424220	0.803100
C151	C15	0.215300	0.322300	0.805700
H101	H10	0.235200	0.289100	0.844100
H111	H11	0.357200	0.833600	0.960100
O111	O11	0.419930	0.804420	0.858580
O121	O12	0.553300	0.941690	0.905780
C161	C16	0.512320	0.865350	0.860780
C171	C17	0.575780	0.840680	0.803100
C181	C18	0.677700	0.893000	0.805700
H121	H12	0.710900	0.946100	0.844100
H131	H13	0.476400	0.833600	0.539900
O131	O13	0.384490	0.804420	0.641420
O141	O14	0.388390	0.941690	0.594220
C191	C19	0.353030	0.865350	0.639220
C201	C20	0.264900	0.840680	0.696900
C211	C21	0.215300	0.893000	0.694300
H141	H14	0.235200	0.946100	0.655900
H151	H15	0.357200	0.523600	0.539900
O151	O15	0.419930	0.615510	0.641420
O161	O16	0.553300	0.611610	0.594220
C221	C22	0.512320	0.646970	0.639220
C231	C23	0.575780	0.735100	0.696900
C241	C24	0.677700	0.784700	0.694300
H161	H16	0.710900	0.764800	0.655900
H171	H17	0.166400	0.642800	0.539900
O171	O17	0.195580	0.580070	0.641420
O181	O18	0.058310	0.446700	0.594220
C251	C25	0.134650	0.487680	0.639220
C261	C26	0.159320	0.424220	0.696900
C271	C27	0.107000	0.322300	0.694300
H181	H18	0.053900	0.289100	0.655900
H191	H19	0.523600	0.166400	0.539900
O191	O19	0.615510	0.195580	0.641420
O201	O20	0.611610	0.058310	0.594220
C281	C28	0.646970	0.134650	0.639220
C291	C29	0.735100	0.159320	0.696900
C301	C30	0.784700	0.107000	0.694300
H201	H20	0.764800	0.053900	0.655900
H211	H21	0.642800	0.476400	0.539900
O211	O21	0.580070	0.384490	0.641420
O221	O22	0.446700	0.388390	0.594220
C311	C31	0.487680	0.353030	0.639220
C321	C32	0.424220	0.264900	0.696900
C331	C33	0.322300	0.215300	0.694300
H221	H22	0.289100	0.235200	0.655900
H231	H23	0.833600	0.357200	0.539900
O231	O23	0.804420	0.419930	0.641420
O241	O24	0.941690	0.553300	0.594220
C341	C34	0.865350	0.512320	0.639220
C351	C35	0.840680	0.575780	0.696900
C361	C36	0.893000	0.677700	0.694300
H241	H24	0.946100	0.710900	0.655900
H251	H25	0.166400	0.523600	0.039900
O251	O25	0.195580	0.615510	0.141420
O261	O26	0.058310	0.611610	0.094220
C371	C37	0.134650	0.646970	0.139220
C381	C38	0.159320	0.735100	0.196900
C391	C39	0.107000	0.784700	0.194300
H261	H26	0.053900	0.764800	0.155900
H271	H27	0.476400	0.642800	0.039900
O271	O27	0.384490	0.580070	0.141420
O281	O28	0.388390	0.446700	0.094220
C401	C40	0.353030	0.487680	0.139220
C411	C41	0.264900	0.424220	0.196900
C421	C42	0.215300	0.322300	0.194300
H281	H28	0.235200	0.289100	0.155900
H291	H29	0.357200	0.833600	0.039900
O291	O29	0.419930	0.804420	0.141420
O301	O30	0.553300	0.941690	0.094220
C431	C43	0.512320	0.865350	0.139220
C441	C44	0.575780	0.840680	0.196900
C451	C45	0.677700	0.893000	0.194300
H301	H30	0.710900	0.946100	0.155900
H311	H31	0.833600	0.476400	0.039900
O311	O31	0.804420	0.384490	0.141420
O321	O32	0.941690	0.388390	0.094220
C461	C46	0.865350	0.353030	0.139220
C471	C47	0.840680	0.264900	0.196900
C481	C48	0.893000	0.215300	0.194300
H321	H32	0.946100	0.235200	0.155900
H331	H33	0.523600	0.357200	0.039900
O331	O33	0.615510	0.419930	0.141420
O341	O34	0.611610	0.553300	0.094220
C491	C49	0.646970	0.512320	0.139220
C501	C50	0.735100	0.575780	0.196900
C511	C51	0.784700	0.677700	0.194300
H341	H34	0.764800	0.710900	0.155900
H351	H35	0.642800	0.166400	0.039900
O351	O35	0.580070	0.195580	0.141420
O361	O36	0.446700	0.058310	0.094220
C521	C52	0.487680	0.134650	0.139220
C531	C53	0.424220	0.159320	0.196900
C541	C54	0.322300	0.107000	0.194300
H361	H36	0.289100	0.053900	0.155900
H371	H37	0.523600	0.166400	0.460100
O371	O37	0.615510	0.195580	0.358580
O381	O38	0.611610	0.058310	0.405780
C551	C55	0.646970	0.134650	0.360780
C561	C56	0.735100	0.159320	0.303100
C571	C57	0.784700	0.107000	0.305700
H381	H38	0.764800	0.053900	0.344100
H391	H39	0.642800	0.476400	0.460100
O391	O39	0.580070	0.384490	0.358580
O401	O40	0.446700	0.388390	0.405780
C581	C58	0.487680	0.353030	0.360780
C591	C59	0.424220	0.264900	0.303100
C601	C60	0.322300	0.215300	0.305700
H401	H40	0.289100	0.235200	0.344100
H411	H41	0.833600	0.357200	0.460100
O411	O41	0.804420	0.419930	0.358580
O421	O42	0.941690	0.553300	0.405780
C611	C61	0.865350	0.512320	0.360780
C621	C62	0.840680	0.575780	0.303100
C631	C63	0.893000	0.677700	0.305700
H421	H42	0.946100	0.710900	0.344100
H431	H43	0.476400	0.833600	0.460100
O431	O43	0.384490	0.804420	0.358580
O441	O44	0.388390	0.941690	0.405780
C641	C64	0.353030	0.865350	0.360780
C651	C65	0.264900	0.840680	0.303100
C661	C66	0.215300	0.893000	0.305700
H441	H44	0.235200	0.946100	0.344100
H451	H45	0.357200	0.523600	0.460100
O451	O45	0.419930	0.615510	0.358580
O461	O46	0.553300	0.611610	0.405780
C671	C67	0.512320	0.646970	0.360780
C681	C68	0.575780	0.735100	0.303100
C691	C69	0.677700	0.784700	0.305700
H461	H46	0.710900	0.764800	0.344100
H471	H47	0.166400	0.642800	0.460100
O471	O47	0.195580	0.580070	0.358580
O481	O48	0.058310	0.446700	0.405780
C701	C70	0.134650	0.487680	0.360780
C711	C71	0.159320	0.424220	0.303100
C721	C72	0.107000	0.322300	0.305700
H481	H48	0.053900	0.289100	0.344100
Ce11	Ce1	0.666670	0.333330	0.750000
Ce21	Ce2	0.333330	0.666670	0.750000
Ce31	Ce3	0.333330	0.666670	0.250000
Ce41	Ce4	0.666670	0.333330	0.250000
Mg11	Mg1	0.000000	0.500000	0.000000
Mg21	Mg2	0.500000	0.500000	0.000000
Mg31	Mg3	0.500000	0.000000	0.000000
Mg41	Mg4	0.500000	0.000000	0.500000
Mg51	Mg5	0.500000	0.500000	0.500000
Mg61	Mg6	0.000000	0.500000	0.500000
O491	O49	0.870210	0.510460	0.000000
O501	O50	0.489540	0.359750	0.000000
O511	O51	0.640250	0.129790	0.000000
O521	O52	0.129790	0.489540	0.000000
O531	O53	0.510460	0.640250	0.000000
O541	O54	0.359750	0.870210	0.000000
O551	O55	0.510460	0.870210	0.500000
O561	O56	0.359750	0.489540	0.500000
O571	O57	0.129790	0.640250	0.500000
O581	O58	0.489540	0.129790	0.500000
O591	O59	0.640250	0.510460	0.500000
O601	O60	0.870210	0.359750	0.500000
N11	N1	0.762990	0.237010	0.750000
C731	C73	0.864930	0.135070	0.750000
H491	H49	0.899300	0.100700	0.750000
N21	N2	0.762990	0.525980	0.750000
C741	C74	0.864930	0.729860	0.750000
H501	H50	0.899300	0.798600	0.750000
N31	N3	0.474020	0.237010	0.750000
C751	C75	0.270140	0.135070	0.750000
H511	H51	0.201400	0.100700	0.750000
N41	N4	0.237010	0.762990	0.750000
C761	C76	0.135070	0.864930	0.750000
H521	H52	0.100700	0.899300	0.750000
N51	N5	0.237010	0.474020	0.750000
C771	C77	0.135070	0.270140	0.750000
H531	H53	0.100700	0.201400	0.750000
N61	N6	0.525980	0.762990	0.750000
C781	C78	0.729860	0.864930	0.750000
H541	H54	0.798600	0.899300	0.750000
N71	N7	0.237010	0.762990	0.250000
C791	C79	0.135070	0.864930	0.250000
H551	H55	0.100700	0.899300	0.250000
N81	N8	0.237010	0.474020	0.250000
C801	C80	0.135070	0.270140	0.250000
H561	H56	0.100700	0.201400	0.250000
N91	N9	0.525980	0.762990	0.250000
C811	C81	0.729860	0.864930	0.250000
H571	H57	0.798600	0.899300	0.250000
N101	N10	0.762990	0.237010	0.250000
C821	C82	0.864930	0.135070	0.250000
H581	H58	0.899300	0.100700	0.250000
N111	N11	0.762990	0.525980	0.250000
C831	C83	0.864930	0.729860	0.250000
H591	H59	0.899300	0.798600	0.250000
N121	N12	0.474020	0.237010	0.250000
C841	C84	0.270140	0.135070	0.250000
H601	H60	0.201400	0.100700	0.250000
