data_ORERAG_freeONLY_PM
_symmetry_space_group_name_H-M	'P1'
_cell_length_a	7.421900
_cell_length_b	31.528900
_cell_length_c	13.668200
_cell_angle_alpha	90.000000
_cell_angle_beta	91.807000
_cell_angle_gamma	90.000000
_symmetry_Int_Tables_number 1

loop_
_symmetry_equiv_pos_as_xyz
'x,y,z'

loop_
_atom_site_label
_atom_site_type_symbol
_atom_site_fract_x
_atom_site_fract_y
_atom_site_fract_z
Be11	Be1	0.193400	0.506670	0.889800
Be21	Be2	0.814000	0.427820	0.762000
Be31	Be3	0.172200	0.173010	0.737500
Be41	Be4	0.646300	0.265140	0.880100
Be51	Be5	0.323700	0.523400	0.606100
Be61	Be6	0.402600	0.220930	0.119400
P11	P1	0.204990	0.501870	0.102070
P21	P2	0.261810	0.080290	0.731590
P31	P3	0.794470	0.209550	0.736230
P41	P4	0.195550	0.450620	0.724990
P51	P5	0.694730	0.484000	0.606130
P61	P6	0.713140	0.337010	0.742250
P71	P7	0.296400	0.219510	0.908670
P81	P8	0.750500	0.262200	0.092280
O11	O1	0.265100	0.498190	0.998630
O21	O2	0.021900	0.481650	0.118850
O31	O3	0.208900	0.547660	0.135540
O41	O4	0.335200	0.473260	0.167630
H11	H1	0.456700	0.483300	0.162500
O51	O5	0.184700	0.123320	0.705640
O61	O6	0.204200	0.067600	0.833070
O71	O7	0.202300	0.048510	0.652900
O81	O8	0.473100	0.083510	0.731770
H21	H2	0.508100	0.065200	0.704700
O91	O9	0.958900	0.182100	0.730530
O101	O10	0.793100	0.232230	0.834760
O111	O11	0.770300	0.239930	0.650660
O121	O12	0.634700	0.176700	0.728830
H31	H3	0.525900	0.187700	0.723100
O131	O13	0.017400	0.427020	0.720570
O141	O14	0.193400	0.485930	0.648280
O151	O15	0.247400	0.466060	0.825950
O161	O16	0.336100	0.415730	0.695690
H41	H4	0.444500	0.426400	0.696600
O171	O17	0.677700	0.446660	0.676400
O181	O18	0.533500	0.512470	0.609450
O191	O19	0.734600	0.466260	0.505820
O201	O20	0.854200	0.514110	0.639470
H51	H5	0.950500	0.506500	0.635600
O211	O21	0.880400	0.318960	0.695360
O221	O22	0.750700	0.380270	0.783670
O231	O23	0.637600	0.309140	0.819850
O241	O24	0.562600	0.342910	0.658990
H61	H6	0.541500	0.321200	0.622500
O251	O25	0.334000	0.205040	0.013120
O261	O26	0.445600	0.246420	0.869130
O271	O27	0.253400	0.180250	0.847720
O281	O28	0.129300	0.250330	0.905550
H71	H7	0.030400	0.241600	0.886500
O291	O29	0.789400	0.299220	0.161270
O301	O30	0.612000	0.232000	0.129810
O311	O31	0.708300	0.278440	0.990600
O321	O32	0.928800	0.234350	0.090690
H81	H8	0.017800	0.247900	0.101000
Be71	Be7	0.306600	0.006670	0.610200
Be81	Be8	0.686000	0.927820	0.738000
Be91	Be9	0.327800	0.673010	0.762500
Be101	Be10	0.853700	0.765140	0.619900
Be111	Be11	0.176300	0.023400	0.893900
Be121	Be12	0.097400	0.720930	0.380600
P91	P9	0.295010	0.001870	0.397930
P101	P10	0.238190	0.580290	0.768410
P111	P11	0.705530	0.709550	0.763770
P121	P12	0.304450	0.950620	0.775010
P131	P13	0.805270	0.984000	0.893870
P141	P14	0.786860	0.837010	0.757750
P151	P15	0.203600	0.719510	0.591330
P161	P16	0.749500	0.762200	0.407720
O331	O33	0.234900	0.998190	0.501370
O341	O34	0.478100	0.981650	0.381150
O351	O35	0.291100	0.047660	0.364460
O361	O36	0.164800	0.973260	0.332370
H91	H9	0.043300	0.983300	0.337500
O371	O37	0.315300	0.623320	0.794360
O381	O38	0.295800	0.567600	0.666930
O391	O39	0.297700	0.548510	0.847100
O401	O40	0.026900	0.583510	0.768230
H101	H10	0.991900	0.565200	0.795300
O411	O41	0.541100	0.682100	0.769470
O421	O42	0.706900	0.732230	0.665240
O431	O43	0.729700	0.739930	0.849340
O441	O44	0.865300	0.676700	0.771170
H111	H11	0.974100	0.687700	0.776900
O451	O45	0.482600	0.927020	0.779430
O461	O46	0.306600	0.985930	0.851720
O471	O47	0.252600	0.966060	0.674050
O481	O48	0.163900	0.915730	0.804310
H121	H12	0.055500	0.926400	0.803400
O491	O49	0.822300	0.946660	0.823600
O501	O50	0.966500	0.012470	0.890550
O511	O51	0.765400	0.966260	0.994180
O521	O52	0.645800	0.014110	0.860530
H131	H13	0.549500	0.006500	0.864400
O531	O53	0.619600	0.818960	0.804640
O541	O54	0.749300	0.880270	0.716330
O551	O55	0.862400	0.809140	0.680150
O561	O56	0.937400	0.842910	0.841010
H141	H14	0.958500	0.821200	0.877500
O571	O57	0.166000	0.705040	0.486880
O581	O58	0.054400	0.746420	0.630870
O591	O59	0.246600	0.680250	0.652280
O601	O60	0.370700	0.750330	0.594450
H151	H15	0.469600	0.741600	0.613500
O611	O61	0.710600	0.799220	0.338730
O621	O62	0.888000	0.732000	0.370190
O631	O63	0.791700	0.778440	0.509400
O641	O64	0.571200	0.734350	0.409310
H161	H16	0.482200	0.747900	0.399000
Be131	Be13	0.806600	0.493330	0.110200
Be141	Be14	0.186000	0.572180	0.238000
Be151	Be15	0.827800	0.826990	0.262500
Be161	Be16	0.353700	0.734860	0.119900
Be171	Be17	0.676300	0.476600	0.393900
Be181	Be18	0.597400	0.779070	0.880600
P171	P17	0.795010	0.498130	0.897930
P181	P18	0.738190	0.919710	0.268410
P191	P19	0.205530	0.790450	0.263770
P201	P20	0.804450	0.549380	0.275010
P211	P21	0.305270	0.516000	0.393870
P221	P22	0.286860	0.662990	0.257750
P231	P23	0.703600	0.780490	0.091330
P241	P24	0.249500	0.737800	0.907720
O651	O65	0.734900	0.501810	0.001370
O661	O66	0.978100	0.518350	0.881150
O671	O67	0.791100	0.452340	0.864460
O681	O68	0.664800	0.526740	0.832370
H171	H17	0.543300	0.516700	0.837500
O691	O69	0.815300	0.876680	0.294360
O701	O70	0.795800	0.932400	0.166930
O711	O71	0.797700	0.951490	0.347100
O721	O72	0.526900	0.916490	0.268230
H181	H18	0.491900	0.934800	0.295300
O731	O73	0.041100	0.817900	0.269470
O741	O74	0.206900	0.767770	0.165240
O751	O75	0.229700	0.760070	0.349340
O761	O76	0.365300	0.823300	0.271170
H191	H19	0.474100	0.812300	0.276900
O771	O77	0.982600	0.572980	0.279430
O781	O78	0.806600	0.514070	0.351720
O791	O79	0.752600	0.533940	0.174050
O801	O80	0.663900	0.584270	0.304310
H201	H20	0.555500	0.573600	0.303400
O811	O81	0.322300	0.553340	0.323600
O821	O82	0.466500	0.487530	0.390550
O831	O83	0.265400	0.533740	0.494180
O841	O84	0.145800	0.485890	0.360530
H211	H21	0.049500	0.493500	0.364400
O851	O85	0.119600	0.681040	0.304640
O861	O86	0.249300	0.619730	0.216330
O871	O87	0.362400	0.690860	0.180150
O881	O88	0.437400	0.657090	0.341010
H221	H22	0.458500	0.678800	0.377500
O891	O89	0.666000	0.794960	0.986880
O901	O90	0.554400	0.753580	0.130870
O911	O91	0.746600	0.819750	0.152280
O921	O92	0.870700	0.749670	0.094450
H231	H23	0.969600	0.758400	0.113500
O931	O93	0.210600	0.700780	0.838730
O941	O94	0.388000	0.768000	0.870190
O951	O95	0.291700	0.721560	0.009400
O961	O96	0.071200	0.765650	0.909310
H241	H24	0.982200	0.752100	0.899000
Be191	Be19	0.693400	0.993330	0.389800
Be201	Be20	0.314000	0.072180	0.262000
Be211	Be21	0.672200	0.326990	0.237500
Be221	Be22	0.146300	0.234860	0.380100
Be231	Be23	0.823700	0.976600	0.106100
Be241	Be24	0.902600	0.279070	0.619400
P251	P25	0.704990	0.998130	0.602070
P261	P26	0.761810	0.419710	0.231590
P271	P27	0.294470	0.290450	0.236230
P281	P28	0.695550	0.049380	0.224990
P291	P29	0.194730	0.016000	0.106130
P301	P30	0.213140	0.162990	0.242250
P311	P31	0.796400	0.280490	0.408670
P321	P32	0.250500	0.237800	0.592280
O971	O97	0.765100	0.001810	0.498630
O981	O98	0.521900	0.018350	0.618850
O991	O99	0.708900	0.952340	0.635540
O1001	O100	0.835200	0.026740	0.667630
H251	H25	0.956700	0.016700	0.662500
O1011	O101	0.684700	0.376680	0.205640
O1021	O102	0.704200	0.432400	0.333070
O1031	O103	0.702300	0.451490	0.152900
O1041	O104	0.973100	0.416490	0.231770
H261	H26	0.008100	0.434800	0.204700
O1051	O105	0.458900	0.317900	0.230530
O1061	O106	0.293100	0.267770	0.334760
O1071	O107	0.270300	0.260070	0.150660
O1081	O108	0.134700	0.323300	0.228830
H271	H27	0.025900	0.312300	0.223100
O1091	O109	0.517400	0.072980	0.220570
O1101	O110	0.693400	0.014070	0.148280
O1111	O111	0.747400	0.033940	0.325950
O1121	O112	0.836100	0.084270	0.195690
H281	H28	0.944500	0.073600	0.196600
O1131	O113	0.177700	0.053340	0.176400
O1141	O114	0.033500	0.987530	0.109450
O1151	O115	0.234600	0.033740	0.005820
O1161	O116	0.354200	0.985890	0.139470
H291	H29	0.450500	0.993500	0.135600
O1171	O117	0.380400	0.181040	0.195360
O1181	O118	0.250700	0.119730	0.283670
O1191	O119	0.137600	0.190860	0.319850
O1201	O120	0.062600	0.157090	0.158990
H301	H30	0.041500	0.178800	0.122500
O1211	O121	0.834000	0.294960	0.513120
O1221	O122	0.945600	0.253580	0.369130
O1231	O123	0.753400	0.319750	0.347720
O1241	O124	0.629300	0.249670	0.405550
H311	H31	0.530400	0.258400	0.386500
O1251	O125	0.289400	0.200780	0.661270
O1261	O126	0.112000	0.268000	0.629810
O1271	O127	0.208300	0.221560	0.490600
O1281	O128	0.428800	0.265650	0.590690
H321	H32	0.517800	0.252100	0.601000
