data_OREZAO_freeONLY_PM
_symmetry_space_group_name_H-M	'P1'
_cell_length_a	17.799200
_cell_length_b	17.799200
_cell_length_c	12.714500
_cell_angle_alpha	90.000000
_cell_angle_beta	90.000000
_cell_angle_gamma	120.000000
_symmetry_Int_Tables_number 1

loop_
_symmetry_equiv_pos_as_xyz
'x,y,z'

loop_
_atom_site_label
_atom_site_type_symbol
_atom_site_fract_x
_atom_site_fract_y
_atom_site_fract_z
Cu11	Cu1	0.136800	0.553800	0.266200
Cu21	Cu2	0.137700	0.554800	0.004110
O11	O1	0.176700	0.534000	0.129000
N11	N1	0.088800	0.595100	0.365000
N21	N2	0.898400	0.401600	0.389400
O21	O2	0.234800	0.674700	0.269500
O31	O3	0.023200	0.448100	0.283000
O41	O4	0.294200	0.803200	0.361800
O51	O5	0.759900	0.324500	0.500000
O61	O6	0.980100	0.561000	0.486000
O71	O7	0.717100	0.201900	0.426700
C11	C1	0.236100	0.724000	0.338000
C21	C2	0.145000	0.695000	0.398000
H11	H1	0.153200	0.701300	0.476200
C31	C3	0.981000	0.453700	0.360000
C41	C4	0.021000	0.539000	0.417000
C51	C5	0.775000	0.275000	0.431000
C61	C6	0.848500	0.316300	0.363000
H21	H2	0.820600	0.321500	0.296900
C71	C7	0.094000	0.738000	0.360000
H31	H3	0.036900	0.710100	0.396000
H41	H4	0.125500	0.799700	0.381300
C81	C8	0.080000	0.733000	0.248000
H51	H5	0.135100	0.780500	0.219900
H61	H6	0.037400	0.753200	0.238900
C91	C9	0.108000	0.753000	0.067000
H71	H7	0.108200	0.739200	0.992400
H81	H8	0.168300	0.785700	0.092400
H91	H9	0.080200	0.787800	0.076200
C101	C10	0.904800	0.276900	0.316800
H101	H10	0.951000	0.325400	0.275900
H111	H11	0.866300	0.234300	0.263700
C111	C11	0.954100	0.230300	0.370700
H121	H12	0.012800	0.282000	0.375300
H131	H13	0.957400	0.199400	0.307700
C121	C12	0.026000	0.124000	0.388000
H141	H14	0.037700	0.087400	0.434900
H151	H15	0.080700	0.171900	0.361800
H161	H16	0.990000	0.089500	0.329200
S11	S1	0.045700	0.646100	0.147000
S21	S2	0.967000	0.168900	0.463100
Cu31	Cu3	0.446200	0.583000	0.266200
Cu41	Cu4	0.445200	0.582900	0.004110
O81	O8	0.466000	0.642700	0.129000
N31	N3	0.404900	0.493700	0.365000
N41	N4	0.598400	0.496800	0.389400
O91	O9	0.325300	0.560100	0.269500
O101	O10	0.551900	0.575100	0.283000
O111	O11	0.196800	0.491000	0.361800
O121	O12	0.675500	0.435400	0.500000
O131	O13	0.439000	0.419100	0.486000
O141	O14	0.798100	0.515200	0.426700
C131	C13	0.276000	0.512100	0.338000
C141	C14	0.305000	0.450000	0.398000
H171	H17	0.298700	0.451900	0.476200
C151	C15	0.546300	0.527300	0.360000
C161	C16	0.461000	0.482000	0.417000
C171	C17	0.725000	0.500000	0.431000
C181	C18	0.683700	0.532200	0.363000
H181	H18	0.678500	0.499100	0.296900
C191	C19	0.262000	0.356000	0.360000
H191	H19	0.289900	0.326800	0.396000
H201	H20	0.200300	0.325800	0.381300
C201	C20	0.267000	0.347000	0.248000
H211	H21	0.219500	0.354600	0.219900
H221	H22	0.246800	0.284200	0.238900
C211	C21	0.247000	0.355000	0.067000
H231	H23	0.260800	0.369000	0.992400
H241	H24	0.214300	0.382600	0.092400
H251	H25	0.212200	0.292400	0.076200
C221	C22	0.723100	0.627900	0.316800
H261	H26	0.674600	0.625600	0.275900
H271	H27	0.765700	0.632000	0.263700
C231	C23	0.769700	0.723800	0.370700
H281	H28	0.718000	0.730800	0.375300
H291	H29	0.800600	0.758000	0.307700
C241	C24	0.876000	0.902000	0.388000
H301	H30	0.912600	0.950300	0.434900
H311	H31	0.828100	0.908800	0.361800
H321	H32	0.910500	0.900500	0.329200
S31	S3	0.353900	0.399600	0.147000
S41	S4	0.831100	0.798100	0.463100
Cu51	Cu5	0.417000	0.863200	0.266200
Cu61	Cu6	0.417100	0.862300	0.004110
O151	O15	0.357300	0.823300	0.129000
N51	N5	0.506300	0.911200	0.365000
N61	N6	0.503200	0.101600	0.389400
O161	O16	0.439900	0.765200	0.269500
O171	O17	0.424900	0.976800	0.283000
O181	O18	0.509000	0.705800	0.361800
O191	O19	0.564600	0.240100	0.500000
O201	O20	0.580900	0.019900	0.486000
O211	O21	0.484800	0.282900	0.426700
C251	C25	0.487900	0.763900	0.338000
C261	C26	0.550000	0.855000	0.398000
H331	H33	0.548100	0.846800	0.476200
C271	C27	0.472700	0.019000	0.360000
C281	C28	0.518000	0.979000	0.417000
C291	C29	0.500000	0.225000	0.431000
C301	C30	0.467800	0.151500	0.363000
H341	H34	0.500900	0.179400	0.296900
C311	C31	0.644000	0.906000	0.360000
H351	H35	0.673200	0.963100	0.396000
H361	H36	0.674200	0.874500	0.381300
C321	C32	0.653000	0.920000	0.248000
H371	H37	0.645400	0.864900	0.219900
H381	H38	0.715800	0.962600	0.238900
C331	C33	0.645000	0.892000	0.067000
H391	H39	0.631000	0.891800	0.992400
H401	H40	0.617400	0.831700	0.092400
H411	H41	0.707600	0.919800	0.076200
C341	C34	0.372100	0.095200	0.316800
H421	H42	0.374400	0.049000	0.275900
H431	H43	0.368000	0.133700	0.263700
C351	C35	0.276200	0.045900	0.370700
H441	H44	0.269200	0.987200	0.375300
H451	H45	0.242000	0.042600	0.307700
C361	C36	0.098000	0.974000	0.388000
H461	H46	0.049700	0.962300	0.434900
H471	H47	0.091200	0.919300	0.361800
H481	H48	0.099500	0.010000	0.329200
S51	S5	0.600400	0.954300	0.147000
S61	S6	0.201900	0.033000	0.463100
Cu71	Cu7	0.863200	0.446200	0.766200
Cu81	Cu8	0.862300	0.445200	0.504110
O221	O22	0.823300	0.466000	0.629000
N71	N7	0.911200	0.404900	0.865000
N81	N8	0.101600	0.598400	0.889400
O231	O23	0.765200	0.325300	0.769500
O241	O24	0.976800	0.551900	0.783000
O251	O25	0.705800	0.196800	0.861800
O261	O26	0.240100	0.675500	0.000000
O271	O27	0.019900	0.439000	0.986000
O281	O28	0.282900	0.798100	0.926700
C371	C37	0.763900	0.276000	0.838000
C381	C38	0.855000	0.305000	0.898000
H491	H49	0.846800	0.298700	0.976200
C391	C39	0.019000	0.546300	0.860000
C401	C40	0.979000	0.461000	0.917000
C411	C41	0.225000	0.725000	0.931000
C421	C42	0.151500	0.683700	0.863000
H501	H50	0.179400	0.678500	0.796900
C431	C43	0.906000	0.262000	0.860000
H511	H51	0.963100	0.289900	0.896000
H521	H52	0.874500	0.200300	0.881300
C441	C44	0.920000	0.267000	0.748000
H531	H53	0.864900	0.219500	0.719900
H541	H54	0.962600	0.246800	0.738900
C451	C45	0.892000	0.247000	0.567000
H551	H55	0.891800	0.260800	0.492400
H561	H56	0.831700	0.214300	0.592400
H571	H57	0.919800	0.212200	0.576200
C461	C46	0.095200	0.723100	0.816800
H581	H58	0.049000	0.674600	0.775900
H591	H59	0.133700	0.765700	0.763700
C471	C47	0.045900	0.769700	0.870700
H601	H60	0.987200	0.718000	0.875300
H611	H61	0.042600	0.800600	0.807700
C481	C48	0.974000	0.876000	0.888000
H621	H62	0.962300	0.912600	0.934900
H631	H63	0.919300	0.828100	0.861800
H641	H64	0.010000	0.910500	0.829200
S71	S7	0.954300	0.353900	0.647000
S81	S8	0.033000	0.831100	0.963100
Cu91	Cu9	0.553800	0.417000	0.766200
Cu101	Cu10	0.554800	0.417100	0.504110
O291	O29	0.534000	0.357300	0.629000
N91	N9	0.595100	0.506300	0.865000
N101	N10	0.401600	0.503200	0.889400
O301	O30	0.674700	0.439900	0.769500
O311	O31	0.448100	0.424900	0.783000
O321	O32	0.803200	0.509000	0.861800
O331	O33	0.324500	0.564600	0.000000
O341	O34	0.561000	0.580900	0.986000
O351	O35	0.201900	0.484800	0.926700
C491	C49	0.724000	0.487900	0.838000
C501	C50	0.695000	0.550000	0.898000
H651	H65	0.701300	0.548100	0.976200
C511	C51	0.453700	0.472700	0.860000
C521	C52	0.539000	0.518000	0.917000
C531	C53	0.275000	0.500000	0.931000
C541	C54	0.316300	0.467800	0.863000
H661	H66	0.321500	0.500900	0.796900
C551	C55	0.738000	0.644000	0.860000
H671	H67	0.710100	0.673200	0.896000
H681	H68	0.799700	0.674200	0.881300
C561	C56	0.733000	0.653000	0.748000
H691	H69	0.780500	0.645400	0.719900
H701	H70	0.753200	0.715800	0.738900
C571	C57	0.753000	0.645000	0.567000
H711	H71	0.739200	0.631000	0.492400
H721	H72	0.785700	0.617400	0.592400
H731	H73	0.787800	0.707600	0.576200
C581	C58	0.276900	0.372100	0.816800
H741	H74	0.325400	0.374400	0.775900
H751	H75	0.234300	0.368000	0.763700
C591	C59	0.230300	0.276200	0.870700
H761	H76	0.282000	0.269200	0.875300
H771	H77	0.199400	0.242000	0.807700
C601	C60	0.124000	0.098000	0.888000
H781	H78	0.087400	0.049700	0.934900
H791	H79	0.171900	0.091200	0.861800
H801	H80	0.089500	0.099500	0.829200
S91	S9	0.646100	0.600400	0.647000
S101	S10	0.168900	0.201900	0.963100
Cu111	Cu11	0.583000	0.136800	0.766200
Cu121	Cu12	0.582900	0.137700	0.504110
O361	O36	0.642700	0.176700	0.629000
N111	N11	0.493700	0.088800	0.865000
N121	N12	0.496800	0.898400	0.889400
O371	O37	0.560100	0.234800	0.769500
O381	O38	0.575100	0.023200	0.783000
O391	O39	0.491000	0.294200	0.861800
O401	O40	0.435400	0.759900	0.000000
O411	O41	0.419100	0.980100	0.986000
O421	O42	0.515200	0.717100	0.926700
C611	C61	0.512100	0.236100	0.838000
C621	C62	0.450000	0.145000	0.898000
H811	H81	0.451900	0.153200	0.976200
C631	C63	0.527300	0.981000	0.860000
C641	C64	0.482000	0.021000	0.917000
C651	C65	0.500000	0.775000	0.931000
C661	C66	0.532200	0.848500	0.863000
H821	H82	0.499100	0.820600	0.796900
C671	C67	0.356000	0.094000	0.860000
H831	H83	0.326800	0.036900	0.896000
H841	H84	0.325800	0.125500	0.881300
C681	C68	0.347000	0.080000	0.748000
H851	H85	0.354600	0.135100	0.719900
H861	H86	0.284200	0.037400	0.738900
C691	C69	0.355000	0.108000	0.567000
H871	H87	0.369000	0.108200	0.492400
H881	H88	0.382600	0.168300	0.592400
H891	H89	0.292400	0.080200	0.576200
C701	C70	0.627900	0.904800	0.816800
H901	H90	0.625600	0.951000	0.775900
H911	H91	0.632000	0.866300	0.763700
C711	C71	0.723800	0.954100	0.870700
H921	H92	0.730800	0.012800	0.875300
H931	H93	0.758000	0.957400	0.807700
C721	C72	0.902000	0.026000	0.888000
H941	H94	0.950300	0.037700	0.934900
H951	H95	0.908800	0.080700	0.861800
H961	H96	0.900500	0.990000	0.829200
S111	S11	0.399600	0.045700	0.647000
S121	S12	0.798100	0.967000	0.963100
Ca11	Ca1	0.333330	0.666670	0.134600
Ca21	Ca2	0.666670	0.333330	0.634600
