data_ORIVUI_freeONLY_PM
_symmetry_space_group_name_H-M	'P1'
_cell_length_a	25.856100
_cell_length_b	25.856100
_cell_length_c	6.711900
_cell_angle_alpha	90.000000
_cell_angle_beta	90.000000
_cell_angle_gamma	120.000000
_symmetry_Int_Tables_number 1

loop_
_symmetry_equiv_pos_as_xyz
'x,y,z'

loop_
_atom_site_label
_atom_site_type_symbol
_atom_site_fract_x
_atom_site_fract_y
_atom_site_fract_z
Ni11	Ni1	0.383770	0.348870	0.144530
C11	C1	0.323250	0.204450	0.287770
C21	C2	0.336070	0.217630	0.086520
C31	C3	0.346150	0.179850	0.965420
H11	H1	0.356100	0.190090	0.809110
C41	C4	0.312410	0.245080	0.418010
O11	O1	0.314880	0.291030	0.345800
O21	O2	0.300860	0.233200	0.599460
O31	O3	0.338720	0.266990	0.008900
Ni21	Ni2	0.050440	0.682200	0.477860
C51	C5	0.989920	0.537780	0.621100
C61	C6	0.002740	0.550960	0.419850
C71	C7	0.012820	0.513180	0.298750
H21	H2	0.022770	0.523420	0.142440
C81	C8	0.979080	0.578410	0.751340
O41	O4	0.981550	0.624360	0.679130
O51	O5	0.967530	0.566530	0.932790
O61	O6	0.005390	0.600320	0.342230
Ni31	Ni3	0.717100	0.015540	0.811200
C91	C9	0.656580	0.871120	0.954440
C101	C10	0.669400	0.884300	0.753190
C111	C11	0.679480	0.846520	0.632090
H31	H3	0.689430	0.856760	0.475780
C121	C12	0.645740	0.911750	0.084680
O71	O7	0.648210	0.957700	0.012470
O81	O8	0.634190	0.899870	0.266130
O91	O9	0.672050	0.933660	0.675570
Ni41	Ni4	0.651130	0.034900	0.144530
C131	C13	0.795550	0.118800	0.287770
C141	C14	0.782370	0.118440	0.086520
C151	C15	0.820150	0.166300	0.965420
H41	H4	0.809910	0.166010	0.809110
C161	C16	0.754920	0.067330	0.418010
O101	O10	0.708970	0.023850	0.345800
O111	O11	0.766800	0.067660	0.599460
O121	O12	0.733010	0.071730	0.008900
Ni51	Ni5	0.317800	0.368230	0.477860
C171	C17	0.462220	0.452130	0.621100
C181	C18	0.449040	0.451770	0.419850
C191	C19	0.486820	0.499630	0.298750
H51	H5	0.476580	0.499340	0.142440
C201	C20	0.421590	0.400660	0.751340
O131	O13	0.375640	0.357180	0.679130
O141	O14	0.433470	0.400990	0.932790
O151	O15	0.399680	0.405060	0.342230
Ni61	Ni6	0.984460	0.701570	0.811200
C211	C21	0.128880	0.785470	0.954440
C221	C22	0.115700	0.785110	0.753190
C231	C23	0.153480	0.832970	0.632090
H61	H6	0.143240	0.832680	0.475780
C241	C24	0.088250	0.734000	0.084680
O161	O16	0.042300	0.690520	0.012470
O171	O17	0.100130	0.734330	0.266130
O181	O18	0.066340	0.738400	0.675570
Ni71	Ni7	0.965100	0.616230	0.144530
C251	C25	0.881200	0.676750	0.287770
C261	C26	0.881560	0.663930	0.086520
C271	C27	0.833700	0.653850	0.965420
H71	H7	0.833990	0.643900	0.809110
C281	C28	0.932670	0.687590	0.418010
O191	O19	0.976150	0.685120	0.345800
O201	O20	0.932340	0.699140	0.599460
O211	O21	0.928270	0.661280	0.008900
Ni81	Ni8	0.631770	0.949560	0.477860
C291	C29	0.547870	0.010080	0.621100
C301	C30	0.548230	0.997260	0.419850
C311	C31	0.500370	0.987180	0.298750
H81	H8	0.500660	0.977230	0.142440
C321	C32	0.599340	0.020920	0.751340
O221	O22	0.642820	0.018450	0.679130
O231	O23	0.599010	0.032470	0.932790
O241	O24	0.594940	0.994610	0.342230
Ni91	Ni9	0.298430	0.282900	0.811200
C331	C33	0.214530	0.343420	0.954440
C341	C34	0.214890	0.330600	0.753190
C351	C35	0.167030	0.320520	0.632090
H91	H9	0.167320	0.310570	0.475780
C361	C36	0.266000	0.354260	0.084680
O251	O25	0.309480	0.351790	0.012470
O261	O26	0.265670	0.365810	0.266130
O271	O27	0.261600	0.327950	0.675570
Ni101	Ni10	0.616230	0.651130	0.855470
C371	C37	0.676750	0.795550	0.712230
C381	C38	0.663930	0.782370	0.913480
C391	C39	0.653850	0.820150	0.034580
H101	H10	0.643900	0.809910	0.190890
C401	C40	0.687590	0.754920	0.581990
O281	O28	0.685120	0.708970	0.654200
O291	O29	0.699140	0.766800	0.400540
O301	O30	0.661280	0.733010	0.991100
Ni111	Ni11	0.282900	0.984460	0.188800
C411	C41	0.343420	0.128880	0.045560
C421	C42	0.330600	0.115700	0.246810
C431	C43	0.320520	0.153480	0.367910
H111	H11	0.310570	0.143240	0.524220
C441	C44	0.354260	0.088250	0.915320
O311	O31	0.351790	0.042300	0.987530
O321	O32	0.365810	0.100130	0.733870
O331	O33	0.327950	0.066340	0.324430
Ni121	Ni12	0.949560	0.317800	0.522140
C451	C45	0.010080	0.462220	0.378900
C461	C46	0.997260	0.449040	0.580150
C471	C47	0.987180	0.486820	0.701250
H121	H12	0.977230	0.476580	0.857560
C481	C48	0.020920	0.421590	0.248660
O341	O34	0.018450	0.375640	0.320870
O351	O35	0.032470	0.433470	0.067210
O361	O36	0.994610	0.399680	0.657770
Ni131	Ni13	0.348870	0.965100	0.855470
C491	C49	0.204450	0.881200	0.712230
C501	C50	0.217630	0.881560	0.913480
C511	C51	0.179850	0.833700	0.034580
H131	H13	0.190090	0.833990	0.190890
C521	C52	0.245080	0.932670	0.581990
O371	O37	0.291030	0.976150	0.654200
O381	O38	0.233200	0.932340	0.400540
O391	O39	0.266990	0.928270	0.991100
Ni141	Ni14	0.015540	0.298430	0.188800
C531	C53	0.871120	0.214530	0.045560
C541	C54	0.884300	0.214890	0.246810
C551	C55	0.846520	0.167030	0.367910
H141	H14	0.856760	0.167320	0.524220
C561	C56	0.911750	0.266000	0.915320
O401	O40	0.957700	0.309480	0.987530
O411	O41	0.899870	0.265670	0.733870
O421	O42	0.933660	0.261600	0.324430
Ni151	Ni15	0.682200	0.631770	0.522140
C571	C57	0.537780	0.547870	0.378900
C581	C58	0.550960	0.548230	0.580150
C591	C59	0.513180	0.500370	0.701250
H151	H15	0.523420	0.500660	0.857560
C601	C60	0.578410	0.599340	0.248660
O431	O43	0.624360	0.642820	0.320870
O441	O44	0.566530	0.599010	0.067210
O451	O45	0.600320	0.594940	0.657770
Ni161	Ni16	0.034900	0.383770	0.855470
C611	C61	0.118800	0.323250	0.712230
C621	C62	0.118440	0.336070	0.913480
C631	C63	0.166300	0.346150	0.034580
H161	H16	0.166010	0.356100	0.190890
C641	C64	0.067330	0.312410	0.581990
O461	O46	0.023850	0.314880	0.654200
O471	O47	0.067660	0.300860	0.400540
O481	O48	0.071730	0.338720	0.991100
Ni171	Ni17	0.701570	0.717100	0.188800
C651	C65	0.785470	0.656580	0.045560
C661	C66	0.785110	0.669400	0.246810
C671	C67	0.832970	0.679480	0.367910
H171	H17	0.832680	0.689430	0.524220
C681	C68	0.734000	0.645740	0.915320
O491	O49	0.690520	0.648210	0.987530
O501	O50	0.734330	0.634190	0.733870
O511	O51	0.738400	0.672050	0.324430
Ni181	Ni18	0.368230	0.050440	0.522140
C691	C69	0.452130	0.989920	0.378900
C701	C70	0.451770	0.002740	0.580150
C711	C71	0.499630	0.012820	0.701250
H181	H18	0.499340	0.022770	0.857560
C721	C72	0.400660	0.979080	0.248660
O521	O52	0.357180	0.981550	0.320870
O531	O53	0.400990	0.967530	0.067210
O541	O54	0.405060	0.005390	0.657770
