data_OROMAK_freeONLY_PM
_symmetry_space_group_name_H-M	'P1'
_cell_length_a	7.778200
_cell_length_b	9.917400
_cell_length_c	12.794600
_cell_angle_alpha	99.559000
_cell_angle_beta	94.030000
_cell_angle_gamma	94.803000
_symmetry_Int_Tables_number 1

loop_
_symmetry_equiv_pos_as_xyz
'x,y,z'

loop_
_atom_site_label
_atom_site_type_symbol
_atom_site_fract_x
_atom_site_fract_y
_atom_site_fract_z
Zn11	Zn1	0.060720	0.618080	0.136470
Zn21	Zn2	0.454310	0.144240	0.123160
Zn31	Zn3	0.770070	0.563770	0.500600
P11	P1	0.078320	0.663810	0.391250
H11	H1	0.222000	0.748000	0.437000
P21	P2	0.239420	0.368860	0.040320
H21	H2	0.388000	0.452000	0.055000
P31	P3	0.514330	0.352050	0.346720
H31	H3	0.432000	0.438000	0.296000
P41	P4	0.259250	0.854310	0.042320
H41	H4	0.101000	0.903000	0.031000
O11	O1	0.047500	0.702000	0.283130
O21	O2	0.930100	0.704000	0.458150
O31	O3	0.114200	0.516200	0.387960
O41	O4	0.166100	0.370700	0.928790
O51	O5	0.272200	0.225700	0.056900
O61	O6	0.125700	0.432200	0.124340
O71	O7	0.697200	0.420500	0.380080
O81	O8	0.414300	0.336200	0.441640
O91	O9	0.520700	0.217700	0.272920
O101	O10	0.239700	0.716600	0.074800
O111	O11	0.371200	0.957200	0.124130
O121	O12	0.319400	0.846900	0.931620
Zn41	Zn4	0.939280	0.381920	0.863530
Zn51	Zn5	0.545690	0.855760	0.876840
Zn61	Zn6	0.229930	0.436230	0.499400
P51	P5	0.921680	0.336190	0.608750
H51	H5	0.778000	0.252000	0.563000
P61	P6	0.760580	0.631140	0.959680
H61	H6	0.612000	0.548000	0.945000
P71	P7	0.485670	0.647950	0.653280
H71	H7	0.568000	0.562000	0.704000
P81	P8	0.740750	0.145690	0.957680
H81	H8	0.899000	0.097000	0.969000
O131	O13	0.952500	0.298000	0.716870
O141	O14	0.069900	0.296000	0.541850
O151	O15	0.885800	0.483800	0.612040
O161	O16	0.833900	0.629300	0.071210
O171	O17	0.727800	0.774300	0.943100
O181	O18	0.874300	0.567800	0.875660
O191	O19	0.302800	0.579500	0.619920
O201	O20	0.585700	0.663800	0.558360
O211	O21	0.479300	0.782300	0.727080
O221	O22	0.760300	0.283400	0.925200
O231	O23	0.628800	0.042800	0.875870
O241	O24	0.680600	0.153100	0.068380
