data_OSIXIY_freeONLY_PM
_symmetry_space_group_name_H-M	'P1'
_cell_length_a	11.656300
_cell_length_b	11.931800
_cell_length_c	21.386600
_cell_angle_alpha	90.000000
_cell_angle_beta	90.000000
_cell_angle_gamma	113.844000
_symmetry_Int_Tables_number 1

loop_
_symmetry_equiv_pos_as_xyz
'x,y,z'

loop_
_atom_site_label
_atom_site_type_symbol
_atom_site_fract_x
_atom_site_fract_y
_atom_site_fract_z
Ag11	Ag1	0.465730	0.412060	0.813820
Ag21	Ag2	0.650850	0.323550	0.947100
Ag31	Ag3	0.555040	0.098940	0.813680
Ag41	Ag4	0.358970	0.181550	0.947710
Ag51	Ag5	0.034270	0.587940	0.313820
Ag61	Ag6	0.849150	0.676450	0.447100
Ag71	Ag7	0.944960	0.901060	0.313680
Ag81	Ag8	0.141030	0.818450	0.447710
Ag91	Ag9	0.534270	0.587940	0.186180
Ag101	Ag10	0.349150	0.676450	0.052900
Ag111	Ag11	0.444960	0.901060	0.186320
Ag121	Ag12	0.641030	0.818450	0.052290
Ag131	Ag13	0.965730	0.412060	0.686180
Ag141	Ag14	0.150850	0.323550	0.552900
Ag151	Ag15	0.055040	0.098940	0.686320
Ag161	Ag16	0.858970	0.181550	0.552290
H11	H1	0.704600	0.461300	0.712900
H21	H2	0.864600	0.267300	0.876800
H31	H3	0.959300	0.320900	0.821600
H41	H4	0.052600	0.411800	0.913100
H51	H5	0.944500	0.455100	0.926000
H61	H6	0.037200	0.511300	0.870200
H71	H7	0.633300	0.897100	0.903700
H81	H8	0.647100	0.190800	0.073300
H91	H9	0.644800	0.067400	0.099800
H101	H10	0.830500	0.226100	0.126700
H111	H11	0.860600	0.260500	0.056100
H121	H12	0.858800	0.136700	0.081700
H131	H13	0.312000	0.039700	0.713300
H141	H14	0.155600	0.240600	0.876400
H151	H15	0.062100	0.189800	0.820400
H161	H16	0.964500	0.097200	0.911200
H171	H17	0.979200	0.997600	0.868000
H181	H18	0.070500	0.051300	0.924600
H191	H19	0.396900	0.615800	0.904800
H201	H20	0.317400	0.421700	0.097400
H211	H21	0.329300	0.303500	0.072500
H221	H22	0.133900	0.255200	0.109900
H231	H23	0.115000	0.348900	0.064000
H241	H24	0.126600	0.231300	0.037600
H251	H25	0.795400	0.538700	0.212900
H261	H26	0.635400	0.732700	0.376800
H271	H27	0.540700	0.679100	0.321600
H281	H28	0.447400	0.588200	0.413100
H291	H29	0.555500	0.544900	0.426000
H301	H30	0.462800	0.488700	0.370200
H311	H31	0.866700	0.102900	0.403700
H321	H32	0.852900	0.809200	0.573300
H331	H33	0.855200	0.932600	0.599800
H341	H34	0.669500	0.773900	0.626700
H351	H35	0.639400	0.739500	0.556100
H361	H36	0.641200	0.863300	0.581700
H371	H37	0.188000	0.960300	0.213300
H381	H38	0.344400	0.759400	0.376400
H391	H39	0.437900	0.810200	0.320400
H401	H40	0.535500	0.902800	0.411200
H411	H41	0.520800	0.002400	0.368000
H421	H42	0.429500	0.948700	0.424600
H431	H43	0.103100	0.384200	0.404800
H441	H44	0.182600	0.578300	0.597400
H451	H45	0.170700	0.696500	0.572500
H461	H46	0.366100	0.744800	0.609900
H471	H47	0.385000	0.651100	0.564000
H481	H48	0.373400	0.768700	0.537600
H491	H49	0.295400	0.538700	0.287100
H501	H50	0.135400	0.732700	0.123200
H511	H51	0.040700	0.679100	0.178400
H521	H52	0.947400	0.588200	0.086900
H531	H53	0.055500	0.544900	0.074000
H541	H54	0.962800	0.488700	0.129800
H551	H55	0.366700	0.102900	0.096300
H561	H56	0.352900	0.809200	0.926700
H571	H57	0.355200	0.932600	0.900200
H581	H58	0.169500	0.773900	0.873300
H591	H59	0.139400	0.739500	0.943900
H601	H60	0.141200	0.863300	0.918300
H611	H61	0.688000	0.960300	0.286700
H621	H62	0.844400	0.759400	0.123600
H631	H63	0.937900	0.810200	0.179600
H641	H64	0.035500	0.902800	0.088800
H651	H65	0.020800	0.002400	0.132000
H661	H66	0.929500	0.948700	0.075400
H671	H67	0.603100	0.384200	0.095200
H681	H68	0.682600	0.578300	0.902600
H691	H69	0.670700	0.696500	0.927500
H701	H70	0.866100	0.744800	0.890100
H711	H71	0.885000	0.651100	0.936000
H721	H72	0.873400	0.768700	0.962400
H731	H73	0.204600	0.461300	0.787100
H741	H74	0.364600	0.267300	0.623200
H751	H75	0.459300	0.320900	0.678400
H761	H76	0.552600	0.411800	0.586900
H771	H77	0.444500	0.455100	0.574000
H781	H78	0.537200	0.511300	0.629800
H791	H79	0.133300	0.897100	0.596300
H801	H80	0.147100	0.190800	0.426700
H811	H81	0.144800	0.067400	0.400200
H821	H82	0.330500	0.226100	0.373300
H831	H83	0.360600	0.260500	0.443900
H841	H84	0.358800	0.136700	0.418300
H851	H85	0.812000	0.039700	0.786700
H861	H86	0.655600	0.240600	0.623600
H871	H87	0.562100	0.189800	0.679600
H881	H88	0.464500	0.097200	0.588800
H891	H89	0.479200	0.997600	0.632000
H901	H90	0.570500	0.051300	0.575400
H911	H91	0.896900	0.615800	0.595200
H921	H92	0.817400	0.421700	0.402600
H931	H93	0.829300	0.303500	0.427500
H941	H94	0.633900	0.255200	0.390100
H951	H95	0.615000	0.348900	0.436000
H961	H96	0.626600	0.231300	0.462400
C11	C1	0.814700	0.374300	0.818550
C21	C2	0.723200	0.432500	0.750340
C31	C3	0.908800	0.340400	0.852200
C41	C4	0.993200	0.438300	0.894100
C51	C5	0.662200	0.078800	0.005180
C61	C6	0.639500	0.963600	0.928300
C71	C7	0.685100	0.132300	0.069670
C81	C8	0.820700	0.194400	0.084900
C91	C9	0.203900	0.133000	0.818140
C101	C10	0.294300	0.070300	0.750380
C111	C11	0.110900	0.168300	0.851230
C121	C12	0.023400	0.069800	0.892400
C131	C13	0.333900	0.420900	0.003180
C141	C14	0.380900	0.545500	0.928320
C151	C15	0.289900	0.359900	0.064900
C161	C16	0.154900	0.293200	0.069500
C171	C17	0.685300	0.625700	0.318550
C181	C18	0.776800	0.567500	0.250340
C191	C19	0.591200	0.659600	0.352200
C201	C20	0.506800	0.561700	0.394100
C211	C21	0.837800	0.921200	0.505180
C221	C22	0.860500	0.036400	0.428300
C231	C23	0.814900	0.867700	0.569670
C241	C24	0.679300	0.805600	0.584900
C251	C25	0.296100	0.867000	0.318140
C261	C26	0.205700	0.929700	0.250380
C271	C27	0.389100	0.831700	0.351230
C281	C28	0.476600	0.930200	0.392400
C291	C29	0.166100	0.579100	0.503180
C301	C30	0.119100	0.454500	0.428320
C311	C31	0.210100	0.640100	0.564900
C321	C32	0.345100	0.706800	0.569500
C331	C33	0.185300	0.625700	0.181450
C341	C34	0.276800	0.567500	0.249660
C351	C35	0.091200	0.659600	0.147800
C361	C36	0.006800	0.561700	0.105900
C371	C37	0.337800	0.921200	0.994820
C381	C38	0.360500	0.036400	0.071700
C391	C39	0.314900	0.867700	0.930330
C401	C40	0.179300	0.805600	0.915100
C411	C41	0.796100	0.867000	0.181860
C421	C42	0.705700	0.929700	0.249620
C431	C43	0.889100	0.831700	0.148770
C441	C44	0.976600	0.930200	0.107600
C451	C45	0.666100	0.579100	0.996820
C461	C46	0.619100	0.454500	0.071680
C471	C47	0.710100	0.640100	0.935100
C481	C48	0.845100	0.706800	0.930500
C491	C49	0.314700	0.374300	0.681450
C501	C50	0.223200	0.432500	0.749660
C511	C51	0.408800	0.340400	0.647800
C521	C52	0.493200	0.438300	0.605900
C531	C53	0.162200	0.078800	0.494820
C541	C54	0.139500	0.963600	0.571700
C551	C55	0.185100	0.132300	0.430330
C561	C56	0.320700	0.194400	0.415100
C571	C57	0.703900	0.133000	0.681860
C581	C58	0.794300	0.070300	0.749620
C591	C59	0.610900	0.168300	0.648770
C601	C60	0.523400	0.069800	0.607600
C611	C61	0.833900	0.420900	0.496820
C621	C62	0.880900	0.545500	0.571680
C631	C63	0.789900	0.359900	0.435100
C641	C64	0.654900	0.293200	0.430500
N11	N1	0.708500	0.366600	0.844310
N21	N2	0.648600	0.405500	0.799280
N31	N3	0.828800	0.414800	0.759360
N41	N4	0.646000	0.137900	0.956280
N51	N5	0.630400	0.061700	0.905570
N61	N6	0.658600	0.968000	0.990250
N71	N7	0.310400	0.140400	0.843730
N81	N8	0.369400	0.098800	0.798920
N91	N9	0.189100	0.089700	0.759090
N101	N10	0.360600	0.365900	0.955020
N111	N11	0.391600	0.448000	0.906150
N121	N12	0.344300	0.534100	0.988670
N131	N13	0.791500	0.633400	0.344310
N141	N14	0.851400	0.594500	0.299280
N151	N15	0.671200	0.585200	0.259360
N161	N16	0.854000	0.862100	0.456280
N171	N17	0.869600	0.938300	0.405570
N181	N18	0.841400	0.032000	0.490250
N191	N19	0.189600	0.859600	0.343730
N201	N20	0.130600	0.901200	0.298920
N211	N21	0.310900	0.910300	0.259090
N221	N22	0.139400	0.634100	0.455020
N231	N23	0.108400	0.552000	0.406150
N241	N24	0.155700	0.465900	0.488670
N251	N25	0.291500	0.633400	0.155690
N261	N26	0.351400	0.594500	0.200720
N271	N27	0.171200	0.585200	0.240640
N281	N28	0.354000	0.862100	0.043720
N291	N29	0.369600	0.938300	0.094430
N301	N30	0.341400	0.032000	0.009750
N311	N31	0.689600	0.859600	0.156270
N321	N32	0.630600	0.901200	0.201080
N331	N33	0.810900	0.910300	0.240910
N341	N34	0.639400	0.634100	0.044980
N351	N35	0.608400	0.552000	0.093850
N361	N36	0.655700	0.465900	0.011330
N371	N37	0.208500	0.366600	0.655690
N381	N38	0.148600	0.405500	0.700720
N391	N39	0.328800	0.414800	0.740640
N401	N40	0.146000	0.137900	0.543720
N411	N41	0.130400	0.061700	0.594430
N421	N42	0.158600	0.968000	0.509750
N431	N43	0.810400	0.140400	0.656270
N441	N44	0.869400	0.098800	0.701080
N451	N45	0.689100	0.089700	0.740910
N461	N46	0.860600	0.365900	0.544980
N471	N47	0.891600	0.448000	0.593850
N481	N48	0.844300	0.534100	0.511330
