data_OSUVIJ_freeONLY_PM
_symmetry_space_group_name_H-M	'P1'
_cell_length_a	10.423700
_cell_length_b	14.728100
_cell_length_c	25.599000
_cell_angle_alpha	81.665000
_cell_angle_beta	82.260000
_cell_angle_gamma	71.667000
_symmetry_Int_Tables_number 1

loop_
_symmetry_equiv_pos_as_xyz
'x,y,z'

loop_
_atom_site_label
_atom_site_type_symbol
_atom_site_fract_x
_atom_site_fract_y
_atom_site_fract_z
U11	U1	0.035880	0.574060	0.325230
U21	U2	0.525210	0.098640	0.826110
Si11	Si1	0.721900	0.110170	0.472360
Si21	Si2	0.157200	0.637000	0.969180
O11	O1	0.353900	0.154000	0.817300
O21	O2	0.478000	0.947100	0.829200
O31	O3	0.551600	0.039700	0.739500
O41	O4	0.610000	0.171600	0.738900
O51	O5	0.485100	0.176400	0.908000
O61	O6	0.541400	0.257300	0.834100
O71	O7	0.469000	0.996500	0.906000
O81	O8	0.848400	0.720700	0.337000
O91	O9	0.942700	0.642300	0.409100
O101	O10	0.134900	0.470400	0.405300
O111	O11	0.232200	0.427200	0.326700
O121	O12	0.136500	0.524300	0.238500
O131	O13	0.957100	0.653300	0.238000
O141	O14	0.146700	0.645000	0.319400
O151	O15	0.924700	0.504500	0.330300
C11	C1	0.744500	0.162100	0.574600
H11	H1	0.796400	0.201400	0.556000
C21	C2	0.704000	0.104300	0.546800
C31	C3	0.711800	0.164600	0.629000
H21	H2	0.736500	0.207800	0.646900
C41	C4	0.642500	0.103100	0.656700
C51	C5	0.748400	0.988100	0.451400
C61	C6	0.834400	0.906100	0.476700
H31	H3	0.868300	0.910500	0.508600
C71	C7	0.871700	0.818200	0.456700
H41	H4	0.931900	0.763000	0.474100
C81	C8	0.819200	0.811600	0.409800
C91	C9	0.870600	0.720500	0.384000
C101	C10	0.598000	0.104400	0.714400
C111	C11	0.053700	0.595300	0.212700
C121	C12	0.565500	0.199300	0.447600
C131	C13	0.444800	0.237300	0.477700
H51	H5	0.435900	0.214600	0.514300
C141	C14	0.335500	0.308300	0.455800
H61	H6	0.254800	0.334000	0.477800
C151	C15	0.343500	0.341600	0.402100
C161	C16	0.462100	0.301200	0.369900
H71	H7	0.467500	0.319600	0.332700
C171	C17	0.571500	0.234100	0.392900
H81	H8	0.653600	0.210500	0.371200
C181	C18	0.693200	0.978400	0.405900
H91	H9	0.630700	0.032800	0.388900
C191	C19	0.729800	0.889600	0.385600
H101	H10	0.692100	0.883700	0.354900
C201	C20	0.869000	0.247100	0.440400
H111	H11	0.797700	0.289000	0.460600
C211	C21	0.866000	0.152000	0.439000
C221	C22	0.973300	0.094500	0.407700
H121	H12	0.976900	0.029800	0.405800
C231	C23	0.604000	0.041600	0.630000
H131	H13	0.558000	0.998800	0.649100
C241	C24	0.633000	0.043000	0.575300
H141	H14	0.604500	0.002100	0.557000
C251	C25	0.488700	0.254100	0.882800
C261	C26	0.422800	0.348400	0.906400
C271	C27	0.359400	0.345800	0.957200
H151	H15	0.365800	0.286200	0.978200
C281	C28	0.230300	0.416500	0.378000
C291	C29	0.076800	0.607200	0.154600
C301	C30	0.206200	0.583100	0.129000
H161	H16	0.281600	0.559400	0.149600
C311	C31	0.966900	0.643800	0.122600
H171	H17	0.876800	0.663800	0.139100
C321	C32	0.971100	0.280900	0.413600
H181	H18	0.970400	0.345000	0.415700
C331	C33	0.074800	0.221100	0.383500
H191	H19	0.146700	0.243600	0.365600
C341	C34	0.074000	0.129300	0.379600
H201	H20	0.143000	0.089600	0.357500
C351	C35	0.988000	0.651000	0.068300
H211	H21	0.912800	0.673400	0.047600
C361	C36	0.229000	0.592200	0.075300
H221	H22	0.319800	0.575800	0.059300
C371	C37	0.413200	0.435700	0.874800
H231	H23	0.455700	0.437100	0.839600
C381	C38	0.340600	0.519500	0.896300
H241	H24	0.335400	0.578900	0.875200
C391	C39	0.284800	0.433300	0.977200
H251	H25	0.240500	0.431900	0.012100
C401	C40	0.234700	0.734500	0.945800
C411	C41	0.311100	0.766500	0.976000
H261	H26	0.315000	0.742400	0.012400
C421	C42	0.380700	0.831100	0.955600
H271	H27	0.427100	0.852800	0.978400
C431	C43	0.122100	0.625100	0.043100
C441	C44	0.273900	0.521600	0.947400
C451	C45	0.000600	0.671800	0.934300
C461	C46	0.967400	0.613500	0.904100
H281	H28	0.026800	0.549900	0.902300
C471	C47	0.853900	0.641100	0.876500
H291	H29	0.836400	0.597500	0.856500
C481	C48	0.322500	0.828800	0.871500
H301	H30	0.333900	0.844000	0.834200
C491	C49	0.383700	0.863900	0.903600
C501	C50	0.908000	0.761200	0.937500
H311	H31	0.924500	0.804000	0.958300
C511	C51	0.766900	0.732400	0.878400
H321	H32	0.692900	0.753900	0.857100
C521	C52	0.240900	0.769000	0.893900
H331	H33	0.188300	0.752500	0.871300
C531	C53	0.784000	0.793000	0.910200
H341	H34	0.718800	0.853700	0.914500
O161	O16	0.694000	0.044300	0.834800
C541	C54	0.450400	0.936600	0.879000
U31	U3	0.964120	0.425940	0.674770
U41	U4	0.474790	0.901360	0.173890
Si31	Si3	0.278100	0.889830	0.527640
Si41	Si4	0.842800	0.363000	0.030820
O171	O17	0.646100	0.846000	0.182700
O181	O18	0.522000	0.052900	0.170800
O191	O19	0.448400	0.960300	0.260500
O201	O20	0.390000	0.828400	0.261100
O211	O21	0.514900	0.823600	0.092000
O221	O22	0.458600	0.742700	0.165900
O231	O23	0.531000	0.003500	0.094000
O241	O24	0.151600	0.279300	0.663000
O251	O25	0.057300	0.357700	0.590900
O261	O26	0.865100	0.529600	0.594700
O271	O27	0.767800	0.572800	0.673300
O281	O28	0.863500	0.475700	0.761500
O291	O29	0.042900	0.346700	0.762000
O301	O30	0.853300	0.355000	0.680600
O311	O31	0.075300	0.495500	0.669700
C551	C55	0.255500	0.837900	0.425400
H351	H35	0.203600	0.798600	0.444000
C561	C56	0.296000	0.895700	0.453200
C571	C57	0.288200	0.835400	0.371000
H361	H36	0.263500	0.792200	0.353100
C581	C58	0.357500	0.896900	0.343300
C591	C59	0.251600	0.011900	0.548600
C601	C60	0.165600	0.093900	0.523300
H371	H37	0.131700	0.089500	0.491400
C611	C61	0.128300	0.181800	0.543300
H381	H38	0.068100	0.237000	0.525900
C621	C62	0.180800	0.188400	0.590200
C631	C63	0.129400	0.279500	0.616000
C641	C64	0.402000	0.895600	0.285600
C651	C65	0.946300	0.404700	0.787300
C661	C66	0.434500	0.800700	0.552400
C671	C67	0.555200	0.762700	0.522300
H391	H39	0.564100	0.785400	0.485700
C681	C68	0.664500	0.691700	0.544200
H401	H40	0.745200	0.666000	0.522200
C691	C69	0.656500	0.658400	0.597900
C701	C70	0.537900	0.698800	0.630100
H411	H41	0.532500	0.680400	0.667300
C711	C71	0.428500	0.765900	0.607100
H421	H42	0.346400	0.789500	0.628800
C721	C72	0.306800	0.021600	0.594100
H431	H43	0.369300	0.967200	0.611100
C731	C73	0.270200	0.110400	0.614400
H441	H44	0.307900	0.116300	0.645100
C741	C74	0.131000	0.752900	0.559600
H451	H45	0.202300	0.711000	0.539400
C751	C75	0.134000	0.848000	0.561000
C761	C76	0.026700	0.905500	0.592300
H461	H46	0.023100	0.970200	0.594200
C771	C77	0.396000	0.958400	0.370000
H471	H47	0.442000	0.001200	0.350900
C781	C78	0.367000	0.957000	0.424700
H481	H48	0.395500	0.997900	0.443000
C791	C79	0.511300	0.745900	0.117200
C801	C80	0.577200	0.651600	0.093600
C811	C81	0.640600	0.654200	0.042800
H491	H49	0.634200	0.713800	0.021800
C821	C82	0.769700	0.583500	0.622000
C831	C83	0.923200	0.392800	0.845400
C841	C84	0.793800	0.416900	0.871000
H501	H50	0.718400	0.440600	0.850400
C851	C85	0.033100	0.356200	0.877400
H511	H51	0.123200	0.336200	0.860900
C861	C86	0.028900	0.719100	0.586400
H521	H52	0.029600	0.655000	0.584300
C871	C87	0.925200	0.778900	0.616500
H531	H53	0.853300	0.756400	0.634400
C881	C88	0.926000	0.870700	0.620400
H541	H54	0.857000	0.910400	0.642500
C891	C89	0.012000	0.349000	0.931700
H551	H55	0.087200	0.326600	0.952400
C901	C90	0.771000	0.407800	0.924700
H561	H56	0.680200	0.424200	0.940700
C911	C91	0.586800	0.564300	0.125200
H571	H57	0.544300	0.562900	0.160400
C921	C92	0.659400	0.480500	0.103700
H581	H58	0.664600	0.421100	0.124800
C931	C93	0.715200	0.566700	0.022800
H591	H59	0.759500	0.568100	0.987900
C941	C94	0.765300	0.265500	0.054200
C951	C95	0.688900	0.233500	0.024000
H601	H60	0.685000	0.257600	0.987600
C961	C96	0.619300	0.168900	0.044400
H611	H61	0.572900	0.147200	0.021600
C971	C97	0.877900	0.374900	0.956900
C981	C98	0.726100	0.478400	0.052600
C991	C99	0.999400	0.328200	0.065700
C1001	C100	0.032600	0.386500	0.095900
H621	H62	0.973200	0.450100	0.097700
C1011	C101	0.146100	0.358900	0.123500
H631	H63	0.163600	0.402500	0.143500
C1021	C102	0.677500	0.171200	0.128500
H641	H64	0.666100	0.156000	0.165800
C1031	C103	0.616300	0.136100	0.096400
C1041	C104	0.092000	0.238800	0.062500
H651	H65	0.075500	0.196000	0.041700
C1051	C105	0.233100	0.267600	0.121600
H661	H66	0.307100	0.246100	0.142900
C1061	C106	0.759100	0.231000	0.106100
H671	H67	0.811700	0.247500	0.128700
C1071	C107	0.216000	0.207000	0.089800
H681	H68	0.281200	0.146300	0.085500
O321	O32	0.306000	0.955700	0.165200
C1081	C108	0.549600	0.063400	0.121000
