data_OSUWEF_freeONLY_PM
_symmetry_space_group_name_H-M	'P1'
_cell_length_a	24.704000
_cell_length_b	5.709800
_cell_length_c	26.335000
_cell_angle_alpha	90.000000
_cell_angle_beta	114.870000
_cell_angle_gamma	90.000000
_symmetry_Int_Tables_number 1

loop_
_symmetry_equiv_pos_as_xyz
'x,y,z'

loop_
_atom_site_label
_atom_site_type_symbol
_atom_site_fract_x
_atom_site_fract_y
_atom_site_fract_z
Zn11	Zn1	0.257230	0.223600	0.539890
S11	S1	0.100700	0.019400	0.721250
S21	S2	0.506560	0.463900	0.392740
O11	O1	0.241700	0.837900	0.551030
O21	O2	0.220300	0.479600	0.570970
O31	O3	0.838100	0.506300	0.574900
O41	O4	0.816890	0.859800	0.537350
O51	O5	0.123800	0.882600	0.771580
O61	O6	0.103700	0.271500	0.724700
O71	O7	0.305450	0.455900	0.502190
O81	O8	0.518960	0.711700	0.396480
O91	O9	0.554870	0.297900	0.417970
O101	O10	0.332300	0.351800	0.116870
O111	O11	0.361500	0.982800	0.139970
O121	O12	0.319280	0.073300	0.500060
C11	C1	0.220800	0.697000	0.575000
C21	C2	0.193100	0.789300	0.612700
C31	C3	0.163800	0.005400	0.603400
H11	H1	0.163800	0.103500	0.575200
C41	C4	0.135600	0.072300	0.635400
H21	H2	0.115200	0.214000	0.628300
C51	C5	0.137100	0.929700	0.678800
C61	C6	0.167000	0.717000	0.689100
H31	H3	0.168700	0.622200	0.718400
C71	C7	0.193800	0.649200	0.656000
H41	H4	0.213200	0.505300	0.662500
C81	C8	0.025100	0.938800	0.681400
C91	C9	0.989100	0.084600	0.638700
H51	H5	0.003400	0.227900	0.632800
C101	C10	0.932100	0.015100	0.605200
H61	H6	0.907600	0.112900	0.576500
C111	C11	0.910600	0.804100	0.613300
C121	C12	0.946500	0.658300	0.656600
H71	H7	0.931700	0.516000	0.662400
C131	C13	0.004400	0.724900	0.691200
H81	H8	0.028900	0.628400	0.720200
C141	C14	0.849200	0.714200	0.571300
C151	C15	0.330100	0.280300	0.490500
C161	C16	0.373300	0.325100	0.466000
C171	C17	0.373800	0.538900	0.440800
H91	H9	0.346400	0.654100	0.438700
C181	C18	0.414400	0.580800	0.419200
H101	H10	0.414500	0.724300	0.402600
C191	C19	0.455600	0.408300	0.422000
C201	C20	0.456000	0.196200	0.446000
H111	H11	0.483900	0.082400	0.448600
C211	C21	0.412700	0.154100	0.467000
H121	H12	0.410900	0.007700	0.481700
C221	C22	0.466700	0.388500	0.322100
C231	C23	0.425900	0.548100	0.285800
H131	H13	0.420700	0.693900	0.298800
C241	C24	0.393400	0.488300	0.230300
H141	H14	0.366600	0.595100	0.205900
C251	C25	0.400400	0.270200	0.210600
C261	C26	0.442600	0.115600	0.247200
H151	H15	0.448300	0.971400	0.233800
C271	C27	0.476100	0.170600	0.302800
H161	H16	0.504000	0.065800	0.326700
C281	C28	0.362000	0.193000	0.150800
Na11	Na1	0.650160	0.216300	0.425020
Na21	Na2	0.229200	0.779100	0.452510
O131	O13	0.232100	0.855700	0.368100
C291	C29	0.240500	0.130000	0.350100
H171	H17	0.225800	0.259800	0.361400
N11	N1	0.272100	0.146000	0.315900
C301	C30	0.269100	0.354000	0.293700
H181	H18	0.294700	0.359000	0.274600
H191	H19	0.281700	0.470500	0.322700
H201	H20	0.228800	0.385200	0.267600
C311	C31	0.318900	0.011000	0.311000
H211	H21	0.334800	0.095900	0.288900
H221	H22	0.303100	0.863900	0.293300
H231	H23	0.350100	0.983100	0.347600
Zn21	Zn2	0.742770	0.723600	0.960110
S31	S3	0.899300	0.519400	0.778750
S41	S4	0.493440	0.963900	0.107260
O141	O14	0.758300	0.337900	0.948970
O151	O15	0.779700	0.979600	0.929030
O161	O16	0.161900	0.006300	0.925100
O171	O17	0.183110	0.359800	0.962650
O181	O18	0.876200	0.382600	0.728420
O191	O19	0.896300	0.771500	0.775300
O201	O20	0.694550	0.955900	0.997810
O211	O21	0.481040	0.211700	0.103520
O221	O22	0.445130	0.797900	0.082030
O231	O23	0.667700	0.851800	0.383130
O241	O24	0.638500	0.482800	0.360030
O251	O25	0.680720	0.573300	0.999940
C321	C32	0.779200	0.197000	0.925000
C331	C33	0.806900	0.289300	0.887300
C341	C34	0.836200	0.505400	0.896600
H241	H24	0.836200	0.603500	0.924800
C351	C35	0.864400	0.572300	0.864600
H251	H25	0.884800	0.714000	0.871700
C361	C36	0.862900	0.429700	0.821200
C371	C37	0.833000	0.217000	0.810900
H261	H26	0.831300	0.122200	0.781600
C381	C38	0.806200	0.149200	0.844000
H271	H27	0.786800	0.005300	0.837500
C391	C39	0.974900	0.438800	0.818600
C401	C40	0.010900	0.584600	0.861300
H281	H28	0.996600	0.727900	0.867200
C411	C41	0.067900	0.515100	0.894800
H291	H29	0.092400	0.612900	0.923500
C421	C42	0.089400	0.304100	0.886700
C431	C43	0.053500	0.158300	0.843400
H301	H30	0.068300	0.016000	0.837600
C441	C44	0.995600	0.224900	0.808800
H311	H31	0.971100	0.128400	0.779800
C451	C45	0.150800	0.214200	0.928700
C461	C46	0.669900	0.780300	0.009500
C471	C47	0.626700	0.825100	0.034000
C481	C48	0.626200	0.038900	0.059200
H321	H32	0.653600	0.154100	0.061300
C491	C49	0.585600	0.080800	0.080800
H331	H33	0.585500	0.224300	0.097400
C501	C50	0.544400	0.908300	0.078000
C511	C51	0.544000	0.696200	0.054000
H341	H34	0.516100	0.582400	0.051400
C521	C52	0.587300	0.654100	0.033000
H351	H35	0.589100	0.507700	0.018300
C531	C53	0.533300	0.888500	0.177900
C541	C54	0.574100	0.048100	0.214200
H361	H36	0.579300	0.193900	0.201200
C551	C55	0.606600	0.988300	0.269700
H371	H37	0.633400	0.095100	0.294100
C561	C56	0.599600	0.770200	0.289400
C571	C57	0.557400	0.615600	0.252800
H381	H38	0.551700	0.471400	0.266200
C581	C58	0.523900	0.670600	0.197200
H391	H39	0.496000	0.565800	0.173300
C591	C59	0.638000	0.693000	0.349200
Na31	Na3	0.349840	0.716300	0.074980
Na41	Na4	0.770800	0.279100	0.047490
O261	O26	0.767900	0.355700	0.131900
C601	C60	0.759500	0.630000	0.149900
H401	H40	0.774200	0.759800	0.138600
N21	N2	0.727900	0.646000	0.184100
C611	C61	0.730900	0.854000	0.206300
H411	H41	0.705300	0.859000	0.225400
H421	H42	0.718300	0.970500	0.177300
H431	H43	0.771200	0.885200	0.232400
C621	C62	0.681100	0.511000	0.189000
H441	H44	0.665200	0.595900	0.211100
H451	H45	0.696900	0.363900	0.206700
H461	H46	0.649900	0.483100	0.152400
Zn31	Zn3	0.742770	0.776400	0.460110
S51	S5	0.899300	0.980600	0.278750
S61	S6	0.493440	0.536100	0.607260
O271	O27	0.758300	0.162100	0.448970
O281	O28	0.779700	0.520400	0.429030
O291	O29	0.161900	0.493700	0.425100
O301	O30	0.183110	0.140200	0.462650
O311	O31	0.876200	0.117400	0.228420
O321	O32	0.896300	0.728500	0.275300
O331	O33	0.694550	0.544100	0.497810
O341	O34	0.481040	0.288300	0.603520
O351	O35	0.445130	0.702100	0.582030
O361	O36	0.667700	0.648200	0.883130
O371	O37	0.638500	0.017200	0.860030
O381	O38	0.680720	0.926700	0.499940
C631	C63	0.779200	0.303000	0.425000
C641	C64	0.806900	0.210700	0.387300
C651	C65	0.836200	0.994600	0.396600
H471	H47	0.836200	0.896500	0.424800
C661	C66	0.864400	0.927700	0.364600
H481	H48	0.884800	0.786000	0.371700
C671	C67	0.862900	0.070300	0.321200
C681	C68	0.833000	0.283000	0.310900
H491	H49	0.831300	0.377800	0.281600
C691	C69	0.806200	0.350800	0.344000
H501	H50	0.786800	0.494700	0.337500
C701	C70	0.974900	0.061200	0.318600
C711	C71	0.010900	0.915400	0.361300
H511	H51	0.996600	0.772100	0.367200
C721	C72	0.067900	0.984900	0.394800
H521	H52	0.092400	0.887100	0.423500
C731	C73	0.089400	0.195900	0.386700
C741	C74	0.053500	0.341700	0.343400
H531	H53	0.068300	0.484000	0.337600
C751	C75	0.995600	0.275100	0.308800
H541	H54	0.971100	0.371600	0.279800
C761	C76	0.150800	0.285800	0.428700
C771	C77	0.669900	0.719700	0.509500
C781	C78	0.626700	0.674900	0.534000
C791	C79	0.626200	0.461100	0.559200
H551	H55	0.653600	0.345900	0.561300
C801	C80	0.585600	0.419200	0.580800
H561	H56	0.585500	0.275700	0.597400
C811	C81	0.544400	0.591700	0.578000
C821	C82	0.544000	0.803800	0.554000
H571	H57	0.516100	0.917600	0.551400
C831	C83	0.587300	0.845900	0.533000
H581	H58	0.589100	0.992300	0.518300
C841	C84	0.533300	0.611500	0.677900
C851	C85	0.574100	0.451900	0.714200
H591	H59	0.579300	0.306100	0.701200
C861	C86	0.606600	0.511700	0.769700
H601	H60	0.633400	0.404900	0.794100
C871	C87	0.599600	0.729800	0.789400
C881	C88	0.557400	0.884400	0.752800
H611	H61	0.551700	0.028600	0.766200
C891	C89	0.523900	0.829400	0.697200
H621	H62	0.496000	0.934200	0.673300
C901	C90	0.638000	0.807000	0.849200
Na51	Na5	0.349840	0.783700	0.574980
Na61	Na6	0.770800	0.220900	0.547490
O391	O39	0.767900	0.144300	0.631900
C911	C91	0.759500	0.870000	0.649900
H631	H63	0.774200	0.740200	0.638600
N31	N3	0.727900	0.854000	0.684100
C921	C92	0.730900	0.646000	0.706300
H641	H64	0.705300	0.641000	0.725400
H651	H65	0.718300	0.529500	0.677300
H661	H66	0.771200	0.614800	0.732400
C931	C93	0.681100	0.989000	0.689000
H671	H67	0.665200	0.904100	0.711100
H681	H68	0.696900	0.136100	0.706700
H691	H69	0.649900	0.016900	0.652400
Zn41	Zn4	0.257230	0.276400	0.039890
S71	S7	0.100700	0.480600	0.221250
S81	S8	0.506560	0.036100	0.892740
O401	O40	0.241700	0.662100	0.051030
O411	O41	0.220300	0.020400	0.070970
O421	O42	0.838100	0.993700	0.074900
O431	O43	0.816890	0.640200	0.037350
O441	O44	0.123800	0.617400	0.271580
O451	O45	0.103700	0.228500	0.224700
O461	O46	0.305450	0.044100	0.002190
O471	O47	0.518960	0.788300	0.896480
O481	O48	0.554870	0.202100	0.917970
O491	O49	0.332300	0.148200	0.616870
O501	O50	0.361500	0.517200	0.639970
O511	O51	0.319280	0.426700	0.000060
C941	C94	0.220800	0.803000	0.075000
C951	C95	0.193100	0.710700	0.112700
C961	C96	0.163800	0.494600	0.103400
H701	H70	0.163800	0.396500	0.075200
C971	C97	0.135600	0.427700	0.135400
H711	H71	0.115200	0.286000	0.128300
C981	C98	0.137100	0.570300	0.178800
C991	C99	0.167000	0.783000	0.189100
H721	H72	0.168700	0.877800	0.218400
C1001	C100	0.193800	0.850800	0.156000
H731	H73	0.213200	0.994700	0.162500
C1011	C101	0.025100	0.561200	0.181400
C1021	C102	0.989100	0.415400	0.138700
H741	H74	0.003400	0.272100	0.132800
C1031	C103	0.932100	0.484900	0.105200
H751	H75	0.907600	0.387100	0.076500
C1041	C104	0.910600	0.695900	0.113300
C1051	C105	0.946500	0.841700	0.156600
H761	H76	0.931700	0.984000	0.162400
C1061	C106	0.004400	0.775100	0.191200
H771	H77	0.028900	0.871600	0.220200
C1071	C107	0.849200	0.785800	0.071300
C1081	C108	0.330100	0.219700	0.990500
C1091	C109	0.373300	0.174900	0.966000
C1101	C110	0.373800	0.961100	0.940800
H781	H78	0.346400	0.845900	0.938700
C1111	C111	0.414400	0.919200	0.919200
H791	H79	0.414500	0.775700	0.902600
C1121	C112	0.455600	0.091700	0.922000
C1131	C113	0.456000	0.303800	0.946000
H801	H80	0.483900	0.417600	0.948600
C1141	C114	0.412700	0.345900	0.967000
H811	H81	0.410900	0.492300	0.981700
C1151	C115	0.466700	0.111500	0.822100
C1161	C116	0.425900	0.951900	0.785800
H821	H82	0.420700	0.806100	0.798800
C1171	C117	0.393400	0.011700	0.730300
H831	H83	0.366600	0.904900	0.705900
C1181	C118	0.400400	0.229800	0.710600
C1191	C119	0.442600	0.384400	0.747200
H841	H84	0.448300	0.528600	0.733800
C1201	C120	0.476100	0.329400	0.802800
H851	H85	0.504000	0.434200	0.826700
C1211	C121	0.362000	0.307000	0.650800
Na71	Na7	0.650160	0.283700	0.925020
Na81	Na8	0.229200	0.720900	0.952510
O521	O52	0.232100	0.644300	0.868100
C1221	C122	0.240500	0.370000	0.850100
H861	H86	0.225800	0.240200	0.861400
N41	N4	0.272100	0.354000	0.815900
C1231	C123	0.269100	0.146000	0.793700
H871	H87	0.294700	0.141000	0.774600
H881	H88	0.281700	0.029500	0.822700
H891	H89	0.228800	0.114800	0.767600
C1241	C124	0.318900	0.489000	0.811000
H901	H90	0.334800	0.404100	0.788900
H911	H91	0.303100	0.636100	0.793300
H921	H92	0.350100	0.516900	0.847600
