data_OTABES_freeONLY_PM
_symmetry_space_group_name_H-M	'P1'
_cell_length_a	33.431700
_cell_length_b	7.152000
_cell_length_c	16.718100
_cell_angle_alpha	90.000000
_cell_angle_beta	90.000000
_cell_angle_gamma	90.000000
_symmetry_Int_Tables_number 1

loop_
_symmetry_equiv_pos_as_xyz
'x,y,z'

loop_
_atom_site_label
_atom_site_type_symbol
_atom_site_fract_x
_atom_site_fract_y
_atom_site_fract_z
O11	O1	0.789610	0.162700	0.908400
C11	C1	0.879610	0.157800	0.739200
C21	C2	0.849990	0.156300	0.800560
O21	O2	0.289610	0.662700	0.908400
C31	C3	0.379610	0.657800	0.739200
C41	C4	0.349990	0.656300	0.800560
O31	O3	0.210390	0.837300	0.908400
C51	C5	0.120390	0.842200	0.739200
C61	C6	0.150010	0.843700	0.800560
O41	O4	0.710390	0.337300	0.908400
C71	C7	0.620390	0.342200	0.739200
C81	C8	0.650010	0.343700	0.800560
O51	O5	0.210390	0.162700	0.091600
C91	C9	0.120390	0.157800	0.260800
C101	C10	0.150010	0.156300	0.199440
O61	O6	0.710390	0.662700	0.091600
C111	C11	0.620390	0.657800	0.260800
C121	C12	0.650010	0.656300	0.199440
O71	O7	0.789610	0.837300	0.091600
C131	C13	0.879610	0.842200	0.260800
C141	C14	0.849990	0.843700	0.199440
O81	O8	0.289610	0.337300	0.091600
C151	C15	0.379610	0.342200	0.260800
C161	C16	0.349990	0.343700	0.199440
O91	O9	0.210390	0.837300	0.091600
C171	C17	0.120390	0.842200	0.260800
C181	C18	0.150010	0.843700	0.199440
O101	O10	0.710390	0.337300	0.091600
C191	C19	0.620390	0.342200	0.260800
C201	C20	0.650010	0.343700	0.199440
O111	O11	0.789610	0.162700	0.091600
C211	C21	0.879610	0.157800	0.260800
C221	C22	0.849990	0.156300	0.199440
O121	O12	0.289610	0.662700	0.091600
C231	C23	0.379610	0.657800	0.260800
C241	C24	0.349990	0.656300	0.199440
O131	O13	0.789610	0.837300	0.908400
C251	C25	0.879610	0.842200	0.739200
C261	C26	0.849990	0.843700	0.800560
O141	O14	0.289610	0.337300	0.908400
C271	C27	0.379610	0.342200	0.739200
C281	C28	0.349990	0.343700	0.800560
O151	O15	0.210390	0.162700	0.908400
C291	C29	0.120390	0.157800	0.739200
C301	C30	0.150010	0.156300	0.800560
O161	O16	0.710390	0.662700	0.908400
C311	C31	0.620390	0.657800	0.739200
C321	C32	0.650010	0.656300	0.800560
C331	C33	0.801600	0.000000	0.897700
C341	C34	0.966650	0.000000	0.672800
C351	C35	0.979740	0.000000	0.752300
C361	C36	0.912340	0.000000	0.567900
C371	C37	0.873670	0.000000	0.540670
C381	C38	0.929290	0.000000	0.642100
C391	C39	0.896740	0.000000	0.704000
C401	C40	0.833320	0.000000	0.835600
C411	C41	0.301600	0.500000	0.897700
C421	C42	0.466650	0.500000	0.672800
C431	C43	0.479740	0.500000	0.752300
C441	C44	0.412340	0.500000	0.567900
C451	C45	0.373670	0.500000	0.540670
C461	C46	0.429290	0.500000	0.642100
C471	C47	0.396740	0.500000	0.704000
C481	C48	0.333320	0.500000	0.835600
C491	C49	0.198400	0.000000	0.897700
C501	C50	0.033350	0.000000	0.672800
C511	C51	0.020260	0.000000	0.752300
C521	C52	0.087660	0.000000	0.567900
C531	C53	0.126330	0.000000	0.540670
C541	C54	0.070710	0.000000	0.642100
C551	C55	0.103260	0.000000	0.704000
C561	C56	0.166680	0.000000	0.835600
C571	C57	0.698400	0.500000	0.897700
C581	C58	0.533350	0.500000	0.672800
C591	C59	0.520260	0.500000	0.752300
C601	C60	0.587660	0.500000	0.567900
C611	C61	0.626330	0.500000	0.540670
C621	C62	0.570710	0.500000	0.642100
C631	C63	0.603260	0.500000	0.704000
C641	C64	0.666680	0.500000	0.835600
C651	C65	0.198400	0.000000	0.102300
C661	C66	0.033350	0.000000	0.327200
C671	C67	0.020260	0.000000	0.247700
C681	C68	0.087660	0.000000	0.432100
C691	C69	0.126330	0.000000	0.459330
C701	C70	0.070710	0.000000	0.357900
C711	C71	0.103260	0.000000	0.296000
C721	C72	0.166680	0.000000	0.164400
C731	C73	0.698400	0.500000	0.102300
C741	C74	0.533350	0.500000	0.327200
C751	C75	0.520260	0.500000	0.247700
C761	C76	0.587660	0.500000	0.432100
C771	C77	0.626330	0.500000	0.459330
C781	C78	0.570710	0.500000	0.357900
C791	C79	0.603260	0.500000	0.296000
C801	C80	0.666680	0.500000	0.164400
C811	C81	0.801600	0.000000	0.102300
C821	C82	0.966650	0.000000	0.327200
C831	C83	0.979740	0.000000	0.247700
C841	C84	0.912340	0.000000	0.432100
C851	C85	0.873670	0.000000	0.459330
C861	C86	0.929290	0.000000	0.357900
C871	C87	0.896740	0.000000	0.296000
C881	C88	0.833320	0.000000	0.164400
C891	C89	0.301600	0.500000	0.102300
C901	C90	0.466650	0.500000	0.327200
C911	C91	0.479740	0.500000	0.247700
C921	C92	0.412340	0.500000	0.432100
C931	C93	0.373670	0.500000	0.459330
C941	C94	0.429290	0.500000	0.357900
C951	C95	0.396740	0.500000	0.296000
C961	C96	0.333320	0.500000	0.164400
N11	N1	0.939000	0.000000	0.500000
N21	N2	0.439000	0.500000	0.500000
N31	N3	0.061000	0.000000	0.500000
N41	N4	0.561000	0.500000	0.500000
N51	N5	0.000000	0.000000	0.621200
N61	N6	0.500000	0.500000	0.621200
N71	N7	0.000000	0.000000	0.378800
N81	N8	0.500000	0.500000	0.378800
In11	In1	0.750000	0.250000	0.000000
In21	In2	0.250000	0.750000	0.000000
In31	In3	0.250000	0.250000	0.000000
In41	In4	0.750000	0.750000	0.000000
O171	O17	0.730800	0.000000	0.000000
O181	O18	0.230800	0.500000	0.000000
O191	O19	0.269200	0.000000	0.000000
O201	O20	0.769200	0.500000	0.000000
