data_OTAVOV_freeONLY_PM
_symmetry_space_group_name_H-M	'P1'
_cell_length_a	10.139000
_cell_length_b	17.804000
_cell_length_c	20.010000
_cell_angle_alpha	90.000000
_cell_angle_beta	90.000000
_cell_angle_gamma	90.000000
_symmetry_Int_Tables_number 1

loop_
_symmetry_equiv_pos_as_xyz
'x,y,z'

loop_
_atom_site_label
_atom_site_type_symbol
_atom_site_fract_x
_atom_site_fract_y
_atom_site_fract_z
La11	La1	0.969390	0.750000	0.750000
La21	La2	0.530610	0.250000	0.250000
La31	La3	0.030610	0.250000	0.250000
La41	La4	0.469390	0.750000	0.750000
H11	H1	0.049800	0.940200	0.683400
H21	H2	0.374400	0.865100	0.537100
H31	H3	0.806100	0.940700	0.492000
H41	H4	0.126500	0.004900	0.590700
H51	H5	0.028600	0.753900	0.558600
H61	H6	0.318800	0.885600	0.425400
H71	H7	0.738300	0.873300	0.582300
H81	H8	0.124700	0.839200	0.382700
H91	H9	0.983300	0.774200	0.447000
H101	H10	0.165900	0.871900	0.781200
H111	H11	0.056900	0.886900	0.819700
H121	H12	0.049800	0.559800	0.816600
H131	H13	0.374400	0.634900	0.962900
H141	H14	0.806100	0.559300	0.008000
H151	H15	0.126500	0.495100	0.909300
H161	H16	0.028600	0.746100	0.941400
H171	H17	0.318800	0.614400	0.074600
H181	H18	0.738300	0.626700	0.917700
H191	H19	0.124700	0.660800	0.117300
H201	H20	0.983300	0.725800	0.053000
H211	H21	0.165900	0.628100	0.718800
H221	H22	0.056900	0.613100	0.680300
H231	H23	0.450200	0.059800	0.183400
H241	H24	0.125600	0.134900	0.037100
H251	H25	0.693900	0.059300	0.992000
H261	H26	0.373500	0.995100	0.090700
H271	H27	0.471400	0.246100	0.058600
H281	H28	0.181200	0.114400	0.925400
H291	H29	0.761700	0.126700	0.082300
H301	H30	0.375300	0.160800	0.882700
H311	H31	0.516700	0.225800	0.947000
H321	H32	0.334100	0.128100	0.281200
H331	H33	0.443100	0.113100	0.319700
H341	H34	0.450200	0.440200	0.316600
H351	H35	0.125600	0.365100	0.462900
H361	H36	0.693900	0.440700	0.508000
H371	H37	0.373500	0.504900	0.409300
H381	H38	0.471400	0.253900	0.441400
H391	H39	0.181200	0.385600	0.574600
H401	H40	0.761700	0.373300	0.417700
H411	H41	0.375300	0.339200	0.617300
H421	H42	0.516700	0.274200	0.553000
H431	H43	0.334100	0.371900	0.218800
H441	H44	0.443100	0.386900	0.180300
H451	H45	0.950200	0.059800	0.316600
H461	H46	0.625600	0.134900	0.462900
H471	H47	0.193900	0.059300	0.508000
H481	H48	0.873500	0.995100	0.409300
H491	H49	0.971400	0.246100	0.441400
H501	H50	0.681200	0.114400	0.574600
H511	H51	0.261700	0.126700	0.417700
H521	H52	0.875300	0.160800	0.617300
H531	H53	0.016700	0.225800	0.553000
H541	H54	0.834100	0.128100	0.218800
H551	H55	0.943100	0.113100	0.180300
H561	H56	0.950200	0.440200	0.183400
H571	H57	0.625600	0.365100	0.037100
H581	H58	0.193900	0.440700	0.992000
H591	H59	0.873500	0.504900	0.090700
H601	H60	0.971400	0.253900	0.058600
H611	H61	0.681200	0.385600	0.925400
H621	H62	0.261700	0.373300	0.082300
H631	H63	0.875300	0.339200	0.882700
H641	H64	0.016700	0.274200	0.947000
H651	H65	0.834100	0.371900	0.281200
H661	H66	0.943100	0.386900	0.319700
H671	H67	0.549800	0.940200	0.816600
H681	H68	0.874400	0.865100	0.962900
H691	H69	0.306100	0.940700	0.008000
H701	H70	0.626500	0.004900	0.909300
H711	H71	0.528600	0.753900	0.941400
H721	H72	0.818800	0.885600	0.074600
H731	H73	0.238300	0.873300	0.917700
H741	H74	0.624700	0.839200	0.117300
H751	H75	0.483300	0.774200	0.053000
H761	H76	0.665900	0.871900	0.718800
H771	H77	0.556900	0.886900	0.680300
H781	H78	0.549800	0.559800	0.683400
H791	H79	0.874400	0.634900	0.537100
H801	H80	0.306100	0.559300	0.492000
H811	H81	0.626500	0.495100	0.590700
H821	H82	0.528600	0.746100	0.558600
H831	H83	0.818800	0.614400	0.425400
H841	H84	0.238300	0.626700	0.582300
H851	H85	0.624700	0.660800	0.382700
H861	H86	0.483300	0.725800	0.447000
H871	H87	0.665900	0.628100	0.781200
H881	H88	0.556900	0.613100	0.819700
C11	C1	0.207500	0.807700	0.559400
C21	C2	0.001900	0.939300	0.643800
C31	C3	0.295400	0.847100	0.519700
C41	C4	0.975900	0.978900	0.529300
C51	C5	0.858700	0.939900	0.530100
C61	C6	0.047400	0.978600	0.588200
C71	C7	0.088000	0.780200	0.532000
C81	C8	0.262000	0.858800	0.453000
C91	C9	0.816700	0.900300	0.584100
C101	C10	0.145100	0.831000	0.427400
C111	C11	0.061000	0.792600	0.465500
C121	C12	0.235600	0.797200	0.632800
C131	C13	0.207500	0.692300	0.940600
C141	C14	0.001900	0.560700	0.856200
C151	C15	0.295400	0.652900	0.980300
C161	C16	0.975900	0.521100	0.970700
C171	C17	0.858700	0.560100	0.969900
C181	C18	0.047400	0.521400	0.911800
C191	C19	0.088000	0.719800	0.968000
C201	C20	0.262000	0.641200	0.047000
C211	C21	0.816700	0.599700	0.915900
C221	C22	0.145100	0.669000	0.072600
C231	C23	0.061000	0.707400	0.034500
C241	C24	0.235600	0.702800	0.867200
C251	C25	0.292500	0.192300	0.059400
C261	C26	0.498100	0.060700	0.143800
C271	C27	0.204600	0.152900	0.019700
C281	C28	0.524100	0.021100	0.029300
C291	C29	0.641300	0.060100	0.030100
C301	C30	0.452600	0.021400	0.088200
C311	C31	0.412000	0.219800	0.032000
C321	C32	0.238000	0.141200	0.953000
C331	C33	0.683300	0.099700	0.084100
C341	C34	0.354900	0.169000	0.927400
C351	C35	0.439000	0.207400	0.965500
C361	C36	0.264400	0.202800	0.132800
C371	C37	0.292500	0.307700	0.440600
C381	C38	0.498100	0.439300	0.356200
C391	C39	0.204600	0.347100	0.480300
C401	C40	0.524100	0.478900	0.470700
C411	C41	0.641300	0.439900	0.469900
C421	C42	0.452600	0.478600	0.411800
C431	C43	0.412000	0.280200	0.468000
C441	C44	0.238000	0.358800	0.547000
C451	C45	0.683300	0.400300	0.415900
C461	C46	0.354900	0.331000	0.572600
C471	C47	0.439000	0.292600	0.534500
C481	C48	0.264400	0.297200	0.367200
C491	C49	0.792500	0.192300	0.440600
C501	C50	0.998100	0.060700	0.356200
C511	C51	0.704600	0.152900	0.480300
C521	C52	0.024100	0.021100	0.470700
C531	C53	0.141300	0.060100	0.469900
C541	C54	0.952600	0.021400	0.411800
C551	C55	0.912000	0.219800	0.468000
C561	C56	0.738000	0.141200	0.547000
C571	C57	0.183300	0.099700	0.415900
C581	C58	0.854900	0.169000	0.572600
C591	C59	0.939000	0.207400	0.534500
C601	C60	0.764400	0.202800	0.367200
C611	C61	0.792500	0.307700	0.059400
C621	C62	0.998100	0.439300	0.143800
C631	C63	0.704600	0.347100	0.019700
C641	C64	0.024100	0.478900	0.029300
C651	C65	0.141300	0.439900	0.030100
C661	C66	0.952600	0.478600	0.088200
C671	C67	0.912000	0.280200	0.032000
C681	C68	0.738000	0.358800	0.953000
C691	C69	0.183300	0.400300	0.084100
C701	C70	0.854900	0.331000	0.927400
C711	C71	0.939000	0.292600	0.965500
C721	C72	0.764400	0.297200	0.132800
C731	C73	0.707500	0.807700	0.940600
C741	C74	0.501900	0.939300	0.856200
C751	C75	0.795400	0.847100	0.980300
C761	C76	0.475900	0.978900	0.970700
C771	C77	0.358700	0.939900	0.969900
C781	C78	0.547400	0.978600	0.911800
C791	C79	0.588000	0.780200	0.968000
C801	C80	0.762000	0.858800	0.047000
C811	C81	0.316700	0.900300	0.915900
C821	C82	0.645100	0.831000	0.072600
C831	C83	0.561000	0.792600	0.034500
C841	C84	0.735600	0.797200	0.867200
C851	C85	0.707500	0.692300	0.559400
C861	C86	0.501900	0.560700	0.643800
C871	C87	0.795400	0.652900	0.519700
C881	C88	0.475900	0.521100	0.529300
C891	C89	0.358700	0.560100	0.530100
C901	C90	0.547400	0.521400	0.588200
C911	C91	0.588000	0.719800	0.532000
C921	C92	0.762000	0.641200	0.453000
C931	C93	0.316700	0.599700	0.584100
C941	C94	0.645100	0.669000	0.427400
C951	C95	0.561000	0.707400	0.465500
C961	C96	0.735600	0.702800	0.632800
N11	N1	0.890200	0.900600	0.640300
N21	N2	0.890200	0.599400	0.859700
N31	N3	0.609800	0.099400	0.140300
N41	N4	0.609800	0.400600	0.359700
N51	N5	0.109800	0.099400	0.359700
N61	N6	0.109800	0.400600	0.140300
N71	N7	0.390200	0.900600	0.859700
N81	N8	0.390200	0.599400	0.640300
O11	O1	0.851700	0.859700	0.693100
O21	O2	0.137300	0.781600	0.669800
O31	O3	0.351600	0.804400	0.651900
O41	O4	0.084900	0.872300	0.784100
O51	O5	0.851700	0.640300	0.806900
O61	O6	0.137300	0.718400	0.830200
O71	O7	0.351600	0.695600	0.848100
O81	O8	0.084900	0.627700	0.715900
O91	O9	0.648300	0.140300	0.193100
O101	O10	0.362700	0.218400	0.169800
O111	O11	0.148400	0.195600	0.151900
O121	O12	0.415100	0.127700	0.284100
O131	O13	0.648300	0.359700	0.306900
O141	O14	0.362700	0.281600	0.330200
O151	O15	0.148400	0.304400	0.348100
O161	O16	0.415100	0.372300	0.215900
O171	O17	0.148300	0.140300	0.306900
O181	O18	0.862700	0.218400	0.330200
O191	O19	0.648400	0.195600	0.348100
O201	O20	0.915100	0.127700	0.215900
O211	O21	0.148300	0.359700	0.193100
O221	O22	0.862700	0.281600	0.169800
O231	O23	0.648400	0.304400	0.151900
O241	O24	0.915100	0.372300	0.284100
O251	O25	0.351700	0.859700	0.806900
O261	O26	0.637300	0.781600	0.830200
O271	O27	0.851600	0.804400	0.848100
O281	O28	0.584900	0.872300	0.715900
O291	O29	0.351700	0.640300	0.693100
O301	O30	0.637300	0.718400	0.669800
O311	O31	0.851600	0.695600	0.651900
O321	O32	0.584900	0.627700	0.784100
