data_OTEGUR_freeONLY_PM
_symmetry_space_group_name_H-M	'P1'
_cell_length_a	15.352000
_cell_length_b	15.352000
_cell_length_c	12.226000
_cell_angle_alpha	90.000000
_cell_angle_beta	90.000000
_cell_angle_gamma	90.000000
_symmetry_Int_Tables_number 1

loop_
_symmetry_equiv_pos_as_xyz
'x,y,z'

loop_
_atom_site_label
_atom_site_type_symbol
_atom_site_fract_x
_atom_site_fract_y
_atom_site_fract_z
O11	O1	0.907100	0.209500	0.756400
O21	O2	0.888700	0.116900	0.614200
C11	C1	0.960600	0.067300	0.768800
C21	C2	0.962800	0.069000	0.881500
H11	H1	0.938900	0.117300	0.919700
C31	C3	0.914900	0.136500	0.706600
O31	O3	0.407100	0.709500	0.256400
O41	O4	0.388700	0.616900	0.114200
C41	C4	0.460600	0.567300	0.268800
C51	C5	0.462800	0.569000	0.381500
H21	H2	0.438900	0.617300	0.419700
C61	C6	0.414900	0.636500	0.206600
O51	O5	0.592900	0.290500	0.256400
O61	O6	0.611300	0.383100	0.114200
C71	C7	0.539400	0.432700	0.268800
C81	C8	0.537200	0.431000	0.381500
H31	H3	0.561100	0.382700	0.419700
C91	C9	0.585100	0.363500	0.206600
O71	O7	0.092900	0.790500	0.756400
O81	O8	0.111300	0.883100	0.614200
C101	C10	0.039400	0.932700	0.768800
C111	C11	0.037200	0.931000	0.881500
H41	H4	0.061100	0.882700	0.919700
C121	C12	0.085100	0.863500	0.706600
O91	O9	0.790500	0.407100	0.006400
O101	O10	0.883100	0.388700	0.864200
C131	C13	0.932700	0.460600	0.018800
C141	C14	0.931000	0.462800	0.131500
H51	H5	0.882700	0.438900	0.169700
C151	C15	0.863500	0.414900	0.956600
O111	O11	0.290500	0.907100	0.506400
O121	O12	0.383100	0.888700	0.364200
C161	C16	0.432700	0.960600	0.518800
C171	C17	0.431000	0.962800	0.631500
H61	H6	0.382700	0.938900	0.669700
C181	C18	0.363500	0.914900	0.456600
O131	O13	0.709500	0.092900	0.506400
O141	O14	0.616900	0.111300	0.364200
C191	C19	0.567300	0.039400	0.518800
C201	C20	0.569000	0.037200	0.631500
H71	H7	0.617300	0.061100	0.669700
C211	C21	0.636500	0.085100	0.456600
O151	O15	0.209500	0.592900	0.006400
O161	O16	0.116900	0.611300	0.864200
C221	C22	0.067300	0.539400	0.018800
C231	C23	0.069000	0.537200	0.131500
H81	H8	0.117300	0.561100	0.169700
C241	C24	0.136500	0.585100	0.956600
O171	O17	0.592900	0.209500	0.993600
O181	O18	0.611300	0.116900	0.135800
C251	C25	0.539400	0.067300	0.981200
C261	C26	0.537200	0.069000	0.868500
H91	H9	0.561100	0.117300	0.830300
C271	C27	0.585100	0.136500	0.043400
O191	O19	0.092900	0.709500	0.493600
O201	O20	0.111300	0.616900	0.635800
C281	C28	0.039400	0.567300	0.481200
C291	C29	0.037200	0.569000	0.368500
H101	H10	0.061100	0.617300	0.330300
C301	C30	0.085100	0.636500	0.543400
O211	O21	0.907100	0.290500	0.493600
O221	O22	0.888700	0.383100	0.635800
C311	C31	0.960600	0.432700	0.481200
C321	C32	0.962800	0.431000	0.368500
H111	H11	0.938900	0.382700	0.330300
C331	C33	0.914900	0.363500	0.543400
O231	O23	0.407100	0.790500	0.993600
O241	O24	0.388700	0.883100	0.135800
C341	C34	0.460600	0.932700	0.981200
C351	C35	0.462800	0.931000	0.868500
H121	H12	0.438900	0.882700	0.830300
C361	C36	0.414900	0.863500	0.043400
O251	O25	0.709500	0.407100	0.743600
O261	O26	0.616900	0.388700	0.885800
C371	C37	0.567300	0.460600	0.731200
C381	C38	0.569000	0.462800	0.618500
H131	H13	0.617300	0.438900	0.580300
C391	C39	0.636500	0.414900	0.793400
O271	O27	0.209500	0.907100	0.243600
O281	O28	0.116900	0.888700	0.385800
C401	C40	0.067300	0.960600	0.231200
C411	C41	0.069000	0.962800	0.118500
H141	H14	0.117300	0.938900	0.080300
C421	C42	0.136500	0.914900	0.293400
O291	O29	0.790500	0.092900	0.243600
O301	O30	0.883100	0.111300	0.385800
C431	C43	0.932700	0.039400	0.231200
C441	C44	0.931000	0.037200	0.118500
H151	H15	0.882700	0.061100	0.080300
C451	C45	0.863500	0.085100	0.293400
O311	O31	0.290500	0.592900	0.743600
O321	O32	0.383100	0.611300	0.885800
C461	C46	0.432700	0.539400	0.731200
C471	C47	0.431000	0.537200	0.618500
H161	H16	0.382700	0.561100	0.580300
C481	C48	0.363500	0.585100	0.793400
In11	In1	0.812400	0.312400	0.750000
In21	In2	0.312400	0.812400	0.250000
In31	In3	0.687600	0.187600	0.250000
In41	In4	0.187600	0.687600	0.750000
In51	In5	0.687600	0.312400	0.000000
In61	In6	0.187600	0.812400	0.500000
In71	In7	0.812400	0.187600	0.500000
In81	In8	0.312400	0.687600	0.000000
O331	O33	0.750000	0.245000	0.875000
H171	H17	0.750000	0.183100	0.875000
O341	O34	0.250000	0.745000	0.375000
H181	H18	0.250000	0.683100	0.375000
O351	O35	0.750000	0.255000	0.375000
H191	H19	0.750000	0.316900	0.375000
O361	O36	0.250000	0.755000	0.875000
H201	H20	0.250000	0.816900	0.875000
O371	O37	0.755000	0.250000	0.125000
H211	H21	0.816900	0.250000	0.125000
O381	O38	0.255000	0.750000	0.625000
H221	H22	0.316900	0.750000	0.625000
O391	O39	0.745000	0.250000	0.625000
H231	H23	0.683100	0.250000	0.625000
O401	O40	0.245000	0.750000	0.125000
H241	H24	0.183100	0.750000	0.125000
C491	C49	0.000000	0.000000	0.711100
H251	H25	0.000000	0.000000	0.633400
C501	C50	0.000000	0.000000	0.940400
C511	C51	0.500000	0.500000	0.211100
H261	H26	0.500000	0.500000	0.133400
C521	C52	0.500000	0.500000	0.440400
C531	C53	0.000000	0.500000	0.961100
H271	H27	0.000000	0.500000	0.883400
C541	C54	0.000000	0.500000	0.190400
C551	C55	0.500000	0.000000	0.461100
H281	H28	0.500000	0.000000	0.383400
C561	C56	0.500000	0.000000	0.690400
C571	C57	0.500000	0.000000	0.038900
H291	H29	0.500000	0.000000	0.116600
C581	C58	0.500000	0.000000	0.809600
C591	C59	0.000000	0.500000	0.538900
H301	H30	0.000000	0.500000	0.616600
C601	C60	0.000000	0.500000	0.309600
C611	C61	0.500000	0.500000	0.788900
H311	H31	0.500000	0.500000	0.866600
C621	C62	0.500000	0.500000	0.559600
C631	C63	0.000000	0.000000	0.288900
H321	H32	0.000000	0.000000	0.366600
C641	C64	0.000000	0.000000	0.059600
