data_OTEHAY_freeONLY_PM
_symmetry_space_group_name_H-M	'P1'
_cell_length_a	15.509700
_cell_length_b	15.509700
_cell_length_c	12.319700
_cell_angle_alpha	90.000000
_cell_angle_beta	90.000000
_cell_angle_gamma	90.000000
_symmetry_Int_Tables_number 1

loop_
_symmetry_equiv_pos_as_xyz
'x,y,z'

loop_
_atom_site_label
_atom_site_type_symbol
_atom_site_fract_x
_atom_site_fract_y
_atom_site_fract_z
O11	O1	0.612660	0.383210	0.614470
O21	O2	0.591740	0.292990	0.757280
C11	C1	0.586790	0.361230	0.706270
C21	C2	0.536180	0.430980	0.768770
C31	C3	0.527910	0.427230	0.881930
H11	H1	0.541180	0.372580	0.916030
O31	O3	0.112660	0.883210	0.114470
O41	O4	0.091740	0.792990	0.257280
C41	C4	0.086790	0.861230	0.206270
C51	C5	0.036180	0.930980	0.268770
C61	C6	0.027910	0.927230	0.381930
H21	H2	0.041180	0.872580	0.416030
O51	O5	0.887340	0.116790	0.114470
O61	O6	0.908260	0.207010	0.257280
C71	C7	0.913210	0.138770	0.206270
C81	C8	0.963820	0.069020	0.268770
C91	C9	0.972090	0.072770	0.381930
H31	H3	0.958820	0.127420	0.416030
O71	O7	0.387340	0.616790	0.614470
O81	O8	0.408260	0.707010	0.757280
C101	C10	0.413210	0.638770	0.706270
C111	C11	0.463820	0.569020	0.768770
C121	C12	0.472090	0.572770	0.881930
H41	H4	0.458820	0.627420	0.916030
O91	O9	0.616790	0.112660	0.864470
O101	O10	0.707010	0.091740	0.007280
C131	C13	0.638770	0.086790	0.956270
C141	C14	0.569020	0.036180	0.018770
C151	C15	0.572770	0.027910	0.131930
H51	H5	0.627420	0.041180	0.166030
O111	O11	0.116790	0.612660	0.364470
O121	O12	0.207010	0.591740	0.507280
C161	C16	0.138770	0.586790	0.456270
C171	C17	0.069020	0.536180	0.518770
C181	C18	0.072770	0.527910	0.631930
H61	H6	0.127420	0.541180	0.666030
O131	O13	0.883210	0.387340	0.364470
O141	O14	0.792990	0.408260	0.507280
C191	C19	0.861230	0.413210	0.456270
C201	C20	0.930980	0.463820	0.518770
C211	C21	0.927230	0.472090	0.631930
H71	H7	0.872580	0.458820	0.666030
O151	O15	0.383210	0.887340	0.864470
O161	O16	0.292990	0.908260	0.007280
C221	C22	0.361230	0.913210	0.956270
C231	C23	0.430980	0.963820	0.018770
C241	C24	0.427230	0.972090	0.131930
H81	H8	0.372580	0.958820	0.166030
O171	O17	0.887340	0.383210	0.135530
O181	O18	0.908260	0.292990	0.992720
C251	C25	0.913210	0.361230	0.043730
C261	C26	0.963820	0.430980	0.981230
C271	C27	0.972090	0.427230	0.868070
H91	H9	0.958820	0.372580	0.833970
O191	O19	0.387340	0.883210	0.635530
O201	O20	0.408260	0.792990	0.492720
C281	C28	0.413210	0.861230	0.543730
C291	C29	0.463820	0.930980	0.481230
C301	C30	0.472090	0.927230	0.368070
H101	H10	0.458820	0.872580	0.333970
O211	O21	0.612660	0.116790	0.635530
O221	O22	0.591740	0.207010	0.492720
C311	C31	0.586790	0.138770	0.543730
C321	C32	0.536180	0.069020	0.481230
C331	C33	0.527910	0.072770	0.368070
H111	H11	0.541180	0.127420	0.333970
O231	O23	0.112660	0.616790	0.135530
O241	O24	0.091740	0.707010	0.992720
C341	C34	0.086790	0.638770	0.043730
C351	C35	0.036180	0.569020	0.981230
C361	C36	0.027910	0.572770	0.868070
H121	H12	0.041180	0.627420	0.833970
O251	O25	0.883210	0.112660	0.885530
O261	O26	0.792990	0.091740	0.742720
C371	C37	0.861230	0.086790	0.793730
C381	C38	0.930980	0.036180	0.731230
C391	C39	0.927230	0.027910	0.618070
H131	H13	0.872580	0.041180	0.583970
O271	O27	0.383210	0.612660	0.385530
O281	O28	0.292990	0.591740	0.242720
C401	C40	0.361230	0.586790	0.293730
C411	C41	0.430980	0.536180	0.231230
C421	C42	0.427230	0.527910	0.118070
H141	H14	0.372580	0.541180	0.083970
O291	O29	0.616790	0.387340	0.385530
O301	O30	0.707010	0.408260	0.242720
C431	C43	0.638770	0.413210	0.293730
C441	C44	0.569020	0.463820	0.231230
C451	C45	0.572770	0.472090	0.118070
H151	H15	0.627420	0.458820	0.083970
O311	O31	0.116790	0.887340	0.885530
O321	O32	0.207010	0.908260	0.742720
C461	C46	0.138770	0.913210	0.793730
C471	C47	0.069020	0.963820	0.731230
C481	C48	0.072770	0.972090	0.618070
H161	H16	0.127420	0.958820	0.583970
In11	In1	0.688090	0.311910	0.500000
In21	In2	0.188090	0.811910	0.000000
In31	In3	0.811910	0.188090	0.000000
In41	In4	0.311910	0.688090	0.500000
In51	In5	0.688090	0.188090	0.750000
In61	In6	0.188090	0.688090	0.250000
In71	In7	0.811910	0.311910	0.250000
In81	In8	0.311910	0.811910	0.750000
O331	O33	0.758150	0.250000	0.625000
H171	H17	0.812640	0.250000	0.625000
O341	O34	0.258150	0.750000	0.125000
H181	H18	0.312640	0.750000	0.125000
O351	O35	0.741850	0.250000	0.125000
H191	H19	0.687360	0.250000	0.125000
O361	O36	0.241850	0.750000	0.625000
H201	H20	0.187360	0.750000	0.625000
O371	O37	0.750000	0.258150	0.875000
H211	H21	0.750000	0.312640	0.875000
O381	O38	0.250000	0.758150	0.375000
H221	H22	0.250000	0.812640	0.375000
O391	O39	0.750000	0.241850	0.375000
H231	H23	0.750000	0.187360	0.375000
O401	O40	0.250000	0.741850	0.875000
H241	H24	0.250000	0.687360	0.875000
C491	C49	0.500000	0.500000	0.711640
C501	C50	0.500000	0.500000	0.939590
H251	H25	0.500000	0.500000	0.630780
C511	C51	0.000000	0.000000	0.211640
C521	C52	0.000000	0.000000	0.439590
H261	H26	0.000000	0.000000	0.130780
C531	C53	0.500000	0.000000	0.961640
C541	C54	0.500000	0.000000	0.189590
H271	H27	0.500000	0.000000	0.880780
C551	C55	0.000000	0.500000	0.461640
C561	C56	0.000000	0.500000	0.689590
H281	H28	0.000000	0.500000	0.380780
C571	C57	0.000000	0.500000	0.038360
C581	C58	0.000000	0.500000	0.810410
H291	H29	0.000000	0.500000	0.119220
C591	C59	0.500000	0.000000	0.538360
C601	C60	0.500000	0.000000	0.310410
H301	H30	0.500000	0.000000	0.619220
C611	C61	0.000000	0.000000	0.788360
C621	C62	0.000000	0.000000	0.560410
H311	H31	0.000000	0.000000	0.869220
C631	C63	0.500000	0.500000	0.288360
C641	C64	0.500000	0.500000	0.060410
H321	H32	0.500000	0.500000	0.369220
