data_OTODEI_freeONLY_PM
_symmetry_space_group_name_H-M	'P1'
_cell_length_a	12.282000
_cell_length_b	22.790000
_cell_length_c	13.580000
_cell_angle_alpha	90.000000
_cell_angle_beta	91.870000
_cell_angle_gamma	90.000000
_symmetry_Int_Tables_number 1

loop_
_symmetry_equiv_pos_as_xyz
'x,y,z'

loop_
_atom_site_label
_atom_site_type_symbol
_atom_site_fract_x
_atom_site_fract_y
_atom_site_fract_z
N11	N1	0.419200	0.264680	0.481300
C11	C1	0.469900	0.235000	0.410200
H11	H1	0.431000	0.205000	0.375700
C21	C2	0.574300	0.246290	0.386000
H21	H2	0.606500	0.224200	0.335300
C31	C3	0.634900	0.290090	0.434700
C41	C4	0.583000	0.318990	0.510600
H31	H3	0.620700	0.348300	0.547900
C51	C5	0.477500	0.305200	0.531500
H41	H4	0.444200	0.325200	0.584000
C61	C6	0.746800	0.305560	0.403000
H51	H5	0.791500	0.317100	0.461800
H61	H6	0.780600	0.270200	0.374500
N21	N2	0.749200	0.353470	0.330000
C71	C7	0.728000	0.411680	0.371300
H71	H7	0.776600	0.418500	0.429800
H81	H8	0.651700	0.413900	0.392400
C81	C8	0.747500	0.458150	0.294600
H91	H9	0.734800	0.497500	0.322700
H101	H10	0.824000	0.456200	0.274000
N31	N3	0.672700	0.448510	0.208000
C91	C9	0.696700	0.389630	0.166900
H111	H11	0.772900	0.388500	0.145300
H121	H12	0.648100	0.382100	0.108700
C101	C10	0.680300	0.342550	0.243500
H131	H13	0.603000	0.342000	0.262200
H141	H14	0.697900	0.303700	0.215600
C111	C11	0.690300	0.494520	0.132300
H151	H15	0.756500	0.485100	0.095700
H161	H16	0.701800	0.532900	0.165100
C121	C12	0.593800	0.498300	0.061500
C131	C13	0.505500	0.533960	0.084800
H171	H17	0.509300	0.557300	0.142700
C141	C14	0.587300	0.464490	0.975600
H181	H18	0.647000	0.440400	0.958600
N41	N4	0.919200	0.764680	0.481300
C151	C15	0.969900	0.735000	0.410200
H191	H19	0.931000	0.705000	0.375700
C161	C16	0.074300	0.746290	0.386000
H201	H20	0.106500	0.724200	0.335300
C171	C17	0.134900	0.790090	0.434700
C181	C18	0.083000	0.818990	0.510600
H211	H21	0.120700	0.848300	0.547900
C191	C19	0.977500	0.805200	0.531500
H221	H22	0.944200	0.825200	0.584000
C201	C20	0.246800	0.805560	0.403000
H231	H23	0.291500	0.817100	0.461800
H241	H24	0.280600	0.770200	0.374500
N51	N5	0.249200	0.853470	0.330000
C211	C21	0.228000	0.911680	0.371300
H251	H25	0.276600	0.918500	0.429800
H261	H26	0.151700	0.913900	0.392400
C221	C22	0.247500	0.958150	0.294600
H271	H27	0.234800	0.997500	0.322700
H281	H28	0.324000	0.956200	0.274000
N61	N6	0.172700	0.948510	0.208000
C231	C23	0.196700	0.889630	0.166900
H291	H29	0.272900	0.888500	0.145300
H301	H30	0.148100	0.882100	0.108700
C241	C24	0.180300	0.842550	0.243500
H311	H31	0.103000	0.842000	0.262200
H321	H32	0.197900	0.803700	0.215600
C251	C25	0.190300	0.994520	0.132300
H331	H33	0.256500	0.985100	0.095700
H341	H34	0.201800	0.032900	0.165100
C261	C26	0.093800	0.998300	0.061500
C271	C27	0.005500	0.033960	0.084800
H351	H35	0.009300	0.057300	0.142700
C281	C28	0.087300	0.964490	0.975600
H361	H36	0.147000	0.940400	0.958600
N71	N7	0.580800	0.264680	0.018700
C291	C29	0.530100	0.235000	0.089800
H371	H37	0.569000	0.205000	0.124300
C301	C30	0.425700	0.246290	0.114000
H381	H38	0.393500	0.224200	0.164700
C311	C31	0.365100	0.290090	0.065300
C321	C32	0.417000	0.318990	0.989400
H391	H39	0.379300	0.348300	0.952100
C331	C33	0.522500	0.305200	0.968500
H401	H40	0.555800	0.325200	0.916000
C341	C34	0.253200	0.305560	0.097000
H411	H41	0.208500	0.317100	0.038200
H421	H42	0.219400	0.270200	0.125500
N81	N8	0.250800	0.353470	0.170000
C351	C35	0.272000	0.411680	0.128700
H431	H43	0.223400	0.418500	0.070200
H441	H44	0.348300	0.413900	0.107600
C361	C36	0.252500	0.458150	0.205400
H451	H45	0.265200	0.497500	0.177300
H461	H46	0.176000	0.456200	0.226000
N91	N9	0.327300	0.448510	0.292000
C371	C37	0.303300	0.389630	0.333100
H471	H47	0.227100	0.388500	0.354700
H481	H48	0.351900	0.382100	0.391300
C381	C38	0.319700	0.342550	0.256500
H491	H49	0.397000	0.342000	0.237800
H501	H50	0.302100	0.303700	0.284400
C391	C39	0.309700	0.494520	0.367700
H511	H51	0.243500	0.485100	0.404300
H521	H52	0.298200	0.532900	0.334900
C401	C40	0.406200	0.498300	0.438500
C411	C41	0.494500	0.533960	0.415200
H531	H53	0.490700	0.557300	0.357300
C421	C42	0.412700	0.464490	0.524400
H541	H54	0.353000	0.440400	0.541400
N101	N10	0.080800	0.764680	0.018700
C431	C43	0.030100	0.735000	0.089800
H551	H55	0.069000	0.705000	0.124300
C441	C44	0.925700	0.746290	0.114000
H561	H56	0.893500	0.724200	0.164700
C451	C45	0.865100	0.790090	0.065300
C461	C46	0.917000	0.818990	0.989400
H571	H57	0.879300	0.848300	0.952100
C471	C47	0.022500	0.805200	0.968500
H581	H58	0.055800	0.825200	0.916000
C481	C48	0.753200	0.805560	0.097000
H591	H59	0.708500	0.817100	0.038200
H601	H60	0.719400	0.770200	0.125500
N111	N11	0.750800	0.853470	0.170000
C491	C49	0.772000	0.911680	0.128700
H611	H61	0.723400	0.918500	0.070200
H621	H62	0.848300	0.913900	0.107600
C501	C50	0.752500	0.958150	0.205400
H631	H63	0.765200	0.997500	0.177300
H641	H64	0.676000	0.956200	0.226000
N121	N12	0.827300	0.948510	0.292000
C511	C51	0.803300	0.889630	0.333100
H651	H65	0.727100	0.888500	0.354700
H661	H66	0.851900	0.882100	0.391300
C521	C52	0.819700	0.842550	0.256500
H671	H67	0.897000	0.842000	0.237800
H681	H68	0.802100	0.803700	0.284400
C531	C53	0.809700	0.994520	0.367700
H691	H69	0.743500	0.985100	0.404300
H701	H70	0.798200	0.032900	0.334900
C541	C54	0.906200	0.998300	0.438500
C551	C55	0.994500	0.033960	0.415200
H711	H71	0.990700	0.057300	0.357300
C561	C56	0.912700	0.964490	0.524400
H721	H72	0.853000	0.940400	0.541400
N131	N13	0.580800	0.735320	0.518700
C571	C57	0.530100	0.765000	0.589800
H731	H73	0.569000	0.795000	0.624300
C581	C58	0.425700	0.753710	0.614000
H741	H74	0.393500	0.775800	0.664700
C591	C59	0.365100	0.709910	0.565300
C601	C60	0.417000	0.681010	0.489400
H751	H75	0.379300	0.651700	0.452100
C611	C61	0.522500	0.694800	0.468500
H761	H76	0.555800	0.674800	0.416000
C621	C62	0.253200	0.694440	0.597000
H771	H77	0.208500	0.682900	0.538200
H781	H78	0.219400	0.729800	0.625500
N141	N14	0.250800	0.646530	0.670000
C631	C63	0.272000	0.588320	0.628700
H791	H79	0.223400	0.581500	0.570200
H801	H80	0.348300	0.586100	0.607600
C641	C64	0.252500	0.541850	0.705400
H811	H81	0.265200	0.502500	0.677300
H821	H82	0.176000	0.543800	0.726000
N151	N15	0.327300	0.551490	0.792000
C651	C65	0.303300	0.610370	0.833100
H831	H83	0.227100	0.611500	0.854700
H841	H84	0.351900	0.617900	0.891300
C661	C66	0.319700	0.657450	0.756500
H851	H85	0.397000	0.658000	0.737800
H861	H86	0.302100	0.696300	0.784400
C671	C67	0.309700	0.505480	0.867700
H871	H87	0.243500	0.514900	0.904300
H881	H88	0.298200	0.467100	0.834900
C681	C68	0.406200	0.501700	0.938500
C691	C69	0.494500	0.466040	0.915200
H891	H89	0.490700	0.442700	0.857300
C701	C70	0.412700	0.535510	0.024400
H901	H90	0.353000	0.559600	0.041400
N161	N16	0.080800	0.235320	0.518700
C711	C71	0.030100	0.265000	0.589800
H911	H91	0.069000	0.295000	0.624300
C721	C72	0.925700	0.253710	0.614000
H921	H92	0.893500	0.275800	0.664700
C731	C73	0.865100	0.209910	0.565300
C741	C74	0.917000	0.181010	0.489400
H931	H93	0.879300	0.151700	0.452100
C751	C75	0.022500	0.194800	0.468500
H941	H94	0.055800	0.174800	0.416000
C761	C76	0.753200	0.194440	0.597000
H951	H95	0.708500	0.182900	0.538200
H961	H96	0.719400	0.229800	0.625500
N171	N17	0.750800	0.146530	0.670000
C771	C77	0.772000	0.088320	0.628700
H971	H97	0.723400	0.081500	0.570200
H981	H98	0.848300	0.086100	0.607600
C781	C78	0.752500	0.041850	0.705400
H991	H99	0.765200	0.002500	0.677300
H1001	H100	0.676000	0.043800	0.726000
N181	N18	0.827300	0.051490	0.792000
C791	C79	0.803300	0.110370	0.833100
H1011	H101	0.727100	0.111500	0.854700
H1021	H102	0.851900	0.117900	0.891300
C801	C80	0.819700	0.157450	0.756500
H1031	H103	0.897000	0.158000	0.737800
H1041	H104	0.802100	0.196300	0.784400
C811	C81	0.809700	0.005480	0.867700
H1051	H105	0.743500	0.014900	0.904300
H1061	H106	0.798200	0.967100	0.834900
C821	C82	0.906200	0.001700	0.938500
C831	C83	0.994500	0.966040	0.915200
H1071	H107	0.990700	0.942700	0.857300
C841	C84	0.912700	0.035510	0.024400
H1081	H108	0.853000	0.059600	0.041400
N191	N19	0.419200	0.735320	0.981300
C851	C85	0.469900	0.765000	0.910200
H1091	H109	0.431000	0.795000	0.875700
C861	C86	0.574300	0.753710	0.886000
H1101	H110	0.606500	0.775800	0.835300
C871	C87	0.634900	0.709910	0.934700
C881	C88	0.583000	0.681010	0.010600
H1111	H111	0.620700	0.651700	0.047900
C891	C89	0.477500	0.694800	0.031500
H1121	H112	0.444200	0.674800	0.084000
C901	C90	0.746800	0.694440	0.903000
H1131	H113	0.791500	0.682900	0.961800
H1141	H114	0.780600	0.729800	0.874500
N201	N20	0.749200	0.646530	0.830000
C911	C91	0.728000	0.588320	0.871300
H1151	H115	0.776600	0.581500	0.929800
H1161	H116	0.651700	0.586100	0.892400
C921	C92	0.747500	0.541850	0.794600
H1171	H117	0.734800	0.502500	0.822700
H1181	H118	0.824000	0.543800	0.774000
N211	N21	0.672700	0.551490	0.708000
C931	C93	0.696700	0.610370	0.666900
H1191	H119	0.772900	0.611500	0.645300
H1201	H120	0.648100	0.617900	0.608700
C941	C94	0.680300	0.657450	0.743500
H1211	H121	0.603000	0.658000	0.762200
H1221	H122	0.697900	0.696300	0.715600
C951	C95	0.690300	0.505480	0.632300
H1231	H123	0.756500	0.514900	0.595700
H1241	H124	0.701800	0.467100	0.665100
C961	C96	0.593800	0.501700	0.561500
C971	C97	0.505500	0.466040	0.584800
H1251	H125	0.509300	0.442700	0.642700
C981	C98	0.587300	0.535510	0.475600
H1261	H126	0.647000	0.559600	0.458600
N221	N22	0.919200	0.235320	0.981300
C991	C99	0.969900	0.265000	0.910200
H1271	H127	0.931000	0.295000	0.875700
C1001	C100	0.074300	0.253710	0.886000
H1281	H128	0.106500	0.275800	0.835300
C1011	C101	0.134900	0.209910	0.934700
C1021	C102	0.083000	0.181010	0.010600
H1291	H129	0.120700	0.151700	0.047900
C1031	C103	0.977500	0.194800	0.031500
H1301	H130	0.944200	0.174800	0.084000
C1041	C104	0.246800	0.194440	0.903000
H1311	H131	0.291500	0.182900	0.961800
H1321	H132	0.280600	0.229800	0.874500
N231	N23	0.249200	0.146530	0.830000
C1051	C105	0.228000	0.088320	0.871300
H1331	H133	0.276600	0.081500	0.929800
H1341	H134	0.151700	0.086100	0.892400
C1061	C106	0.247500	0.041850	0.794600
H1351	H135	0.234800	0.002500	0.822700
H1361	H136	0.324000	0.043800	0.774000
N241	N24	0.172700	0.051490	0.708000
C1071	C107	0.196700	0.110370	0.666900
H1371	H137	0.272900	0.111500	0.645300
H1381	H138	0.148100	0.117900	0.608700
C1081	C108	0.180300	0.157450	0.743500
H1391	H139	0.103000	0.158000	0.762200
H1401	H140	0.197900	0.196300	0.715600
C1091	C109	0.190300	0.005480	0.632300
H1411	H141	0.256500	0.014900	0.595700
H1421	H142	0.201800	0.967100	0.665100
C1101	C110	0.093800	0.001700	0.561500
C1111	C111	0.005500	0.966040	0.584800
H1431	H143	0.009300	0.942700	0.642700
C1121	C112	0.087300	0.035510	0.475600
H1441	H144	0.147000	0.059600	0.458600
Ag11	Ag1	0.250000	0.250000	0.500000
Ag21	Ag2	0.750000	0.250000	0.000000
Ag31	Ag3	0.750000	0.750000	0.500000
Ag41	Ag4	0.250000	0.750000	0.000000
Ag51	Ag5	0.500000	0.451170	0.250000
Ag61	Ag6	0.000000	0.951170	0.250000
Ag71	Ag7	0.500000	0.548830	0.750000
Ag81	Ag8	0.000000	0.048830	0.750000
