data_OTODIM_freeONLY_PM
_symmetry_space_group_name_H-M	'P1'
_cell_length_a	9.733000
_cell_length_b	22.323000
_cell_length_c	15.631000
_cell_angle_alpha	90.000000
_cell_angle_beta	93.890000
_cell_angle_gamma	90.000000
_symmetry_Int_Tables_number 1

loop_
_symmetry_equiv_pos_as_xyz
'x,y,z'

loop_
_atom_site_label
_atom_site_type_symbol
_atom_site_fract_x
_atom_site_fract_y
_atom_site_fract_z
Ag11	Ag1	0.811760	0.252490	0.077380
Ag21	Ag2	0.613600	0.456040	0.331820
N11	N1	0.617000	0.279400	0.113200
C11	C1	0.562000	0.252300	0.180700
H11	H1	0.612700	0.220800	0.209100
C21	C2	0.434000	0.269000	0.210400
H21	H2	0.400500	0.248800	0.258200
C31	C3	0.358000	0.314000	0.170900
C41	C4	0.416000	0.341400	0.100000
H31	H3	0.369000	0.373200	0.070300
C51	C5	0.541000	0.322500	0.073800
H41	H4	0.576000	0.341000	0.024900
C61	C6	0.228000	0.337000	0.202300
H51	H5	0.176100	0.303300	0.225700
H61	H6	0.171100	0.354500	0.153700
N21	N2	0.254600	0.384500	0.271800
C71	C7	0.309000	0.440600	0.236400
H71	H7	0.402500	0.433300	0.216600
H81	H8	0.248900	0.454100	0.186700
C81	C8	0.316700	0.487500	0.303400
H91	H9	0.223300	0.495700	0.321900
H101	H10	0.353300	0.525000	0.280000
N31	N3	0.413100	0.466200	0.382500
C91	C9	0.357000	0.411800	0.413100
H111	H11	0.264200	0.420000	0.433100
H121	H12	0.415700	0.397200	0.462800
C101	C10	0.345000	0.363500	0.346000
H131	H13	0.437100	0.353700	0.327100
H141	H14	0.305500	0.326900	0.370300
C111	C11	0.416000	0.515800	0.444400
H151	H15	0.324800	0.519300	0.468200
H161	H16	0.434500	0.553700	0.414200
C121	C12	0.526000	0.507000	0.517700
C131	C13	0.655000	0.532400	0.506200
H171	H17	0.671400	0.553000	0.454700
C141	C14	0.757000	0.526800	0.571600
H181	H18	0.845900	0.542100	0.563000
C151	C15	0.735000	0.499900	0.648500
C161	C16	0.608000	0.472900	0.656400
H191	H19	0.593100	0.451700	0.707600
C171	C17	0.504000	0.475500	0.593500
H201	H20	0.417900	0.456400	0.600800
C181	C18	0.845000	0.500700	0.720800
H211	H21	0.935500	0.507600	0.696900
H221	H22	0.848600	0.461000	0.749100
N41	N4	0.823000	0.548300	0.787400
C191	C19	0.842000	0.608700	0.748800
H231	H23	0.936300	0.611600	0.729200
H241	H24	0.776300	0.613500	0.698100
C201	C20	0.821000	0.657200	0.809800
H251	H25	0.724500	0.656200	0.826700
H261	H26	0.836300	0.696300	0.782200
N51	N5	0.916000	0.650900	0.886300
C211	C21	0.895000	0.590600	0.922500
H271	H27	0.799900	0.587400	0.940800
H281	H28	0.959100	0.585100	0.973900
C221	C22	0.919000	0.542400	0.859500
H291	H29	0.013700	0.545400	0.840900
H301	H30	0.908000	0.502800	0.886600
C231	C23	0.913000	0.700300	0.943600
H311	H31	0.941800	0.736600	0.913200
H321	H32	0.981800	0.693200	0.992000
C241	C24	0.775000	0.713200	0.980200
C251	C25	0.690000	0.755300	0.941900
H331	H33	0.721900	0.778000	0.895700
C261	C26	0.559000	0.766200	0.968200
H341	H34	0.501300	0.795400	0.940000
N61	N6	0.514000	0.733300	0.036600
C271	C27	0.597000	0.696700	0.075700
H351	H35	0.568000	0.676900	0.125200
C281	C28	0.729000	0.684000	0.049400
H361	H36	0.785500	0.655200	0.079500
Ag31	Ag3	0.311760	0.752490	0.077380
Ag41	Ag4	0.113600	0.956040	0.331820
N71	N7	0.117000	0.779400	0.113200
C291	C29	0.062000	0.752300	0.180700
H371	H37	0.112700	0.720800	0.209100
C301	C30	0.934000	0.769000	0.210400
H381	H38	0.900500	0.748800	0.258200
C311	C31	0.858000	0.814000	0.170900
C321	C32	0.916000	0.841400	0.100000
H391	H39	0.869000	0.873200	0.070300
C331	C33	0.041000	0.822500	0.073800
H401	H40	0.076000	0.841000	0.024900
C341	C34	0.728000	0.837000	0.202300
H411	H41	0.676100	0.803300	0.225700
H421	H42	0.671100	0.854500	0.153700
N81	N8	0.754600	0.884500	0.271800
C351	C35	0.809000	0.940600	0.236400
H431	H43	0.902500	0.933300	0.216600
H441	H44	0.748900	0.954100	0.186700
C361	C36	0.816700	0.987500	0.303400
H451	H45	0.723300	0.995700	0.321900
H461	H46	0.853300	0.025000	0.280000
N91	N9	0.913100	0.966200	0.382500
C371	C37	0.857000	0.911800	0.413100
H471	H47	0.764200	0.920000	0.433100
H481	H48	0.915700	0.897200	0.462800
C381	C38	0.845000	0.863500	0.346000
H491	H49	0.937100	0.853700	0.327100
H501	H50	0.805500	0.826900	0.370300
C391	C39	0.916000	0.015800	0.444400
H511	H51	0.824800	0.019300	0.468200
H521	H52	0.934500	0.053700	0.414200
C401	C40	0.026000	0.007000	0.517700
C411	C41	0.155000	0.032400	0.506200
H531	H53	0.171400	0.053000	0.454700
C421	C42	0.257000	0.026800	0.571600
H541	H54	0.345900	0.042100	0.563000
C431	C43	0.235000	0.999900	0.648500
C441	C44	0.108000	0.972900	0.656400
H551	H55	0.093100	0.951700	0.707600
C451	C45	0.004000	0.975500	0.593500
H561	H56	0.917900	0.956400	0.600800
C461	C46	0.345000	0.000700	0.720800
H571	H57	0.435500	0.007600	0.696900
H581	H58	0.348600	0.961000	0.749100
N101	N10	0.323000	0.048300	0.787400
C471	C47	0.342000	0.108700	0.748800
H591	H59	0.436300	0.111600	0.729200
H601	H60	0.276300	0.113500	0.698100
C481	C48	0.321000	0.157200	0.809800
H611	H61	0.224500	0.156200	0.826700
H621	H62	0.336300	0.196300	0.782200
N111	N11	0.416000	0.150900	0.886300
C491	C49	0.395000	0.090600	0.922500
H631	H63	0.299900	0.087400	0.940800
H641	H64	0.459100	0.085100	0.973900
C501	C50	0.419000	0.042400	0.859500
H651	H65	0.513700	0.045400	0.840900
H661	H66	0.408000	0.002800	0.886600
C511	C51	0.413000	0.200300	0.943600
H671	H67	0.441800	0.236600	0.913200
H681	H68	0.481800	0.193200	0.992000
C521	C52	0.275000	0.213200	0.980200
C531	C53	0.190000	0.255300	0.941900
H691	H69	0.221900	0.278000	0.895700
C541	C54	0.059000	0.266200	0.968200
H701	H70	0.001300	0.295400	0.940000
N121	N12	0.014000	0.233300	0.036600
C551	C55	0.097000	0.196700	0.075700
H711	H71	0.068000	0.176900	0.125200
C561	C56	0.229000	0.184000	0.049400
H721	H72	0.285500	0.155200	0.079500
Ag51	Ag5	0.811760	0.747510	0.577380
Ag61	Ag6	0.613600	0.543960	0.831820
N131	N13	0.617000	0.720600	0.613200
C571	C57	0.562000	0.747700	0.680700
H731	H73	0.612700	0.779200	0.709100
C581	C58	0.434000	0.731000	0.710400
H741	H74	0.400500	0.751200	0.758200
C591	C59	0.358000	0.686000	0.670900
C601	C60	0.416000	0.658600	0.600000
H751	H75	0.369000	0.626800	0.570300
C611	C61	0.541000	0.677500	0.573800
H761	H76	0.576000	0.659000	0.524900
C621	C62	0.228000	0.663000	0.702300
H771	H77	0.176100	0.696700	0.725700
H781	H78	0.171100	0.645500	0.653700
N141	N14	0.254600	0.615500	0.771800
C631	C63	0.309000	0.559400	0.736400
H791	H79	0.402500	0.566700	0.716600
H801	H80	0.248900	0.545900	0.686700
C641	C64	0.316700	0.512500	0.803400
H811	H81	0.223300	0.504300	0.821900
H821	H82	0.353300	0.475000	0.780000
N151	N15	0.413100	0.533800	0.882500
C651	C65	0.357000	0.588200	0.913100
H831	H83	0.264200	0.580000	0.933100
H841	H84	0.415700	0.602800	0.962800
C661	C66	0.345000	0.636500	0.846000
H851	H85	0.437100	0.646300	0.827100
H861	H86	0.305500	0.673100	0.870300
C671	C67	0.416000	0.484200	0.944400
H871	H87	0.324800	0.480700	0.968200
H881	H88	0.434500	0.446300	0.914200
C681	C68	0.526000	0.493000	0.017700
C691	C69	0.655000	0.467600	0.006200
H891	H89	0.671400	0.447000	0.954700
C701	C70	0.757000	0.473200	0.071600
H901	H90	0.845900	0.457900	0.063000
C711	C71	0.735000	0.500100	0.148500
C721	C72	0.608000	0.527100	0.156400
H911	H91	0.593100	0.548300	0.207600
C731	C73	0.504000	0.524500	0.093500
H921	H92	0.417900	0.543600	0.100800
C741	C74	0.845000	0.499300	0.220800
H931	H93	0.935500	0.492400	0.196900
H941	H94	0.848600	0.539000	0.249100
N161	N16	0.823000	0.451700	0.287400
C751	C75	0.842000	0.391300	0.248800
H951	H95	0.936300	0.388400	0.229200
H961	H96	0.776300	0.386500	0.198100
C761	C76	0.821000	0.342800	0.309800
H971	H97	0.724500	0.343800	0.326700
H981	H98	0.836300	0.303700	0.282200
N171	N17	0.916000	0.349100	0.386300
C771	C77	0.895000	0.409400	0.422500
H991	H99	0.799900	0.412600	0.440800
H1001	H100	0.959100	0.414900	0.473900
C781	C78	0.919000	0.457600	0.359500
H1011	H101	0.013700	0.454600	0.340900
H1021	H102	0.908000	0.497200	0.386600
C791	C79	0.913000	0.299700	0.443600
H1031	H103	0.941800	0.263400	0.413200
H1041	H104	0.981800	0.306800	0.492000
C801	C80	0.775000	0.286800	0.480200
C811	C81	0.690000	0.244700	0.441900
H1051	H105	0.721900	0.222000	0.395700
C821	C82	0.559000	0.233800	0.468200
H1061	H106	0.501300	0.204600	0.440000
N181	N18	0.514000	0.266700	0.536600
C831	C83	0.597000	0.303300	0.575700
H1071	H107	0.568000	0.323100	0.625200
C841	C84	0.729000	0.316000	0.549400
H1081	H108	0.785500	0.344800	0.579500
Ag71	Ag7	0.311760	0.247510	0.577380
Ag81	Ag8	0.113600	0.043960	0.831820
N191	N19	0.117000	0.220600	0.613200
C851	C85	0.062000	0.247700	0.680700
H1091	H109	0.112700	0.279200	0.709100
C861	C86	0.934000	0.231000	0.710400
H1101	H110	0.900500	0.251200	0.758200
C871	C87	0.858000	0.186000	0.670900
C881	C88	0.916000	0.158600	0.600000
H1111	H111	0.869000	0.126800	0.570300
C891	C89	0.041000	0.177500	0.573800
H1121	H112	0.076000	0.159000	0.524900
C901	C90	0.728000	0.163000	0.702300
H1131	H113	0.676100	0.196700	0.725700
H1141	H114	0.671100	0.145500	0.653700
N201	N20	0.754600	0.115500	0.771800
C911	C91	0.809000	0.059400	0.736400
H1151	H115	0.902500	0.066700	0.716600
H1161	H116	0.748900	0.045900	0.686700
C921	C92	0.816700	0.012500	0.803400
H1171	H117	0.723300	0.004300	0.821900
H1181	H118	0.853300	0.975000	0.780000
N211	N21	0.913100	0.033800	0.882500
C931	C93	0.857000	0.088200	0.913100
H1191	H119	0.764200	0.080000	0.933100
H1201	H120	0.915700	0.102800	0.962800
C941	C94	0.845000	0.136500	0.846000
H1211	H121	0.937100	0.146300	0.827100
H1221	H122	0.805500	0.173100	0.870300
C951	C95	0.916000	0.984200	0.944400
H1231	H123	0.824800	0.980700	0.968200
H1241	H124	0.934500	0.946300	0.914200
C961	C96	0.026000	0.993000	0.017700
C971	C97	0.155000	0.967600	0.006200
H1251	H125	0.171400	0.947000	0.954700
C981	C98	0.257000	0.973200	0.071600
H1261	H126	0.345900	0.957900	0.063000
C991	C99	0.235000	0.000100	0.148500
C1001	C100	0.108000	0.027100	0.156400
H1271	H127	0.093100	0.048300	0.207600
C1011	C101	0.004000	0.024500	0.093500
H1281	H128	0.917900	0.043600	0.100800
C1021	C102	0.345000	0.999300	0.220800
H1291	H129	0.435500	0.992400	0.196900
H1301	H130	0.348600	0.039000	0.249100
N221	N22	0.323000	0.951700	0.287400
C1031	C103	0.342000	0.891300	0.248800
H1311	H131	0.436300	0.888400	0.229200
H1321	H132	0.276300	0.886500	0.198100
C1041	C104	0.321000	0.842800	0.309800
H1331	H133	0.224500	0.843800	0.326700
H1341	H134	0.336300	0.803700	0.282200
N231	N23	0.416000	0.849100	0.386300
C1051	C105	0.395000	0.909400	0.422500
H1351	H135	0.299900	0.912600	0.440800
H1361	H136	0.459100	0.914900	0.473900
C1061	C106	0.419000	0.957600	0.359500
H1371	H137	0.513700	0.954600	0.340900
H1381	H138	0.408000	0.997200	0.386600
C1071	C107	0.413000	0.799700	0.443600
H1391	H139	0.441800	0.763400	0.413200
H1401	H140	0.481800	0.806800	0.492000
C1081	C108	0.275000	0.786800	0.480200
C1091	C109	0.190000	0.744700	0.441900
H1411	H141	0.221900	0.722000	0.395700
C1101	C110	0.059000	0.733800	0.468200
H1421	H142	0.001300	0.704600	0.440000
N241	N24	0.014000	0.766700	0.536600
C1111	C111	0.097000	0.803300	0.575700
H1431	H143	0.068000	0.823100	0.625200
C1121	C112	0.229000	0.816000	0.549400
H1441	H144	0.285500	0.844800	0.579500
