data_OVEXOD_freeONLY_PM
_symmetry_space_group_name_H-M	'P1'
_cell_length_a	20.460400
_cell_length_b	20.460400
_cell_length_c	21.923100
_cell_angle_alpha	82.513300
_cell_angle_beta	62.227700
_cell_angle_gamma	111.169000
_symmetry_Int_Tables_number 1

loop_
_symmetry_equiv_pos_as_xyz
'x,y,z'

loop_
_atom_site_label
_atom_site_type_symbol
_atom_site_fract_x
_atom_site_fract_y
_atom_site_fract_z
Mn11	Mn1	0.280720	0.209420	0.603900
Mn21	Mn2	0.153230	0.278570	0.588240
Mn31	Mn3	0.337170	0.334510	0.420900
Mn41	Mn4	0.668480	0.387760	0.940800
Mn51	Mn5	0.313320	0.884620	0.896100
Mn61	Mn6	0.366810	0.741470	0.911760
Mn71	Mn7	0.255410	0.758070	0.079100
Mn81	Mn8	0.828560	0.609280	0.559200
Mn91	Mn9	0.719280	0.790580	0.396100
Mn101	Mn10	0.846770	0.721430	0.411760
Mn111	Mn11	0.662830	0.665490	0.579100
Mn121	Mn12	0.331520	0.612240	0.059200
Mn131	Mn13	0.686680	0.115380	0.103900
Mn141	Mn14	0.633190	0.258530	0.088240
Mn151	Mn15	0.744590	0.241930	0.920900
Mn161	Mn16	0.171440	0.390720	0.440800
Mn171	Mn17	0.260690	0.010690	0.750000
Mn181	Mn18	0.739310	0.989310	0.250000
H11	H1	0.478500	0.162300	0.487800
H21	H2	0.559300	0.320100	0.301800
H31	H3	0.675200	0.302100	0.236500
H41	H4	0.691700	0.214300	0.295600
H51	H5	0.493600	0.975000	0.645000
H61	H6	0.586600	0.851300	0.698900
H71	H7	0.702800	0.905700	0.577500
H81	H8	0.711000	0.989400	0.489400
H91	H9	0.350100	0.342400	0.644300
H101	H10	0.402300	0.533600	0.510500
H111	H11	0.441300	0.598600	0.576700
H121	H12	0.441300	0.538300	0.673000
H131	H13	0.336000	0.174400	0.809400
H141	H14	0.419100	0.084200	0.913100
H151	H15	0.482300	0.198500	0.922200
H161	H16	0.477800	0.301600	0.872200
H171	H17	0.064600	0.972500	0.689100
H181	H18	0.061500	0.115300	0.547800
H191	H19	0.934600	0.019300	0.576300
H201	H20	0.872500	0.901700	0.662400
H211	H21	0.844400	0.607900	0.835300
H221	H22	0.911500	0.549900	0.970600
H231	H23	0.955400	0.670000	0.975000
H241	H24	0.948200	0.760600	0.907000
H251	H25	0.916300	0.281200	0.536500
H261	H26	0.882900	0.106300	0.677400
H271	H27	0.754600	0.032200	0.695000
H281	H28	0.705600	0.081900	0.635300
H291	H29	0.798200	0.423000	0.488000
H301	H30	0.788300	0.534600	0.330300
H311	H31	0.751300	0.427300	0.300200
H321	H32	0.737100	0.318300	0.364800
H331	H33	0.558000	0.146000	0.554000
H341	H34	0.479000	0.089000	0.580000
H351	H35	0.262600	0.241000	0.824400
H361	H36	0.304000	0.248000	0.750000
H371	H37	0.913300	0.371500	0.423200
H381	H38	0.888000	0.381000	0.491000
H391	H39	0.019000	0.894000	0.797000
H401	H40	0.070900	0.880600	0.735700
H411	H41	0.150100	0.966300	0.012200
H421	H42	0.121900	0.861100	0.198200
H431	H43	0.038600	0.911700	0.263500
H441	H44	0.009900	0.987300	0.204400
H451	H45	0.120000	0.138600	0.855000
H461	H46	0.050200	0.285500	0.801100
H471	H47	0.983200	0.280300	0.922500
H481	H48	0.978800	0.200400	0.010600
H491	H49	0.486700	0.994400	0.855700
H501	H50	0.544100	0.912800	0.989500
H511	H51	0.675300	0.018000	0.923300
H521	H52	0.711300	0.114300	0.827000
H531	H53	0.483800	0.145400	0.690600
H541	H54	0.497300	0.332200	0.586900
H551	H55	0.620700	0.404500	0.577800
H561	H56	0.673800	0.350000	0.627800
H571	H57	0.161600	0.753700	0.810900
H581	H58	0.163100	0.609300	0.952200
H591	H59	0.095600	0.510900	0.923700
H601	H60	0.064100	0.534900	0.837600
H611	H61	0.943200	0.679700	0.664700
H621	H62	0.020500	0.882100	0.529400
H631	H63	0.145000	0.930400	0.525000
H641	H64	0.167600	0.855200	0.593000
H651	H65	0.317700	0.452800	0.963500
H661	H66	0.283700	0.560300	0.822600
H671	H67	0.227200	0.449600	0.805000
H681	H68	0.217200	0.340900	0.864700
H691	H69	0.411000	0.286200	0.012000
H701	H70	0.364900	0.118600	0.169700
H711	H71	0.227500	0.051500	0.199800
H721	H72	0.183100	0.101900	0.135200
H731	H73	0.200000	0.112000	0.946000
H741	H74	0.169000	0.059000	0.920000
H751	H75	0.565400	0.087000	0.675600
H761	H76	0.498000	0.054000	0.750000
H771	H77	0.294700	0.336500	0.076800
H781	H78	0.372000	0.379000	0.009000
H791	H79	0.191000	0.816000	0.703000
H801	H80	0.116300	0.806600	0.764300
H811	H81	0.521500	0.837700	0.512200
H821	H82	0.440700	0.679900	0.698200
H831	H83	0.324800	0.697900	0.763500
H841	H84	0.308300	0.785700	0.704400
H851	H85	0.506400	0.025000	0.355000
H861	H86	0.413400	0.148700	0.301100
H871	H87	0.297200	0.094300	0.422500
H881	H88	0.289000	0.010600	0.510600
H891	H89	0.649900	0.657600	0.355700
H901	H90	0.597700	0.466400	0.489500
H911	H91	0.558700	0.401400	0.423300
H921	H92	0.558700	0.461700	0.327000
H931	H93	0.664000	0.825600	0.190600
H941	H94	0.580900	0.915800	0.086900
H951	H95	0.517700	0.801500	0.077800
H961	H96	0.522200	0.698400	0.127800
H971	H97	0.935400	0.027500	0.310900
H981	H98	0.938500	0.884700	0.452200
H991	H99	0.065400	0.980700	0.423700
H1001	H100	0.127500	0.098300	0.337600
H1011	H101	0.155600	0.392100	0.164700
H1021	H102	0.088500	0.450100	0.029400
H1031	H103	0.044600	0.330000	0.025000
H1041	H104	0.051800	0.239400	0.093000
H1051	H105	0.083700	0.718800	0.463500
H1061	H106	0.117100	0.893700	0.322600
H1071	H107	0.245400	0.967800	0.305000
H1081	H108	0.294400	0.918100	0.364700
H1091	H109	0.201800	0.577000	0.512000
H1101	H110	0.211700	0.465400	0.669700
H1111	H111	0.248700	0.572700	0.699800
H1121	H112	0.262900	0.681700	0.635200
H1131	H113	0.442000	0.854000	0.446000
H1141	H114	0.521000	0.911000	0.420000
H1151	H115	0.737400	0.759000	0.175600
H1161	H116	0.696000	0.752000	0.250000
H1171	H117	0.086700	0.628500	0.576800
H1181	H118	0.112000	0.619000	0.509000
H1191	H119	0.981000	0.106000	0.203000
H1201	H120	0.929100	0.119400	0.264300
H1211	H121	0.849900	0.033700	0.987800
H1221	H122	0.878100	0.138900	0.801800
H1231	H123	0.961400	0.088300	0.736500
H1241	H124	0.990100	0.012700	0.795600
H1251	H125	0.880000	0.861400	0.145000
H1261	H126	0.949800	0.714500	0.198900
H1271	H127	0.016800	0.719700	0.077500
H1281	H128	0.021200	0.799600	0.989400
H1291	H129	0.513300	0.005600	0.144300
H1301	H130	0.455900	0.087200	0.010500
H1311	H131	0.324700	0.982000	0.076700
H1321	H132	0.288700	0.885700	0.173000
H1331	H133	0.516200	0.854600	0.309400
H1341	H134	0.502700	0.667800	0.413100
H1351	H135	0.379300	0.595500	0.422200
H1361	H136	0.326200	0.650000	0.372200
H1371	H137	0.838400	0.246300	0.189100
H1381	H138	0.836900	0.390700	0.047800
H1391	H139	0.904400	0.489100	0.076300
H1401	H140	0.935900	0.465100	0.162400
H1411	H141	0.056800	0.320300	0.335300
H1421	H142	0.979500	0.117900	0.470600
H1431	H143	0.855000	0.069600	0.475000
H1441	H144	0.832400	0.144800	0.407000
H1451	H145	0.682300	0.547200	0.036500
H1461	H146	0.716300	0.439700	0.177400
H1471	H147	0.772800	0.550400	0.195000
H1481	H148	0.782800	0.659100	0.135300
H1491	H149	0.589000	0.713800	0.988000
H1501	H150	0.635100	0.881400	0.830300
H1511	H151	0.772500	0.948500	0.800200
H1521	H152	0.816900	0.898100	0.864800
H1531	H153	0.800000	0.888000	0.054000
H1541	H154	0.831000	0.941000	0.080000
H1551	H155	0.434600	0.913000	0.324400
H1561	H156	0.502000	0.946000	0.250000
H1571	H157	0.705300	0.663500	0.923200
H1581	H158	0.628000	0.621000	0.991000
H1591	H159	0.809000	0.184000	0.297000
H1601	H160	0.883700	0.193400	0.235700
C11	C1	0.602590	0.122210	0.429400
C21	C2	0.610700	0.041000	0.497900
C31	C3	0.587370	0.178730	0.398500
C41	C4	0.517990	0.190290	0.437600
C51	C5	0.508230	0.243270	0.401500
C61	C6	0.566640	0.285160	0.325800
C71	C7	0.635720	0.273980	0.286700
C81	C8	0.645610	0.221690	0.322300
C91	C9	0.431860	0.253840	0.442700
C101	C10	0.603500	0.991200	0.557900
C111	C11	0.535100	0.960560	0.631400
C121	C12	0.528950	0.908650	0.684200
C131	C13	0.591170	0.886930	0.663900
C141	C14	0.660190	0.918710	0.590900
C151	C15	0.665570	0.969530	0.538300
C161	C16	0.454260	0.872340	0.762600
C171	C17	0.412510	0.399990	0.720500
C181	C18	0.416700	0.319000	0.792700
C191	C19	0.398480	0.433960	0.667200
C201	C20	0.370190	0.394110	0.629700
C211	C21	0.372220	0.431280	0.570500
C221	C22	0.400050	0.508250	0.550500
C231	C23	0.424550	0.547450	0.589600
C241	C24	0.424360	0.511540	0.647300
C251	C25	0.347570	0.390430	0.527000
C261	C26	0.408320	0.249780	0.832900
C271	C27	0.367060	0.179940	0.830400
C281	C28	0.372330	0.118670	0.859200
C291	C29	0.415830	0.125270	0.893700
C301	C30	0.454130	0.193970	0.898500
C311	C31	0.451370	0.255930	0.868700
C321	C32	0.334900	0.046700	0.848400
C331	C33	0.920390	0.849010	0.739600
C341	C34	0.891540	0.748860	0.817000
C351	C35	0.961020	0.924680	0.686300
C361	C36	0.037650	0.981850	0.667300
C371	C37	0.074220	0.052380	0.616200
C381	C38	0.036610	0.067690	0.581900
C391	C39	0.960300	0.010100	0.599400
C401	C40	0.923100	0.939600	0.651100
C411	C41	0.153900	0.113100	0.602400
C421	C42	0.897820	0.694280	0.862300
C431	C43	0.868460	0.620840	0.861900
C441	C44	0.875210	0.568290	0.900900
C451	C45	0.907760	0.586040	0.943800
C461	C46	0.934400	0.658200	0.946000
C471	C47	0.930000	0.712500	0.905500
C481	C48	0.843770	0.489830	0.899800
C491	C49	0.773150	0.217050	0.542400
C501	C50	0.755580	0.290920	0.475900
C511	C51	0.806090	0.187210	0.579300
C521	C52	0.883810	0.231090	0.567900
C531	C53	0.913700	0.200200	0.603500
C541	C54	0.864320	0.126280	0.652200
C551	C55	0.787160	0.082240	0.663200
C561	C56	0.757510	0.111890	0.627400
C571	C57	0.000820	0.248980	0.584000
C581	C58	0.767310	0.359290	0.432400
C591	C59	0.788530	0.423770	0.450500
C601	C60	0.795430	0.488270	0.413500
C611	C61	0.782440	0.490860	0.356100
C621	C62	0.760500	0.426500	0.338000
C631	C63	0.752470	0.361030	0.376500
C641	C64	0.811620	0.553480	0.439300
C651	C65	0.051610	0.031990	0.070600
C661	C66	0.038900	0.108600	0.002100
C671	C67	0.077230	0.985870	0.101500
C681	C68	0.127890	0.955590	0.062400
C691	C69	0.144770	0.909730	0.098500
C701	C70	0.110960	0.892440	0.174200
C711	C71	0.060680	0.922420	0.213300
C721	C72	0.043990	0.967910	0.177700
C731	C73	0.196540	0.874560	0.057300
C741	C74	0.049100	0.161400	0.942100
C751	C75	0.091960	0.166500	0.868600
C761	C76	0.092850	0.213150	0.815800
C771	C77	0.050830	0.255070	0.836100
C781	C78	0.009610	0.251090	0.909100
C791	C79	0.007830	0.203870	0.961700
C801	C80	0.134940	0.216860	0.737400
C811	C81	0.620490	0.133010	0.779500
C821	C82	0.611700	0.209400	0.707300
C831	C83	0.601160	0.065680	0.832800
C841	C84	0.523810	0.999890	0.870300
C851	C85	0.501780	0.942720	0.929500
C861	C86	0.558750	0.950550	0.949500
C871	C87	0.637050	0.014150	0.910400
C881	C88	0.658840	0.071660	0.852700
C891	C89	0.417430	0.874570	0.973000
C901	C90	0.582680	0.241220	0.667100
C911	C91	0.510340	0.197460	0.669600
C921	C92	0.477870	0.231530	0.640800
C931	C93	0.518970	0.309530	0.606300
C941	C94	0.592470	0.352630	0.601500
C951	C95	0.624630	0.320070	0.631300
C961	C96	0.395100	0.183300	0.651600
C971	C97	0.088610	0.659990	0.760400
C981	C98	0.065860	0.708540	0.683000
C991	C99	0.110980	0.647320	0.813700
C1001	C100	0.149150	0.704950	0.832700
C1011	C101	0.168580	0.690420	0.883800
C1021	C102	0.149590	0.618510	0.918100
C1031	C103	0.109500	0.559700	0.900600
C1041	C104	0.090700	0.574200	0.848900
C1051	C105	0.215500	0.756300	0.897600
C1061	C106	0.056580	0.760120	0.637700
C1071	C107	0.982740	0.730360	0.638100
C1081	C108	0.969190	0.776110	0.599100
C1091	C109	0.029840	0.851560	0.556200
C1101	C110	0.104200	0.880400	0.554000
C1111	C111	0.118000	0.835500	0.594500
C1121	C112	0.889630	0.743570	0.600200
C1131	C113	0.259450	0.315550	0.957600
C1141	C114	0.266820	0.231480	0.024100
C1151	C115	0.266510	0.385390	0.920700
C1161	C116	0.298990	0.451710	0.932100
C1171	C117	0.303700	0.517200	0.896500
C1181	C118	0.278480	0.516520	0.847800
C1191	C119	0.245440	0.450360	0.836800
C1201	C120	0.239290	0.384910	0.872600
C1211	C121	0.332980	0.584820	0.916000
C1221	C122	0.291690	0.199710	0.067600
C1231	C123	0.374270	0.239030	0.049500
C1241	C124	0.401770	0.208930	0.086500
C1251	C125	0.346960	0.138540	0.143900
C1261	C126	0.264500	0.098500	0.162000
C1271	C127	0.237530	0.128970	0.123500
C1281	C128	0.492780	0.250920	0.060700
C1291	C129	0.397410	0.877790	0.570600
C1301	C130	0.389300	0.959000	0.502100
C1311	C131	0.412630	0.821270	0.601500
C1321	C132	0.482010	0.809710	0.562400
C1331	C133	0.491770	0.756730	0.598500
C1341	C134	0.433360	0.714840	0.674200
C1351	C135	0.364280	0.726020	0.713300
C1361	C136	0.354390	0.778310	0.677700
C1371	C137	0.568140	0.746160	0.557300
C1381	C138	0.396500	0.008800	0.442100
C1391	C139	0.464900	0.039440	0.368600
C1401	C140	0.471050	0.091350	0.315800
C1411	C141	0.408830	0.113070	0.336100
C1421	C142	0.339810	0.081290	0.409100
C1431	C143	0.334430	0.030470	0.461700
C1441	C144	0.545740	0.127660	0.237400
C1451	C145	0.587490	0.600010	0.279500
C1461	C146	0.583300	0.681000	0.207300
C1471	C147	0.601520	0.566040	0.332800
C1481	C148	0.629810	0.605890	0.370300
C1491	C149	0.627780	0.568720	0.429500
C1501	C150	0.599950	0.491750	0.449500
C1511	C151	0.575450	0.452550	0.410400
C1521	C152	0.575640	0.488460	0.352700
C1531	C153	0.652430	0.609570	0.473000
C1541	C154	0.591680	0.750220	0.167100
C1551	C155	0.632940	0.820060	0.169600
C1561	C156	0.627670	0.881330	0.140800
C1571	C157	0.584170	0.874730	0.106300
C1581	C158	0.545870	0.806030	0.101500
C1591	C159	0.548630	0.744070	0.131300
C1601	C160	0.665100	0.953300	0.151600
C1611	C161	0.079610	0.150990	0.260400
C1621	C162	0.108460	0.251140	0.183000
C1631	C163	0.038980	0.075320	0.313700
C1641	C164	0.962350	0.018150	0.332700
C1651	C165	0.925780	0.947620	0.383800
C1661	C166	0.963390	0.932310	0.418100
C1671	C167	0.039700	0.989900	0.400600
C1681	C168	0.076900	0.060400	0.348900
C1691	C169	0.846100	0.886900	0.397600
C1701	C170	0.102180	0.305720	0.137700
C1711	C171	0.131540	0.379160	0.138100
C1721	C172	0.124790	0.431710	0.099100
C1731	C173	0.092240	0.413960	0.056200
C1741	C174	0.065600	0.341800	0.054000
C1751	C175	0.070000	0.287500	0.094500
C1761	C176	0.156230	0.510170	0.100200
C1771	C177	0.226850	0.782950	0.457600
C1781	C178	0.244420	0.709080	0.524100
C1791	C179	0.193910	0.812790	0.420700
C1801	C180	0.116190	0.768910	0.432100
C1811	C181	0.086300	0.799800	0.396500
C1821	C182	0.135680	0.873720	0.347800
C1831	C183	0.212840	0.917760	0.336800
C1841	C184	0.242490	0.888110	0.372600
C1851	C185	0.999180	0.751020	0.416000
C1861	C186	0.232690	0.640710	0.567600
C1871	C187	0.211470	0.576230	0.549500
C1881	C188	0.204570	0.511730	0.586500
C1891	C189	0.217560	0.509140	0.643900
C1901	C190	0.239500	0.573500	0.662000
C1911	C191	0.247530	0.638970	0.623500
C1921	C192	0.188380	0.446520	0.560700
C1931	C193	0.948390	0.968010	0.929400
C1941	C194	0.961100	0.891400	0.997900
C1951	C195	0.922770	0.014130	0.898500
C1961	C196	0.872110	0.044410	0.937600
C1971	C197	0.855230	0.090270	0.901500
C1981	C198	0.889040	0.107560	0.825800
C1991	C199	0.939320	0.077580	0.786700
C2001	C200	0.956010	0.032090	0.822300
C2011	C201	0.803460	0.125440	0.942700
C2021	C202	0.950900	0.838600	0.057900
C2031	C203	0.908040	0.833500	0.131400
C2041	C204	0.907150	0.786850	0.184200
C2051	C205	0.949170	0.744930	0.163900
C2061	C206	0.990390	0.748910	0.090900
C2071	C207	0.992170	0.796130	0.038300
C2081	C208	0.865060	0.783140	0.262600
C2091	C209	0.379510	0.866990	0.220500
C2101	C210	0.388300	0.790600	0.292700
C2111	C211	0.398840	0.934320	0.167200
C2121	C212	0.476190	0.000110	0.129700
C2131	C213	0.498220	0.057280	0.070500
C2141	C214	0.441250	0.049450	0.050500
C2151	C215	0.362950	0.985850	0.089600
C2161	C216	0.341160	0.928340	0.147300
C2171	C217	0.582570	0.125430	0.027000
C2181	C218	0.417320	0.758780	0.332900
C2191	C219	0.489660	0.802540	0.330400
C2201	C220	0.522130	0.768470	0.359200
C2211	C221	0.481030	0.690470	0.393700
C2221	C222	0.407530	0.647370	0.398500
C2231	C223	0.375370	0.679930	0.368700
C2241	C224	0.604900	0.816700	0.348400
C2251	C225	0.911390	0.340010	0.239600
C2261	C226	0.934140	0.291460	0.317000
C2271	C227	0.889020	0.352680	0.186300
C2281	C228	0.850850	0.295050	0.167300
C2291	C229	0.831420	0.309580	0.116200
C2301	C230	0.850410	0.381490	0.081900
C2311	C231	0.890500	0.440300	0.099400
C2321	C232	0.909300	0.425800	0.151100
C2331	C233	0.784500	0.243700	0.102400
C2341	C234	0.943420	0.239880	0.362300
C2351	C235	0.017260	0.269640	0.361900
C2361	C236	0.030810	0.223890	0.400900
C2371	C237	0.970160	0.148440	0.443800
C2381	C238	0.895800	0.119600	0.446000
C2391	C239	0.882000	0.164500	0.405500
C2401	C240	0.110370	0.256430	0.399800
C2411	C241	0.740550	0.684450	0.042400
C2421	C242	0.733180	0.768520	0.975900
C2431	C243	0.733490	0.614610	0.079300
C2441	C244	0.701010	0.548290	0.067900
C2451	C245	0.696300	0.482800	0.103500
C2461	C246	0.721520	0.483480	0.152200
C2471	C247	0.754560	0.549640	0.163200
C2481	C248	0.760710	0.615090	0.127400
C2491	C249	0.667020	0.415180	0.084000
C2501	C250	0.708310	0.800290	0.932400
C2511	C251	0.625730	0.760970	0.950500
C2521	C252	0.598230	0.791070	0.913500
C2531	C253	0.653040	0.861460	0.856100
C2541	C254	0.735500	0.901500	0.838000
C2551	C255	0.762470	0.871030	0.876500
C2561	C256	0.507220	0.749080	0.939300
N11	N1	0.652690	0.099110	0.385600
N21	N2	0.657370	0.048030	0.429000
N31	N3	0.573640	0.085800	0.500800
N41	N4	0.528240	0.098680	0.565700
N51	N5	0.474020	0.437280	0.728300
N61	N6	0.476200	0.386240	0.774500
N71	N7	0.374350	0.325210	0.761200
N81	N8	0.294070	0.272270	0.779000
N91	N9	0.848590	0.793750	0.756100
N101	N10	0.830320	0.730140	0.805800
N111	N11	0.948270	0.822610	0.777700
N121	N12	0.021600	0.858800	0.778400
N131	N13	0.702190	0.175970	0.548200
N141	N14	0.691640	0.222920	0.505300
N151	N15	0.808630	0.289490	0.497500
N161	N16	0.890190	0.348830	0.470000
N171	N17	0.984710	0.038290	0.114400
N181	N18	0.977030	0.086370	0.071000
N191	N19	0.086600	0.074440	0.999200
N201	N20	0.164380	0.093940	0.934300
N211	N21	0.665580	0.202320	0.771700
N221	N22	0.660740	0.250700	0.725500
N231	N23	0.586410	0.135550	0.738800
N241	N24	0.551270	0.073070	0.721000
N251	N25	0.049850	0.604690	0.743900
N261	N26	0.035940	0.636120	0.694200
N271	N27	0.100310	0.725970	0.722300
N281	N28	0.137200	0.800000	0.721600
N291	N29	0.224170	0.250390	0.951800
N301	N30	0.228220	0.196940	0.994700
N311	N31	0.286990	0.306130	0.002500
N321	N32	0.318830	0.360190	0.030000
N331	N33	0.347310	0.900890	0.614400
N341	N34	0.342630	0.951970	0.571000
N351	N35	0.426360	0.914200	0.499200
N361	N36	0.471760	0.901320	0.434300
N371	N37	0.525980	0.562720	0.271700
N381	N38	0.523800	0.613760	0.225500
N391	N39	0.625650	0.674790	0.238800
N401	N40	0.705930	0.727730	0.221000
N411	N41	0.151410	0.206250	0.243900
N421	N42	0.169680	0.269860	0.194200
N431	N43	0.051730	0.177390	0.222300
N441	N44	0.978400	0.141200	0.221600
N451	N45	0.297810	0.824030	0.451800
N461	N46	0.308360	0.777080	0.494700
N471	N47	0.191370	0.710510	0.502500
N481	N48	0.109810	0.651170	0.530000
N491	N49	0.015290	0.961710	0.885600
N501	N50	0.022970	0.913630	0.929000
N511	N51	0.913400	0.925560	0.000800
N521	N52	0.835620	0.906060	0.065700
N531	N53	0.334420	0.797680	0.228300
N541	N54	0.339260	0.749300	0.274500
N551	N55	0.413590	0.864450	0.261200
N561	N56	0.448730	0.926930	0.279000
N571	N57	0.950150	0.395310	0.256100
N581	N58	0.964060	0.363880	0.305800
N591	N59	0.899690	0.274030	0.277700
N601	N60	0.862800	0.200000	0.278400
N611	N61	0.775830	0.749610	0.048200
N621	N62	0.771780	0.803060	0.005300
N631	N63	0.713010	0.693870	0.997500
N641	N64	0.681170	0.639810	0.970000
O11	O1	0.427550	0.303860	0.407510
O21	O2	0.379990	0.212690	0.509500
O31	O3	0.442800	0.814620	0.802140
O41	O4	0.406930	0.902980	0.784470
O51	O5	0.371970	0.425290	0.463260
O61	O6	0.299810	0.318020	0.556790
O71	O7	0.278290	0.035230	0.835960
O81	O8	0.365790	0.003170	0.849440
O91	O9	0.177260	0.181350	0.573010
O101	O10	0.195390	0.094360	0.622970
O111	O11	0.800100	0.473480	0.871200
O121	O12	0.860770	0.445310	0.925700
O131	O13	0.044440	0.313460	0.532700
O141	O14	0.025650	0.223970	0.619800
O151	O15	0.827720	0.614700	0.400500
O161	O16	0.807410	0.541090	0.499000
O171	O17	0.409840	0.421480	0.313300
O181	O18	0.297040	0.248980	0.373100
O191	O19	0.214110	0.316800	0.471970
O201	O20	0.339590	0.957530	0.721120
O211	O21	0.155230	0.896380	0.829010
O221	O22	0.633600	0.468880	0.902100
O231	O23	0.683900	0.362800	0.842900
O241	O24	0.211370	0.835060	0.092490
O251	O25	0.222190	0.889490	0.990500
O261	O26	0.116760	0.244940	0.697860
O271	O27	0.187450	0.191400	0.715530
O281	O28	0.388550	0.835230	0.036740
O291	O29	0.374810	0.856600	0.943210
O301	O30	0.371190	0.114250	0.664040
O311	O31	0.352610	0.215230	0.650560
O321	O32	0.254360	0.750270	0.926990
O331	O33	0.217330	0.818360	0.877030
O341	O34	0.844680	0.671300	0.628800
O351	O35	0.871010	0.786470	0.574300
O361	O36	0.346160	0.577140	0.967300
O371	O37	0.343770	0.645450	0.880200
O381	O38	0.515200	0.228220	0.099500
O391	O39	0.540090	0.306410	0.001000
O401	O40	0.234780	0.723140	0.186700
O411	O41	0.122080	0.670140	0.126900
O421	O42	0.288770	0.686080	0.028030
O431	O43	0.178650	0.060710	0.778880
O441	O44	0.225390	0.984240	0.670990
O451	O45	0.870980	0.535700	0.597900
O461	O46	0.705700	0.526800	0.657100
O471	O47	0.572450	0.696140	0.592490
O481	O48	0.620010	0.787310	0.490500
O491	O49	0.557200	0.185380	0.197860
O501	O50	0.593070	0.097020	0.215530
O511	O51	0.628030	0.574710	0.536740
O521	O52	0.700190	0.681980	0.443210
O531	O53	0.721710	0.964770	0.164040
O541	O54	0.634210	0.996830	0.150560
O551	O55	0.822740	0.818650	0.426990
O561	O56	0.804610	0.905640	0.377030
O571	O57	0.199900	0.526520	0.128800
O581	O58	0.139230	0.554690	0.074300
O591	O59	0.955560	0.686540	0.467300
O601	O60	0.974350	0.776030	0.380200
O611	O61	0.172280	0.385300	0.599500
O621	O62	0.192590	0.458910	0.501000
O631	O63	0.590160	0.578520	0.686700
O641	O64	0.702960	0.751020	0.626900
O651	O65	0.785890	0.683200	0.528030
O661	O66	0.660410	0.042470	0.278880
O671	O67	0.844770	0.103620	0.170990
O681	O68	0.366400	0.531120	0.097900
O691	O69	0.316100	0.637200	0.157100
O701	O70	0.788630	0.164940	0.907510
O711	O71	0.777810	0.110510	0.009500
O721	O72	0.883240	0.755060	0.302140
O731	O73	0.812550	0.808600	0.284470
O741	O74	0.611450	0.164770	0.963260
O751	O75	0.625190	0.143400	0.056790
O761	O76	0.628810	0.885750	0.335960
O771	O77	0.647390	0.784770	0.349440
O781	O78	0.745640	0.249730	0.073010
O791	O79	0.782670	0.181640	0.122970
O801	O80	0.155320	0.328700	0.371200
O811	O81	0.128990	0.213530	0.425700
O821	O82	0.653840	0.422860	0.032700
O831	O83	0.656230	0.354550	0.119800
O841	O84	0.484800	0.771780	0.900500
O851	O85	0.459910	0.693590	0.999000
O861	O86	0.765220	0.276860	0.813300
O871	O87	0.877920	0.329860	0.873100
O881	O88	0.711230	0.313920	0.971970
O891	O89	0.821350	0.939290	0.221120
O901	O90	0.774610	0.015760	0.329010
O911	O91	0.129020	0.464300	0.402100
O921	O92	0.294300	0.473200	0.342900
