data_OVICUS_freeONLY_PM
_symmetry_space_group_name_H-M	'P1'
_cell_length_a	11.174000
_cell_length_b	12.836500
_cell_length_c	12.836500
_cell_angle_alpha	117.852000
_cell_angle_beta	96.119700
_cell_angle_gamma	83.880300
_symmetry_Int_Tables_number 1

loop_
_symmetry_equiv_pos_as_xyz
'x,y,z'

loop_
_atom_site_label
_atom_site_type_symbol
_atom_site_fract_x
_atom_site_fract_y
_atom_site_fract_z
Zn11	Zn1	0.865610	0.498410	0.973210
Zn21	Zn2	0.634390	0.973210	0.498410
Zn31	Zn3	0.134390	0.501590	0.026790
Zn41	Zn4	0.365610	0.026790	0.501590
H11	H1	0.765100	0.796700	0.309500
H21	H2	0.110900	0.746200	0.397800
H31	H3	0.081100	0.889200	0.589000
H41	H4	0.180700	0.803600	0.961600
H51	H5	0.846700	0.740800	0.827400
H61	H6	0.850300	0.879800	0.763800
H71	H7	0.734900	0.309500	0.796700
H81	H8	0.389100	0.397800	0.746200
H91	H9	0.418900	0.589000	0.889200
H101	H10	0.319300	0.961600	0.803600
H111	H11	0.653300	0.827400	0.740800
H121	H12	0.649700	0.763800	0.879800
H131	H13	0.234900	0.203300	0.690500
H141	H14	0.889100	0.253800	0.602200
H151	H15	0.918900	0.110800	0.411000
H161	H16	0.819300	0.196400	0.038400
H171	H17	0.153300	0.259200	0.172600
H181	H18	0.149700	0.120200	0.236200
H191	H19	0.265100	0.690500	0.203300
H201	H20	0.610900	0.602200	0.253800
H211	H21	0.581100	0.411000	0.110800
H221	H22	0.680700	0.038400	0.196400
H231	H23	0.346700	0.172600	0.259200
H241	H24	0.350300	0.236200	0.120200
C11	C1	0.954800	0.660600	0.210000
C21	C2	0.940000	0.754900	0.333300
C31	C3	0.829700	0.815900	0.365900
C41	C4	0.035100	0.784500	0.417700
C51	C5	0.018000	0.870000	0.531200
C61	C6	0.904700	0.927300	0.557500
C71	C7	0.012000	0.927500	0.835300
C81	C8	0.111800	0.818100	0.921700
C91	C9	0.013600	0.752100	0.898500
C101	C10	0.916400	0.780600	0.842400
C111	C11	0.014200	0.659900	0.936300
C121	C12	0.916500	0.865800	0.807000
C131	C13	0.545200	0.210000	0.660600
C141	C14	0.560000	0.333300	0.754900
C151	C15	0.670300	0.365900	0.815900
C161	C16	0.464900	0.417700	0.784500
C171	C17	0.482000	0.531200	0.870000
C181	C18	0.595300	0.557500	0.927300
C191	C19	0.488000	0.835300	0.927500
C201	C20	0.388200	0.921700	0.818100
C211	C21	0.486400	0.898500	0.752100
C221	C22	0.583600	0.842400	0.780600
C231	C23	0.485800	0.936300	0.659900
C241	C24	0.583500	0.807000	0.865800
C251	C25	0.045200	0.339400	0.790000
C261	C26	0.060000	0.245100	0.666700
C271	C27	0.170300	0.184100	0.634100
C281	C28	0.964900	0.215500	0.582300
C291	C29	0.982000	0.130000	0.468800
C301	C30	0.095300	0.072700	0.442500
C311	C31	0.988000	0.072500	0.164700
C321	C32	0.888200	0.181900	0.078300
C331	C33	0.986400	0.247900	0.101500
C341	C34	0.083600	0.219400	0.157600
C351	C35	0.985800	0.340100	0.063700
C361	C36	0.083500	0.134200	0.193000
C371	C37	0.454800	0.790000	0.339400
C381	C38	0.440000	0.666700	0.245100
C391	C39	0.329700	0.634100	0.184100
C401	C40	0.535100	0.582300	0.215500
C411	C41	0.518000	0.468800	0.130000
C421	C42	0.404700	0.442500	0.072700
C431	C43	0.512000	0.164700	0.072500
C441	C44	0.611800	0.078300	0.181900
C451	C45	0.513600	0.101500	0.247900
C461	C46	0.416400	0.157600	0.219400
C471	C47	0.514200	0.063700	0.340100
C481	C48	0.416500	0.193000	0.134200
S11	S1	0.020250	0.046310	0.801570
S21	S2	0.868310	0.040510	0.699870
S31	S3	0.479750	0.801570	0.046310
S41	S4	0.631690	0.699870	0.040510
S51	S5	0.979750	0.953690	0.198430
S61	S6	0.131690	0.959490	0.300130
S71	S7	0.520250	0.198430	0.953690
S81	S8	0.368310	0.300130	0.959490
N11	N1	0.110300	0.904900	0.887500
N21	N2	0.811700	0.902300	0.476100
N31	N3	0.389700	0.887500	0.904900
N41	N4	0.688300	0.476100	0.902300
N51	N5	0.889700	0.095100	0.112500
N61	N6	0.188300	0.097700	0.523900
N71	N7	0.610300	0.112500	0.095100
N81	N8	0.311700	0.523900	0.097700
O11	O1	0.113400	0.627400	0.973000
O21	O2	0.914200	0.620100	0.929700
O31	O3	0.060900	0.625600	0.181400
O41	O4	0.861700	0.622200	0.143800
O51	O5	0.386600	0.973000	0.627400
O61	O6	0.585800	0.929700	0.620100
O71	O7	0.439100	0.181400	0.625600
O81	O8	0.638300	0.143800	0.622200
O91	O9	0.886600	0.372600	0.027000
O101	O10	0.085800	0.379900	0.070300
O111	O11	0.939100	0.374400	0.818600
O121	O12	0.138300	0.377800	0.856200
O131	O13	0.613400	0.027000	0.372600
O141	O14	0.414200	0.070300	0.379900
O151	O15	0.560900	0.818600	0.374400
O161	O16	0.361700	0.856200	0.377800
