data_OVUDAL_freeONLY_PM
_symmetry_space_group_name_H-M	'P1'
_cell_length_a	8.540900
_cell_length_b	19.160500
_cell_length_c	11.303700
_cell_angle_alpha	90.000000
_cell_angle_beta	110.327000
_cell_angle_gamma	90.000000
_symmetry_Int_Tables_number 1

loop_
_symmetry_equiv_pos_as_xyz
'x,y,z'

loop_
_atom_site_label
_atom_site_type_symbol
_atom_site_fract_x
_atom_site_fract_y
_atom_site_fract_z
U11	U1	0.772270	0.507910	0.016160
P11	P1	0.765970	0.615550	0.290460
P21	P2	0.801050	0.436090	0.774880
O11	O1	0.806200	0.426520	0.096400
O21	O2	0.734700	0.587960	0.932200
H11	H1	0.389400	0.791000	0.247700
O31	O3	0.884600	0.675960	0.324300
O41	O4	0.789500	0.564190	0.196500
O51	O5	0.581600	0.644630	0.236900
O61	O6	0.825900	0.361450	0.745400
O71	O7	0.940800	0.466880	0.891000
O81	O8	0.645700	0.448230	0.812500
C11	C1	0.779800	0.566030	0.428500
C21	C2	0.806900	0.598700	0.544200
H21	H2	0.821600	0.647900	0.550900
C31	C3	0.812700	0.560400	0.649000
H31	H3	0.831600	0.583200	0.727400
C41	C4	0.790800	0.487840	0.640200
C51	C5	0.767100	0.455000	0.525800
H41	H4	0.754800	0.405800	0.519600
C61	C6	0.761100	0.493800	0.420000
H51	H5	0.744300	0.470900	0.342000
U21	U2	0.227730	0.007910	0.983840
P31	P3	0.234030	0.115550	0.709540
P41	P4	0.198950	0.936090	0.225120
O91	O9	0.193800	0.926520	0.903600
O101	O10	0.265300	0.087960	0.067800
H61	H6	0.610600	0.291000	0.752300
O111	O11	0.115400	0.175960	0.675700
O121	O12	0.210500	0.064190	0.803500
O131	O13	0.418400	0.144630	0.763100
O141	O14	0.174100	0.861450	0.254600
O151	O15	0.059200	0.966880	0.109000
O161	O16	0.354300	0.948230	0.187500
C71	C7	0.220200	0.066030	0.571500
C81	C8	0.193100	0.098700	0.455800
H71	H7	0.178400	0.147900	0.449100
C91	C9	0.187300	0.060400	0.351000
H81	H8	0.168400	0.083200	0.272600
C101	C10	0.209200	0.987840	0.359800
C111	C11	0.232900	0.955000	0.474200
H91	H9	0.245200	0.905800	0.480400
C121	C12	0.238900	0.993800	0.580000
H101	H10	0.255700	0.970900	0.658000
U31	U3	0.227730	0.492090	0.983840
P51	P5	0.234030	0.384450	0.709540
P61	P6	0.198950	0.563910	0.225120
O171	O17	0.193800	0.573480	0.903600
O181	O18	0.265300	0.412040	0.067800
H111	H11	0.610600	0.209000	0.752300
O191	O19	0.115400	0.324040	0.675700
O201	O20	0.210500	0.435810	0.803500
O211	O21	0.418400	0.355370	0.763100
O221	O22	0.174100	0.638550	0.254600
O231	O23	0.059200	0.533120	0.109000
O241	O24	0.354300	0.551770	0.187500
C131	C13	0.220200	0.433970	0.571500
C141	C14	0.193100	0.401300	0.455800
H121	H12	0.178400	0.352100	0.449100
C151	C15	0.187300	0.439600	0.351000
H131	H13	0.168400	0.416800	0.272600
C161	C16	0.209200	0.512160	0.359800
C171	C17	0.232900	0.545000	0.474200
H141	H14	0.245200	0.594200	0.480400
C181	C18	0.238900	0.506200	0.580000
H151	H15	0.255700	0.529100	0.658000
U41	U4	0.772270	0.992090	0.016160
P71	P7	0.765970	0.884450	0.290460
P81	P8	0.801050	0.063910	0.774880
O251	O25	0.806200	0.073480	0.096400
O261	O26	0.734700	0.912040	0.932200
H161	H16	0.389400	0.709000	0.247700
O271	O27	0.884600	0.824040	0.324300
O281	O28	0.789500	0.935810	0.196500
O291	O29	0.581600	0.855370	0.236900
O301	O30	0.825900	0.138550	0.745400
O311	O31	0.940800	0.033120	0.891000
O321	O32	0.645700	0.051770	0.812500
C191	C19	0.779800	0.933970	0.428500
C201	C20	0.806900	0.901300	0.544200
H171	H17	0.821600	0.852100	0.550900
C211	C21	0.812700	0.939600	0.649000
H181	H18	0.831600	0.916800	0.727400
C221	C22	0.790800	0.012160	0.640200
C231	C23	0.767100	0.045000	0.525800
H191	H19	0.754800	0.094200	0.519600
C241	C24	0.761100	0.006200	0.420000
H201	H20	0.744300	0.029100	0.342000
U51	U5	0.077050	0.750000	0.280240
O331	O33	0.197700	0.750000	0.444300
O341	O34	0.958100	0.750000	0.116900
O351	O35	0.352500	0.750000	0.243000
U61	U6	0.922950	0.250000	0.719760
O361	O36	0.802300	0.250000	0.555700
O371	O37	0.041900	0.250000	0.883100
O381	O38	0.647500	0.250000	0.757000
F11	F1	0.500000	0.500000	0.000000
F21	F2	0.500000	0.000000	0.000000
