data_OWIHIN_freeONLY_PM
_symmetry_space_group_name_H-M	'P1'
_cell_length_a	15.437500
_cell_length_b	15.437500
_cell_length_c	12.284800
_cell_angle_alpha	90.000000
_cell_angle_beta	90.000000
_cell_angle_gamma	90.000000
_symmetry_Int_Tables_number 1

loop_
_symmetry_equiv_pos_as_xyz
'x,y,z'

loop_
_atom_site_label
_atom_site_type_symbol
_atom_site_fract_x
_atom_site_fract_y
_atom_site_fract_z
O11	O1	0.614000	0.380600	0.617300
O21	O2	0.591000	0.290900	0.750800
C11	C1	0.583300	0.363700	0.708500
C21	C2	0.537340	0.430960	0.767300
C31	C3	0.537340	0.430960	0.881200
H11	H1	0.565400	0.379200	0.923900
O31	O3	0.114000	0.880600	0.117300
O41	O4	0.091000	0.790900	0.250800
C41	C4	0.083300	0.863700	0.208500
C51	C5	0.037340	0.930960	0.267300
C61	C6	0.037340	0.930960	0.381200
H21	H2	0.065400	0.879200	0.423900
O51	O5	0.886000	0.119400	0.117300
O61	O6	0.909000	0.209100	0.250800
C71	C7	0.916700	0.136300	0.208500
C81	C8	0.962660	0.069040	0.267300
C91	C9	0.962660	0.069040	0.381200
H31	H3	0.934600	0.120800	0.423900
O71	O7	0.386000	0.619400	0.617300
O81	O8	0.409000	0.709100	0.750800
C101	C10	0.416700	0.636300	0.708500
C111	C11	0.462660	0.569040	0.767300
C121	C12	0.462660	0.569040	0.881200
H41	H4	0.434600	0.620800	0.923900
O91	O9	0.619400	0.114000	0.867300
O101	O10	0.709100	0.091000	0.000800
C131	C13	0.636300	0.083300	0.958500
C141	C14	0.569040	0.037340	0.017300
C151	C15	0.569040	0.037340	0.131200
H51	H5	0.620800	0.065400	0.173900
O111	O11	0.119400	0.614000	0.367300
O121	O12	0.209100	0.591000	0.500800
C161	C16	0.136300	0.583300	0.458500
C171	C17	0.069040	0.537340	0.517300
C181	C18	0.069040	0.537340	0.631200
H61	H6	0.120800	0.565400	0.673900
O131	O13	0.880600	0.386000	0.367300
O141	O14	0.790900	0.409000	0.500800
C191	C19	0.863700	0.416700	0.458500
C201	C20	0.930960	0.462660	0.517300
C211	C21	0.930960	0.462660	0.631200
H71	H7	0.879200	0.434600	0.673900
O151	O15	0.380600	0.886000	0.867300
O161	O16	0.290900	0.909000	0.000800
C221	C22	0.363700	0.916700	0.958500
C231	C23	0.430960	0.962660	0.017300
C241	C24	0.430960	0.962660	0.131200
H81	H8	0.379200	0.934600	0.173900
O171	O17	0.886000	0.380600	0.132700
O181	O18	0.909000	0.290900	0.999200
C251	C25	0.916700	0.363700	0.041500
C261	C26	0.962660	0.430960	0.982700
C271	C27	0.962660	0.430960	0.868800
H91	H9	0.934600	0.379200	0.826100
O191	O19	0.386000	0.880600	0.632700
O201	O20	0.409000	0.790900	0.499200
C281	C28	0.416700	0.863700	0.541500
C291	C29	0.462660	0.930960	0.482700
C301	C30	0.462660	0.930960	0.368800
H101	H10	0.434600	0.879200	0.326100
O211	O21	0.614000	0.119400	0.632700
O221	O22	0.591000	0.209100	0.499200
C311	C31	0.583300	0.136300	0.541500
C321	C32	0.537340	0.069040	0.482700
C331	C33	0.537340	0.069040	0.368800
H111	H11	0.565400	0.120800	0.326100
O231	O23	0.114000	0.619400	0.132700
O241	O24	0.091000	0.709100	0.999200
C341	C34	0.083300	0.636300	0.041500
C351	C35	0.037340	0.569040	0.982700
C361	C36	0.037340	0.569040	0.868800
H121	H12	0.065400	0.620800	0.826100
O251	O25	0.880600	0.114000	0.882700
O261	O26	0.790900	0.091000	0.749200
C371	C37	0.863700	0.083300	0.791500
C381	C38	0.930960	0.037340	0.732700
C391	C39	0.930960	0.037340	0.618800
H131	H13	0.879200	0.065400	0.576100
O271	O27	0.380600	0.614000	0.382700
O281	O28	0.290900	0.591000	0.249200
C401	C40	0.363700	0.583300	0.291500
C411	C41	0.430960	0.537340	0.232700
C421	C42	0.430960	0.537340	0.118800
H141	H14	0.379200	0.565400	0.076100
O291	O29	0.619400	0.386000	0.382700
O301	O30	0.709100	0.409000	0.249200
C431	C43	0.636300	0.416700	0.291500
C441	C44	0.569040	0.462660	0.232700
C451	C45	0.569040	0.462660	0.118800
H151	H15	0.620800	0.434600	0.076100
O311	O31	0.119400	0.886000	0.882700
O321	O32	0.209100	0.909000	0.749200
C461	C46	0.136300	0.916700	0.791500
C471	C47	0.069040	0.962660	0.732700
C481	C48	0.069040	0.962660	0.618800
H161	H16	0.120800	0.934600	0.576100
In11	In1	0.683700	0.316300	0.500000
In21	In2	0.183700	0.816300	0.000000
In31	In3	0.816300	0.183700	0.000000
In41	In4	0.316300	0.683700	0.500000
In51	In5	0.683700	0.183700	0.750000
In61	In6	0.183700	0.683700	0.250000
In71	In7	0.816300	0.316300	0.250000
In81	In8	0.316300	0.816300	0.750000
O331	O33	0.758000	0.250000	0.625000
H171	H17	0.816300	0.250000	0.625000
O341	O34	0.258000	0.750000	0.125000
H181	H18	0.316300	0.750000	0.125000
O351	O35	0.742000	0.250000	0.125000
H191	H19	0.683700	0.250000	0.125000
O361	O36	0.242000	0.750000	0.625000
H201	H20	0.183700	0.750000	0.625000
O371	O37	0.750000	0.258000	0.875000
H211	H21	0.750000	0.316300	0.875000
O381	O38	0.250000	0.758000	0.375000
H221	H22	0.250000	0.816300	0.375000
O391	O39	0.750000	0.242000	0.375000
H231	H23	0.750000	0.183700	0.375000
O401	O40	0.250000	0.742000	0.875000
H241	H24	0.250000	0.683700	0.875000
C491	C49	0.500000	0.500000	0.710400
C501	C50	0.500000	0.500000	0.938100
H251	H25	0.500000	0.500000	0.624900
C511	C51	0.000000	0.000000	0.210400
C521	C52	0.000000	0.000000	0.438100
H261	H26	0.000000	0.000000	0.124900
C531	C53	0.500000	0.000000	0.960400
C541	C54	0.500000	0.000000	0.188100
H271	H27	0.500000	0.000000	0.874900
C551	C55	0.000000	0.500000	0.460400
C561	C56	0.000000	0.500000	0.688100
H281	H28	0.000000	0.500000	0.374900
C571	C57	0.000000	0.500000	0.039600
C581	C58	0.000000	0.500000	0.811900
H291	H29	0.000000	0.500000	0.125100
C591	C59	0.500000	0.000000	0.539600
C601	C60	0.500000	0.000000	0.311900
H301	H30	0.500000	0.000000	0.625100
C611	C61	0.000000	0.000000	0.789600
C621	C62	0.000000	0.000000	0.561900
H311	H31	0.000000	0.000000	0.875100
C631	C63	0.500000	0.500000	0.289600
C641	C64	0.500000	0.500000	0.061900
H321	H32	0.500000	0.500000	0.375100
