data_OWIHEJ_freeONLY_PM
_symmetry_space_group_name_H-M	'P1'
_cell_length_a	15.463600
_cell_length_b	15.463600
_cell_length_c	12.290400
_cell_angle_alpha	90.000000
_cell_angle_beta	90.000000
_cell_angle_gamma	90.000000
_symmetry_Int_Tables_number 1

loop_
_symmetry_equiv_pos_as_xyz
'x,y,z'

loop_
_atom_site_label
_atom_site_type_symbol
_atom_site_fract_x
_atom_site_fract_y
_atom_site_fract_z
O11	O1	0.613900	0.380600	0.616000
O21	O2	0.593800	0.291000	0.751200
C11	C1	0.583700	0.364400	0.708800
C21	C2	0.536850	0.430880	0.767400
C31	C3	0.536850	0.430880	0.881250
H11	H1	0.564500	0.379000	0.924000
O31	O3	0.113900	0.880600	0.116000
O41	O4	0.093800	0.791000	0.251200
C41	C4	0.083700	0.864400	0.208800
C51	C5	0.036850	0.930880	0.267400
C61	C6	0.036850	0.930880	0.381250
H21	H2	0.064500	0.879000	0.424000
O51	O5	0.886100	0.119400	0.116000
O61	O6	0.906200	0.209000	0.251200
C71	C7	0.916300	0.135600	0.208800
C81	C8	0.963150	0.069120	0.267400
C91	C9	0.963150	0.069120	0.381250
H31	H3	0.935500	0.121000	0.424000
O71	O7	0.386100	0.619400	0.616000
O81	O8	0.406200	0.709000	0.751200
C101	C10	0.416300	0.635600	0.708800
C111	C11	0.463150	0.569120	0.767400
C121	C12	0.463150	0.569120	0.881250
H41	H4	0.435500	0.621000	0.924000
O91	O9	0.619400	0.113900	0.866000
O101	O10	0.709000	0.093800	0.001200
C131	C13	0.635600	0.083700	0.958800
C141	C14	0.569120	0.036850	0.017400
C151	C15	0.569120	0.036850	0.131250
H51	H5	0.621000	0.064500	0.174000
O111	O11	0.119400	0.613900	0.366000
O121	O12	0.209000	0.593800	0.501200
C161	C16	0.135600	0.583700	0.458800
C171	C17	0.069120	0.536850	0.517400
C181	C18	0.069120	0.536850	0.631250
H61	H6	0.121000	0.564500	0.674000
O131	O13	0.880600	0.386100	0.366000
O141	O14	0.791000	0.406200	0.501200
C191	C19	0.864400	0.416300	0.458800
C201	C20	0.930880	0.463150	0.517400
C211	C21	0.930880	0.463150	0.631250
H71	H7	0.879000	0.435500	0.674000
O151	O15	0.380600	0.886100	0.866000
O161	O16	0.291000	0.906200	0.001200
C221	C22	0.364400	0.916300	0.958800
C231	C23	0.430880	0.963150	0.017400
C241	C24	0.430880	0.963150	0.131250
H81	H8	0.379000	0.935500	0.174000
O171	O17	0.886100	0.380600	0.134000
O181	O18	0.906200	0.291000	0.998800
C251	C25	0.916300	0.364400	0.041200
C261	C26	0.963150	0.430880	0.982600
C271	C27	0.963150	0.430880	0.868750
H91	H9	0.935500	0.379000	0.826000
O191	O19	0.386100	0.880600	0.634000
O201	O20	0.406200	0.791000	0.498800
C281	C28	0.416300	0.864400	0.541200
C291	C29	0.463150	0.930880	0.482600
C301	C30	0.463150	0.930880	0.368750
H101	H10	0.435500	0.879000	0.326000
O211	O21	0.613900	0.119400	0.634000
O221	O22	0.593800	0.209000	0.498800
C311	C31	0.583700	0.135600	0.541200
C321	C32	0.536850	0.069120	0.482600
C331	C33	0.536850	0.069120	0.368750
H111	H11	0.564500	0.121000	0.326000
O231	O23	0.113900	0.619400	0.134000
O241	O24	0.093800	0.709000	0.998800
C341	C34	0.083700	0.635600	0.041200
C351	C35	0.036850	0.569120	0.982600
C361	C36	0.036850	0.569120	0.868750
H121	H12	0.064500	0.621000	0.826000
O251	O25	0.880600	0.113900	0.884000
O261	O26	0.791000	0.093800	0.748800
C371	C37	0.864400	0.083700	0.791200
C381	C38	0.930880	0.036850	0.732600
C391	C39	0.930880	0.036850	0.618750
H131	H13	0.879000	0.064500	0.576000
O271	O27	0.380600	0.613900	0.384000
O281	O28	0.291000	0.593800	0.248800
C401	C40	0.364400	0.583700	0.291200
C411	C41	0.430880	0.536850	0.232600
C421	C42	0.430880	0.536850	0.118750
H141	H14	0.379000	0.564500	0.076000
O291	O29	0.619400	0.386100	0.384000
O301	O30	0.709000	0.406200	0.248800
C431	C43	0.635600	0.416300	0.291200
C441	C44	0.569120	0.463150	0.232600
C451	C45	0.569120	0.463150	0.118750
H151	H15	0.621000	0.435500	0.076000
O311	O31	0.119400	0.886100	0.884000
O321	O32	0.209000	0.906200	0.748800
C461	C46	0.135600	0.916300	0.791200
C471	C47	0.069120	0.963150	0.732600
C481	C48	0.069120	0.963150	0.618750
H161	H16	0.121000	0.935500	0.576000
In11	In1	0.687500	0.312500	0.500000
In21	In2	0.187500	0.812500	0.000000
In31	In3	0.812500	0.187500	0.000000
In41	In4	0.312500	0.687500	0.500000
In51	In5	0.687500	0.187500	0.750000
In61	In6	0.187500	0.687500	0.250000
In71	In7	0.812500	0.312500	0.250000
In81	In8	0.312500	0.812500	0.750000
O331	O33	0.761700	0.250000	0.625000
H171	H17	0.819900	0.250000	0.625000
O341	O34	0.261700	0.750000	0.125000
H181	H18	0.319900	0.750000	0.125000
O351	O35	0.738300	0.250000	0.125000
H191	H19	0.680100	0.250000	0.125000
O361	O36	0.238300	0.750000	0.625000
H201	H20	0.180100	0.750000	0.625000
O371	O37	0.750000	0.261700	0.875000
H211	H21	0.750000	0.319900	0.875000
O381	O38	0.250000	0.761700	0.375000
H221	H22	0.250000	0.819900	0.375000
O391	O39	0.750000	0.238300	0.375000
H231	H23	0.750000	0.180100	0.375000
O401	O40	0.250000	0.738300	0.875000
H241	H24	0.250000	0.680100	0.875000
C491	C49	0.500000	0.500000	0.710600
C501	C50	0.500000	0.500000	0.938140
H251	H25	0.500000	0.500000	0.625100
C511	C51	0.000000	0.000000	0.210600
C521	C52	0.000000	0.000000	0.438140
H261	H26	0.000000	0.000000	0.125100
C531	C53	0.500000	0.000000	0.960600
C541	C54	0.500000	0.000000	0.188140
H271	H27	0.500000	0.000000	0.875100
C551	C55	0.000000	0.500000	0.460600
C561	C56	0.000000	0.500000	0.688140
H281	H28	0.000000	0.500000	0.375100
C571	C57	0.000000	0.500000	0.039400
C581	C58	0.000000	0.500000	0.811860
H291	H29	0.000000	0.500000	0.124900
C591	C59	0.500000	0.000000	0.539400
C601	C60	0.500000	0.000000	0.311860
H301	H30	0.500000	0.000000	0.624900
C611	C61	0.000000	0.000000	0.789400
C621	C62	0.000000	0.000000	0.561860
H311	H31	0.000000	0.000000	0.874900
C631	C63	0.500000	0.500000	0.289400
C641	C64	0.500000	0.500000	0.061860
H321	H32	0.500000	0.500000	0.374900
