data_OWUHOF_freeONLY_PM
_symmetry_space_group_name_H-M	'P1'
_cell_length_a	10.931000
_cell_length_b	16.209900
_cell_length_c	43.602000
_cell_angle_alpha	90.000000
_cell_angle_beta	92.754000
_cell_angle_gamma	90.000000
_symmetry_Int_Tables_number 1

loop_
_symmetry_equiv_pos_as_xyz
'x,y,z'

loop_
_atom_site_label
_atom_site_type_symbol
_atom_site_fract_x
_atom_site_fract_y
_atom_site_fract_z
C11	C1	0.323600	0.765200	0.257630
C21	C2	0.310800	0.766800	0.291780
C31	C3	0.356500	0.701300	0.308670
H11	H1	0.389700	0.656400	0.298700
C41	C4	0.353800	0.701100	0.340930
H21	H2	0.384800	0.656000	0.352000
C51	C5	0.306200	0.766400	0.356220
C61	C6	0.195200	0.901600	0.354230
H31	H3	0.193300	0.902300	0.375500
C71	C7	0.142300	0.964700	0.337660
H41	H4	0.106500	0.008500	0.347700
C81	C8	0.141900	0.963700	0.305150
H51	H5	0.104800	0.006500	0.293900
C91	C9	0.195900	0.900200	0.290270
H61	H6	0.194000	0.899600	0.268900
C101	C10	0.254900	0.834900	0.307040
C111	C11	0.253500	0.834400	0.339510
C121	C12	0.312100	0.762400	0.390660
C131	C13	0.548000	0.766200	0.198860
C141	C14	0.685900	0.770500	0.202510
C151	C15	0.751300	0.703800	0.193230
H71	H7	0.710100	0.656600	0.186400
C161	C16	0.879000	0.705600	0.193810
H81	H8	0.921300	0.659200	0.187600
C171	C17	0.943800	0.774400	0.203360
C181	C18	0.937500	0.919900	0.224340
H91	H9	0.022500	0.923200	0.224600
C191	C19	0.872200	0.986000	0.234050
H101	H10	0.912900	0.033900	0.240400
C201	C20	0.744500	0.982000	0.234570
H111	H11	0.700900	0.027000	0.241500
C211	C21	0.683500	0.912500	0.224970
H121	H12	0.598700	0.910100	0.225900
C221	C22	0.748600	0.843100	0.213480
C231	C23	0.879100	0.846200	0.213840
C241	C24	0.081600	0.769100	0.202080
C251	C25	0.289200	0.781600	0.140030
C261	C26	0.278500	0.777300	0.105440
C271	C27	0.321500	0.706800	0.092560
H131	H13	0.350000	0.664100	0.105200
C281	C28	0.323600	0.697400	0.060620
H141	H14	0.350200	0.648000	0.052400
C291	C29	0.286800	0.760500	0.041400
C301	C30	0.183400	0.896900	0.034090
H151	H15	0.185600	0.891500	0.012900
C311	C31	0.132000	0.964400	0.046220
H161	H16	0.100900	0.005600	0.033200
C321	C32	0.124500	0.973800	0.078020
H171	H17	0.089100	0.020900	0.085900
C331	C33	0.169300	0.913300	0.097420
H181	H18	0.161000	0.919000	0.118400
C341	C34	0.228200	0.842200	0.086140
C351	C35	0.234800	0.833500	0.053760
C361	C36	0.307600	0.750600	0.007690
C371	C37	0.551000	0.755100	0.947920
C381	C38	0.687100	0.751000	0.944270
C391	C39	0.758500	0.812800	0.957020
H191	H19	0.721700	0.858400	0.965700
C401	C40	0.886700	0.807800	0.957110
H201	H20	0.933600	0.848800	0.966800
C411	C41	0.944100	0.743800	0.943170
C421	C42	0.923300	0.614900	0.911100
H211	H21	0.007900	0.611000	0.910200
C431	C43	0.851000	0.557200	0.896280
H221	H22	0.887000	0.514900	0.885500
C441	C44	0.723300	0.561100	0.897090
H231	H23	0.675000	0.521800	0.886800
C451	C45	0.669900	0.622600	0.913030
H241	H24	0.585000	0.624600	0.913600
C461	C46	0.742100	0.684100	0.928820
C471	C47	0.872700	0.680300	0.927880
C481	C48	0.083100	0.743600	0.945910
C491	C49	0.422300	0.515400	0.191690
H251	H25	0.494700	0.544900	0.194700
C501	C50	0.428300	0.431800	0.186590
H261	H26	0.504000	0.405800	0.186200
C511	C51	0.322400	0.386300	0.182050
C521	C52	0.212500	0.427900	0.183110
H271	H27	0.138900	0.399400	0.180300
C531	C53	0.211900	0.512300	0.188380
H281	H28	0.137200	0.539500	0.189100
C541	C54	0.326000	0.295100	0.176830
H291	H29	0.393800	0.281500	0.164200
H301	H30	0.250800	0.277500	0.166000
C551	C55	0.341000	0.249700	0.207740
H311	H31	0.418300	0.266100	0.217800
H321	H32	0.276200	0.267300	0.220700
C561	C56	0.338300	0.157000	0.205460
C571	C57	0.315900	0.115900	0.177520
H331	H33	0.304700	0.145500	0.159300
C581	C58	0.310700	0.031100	0.177370
H341	H34	0.293600	0.004600	0.158800
C591	C59	0.354900	0.024000	0.228970
H351	H35	0.369700	0.992800	0.246700
C601	C60	0.360800	0.108700	0.231380
H361	H36	0.379800	0.133300	0.250300
C611	C61	0.344900	0.494700	0.981190
H371	H37	0.338900	0.526700	0.998700
C621	C62	0.361200	0.411300	0.984580
H381	H38	0.368200	0.388100	0.004100
C631	C63	0.367300	0.362000	0.959100
C641	C64	0.358500	0.400900	0.930610
H391	H39	0.362300	0.370000	0.912700
C651	C65	0.344200	0.484900	0.928990
H401	H40	0.339400	0.509900	0.909800
C661	C66	0.387000	0.270200	0.962300
H411	H41	0.437800	0.251100	0.946100
H421	H42	0.429800	0.258700	0.981800
C671	C67	0.269400	0.225000	0.960550
H431	H43	0.221100	0.244100	0.942700
H441	H44	0.224500	0.238100	0.978600
C681	C68	0.283400	0.132400	0.958520
C691	C69	0.188400	0.085300	0.948090
H451	H45	0.113500	0.110200	0.943000
C701	C70	0.199800	0.001800	0.944870
H461	H46	0.131000	0.971500	0.938400
C711	C71	0.399800	0.005900	0.961420
H471	H47	0.473000	0.978700	0.966400
C721	C72	0.393900	0.090600	0.965630
H481	H48	0.462500	0.119600	0.973100
N11	N1	0.329200	0.984500	0.202720
N21	N2	0.315100	0.555700	0.192390
N31	N3	0.337000	0.532100	0.953910
N41	N4	0.303800	0.962100	0.950490
O11	O1	0.492300	0.830700	0.190730
O21	O2	0.498500	0.697300	0.203570
O31	O3	0.355900	0.830800	0.244610
O41	O4	0.305400	0.697100	0.244700
O51	O5	0.126100	0.699300	0.197160
O61	O6	0.144000	0.833400	0.206040
O71	O7	0.280200	0.851200	0.152950
O81	O8	0.309600	0.715500	0.154010
O91	O9	0.499100	0.691300	0.957290
O101	O10	0.498400	0.823500	0.941800
O111	O11	0.290800	0.679700	0.996390
O121	O12	0.344700	0.812800	0.993410
O131	O13	0.139700	0.677500	0.941850
O141	O14	0.134300	0.811900	0.952650
O151	O15	0.343300	0.826300	0.405440
O161	O16	0.285800	0.692800	0.402510
Zn11	Zn1	0.318860	0.860310	0.198900
Zn21	Zn2	0.311720	0.679430	0.198500
Zn31	Zn3	0.320040	0.655740	0.951680
Zn41	Zn4	0.315400	0.837300	0.947870
C731	C73	0.323600	0.734800	0.757630
C741	C74	0.310800	0.733200	0.791780
C751	C75	0.356500	0.798700	0.808670
H491	H49	0.389700	0.843600	0.798700
C761	C76	0.353800	0.798900	0.840930
H501	H50	0.384800	0.844000	0.852000
C771	C77	0.306200	0.733600	0.856220
C781	C78	0.195200	0.598400	0.854230
H511	H51	0.193300	0.597700	0.875500
C791	C79	0.142300	0.535300	0.837660
H521	H52	0.106500	0.491500	0.847700
C801	C80	0.141900	0.536300	0.805150
H531	H53	0.104800	0.493500	0.793900
C811	C81	0.195900	0.599800	0.790270
H541	H54	0.194000	0.600400	0.768900
C821	C82	0.254900	0.665100	0.807040
C831	C83	0.253500	0.665600	0.839510
C841	C84	0.312100	0.737600	0.890660
C851	C85	0.548000	0.733800	0.698860
C861	C86	0.685900	0.729500	0.702510
C871	C87	0.751300	0.796200	0.693230
H551	H55	0.710100	0.843400	0.686400
C881	C88	0.879000	0.794400	0.693810
H561	H56	0.921300	0.840800	0.687600
C891	C89	0.943800	0.725600	0.703360
C901	C90	0.937500	0.580100	0.724340
H571	H57	0.022500	0.576800	0.724600
C911	C91	0.872200	0.514000	0.734050
H581	H58	0.912900	0.466100	0.740400
C921	C92	0.744500	0.518000	0.734570
H591	H59	0.700900	0.473000	0.741500
C931	C93	0.683500	0.587500	0.724970
H601	H60	0.598700	0.589900	0.725900
C941	C94	0.748600	0.656900	0.713480
C951	C95	0.879100	0.653800	0.713840
C961	C96	0.081600	0.730900	0.702080
C971	C97	0.289200	0.718400	0.640030
C981	C98	0.278500	0.722700	0.605440
C991	C99	0.321500	0.793200	0.592560
H611	H61	0.350000	0.835900	0.605200
C1001	C100	0.323600	0.802600	0.560620
H621	H62	0.350200	0.852000	0.552400
C1011	C101	0.286800	0.739500	0.541400
C1021	C102	0.183400	0.603100	0.534090
H631	H63	0.185600	0.608500	0.512900
C1031	C103	0.132000	0.535600	0.546220
H641	H64	0.100900	0.494400	0.533200
C1041	C104	0.124500	0.526200	0.578020
H651	H65	0.089100	0.479100	0.585900
C1051	C105	0.169300	0.586700	0.597420
H661	H66	0.161000	0.581000	0.618400
C1061	C106	0.228200	0.657800	0.586140
C1071	C107	0.234800	0.666500	0.553760
C1081	C108	0.307600	0.749400	0.507690
C1091	C109	0.551000	0.744900	0.447920
C1101	C110	0.687100	0.749000	0.444270
C1111	C111	0.758500	0.687200	0.457020
H671	H67	0.721700	0.641600	0.465700
C1121	C112	0.886700	0.692200	0.457110
H681	H68	0.933600	0.651200	0.466800
C1131	C113	0.944100	0.756200	0.443170
C1141	C114	0.923300	0.885100	0.411100
H691	H69	0.007900	0.889000	0.410200
C1151	C115	0.851000	0.942800	0.396280
H701	H70	0.887000	0.985100	0.385500
C1161	C116	0.723300	0.938900	0.397090
H711	H71	0.675000	0.978200	0.386800
C1171	C117	0.669900	0.877400	0.413030
H721	H72	0.585000	0.875400	0.413600
C1181	C118	0.742100	0.815900	0.428820
C1191	C119	0.872700	0.819700	0.427880
C1201	C120	0.083100	0.756400	0.445910
C1211	C121	0.422300	0.984600	0.691690
H731	H73	0.494700	0.955100	0.694700
C1221	C122	0.428300	0.068200	0.686590
H741	H74	0.504000	0.094200	0.686200
C1231	C123	0.322400	0.113700	0.682050
C1241	C124	0.212500	0.072100	0.683110
H751	H75	0.138900	0.100600	0.680300
C1251	C125	0.211900	0.987700	0.688380
H761	H76	0.137200	0.960500	0.689100
C1261	C126	0.326000	0.204900	0.676830
H771	H77	0.393800	0.218500	0.664200
H781	H78	0.250800	0.222500	0.666000
C1271	C127	0.341000	0.250300	0.707740
H791	H79	0.418300	0.233900	0.717800
H801	H80	0.276200	0.232700	0.720700
C1281	C128	0.338300	0.343000	0.705460
C1291	C129	0.315900	0.384100	0.677520
H811	H81	0.304700	0.354500	0.659300
C1301	C130	0.310700	0.468900	0.677370
H821	H82	0.293600	0.495400	0.658800
C1311	C131	0.354900	0.476000	0.728970
H831	H83	0.369700	0.507200	0.746700
C1321	C132	0.360800	0.391300	0.731380
H841	H84	0.379800	0.366700	0.750300
C1331	C133	0.344900	0.005300	0.481190
H851	H85	0.338900	0.973300	0.498700
C1341	C134	0.361200	0.088700	0.484580
H861	H86	0.368200	0.111900	0.504100
C1351	C135	0.367300	0.138000	0.459100
C1361	C136	0.358500	0.099100	0.430610
H871	H87	0.362300	0.130000	0.412700
C1371	C137	0.344200	0.015100	0.428990
H881	H88	0.339400	0.990100	0.409800
C1381	C138	0.387000	0.229800	0.462300
H891	H89	0.437800	0.248900	0.446100
H901	H90	0.429800	0.241300	0.481800
C1391	C139	0.269400	0.275000	0.460550
H911	H91	0.221100	0.255900	0.442700
H921	H92	0.224500	0.261900	0.478600
C1401	C140	0.283400	0.367600	0.458520
C1411	C141	0.188400	0.414700	0.448090
H931	H93	0.113500	0.389800	0.443000
C1421	C142	0.199800	0.498200	0.444870
H941	H94	0.131000	0.528500	0.438400
C1431	C143	0.399800	0.494100	0.461420
H951	H95	0.473000	0.521300	0.466400
C1441	C144	0.393900	0.409400	0.465630
H961	H96	0.462500	0.380400	0.473100
N51	N5	0.329200	0.515500	0.702720
N61	N6	0.315100	0.944300	0.692390
N71	N7	0.337000	0.967900	0.453910
N81	N8	0.303800	0.537900	0.450490
O171	O17	0.492300	0.669300	0.690730
O181	O18	0.498500	0.802700	0.703570
O191	O19	0.355900	0.669200	0.744610
O201	O20	0.305400	0.802900	0.744700
O211	O21	0.126100	0.800700	0.697160
O221	O22	0.144000	0.666600	0.706040
O231	O23	0.280200	0.648800	0.652950
O241	O24	0.309600	0.784500	0.654010
O251	O25	0.499100	0.808700	0.457290
O261	O26	0.498400	0.676500	0.441800
O271	O27	0.290800	0.820300	0.496390
O281	O28	0.344700	0.687200	0.493410
O291	O29	0.139700	0.822500	0.441850
O301	O30	0.134300	0.688100	0.452650
O311	O31	0.343300	0.673700	0.905440
O321	O32	0.285800	0.807200	0.902510
Zn51	Zn5	0.318860	0.639690	0.698900
Zn61	Zn6	0.311720	0.820570	0.698500
Zn71	Zn7	0.320040	0.844260	0.451680
Zn81	Zn8	0.315400	0.662700	0.447870
C1451	C145	0.676400	0.265200	0.242370
C1461	C146	0.689200	0.266800	0.208220
C1471	C147	0.643500	0.201300	0.191330
H971	H97	0.610300	0.156400	0.201300
C1481	C148	0.646200	0.201100	0.159070
H981	H98	0.615200	0.156000	0.148000
C1491	C149	0.693800	0.266400	0.143780
C1501	C150	0.804800	0.401600	0.145770
H991	H99	0.806700	0.402300	0.124500
C1511	C151	0.857700	0.464700	0.162340
H1001	H100	0.893500	0.508500	0.152300
C1521	C152	0.858100	0.463700	0.194850
H1011	H101	0.895200	0.506500	0.206100
C1531	C153	0.804100	0.400200	0.209730
H1021	H102	0.806000	0.399600	0.231100
C1541	C154	0.745100	0.334900	0.192960
C1551	C155	0.746500	0.334400	0.160490
C1561	C156	0.687900	0.262400	0.109340
C1571	C157	0.452000	0.266200	0.301140
C1581	C158	0.314100	0.270500	0.297490
C1591	C159	0.248700	0.203800	0.306770
H1031	H103	0.289900	0.156600	0.313600
C1601	C160	0.121000	0.205600	0.306190
H1041	H104	0.078700	0.159200	0.312400
C1611	C161	0.056200	0.274400	0.296640
C1621	C162	0.062500	0.419900	0.275660
H1051	H105	0.977500	0.423200	0.275400
C1631	C163	0.127800	0.486000	0.265950
H1061	H106	0.087100	0.533900	0.259600
C1641	C164	0.255500	0.482000	0.265430
H1071	H107	0.299100	0.527000	0.258500
C1651	C165	0.316500	0.412500	0.275030
H1081	H108	0.401300	0.410100	0.274100
C1661	C166	0.251400	0.343100	0.286520
C1671	C167	0.120900	0.346200	0.286160
C1681	C168	0.918400	0.269100	0.297920
C1691	C169	0.710800	0.281600	0.359970
C1701	C170	0.721500	0.277300	0.394560
C1711	C171	0.678500	0.206800	0.407440
H1091	H109	0.650000	0.164100	0.394800
C1721	C172	0.676400	0.197400	0.439380
H1101	H110	0.649800	0.148000	0.447600
C1731	C173	0.713200	0.260500	0.458600
C1741	C174	0.816600	0.396900	0.465910
H1111	H111	0.814400	0.391500	0.487100
C1751	C175	0.868000	0.464400	0.453780
H1121	H112	0.899100	0.505600	0.466800
C1761	C176	0.875500	0.473800	0.421980
H1131	H113	0.910900	0.520900	0.414100
C1771	C177	0.830700	0.413300	0.402580
H1141	H114	0.839000	0.419000	0.381600
C1781	C178	0.771800	0.342200	0.413860
C1791	C179	0.765200	0.333500	0.446240
C1801	C180	0.692400	0.250600	0.492310
C1811	C181	0.449000	0.255100	0.552080
C1821	C182	0.312900	0.251000	0.555730
C1831	C183	0.241500	0.312800	0.542980
H1151	H115	0.278300	0.358400	0.534300
C1841	C184	0.113300	0.307800	0.542890
H1161	H116	0.066400	0.348800	0.533200
C1851	C185	0.055900	0.243800	0.556830
C1861	C186	0.076700	0.114900	0.588900
H1171	H117	0.992100	0.111000	0.589800
C1871	C187	0.149000	0.057200	0.603720
H1181	H118	0.113000	0.014900	0.614500
C1881	C188	0.276700	0.061100	0.602910
H1191	H119	0.325000	0.021800	0.613200
C1891	C189	0.330100	0.122600	0.586970
H1201	H120	0.415000	0.124600	0.586400
C1901	C190	0.257900	0.184100	0.571180
C1911	C191	0.127300	0.180300	0.572120
C1921	C192	0.916900	0.243600	0.554090
C1931	C193	0.577700	0.015400	0.308310
H1211	H121	0.505300	0.044900	0.305300
C1941	C194	0.571700	0.931800	0.313410
H1221	H122	0.496000	0.905800	0.313800
C1951	C195	0.677600	0.886300	0.317950
C1961	C196	0.787500	0.927900	0.316890
H1231	H123	0.861100	0.899400	0.319700
C1971	C197	0.788100	0.012300	0.311620
H1241	H124	0.862800	0.039500	0.310900
C1981	C198	0.674000	0.795100	0.323170
H1251	H125	0.606200	0.781500	0.335800
H1261	H126	0.749200	0.777500	0.334000
C1991	C199	0.659000	0.749700	0.292260
H1271	H127	0.581700	0.766100	0.282200
H1281	H128	0.723800	0.767300	0.279300
C2001	C200	0.661700	0.657000	0.294540
C2011	C201	0.684100	0.615900	0.322480
H1291	H129	0.695300	0.645500	0.340700
C2021	C202	0.689300	0.531100	0.322630
H1301	H130	0.706400	0.504600	0.341200
C2031	C203	0.645100	0.524000	0.271030
H1311	H131	0.630300	0.492800	0.253300
C2041	C204	0.639200	0.608700	0.268620
H1321	H132	0.620200	0.633300	0.249700
C2051	C205	0.655100	0.994700	0.518810
H1331	H133	0.661100	0.026700	0.501300
C2061	C206	0.638800	0.911300	0.515420
H1341	H134	0.631800	0.888100	0.495900
C2071	C207	0.632700	0.862000	0.540900
C2081	C208	0.641500	0.900900	0.569390
H1351	H135	0.637700	0.870000	0.587300
C2091	C209	0.655800	0.984900	0.571010
H1361	H136	0.660600	0.009900	0.590200
C2101	C210	0.613000	0.770200	0.537700
H1371	H137	0.562200	0.751100	0.553900
H1381	H138	0.570200	0.758700	0.518200
C2111	C211	0.730600	0.725000	0.539450
H1391	H139	0.778900	0.744100	0.557300
H1401	H140	0.775500	0.738100	0.521400
C2121	C212	0.716600	0.632400	0.541480
C2131	C213	0.811600	0.585300	0.551910
H1411	H141	0.886500	0.610200	0.557000
C2141	C214	0.800200	0.501800	0.555130
H1421	H142	0.869000	0.471500	0.561600
C2151	C215	0.600200	0.505900	0.538580
H1431	H143	0.527000	0.478700	0.533600
C2161	C216	0.606100	0.590600	0.534370
H1441	H144	0.537500	0.619600	0.526900
N91	N9	0.670800	0.484500	0.297280
N101	N10	0.684900	0.055700	0.307610
N111	N11	0.663000	0.032100	0.546090
N121	N12	0.696200	0.462100	0.549510
O331	O33	0.507700	0.330700	0.309270
O341	O34	0.501500	0.197300	0.296430
O351	O35	0.644100	0.330800	0.255390
O361	O36	0.694600	0.197100	0.255300
O371	O37	0.873900	0.199300	0.302840
O381	O38	0.856000	0.333400	0.293960
O391	O39	0.719800	0.351200	0.347050
O401	O40	0.690400	0.215500	0.345990
O411	O41	0.500900	0.191300	0.542710
O421	O42	0.501600	0.323500	0.558200
O431	O43	0.709200	0.179700	0.503610
O441	O44	0.655300	0.312800	0.506590
O451	O45	0.860300	0.177500	0.558150
O461	O46	0.865700	0.311900	0.547350
O471	O47	0.656700	0.326300	0.094560
O481	O48	0.714200	0.192800	0.097490
Zn91	Zn9	0.681140	0.360310	0.301100
Zn101	Zn10	0.688280	0.179430	0.301500
Zn111	Zn11	0.679960	0.155740	0.548320
Zn121	Zn12	0.684600	0.337300	0.552130
C2171	C217	0.676400	0.234800	0.742370
C2181	C218	0.689200	0.233200	0.708220
C2191	C219	0.643500	0.298700	0.691330
H1451	H145	0.610300	0.343600	0.701300
C2201	C220	0.646200	0.298900	0.659070
H1461	H146	0.615200	0.344000	0.648000
C2211	C221	0.693800	0.233600	0.643780
C2221	C222	0.804800	0.098400	0.645770
H1471	H147	0.806700	0.097700	0.624500
C2231	C223	0.857700	0.035300	0.662340
H1481	H148	0.893500	0.991500	0.652300
C2241	C224	0.858100	0.036300	0.694850
H1491	H149	0.895200	0.993500	0.706100
C2251	C225	0.804100	0.099800	0.709730
H1501	H150	0.806000	0.100400	0.731100
C2261	C226	0.745100	0.165100	0.692960
C2271	C227	0.746500	0.165600	0.660490
C2281	C228	0.687900	0.237600	0.609340
C2291	C229	0.452000	0.233800	0.801140
C2301	C230	0.314100	0.229500	0.797490
C2311	C231	0.248700	0.296200	0.806770
H1511	H151	0.289900	0.343400	0.813600
C2321	C232	0.121000	0.294400	0.806190
H1521	H152	0.078700	0.340800	0.812400
C2331	C233	0.056200	0.225600	0.796640
C2341	C234	0.062500	0.080100	0.775660
H1531	H153	0.977500	0.076800	0.775400
C2351	C235	0.127800	0.014000	0.765950
H1541	H154	0.087100	0.966100	0.759600
C2361	C236	0.255500	0.018000	0.765430
H1551	H155	0.299100	0.973000	0.758500
C2371	C237	0.316500	0.087500	0.775030
H1561	H156	0.401300	0.089900	0.774100
C2381	C238	0.251400	0.156900	0.786520
C2391	C239	0.120900	0.153800	0.786160
C2401	C240	0.918400	0.230900	0.797920
C2411	C241	0.710800	0.218400	0.859970
C2421	C242	0.721500	0.222700	0.894560
C2431	C243	0.678500	0.293200	0.907440
H1571	H157	0.650000	0.335900	0.894800
C2441	C244	0.676400	0.302600	0.939380
H1581	H158	0.649800	0.352000	0.947600
C2451	C245	0.713200	0.239500	0.958600
C2461	C246	0.816600	0.103100	0.965910
H1591	H159	0.814400	0.108500	0.987100
C2471	C247	0.868000	0.035600	0.953780
H1601	H160	0.899100	0.994400	0.966800
C2481	C248	0.875500	0.026200	0.921980
H1611	H161	0.910900	0.979100	0.914100
C2491	C249	0.830700	0.086700	0.902580
H1621	H162	0.839000	0.081000	0.881600
C2501	C250	0.771800	0.157800	0.913860
C2511	C251	0.765200	0.166500	0.946240
C2521	C252	0.692400	0.249400	0.992310
C2531	C253	0.449000	0.244900	0.052080
C2541	C254	0.312900	0.249000	0.055730
C2551	C255	0.241500	0.187200	0.042980
H1631	H163	0.278300	0.141600	0.034300
C2561	C256	0.113300	0.192200	0.042890
H1641	H164	0.066400	0.151200	0.033200
C2571	C257	0.055900	0.256200	0.056830
C2581	C258	0.076700	0.385100	0.088900
H1651	H165	0.992100	0.389000	0.089800
C2591	C259	0.149000	0.442800	0.103720
H1661	H166	0.113000	0.485100	0.114500
C2601	C260	0.276700	0.438900	0.102910
H1671	H167	0.325000	0.478200	0.113200
C2611	C261	0.330100	0.377400	0.086970
H1681	H168	0.415000	0.375400	0.086400
C2621	C262	0.257900	0.315900	0.071180
C2631	C263	0.127300	0.319700	0.072120
C2641	C264	0.916900	0.256400	0.054090
C2651	C265	0.577700	0.484600	0.808310
H1691	H169	0.505300	0.455100	0.805300
C2661	C266	0.571700	0.568200	0.813410
H1701	H170	0.496000	0.594200	0.813800
C2671	C267	0.677600	0.613700	0.817950
C2681	C268	0.787500	0.572100	0.816890
H1711	H171	0.861100	0.600600	0.819700
C2691	C269	0.788100	0.487700	0.811620
H1721	H172	0.862800	0.460500	0.810900
C2701	C270	0.674000	0.704900	0.823170
H1731	H173	0.606200	0.718500	0.835800
H1741	H174	0.749200	0.722500	0.834000
C2711	C271	0.659000	0.750300	0.792260
H1751	H175	0.581700	0.733900	0.782200
H1761	H176	0.723800	0.732700	0.779300
C2721	C272	0.661700	0.843000	0.794540
C2731	C273	0.684100	0.884100	0.822480
H1771	H177	0.695300	0.854500	0.840700
C2741	C274	0.689300	0.968900	0.822630
H1781	H178	0.706400	0.995400	0.841200
C2751	C275	0.645100	0.976000	0.771030
H1791	H179	0.630300	0.007200	0.753300
C2761	C276	0.639200	0.891300	0.768620
H1801	H180	0.620200	0.866700	0.749700
C2771	C277	0.655100	0.505300	0.018810
H1811	H181	0.661100	0.473300	0.001300
C2781	C278	0.638800	0.588700	0.015420
H1821	H182	0.631800	0.611900	0.995900
C2791	C279	0.632700	0.638000	0.040900
C2801	C280	0.641500	0.599100	0.069390
H1831	H183	0.637700	0.630000	0.087300
C2811	C281	0.655800	0.515100	0.071010
H1841	H184	0.660600	0.490100	0.090200
C2821	C282	0.613000	0.729800	0.037700
H1851	H185	0.562200	0.748900	0.053900
H1861	H186	0.570200	0.741300	0.018200
C2831	C283	0.730600	0.775000	0.039450
H1871	H187	0.778900	0.755900	0.057300
H1881	H188	0.775500	0.761900	0.021400
C2841	C284	0.716600	0.867600	0.041480
C2851	C285	0.811600	0.914700	0.051910
H1891	H189	0.886500	0.889800	0.057000
C2861	C286	0.800200	0.998200	0.055130
H1901	H190	0.869000	0.028500	0.061600
C2871	C287	0.600200	0.994100	0.038580
H1911	H191	0.527000	0.021300	0.033600
C2881	C288	0.606100	0.909400	0.034370
H1921	H192	0.537500	0.880400	0.026900
N131	N13	0.670800	0.015500	0.797280
N141	N14	0.684900	0.444300	0.807610
N151	N15	0.663000	0.467900	0.046090
N161	N16	0.696200	0.037900	0.049510
O491	O49	0.507700	0.169300	0.809270
O501	O50	0.501500	0.302700	0.796430
O511	O51	0.644100	0.169200	0.755390
O521	O52	0.694600	0.302900	0.755300
O531	O53	0.873900	0.300700	0.802840
O541	O54	0.856000	0.166600	0.793960
O551	O55	0.719800	0.148800	0.847050
O561	O56	0.690400	0.284500	0.845990
O571	O57	0.500900	0.308700	0.042710
O581	O58	0.501600	0.176500	0.058200
O591	O59	0.709200	0.320300	0.003610
O601	O60	0.655300	0.187200	0.006590
O611	O61	0.860300	0.322500	0.058150
O621	O62	0.865700	0.188100	0.047350
O631	O63	0.656700	0.173700	0.594560
O641	O64	0.714200	0.307200	0.597490
Zn131	Zn13	0.681140	0.139690	0.801100
Zn141	Zn14	0.688280	0.320570	0.801500
Zn151	Zn15	0.679960	0.344260	0.048320
Zn161	Zn16	0.684600	0.162700	0.052130
