data_OXALEF_freeONLY_PM
_symmetry_space_group_name_H-M	'P1'
_cell_length_a	11.775000
_cell_length_b	16.113000
_cell_length_c	16.346000
_cell_angle_alpha	108.244000
_cell_angle_beta	101.663000
_cell_angle_gamma	102.559000
_symmetry_Int_Tables_number 1

loop_
_symmetry_equiv_pos_as_xyz
'x,y,z'

loop_
_atom_site_label
_atom_site_type_symbol
_atom_site_fract_x
_atom_site_fract_y
_atom_site_fract_z
Mn11	Mn1	0.189140	0.895250	0.390360
O11	O1	0.485000	0.488120	0.161800
C11	C1	0.456400	0.339660	0.056180
O21	O2	0.472830	0.869370	0.411770
C21	C2	0.398000	0.413050	0.098170
H11	H1	0.354400	0.430300	0.050700
H21	H2	0.338200	0.387900	0.125700
O31	O3	0.277320	0.813040	0.329330
C31	C3	0.451300	0.565130	0.198800
O41	O4	0.674410	0.405280	0.123620
C41	C4	0.546600	0.638900	0.258400
H31	H3	0.627400	0.635200	0.268300
O51	O5	0.028530	0.814450	0.280020
O61	O6	0.061020	0.779040	0.399420
C51	C5	0.407300	0.724680	0.293570
O71	O7	0.412670	0.206640	0.925730
C61	C6	0.311800	0.650300	0.232330
H41	H4	0.231000	0.653800	0.223300
O81	O8	0.317880	0.957700	0.518640
C71	C7	0.333200	0.570330	0.183800
H51	H5	0.267600	0.519800	0.140800
O91	O9	0.142080	0.983410	0.507980
C81	C8	0.384900	0.810210	0.349620
O101	O10	0.358880	0.234140	0.115320
C91	C9	0.578300	0.381770	0.044560
H61	H6	0.592700	0.337500	0.993100
H71	H7	0.576400	0.437300	0.031100
O111	O11	0.225390	0.998390	0.345920
C101	C10	0.751100	0.492540	0.167130
O121	O12	0.427980	0.040010	0.396410
C111	C11	0.785700	0.550920	0.124570
H81	H8	0.753800	0.531800	0.061200
C121	C12	0.866600	0.637030	0.173780
H91	H9	0.889300	0.677200	0.144000
C131	C13	0.915200	0.665780	0.265910
C141	C14	0.882600	0.605890	0.307880
H101	H10	0.916700	0.624000	0.371000
C151	C15	0.800600	0.519510	0.258400
H111	H11	0.778500	0.478700	0.287800
C161	C16	0.005900	0.758440	0.318170
C171	C17	0.367300	0.280850	0.963400
H121	H12	0.285200	0.257300	0.968600
H131	H13	0.362200	0.317300	0.924800
C181	C18	0.364100	0.155090	0.835970
C191	C19	0.432500	0.101700	0.798510
H141	H14	0.505700	0.101300	0.835400
C201	C20	0.393800	0.049450	0.707680
H151	H15	0.441200	0.013800	0.681800
C211	C21	0.285900	0.048700	0.653830
C221	C22	0.216000	0.099670	0.692620
H161	H16	0.140400	0.097300	0.656300
C231	C23	0.255000	0.154020	0.783680
H171	H17	0.207800	0.189800	0.809700
C241	C24	0.246800	0.994510	0.555440
C251	C25	0.474500	0.282450	0.113550
H181	H18	0.516900	0.238400	0.088000
H191	H19	0.525100	0.322800	0.175600
C261	C26	0.358600	0.186610	0.171420
C271	C27	0.245800	0.140920	0.172760
H201	H20	0.174400	0.142900	0.135100
C281	C28	0.236300	0.092620	0.228140
H211	H21	0.158000	0.060700	0.227700
C291	C29	0.339500	0.089600	0.285000
C301	C30	0.451000	0.135230	0.282560
H221	H22	0.522400	0.133400	0.320400
C311	C31	0.462800	0.183900	0.226670
H231	H23	0.541000	0.214900	0.226200
C321	C32	0.331100	0.038950	0.347630
C331	C33	0.524000	0.718790	0.303900
H241	H24	0.590500	0.770800	0.343300
Mn21	Mn2	0.810860	0.104750	0.609640
O131	O13	0.515000	0.511880	0.838200
C341	C34	0.543600	0.660340	0.943820
O141	O14	0.527170	0.130630	0.588230
C351	C35	0.602000	0.586950	0.901830
H251	H25	0.645600	0.569700	0.949300
H261	H26	0.661800	0.612100	0.874300
O151	O15	0.722680	0.186960	0.670670
C361	C36	0.548700	0.434870	0.801200
O161	O16	0.325590	0.594720	0.876380
C371	C37	0.453400	0.361100	0.741600
H271	H27	0.372600	0.364800	0.731700
O171	O17	0.971470	0.185550	0.719980
O181	O18	0.938980	0.220960	0.600580
C381	C38	0.592700	0.275320	0.706430
O191	O19	0.587330	0.793360	0.074270
C391	C39	0.688200	0.349700	0.767670
H281	H28	0.769000	0.346200	0.776700
O201	O20	0.682120	0.042300	0.481360
C401	C40	0.666800	0.429670	0.816200
H291	H29	0.732400	0.480200	0.859200
O211	O21	0.857920	0.016590	0.492020
C411	C41	0.615100	0.189790	0.650380
O221	O22	0.641120	0.765860	0.884680
C421	C42	0.421700	0.618230	0.955440
H301	H30	0.407300	0.662500	0.006900
H311	H31	0.423600	0.562700	0.968900
O231	O23	0.774610	0.001610	0.654080
C431	C43	0.248900	0.507460	0.832870
O241	O24	0.572020	0.959990	0.603590
C441	C44	0.214300	0.449080	0.875430
H321	H32	0.246200	0.468200	0.938800
C451	C45	0.133400	0.362970	0.826220
H331	H33	0.110700	0.322800	0.856000
C461	C46	0.084800	0.334220	0.734090
C471	C47	0.117400	0.394110	0.692120
H341	H34	0.083300	0.376000	0.629000
C481	C48	0.199400	0.480490	0.741600
H351	H35	0.221500	0.521300	0.712200
C491	C49	0.994100	0.241560	0.681830
C501	C50	0.632700	0.719150	0.036600
H361	H36	0.714800	0.742700	0.031400
H371	H37	0.637800	0.682700	0.075200
C511	C51	0.635900	0.844910	0.164030
C521	C52	0.567500	0.898300	0.201490
H381	H38	0.494300	0.898700	0.164600
C531	C53	0.606200	0.950550	0.292320
H391	H39	0.558800	0.986200	0.318200
C541	C54	0.714100	0.951300	0.346170
C551	C55	0.784000	0.900330	0.307380
H401	H40	0.859600	0.902700	0.343700
C561	C56	0.745000	0.845980	0.216320
H411	H41	0.792200	0.810200	0.190300
C571	C57	0.753200	0.005490	0.444560
C581	C58	0.525500	0.717550	0.886450
H421	H42	0.483100	0.761600	0.912000
H431	H43	0.474900	0.677200	0.824400
C591	C59	0.641400	0.813390	0.828580
C601	C60	0.754200	0.859080	0.827240
H441	H44	0.825600	0.857100	0.864900
C611	C61	0.763700	0.907380	0.771860
H451	H45	0.842000	0.939300	0.772300
C621	C62	0.660500	0.910400	0.715000
C631	C63	0.549000	0.864770	0.717440
H461	H46	0.477600	0.866600	0.679600
C641	C64	0.537200	0.816100	0.773330
H471	H47	0.459000	0.785100	0.773800
C651	C65	0.668900	0.961050	0.652370
C661	C66	0.476000	0.281210	0.696100
H481	H48	0.409500	0.229200	0.656700
Mn31	Mn3	0.500000	0.000000	0.500000
