data_OXALIJ_ion_b_PM
_symmetry_space_group_name_H-M	'P1'
_cell_length_a	11.970000
_cell_length_b	16.341000
_cell_length_c	16.436000
_cell_angle_alpha	107.913000
_cell_angle_beta	103.400000
_cell_angle_gamma	100.533000
_symmetry_Int_Tables_number 1

loop_
_symmetry_equiv_pos_as_xyz
'x,y,z'

loop_
_atom_site_label
_atom_site_type_symbol
_atom_site_fract_x
_atom_site_fract_y
_atom_site_fract_z
Cd11	Cd1	0.194410	0.888050	0.392550
N21	N2	0.067060	0.148120	0.471810
C31	C3	0.461370	0.342340	0.058290
O41	O4	0.488130	0.879590	0.410500
C51	C5	0.414570	0.418980	0.102630
H61	H6	0.319220	0.408890	0.087630
O71	O7	0.293080	0.813000	0.348090
O81	O8	0.679320	0.412670	0.137340
O91	O9	0.031950	0.825150	0.294750
O101	O10	0.092870	0.775940	0.397780
C111	C11	0.421260	0.729340	0.302410
O121	O12	0.417580	0.210200	0.924200
C131	C13	0.324440	0.658320	0.237680
H141	H14	0.233880	0.664320	0.224700
O151	O15	0.333620	0.942170	0.510980
C161	C16	0.342730	0.577810	0.188780
H171	H17	0.265650	0.526190	0.139400
O181	O18	0.162950	0.972650	0.499220
C191	C19	0.400500	0.812630	0.356400
O201	O20	0.355430	0.238050	0.116500
C211	C21	0.587660	0.383090	0.051920
H221	H22	0.612440	0.331710	0.002620
H231	H23	0.581620	0.437590	0.025510
O241	O24	0.224760	0.972640	0.327520
C251	C25	0.754850	0.501430	0.179000
O261	O26	0.418670	0.038770	0.402140
C271	C27	0.787820	0.556920	0.132530
H281	H28	0.756800	0.533070	0.059930
C291	C29	0.867630	0.643270	0.179920
H301	H30	0.893570	0.683270	0.142240
C311	C31	0.918640	0.675430	0.274260
C321	C32	0.887070	0.618840	0.319520
H331	H33	0.925430	0.640190	0.391570
C341	C34	0.807080	0.533330	0.272450
H351	H35	0.785300	0.490960	0.309080
C361	C36	0.015360	0.761890	0.324100
C371	C37	0.375390	0.285350	0.961580
H381	H38	0.373460	0.327160	0.919380
H391	H39	0.283160	0.261310	0.963420
C401	C40	0.372680	0.158630	0.831580
C411	C41	0.441390	0.105160	0.796540
H421	H42	0.524750	0.105660	0.840040
C431	C43	0.404540	0.051050	0.706030
H441	H44	0.459760	0.011130	0.682280
C451	C45	0.298170	0.048350	0.647030
C461	C46	0.226450	0.100800	0.681920
H471	H47	0.141610	0.098400	0.638760
C481	C48	0.263180	0.155460	0.773730
H491	H49	0.205330	0.193150	0.799300
C501	C50	0.262110	0.989040	0.550720
C511	C51	0.471030	0.283150	0.116840
H521	H52	0.517800	0.232670	0.090980
H531	H53	0.525120	0.326890	0.187010
C541	C54	0.350390	0.185800	0.171240
C551	C55	0.237710	0.141150	0.170890
H561	H56	0.157490	0.146030	0.127710
C571	C57	0.227310	0.090090	0.225520
H581	H58	0.138790	0.056740	0.223030
C591	C59	0.329920	0.083410	0.282950
C601	C60	0.442120	0.128720	0.283390
H611	H61	0.523080	0.126290	0.326700
C621	C62	0.452640	0.177310	0.227580
H631	H63	0.541840	0.207970	0.229770
C641	C64	0.323290	0.029090	0.341280
C651	C65	0.010080	0.123520	0.375570
O661	O66	0.490960	0.490660	0.159330
C671	C67	0.459080	0.566680	0.204780
C681	C68	0.535980	0.717920	0.317240
H691	H69	0.611540	0.770480	0.367170
C701	C70	0.554040	0.637780	0.268970
H711	H71	0.643560	0.630800	0.281910
Cd721	Cd72	0.805940	0.111090	0.609240
N731	N73	0.910330	0.849100	0.529210
C741	C74	0.538780	0.657470	0.942170
O751	O75	0.509540	0.121690	0.587560
C761	C76	0.585330	0.580640	0.897530
H771	H77	0.680610	0.590530	0.912380
O781	O78	0.704590	0.183230	0.656180
O791	O79	0.320900	0.587120	0.863080
O801	O80	0.972900	0.172400	0.702120
O811	O81	0.897620	0.228590	0.609000
C821	C82	0.577650	0.270200	0.698250
O831	O83	0.582720	0.789760	0.076520
C841	C84	0.674600	0.341110	0.762480
H851	H85	0.764720	0.334250	0.774950
O861	O86	0.668780	0.057860	0.490070
C871	C87	0.656640	0.421780	0.810920
H881	H88	0.733930	0.473110	0.859780
O891	O89	0.838130	0.023870	0.503140
C901	C90	0.597360	0.186580	0.644480
O911	O91	0.644110	0.761330	0.883380
C921	C92	0.412480	0.616790	0.948550
H931	H93	0.387790	0.668380	0.997680
H941	H94	0.418530	0.562400	0.975110
O951	O95	0.776290	0.029260	0.676530
C961	C96	0.244870	0.498530	0.821600
O971	O97	0.583320	0.960380	0.600120
C981	C98	0.211980	0.443190	0.868240
H991	H99	0.243700	0.466960	0.940830
C1001	C100	0.131390	0.357130	0.821010
H1011	H101	0.105590	0.317150	0.858770
C1021	C102	0.079270	0.325350	0.726850
C1031	C103	0.110920	0.381660	0.681370
H1041	H104	0.072180	0.360170	0.609360
C1051	C105	0.192050	0.466750	0.728210
H1061	H106	0.214250	0.508850	0.691460
C1071	C107	0.982080	0.239270	0.677570
C1081	C108	0.625010	0.714610	0.038840
H1091	H109	0.716990	0.738880	0.036790
H1101	H110	0.627410	0.672890	0.081080
C1111	C111	0.628850	0.841810	0.169020
C1121	C112	0.560800	0.895580	0.204620
H1131	H113	0.476870	0.895040	0.161560
C1141	C114	0.598230	0.949380	0.295280
H1151	H115	0.543020	0.989120	0.319350
C1161	C116	0.704280	0.951060	0.354170
C1171	C117	0.776510	0.899990	0.318330
H1181	H118	0.861610	0.902570	0.361200
C1191	C119	0.738990	0.845280	0.226380
H1201	H120	0.796440	0.807430	0.200680
C1211	C121	0.739610	0.009400	0.450950
C1221	C122	0.528810	0.716490	0.883480
H1231	H123	0.474420	0.672670	0.813420
H1241	H124	0.482300	0.767060	0.909520
C1251	C125	0.649110	0.814070	0.829270
C1261	C126	0.761830	0.859600	0.831160
H1271	H127	0.841600	0.854440	0.873840
C1281	C128	0.773050	0.912110	0.778480
H1291	H129	0.861060	0.947920	0.783230
C1301	C130	0.671090	0.917300	0.719610
C1311	C131	0.558130	0.871410	0.717380
H1321	H132	0.477090	0.873560	0.673110
C1331	C133	0.546990	0.822310	0.772580
H1341	H134	0.457940	0.790720	0.769500
C1351	C135	0.678770	0.971710	0.662050
C1361	C136	0.989550	0.876140	0.620790
O1371	O137	0.508840	0.509190	0.840540
C1381	C138	0.540340	0.433070	0.795020
C1391	C139	0.462990	0.281940	0.682780
H1401	H140	0.387080	0.229420	0.632910
C1411	C141	0.445140	0.362190	0.730730
H1421	H142	0.355510	0.369250	0.717490
Cd1431	Cd143	0.500220	0.999570	0.500540
H1441	H144	0.100820	0.096940	0.482920
H1451	H145	0.004550	0.157820	0.506030
H1461	H146	0.007960	0.053470	0.337870
H1471	H147	0.060280	0.168760	0.349770
H1481	H148	0.916660	0.128780	0.362510
H1491	H149	0.956290	0.873860	0.491180
H1501	H150	0.836300	0.874400	0.530200
H1511	H151	0.064740	0.935250	0.636210
H1521	H152	0.026740	0.820690	0.629410
H1531	H153	0.939880	0.894210	0.669730
H1541	H154	0.880560	0.779340	0.499600
H1551	H155	0.137280	0.206630	0.497260
