data_OXEVOE_freeONLY_PM
_symmetry_space_group_name_H-M	'P1'
_cell_length_a	15.319000
_cell_length_b	15.456000
_cell_length_c	16.237000
_cell_angle_alpha	90.000000
_cell_angle_beta	90.000000
_cell_angle_gamma	90.000000
_symmetry_Int_Tables_number 1

loop_
_symmetry_equiv_pos_as_xyz
'x,y,z'

loop_
_atom_site_label
_atom_site_type_symbol
_atom_site_fract_x
_atom_site_fract_y
_atom_site_fract_z
Ag11	Ag1	0.415600	0.898130	0.118120
C11	C1	0.194200	0.829300	0.083700
H11	H1	0.187700	0.819000	0.142300
H21	H2	0.187400	0.890800	0.073700
C21	C2	0.126100	0.779000	0.036300
C31	C3	0.124800	0.776000	0.948200
H31	H3	0.165900	0.808300	0.919300
C41	C4	0.065500	0.727500	0.904400
C51	C5	0.006600	0.687700	0.953900
H41	H4	0.962600	0.655700	0.928800
C61	C6	0.067100	0.734200	0.079800
H51	H5	0.069500	0.734200	0.137000
C71	C7	0.065900	0.714000	0.808500
H61	H6	0.113400	0.747200	0.784700
H71	H7	0.011700	0.736000	0.785800
C81	C8	0.185300	0.573400	0.810000
H81	H8	0.202400	0.518800	0.785200
H91	H9	0.224300	0.617800	0.789300
C91	C9	0.196500	0.566500	0.905400
C101	C10	0.250300	0.620800	0.948400
H101	H10	0.285000	0.660000	0.919800
C111	C11	0.254300	0.618500	0.038200
C121	C12	0.203400	0.562700	0.081000
H111	H11	0.204600	0.563100	0.138300
C131	C13	0.148700	0.509900	0.953500
H121	H12	0.112200	0.471000	0.926700
C141	C14	0.306600	0.680200	0.086400
H131	H13	0.367400	0.662800	0.084000
H141	H14	0.288300	0.677400	0.143500
N11	N1	0.007200	0.691100	0.042100
N21	N2	0.151400	0.506800	0.041200
S11	S1	0.297600	0.794600	0.050300
S21	S2	0.078600	0.598000	0.778970
Ag21	Ag2	0.915600	0.398130	0.618120
C151	C15	0.694200	0.329300	0.583700
H151	H15	0.687700	0.319000	0.642300
H161	H16	0.687400	0.390800	0.573700
C161	C16	0.626100	0.279000	0.536300
C171	C17	0.624800	0.276000	0.448200
H171	H17	0.665900	0.308300	0.419300
C181	C18	0.565500	0.227500	0.404400
C191	C19	0.506600	0.187700	0.453900
H181	H18	0.462600	0.155700	0.428800
C201	C20	0.567100	0.234200	0.579800
H191	H19	0.569500	0.234200	0.637000
C211	C21	0.565900	0.214000	0.308500
H201	H20	0.613400	0.247200	0.284700
H211	H21	0.511700	0.236000	0.285800
C221	C22	0.685300	0.073400	0.310000
H221	H22	0.702400	0.018800	0.285200
H231	H23	0.724300	0.117800	0.289300
C231	C23	0.696500	0.066500	0.405400
C241	C24	0.750300	0.120800	0.448400
H241	H24	0.785000	0.160000	0.419800
C251	C25	0.754300	0.118500	0.538200
C261	C26	0.703400	0.062700	0.581000
H251	H25	0.704600	0.063100	0.638300
C271	C27	0.648700	0.009900	0.453500
H261	H26	0.612200	0.971000	0.426700
C281	C28	0.806600	0.180200	0.586400
H271	H27	0.867400	0.162800	0.584000
H281	H28	0.788300	0.177400	0.643500
N31	N3	0.507200	0.191100	0.542100
N41	N4	0.651400	0.006800	0.541200
S31	S3	0.797600	0.294600	0.550300
S41	S4	0.578600	0.098000	0.278970
Ag31	Ag3	0.584400	0.101870	0.118120
C291	C29	0.805800	0.170700	0.083700
H291	H29	0.812300	0.181000	0.142300
H301	H30	0.812600	0.109200	0.073700
C301	C30	0.873900	0.221000	0.036300
C311	C31	0.875200	0.224000	0.948200
H311	H31	0.834100	0.191700	0.919300
C321	C32	0.934500	0.272500	0.904400
C331	C33	0.993400	0.312300	0.953900
H321	H32	0.037400	0.344300	0.928800
C341	C34	0.932900	0.265800	0.079800
H331	H33	0.930500	0.265800	0.137000
C351	C35	0.934100	0.286000	0.808500
H341	H34	0.886600	0.252800	0.784700
H351	H35	0.988300	0.264000	0.785800
C361	C36	0.814700	0.426600	0.810000
H361	H36	0.797600	0.481200	0.785200
H371	H37	0.775700	0.382200	0.789300
C371	C37	0.803500	0.433500	0.905400
C381	C38	0.749700	0.379200	0.948400
H381	H38	0.715000	0.340000	0.919800
C391	C39	0.745700	0.381500	0.038200
C401	C40	0.796600	0.437300	0.081000
H391	H39	0.795400	0.436900	0.138300
C411	C41	0.851300	0.490100	0.953500
H401	H40	0.887800	0.529000	0.926700
C421	C42	0.693400	0.319800	0.086400
H411	H41	0.632600	0.337200	0.084000
H421	H42	0.711700	0.322600	0.143500
N51	N5	0.992800	0.308900	0.042100
N61	N6	0.848600	0.493200	0.041200
S51	S5	0.702400	0.205400	0.050300
S61	S6	0.921400	0.402000	0.778970
Ag41	Ag4	0.084400	0.601870	0.618120
C431	C43	0.305800	0.670700	0.583700
H431	H43	0.312300	0.681000	0.642300
H441	H44	0.312600	0.609200	0.573700
C441	C44	0.373900	0.721000	0.536300
C451	C45	0.375200	0.724000	0.448200
H451	H45	0.334100	0.691700	0.419300
C461	C46	0.434500	0.772500	0.404400
C471	C47	0.493400	0.812300	0.453900
H461	H46	0.537400	0.844300	0.428800
C481	C48	0.432900	0.765800	0.579800
H471	H47	0.430500	0.765800	0.637000
C491	C49	0.434100	0.786000	0.308500
H481	H48	0.386600	0.752800	0.284700
H491	H49	0.488300	0.764000	0.285800
C501	C50	0.314700	0.926600	0.310000
H501	H50	0.297600	0.981200	0.285200
H511	H51	0.275700	0.882200	0.289300
C511	C51	0.303500	0.933500	0.405400
C521	C52	0.249700	0.879200	0.448400
H521	H52	0.215000	0.840000	0.419800
C531	C53	0.245700	0.881500	0.538200
C541	C54	0.296600	0.937300	0.581000
H531	H53	0.295400	0.936900	0.638300
C551	C55	0.351300	0.990100	0.453500
H541	H54	0.387800	0.029000	0.426700
C561	C56	0.193400	0.819800	0.586400
H551	H55	0.132600	0.837200	0.584000
H561	H56	0.211700	0.822600	0.643500
N71	N7	0.492800	0.808900	0.542100
N81	N8	0.348600	0.993200	0.541200
S71	S7	0.202400	0.705400	0.550300
S81	S8	0.421400	0.902000	0.278970
Ag51	Ag5	0.915600	0.601870	0.118120
C571	C57	0.694200	0.670700	0.083700
H571	H57	0.687700	0.681000	0.142300
H581	H58	0.687400	0.609200	0.073700
C581	C58	0.626100	0.721000	0.036300
C591	C59	0.624800	0.724000	0.948200
H591	H59	0.665900	0.691700	0.919300
C601	C60	0.565500	0.772500	0.904400
C611	C61	0.506600	0.812300	0.953900
H601	H60	0.462600	0.844300	0.928800
C621	C62	0.567100	0.765800	0.079800
H611	H61	0.569500	0.765800	0.137000
C631	C63	0.565900	0.786000	0.808500
H621	H62	0.613400	0.752800	0.784700
H631	H63	0.511700	0.764000	0.785800
C641	C64	0.685300	0.926600	0.810000
H641	H64	0.702400	0.981200	0.785200
H651	H65	0.724300	0.882200	0.789300
C651	C65	0.696500	0.933500	0.905400
C661	C66	0.750300	0.879200	0.948400
H661	H66	0.785000	0.840000	0.919800
C671	C67	0.754300	0.881500	0.038200
C681	C68	0.703400	0.937300	0.081000
H671	H67	0.704600	0.936900	0.138300
C691	C69	0.648700	0.990100	0.953500
H681	H68	0.612200	0.029000	0.926700
C701	C70	0.806600	0.819800	0.086400
H691	H69	0.867400	0.837200	0.084000
H701	H70	0.788300	0.822600	0.143500
N91	N9	0.507200	0.808900	0.042100
N101	N10	0.651400	0.993200	0.041200
S91	S9	0.797600	0.705400	0.050300
S101	S10	0.578600	0.902000	0.778970
Ag61	Ag6	0.415600	0.101870	0.618120
C711	C71	0.194200	0.170700	0.583700
H711	H71	0.187700	0.181000	0.642300
H721	H72	0.187400	0.109200	0.573700
C721	C72	0.126100	0.221000	0.536300
C731	C73	0.124800	0.224000	0.448200
H731	H73	0.165900	0.191700	0.419300
C741	C74	0.065500	0.272500	0.404400
C751	C75	0.006600	0.312300	0.453900
H741	H74	0.962600	0.344300	0.428800
C761	C76	0.067100	0.265800	0.579800
H751	H75	0.069500	0.265800	0.637000
C771	C77	0.065900	0.286000	0.308500
H761	H76	0.113400	0.252800	0.284700
H771	H77	0.011700	0.264000	0.285800
C781	C78	0.185300	0.426600	0.310000
H781	H78	0.202400	0.481200	0.285200
H791	H79	0.224300	0.382200	0.289300
C791	C79	0.196500	0.433500	0.405400
C801	C80	0.250300	0.379200	0.448400
H801	H80	0.285000	0.340000	0.419800
C811	C81	0.254300	0.381500	0.538200
C821	C82	0.203400	0.437300	0.581000
H811	H81	0.204600	0.436900	0.638300
C831	C83	0.148700	0.490100	0.453500
H821	H82	0.112200	0.529000	0.426700
C841	C84	0.306600	0.319800	0.586400
H831	H83	0.367400	0.337200	0.584000
H841	H84	0.288300	0.322600	0.643500
N111	N11	0.007200	0.308900	0.542100
N121	N12	0.151400	0.493200	0.541200
S111	S11	0.297600	0.205400	0.550300
S121	S12	0.078600	0.402000	0.278970
Ag71	Ag7	0.084400	0.398130	0.118120
C851	C85	0.305800	0.329300	0.083700
H851	H85	0.312300	0.319000	0.142300
H861	H86	0.312600	0.390800	0.073700
C861	C86	0.373900	0.279000	0.036300
C871	C87	0.375200	0.276000	0.948200
H871	H87	0.334100	0.308300	0.919300
C881	C88	0.434500	0.227500	0.904400
C891	C89	0.493400	0.187700	0.953900
H881	H88	0.537400	0.155700	0.928800
C901	C90	0.432900	0.234200	0.079800
H891	H89	0.430500	0.234200	0.137000
C911	C91	0.434100	0.214000	0.808500
H901	H90	0.386600	0.247200	0.784700
H911	H91	0.488300	0.236000	0.785800
C921	C92	0.314700	0.073400	0.810000
H921	H92	0.297600	0.018800	0.785200
H931	H93	0.275700	0.117800	0.789300
C931	C93	0.303500	0.066500	0.905400
C941	C94	0.249700	0.120800	0.948400
H941	H94	0.215000	0.160000	0.919800
C951	C95	0.245700	0.118500	0.038200
C961	C96	0.296600	0.062700	0.081000
H951	H95	0.295400	0.063100	0.138300
C971	C97	0.351300	0.009900	0.953500
H961	H96	0.387800	0.971000	0.926700
C981	C98	0.193400	0.180200	0.086400
H971	H97	0.132600	0.162800	0.084000
H981	H98	0.211700	0.177400	0.143500
N131	N13	0.492800	0.191100	0.042100
N141	N14	0.348600	0.006800	0.041200
S131	S13	0.202400	0.294600	0.050300
S141	S14	0.421400	0.098000	0.778970
Ag81	Ag8	0.584400	0.898130	0.618120
C991	C99	0.805800	0.829300	0.583700
H991	H99	0.812300	0.819000	0.642300
H1001	H100	0.812600	0.890800	0.573700
C1001	C100	0.873900	0.779000	0.536300
C1011	C101	0.875200	0.776000	0.448200
H1011	H101	0.834100	0.808300	0.419300
C1021	C102	0.934500	0.727500	0.404400
C1031	C103	0.993400	0.687700	0.453900
H1021	H102	0.037400	0.655700	0.428800
C1041	C104	0.932900	0.734200	0.579800
H1031	H103	0.930500	0.734200	0.637000
C1051	C105	0.934100	0.714000	0.308500
H1041	H104	0.886600	0.747200	0.284700
H1051	H105	0.988300	0.736000	0.285800
C1061	C106	0.814700	0.573400	0.310000
H1061	H106	0.797600	0.518800	0.285200
H1071	H107	0.775700	0.617800	0.289300
C1071	C107	0.803500	0.566500	0.405400
C1081	C108	0.749700	0.620800	0.448400
H1081	H108	0.715000	0.660000	0.419800
C1091	C109	0.745700	0.618500	0.538200
C1101	C110	0.796600	0.562700	0.581000
H1091	H109	0.795400	0.563100	0.638300
C1111	C111	0.851300	0.509900	0.453500
H1101	H110	0.887800	0.471000	0.426700
C1121	C112	0.693400	0.680200	0.586400
H1111	H111	0.632600	0.662800	0.584000
H1121	H112	0.711700	0.677400	0.643500
N151	N15	0.992800	0.691100	0.542100
N161	N16	0.848600	0.506800	0.541200
S151	S15	0.702400	0.794600	0.550300
S161	S16	0.921400	0.598000	0.278970
