data_OXITOF_freeONLY_PM
_symmetry_space_group_name_H-M	'P1'
_cell_length_a	7.331000
_cell_length_b	11.901000
_cell_length_c	15.838000
_cell_angle_alpha	103.500000
_cell_angle_beta	100.460000
_cell_angle_gamma	104.750000
_symmetry_Int_Tables_number 1

loop_
_symmetry_equiv_pos_as_xyz
'x,y,z'

loop_
_atom_site_label
_atom_site_type_symbol
_atom_site_fract_x
_atom_site_fract_y
_atom_site_fract_z
Co11	Co1	0.027430	0.952810	0.334900
Co21	Co2	0.972570	0.047190	0.665100
Co31	Co3	0.500000	0.000000	0.500000
Co41	Co4	0.000000	0.000000	0.000000
H11	H1	0.001000	0.154400	0.959600
H21	H2	0.171100	0.225700	0.970200
H31	H3	0.817000	0.914300	0.204400
H41	H4	0.910600	0.013300	0.209800
H51	H5	0.899900	0.032000	0.440100
H61	H6	0.037100	0.156800	0.427900
H71	H7	0.792800	0.256400	0.422900
H81	H8	0.038700	0.583800	0.352500
H91	H9	0.589500	0.309500	0.143700
H101	H10	0.695100	0.617000	0.386500
H111	H11	0.914500	0.396000	0.223000
H121	H12	0.481600	0.442500	0.395800
H131	H13	0.999000	0.845600	0.040400
H141	H14	0.828900	0.774300	0.029800
H151	H15	0.183000	0.085700	0.795600
H161	H16	0.089400	0.986700	0.790200
H171	H17	0.100100	0.968000	0.559900
H181	H18	0.962900	0.843200	0.572100
H191	H19	0.207200	0.743600	0.577100
H201	H20	0.961300	0.416200	0.647500
H211	H21	0.410500	0.690500	0.856300
H221	H22	0.304900	0.383000	0.613500
H231	H23	0.085500	0.604000	0.777000
H241	H24	0.518400	0.557500	0.604200
C11	C1	0.889800	0.335800	0.332600
C21	C2	0.235400	0.494200	0.374400
C31	C3	0.752000	0.266600	0.366900
C41	C4	0.170800	0.591500	0.361200
C51	C5	0.555500	0.212500	0.319500
C61	C6	0.301300	0.700200	0.360800
C71	C7	0.493000	0.229800	0.235000
C81	C8	0.501300	0.710800	0.369900
C91	C9	0.630300	0.298800	0.199600
C101	C10	0.564600	0.611500	0.381500
C111	C11	0.825900	0.351100	0.247300
C121	C12	0.435900	0.505500	0.385700
C131	C13	0.419600	0.132800	0.358600
C141	C14	0.214700	0.800000	0.347700
C151	C15	0.285200	0.178900	0.178300
C161	C16	0.650100	0.826200	0.369900
C171	C17	0.099900	0.379100	0.381900
C181	C18	0.110200	0.664200	0.667400
C191	C19	0.764600	0.505800	0.625600
C201	C20	0.248000	0.733400	0.633100
C211	C21	0.829200	0.408500	0.638800
C221	C22	0.444500	0.787500	0.680500
C231	C23	0.698700	0.299800	0.639200
C241	C24	0.507000	0.770200	0.765000
C251	C25	0.498700	0.289200	0.630100
C261	C26	0.369700	0.701200	0.800400
C271	C27	0.435400	0.388500	0.618500
C281	C28	0.174100	0.648900	0.752700
C291	C29	0.564100	0.494500	0.614300
C301	C30	0.580400	0.867200	0.641400
C311	C31	0.785300	0.200000	0.652300
C321	C32	0.714800	0.821100	0.821700
C331	C33	0.349900	0.173800	0.630100
C341	C34	0.900100	0.620900	0.618100
O11	O1	0.483100	0.134200	0.439000
O21	O2	0.121900	0.793600	0.270600
O31	O3	0.255000	0.067800	0.306200
O41	O4	0.220200	0.885700	0.416700
O51	O5	0.248700	0.084500	0.110200
O61	O6	0.623700	0.928700	0.398700
O71	O7	0.167700	0.235300	0.195900
O81	O8	0.791900	0.812300	0.337700
O91	O9	0.165000	0.322400	0.429500
O101	O10	0.082600	0.126700	0.936100
O111	O11	0.148700	0.889900	0.933000
O121	O12	0.846800	0.990000	0.234400
O131	O13	0.019900	0.089600	0.441800
O141	O14	0.516900	0.865800	0.561000
O151	O15	0.878100	0.206400	0.729400
O161	O16	0.745000	0.932200	0.693800
O171	O17	0.779800	0.114300	0.583300
O181	O18	0.751300	0.915500	0.889800
O191	O19	0.376300	0.071300	0.601300
O201	O20	0.832300	0.764700	0.804100
O211	O21	0.208100	0.187700	0.662300
O221	O22	0.835000	0.677600	0.570500
O231	O23	0.917400	0.873300	0.063900
O241	O24	0.851300	0.110100	0.067000
O251	O25	0.153200	0.010000	0.765600
O261	O26	0.980100	0.910400	0.558200
