data_OZUKUR_freeONLY_PM
_symmetry_space_group_name_H-M	'P1'
_cell_length_a	26.290300
_cell_length_b	26.290300
_cell_length_c	7.067600
_cell_angle_alpha	90.000000
_cell_angle_beta	90.000000
_cell_angle_gamma	120.000000
_symmetry_Int_Tables_number 1

loop_
_symmetry_equiv_pos_as_xyz
'x,y,z'

loop_
_atom_site_label
_atom_site_type_symbol
_atom_site_fract_x
_atom_site_fract_y
_atom_site_fract_z
Mn11	Mn1	0.952500	0.636800	0.027000
C11	C1	0.012800	0.591700	0.758000
C21	C2	0.006900	0.545200	0.895000
C31	C3	0.990200	0.544100	0.087000
C41	C4	0.984300	0.497000	0.189400
H11	H1	0.972570	0.497500	0.337240
O11	O1	0.030300	0.592300	0.592000
O21	O2	0.006700	0.635300	0.800000
O31	O3	0.977700	0.585300	0.145000
Mn21	Mn2	0.619170	0.970130	0.360330
C51	C5	0.679470	0.925030	0.091330
C61	C6	0.673570	0.878530	0.228330
C71	C7	0.656870	0.877430	0.420330
C81	C8	0.650970	0.830330	0.522730
H21	H2	0.639240	0.830830	0.670570
O41	O4	0.696970	0.925630	0.925330
O51	O5	0.673370	0.968630	0.133330
O61	O6	0.644370	0.918630	0.478330
Mn31	Mn3	0.285830	0.303470	0.693670
C91	C9	0.346130	0.258370	0.424670
C101	C10	0.340230	0.211870	0.561670
C111	C11	0.323530	0.210770	0.753670
C121	C12	0.317630	0.163670	0.856070
H31	H3	0.305900	0.164170	0.003910
O71	O7	0.363630	0.258970	0.258670
O81	O8	0.340030	0.301970	0.466670
O91	O9	0.311030	0.251970	0.811670
Mn41	Mn4	0.363200	0.315700	0.027000
C131	C13	0.408300	0.421100	0.758000
C141	C14	0.454800	0.461700	0.895000
C151	C15	0.455900	0.446100	0.087000
C161	C16	0.503000	0.487300	0.189400
H41	H4	0.502500	0.475070	0.337240
O101	O10	0.407700	0.438000	0.592000
O111	O11	0.364700	0.371400	0.800000
O121	O12	0.414700	0.392400	0.145000
Mn51	Mn5	0.029870	0.649030	0.360330
C171	C17	0.074970	0.754430	0.091330
C181	C18	0.121470	0.795030	0.228330
C191	C19	0.122570	0.779430	0.420330
C201	C20	0.169670	0.820630	0.522730
H51	H5	0.169170	0.808400	0.670570
O131	O13	0.074370	0.771330	0.925330
O141	O14	0.031370	0.704730	0.133330
O151	O15	0.081370	0.725730	0.478330
Mn61	Mn6	0.696530	0.982370	0.693670
C211	C21	0.741630	0.087770	0.424670
C221	C22	0.788130	0.128370	0.561670
C231	C23	0.789230	0.112770	0.753670
C241	C24	0.836330	0.153970	0.856070
H61	H6	0.835830	0.141740	0.003910
O161	O16	0.741030	0.104670	0.258670
O171	O17	0.698030	0.038070	0.466670
O181	O18	0.748030	0.059070	0.811670
Mn71	Mn7	0.684300	0.047500	0.027000
C251	C25	0.578900	0.987200	0.758000
C261	C26	0.538300	0.993100	0.895000
C271	C27	0.553900	0.009800	0.087000
C281	C28	0.512700	0.015700	0.189400
H71	H7	0.524930	0.027430	0.337240
O191	O19	0.562000	0.969700	0.592000
O201	O20	0.628600	0.993300	0.800000
O211	O21	0.607600	0.022300	0.145000
Mn81	Mn8	0.350970	0.380830	0.360330
C291	C29	0.245570	0.320530	0.091330
C301	C30	0.204970	0.326430	0.228330
C311	C31	0.220570	0.343130	0.420330
C321	C32	0.179370	0.349030	0.522730
H81	H8	0.191600	0.360760	0.670570
O221	O22	0.228670	0.303030	0.925330
O231	O23	0.295270	0.326630	0.133330
O241	O24	0.274270	0.355630	0.478330
Mn91	Mn9	0.017630	0.714170	0.693670
C331	C33	0.912230	0.653870	0.424670
C341	C34	0.871630	0.659770	0.561670
C351	C35	0.887230	0.676470	0.753670
C361	C36	0.846030	0.682370	0.856070
H91	H9	0.858260	0.694100	0.003910
O251	O25	0.895330	0.636370	0.258670
O261	O26	0.961930	0.659970	0.466670
O271	O27	0.940930	0.688970	0.811670
Mn101	Mn10	0.047500	0.363200	0.973000
C371	C37	0.987200	0.408300	0.242000
C381	C38	0.993100	0.454800	0.105000
C391	C39	0.009800	0.455900	0.913000
C401	C40	0.015700	0.503000	0.810600
H101	H10	0.027430	0.502500	0.662760
O281	O28	0.969700	0.407700	0.408000
O291	O29	0.993300	0.364700	0.200000
O301	O30	0.022300	0.414700	0.855000
Mn111	Mn11	0.714170	0.696530	0.306330
C411	C41	0.653870	0.741630	0.575330
C421	C42	0.659770	0.788130	0.438330
C431	C43	0.676470	0.789230	0.246330
C441	C44	0.682370	0.836330	0.143930
H111	H11	0.694100	0.835830	0.996090
O311	O31	0.636370	0.741030	0.741330
O321	O32	0.659970	0.698030	0.533330
O331	O33	0.688970	0.748030	0.188330
Mn121	Mn12	0.380830	0.029870	0.639670
C451	C45	0.320530	0.074970	0.908670
C461	C46	0.326430	0.121470	0.771670
C471	C47	0.343130	0.122570	0.579670
C481	C48	0.349030	0.169670	0.477270
H121	H12	0.360760	0.169170	0.329430
O341	O34	0.303030	0.074370	0.074670
O351	O35	0.326630	0.031370	0.866670
O361	O36	0.355630	0.081370	0.521670
Mn131	Mn13	0.636800	0.684300	0.973000
C491	C49	0.591700	0.578900	0.242000
C501	C50	0.545200	0.538300	0.105000
C511	C51	0.544100	0.553900	0.913000
C521	C52	0.497000	0.512700	0.810600
H131	H13	0.497500	0.524930	0.662760
O371	O37	0.592300	0.562000	0.408000
O381	O38	0.635300	0.628600	0.200000
O391	O39	0.585300	0.607600	0.855000
Mn141	Mn14	0.303470	0.017630	0.306330
C531	C53	0.258370	0.912230	0.575330
C541	C54	0.211870	0.871630	0.438330
C551	C55	0.210770	0.887230	0.246330
C561	C56	0.163670	0.846030	0.143930
H141	H14	0.164170	0.858260	0.996090
O401	O40	0.258970	0.895330	0.741330
O411	O41	0.301970	0.961930	0.533330
O421	O42	0.251970	0.940930	0.188330
Mn151	Mn15	0.970130	0.350970	0.639670
C571	C57	0.925030	0.245570	0.908670
C581	C58	0.878530	0.204970	0.771670
C591	C59	0.877430	0.220570	0.579670
C601	C60	0.830330	0.179370	0.477270
H151	H15	0.830830	0.191600	0.329430
O431	O43	0.925630	0.228670	0.074670
O441	O44	0.968630	0.295270	0.866670
O451	O45	0.918630	0.274270	0.521670
Mn161	Mn16	0.315700	0.952500	0.973000
C611	C61	0.421100	0.012800	0.242000
C621	C62	0.461700	0.006900	0.105000
C631	C63	0.446100	0.990200	0.913000
C641	C64	0.487300	0.984300	0.810600
H161	H16	0.475070	0.972570	0.662760
O461	O46	0.438000	0.030300	0.408000
O471	O47	0.371400	0.006700	0.200000
O481	O48	0.392400	0.977700	0.855000
Mn171	Mn17	0.982370	0.285830	0.306330
C651	C65	0.087770	0.346130	0.575330
C661	C66	0.128370	0.340230	0.438330
C671	C67	0.112770	0.323530	0.246330
C681	C68	0.153970	0.317630	0.143930
H171	H17	0.141740	0.305900	0.996090
O491	O49	0.104670	0.363630	0.741330
O501	O50	0.038070	0.340030	0.533330
O511	O51	0.059070	0.311030	0.188330
Mn181	Mn18	0.649030	0.619170	0.639670
C691	C69	0.754430	0.679470	0.908670
C701	C70	0.795030	0.673570	0.771670
C711	C71	0.779430	0.656870	0.579670
C721	C72	0.820630	0.650970	0.477270
H181	H18	0.808400	0.639240	0.329430
O521	O52	0.771330	0.696970	0.074670
O531	O53	0.704730	0.673370	0.866670
O541	O54	0.725730	0.644370	0.521670
