data_PAFMUH_freeONLY_PM
_symmetry_space_group_name_H-M	'P1'
_cell_length_a	16.095000
_cell_length_b	16.492000
_cell_length_c	16.308000
_cell_angle_alpha	90.000000
_cell_angle_beta	118.020000
_cell_angle_gamma	90.000000
_symmetry_Int_Tables_number 1

loop_
_symmetry_equiv_pos_as_xyz
'x,y,z'

loop_
_atom_site_label
_atom_site_type_symbol
_atom_site_fract_x
_atom_site_fract_y
_atom_site_fract_z
Cd11	Cd1	0.835250	0.273580	0.175870
Cd21	Cd2	0.109880	0.302900	0.290480
O11	O1	0.971000	0.378700	0.208900
O21	O2	0.823100	0.393100	0.105900
O31	O3	0.733200	0.622800	0.862000
O41	O4	0.800200	0.731600	0.943600
O51	O5	0.748900	0.309400	0.250100
O61	O6	0.720400	0.289600	0.369000
O71	O7	0.803000	0.500200	0.613400
O81	O8	0.848800	0.619500	0.584500
O91	O9	0.209900	0.391400	0.273600
H11	H1	0.221000	0.408000	0.228000
H21	H2	0.212000	0.437000	0.304000
N11	N1	0.935400	0.224600	0.318700
N21	N2	0.031500	0.233000	0.361700
N31	N3	0.991800	0.165500	0.452100
N41	N4	0.024800	0.222200	0.155000
N51	N5	0.929600	0.219200	0.112100
N61	N6	0.980800	0.153400	0.028200
C11	C1	0.995400	0.964700	0.740000
H31	H3	0.051700	0.931500	0.766000
H41	H4	0.941300	0.928900	0.711900
C21	C2	0.996200	0.019600	0.666800
C31	C3	0.074900	0.027800	0.654800
H51	H5	0.129500	0.000200	0.694600
C41	C4	0.075400	0.076000	0.585400
H61	H6	0.129000	0.080100	0.577600
C51	C5	0.995400	0.117100	0.528800
C61	C6	0.915400	0.112800	0.539300
H71	H7	0.862100	0.143000	0.501800
C71	C7	0.917100	0.062200	0.607500
H81	H8	0.862700	0.056700	0.613500
C81	C8	0.991100	0.013700	0.817600
C91	C9	0.069600	0.049200	0.884600
H91	H9	0.126800	0.042100	0.884400
C101	C10	0.065900	0.095700	0.953100
H101	H10	0.120100	0.120600	0.998000
C111	C11	0.983000	0.105200	0.954800
C121	C12	0.903900	0.071000	0.888900
H111	H11	0.846900	0.078700	0.889500
C131	C13	0.907500	0.025000	0.821100
H121	H12	0.852800	0.000700	0.776400
C141	C14	0.913500	0.184300	0.373900
H131	H13	0.852700	0.170300	0.361200
C151	C15	0.064100	0.197600	0.441100
H141	H14	0.127400	0.194400	0.484500
C161	C16	0.054600	0.182700	0.104300
H151	H15	0.117400	0.175900	0.118800
C171	C17	0.903000	0.177300	0.036000
H161	H16	0.841000	0.165500	0.993600
C181	C18	0.928900	0.491300	0.103800
C191	C19	0.857800	0.535000	0.033700
H171	H17	0.796500	0.515400	0.007000
C201	C20	0.875700	0.606300	0.002900
C211	C21	0.968400	0.632700	0.038700
H181	H18	0.980500	0.681600	0.018000
C221	C22	0.044800	0.587500	0.105500
C231	C23	0.020000	0.518300	0.137700
H191	H19	0.067700	0.488600	0.184800
C241	C24	0.906700	0.416400	0.141500
C251	C25	0.798200	0.656500	0.930000
C261	C26	0.144700	0.612800	0.139800
H201	H20	0.185700	0.574400	0.185000
H211	H21	0.154200	0.665500	0.167700
H221	H22	0.158600	0.614700	0.088600
C271	C27	0.803700	0.408400	0.371200
C281	C28	0.799100	0.437500	0.448400
H231	H23	0.769600	0.406700	0.474900
C291	C29	0.837600	0.511600	0.486800
C301	C30	0.884600	0.555500	0.448400
H241	H24	0.911800	0.605000	0.474800
C311	C31	0.892300	0.527700	0.371600
C321	C32	0.849400	0.454000	0.333500
H251	H25	0.851500	0.434800	0.280900
C331	C33	0.755500	0.330100	0.328300
C341	C34	0.830000	0.545300	0.568300
C351	C35	0.941900	0.574800	0.329100
H261	H26	0.968300	0.623300	0.364500
H271	H27	0.898000	0.589100	0.266400
H281	H28	0.991400	0.542300	0.329000
Cd31	Cd3	0.664750	0.773580	0.824130
Cd41	Cd4	0.390120	0.802900	0.709520
O101	O10	0.529000	0.878700	0.791100
O111	O11	0.676900	0.893100	0.894100
O121	O12	0.766800	0.122800	0.138000
O131	O13	0.699800	0.231600	0.056400
O141	O14	0.751100	0.809400	0.749900
O151	O15	0.779600	0.789600	0.631000
O161	O16	0.697000	0.000200	0.386600
O171	O17	0.651200	0.119500	0.415500
O181	O18	0.290100	0.891400	0.726400
H291	H29	0.279000	0.908000	0.772000
H301	H30	0.288000	0.937000	0.696000
N71	N7	0.564600	0.724600	0.681300
N81	N8	0.468500	0.733000	0.638300
N91	N9	0.508200	0.665500	0.547900
N101	N10	0.475200	0.722200	0.845000
N111	N11	0.570400	0.719200	0.887900
N121	N12	0.519200	0.653400	0.971800
C361	C36	0.504600	0.464700	0.260000
H311	H31	0.448300	0.431500	0.234000
H321	H32	0.558700	0.428900	0.288100
C371	C37	0.503800	0.519600	0.333200
C381	C38	0.425100	0.527800	0.345200
H331	H33	0.370500	0.500200	0.305400
C391	C39	0.424600	0.576000	0.414600
H341	H34	0.371000	0.580100	0.422400
C401	C40	0.504600	0.617100	0.471200
C411	C41	0.584600	0.612800	0.460700
H351	H35	0.637900	0.643000	0.498200
C421	C42	0.582900	0.562200	0.392500
H361	H36	0.637300	0.556700	0.386500
C431	C43	0.508900	0.513700	0.182400
C441	C44	0.430400	0.549200	0.115400
H371	H37	0.373200	0.542100	0.115600
C451	C45	0.434100	0.595700	0.046900
H381	H38	0.379900	0.620600	0.002000
C461	C46	0.517000	0.605200	0.045200
C471	C47	0.596100	0.571000	0.111100
H391	H39	0.653100	0.578700	0.110500
C481	C48	0.592500	0.525000	0.178900
H401	H40	0.647200	0.500700	0.223600
C491	C49	0.586500	0.684300	0.626100
H411	H41	0.647300	0.670300	0.638800
C501	C50	0.435900	0.697600	0.558900
H421	H42	0.372600	0.694400	0.515500
C511	C51	0.445400	0.682700	0.895700
H431	H43	0.382600	0.675900	0.881200
C521	C52	0.597000	0.677300	0.964000
H441	H44	0.659000	0.665500	0.006400
C531	C53	0.571100	0.991300	0.896200
C541	C54	0.642200	0.035000	0.966300
H451	H45	0.703500	0.015400	0.993000
C551	C55	0.624300	0.106300	0.997100
C561	C56	0.531600	0.132700	0.961300
H461	H46	0.519500	0.181600	0.982000
C571	C57	0.455200	0.087500	0.894500
C581	C58	0.480000	0.018300	0.862300
H471	H47	0.432300	0.988600	0.815200
C591	C59	0.593300	0.916400	0.858500
C601	C60	0.701800	0.156500	0.070000
C611	C61	0.355300	0.112800	0.860200
H481	H48	0.314300	0.074400	0.815000
H491	H49	0.345800	0.165500	0.832300
H501	H50	0.341400	0.114700	0.911400
C621	C62	0.696300	0.908400	0.628800
C631	C63	0.700900	0.937500	0.551600
H511	H51	0.730400	0.906700	0.525100
C641	C64	0.662400	0.011600	0.513200
C651	C65	0.615400	0.055500	0.551600
H521	H52	0.588200	0.105000	0.525200
C661	C66	0.607700	0.027700	0.628400
C671	C67	0.650600	0.954000	0.666500
H531	H53	0.648500	0.934800	0.719100
C681	C68	0.744500	0.830100	0.671700
C691	C69	0.670000	0.045300	0.431700
C701	C70	0.558100	0.074800	0.670900
H541	H54	0.531700	0.123300	0.635500
H551	H55	0.602000	0.089100	0.733600
H561	H56	0.508600	0.042300	0.671000
Cd51	Cd5	0.164750	0.726420	0.824130
Cd61	Cd6	0.890120	0.697100	0.709520
O191	O19	0.029000	0.621300	0.791100
O201	O20	0.176900	0.606900	0.894100
O211	O21	0.266800	0.377200	0.138000
O221	O22	0.199800	0.268400	0.056400
O231	O23	0.251100	0.690600	0.749900
O241	O24	0.279600	0.710400	0.631000
O251	O25	0.197000	0.499800	0.386600
O261	O26	0.151200	0.380500	0.415500
O271	O27	0.790100	0.608600	0.726400
H571	H57	0.779000	0.592000	0.772000
H581	H58	0.788000	0.563000	0.696000
N131	N13	0.064600	0.775400	0.681300
N141	N14	0.968500	0.767000	0.638300
N151	N15	0.008200	0.834500	0.547900
N161	N16	0.975200	0.777800	0.845000
N171	N17	0.070400	0.780800	0.887900
N181	N18	0.019200	0.846600	0.971800
C711	C71	0.004600	0.035300	0.260000
H591	H59	0.948300	0.068500	0.234000
H601	H60	0.058700	0.071100	0.288100
C721	C72	0.003800	0.980400	0.333200
C731	C73	0.925100	0.972200	0.345200
H611	H61	0.870500	0.999800	0.305400
C741	C74	0.924600	0.924000	0.414600
H621	H62	0.871000	0.919900	0.422400
C751	C75	0.004600	0.882900	0.471200
C761	C76	0.084600	0.887200	0.460700
H631	H63	0.137900	0.857000	0.498200
C771	C77	0.082900	0.937800	0.392500
H641	H64	0.137300	0.943300	0.386500
C781	C78	0.008900	0.986300	0.182400
C791	C79	0.930400	0.950800	0.115400
H651	H65	0.873200	0.957900	0.115600
C801	C80	0.934100	0.904300	0.046900
H661	H66	0.879900	0.879400	0.002000
C811	C81	0.017000	0.894800	0.045200
C821	C82	0.096100	0.929000	0.111100
H671	H67	0.153100	0.921300	0.110500
C831	C83	0.092500	0.975000	0.178900
H681	H68	0.147200	0.999300	0.223600
C841	C84	0.086500	0.815700	0.626100
H691	H69	0.147300	0.829700	0.638800
C851	C85	0.935900	0.802400	0.558900
H701	H70	0.872600	0.805600	0.515500
C861	C86	0.945400	0.817300	0.895700
H711	H71	0.882600	0.824100	0.881200
C871	C87	0.097000	0.822700	0.964000
H721	H72	0.159000	0.834500	0.006400
C881	C88	0.071100	0.508700	0.896200
C891	C89	0.142200	0.465000	0.966300
H731	H73	0.203500	0.484600	0.993000
C901	C90	0.124300	0.393700	0.997100
C911	C91	0.031600	0.367300	0.961300
H741	H74	0.019500	0.318400	0.982000
C921	C92	0.955200	0.412500	0.894500
C931	C93	0.980000	0.481700	0.862300
H751	H75	0.932300	0.511400	0.815200
C941	C94	0.093300	0.583600	0.858500
C951	C95	0.201800	0.343500	0.070000
C961	C96	0.855300	0.387200	0.860200
H761	H76	0.814300	0.425600	0.815000
H771	H77	0.845800	0.334500	0.832300
H781	H78	0.841400	0.385300	0.911400
C971	C97	0.196300	0.591600	0.628800
C981	C98	0.200900	0.562500	0.551600
H791	H79	0.230400	0.593300	0.525100
C991	C99	0.162400	0.488400	0.513200
C1001	C100	0.115400	0.444500	0.551600
H801	H80	0.088200	0.395000	0.525200
C1011	C101	0.107700	0.472300	0.628400
C1021	C102	0.150600	0.546000	0.666500
H811	H81	0.148500	0.565200	0.719100
C1031	C103	0.244500	0.669900	0.671700
C1041	C104	0.170000	0.454700	0.431700
C1051	C105	0.058100	0.425200	0.670900
H821	H82	0.031700	0.376700	0.635500
H831	H83	0.102000	0.410900	0.733600
H841	H84	0.008600	0.457700	0.671000
Cd71	Cd7	0.335250	0.226420	0.175870
Cd81	Cd8	0.609880	0.197100	0.290480
O281	O28	0.471000	0.121300	0.208900
O291	O29	0.323100	0.106900	0.105900
O301	O30	0.233200	0.877200	0.862000
O311	O31	0.300200	0.768400	0.943600
O321	O32	0.248900	0.190600	0.250100
O331	O33	0.220400	0.210400	0.369000
O341	O34	0.303000	0.999800	0.613400
O351	O35	0.348800	0.880500	0.584500
O361	O36	0.709900	0.108600	0.273600
H851	H85	0.721000	0.092000	0.228000
H861	H86	0.712000	0.063000	0.304000
N191	N19	0.435400	0.275400	0.318700
N201	N20	0.531500	0.267000	0.361700
N211	N21	0.491800	0.334500	0.452100
N221	N22	0.524800	0.277800	0.155000
N231	N23	0.429600	0.280800	0.112100
N241	N24	0.480800	0.346600	0.028200
C1061	C106	0.495400	0.535300	0.740000
H871	H87	0.551700	0.568500	0.766000
H881	H88	0.441300	0.571100	0.711900
C1071	C107	0.496200	0.480400	0.666800
C1081	C108	0.574900	0.472200	0.654800
H891	H89	0.629500	0.499800	0.694600
C1091	C109	0.575400	0.424000	0.585400
H901	H90	0.629000	0.419900	0.577600
C1101	C110	0.495400	0.382900	0.528800
C1111	C111	0.415400	0.387200	0.539300
H911	H91	0.362100	0.357000	0.501800
C1121	C112	0.417100	0.437800	0.607500
H921	H92	0.362700	0.443300	0.613500
C1131	C113	0.491100	0.486300	0.817600
C1141	C114	0.569600	0.450800	0.884600
H931	H93	0.626800	0.457900	0.884400
C1151	C115	0.565900	0.404300	0.953100
H941	H94	0.620100	0.379400	0.998000
C1161	C116	0.483000	0.394800	0.954800
C1171	C117	0.403900	0.429000	0.888900
H951	H95	0.346900	0.421300	0.889500
C1181	C118	0.407500	0.475000	0.821100
H961	H96	0.352800	0.499300	0.776400
C1191	C119	0.413500	0.315700	0.373900
H971	H97	0.352700	0.329700	0.361200
C1201	C120	0.564100	0.302400	0.441100
H981	H98	0.627400	0.305600	0.484500
C1211	C121	0.554600	0.317300	0.104300
H991	H99	0.617400	0.324100	0.118800
C1221	C122	0.403000	0.322700	0.036000
H1001	H100	0.341000	0.334500	0.993600
C1231	C123	0.428900	0.008700	0.103800
C1241	C124	0.357800	0.965000	0.033700
H1011	H101	0.296500	0.984600	0.007000
C1251	C125	0.375700	0.893700	0.002900
C1261	C126	0.468400	0.867300	0.038700
H1021	H102	0.480500	0.818400	0.018000
C1271	C127	0.544800	0.912500	0.105500
C1281	C128	0.520000	0.981700	0.137700
H1031	H103	0.567700	0.011400	0.184800
C1291	C129	0.406700	0.083600	0.141500
C1301	C130	0.298200	0.843500	0.930000
C1311	C131	0.644700	0.887200	0.139800
H1041	H104	0.685700	0.925600	0.185000
H1051	H105	0.654200	0.834500	0.167700
H1061	H106	0.658600	0.885300	0.088600
C1321	C132	0.303700	0.091600	0.371200
C1331	C133	0.299100	0.062500	0.448400
H1071	H107	0.269600	0.093300	0.474900
C1341	C134	0.337600	0.988400	0.486800
C1351	C135	0.384600	0.944500	0.448400
H1081	H108	0.411800	0.895000	0.474800
C1361	C136	0.392300	0.972300	0.371600
C1371	C137	0.349400	0.046000	0.333500
H1091	H109	0.351500	0.065200	0.280900
C1381	C138	0.255500	0.169900	0.328300
C1391	C139	0.330000	0.954700	0.568300
C1401	C140	0.441900	0.925200	0.329100
H1101	H110	0.468300	0.876700	0.364500
H1111	H111	0.398000	0.910900	0.266400
H1121	H112	0.491400	0.957700	0.329000
