data_PAGFUZ_freeONLY_PM
_symmetry_space_group_name_H-M	'P1'
_cell_length_a	7.233800
_cell_length_b	15.023800
_cell_length_c	9.215300
_cell_angle_alpha	90.000000
_cell_angle_beta	107.741000
_cell_angle_gamma	90.000000
_symmetry_Int_Tables_number 1

loop_
_symmetry_equiv_pos_as_xyz
'x,y,z'

loop_
_atom_site_label
_atom_site_type_symbol
_atom_site_fract_x
_atom_site_fract_y
_atom_site_fract_z
Zn11	Zn1	0.487950	0.239940	0.024980
P11	P1	0.230970	0.341720	0.725200
H11	H1	0.111000	0.281000	0.661000
P21	P2	0.766670	0.317540	0.335300
H21	H2	0.846000	0.234000	0.388000
O11	O1	0.313400	0.322300	0.893900
O21	O2	0.686300	0.314200	0.161300
O31	O3	0.384500	0.342100	0.641600
O41	O4	0.607400	0.336800	0.408800
O51	O5	0.119900	0.428700	0.703700
O61	O6	0.933800	0.381200	0.382200
O71	O7	0.274500	0.496800	0.456800
H31	H3	0.317000	0.539000	0.482000
H41	H4	0.315000	0.464000	0.499000
Zn21	Zn2	0.512050	0.739940	0.475020
P31	P3	0.769030	0.841720	0.774800
H51	H5	0.889000	0.781000	0.839000
P41	P4	0.233330	0.817540	0.164700
H61	H6	0.154000	0.734000	0.112000
O81	O8	0.686600	0.822300	0.606100
O91	O9	0.313700	0.814200	0.338700
O101	O10	0.615500	0.842100	0.858400
O111	O11	0.392600	0.836800	0.091200
O121	O12	0.880100	0.928700	0.796300
O131	O13	0.066200	0.881200	0.117800
O141	O14	0.725500	0.996800	0.043200
H71	H7	0.683000	0.039000	0.018000
H81	H8	0.685000	0.964000	0.001000
Zn31	Zn3	0.512050	0.760060	0.975020
P51	P5	0.769030	0.658280	0.274800
H91	H9	0.889000	0.719000	0.339000
P61	P6	0.233330	0.682460	0.664700
H101	H10	0.154000	0.766000	0.612000
O151	O15	0.686600	0.677700	0.106100
O161	O16	0.313700	0.685800	0.838700
O171	O17	0.615500	0.657900	0.358400
O181	O18	0.392600	0.663200	0.591200
O191	O19	0.880100	0.571300	0.296300
O201	O20	0.066200	0.618800	0.617800
O211	O21	0.725500	0.503200	0.543200
H111	H11	0.683000	0.461000	0.518000
H121	H12	0.685000	0.536000	0.501000
Zn41	Zn4	0.487950	0.260060	0.524980
P71	P7	0.230970	0.158280	0.225200
H131	H13	0.111000	0.219000	0.161000
P81	P8	0.766670	0.182460	0.835300
H141	H14	0.846000	0.266000	0.888000
O221	O22	0.313400	0.177700	0.393900
O231	O23	0.686300	0.185800	0.661300
O241	O24	0.384500	0.157900	0.141600
O251	O25	0.607400	0.163200	0.908800
O261	O26	0.119900	0.071300	0.203700
O271	O27	0.933800	0.118800	0.882200
O281	O28	0.274500	0.003200	0.956800
H151	H15	0.317000	0.961000	0.982000
H161	H16	0.315000	0.036000	0.999000
Zn51	Zn5	0.000000	0.500000	0.500000
Zn61	Zn6	0.000000	0.000000	0.000000
