data_PAJSAX_freeONLY_PM
_symmetry_space_group_name_H-M	'P1'
_cell_length_a	9.625600
_cell_length_b	23.436000
_cell_length_c	41.593000
_cell_angle_alpha	90.000000
_cell_angle_beta	90.000000
_cell_angle_gamma	90.000000
_symmetry_Int_Tables_number 1

loop_
_symmetry_equiv_pos_as_xyz
'x,y,z'

loop_
_atom_site_label
_atom_site_type_symbol
_atom_site_fract_x
_atom_site_fract_y
_atom_site_fract_z
Zn11	Zn1	0.796590	0.501880	0.917140
Zn21	Zn2	0.700940	0.375720	0.039450
Zn31	Zn3	0.796920	0.374730	0.791790
N11	N1	0.749700	0.441200	0.946500
N21	N2	0.714200	0.392500	0.993280
N31	N3	0.754300	0.478100	0.872990
N41	N4	0.754800	0.429900	0.825950
N51	N5	0.679400	0.566300	0.928300
N61	N6	0.486800	0.612900	0.944600
N71	N7	0.817700	0.427600	0.063700
N81	N8	0.010800	0.473400	0.080700
N91	N9	0.673200	0.394500	0.756800
N101	N10	0.482900	0.390500	0.723600
N111	N11	0.757000	0.296800	0.048300
N121	N12	0.774400	0.296500	0.808500
C11	C1	0.759100	0.442100	0.979500
H11	H1	0.792500	0.473100	0.991100
C21	C2	0.671800	0.358100	0.967900
H21	H2	0.636800	0.321300	0.969600
C31	C3	0.690600	0.388300	0.939200
H31	H3	0.667700	0.375400	0.918700
C41	C4	0.812500	0.433300	0.856000
H41	H4	0.880900	0.409000	0.863900
C51	C5	0.656100	0.473200	0.823500
H51	H5	0.597500	0.479800	0.806100
C61	C6	0.661500	0.504900	0.852000
H61	H6	0.611800	0.538100	0.856200
C71	C7	0.552800	0.561300	0.943300
H71	H7	0.516900	0.527400	0.951400
C81	C8	0.569200	0.652300	0.928100
H81	H8	0.548100	0.690400	0.924100
C91	C9	0.689200	0.623400	0.918500
H91	H9	0.763600	0.639400	0.907400
C101	C10	0.954800	0.438100	0.057700
H101	H10	0.003900	0.423300	0.040300
C111	C11	0.908700	0.481300	0.103800
H111	H11	0.918500	0.501100	0.123100
C121	C12	0.788100	0.453800	0.092900
H121	H12	0.702800	0.453300	0.103400
C131	C13	0.538400	0.363400	0.749700
H131	H13	0.501500	0.332400	0.760700
C141	C14	0.569800	0.435300	0.714500
H141	H14	0.552400	0.460500	0.697700
C151	C15	0.685600	0.436800	0.734100
H151	H15	0.759400	0.462100	0.732300
C161	C16	0.853300	0.278900	0.069700
H161	H16	0.909800	0.302300	0.082200
C171	C17	0.732700	0.278900	0.838700
H171	H17	0.709000	0.302400	0.855900
Zn41	Zn4	0.703410	0.498120	0.417140
Zn51	Zn5	0.799060	0.624280	0.539450
Zn61	Zn6	0.703080	0.625270	0.291790
N131	N13	0.750300	0.558800	0.446500
N141	N14	0.785800	0.607500	0.493280
N151	N15	0.745700	0.521900	0.372990
N161	N16	0.745200	0.570100	0.325950
N171	N17	0.820600	0.433700	0.428300
N181	N18	0.013200	0.387100	0.444600
N191	N19	0.682300	0.572400	0.563700
N201	N20	0.489200	0.526600	0.580700
N211	N21	0.826800	0.605500	0.256800
N221	N22	0.017100	0.609500	0.223600
N231	N23	0.743000	0.703200	0.548300
N241	N24	0.725600	0.703500	0.308500
C181	C18	0.740900	0.557900	0.479500
H181	H18	0.707500	0.526900	0.491100
C191	C19	0.828200	0.641900	0.467900
H191	H19	0.863200	0.678700	0.469600
C201	C20	0.809400	0.611700	0.439200
H201	H20	0.832300	0.624600	0.418700
C211	C21	0.687500	0.566700	0.356000
H211	H21	0.619100	0.591000	0.363900
C221	C22	0.843900	0.526800	0.323500
H221	H22	0.902500	0.520200	0.306100
C231	C23	0.838500	0.495100	0.352000
H231	H23	0.888200	0.461900	0.356200
C241	C24	0.947200	0.438700	0.443300
H241	H24	0.983100	0.472600	0.451400
C251	C25	0.930800	0.347700	0.428100
H251	H25	0.951900	0.309600	0.424100
C261	C26	0.810800	0.376600	0.418500
H261	H26	0.736400	0.360600	0.407400
C271	C27	0.545200	0.561900	0.557700
H271	H27	0.496100	0.576700	0.540300
C281	C28	0.591300	0.518700	0.603800
H281	H28	0.581500	0.498900	0.623100
C291	C29	0.711900	0.546200	0.592900
H291	H29	0.797200	0.546700	0.603400
C301	C30	0.961600	0.636600	0.249700
H301	H30	0.998500	0.667600	0.260700
C311	C31	0.930200	0.564700	0.214500
H311	H31	0.947600	0.539500	0.197700
C321	C32	0.814400	0.563200	0.234100
H321	H32	0.740600	0.537900	0.232300
C331	C33	0.646700	0.721100	0.569700
H331	H33	0.590200	0.697700	0.582200
C341	C34	0.767300	0.721100	0.338700
H341	H34	0.791000	0.697600	0.355900
Zn71	Zn7	0.203410	0.001880	0.082860
Zn81	Zn8	0.299060	0.875720	0.960550
Zn91	Zn9	0.203080	0.874730	0.208210
N251	N25	0.250300	0.941200	0.053500
N261	N26	0.285800	0.892500	0.006720
N271	N27	0.245700	0.978100	0.127010
N281	N28	0.245200	0.929900	0.174050
N291	N29	0.320600	0.066300	0.071700
N301	N30	0.513200	0.112900	0.055400
N311	N31	0.182300	0.927600	0.936300
N321	N32	0.989200	0.973400	0.919300
N331	N33	0.326800	0.894500	0.243200
N341	N34	0.517100	0.890500	0.276400
N351	N35	0.243000	0.796800	0.951700
N361	N36	0.225600	0.796500	0.191500
C351	C35	0.240900	0.942100	0.020500
H351	H35	0.207500	0.973100	0.008900
C361	C36	0.328200	0.858100	0.032100
H361	H36	0.363200	0.821300	0.030400
C371	C37	0.309400	0.888300	0.060800
H371	H37	0.332300	0.875400	0.081300
C381	C38	0.187500	0.933300	0.144000
H381	H38	0.119100	0.909000	0.136100
C391	C39	0.343900	0.973200	0.176500
H391	H39	0.402500	0.979800	0.193900
C401	C40	0.338500	0.004900	0.148000
H401	H40	0.388200	0.038100	0.143800
C411	C41	0.447200	0.061300	0.056700
H411	H41	0.483100	0.027400	0.048600
C421	C42	0.430800	0.152300	0.071900
H421	H42	0.451900	0.190400	0.075900
C431	C43	0.310800	0.123400	0.081500
H431	H43	0.236400	0.139400	0.092600
C441	C44	0.045200	0.938100	0.942300
H441	H44	0.996100	0.923300	0.959700
C451	C45	0.091300	0.981300	0.896200
H451	H45	0.081500	0.001100	0.876900
C461	C46	0.211900	0.953800	0.907100
H461	H46	0.297200	0.953300	0.896600
C471	C47	0.461600	0.863400	0.250300
H471	H47	0.498500	0.832400	0.239300
C481	C48	0.430200	0.935300	0.285500
H481	H48	0.447600	0.960500	0.302300
C491	C49	0.314400	0.936800	0.265900
H491	H49	0.240600	0.962100	0.267700
C501	C50	0.146700	0.778900	0.930300
H501	H50	0.090200	0.802300	0.917800
C511	C51	0.267300	0.778900	0.161300
H511	H51	0.291000	0.802400	0.144100
Zn101	Zn10	0.296590	0.998120	0.582860
Zn111	Zn11	0.200940	0.124280	0.460550
Zn121	Zn12	0.296920	0.125270	0.708210
N371	N37	0.249700	0.058800	0.553500
N381	N38	0.214200	0.107500	0.506720
N391	N39	0.254300	0.021900	0.627010
N401	N40	0.254800	0.070100	0.674050
N411	N41	0.179400	0.933700	0.571700
N421	N42	0.986800	0.887100	0.555400
N431	N43	0.317700	0.072400	0.436300
N441	N44	0.510800	0.026600	0.419300
N451	N45	0.173200	0.105500	0.743200
N461	N46	0.982900	0.109500	0.776400
N471	N47	0.257000	0.203200	0.451700
N481	N48	0.274400	0.203500	0.691500
C521	C52	0.259100	0.057900	0.520500
H521	H52	0.292500	0.026900	0.508900
C531	C53	0.171800	0.141900	0.532100
H531	H53	0.136800	0.178700	0.530400
C541	C54	0.190600	0.111700	0.560800
H541	H54	0.167700	0.124600	0.581300
C551	C55	0.312500	0.066700	0.644000
H551	H55	0.380900	0.091000	0.636100
C561	C56	0.156100	0.026800	0.676500
H561	H56	0.097500	0.020200	0.693900
C571	C57	0.161500	0.995100	0.648000
H571	H57	0.111800	0.961900	0.643800
C581	C58	0.052800	0.938700	0.556700
H581	H58	0.016900	0.972600	0.548600
C591	C59	0.069200	0.847700	0.571900
H591	H59	0.048100	0.809600	0.575900
C601	C60	0.189200	0.876600	0.581500
H601	H60	0.263600	0.860600	0.592600
C611	C61	0.454800	0.061900	0.442300
H611	H61	0.503900	0.076700	0.459700
C621	C62	0.408700	0.018700	0.396200
H621	H62	0.418500	0.998900	0.376900
C631	C63	0.288100	0.046200	0.407100
H631	H63	0.202800	0.046700	0.396600
C641	C64	0.038400	0.136600	0.750300
H641	H64	0.001500	0.167600	0.739300
C651	C65	0.069800	0.064700	0.785500
H651	H65	0.052400	0.039500	0.802300
C661	C66	0.185600	0.063200	0.765900
H661	H66	0.259400	0.037900	0.767700
C671	C67	0.353300	0.221100	0.430300
H671	H67	0.409800	0.197700	0.417800
C681	C68	0.232700	0.221100	0.661300
H681	H68	0.209000	0.197600	0.644100
Zn131	Zn13	0.203410	0.498120	0.082860
Zn141	Zn14	0.299060	0.624280	0.960550
Zn151	Zn15	0.203080	0.625270	0.208210
N491	N49	0.250300	0.558800	0.053500
N501	N50	0.285800	0.607500	0.006720
N511	N51	0.245700	0.521900	0.127010
N521	N52	0.245200	0.570100	0.174050
N531	N53	0.320600	0.433700	0.071700
N541	N54	0.513200	0.387100	0.055400
N551	N55	0.182300	0.572400	0.936300
N561	N56	0.989200	0.526600	0.919300
N571	N57	0.326800	0.605500	0.243200
N581	N58	0.517100	0.609500	0.276400
N591	N59	0.243000	0.703200	0.951700
N601	N60	0.225600	0.703500	0.191500
C691	C69	0.240900	0.557900	0.020500
H691	H69	0.207500	0.526900	0.008900
C701	C70	0.328200	0.641900	0.032100
H701	H70	0.363200	0.678700	0.030400
C711	C71	0.309400	0.611700	0.060800
H711	H71	0.332300	0.624600	0.081300
C721	C72	0.187500	0.566700	0.144000
H721	H72	0.119100	0.591000	0.136100
C731	C73	0.343900	0.526800	0.176500
H731	H73	0.402500	0.520200	0.193900
C741	C74	0.338500	0.495100	0.148000
H741	H74	0.388200	0.461900	0.143800
C751	C75	0.447200	0.438700	0.056700
H751	H75	0.483100	0.472600	0.048600
C761	C76	0.430800	0.347700	0.071900
H761	H76	0.451900	0.309600	0.075900
C771	C77	0.310800	0.376600	0.081500
H771	H77	0.236400	0.360600	0.092600
C781	C78	0.045200	0.561900	0.942300
H781	H78	0.996100	0.576700	0.959700
C791	C79	0.091300	0.518700	0.896200
H791	H79	0.081500	0.498900	0.876900
C801	C80	0.211900	0.546200	0.907100
H801	H80	0.297200	0.546700	0.896600
C811	C81	0.461600	0.636600	0.250300
H811	H81	0.498500	0.667600	0.239300
C821	C82	0.430200	0.564700	0.285500
H821	H82	0.447600	0.539500	0.302300
C831	C83	0.314400	0.563200	0.265900
H831	H83	0.240600	0.537900	0.267700
C841	C84	0.146700	0.721100	0.930300
H841	H84	0.090200	0.697700	0.917800
C851	C85	0.267300	0.721100	0.161300
H851	H85	0.291000	0.697600	0.144100
Zn161	Zn16	0.296590	0.501880	0.582860
Zn171	Zn17	0.200940	0.375720	0.460550
Zn181	Zn18	0.296920	0.374730	0.708210
N611	N61	0.249700	0.441200	0.553500
N621	N62	0.214200	0.392500	0.506720
N631	N63	0.254300	0.478100	0.627010
N641	N64	0.254800	0.429900	0.674050
N651	N65	0.179400	0.566300	0.571700
N661	N66	0.986800	0.612900	0.555400
N671	N67	0.317700	0.427600	0.436300
N681	N68	0.510800	0.473400	0.419300
N691	N69	0.173200	0.394500	0.743200
N701	N70	0.982900	0.390500	0.776400
N711	N71	0.257000	0.296800	0.451700
N721	N72	0.274400	0.296500	0.691500
C861	C86	0.259100	0.442100	0.520500
H861	H86	0.292500	0.473100	0.508900
C871	C87	0.171800	0.358100	0.532100
H871	H87	0.136800	0.321300	0.530400
C881	C88	0.190600	0.388300	0.560800
H881	H88	0.167700	0.375400	0.581300
C891	C89	0.312500	0.433300	0.644000
H891	H89	0.380900	0.409000	0.636100
C901	C90	0.156100	0.473200	0.676500
H901	H90	0.097500	0.479800	0.693900
C911	C91	0.161500	0.504900	0.648000
H911	H91	0.111800	0.538100	0.643800
C921	C92	0.052800	0.561300	0.556700
H921	H92	0.016900	0.527400	0.548600
C931	C93	0.069200	0.652300	0.571900
H931	H93	0.048100	0.690400	0.575900
C941	C94	0.189200	0.623400	0.581500
H941	H94	0.263600	0.639400	0.592600
C951	C95	0.454800	0.438100	0.442300
H951	H95	0.503900	0.423300	0.459700
C961	C96	0.408700	0.481300	0.396200
H961	H96	0.418500	0.501100	0.376900
C971	C97	0.288100	0.453800	0.407100
H971	H97	0.202800	0.453300	0.396600
C981	C98	0.038400	0.363400	0.750300
H981	H98	0.001500	0.332400	0.739300
C991	C99	0.069800	0.435300	0.785500
H991	H99	0.052400	0.460500	0.802300
C1001	C100	0.185600	0.436800	0.765900
H1001	H100	0.259400	0.462100	0.767700
C1011	C101	0.353300	0.278900	0.430300
H1011	H101	0.409800	0.302300	0.417800
C1021	C102	0.232700	0.278900	0.661300
H1021	H102	0.209000	0.302400	0.644100
Zn191	Zn19	0.796590	0.998120	0.917140
Zn201	Zn20	0.700940	0.124280	0.039450
Zn211	Zn21	0.796920	0.125270	0.791790
N731	N73	0.749700	0.058800	0.946500
N741	N74	0.714200	0.107500	0.993280
N751	N75	0.754300	0.021900	0.872990
N761	N76	0.754800	0.070100	0.825950
N771	N77	0.679400	0.933700	0.928300
N781	N78	0.486800	0.887100	0.944600
N791	N79	0.817700	0.072400	0.063700
N801	N80	0.010800	0.026600	0.080700
N811	N81	0.673200	0.105500	0.756800
N821	N82	0.482900	0.109500	0.723600
N831	N83	0.757000	0.203200	0.048300
N841	N84	0.774400	0.203500	0.808500
C1031	C103	0.759100	0.057900	0.979500
H1031	H103	0.792500	0.026900	0.991100
C1041	C104	0.671800	0.141900	0.967900
H1041	H104	0.636800	0.178700	0.969600
C1051	C105	0.690600	0.111700	0.939200
H1051	H105	0.667700	0.124600	0.918700
C1061	C106	0.812500	0.066700	0.856000
H1061	H106	0.880900	0.091000	0.863900
C1071	C107	0.656100	0.026800	0.823500
H1071	H107	0.597500	0.020200	0.806100
C1081	C108	0.661500	0.995100	0.852000
H1081	H108	0.611800	0.961900	0.856200
C1091	C109	0.552800	0.938700	0.943300
H1091	H109	0.516900	0.972600	0.951400
C1101	C110	0.569200	0.847700	0.928100
H1101	H110	0.548100	0.809600	0.924100
C1111	C111	0.689200	0.876600	0.918500
H1111	H111	0.763600	0.860600	0.907400
C1121	C112	0.954800	0.061900	0.057700
H1121	H112	0.003900	0.076700	0.040300
C1131	C113	0.908700	0.018700	0.103800
H1131	H113	0.918500	0.998900	0.123100
C1141	C114	0.788100	0.046200	0.092900
H1141	H114	0.702800	0.046700	0.103400
C1151	C115	0.538400	0.136600	0.749700
H1151	H115	0.501500	0.167600	0.760700
C1161	C116	0.569800	0.064700	0.714500
H1161	H116	0.552400	0.039500	0.697700
C1171	C117	0.685600	0.063200	0.734100
H1171	H117	0.759400	0.037900	0.732300
C1181	C118	0.853300	0.221100	0.069700
H1181	H118	0.909800	0.197700	0.082200
C1191	C119	0.732700	0.221100	0.838700
H1191	H119	0.709000	0.197600	0.855900
Zn221	Zn22	0.703410	0.001880	0.417140
Zn231	Zn23	0.799060	0.875720	0.539450
Zn241	Zn24	0.703080	0.874730	0.291790
N851	N85	0.750300	0.941200	0.446500
N861	N86	0.785800	0.892500	0.493280
N871	N87	0.745700	0.978100	0.372990
N881	N88	0.745200	0.929900	0.325950
N891	N89	0.820600	0.066300	0.428300
N901	N90	0.013200	0.112900	0.444600
N911	N91	0.682300	0.927600	0.563700
N921	N92	0.489200	0.973400	0.580700
N931	N93	0.826800	0.894500	0.256800
N941	N94	0.017100	0.890500	0.223600
N951	N95	0.743000	0.796800	0.548300
N961	N96	0.725600	0.796500	0.308500
C1201	C120	0.740900	0.942100	0.479500
H1201	H120	0.707500	0.973100	0.491100
C1211	C121	0.828200	0.858100	0.467900
H1211	H121	0.863200	0.821300	0.469600
C1221	C122	0.809400	0.888300	0.439200
H1221	H122	0.832300	0.875400	0.418700
C1231	C123	0.687500	0.933300	0.356000
H1231	H123	0.619100	0.909000	0.363900
C1241	C124	0.843900	0.973200	0.323500
H1241	H124	0.902500	0.979800	0.306100
C1251	C125	0.838500	0.004900	0.352000
H1251	H125	0.888200	0.038100	0.356200
C1261	C126	0.947200	0.061300	0.443300
H1261	H126	0.983100	0.027400	0.451400
C1271	C127	0.930800	0.152300	0.428100
H1271	H127	0.951900	0.190400	0.424100
C1281	C128	0.810800	0.123400	0.418500
H1281	H128	0.736400	0.139400	0.407400
C1291	C129	0.545200	0.938100	0.557700
H1291	H129	0.496100	0.923300	0.540300
C1301	C130	0.591300	0.981300	0.603800
H1301	H130	0.581500	0.001100	0.623100
C1311	C131	0.711900	0.953800	0.592900
H1311	H131	0.797200	0.953300	0.603400
C1321	C132	0.961600	0.863400	0.249700
H1321	H132	0.998500	0.832400	0.260700
C1331	C133	0.930200	0.935300	0.214500
H1331	H133	0.947600	0.960500	0.197700
C1341	C134	0.814400	0.936800	0.234100
H1341	H134	0.740600	0.962100	0.232300
C1351	C135	0.646700	0.778900	0.569700
H1351	H135	0.590200	0.802300	0.582200
C1361	C136	0.767300	0.778900	0.338700
H1361	H136	0.791000	0.802400	0.355900
C1371	C137	0.703900	0.250000	0.036000
H1371	H137	0.635800	0.250000	0.020100
C1381	C138	0.799000	0.250000	0.789500
H1381	H138	0.826700	0.250000	0.768100
C1391	C139	0.796100	0.750000	0.536000
H1391	H139	0.864200	0.750000	0.520100
C1401	C140	0.701000	0.750000	0.289500
H1401	H140	0.673300	0.750000	0.268100
C1411	C141	0.296100	0.750000	0.964000
H1411	H141	0.364200	0.750000	0.979900
C1421	C142	0.201000	0.750000	0.210500
H1421	H142	0.173300	0.750000	0.231900
C1431	C143	0.203900	0.250000	0.464000
H1431	H143	0.135800	0.250000	0.479900
C1441	C144	0.299000	0.250000	0.710500
H1441	H144	0.326700	0.250000	0.731900
