data_PALTON_freeONLY_PM
_symmetry_space_group_name_H-M	'P1'
_cell_length_a	12.845400
_cell_length_b	24.995900
_cell_length_c	24.995900
_cell_angle_alpha	62.871700
_cell_angle_beta	80.136600
_cell_angle_gamma	99.863400
_symmetry_Int_Tables_number 1

loop_
_symmetry_equiv_pos_as_xyz
'x,y,z'

loop_
_atom_site_label
_atom_site_type_symbol
_atom_site_fract_x
_atom_site_fract_y
_atom_site_fract_z
Cu11	Cu1	0.546800	0.456880	0.000000
Cu21	Cu2	0.546800	0.000000	0.543120
Cu31	Cu3	0.089920	0.543120	0.456880
Cu41	Cu4	0.453200	0.543110	0.000000
Cu51	Cu5	0.910090	0.456890	0.543110
Cu61	Cu6	0.453200	0.000000	0.456880
H11	H1	0.423700	0.429000	0.864600
H21	H2	0.285900	0.563800	0.862600
H31	H3	0.647100	0.330200	0.781700
H41	H4	0.448900	0.305400	0.827100
H51	H5	0.815500	0.452200	0.703600
H61	H6	0.763400	0.507200	0.699800
H71	H7	0.755400	0.483100	0.650800
H81	H8	0.301300	0.366300	0.814200
H91	H9	0.329800	0.418500	0.741900
H101	H10	0.288300	0.864600	0.706400
H111	H11	0.148500	0.862600	0.573600
H121	H12	0.428800	0.781700	0.888100
H131	H13	0.276000	0.827100	0.867500
H141	H14	0.519100	0.703600	0.844200
H151	H15	0.463200	0.699800	0.793000
H161	H16	0.406200	0.650800	0.866100
H171	H17	0.115500	0.814200	0.819500
H181	H18	0.071700	0.741900	0.839600
H191	H19	0.994700	0.706400	0.429000
H201	H20	0.722100	0.573600	0.563800
H211	H21	0.316900	0.888100	0.330200
H221	H22	0.143500	0.867500	0.305400
H231	H23	0.363300	0.844200	0.452200
H241	H24	0.256200	0.793000	0.507200
H251	H25	0.272300	0.866100	0.483100
H261	H26	0.935000	0.819500	0.366300
H271	H27	0.911300	0.839600	0.418500
H281	H28	0.711700	0.706400	0.864600
H291	H29	0.851500	0.573600	0.862600
H301	H30	0.571200	0.888100	0.781700
H311	H31	0.724000	0.867500	0.827100
H321	H32	0.480900	0.844200	0.703600
H331	H33	0.536800	0.793000	0.699800
H341	H34	0.593800	0.866100	0.650800
H351	H35	0.884500	0.819500	0.814200
H361	H36	0.928300	0.839600	0.741900
H371	H37	0.005300	0.429000	0.706400
H381	H38	0.277900	0.563800	0.573600
H391	H39	0.683100	0.330200	0.888100
H401	H40	0.856500	0.305400	0.867500
H411	H41	0.636700	0.452200	0.844200
H421	H42	0.743800	0.507200	0.793000
H431	H43	0.727700	0.483100	0.866100
H441	H44	0.065000	0.366300	0.819500
H451	H45	0.088700	0.418500	0.839600
H461	H46	0.576300	0.864600	0.429000
H471	H47	0.714100	0.862600	0.563800
H481	H48	0.352900	0.781700	0.330200
H491	H49	0.551100	0.827100	0.305400
H501	H50	0.184500	0.703600	0.452200
H511	H51	0.236600	0.699800	0.507200
H521	H52	0.244600	0.650800	0.483100
H531	H53	0.698700	0.814200	0.366300
H541	H54	0.670200	0.741900	0.418500
H551	H55	0.576300	0.571000	0.135400
H561	H56	0.714100	0.436200	0.137400
H571	H57	0.352900	0.669800	0.218300
H581	H58	0.551100	0.694600	0.172900
H591	H59	0.184500	0.547800	0.296400
H601	H60	0.236600	0.492800	0.300200
H611	H61	0.244600	0.516900	0.349200
H621	H62	0.698700	0.633700	0.185800
H631	H63	0.670200	0.581500	0.258100
H641	H64	0.711700	0.135400	0.293600
H651	H65	0.851500	0.137400	0.426400
H661	H66	0.571200	0.218300	0.111900
H671	H67	0.724000	0.172900	0.132500
H681	H68	0.480900	0.296400	0.155800
H691	H69	0.536800	0.300200	0.207000
H701	H70	0.593800	0.349200	0.133900
H711	H71	0.884500	0.185800	0.180500
H721	H72	0.928300	0.258100	0.160400
H731	H73	0.005300	0.293600	0.571000
H741	H74	0.277900	0.426400	0.436200
H751	H75	0.683100	0.111900	0.669800
H761	H76	0.856500	0.132500	0.694600
H771	H77	0.636700	0.155800	0.547800
H781	H78	0.743800	0.207000	0.492800
H791	H79	0.727700	0.133900	0.516900
H801	H80	0.065000	0.180500	0.633700
H811	H81	0.088700	0.160400	0.581500
H821	H82	0.288300	0.293600	0.135400
H831	H83	0.148500	0.426400	0.137400
H841	H84	0.428800	0.111900	0.218300
H851	H85	0.276000	0.132500	0.172900
H861	H86	0.519100	0.155800	0.296400
H871	H87	0.463200	0.207000	0.300200
H881	H88	0.406200	0.133900	0.349200
H891	H89	0.115500	0.180500	0.185800
H901	H90	0.071700	0.160400	0.258100
H911	H91	0.994700	0.571000	0.293600
H921	H92	0.722100	0.436200	0.426400
H931	H93	0.316900	0.669800	0.111900
H941	H94	0.143500	0.694600	0.132500
H951	H95	0.363300	0.547800	0.155800
H961	H96	0.256200	0.492800	0.207000
H971	H97	0.272300	0.516900	0.133900
H981	H98	0.935000	0.633700	0.180500
H991	H99	0.911300	0.581500	0.160400
H1001	H100	0.423700	0.135400	0.571000
H1011	H101	0.285900	0.137400	0.436200
H1021	H102	0.647100	0.218300	0.669800
H1031	H103	0.448900	0.172900	0.694600
H1041	H104	0.815500	0.296400	0.547800
H1051	H105	0.763400	0.300200	0.492800
H1061	H106	0.755400	0.349200	0.516900
H1071	H107	0.301300	0.185800	0.633700
H1081	H108	0.329800	0.258100	0.581500
C11	C1	0.416580	0.499110	0.917970
C21	C2	0.366010	0.497050	0.868120
C31	C3	0.382260	0.457090	0.846610
C41	C4	0.340250	0.455950	0.799300
C51	C5	0.272800	0.496300	0.776200
C61	C6	0.250900	0.540100	0.798100
C71	C7	0.298600	0.537860	0.845360
C81	C8	0.606000	0.359800	0.773800
C91	C9	0.496600	0.345900	0.796800
C101	C10	0.754700	0.470400	0.694200
C111	C11	0.352800	0.407400	0.780600
C121	C12	0.559600	0.442900	0.733000
C131	C13	0.334550	0.917970	0.582920
C141	C14	0.234130	0.868120	0.634830
C151	C15	0.228870	0.846610	0.696300
C161	C16	0.139550	0.799300	0.744750
C171	C17	0.049000	0.776200	0.727500
C181	C18	0.049000	0.798100	0.661800
C191	C19	0.143960	0.845360	0.616780
C201	C20	0.379800	0.773800	0.866400
C211	C21	0.293400	0.796800	0.857300
C221	C22	0.448900	0.694200	0.835400
C231	C23	0.133400	0.780600	0.812000
C241	C24	0.292600	0.733000	0.824100
C251	C25	0.917470	0.582920	0.499110
C261	C26	0.868960	0.634830	0.497050
C271	C27	0.925170	0.696300	0.457090
C281	C28	0.884300	0.744750	0.455950
C291	C29	0.776500	0.727500	0.496300
C301	C30	0.710800	0.661800	0.540100
C311	C31	0.760740	0.616780	0.537860
C321	C32	0.246200	0.866400	0.359800
C331	C33	0.150700	0.857300	0.345900
C341	C34	0.284300	0.835400	0.470400
C351	C35	0.945400	0.812000	0.407400
C361	C36	0.116700	0.824100	0.442900
C371	C37	0.665450	0.582920	0.917970
C381	C38	0.765870	0.634830	0.868120
C391	C39	0.771130	0.696300	0.846610
C401	C40	0.860450	0.744750	0.799300
C411	C41	0.951000	0.727500	0.776200
C421	C42	0.951000	0.661800	0.798100
C431	C43	0.856040	0.616780	0.845360
C441	C44	0.620200	0.866400	0.773800
C451	C45	0.706600	0.857300	0.796800
C461	C46	0.551100	0.835400	0.694200
C471	C47	0.866600	0.812000	0.780600
C481	C48	0.707400	0.824100	0.733000
C491	C49	0.082530	0.499110	0.582920
C501	C50	0.131040	0.497050	0.634830
C511	C51	0.074830	0.457090	0.696300
C521	C52	0.115700	0.455950	0.744750
C531	C53	0.223500	0.496300	0.727500
C541	C54	0.289200	0.540100	0.661800
C551	C55	0.239260	0.537860	0.616780
C561	C56	0.753800	0.359800	0.866400
C571	C57	0.849300	0.345900	0.857300
C581	C58	0.715700	0.470400	0.835400
C591	C59	0.054600	0.407400	0.812000
C601	C60	0.883300	0.442900	0.824100
C611	C61	0.583420	0.917970	0.499110
C621	C62	0.633990	0.868120	0.497050
C631	C63	0.617740	0.846610	0.457090
C641	C64	0.659750	0.799300	0.455950
C651	C65	0.727200	0.776200	0.496300
C661	C66	0.749100	0.798100	0.540100
C671	C67	0.701400	0.845360	0.537860
C681	C68	0.394000	0.773800	0.359800
C691	C69	0.503400	0.796800	0.345900
C701	C70	0.245300	0.694200	0.470400
C711	C71	0.647200	0.780600	0.407400
C721	C72	0.440400	0.733000	0.442900
C731	C73	0.583420	0.500890	0.082030
C741	C74	0.633990	0.502950	0.131880
C751	C75	0.617740	0.542910	0.153390
C761	C76	0.659750	0.544050	0.200700
C771	C77	0.727200	0.503700	0.223800
C781	C78	0.749100	0.459900	0.201900
C791	C79	0.701400	0.462140	0.154640
C801	C80	0.394000	0.640200	0.226200
C811	C81	0.503400	0.654100	0.203200
C821	C82	0.245300	0.529600	0.305800
C831	C83	0.647200	0.592600	0.219400
C841	C84	0.440400	0.557100	0.267000
C851	C85	0.665450	0.082030	0.417080
C861	C86	0.765870	0.131880	0.365170
C871	C87	0.771130	0.153390	0.303700
C881	C88	0.860450	0.200700	0.255250
C891	C89	0.951000	0.223800	0.272500
C901	C90	0.951000	0.201900	0.338200
C911	C91	0.856040	0.154640	0.383220
C921	C92	0.620200	0.226200	0.133600
C931	C93	0.706600	0.203200	0.142700
C941	C94	0.551100	0.305800	0.164600
C951	C95	0.866600	0.219400	0.188000
C961	C96	0.707400	0.267000	0.175900
C971	C97	0.082530	0.417080	0.500890
C981	C98	0.131040	0.365170	0.502950
C991	C99	0.074830	0.303700	0.542910
C1001	C100	0.115700	0.255250	0.544050
C1011	C101	0.223500	0.272500	0.503700
C1021	C102	0.289200	0.338200	0.459900
C1031	C103	0.239260	0.383220	0.462140
C1041	C104	0.753800	0.133600	0.640200
C1051	C105	0.849300	0.142700	0.654100
C1061	C106	0.715700	0.164600	0.529600
C1071	C107	0.054600	0.188000	0.592600
C1081	C108	0.883300	0.175900	0.557100
C1091	C109	0.334550	0.417080	0.082030
C1101	C110	0.234130	0.365170	0.131880
C1111	C111	0.228870	0.303700	0.153390
C1121	C112	0.139550	0.255250	0.200700
C1131	C113	0.049000	0.272500	0.223800
C1141	C114	0.049000	0.338200	0.201900
C1151	C115	0.143960	0.383220	0.154640
C1161	C116	0.379800	0.133600	0.226200
C1171	C117	0.293400	0.142700	0.203200
C1181	C118	0.448900	0.164600	0.305800
C1191	C119	0.133400	0.188000	0.219400
C1201	C120	0.292600	0.175900	0.267000
C1211	C121	0.917470	0.500890	0.417080
C1221	C122	0.868960	0.502950	0.365170
C1231	C123	0.925170	0.542910	0.303700
C1241	C124	0.884300	0.544050	0.255250
C1251	C125	0.776500	0.503700	0.272500
C1261	C126	0.710800	0.459900	0.338200
C1271	C127	0.760740	0.462140	0.383220
C1281	C128	0.246200	0.640200	0.133600
C1291	C129	0.150700	0.654100	0.142700
C1301	C130	0.284300	0.529600	0.164600
C1311	C131	0.945400	0.592600	0.188000
C1321	C132	0.116700	0.557100	0.175900
C1331	C133	0.416580	0.082030	0.500890
C1341	C134	0.366010	0.131880	0.502950
C1351	C135	0.382260	0.153390	0.542910
C1361	C136	0.340250	0.200700	0.544050
C1371	C137	0.272800	0.223800	0.503700
C1381	C138	0.250900	0.201900	0.459900
C1391	C139	0.298600	0.154640	0.462140
C1401	C140	0.606000	0.226200	0.640200
C1411	C141	0.496600	0.203200	0.654100
C1421	C142	0.754700	0.305800	0.529600
C1431	C143	0.352800	0.219400	0.592600
C1441	C144	0.559600	0.267000	0.557100
N11	N1	0.464400	0.399500	0.769700
N21	N2	0.649400	0.423700	0.736900
N31	N3	0.234100	0.769700	0.830800
N41	N4	0.386300	0.736900	0.839400
N51	N5	0.064900	0.830800	0.399500
N61	N6	0.225700	0.839400	0.423700
N71	N7	0.765900	0.830800	0.769700
N81	N8	0.613700	0.839400	0.736900
N91	N9	0.935100	0.399500	0.830800
N101	N10	0.774300	0.423700	0.839400
N111	N11	0.535600	0.769700	0.399500
N121	N12	0.350600	0.736900	0.423700
N131	N13	0.535600	0.600500	0.230300
N141	N14	0.350600	0.576300	0.263100
N151	N15	0.765900	0.230300	0.169200
N161	N16	0.613700	0.263100	0.160600
N171	N17	0.935100	0.169200	0.600500
N181	N18	0.774300	0.160600	0.576300
N191	N19	0.234100	0.169200	0.230300
N201	N20	0.386300	0.160600	0.263100
N211	N21	0.064900	0.600500	0.169200
N221	N22	0.225700	0.576300	0.160600
N231	N23	0.464400	0.230300	0.600500
N241	N24	0.649400	0.263100	0.576300
O11	O1	0.475350	0.461450	0.936500
O21	O2	0.394300	0.536060	0.936260
O31	O3	0.411850	0.936500	0.602050
O41	O4	0.330560	0.936260	0.527680
O51	O5	0.013900	0.602050	0.461450
O61	O6	0.858240	0.527680	0.536060
O71	O7	0.588150	0.602050	0.936500
O81	O8	0.669440	0.527680	0.936260
O91	O9	0.986100	0.461450	0.602050
O101	O10	0.141760	0.536060	0.527680
O111	O11	0.524650	0.936500	0.461450
O121	O12	0.605700	0.936260	0.536060
O131	O13	0.524650	0.538550	0.063500
O141	O14	0.605700	0.463940	0.063740
O151	O15	0.588150	0.063500	0.397950
O161	O16	0.669440	0.063740	0.472320
O171	O17	0.986100	0.397950	0.538550
O181	O18	0.141760	0.472320	0.463940
O191	O19	0.411850	0.397950	0.063500
O201	O20	0.330560	0.472320	0.063740
O211	O21	0.013900	0.538550	0.397950
O221	O22	0.858240	0.463940	0.472320
O231	O23	0.475350	0.063500	0.538550
O241	O24	0.394300	0.063740	0.463940
O251	O25	0.620500	0.384990	0.000000
O261	O26	0.620500	0.000000	0.615010
O271	O27	0.235510	0.615010	0.384990
O281	O28	0.379510	0.615020	0.000000
O291	O29	0.764490	0.384980	0.615020
O301	O30	0.379500	0.000000	0.384990
