data_PAMTII_freeONLY_PM
_symmetry_space_group_name_H-M	'P1'
_cell_length_a	18.822600
_cell_length_b	18.822600
_cell_length_c	18.822600
_cell_angle_alpha	62.898100
_cell_angle_beta	62.898100
_cell_angle_gamma	62.898100
_symmetry_Int_Tables_number 1

loop_
_symmetry_equiv_pos_as_xyz
'x,y,z'

loop_
_atom_site_label
_atom_site_type_symbol
_atom_site_fract_x
_atom_site_fract_y
_atom_site_fract_z
Er11	Er1	0.995560	0.559320	0.566280
Er21	Er2	0.566280	0.995560	0.559320
Er31	Er3	0.559320	0.566280	0.995560
Er41	Er4	0.004440	0.440680	0.433720
Er51	Er5	0.433720	0.004440	0.440680
Er61	Er6	0.440680	0.433720	0.004440
H11	H1	0.225000	0.518100	0.235900
H21	H2	0.389900	0.637300	0.155200
H31	H3	0.194300	0.655300	0.365800
H41	H4	0.439900	0.667000	0.228200
H51	H5	0.396400	0.750300	0.167700
H61	H6	0.394100	0.879300	0.165800
H71	H7	0.404800	0.954700	0.226100
H81	H8	0.439000	0.753000	0.421200
H91	H9	0.433800	0.675600	0.358300
H101	H10	0.235900	0.225000	0.518100
H111	H11	0.155200	0.389900	0.637300
H121	H12	0.365800	0.194300	0.655300
H131	H13	0.228200	0.439900	0.667000
H141	H14	0.167700	0.396400	0.750300
H151	H15	0.165800	0.394100	0.879300
H161	H16	0.226100	0.404800	0.954700
H171	H17	0.421200	0.439000	0.753000
H181	H18	0.358300	0.433800	0.675600
H191	H19	0.518100	0.235900	0.225000
H201	H20	0.637300	0.155200	0.389900
H211	H21	0.655300	0.365800	0.194300
H221	H22	0.667000	0.228200	0.439900
H231	H23	0.750300	0.167700	0.396400
H241	H24	0.879300	0.165800	0.394100
H251	H25	0.954700	0.226100	0.404800
H261	H26	0.753000	0.421200	0.439000
H271	H27	0.675600	0.358300	0.433800
H281	H28	0.775000	0.481900	0.764100
H291	H29	0.610100	0.362700	0.844800
H301	H30	0.805700	0.344700	0.634200
H311	H31	0.560100	0.333000	0.771800
H321	H32	0.603600	0.249700	0.832300
H331	H33	0.605900	0.120700	0.834200
H341	H34	0.595200	0.045300	0.773900
H351	H35	0.561000	0.247000	0.578800
H361	H36	0.566200	0.324400	0.641700
H371	H37	0.764100	0.775000	0.481900
H381	H38	0.844800	0.610100	0.362700
H391	H39	0.634200	0.805700	0.344700
H401	H40	0.771800	0.560100	0.333000
H411	H41	0.832300	0.603600	0.249700
H421	H42	0.834200	0.605900	0.120700
H431	H43	0.773900	0.595200	0.045300
H441	H44	0.578800	0.561000	0.247000
H451	H45	0.641700	0.566200	0.324400
H461	H46	0.481900	0.764100	0.775000
H471	H47	0.362700	0.844800	0.610100
H481	H48	0.344700	0.634200	0.805700
H491	H49	0.333000	0.771800	0.560100
H501	H50	0.249700	0.832300	0.603600
H511	H51	0.120700	0.834200	0.605900
H521	H52	0.045300	0.773900	0.595200
H531	H53	0.247000	0.578800	0.561000
H541	H54	0.324400	0.641700	0.566200
C11	C1	0.119560	0.560960	0.375160
C21	C2	0.196520	0.585420	0.310220
C31	C3	0.243020	0.552420	0.242720
C41	C4	0.315640	0.571440	0.186840
C51	C5	0.341790	0.623390	0.194390
C61	C6	0.295410	0.655510	0.262110
C71	C7	0.223840	0.635040	0.320040
C81	C8	0.395300	0.720400	0.225700
C91	C9	0.406700	0.770700	0.259400
C101	C10	0.402200	0.853200	0.218300
C111	C11	0.409400	0.898100	0.254400
C121	C12	0.422820	0.862720	0.328620
C131	C13	0.428210	0.911610	0.368810
C141	C14	0.430300	0.779000	0.369100
C151	C15	0.424800	0.733100	0.332300
C161	C16	0.363510	0.535010	0.117410
C171	C17	0.375160	0.119560	0.560960
C181	C18	0.310220	0.196520	0.585420
C191	C19	0.242720	0.243020	0.552420
C201	C20	0.186840	0.315640	0.571440
C211	C21	0.194390	0.341790	0.623390
C221	C22	0.262110	0.295410	0.655510
C231	C23	0.320040	0.223840	0.635040
C241	C24	0.225700	0.395300	0.720400
C251	C25	0.259400	0.406700	0.770700
C261	C26	0.218300	0.402200	0.853200
C271	C27	0.254400	0.409400	0.898100
C281	C28	0.328620	0.422820	0.862720
C291	C29	0.368810	0.428210	0.911610
C301	C30	0.369100	0.430300	0.779000
C311	C31	0.332300	0.424800	0.733100
C321	C32	0.117410	0.363510	0.535010
C331	C33	0.560960	0.375160	0.119560
C341	C34	0.585420	0.310220	0.196520
C351	C35	0.552420	0.242720	0.243020
C361	C36	0.571440	0.186840	0.315640
C371	C37	0.623390	0.194390	0.341790
C381	C38	0.655510	0.262110	0.295410
C391	C39	0.635040	0.320040	0.223840
C401	C40	0.720400	0.225700	0.395300
C411	C41	0.770700	0.259400	0.406700
C421	C42	0.853200	0.218300	0.402200
C431	C43	0.898100	0.254400	0.409400
C441	C44	0.862720	0.328620	0.422820
C451	C45	0.911610	0.368810	0.428210
C461	C46	0.779000	0.369100	0.430300
C471	C47	0.733100	0.332300	0.424800
C481	C48	0.535010	0.117410	0.363510
C491	C49	0.880440	0.439040	0.624840
C501	C50	0.803480	0.414580	0.689780
C511	C51	0.756980	0.447580	0.757280
C521	C52	0.684360	0.428560	0.813160
C531	C53	0.658210	0.376610	0.805610
C541	C54	0.704590	0.344490	0.737890
C551	C55	0.776160	0.364960	0.679960
C561	C56	0.604700	0.279600	0.774300
C571	C57	0.593300	0.229300	0.740600
C581	C58	0.597800	0.146800	0.781700
C591	C59	0.590600	0.101900	0.745600
C601	C60	0.577180	0.137280	0.671380
C611	C61	0.571790	0.088390	0.631190
C621	C62	0.569700	0.221000	0.630900
C631	C63	0.575200	0.266900	0.667700
C641	C64	0.636490	0.464990	0.882590
C651	C65	0.624840	0.880440	0.439040
C661	C66	0.689780	0.803480	0.414580
C671	C67	0.757280	0.756980	0.447580
C681	C68	0.813160	0.684360	0.428560
C691	C69	0.805610	0.658210	0.376610
C701	C70	0.737890	0.704590	0.344490
C711	C71	0.679960	0.776160	0.364960
C721	C72	0.774300	0.604700	0.279600
C731	C73	0.740600	0.593300	0.229300
C741	C74	0.781700	0.597800	0.146800
C751	C75	0.745600	0.590600	0.101900
C761	C76	0.671380	0.577180	0.137280
C771	C77	0.631190	0.571790	0.088390
C781	C78	0.630900	0.569700	0.221000
C791	C79	0.667700	0.575200	0.266900
C801	C80	0.882590	0.636490	0.464990
C811	C81	0.439040	0.624840	0.880440
C821	C82	0.414580	0.689780	0.803480
C831	C83	0.447580	0.757280	0.756980
C841	C84	0.428560	0.813160	0.684360
C851	C85	0.376610	0.805610	0.658210
C861	C86	0.344490	0.737890	0.704590
C871	C87	0.364960	0.679960	0.776160
C881	C88	0.279600	0.774300	0.604700
C891	C89	0.229300	0.740600	0.593300
C901	C90	0.146800	0.781700	0.597800
C911	C91	0.101900	0.745600	0.590600
C921	C92	0.137280	0.671380	0.577180
C931	C93	0.088390	0.631190	0.571790
C941	C94	0.221000	0.630900	0.569700
C951	C95	0.266900	0.667700	0.575200
C961	C96	0.464990	0.882590	0.636490
O11	O1	0.078710	0.595210	0.430210
O21	O2	0.104720	0.506020	0.368320
O31	O3	0.886300	0.625100	0.671000
O41	O4	0.437920	0.982620	0.325020
O51	O5	0.004200	0.472000	0.707100
O61	O6	0.421280	0.882780	0.444680
O71	O7	0.336390	0.491990	0.107090
O81	O8	0.433220	0.547220	0.070020
O91	O9	0.316350	0.707150	0.276050
O101	O10	0.430210	0.078710	0.595210
O111	O11	0.368320	0.104720	0.506020
O121	O12	0.671000	0.886300	0.625100
O131	O13	0.325020	0.437920	0.982620
O141	O14	0.707100	0.004200	0.472000
O151	O15	0.444680	0.421280	0.882780
O161	O16	0.107090	0.336390	0.491990
O171	O17	0.070020	0.433220	0.547220
O181	O18	0.276050	0.316350	0.707150
O191	O19	0.595210	0.430210	0.078710
O201	O20	0.506020	0.368320	0.104720
O211	O21	0.625100	0.671000	0.886300
O221	O22	0.982620	0.325020	0.437920
O231	O23	0.472000	0.707100	0.004200
O241	O24	0.882780	0.444680	0.421280
O251	O25	0.491990	0.107090	0.336390
O261	O26	0.547220	0.070020	0.433220
O271	O27	0.707150	0.276050	0.316350
O281	O28	0.921290	0.404790	0.569790
O291	O29	0.895280	0.493980	0.631680
O301	O30	0.113700	0.374900	0.329000
O311	O31	0.562080	0.017380	0.674980
O321	O32	0.995800	0.528000	0.292900
O331	O33	0.578720	0.117220	0.555320
O341	O34	0.663610	0.508010	0.892910
O351	O35	0.566780	0.452780	0.929980
O361	O36	0.683650	0.292850	0.723950
O371	O37	0.569790	0.921290	0.404790
O381	O38	0.631680	0.895280	0.493980
O391	O39	0.329000	0.113700	0.374900
O401	O40	0.674980	0.562080	0.017380
O411	O41	0.292900	0.995800	0.528000
O421	O42	0.555320	0.578720	0.117220
O431	O43	0.892910	0.663610	0.508010
O441	O44	0.929980	0.566780	0.452780
O451	O45	0.723950	0.683650	0.292850
O461	O46	0.404790	0.569790	0.921290
O471	O47	0.493980	0.631680	0.895280
O481	O48	0.374900	0.329000	0.113700
O491	O49	0.017380	0.674980	0.562080
O501	O50	0.528000	0.292900	0.995800
O511	O51	0.117220	0.555320	0.578720
O521	O52	0.508010	0.892910	0.663610
O531	O53	0.452780	0.929980	0.566780
O541	O54	0.292850	0.723950	0.683650
