data_PAMVEG_freeONLY_PM
_symmetry_space_group_name_H-M	'P1'
_cell_length_a	6.556800
_cell_length_b	15.078000
_cell_length_c	20.543000
_cell_angle_alpha	90.000000
_cell_angle_beta	90.000000
_cell_angle_gamma	90.000000
_symmetry_Int_Tables_number 1

loop_
_symmetry_equiv_pos_as_xyz
'x,y,z'

loop_
_atom_site_label
_atom_site_type_symbol
_atom_site_fract_x
_atom_site_fract_y
_atom_site_fract_z
Zn11	Zn1	0.851320	0.486380	0.812170
Zn21	Zn2	0.648680	0.513620	0.312170
Zn31	Zn3	0.148680	0.986380	0.687830
Zn41	Zn4	0.351320	0.013620	0.187830
H11	H1	0.201700	0.403200	0.723500
H21	H2	0.879400	0.281400	0.857600
H31	H3	0.131800	0.172700	0.817700
H41	H4	0.371100	0.266600	0.671900
H51	H5	0.328000	0.173900	0.702000
H61	H6	0.608800	0.300200	0.753000
H71	H7	0.554700	0.212900	0.789400
H81	H8	0.804000	0.087900	0.769600
H91	H9	0.769600	0.266100	0.617100
H101	H10	0.049900	0.159700	0.600100
H111	H11	0.041400	0.463600	0.143900
H121	H12	0.926900	0.542300	0.106800
H131	H13	0.828700	0.359800	0.093900
H141	H14	0.707300	0.437800	0.058100
H151	H15	0.018800	0.476100	0.002000
H161	H16	0.927800	0.381800	0.981700
H171	H17	0.263900	0.407000	0.068200
H181	H18	0.168600	0.311800	0.052000
H191	H19	0.269300	0.328300	0.940700
H201	H20	0.462200	0.330100	0.988400
H211	H21	0.278400	0.480900	0.928600
H221	H22	0.447700	0.490300	0.984100
H231	H23	0.298300	0.596800	0.223500
H241	H24	0.620600	0.718600	0.357600
H251	H25	0.368200	0.827300	0.317700
H261	H26	0.128900	0.733400	0.171900
H271	H27	0.172000	0.826100	0.202000
H281	H28	0.891200	0.699800	0.253000
H291	H29	0.945300	0.787100	0.289400
H301	H30	0.696000	0.912100	0.269600
H311	H31	0.730400	0.733900	0.117100
H321	H32	0.450100	0.840300	0.100100
H331	H33	0.458600	0.536400	0.643900
H341	H34	0.573100	0.457700	0.606800
H351	H35	0.671300	0.640200	0.593900
H361	H36	0.792700	0.562200	0.558100
H371	H37	0.481200	0.523900	0.502000
H381	H38	0.572200	0.618200	0.481700
H391	H39	0.236100	0.593000	0.568200
H401	H40	0.331400	0.688200	0.552000
H411	H41	0.230700	0.671700	0.440700
H421	H42	0.037800	0.669900	0.488400
H431	H43	0.221600	0.519100	0.428600
H441	H44	0.052300	0.509700	0.484100
H451	H45	0.798300	0.903200	0.776500
H461	H46	0.120600	0.781400	0.642400
H471	H47	0.868200	0.672700	0.682300
H481	H48	0.628900	0.766600	0.828100
H491	H49	0.672000	0.673900	0.798000
H501	H50	0.391200	0.800200	0.747000
H511	H51	0.445300	0.712900	0.710600
H521	H52	0.196000	0.587900	0.730400
H531	H53	0.230400	0.766100	0.882900
H541	H54	0.950100	0.659700	0.899900
H551	H55	0.958600	0.963600	0.356100
H561	H56	0.073100	0.042300	0.393200
H571	H57	0.171300	0.859800	0.406100
H581	H58	0.292700	0.937800	0.441900
H591	H59	0.981200	0.976100	0.498000
H601	H60	0.072200	0.881800	0.518300
H611	H61	0.736100	0.907000	0.431800
H621	H62	0.831400	0.811800	0.448000
H631	H63	0.730700	0.828300	0.559300
H641	H64	0.537800	0.830100	0.511600
H651	H65	0.721600	0.980900	0.571400
H661	H66	0.552300	0.990300	0.515900
H671	H67	0.701700	0.096800	0.276500
H681	H68	0.379400	0.218600	0.142400
H691	H69	0.631800	0.327300	0.182300
H701	H70	0.871100	0.233400	0.328100
H711	H71	0.828000	0.326100	0.298000
H721	H72	0.108800	0.199800	0.247000
H731	H73	0.054700	0.287100	0.210600
H741	H74	0.304000	0.412100	0.230400
H751	H75	0.269600	0.233900	0.382900
H761	H76	0.549900	0.340300	0.399900
H771	H77	0.541400	0.036400	0.856100
H781	H78	0.426900	0.957700	0.893200
H791	H79	0.328700	0.140200	0.906100
H801	H80	0.207300	0.062200	0.941900
H811	H81	0.518800	0.023900	0.998000
H821	H82	0.427800	0.118200	0.018300
H831	H83	0.763900	0.093000	0.931800
H841	H84	0.668600	0.188200	0.948000
H851	H85	0.769300	0.171700	0.059300
H861	H86	0.962200	0.169900	0.011600
H871	H87	0.778400	0.019100	0.071400
H881	H88	0.947700	0.009700	0.015900
C11	C1	0.151900	0.359900	0.753900
C21	C2	0.985500	0.295000	0.827680
C31	C3	0.119100	0.236300	0.804460
C41	C4	0.362100	0.234300	0.712000
C51	C5	0.567300	0.239700	0.747200
C61	C6	0.819400	0.116400	0.728100
C71	C7	0.795200	0.210300	0.641990
C81	C8	0.949800	0.154300	0.633260
C91	C9	0.759500	0.492110	0.183520
C101	C10	0.907600	0.483100	0.126680
C111	C11	0.842800	0.419700	0.074680
C121	C12	0.992400	0.415100	0.017730
C131	C13	0.194900	0.371700	0.034030
C141	C14	0.338300	0.363000	0.975130
C151	C15	0.400000	0.452300	0.947900
C161	C16	0.565500	0.447700	0.896970
C171	C17	0.348100	0.640100	0.253900
C181	C18	0.514500	0.705000	0.327680
C191	C19	0.380900	0.763700	0.304460
C201	C20	0.137900	0.765700	0.212000
C211	C21	0.932700	0.760300	0.247200
C221	C22	0.680600	0.883600	0.228100
C231	C23	0.704800	0.789700	0.141990
C241	C24	0.550200	0.845700	0.133260
C251	C25	0.740500	0.507890	0.683520
C261	C26	0.592400	0.516900	0.626680
C271	C27	0.657200	0.580300	0.574680
C281	C28	0.507600	0.584900	0.517730
C291	C29	0.305100	0.628300	0.534030
C301	C30	0.161700	0.637000	0.475130
C311	C31	0.100000	0.547700	0.447900
C321	C32	0.934500	0.552300	0.396970
C331	C33	0.848100	0.859900	0.746100
C341	C34	0.014500	0.795000	0.672320
C351	C35	0.880900	0.736300	0.695540
C361	C36	0.637900	0.734300	0.788000
C371	C37	0.432700	0.739700	0.752800
C381	C38	0.180600	0.616400	0.771900
C391	C39	0.204800	0.710300	0.858010
C401	C40	0.050200	0.654300	0.866740
C411	C41	0.240500	0.992110	0.316480
C421	C42	0.092400	0.983100	0.373320
C431	C43	0.157200	0.919700	0.425320
C441	C44	0.007600	0.915100	0.482270
C451	C45	0.805100	0.871700	0.465970
C461	C46	0.661700	0.863000	0.524870
C471	C47	0.600000	0.952300	0.552100
C481	C48	0.434500	0.947700	0.603030
C491	C49	0.651900	0.140100	0.246100
C501	C50	0.485500	0.205000	0.172320
C511	C51	0.619100	0.263700	0.195540
C521	C52	0.862100	0.265700	0.288000
C531	C53	0.067300	0.260300	0.252800
C541	C54	0.319400	0.383600	0.271900
C551	C55	0.295200	0.289700	0.358010
C561	C56	0.449800	0.345700	0.366740
C571	C57	0.259500	0.007890	0.816480
C581	C58	0.407600	0.016900	0.873320
C591	C59	0.342800	0.080300	0.925320
C601	C60	0.492400	0.084900	0.982270
C611	C61	0.694900	0.128300	0.965970
C621	C62	0.838300	0.137000	0.024870
C631	C63	0.900000	0.047700	0.052100
C641	C64	0.065500	0.052300	0.103030
N11	N1	0.022000	0.376860	0.802720
N21	N2	0.203800	0.273600	0.753600
N31	N3	0.722800	0.190000	0.708900
N41	N4	0.945000	0.087830	0.678600
N51	N5	0.478000	0.623140	0.302720
N61	N6	0.296200	0.726400	0.253600
N71	N7	0.777200	0.810000	0.208900
N81	N8	0.555000	0.912170	0.178600
N91	N9	0.978000	0.876860	0.697280
N101	N10	0.796200	0.773600	0.746400
N111	N11	0.277200	0.690000	0.791100
N121	N12	0.055000	0.587830	0.821400
N131	N13	0.522000	0.123140	0.197280
N141	N14	0.703800	0.226400	0.246400
N151	N15	0.222800	0.310000	0.291100
N161	N16	0.445000	0.412170	0.321400
O11	O1	0.839600	0.495210	0.239450
O21	O2	0.573600	0.493720	0.174600
O31	O3	0.677300	0.516330	0.889710
O41	O4	0.590600	0.382050	0.863420
O51	O5	0.660400	0.504790	0.739450
O61	O6	0.926400	0.506280	0.674600
O71	O7	0.822700	0.483670	0.389710
O81	O8	0.909400	0.617950	0.363420
O91	O9	0.160400	0.995210	0.260550
O101	O10	0.426400	0.993720	0.325400
O111	O11	0.322700	0.016330	0.610290
O121	O12	0.409400	0.882050	0.636580
O131	O13	0.339600	0.004790	0.760550
O141	O14	0.073600	0.006280	0.825400
O151	O15	0.177300	0.983670	0.110290
O161	O16	0.090600	0.117950	0.136580
