data_PANYEL_freeONLY_PM
_symmetry_space_group_name_H-M	'P1'
_cell_length_a	16.630400
_cell_length_b	12.423600
_cell_length_c	21.110300
_cell_angle_alpha	90.000000
_cell_angle_beta	92.099000
_cell_angle_gamma	90.000000
_symmetry_Int_Tables_number 1

loop_
_symmetry_equiv_pos_as_xyz
'x,y,z'

loop_
_atom_site_label
_atom_site_type_symbol
_atom_site_fract_x
_atom_site_fract_y
_atom_site_fract_z
Cu11	Cu1	0.146780	0.264850	0.451670
Cu21	Cu2	0.638680	0.781720	0.439070
S11	S1	0.910560	0.035130	0.448610
S21	S2	0.418210	0.526900	0.441840
O11	O1	0.552430	0.675100	0.423460
O21	O2	0.054810	0.164760	0.438870
O31	O3	0.201590	0.402000	0.436670
O41	O4	0.691820	0.921400	0.425290
O51	O5	0.799840	0.859400	0.480090
O61	O6	0.315580	0.348500	0.486810
O71	O7	0.005660	0.286400	0.369660
O81	O8	0.491430	0.781900	0.350540
N11	N1	0.936250	0.461800	0.195080
H11	H1	0.959400	0.404520	0.181870
N21	N2	0.079850	0.659700	0.013340
N31	N3	0.704100	0.715000	0.371150
N41	N4	0.204570	0.195700	0.380260
N51	N5	0.590330	0.171700	0.026490
N61	N6	0.903290	0.631900	0.202440
N71	N7	0.428390	0.958900	0.190920
H21	H2	0.449960	0.902760	0.174800
N81	N8	0.883470	0.465200	0.242850
N91	N9	0.374000	0.957300	0.237030
N101	N10	0.401050	0.128600	0.207480
C11	C1	0.765900	0.925600	0.444610
C21	C2	0.359460	0.061800	0.245110
C31	C3	0.302430	0.103900	0.290570
C41	C4	0.865610	0.569900	0.244910
C51	C5	0.995870	0.591500	0.118070
C61	C6	0.946770	0.561300	0.171600
C71	C7	0.276900	0.409500	0.451410
C81	C8	0.443850	0.060800	0.173950
C91	C9	0.808500	0.617000	0.288660
C101	C10	0.498200	0.095300	0.124420
C111	C11	0.270300	0.041100	0.338020
H31	H3	0.281060	0.967680	0.340340
C121	C12	0.923300	0.142400	0.398650
C131	C13	0.221700	0.090100	0.381960
H41	H4	0.200240	0.048160	0.413680
C141	C14	0.000200	0.203200	0.401660
C151	C15	0.715900	0.608500	0.372070
H51	H5	0.688300	0.567280	0.400940
C161	C16	0.419700	0.635600	0.391600
C171	C17	0.493500	0.703500	0.387030
C181	C18	0.767400	0.556900	0.332010
H61	H6	0.774300	0.482710	0.334230
C191	C19	0.044300	0.520600	0.085710
H71	H7	0.049310	0.449280	0.098600
C201	C20	0.793800	0.727800	0.285460
H81	H8	0.818840	0.770280	0.255720
C211	C21	0.319020	0.501300	0.421760
C221	C22	0.280400	0.211800	0.287090
H91	H9	0.298120	0.254970	0.254400
C231	C23	0.085000	0.557700	0.034020
H101	H10	0.117300	0.509810	0.012650
C241	C24	0.813780	0.016300	0.419700
C251	C25	0.741700	0.772800	0.327060
H111	H11	0.731990	0.846440	0.324660
C261	C26	0.232200	0.254100	0.332520
H121	H12	0.218270	0.326460	0.329880
C271	C27	0.855700	0.161600	0.361300
H131	H13	0.851730	0.216210	0.331200
C281	C28	0.583500	0.066500	0.037360
H141	H14	0.610140	0.018800	0.011450
C291	C29	0.346700	0.651500	0.361000
H151	H15	0.336090	0.707030	0.332340
C301	C30	0.538200	0.024900	0.085680
H161	H16	0.534870	0.950970	0.091910
C311	C31	0.792500	0.089000	0.373670
H171	H17	0.742330	0.090730	0.352810
C321	C32	0.991900	0.698000	0.097580
H181	H18	0.961070	0.747970	0.118780
C331	C33	0.034100	0.728600	0.045620
H191	H19	0.030790	0.799880	0.032240
C341	C34	0.289300	0.573900	0.378020
H201	H20	0.236800	0.572270	0.361280
C351	C35	0.554500	0.239900	0.066300
H211	H21	0.561150	0.313560	0.060500
C361	C36	0.508600	0.204800	0.115120
H221	H22	0.484610	0.254190	0.141650
Cu31	Cu3	0.353220	0.764850	0.048330
Cu41	Cu4	0.861320	0.281720	0.060930
S31	S3	0.589440	0.535130	0.051390
S41	S4	0.081790	0.026900	0.058160
O91	O9	0.947570	0.175100	0.076540
O101	O10	0.445190	0.664760	0.061130
O111	O11	0.298410	0.902000	0.063330
O121	O12	0.808180	0.421400	0.074710
O131	O13	0.700160	0.359400	0.019910
O141	O14	0.184420	0.848500	0.013190
O151	O15	0.494340	0.786400	0.130340
O161	O16	0.008570	0.281900	0.149460
N111	N11	0.563750	0.961800	0.304920
H231	H23	0.540600	0.904520	0.318130
N121	N12	0.420150	0.159700	0.486660
N131	N13	0.795900	0.215000	0.128850
N141	N14	0.295430	0.695700	0.119740
N151	N15	0.909670	0.671700	0.473510
N161	N16	0.596710	0.131900	0.297560
N171	N17	0.071610	0.458900	0.309080
H241	H24	0.050040	0.402760	0.325200
N181	N18	0.616530	0.965200	0.257150
N191	N19	0.126000	0.457300	0.262970
N201	N20	0.098950	0.628600	0.292520
C371	C37	0.734100	0.425600	0.055390
C381	C38	0.140540	0.561800	0.254890
C391	C39	0.197570	0.603900	0.209430
C401	C40	0.634390	0.069900	0.255090
C411	C41	0.504130	0.091500	0.381930
C421	C42	0.553230	0.061300	0.328400
C431	C43	0.223100	0.909500	0.048590
C441	C44	0.056150	0.560800	0.326050
C451	C45	0.691500	0.117000	0.211340
C461	C46	0.001800	0.595300	0.375580
C471	C47	0.229700	0.541100	0.161980
H251	H25	0.218940	0.467680	0.159660
C481	C48	0.576700	0.642400	0.101350
C491	C49	0.278300	0.590100	0.118040
H261	H26	0.299760	0.548160	0.086320
C501	C50	0.499800	0.703200	0.098340
C511	C51	0.784100	0.108500	0.127930
H271	H27	0.811700	0.067280	0.099060
C521	C52	0.080300	0.135600	0.108400
C531	C53	0.006500	0.203500	0.112970
C541	C54	0.732600	0.056900	0.167990
H281	H28	0.725700	0.982710	0.165770
C551	C55	0.455700	0.020600	0.414290
H291	H29	0.450690	0.949280	0.401400
C561	C56	0.706200	0.227800	0.214540
H301	H30	0.681160	0.270280	0.244280
C571	C57	0.180980	0.001300	0.078240
C581	C58	0.219600	0.711800	0.212910
H311	H31	0.201880	0.754970	0.245600
C591	C59	0.415000	0.057700	0.465980
H321	H32	0.382700	0.009810	0.487350
C601	C60	0.686220	0.516300	0.080300
C611	C61	0.758300	0.272800	0.172940
H331	H33	0.768010	0.346440	0.175340
C621	C62	0.267800	0.754100	0.167480
H341	H34	0.281730	0.826460	0.170120
C631	C63	0.644300	0.661600	0.138700
H351	H35	0.648270	0.716210	0.168800
C641	C64	0.916500	0.566500	0.462640
H361	H36	0.889860	0.518800	0.488550
C651	C65	0.153300	0.151500	0.139000
H371	H37	0.163910	0.207030	0.167660
C661	C66	0.961800	0.524900	0.414320
H381	H38	0.965130	0.450970	0.408090
C671	C67	0.707500	0.589000	0.126330
H391	H39	0.757670	0.590730	0.147190
C681	C68	0.508100	0.198000	0.402420
H401	H40	0.538930	0.247970	0.381220
C691	C69	0.465900	0.228600	0.454380
H411	H41	0.469210	0.299880	0.467760
C701	C70	0.210700	0.073900	0.121980
H421	H42	0.263200	0.072270	0.138720
C711	C71	0.945500	0.739900	0.433700
H431	H43	0.938850	0.813560	0.439500
C721	C72	0.991400	0.704800	0.384880
H441	H44	0.015390	0.754190	0.358350
Cu51	Cu5	0.853220	0.735150	0.548330
Cu61	Cu6	0.361320	0.218280	0.560930
S51	S5	0.089440	0.964870	0.551390
S61	S6	0.581790	0.473100	0.558160
O171	O17	0.447570	0.324900	0.576540
O181	O18	0.945190	0.835240	0.561130
O191	O19	0.798410	0.598000	0.563330
O201	O20	0.308180	0.078600	0.574710
O211	O21	0.200160	0.140600	0.519910
O221	O22	0.684420	0.651500	0.513190
O231	O23	0.994340	0.713600	0.630340
O241	O24	0.508570	0.218100	0.649460
N211	N21	0.063750	0.538200	0.804920
H451	H45	0.040600	0.595480	0.818130
N221	N22	0.920150	0.340300	0.986660
N231	N23	0.295900	0.285000	0.628850
N241	N24	0.795430	0.804300	0.619740
N251	N25	0.409670	0.828300	0.973510
N261	N26	0.096710	0.368100	0.797560
N271	N27	0.571610	0.041100	0.809080
H461	H46	0.550040	0.097240	0.825200
N281	N28	0.116530	0.534800	0.757150
N291	N29	0.626000	0.042700	0.762970
N301	N30	0.598950	0.871400	0.792520
C731	C73	0.234100	0.074400	0.555390
C741	C74	0.640540	0.938200	0.754890
C751	C75	0.697570	0.896100	0.709430
C761	C76	0.134390	0.430100	0.755090
C771	C77	0.004130	0.408500	0.881930
C781	C78	0.053230	0.438700	0.828400
C791	C79	0.723100	0.590500	0.548590
C801	C80	0.556150	0.939200	0.826050
C811	C81	0.191500	0.383000	0.711340
C821	C82	0.501800	0.904700	0.875580
C831	C83	0.729700	0.958900	0.661980
H471	H47	0.718940	0.032320	0.659660
C841	C84	0.076700	0.857600	0.601350
C851	C85	0.778300	0.909900	0.618040
H481	H48	0.799760	0.951840	0.586320
C861	C86	0.999800	0.796800	0.598340
C871	C87	0.284100	0.391500	0.627930
H491	H49	0.311700	0.432720	0.599060
C881	C88	0.580300	0.364400	0.608400
C891	C89	0.506500	0.296500	0.612970
C901	C90	0.232600	0.443100	0.667990
H501	H50	0.225700	0.517290	0.665770
C911	C91	0.955700	0.479400	0.914290
H511	H51	0.950690	0.550720	0.901400
C921	C92	0.206200	0.272200	0.714540
H521	H52	0.181160	0.229720	0.744280
C931	C93	0.680980	0.498700	0.578240
C941	C94	0.719600	0.788200	0.712910
H531	H53	0.701880	0.745030	0.745600
C951	C95	0.915000	0.442300	0.965980
H541	H54	0.882700	0.490190	0.987350
C961	C96	0.186220	0.983700	0.580300
C971	C97	0.258300	0.227200	0.672940
H551	H55	0.268010	0.153560	0.675340
C981	C98	0.767800	0.745900	0.667480
H561	H56	0.781730	0.673540	0.670120
C991	C99	0.144300	0.838400	0.638700
H571	H57	0.148270	0.783790	0.668800
C1001	C100	0.416500	0.933500	0.962640
H581	H58	0.389860	0.981200	0.988550
C1011	C101	0.653300	0.348500	0.639000
H591	H59	0.663910	0.292970	0.667660
C1021	C102	0.461800	0.975100	0.914320
H601	H60	0.465130	0.049030	0.908090
C1031	C103	0.207500	0.911000	0.626330
H611	H61	0.257670	0.909270	0.647190
C1041	C104	0.008100	0.302000	0.902420
H621	H62	0.038930	0.252030	0.881220
C1051	C105	0.965900	0.271400	0.954380
H631	H63	0.969210	0.200120	0.967760
C1061	C106	0.710700	0.426100	0.621980
H641	H64	0.763200	0.427730	0.638720
C1071	C107	0.445500	0.760100	0.933700
H651	H65	0.438850	0.686440	0.939500
C1081	C108	0.491400	0.795200	0.884880
H661	H66	0.515390	0.745810	0.858350
Cu71	Cu7	0.646780	0.235150	0.951670
Cu81	Cu8	0.138680	0.718280	0.939070
S71	S7	0.410560	0.464870	0.948610
S81	S8	0.918210	0.973100	0.941840
O251	O25	0.052430	0.824900	0.923460
O261	O26	0.554810	0.335240	0.938870
O271	O27	0.701590	0.098000	0.936670
O281	O28	0.191820	0.578600	0.925290
O291	O29	0.299840	0.640600	0.980090
O301	O30	0.815580	0.151500	0.986810
O311	O31	0.505660	0.213600	0.869660
O321	O32	0.991430	0.718100	0.850540
N311	N31	0.436250	0.038200	0.695080
H671	H67	0.459400	0.095480	0.681870
N321	N32	0.579850	0.840300	0.513340
N331	N33	0.204100	0.785000	0.871150
N341	N34	0.704570	0.304300	0.880260
N351	N35	0.090330	0.328300	0.526490
N361	N36	0.403290	0.868100	0.702440
N371	N37	0.928390	0.541100	0.690920
H681	H68	0.949960	0.597240	0.674800
N381	N38	0.383470	0.034800	0.742850
N391	N39	0.874000	0.542700	0.737030
N401	N40	0.901050	0.371400	0.707480
C1091	C109	0.265900	0.574400	0.944610
C1101	C110	0.859460	0.438200	0.745110
C1111	C111	0.802430	0.396100	0.790570
C1121	C112	0.365610	0.930100	0.744910
C1131	C113	0.495870	0.908500	0.618070
C1141	C114	0.446770	0.938700	0.671600
C1151	C115	0.776900	0.090500	0.951410
C1161	C116	0.943850	0.439200	0.673950
C1171	C117	0.308500	0.883000	0.788660
C1181	C118	0.998200	0.404700	0.624420
C1191	C119	0.770300	0.458900	0.838020
H691	H69	0.781060	0.532320	0.840340
C1201	C120	0.423300	0.357600	0.898650
C1211	C121	0.721700	0.409900	0.881960
H701	H70	0.700240	0.451840	0.913680
C1221	C122	0.500200	0.296800	0.901660
C1231	C123	0.215900	0.891500	0.872070
H711	H71	0.188300	0.932720	0.900940
C1241	C124	0.919700	0.864400	0.891600
C1251	C125	0.993500	0.796500	0.887030
C1261	C126	0.267400	0.943100	0.832010
H721	H72	0.274300	0.017290	0.834230
C1271	C127	0.544300	0.979400	0.585710
H731	H73	0.549310	0.050720	0.598600
C1281	C128	0.293800	0.772200	0.785460
H741	H74	0.318840	0.729720	0.755720
C1291	C129	0.819020	0.998700	0.921760
C1301	C130	0.780400	0.288200	0.787090
H751	H75	0.798120	0.245030	0.754400
C1311	C131	0.585000	0.942300	0.534020
H761	H76	0.617300	0.990190	0.512650
C1321	C132	0.313780	0.483700	0.919700
C1331	C133	0.241700	0.727200	0.827060
H771	H77	0.231990	0.653560	0.824660
C1341	C134	0.732200	0.245900	0.832520
H781	H78	0.718270	0.173540	0.829880
C1351	C135	0.355700	0.338400	0.861300
H791	H79	0.351730	0.283790	0.831200
C1361	C136	0.083500	0.433500	0.537360
H801	H80	0.110140	0.481200	0.511450
C1371	C137	0.846700	0.848500	0.861000
H811	H81	0.836090	0.792970	0.832340
C1381	C138	0.038200	0.475100	0.585680
H821	H82	0.034870	0.549030	0.591910
C1391	C139	0.292500	0.411000	0.873670
H831	H83	0.242330	0.409270	0.852810
C1401	C140	0.491900	0.802000	0.597580
H841	H84	0.461070	0.752030	0.618780
C1411	C141	0.534100	0.771400	0.545620
H851	H85	0.530790	0.700120	0.532240
C1421	C142	0.789300	0.926100	0.878020
H861	H86	0.736800	0.927730	0.861280
C1431	C143	0.054500	0.260100	0.566300
H871	H87	0.061150	0.186440	0.560500
C1441	C144	0.008600	0.295200	0.615120
H881	H88	0.984610	0.245810	0.641650
