data_PARVUB_freeONLY_PM
_symmetry_space_group_name_H-M	'P1'
_cell_length_a	10.523500
_cell_length_b	19.090000
_cell_length_c	23.349100
_cell_angle_alpha	99.710100
_cell_angle_beta	103.024000
_cell_angle_gamma	90.000000
_symmetry_Int_Tables_number 1

loop_
_symmetry_equiv_pos_as_xyz
'x,y,z'

loop_
_atom_site_label
_atom_site_type_symbol
_atom_site_fract_x
_atom_site_fract_y
_atom_site_fract_z
Co11	Co1	0.558320	0.072670	0.721740
Co21	Co2	0.836580	0.427330	0.278260
Co31	Co3	0.441680	0.927330	0.278260
Co41	Co4	0.163420	0.572670	0.721740
Co51	Co5	0.982340	0.250000	0.000000
Co61	Co6	0.017660	0.750000	0.000000
H11	H1	0.081400	0.058100	0.497800
H21	H2	0.056700	0.039200	0.557200
H31	H3	0.687800	0.944000	0.661400
H41	H4	0.699700	0.759100	0.661400
H51	H5	0.757700	0.818000	0.634200
H61	H6	0.864500	0.786900	0.748800
H71	H7	0.923500	0.761800	0.693200
H81	H8	0.351800	0.649500	0.643400
H91	H9	0.416000	0.731300	0.591600
H101	H10	0.357300	0.847600	0.607000
H111	H11	0.244700	0.889300	0.679200
H121	H12	0.107100	0.724200	0.789800
H131	H13	0.077400	0.857800	0.808600
H141	H14	0.146100	0.904300	0.774200
H151	H15	0.605100	0.104100	0.838400
H161	H16	0.701900	0.058400	0.825800
H171	H17	0.461800	0.973000	0.819400
H181	H18	0.430800	0.876900	0.863800
H191	H19	0.507100	0.767200	0.833800
H201	H20	0.621900	0.749400	0.759600
H211	H21	0.631600	0.149500	0.607000
H221	H22	0.607500	0.184600	0.515400
H231	H23	0.441300	0.137200	0.436000
H241	H24	0.289600	0.055100	0.445000
H251	H25	0.327200	0.982000	0.635200
H261	H26	0.159500	0.930800	0.540000
H271	H27	0.183700	0.949400	0.480200
H281	H28	0.139600	0.059400	0.703000
H291	H29	0.228500	0.153200	0.875400
H301	H30	0.859100	0.142200	0.781400
H311	H31	0.043900	0.341800	0.903600
H321	H32	0.055400	0.436200	0.854400
H331	H33	0.935500	0.535200	0.870400
H341	H34	0.799800	0.544100	0.935800
H351	H35	0.771100	0.351100	0.042000
H361	H36	0.715700	0.530900	0.033000
H371	H37	0.676600	0.470200	0.064200
H381	H38	0.515000	0.427300	0.977200
H391	H39	0.552100	0.490500	0.948200
H401	H40	0.917500	0.906100	0.745200
H411	H41	0.980200	0.879700	0.691000
H421	H42	0.583600	0.441900	0.502200
H431	H43	0.499500	0.460800	0.442800
H441	H44	0.026400	0.556000	0.338600
H451	H45	0.038300	0.740900	0.338600
H461	H46	0.123500	0.682000	0.365800
H471	H47	0.115700	0.713100	0.251200
H481	H48	0.230300	0.738200	0.306800
H491	H49	0.708400	0.850500	0.356600
H501	H50	0.824400	0.768700	0.408400
H511	H51	0.750300	0.652400	0.393000
H521	H52	0.565500	0.610700	0.320800
H531	H53	0.317300	0.775800	0.210200
H541	H54	0.268800	0.642200	0.191400
H551	H55	0.371900	0.595700	0.225800
H561	H56	0.766700	0.395900	0.161600
H571	H57	0.876100	0.441600	0.174200
H581	H58	0.642400	0.527000	0.180600
H591	H59	0.567000	0.623100	0.136200
H601	H60	0.673300	0.732800	0.166200
H611	H61	0.862300	0.750600	0.240400
H621	H62	0.024600	0.350500	0.393000
H631	H63	0.092100	0.315400	0.484600
H641	H64	0.005300	0.362800	0.564000
H651	H65	0.844600	0.444900	0.555000
H661	H66	0.692000	0.518000	0.364800
H671	H67	0.619500	0.569200	0.460000
H681	H68	0.703500	0.550600	0.519800
H691	H69	0.436600	0.440600	0.297000
H701	H70	0.353100	0.346800	0.124600
H711	H71	0.077700	0.357800	0.218600
H721	H72	0.140300	0.158200	0.096400
H731	H73	0.201000	0.063800	0.145600
H741	H74	0.065100	0.964800	0.129600
H751	H75	0.864000	0.955900	0.064200
H761	H76	0.729100	0.148900	0.958000
H771	H77	0.682700	0.969100	0.967000
H781	H78	0.612400	0.029800	0.935800
H791	H79	0.537800	0.072700	0.022800
H801	H80	0.603900	0.009500	0.051800
H811	H81	0.172300	0.593900	0.254800
H821	H82	0.289200	0.620300	0.309000
H831	H83	0.918600	0.941900	0.502200
H841	H84	0.943300	0.960800	0.442800
H851	H85	0.312200	0.056000	0.338600
H861	H86	0.300300	0.240900	0.338600
H871	H87	0.242300	0.182000	0.365800
H881	H88	0.135500	0.213100	0.251200
H891	H89	0.076500	0.238200	0.306800
H901	H90	0.648200	0.350500	0.356600
H911	H91	0.584000	0.268700	0.408400
H921	H92	0.642700	0.152400	0.393000
H931	H93	0.755300	0.110700	0.320800
H941	H94	0.892900	0.275800	0.210200
H951	H95	0.922600	0.142200	0.191400
H961	H96	0.853900	0.095700	0.225800
H971	H97	0.394900	0.895900	0.161600
H981	H98	0.298100	0.941600	0.174200
H991	H99	0.538200	0.027000	0.180600
H1001	H100	0.569200	0.123100	0.136200
H1011	H101	0.492900	0.232800	0.166200
H1021	H102	0.378100	0.250600	0.240400
H1031	H103	0.368400	0.850500	0.393000
H1041	H104	0.392500	0.815400	0.484600
H1051	H105	0.558700	0.862800	0.564000
H1061	H106	0.710400	0.944900	0.555000
H1071	H107	0.672800	0.018000	0.364800
H1081	H108	0.840500	0.069200	0.460000
H1091	H109	0.816300	0.050600	0.519800
H1101	H110	0.860400	0.940600	0.297000
H1111	H111	0.771500	0.846800	0.124600
H1121	H112	0.140900	0.857800	0.218600
H1131	H113	0.956100	0.658200	0.096400
H1141	H114	0.944600	0.563800	0.145600
H1151	H115	0.064500	0.464800	0.129600
H1161	H116	0.200200	0.455900	0.064200
H1171	H117	0.228900	0.648900	0.958000
H1181	H118	0.284300	0.469100	0.967000
H1191	H119	0.323400	0.529800	0.935800
H1201	H120	0.485000	0.572700	0.022800
H1211	H121	0.447900	0.509500	0.051800
H1221	H122	0.082500	0.093900	0.254800
H1231	H123	0.019800	0.120300	0.309000
H1241	H124	0.416400	0.558100	0.497800
H1251	H125	0.500500	0.539200	0.557200
H1261	H126	0.973600	0.444000	0.661400
H1271	H127	0.961700	0.259100	0.661400
H1281	H128	0.876500	0.318000	0.634200
H1291	H129	0.884300	0.286900	0.748800
H1301	H130	0.769700	0.261800	0.693200
H1311	H131	0.291600	0.149500	0.643400
H1321	H132	0.175600	0.231300	0.591600
H1331	H133	0.249700	0.347600	0.607000
H1341	H134	0.434500	0.389300	0.679200
H1351	H135	0.682700	0.224200	0.789800
H1361	H136	0.731200	0.357800	0.808600
H1371	H137	0.628100	0.404300	0.774200
H1381	H138	0.233300	0.604100	0.838400
H1391	H139	0.123900	0.558400	0.825800
H1401	H140	0.357600	0.473000	0.819400
H1411	H141	0.433000	0.376900	0.863800
H1421	H142	0.326700	0.267200	0.833800
H1431	H143	0.137700	0.249400	0.759600
H1441	H144	0.975400	0.649500	0.607000
H1451	H145	0.907900	0.684600	0.515400
H1461	H146	0.994700	0.637200	0.436000
H1471	H147	0.155400	0.555100	0.445000
H1481	H148	0.308000	0.482000	0.635200
H1491	H149	0.380500	0.430800	0.540000
H1501	H150	0.296500	0.449400	0.480200
H1511	H151	0.563400	0.559400	0.703000
H1521	H152	0.646900	0.653200	0.875400
H1531	H153	0.922300	0.642200	0.781400
H1541	H154	0.859700	0.841800	0.903600
H1551	H155	0.799000	0.936200	0.854400
H1561	H156	0.934900	0.035200	0.870400
H1571	H157	0.136000	0.044100	0.935800
H1581	H158	0.270900	0.851100	0.042000
H1591	H159	0.317300	0.030900	0.033000
H1601	H160	0.387600	0.970200	0.064200
H1611	H161	0.462200	0.927300	0.977200
H1621	H162	0.396100	0.990500	0.948200
H1631	H163	0.827700	0.406100	0.745200
H1641	H164	0.710800	0.379700	0.691000
C11	C1	0.064070	0.019190	0.517140
C21	C2	0.654580	0.926080	0.689960
C31	C3	0.745740	0.805120	0.671080
C41	C4	0.877700	0.799860	0.712000
C51	C5	0.227590	0.792360	0.702980
C61	C6	0.255120	0.720400	0.691640
C71	C7	0.328830	0.696740	0.650260
C81	C8	0.366770	0.745860	0.619540
C91	C9	0.332930	0.816500	0.629660
C101	C10	0.264930	0.841710	0.671860
C111	C11	0.148990	0.733590	0.760780
C121	C12	0.092380	0.861570	0.769760
C131	C13	0.607100	0.851280	0.744400
C141	C14	0.559080	0.918200	0.761160
C151	C15	0.492960	0.928730	0.806920
C161	C16	0.475220	0.871220	0.833240
C171	C17	0.522110	0.804830	0.815220
C181	C18	0.589460	0.793550	0.771120
C191	C19	0.373650	0.053110	0.532700
C201	C20	0.475640	0.080380	0.581080
C211	C21	0.563920	0.130370	0.575040
C221	C22	0.548920	0.150980	0.520440
C231	C23	0.447610	0.122400	0.472420
C241	C24	0.357650	0.073600	0.477100
C251	C25	0.358790	0.008380	0.610980
C261	C26	0.176680	0.969570	0.520360
C271	C27	0.114270	0.083220	0.736540
C281	C28	0.207730	0.105090	0.789860
C291	C29	0.167330	0.139610	0.839660
C301	C30	0.037530	0.154090	0.836860
C311	C31	0.946470	0.132550	0.783540
C321	C32	0.983870	0.097170	0.733940
C331	C33	0.350280	0.092860	0.792560
C341	C34	0.989900	0.190400	0.889400
C351	C35	0.839830	0.447130	0.958260
C361	C36	0.912250	0.386270	0.948900
C371	C37	0.994770	0.381650	0.909940
C381	C38	0.001240	0.438080	0.881080
C391	C39	0.928660	0.498100	0.890720
C401	C40	0.847660	0.503770	0.929320
C411	C41	0.804360	0.370930	0.014320
C421	C42	0.682000	0.482200	0.026000
C431	C43	0.547440	0.476400	0.985680
C441	C44	0.963960	0.867580	0.727520
C451	C45	0.546930	0.480810	0.482860
C461	C46	0.964620	0.573920	0.310040
C471	C47	0.074660	0.694880	0.328920
C481	C48	0.165700	0.700140	0.288000
C491	C49	0.524610	0.707640	0.297020
C501	C50	0.563480	0.779600	0.308360
C511	C51	0.678570	0.803260	0.349740
C521	C52	0.747230	0.754140	0.380460
C531	C53	0.703270	0.683500	0.370340
C541	C54	0.593070	0.658290	0.328140
C551	C55	0.388210	0.766410	0.239220
C561	C56	0.322620	0.638430	0.230240
C571	C57	0.862700	0.648720	0.255600
C581	C58	0.797920	0.581800	0.238840
C591	C59	0.686040	0.571270	0.193080
C601	C60	0.641980	0.628780	0.166760
C611	C61	0.706890	0.695170	0.184780
C621	C62	0.818340	0.706450	0.228880
C631	C63	0.840950	0.446890	0.467300
C641	C64	0.894560	0.419620	0.418920
C651	C65	0.988880	0.369630	0.424960
C661	C66	0.028480	0.349020	0.479560
C671	C67	0.975190	0.377600	0.527580
C681	C68	0.880550	0.426400	0.522900
C691	C69	0.747810	0.491620	0.389020
C701	C70	0.656320	0.530430	0.479640
C711	C71	0.377730	0.416780	0.263460
C721	C72	0.417870	0.394910	0.210140
C731	C73	0.327670	0.360390	0.160340
C741	C74	0.200670	0.345910	0.163140
C751	C75	0.162930	0.367450	0.216460
C761	C76	0.249930	0.402830	0.266060
C771	C77	0.557720	0.407140	0.207440
C781	C78	0.100500	0.309600	0.110600
C791	C79	0.881570	0.052870	0.041740
C801	C80	0.963350	0.113730	0.051100
C811	C81	0.084830	0.118350	0.090060
C821	C82	0.120160	0.061920	0.118920
C831	C83	0.037940	0.001900	0.109280
C841	C84	0.918340	0.996230	0.070680
C851	C85	0.790040	0.129070	0.985680
C861	C86	0.656000	0.017800	0.974000
C871	C87	0.561760	0.023600	0.014320
C881	C88	0.236440	0.632420	0.272480
C891	C89	0.935930	0.980810	0.482860
C901	C90	0.345420	0.073920	0.310040
C911	C91	0.254260	0.194880	0.328920
C921	C92	0.122300	0.200140	0.288000
C931	C93	0.772410	0.207640	0.297020
C941	C94	0.744880	0.279600	0.308360
C951	C95	0.671170	0.303260	0.349740
C961	C96	0.633230	0.254140	0.380460
C971	C97	0.667070	0.183500	0.370340
C981	C98	0.735070	0.158290	0.328140
C991	C99	0.851010	0.266410	0.239220
C1001	C100	0.907620	0.138430	0.230240
C1011	C101	0.392900	0.148720	0.255600
C1021	C102	0.440920	0.081800	0.238840
C1031	C103	0.507040	0.071270	0.193080
C1041	C104	0.524780	0.128780	0.166760
C1051	C105	0.477890	0.195170	0.184780
C1061	C106	0.410540	0.206450	0.228880
C1071	C107	0.626350	0.946890	0.467300
C1081	C108	0.524360	0.919620	0.418920
C1091	C109	0.436080	0.869630	0.424960
C1101	C110	0.451080	0.849020	0.479560
C1111	C111	0.552390	0.877600	0.527580
C1121	C112	0.642350	0.926400	0.522900
C1131	C113	0.641210	0.991620	0.389020
C1141	C114	0.823320	0.030430	0.479640
C1151	C115	0.885730	0.916780	0.263460
C1161	C116	0.792270	0.894910	0.210140
C1171	C117	0.832670	0.860390	0.160340
C1181	C118	0.962470	0.845910	0.163140
C1191	C119	0.053530	0.867450	0.216460
C1201	C120	0.016130	0.902830	0.266060
C1211	C121	0.649720	0.907140	0.207440
C1221	C122	0.010100	0.809600	0.110600
C1231	C123	0.160170	0.552870	0.041740
C1241	C124	0.087750	0.613730	0.051100
C1251	C125	0.005230	0.618350	0.090060
C1261	C126	0.998760	0.561920	0.118920
C1271	C127	0.071340	0.501900	0.109280
C1281	C128	0.152340	0.496230	0.070680
C1291	C129	0.195640	0.629070	0.985680
C1301	C130	0.318000	0.517800	0.974000
C1311	C131	0.452560	0.523600	0.014320
C1321	C132	0.036040	0.132420	0.272480
C1331	C133	0.453070	0.519190	0.517140
C1341	C134	0.035380	0.426080	0.689960
C1351	C135	0.925340	0.305120	0.671080
C1361	C136	0.834300	0.299860	0.712000
C1371	C137	0.475390	0.292360	0.702980
C1381	C138	0.436520	0.220400	0.691640
C1391	C139	0.321430	0.196740	0.650260
C1401	C140	0.252770	0.245860	0.619540
C1411	C141	0.296730	0.316500	0.629660
C1421	C142	0.406930	0.341710	0.671860
C1431	C143	0.611790	0.233590	0.760780
C1441	C144	0.677380	0.361570	0.769760
C1451	C145	0.137300	0.351280	0.744400
C1461	C146	0.202080	0.418200	0.761160
C1471	C147	0.313960	0.428730	0.806920
C1481	C148	0.358020	0.371220	0.833240
C1491	C149	0.293110	0.304830	0.815220
C1501	C150	0.181660	0.293550	0.771120
C1511	C151	0.159050	0.553110	0.532700
C1521	C152	0.105440	0.580380	0.581080
C1531	C153	0.011120	0.630370	0.575040
C1541	C154	0.971520	0.650980	0.520440
C1551	C155	0.024810	0.622400	0.472420
C1561	C156	0.119450	0.573600	0.477100
C1571	C157	0.252190	0.508380	0.610980
C1581	C158	0.343680	0.469570	0.520360
C1591	C159	0.622270	0.583220	0.736540
C1601	C160	0.582130	0.605090	0.789860
C1611	C161	0.672330	0.639610	0.839660
C1621	C162	0.799330	0.654090	0.836860
C1631	C163	0.837070	0.632550	0.783540
C1641	C164	0.750070	0.597170	0.733940
C1651	C165	0.442280	0.592860	0.792560
C1661	C166	0.899500	0.690400	0.889400
C1671	C167	0.118430	0.947130	0.958260
C1681	C168	0.036650	0.886270	0.948900
C1691	C169	0.915170	0.881650	0.909940
C1701	C170	0.879840	0.938080	0.881080
C1711	C171	0.962060	0.998100	0.890720
C1721	C172	0.081660	0.003770	0.929320
C1731	C173	0.209960	0.870930	0.014320
C1741	C174	0.344000	0.982200	0.026000
C1751	C175	0.438240	0.976400	0.985680
C1761	C176	0.763560	0.367580	0.727520
S11	S1	0.862090	0.074120	0.667200
S21	S2	0.194890	0.425880	0.332800
S31	S3	0.137910	0.925880	0.332800
S41	S4	0.805110	0.574120	0.667200
N11	N1	0.590790	0.964750	0.725580
N21	N2	0.667240	0.858070	0.698680
N31	N3	0.200800	0.684120	0.728200
N41	N4	0.161750	0.799400	0.748500
N51	N5	0.463480	0.050240	0.630360
N61	N6	0.300500	0.006620	0.553200
N71	N7	0.887580	0.338790	0.984960
N81	N8	0.772430	0.435010	0.000460
N91	N9	0.865210	0.535250	0.274420
N101	N10	0.968560	0.641930	0.301320
N111	N11	0.472600	0.815880	0.271800
N121	N12	0.413250	0.700600	0.251500
N131	N13	0.833120	0.449760	0.369640
N141	N14	0.747300	0.493380	0.446800
N151	N15	0.902620	0.161210	0.015040
N161	N16	0.771970	0.064990	0.999540
N171	N17	0.409210	0.035250	0.274420
N181	N18	0.332760	0.141930	0.301320
N191	N19	0.799200	0.315880	0.271800
N201	N20	0.838250	0.200600	0.251500
N211	N21	0.536520	0.949760	0.369640
N221	N22	0.699500	0.993380	0.446800
N231	N23	0.112420	0.661210	0.015040
N241	N24	0.227570	0.564990	0.999540
N251	N25	0.134790	0.464750	0.725580
N261	N26	0.031440	0.358070	0.698680
N271	N27	0.527400	0.184120	0.728200
N281	N28	0.586750	0.299400	0.748500
N291	N29	0.166880	0.550240	0.630360
N301	N30	0.252700	0.506620	0.553200
N311	N31	0.097380	0.838790	0.984960
N321	N32	0.228030	0.935010	0.000460
O11	O1	0.379540	0.062880	0.745300
O21	O2	0.429310	0.113540	0.840960
O31	O3	0.871300	0.195600	0.886600
O41	O4	0.076400	0.214890	0.936600
O51	O5	0.740230	0.080790	0.687460
O61	O6	0.878440	0.125410	0.630680
O71	O7	0.883560	0.001980	0.642120
O81	O8	0.660440	0.094870	0.816900
O91	O9	0.634240	0.437120	0.254700
O101	O10	0.588350	0.386460	0.159040
O111	O11	0.984700	0.304400	0.113400
O121	O12	0.139800	0.285110	0.063400
O131	O13	0.052770	0.419210	0.312540
O141	O14	0.247760	0.374590	0.369320
O151	O15	0.241440	0.498020	0.357880
O161	O16	0.843540	0.405130	0.183100
O171	O17	0.620460	0.937120	0.254700
O181	O18	0.570690	0.886460	0.159040
O191	O19	0.128700	0.804400	0.113400
O201	O20	0.923600	0.785110	0.063400
O211	O21	0.259770	0.919210	0.312540
O221	O22	0.121560	0.874590	0.369320
O231	O23	0.116440	0.998020	0.357880
O241	O24	0.339560	0.905130	0.183100
O251	O25	0.365760	0.562880	0.745300
O261	O26	0.411650	0.613540	0.840960
O271	O27	0.015300	0.695600	0.886600
O281	O28	0.860200	0.714890	0.936600
O291	O29	0.947230	0.580790	0.687460
O301	O30	0.752240	0.625410	0.630680
O311	O31	0.758560	0.501980	0.642120
O321	O32	0.156460	0.594870	0.816900
