data_PAVLOO_freeONLY_PM
_symmetry_space_group_name_H-M	'P1'
_cell_length_a	10.767500
_cell_length_b	10.767500
_cell_length_c	13.994000
_cell_angle_alpha	90.000000
_cell_angle_beta	90.000000
_cell_angle_gamma	90.000000
_symmetry_Int_Tables_number 1

loop_
_symmetry_equiv_pos_as_xyz
'x,y,z'

loop_
_atom_site_label
_atom_site_type_symbol
_atom_site_fract_x
_atom_site_fract_y
_atom_site_fract_z
Ag11	Ag1	0.500000	0.500000	0.182060
Ag21	Ag2	0.000000	0.000000	0.682060
Ag31	Ag3	0.000000	0.000000	0.317940
Ag41	Ag4	0.500000	0.500000	0.817940
N11	N1	0.610100	0.389900	0.049600
N21	N2	0.850500	0.149500	0.276000
N31	N3	0.669600	0.330400	0.242400
C11	C1	0.690600	0.309400	0.074600
C21	C2	0.728300	0.271700	0.172200
C31	C3	0.815800	0.184200	0.188600
H11	H1	0.853500	0.146500	0.136400
C41	C4	0.791900	0.208100	0.345900
H21	H2	0.811700	0.188300	0.408800
C51	C5	0.704700	0.295300	0.329400
H31	H3	0.667000	0.333000	0.381700
N41	N4	0.389900	0.610100	0.049600
N51	N5	0.149500	0.850500	0.276000
N61	N6	0.330400	0.669600	0.242400
C61	C6	0.309400	0.690600	0.074600
C71	C7	0.271700	0.728300	0.172200
C81	C8	0.184200	0.815800	0.188600
H41	H4	0.146500	0.853500	0.136400
C91	C9	0.208100	0.791900	0.345900
H51	H5	0.188300	0.811700	0.408800
C101	C10	0.295300	0.704700	0.329400
H61	H6	0.333000	0.667000	0.381700
N71	N7	0.110100	0.110100	0.549600
N81	N8	0.350500	0.350500	0.776000
N91	N9	0.169600	0.169600	0.742400
C111	C11	0.190600	0.190600	0.574600
C121	C12	0.228300	0.228300	0.672200
C131	C13	0.315800	0.315800	0.688600
H71	H7	0.353500	0.353500	0.636400
C141	C14	0.291900	0.291900	0.845900
H81	H8	0.311700	0.311700	0.908800
C151	C15	0.204700	0.204700	0.829400
H91	H9	0.167000	0.167000	0.881700
N101	N10	0.889900	0.889900	0.549600
N111	N11	0.649500	0.649500	0.776000
N121	N12	0.830400	0.830400	0.742400
C161	C16	0.809400	0.809400	0.574600
C171	C17	0.771700	0.771700	0.672200
C181	C18	0.684200	0.684200	0.688600
H101	H10	0.646500	0.646500	0.636400
C191	C19	0.708100	0.708100	0.845900
H111	H11	0.688300	0.688300	0.908800
C201	C20	0.795300	0.795300	0.829400
H121	H12	0.833000	0.833000	0.881700
N131	N13	0.889900	0.889900	0.450400
N141	N14	0.649500	0.649500	0.224000
N151	N15	0.830400	0.830400	0.257600
C211	C21	0.809400	0.809400	0.425400
C221	C22	0.771700	0.771700	0.327800
C231	C23	0.684200	0.684200	0.311400
H131	H13	0.646500	0.646500	0.363600
C241	C24	0.708100	0.708100	0.154100
H141	H14	0.688300	0.688300	0.091200
C251	C25	0.795300	0.795300	0.170600
H151	H15	0.833000	0.833000	0.118300
N161	N16	0.110100	0.110100	0.450400
N171	N17	0.350500	0.350500	0.224000
N181	N18	0.169600	0.169600	0.257600
C261	C26	0.190600	0.190600	0.425400
C271	C27	0.228300	0.228300	0.327800
C281	C28	0.315800	0.315800	0.311400
H161	H16	0.353500	0.353500	0.363600
C291	C29	0.291900	0.291900	0.154100
H171	H17	0.311700	0.311700	0.091200
C301	C30	0.204700	0.204700	0.170600
H181	H18	0.167000	0.167000	0.118300
N191	N19	0.389900	0.610100	0.950400
N201	N20	0.149500	0.850500	0.724000
N211	N21	0.330400	0.669600	0.757600
C311	C31	0.309400	0.690600	0.925400
C321	C32	0.271700	0.728300	0.827800
C331	C33	0.184200	0.815800	0.811400
H191	H19	0.146500	0.853500	0.863600
C341	C34	0.208100	0.791900	0.654100
H201	H20	0.188300	0.811700	0.591200
C351	C35	0.295300	0.704700	0.670600
H211	H21	0.333000	0.667000	0.618300
N221	N22	0.610100	0.389900	0.950400
N231	N23	0.850500	0.149500	0.724000
N241	N24	0.669600	0.330400	0.757600
C361	C36	0.690600	0.309400	0.925400
C371	C37	0.728300	0.271700	0.827800
C381	C38	0.815800	0.184200	0.811400
H221	H22	0.853500	0.146500	0.863600
C391	C39	0.791900	0.208100	0.654100
H231	H23	0.811700	0.188300	0.591200
C401	C40	0.704700	0.295300	0.670600
H241	H24	0.667000	0.333000	0.618300
O11	O1	0.745900	0.254100	0.000000
O21	O2	0.254100	0.745900	0.000000
O31	O3	0.245900	0.245900	0.500000
O41	O4	0.754100	0.754100	0.500000
