data_PEBNEP_freeONLY_PM
_symmetry_space_group_name_H-M	'P1'
_cell_length_a	7.473980
_cell_length_b	11.682300
_cell_length_c	28.155000
_cell_angle_alpha	88.017000
_cell_angle_beta	83.790000
_cell_angle_gamma	71.344000
_symmetry_Int_Tables_number 1

loop_
_symmetry_equiv_pos_as_xyz
'x,y,z'

loop_
_atom_site_label
_atom_site_type_symbol
_atom_site_fract_x
_atom_site_fract_y
_atom_site_fract_z
Co11	Co1	0.119020	0.761960	0.250000
Co21	Co2	0.880980	0.238040	0.750000
Cu11	Cu1	0.411210	0.133160	0.031930
Cu21	Cu2	0.455630	0.133160	0.468070
Cu31	Cu3	0.588790	0.866840	0.968070
Cu41	Cu4	0.544370	0.866840	0.531930
H11	H1	0.441000	0.950000	0.119000
H21	H2	0.668000	0.928000	0.180000
H31	H3	0.895000	0.042000	0.154000
H41	H4	0.786000	0.172000	0.038000
H51	H5	0.922000	0.170000	0.077000
H61	H6	0.783000	0.446000	0.053000
H71	H7	0.501000	0.684000	0.020000
H81	H8	0.665000	0.586000	0.991000
H91	H9	0.058000	0.442000	0.921000
H101	H10	0.077000	0.106000	0.970000
H111	H11	0.567000	0.292000	0.152000
H121	H12	0.435000	0.448000	0.210000
H131	H13	0.417000	0.582000	0.198000
H141	H14	0.157000	0.384000	0.160000
H151	H15	0.797000	0.492000	0.176000
H161	H16	0.766900	0.688000	0.209000
H171	H17	0.609000	0.950000	0.381000
H181	H18	0.404000	0.928000	0.320000
H191	H19	0.063000	0.042000	0.346000
H201	H20	0.042000	0.172000	0.462000
H211	H21	0.908000	0.170000	0.423000
H221	H22	0.771000	0.446000	0.447000
H231	H23	0.815000	0.684000	0.480000
H241	H24	0.749000	0.586000	0.509000
H251	H25	0.500000	0.442000	0.579000
H261	H26	0.817000	0.106000	0.530000
H271	H27	0.141000	0.292000	0.348000
H281	H28	0.117000	0.448000	0.290000
H291	H29	0.001000	0.582000	0.302000
H301	H30	0.459000	0.384000	0.340000
H311	H31	0.711000	0.492000	0.324000
H321	H32	0.545100	0.688000	0.291000
H331	H33	0.559000	0.050000	0.881000
H341	H34	0.332000	0.072000	0.820000
H351	H35	0.105000	0.958000	0.846000
H361	H36	0.214000	0.828000	0.962000
H371	H37	0.078000	0.830000	0.923000
H381	H38	0.217000	0.554000	0.947000
H391	H39	0.499000	0.316000	0.980000
H401	H40	0.335000	0.414000	0.009000
H411	H41	0.942000	0.558000	0.079000
H421	H42	0.923000	0.894000	0.030000
H431	H43	0.433000	0.708000	0.848000
H441	H44	0.565000	0.552000	0.790000
H451	H45	0.583000	0.418000	0.802000
H461	H46	0.843000	0.616000	0.840000
H471	H47	0.203000	0.508000	0.824000
H481	H48	0.233100	0.312000	0.791000
H491	H49	0.391000	0.050000	0.619000
H501	H50	0.596000	0.072000	0.680000
H511	H51	0.937000	0.958000	0.654000
H521	H52	0.958000	0.828000	0.538000
H531	H53	0.092000	0.830000	0.577000
H541	H54	0.229000	0.554000	0.553000
H551	H55	0.185000	0.316000	0.520000
H561	H56	0.251000	0.414000	0.491000
H571	H57	0.500000	0.558000	0.421000
H581	H58	0.183000	0.894000	0.470000
H591	H59	0.859000	0.708000	0.652000
H601	H60	0.883000	0.552000	0.710000
H611	H61	0.999000	0.418000	0.698000
H621	H62	0.541000	0.616000	0.660000
H631	H63	0.289000	0.508000	0.676000
H641	H64	0.454900	0.312000	0.709000
C11	C1	0.537000	0.991400	0.119100
C21	C2	0.665700	0.972200	0.153200
C31	C3	0.775500	0.041000	0.140300
C41	C4	0.785800	0.186600	0.072500
C51	C5	0.681100	0.317600	0.084000
C61	C6	0.693200	0.402000	0.050100
C71	C7	0.601600	0.529000	0.060300
C81	C8	0.629400	0.621000	0.023300
C91	C9	0.096400	0.360000	0.935600
C101	C10	0.009500	0.272400	0.934200
C111	C11	0.109500	0.183000	0.962600
C121	C12	0.501700	0.564000	0.104200
C131	C13	0.488900	0.474800	0.138800
C141	C14	0.577300	0.355600	0.127700
C151	C15	0.388000	0.513000	0.187500
C161	C16	0.092800	0.469800	0.175100
C171	C17	0.902900	0.527200	0.183500
C181	C18	0.890500	0.633800	0.204100
C191	C19	0.471600	0.991400	0.380900
C201	C20	0.362100	0.972200	0.346800
C211	C21	0.183500	0.041000	0.359700
C221	C22	0.027600	0.186600	0.427500
C231	C23	0.001300	0.317600	0.416000
C241	C24	0.904800	0.402000	0.449900
C251	C25	0.869400	0.529000	0.439700
C261	C26	0.749600	0.621000	0.476700
C271	C27	0.543600	0.360000	0.564400
C281	C28	0.718100	0.272400	0.565800
C291	C29	0.707500	0.183000	0.537400
C301	C30	0.934300	0.564000	0.395800
C311	C31	0.036300	0.474800	0.361200
C321	C32	0.067100	0.355600	0.372300
C331	C33	0.099000	0.513000	0.312500
C341	C34	0.437400	0.469800	0.324900
C351	C35	0.569900	0.527200	0.316500
C361	C36	0.475700	0.633800	0.295900
C371	C37	0.463000	0.008600	0.880900
C381	C38	0.334300	0.027800	0.846800
C391	C39	0.224500	0.959000	0.859700
C401	C40	0.214200	0.813400	0.927500
C411	C41	0.318900	0.682400	0.916000
C421	C42	0.306800	0.598000	0.949900
C431	C43	0.398400	0.471000	0.939700
C441	C44	0.370600	0.379000	0.976700
C451	C45	0.903600	0.640000	0.064400
C461	C46	0.990500	0.727600	0.065800
C471	C47	0.890500	0.817000	0.037400
C481	C48	0.498300	0.436000	0.895800
C491	C49	0.511100	0.525200	0.861200
C501	C50	0.422700	0.644400	0.872300
C511	C51	0.612000	0.487000	0.812500
C521	C52	0.907200	0.530200	0.824900
C531	C53	0.097100	0.472800	0.816500
C541	C54	0.109500	0.366200	0.795900
C551	C55	0.528400	0.008600	0.619100
C561	C56	0.637900	0.027800	0.653200
C571	C57	0.816500	0.959000	0.640300
C581	C58	0.972400	0.813400	0.572500
C591	C59	0.998700	0.682400	0.584000
C601	C60	0.095200	0.598000	0.550100
C611	C61	0.130600	0.471000	0.560300
C621	C62	0.250400	0.379000	0.523300
C631	C63	0.456400	0.640000	0.435600
C641	C64	0.281900	0.727600	0.434200
C651	C65	0.292500	0.817000	0.462600
C661	C66	0.065700	0.436000	0.604200
C671	C67	0.963700	0.525200	0.638800
C681	C68	0.932900	0.644400	0.627700
C691	C69	0.901000	0.487000	0.687500
C701	C70	0.562600	0.530200	0.675100
C711	C71	0.430100	0.472800	0.683500
C721	C72	0.524300	0.366200	0.704100
N11	N1	0.567900	0.067400	0.085700
N21	N2	0.717500	0.096800	0.099600
N31	N3	0.235900	0.321200	0.963200
N41	N4	0.248500	0.209000	0.980200
N51	N5	0.180000	0.541800	0.188400
N61	N6	0.059700	0.646600	0.208900
N71	N7	0.364700	0.067400	0.414300
N81	N8	0.185700	0.096800	0.400400
N91	N9	0.442900	0.321200	0.536800
N101	N10	0.542500	0.209000	0.519800
N111	N11	0.278200	0.541800	0.311600
N121	N12	0.293700	0.646600	0.291100
N131	N13	0.432100	0.932600	0.914300
N141	N14	0.282500	0.903200	0.900400
N151	N15	0.764100	0.678800	0.036800
N161	N16	0.751500	0.791000	0.019800
N171	N17	0.820000	0.458200	0.811600
N181	N18	0.940300	0.353400	0.791100
N191	N19	0.635300	0.932600	0.585700
N201	N20	0.814300	0.903200	0.599600
N211	N21	0.557100	0.678800	0.463200
N221	N22	0.457500	0.791000	0.480200
N231	N23	0.721800	0.458200	0.688400
N241	N24	0.706300	0.353400	0.708900
Cl11	Cl1	0.301530	0.855540	0.209500
Cl21	Cl2	0.197580	0.266240	0.083670
Cl31	Cl3	0.677170	0.063660	0.972940
Cl41	Cl4	0.842930	0.855540	0.290500
Cl51	Cl5	0.536180	0.266240	0.416330
Cl61	Cl6	0.259170	0.063660	0.527060
Cl71	Cl7	0.698470	0.144460	0.790500
Cl81	Cl8	0.802420	0.733760	0.916330
Cl91	Cl9	0.322830	0.936340	0.027060
Cl101	Cl10	0.157070	0.144460	0.709500
Cl111	Cl11	0.463820	0.733760	0.583670
Cl121	Cl12	0.740830	0.936340	0.472940
