data_PECLEP_freeONLY_PM
_symmetry_space_group_name_H-M	'P1'
_cell_length_a	13.505400
_cell_length_b	19.815000
_cell_length_c	11.635300
_cell_angle_alpha	90.000000
_cell_angle_beta	96.577900
_cell_angle_gamma	90.000000
_symmetry_Int_Tables_number 1

loop_
_symmetry_equiv_pos_as_xyz
'x,y,z'

loop_
_atom_site_label
_atom_site_type_symbol
_atom_site_fract_x
_atom_site_fract_y
_atom_site_fract_z
Co11	Co1	0.427310	0.214970	0.314930
O11	O1	0.917600	0.136800	0.333000
H11	H1	0.883300	0.125600	0.383600
O21	O2	0.937400	0.206600	0.468200
H21	H2	0.895700	0.179600	0.485700
O31	O3	0.922500	0.229100	0.162400
H31	H3	0.920000	0.262400	0.120500
O41	O4	0.930700	0.314800	0.303300
H41	H4	0.969700	0.328100	0.259200
O51	O5	0.021900	0.008500	0.153800
H51	H5	0.082900	0.006800	0.157800
O61	O6	0.014500	0.919100	0.055800
H61	H6	0.075600	0.919400	0.061500
N11	N1	0.459550	0.211400	0.497900
N21	N2	0.425690	0.245010	0.566600
N31	N3	0.390750	0.278530	0.634000
N41	N4	0.436820	0.108010	0.300200
N51	N5	0.475470	0.073250	0.236400
N61	N6	0.514640	0.036590	0.177100
N71	N7	0.516240	0.099900	0.944500
N81	N8	0.465780	0.137320	0.884500
N91	N9	0.417380	0.175720	0.826700
N101	N10	0.584100	0.226350	0.298000
N111	N11	0.270450	0.208470	0.331340
N121	N12	0.659200	0.989560	0.019500
C11	C1	0.644500	0.261950	0.376200
C21	C2	0.626400	0.200130	0.210200
C31	C3	0.744500	0.271130	0.368800
C41	C4	0.726000	0.206660	0.198500
C51	C5	0.788300	0.241900	0.278300
C61	C6	0.899000	0.247460	0.272000
C71	C7	0.213900	0.160040	0.280400
C81	C8	0.223600	0.252290	0.394300
C91	C9	0.113300	0.154500	0.285500
C101	C10	0.123500	0.248800	0.405900
C111	C11	0.065300	0.199690	0.347500
C121	C12	0.954200	0.196200	0.355600
C131	C13	0.707400	0.936360	0.984100
C141	C14	0.716300	0.039560	0.065100
C151	C15	0.819000	0.038100	0.079200
C161	C16	0.810000	0.931320	0.993100
C171	C17	0.868400	0.983630	0.040400
C181	C18	0.981300	0.981520	0.050700
H71	H7	0.580800	0.175900	0.155000
H81	H8	0.780000	0.294300	0.424000
H91	H9	0.850000	0.886800	0.957000
H101	H10	0.669000	0.904300	0.954000
H111	H11	0.753000	0.191000	0.147000
H121	H12	0.609000	0.281100	0.447000
H131	H13	0.857000	0.072000	0.113000
H141	H14	0.246000	0.125400	0.243000
H151	H15	0.682000	0.071900	0.101000
H161	H16	0.265000	0.295000	0.426000
H171	H17	0.085000	0.117000	0.257000
H181	H18	0.080000	0.282200	0.439000
Co21	Co2	0.572690	0.714970	0.185070
O71	O7	0.082400	0.636800	0.167000
H191	H19	0.116700	0.625600	0.116400
O81	O8	0.062600	0.706600	0.031800
H201	H20	0.104300	0.679600	0.014300
O91	O9	0.077500	0.729100	0.337600
H211	H21	0.080000	0.762400	0.379500
O101	O10	0.069300	0.814800	0.196700
H221	H22	0.030300	0.828100	0.240800
O111	O11	0.978100	0.508500	0.346200
H231	H23	0.917100	0.506800	0.342200
O121	O12	0.985500	0.419100	0.444200
H241	H24	0.924400	0.419400	0.438500
N131	N13	0.540450	0.711400	0.002100
N141	N14	0.574310	0.745010	0.933400
N151	N15	0.609250	0.778530	0.866000
N161	N16	0.563180	0.608010	0.199800
N171	N17	0.524530	0.573250	0.263600
N181	N18	0.485360	0.536590	0.322900
N191	N19	0.483760	0.599900	0.555500
N201	N20	0.534220	0.637320	0.615500
N211	N21	0.582620	0.675720	0.673300
N221	N22	0.415900	0.726350	0.202000
N231	N23	0.729550	0.708470	0.168660
N241	N24	0.340800	0.489560	0.480500
C191	C19	0.355500	0.761950	0.123800
C201	C20	0.373600	0.700130	0.289800
C211	C21	0.255500	0.771130	0.131200
C221	C22	0.274000	0.706660	0.301500
C231	C23	0.211700	0.741900	0.221700
C241	C24	0.101000	0.747460	0.228000
C251	C25	0.786100	0.660040	0.219600
C261	C26	0.776400	0.752290	0.105700
C271	C27	0.886700	0.654500	0.214500
C281	C28	0.876500	0.748800	0.094100
C291	C29	0.934700	0.699690	0.152500
C301	C30	0.045800	0.696200	0.144400
C311	C31	0.292600	0.436360	0.515900
C321	C32	0.283700	0.539560	0.434900
C331	C33	0.181000	0.538100	0.420800
C341	C34	0.190000	0.431320	0.506900
C351	C35	0.131600	0.483630	0.459600
C361	C36	0.018700	0.481520	0.449300
H251	H25	0.419200	0.675900	0.345000
H261	H26	0.220000	0.794300	0.076000
H271	H27	0.150000	0.386800	0.543000
H281	H28	0.331000	0.404300	0.546000
H291	H29	0.247000	0.691000	0.353000
H301	H30	0.391000	0.781100	0.053000
H311	H31	0.143000	0.572000	0.387000
H321	H32	0.754000	0.625400	0.257000
H331	H33	0.318000	0.571900	0.399000
H341	H34	0.735000	0.795000	0.074000
H351	H35	0.915000	0.617000	0.243000
H361	H36	0.920000	0.782200	0.061000
Co31	Co3	0.572690	0.785030	0.685070
O131	O13	0.082400	0.863200	0.667000
H371	H37	0.116700	0.874400	0.616400
O141	O14	0.062600	0.793400	0.531800
H381	H38	0.104300	0.820400	0.514300
O151	O15	0.077500	0.770900	0.837600
H391	H39	0.080000	0.737600	0.879500
O161	O16	0.069300	0.685200	0.696700
H401	H40	0.030300	0.671900	0.740800
O171	O17	0.978100	0.991500	0.846200
H411	H41	0.917100	0.993200	0.842200
O181	O18	0.985500	0.080900	0.944200
H421	H42	0.924400	0.080600	0.938500
N251	N25	0.540450	0.788600	0.502100
N261	N26	0.574310	0.754990	0.433400
N271	N27	0.609250	0.721470	0.366000
N281	N28	0.563180	0.891990	0.699800
N291	N29	0.524530	0.926750	0.763600
N301	N30	0.485360	0.963410	0.822900
N311	N31	0.483760	0.900100	0.055500
N321	N32	0.534220	0.862680	0.115500
N331	N33	0.582620	0.824280	0.173300
N341	N34	0.415900	0.773650	0.702000
N351	N35	0.729550	0.791530	0.668660
N361	N36	0.340800	0.010440	0.980500
C371	C37	0.355500	0.738050	0.623800
C381	C38	0.373600	0.799870	0.789800
C391	C39	0.255500	0.728870	0.631200
C401	C40	0.274000	0.793340	0.801500
C411	C41	0.211700	0.758100	0.721700
C421	C42	0.101000	0.752540	0.728000
C431	C43	0.786100	0.839960	0.719600
C441	C44	0.776400	0.747710	0.605700
C451	C45	0.886700	0.845500	0.714500
C461	C46	0.876500	0.751200	0.594100
C471	C47	0.934700	0.800310	0.652500
C481	C48	0.045800	0.803800	0.644400
C491	C49	0.292600	0.063640	0.015900
C501	C50	0.283700	0.960440	0.934900
C511	C51	0.181000	0.961900	0.920800
C521	C52	0.190000	0.068680	0.006900
C531	C53	0.131600	0.016370	0.959600
C541	C54	0.018700	0.018480	0.949300
H431	H43	0.419200	0.824100	0.845000
H441	H44	0.220000	0.705700	0.576000
H451	H45	0.150000	0.113200	0.043000
H461	H46	0.331000	0.095700	0.046000
H471	H47	0.247000	0.809000	0.853000
H481	H48	0.391000	0.718900	0.553000
H491	H49	0.143000	0.928000	0.887000
H501	H50	0.754000	0.874600	0.757000
H511	H51	0.318000	0.928100	0.899000
H521	H52	0.735000	0.705000	0.574000
H531	H53	0.915000	0.883000	0.743000
H541	H54	0.920000	0.717800	0.561000
Co41	Co4	0.427310	0.285030	0.814930
O191	O19	0.917600	0.363200	0.833000
H551	H55	0.883300	0.374400	0.883600
O201	O20	0.937400	0.293400	0.968200
H561	H56	0.895700	0.320400	0.985700
O211	O21	0.922500	0.270900	0.662400
H571	H57	0.920000	0.237600	0.620500
O221	O22	0.930700	0.185200	0.803300
H581	H58	0.969700	0.171900	0.759200
O231	O23	0.021900	0.491500	0.653800
H591	H59	0.082900	0.493200	0.657800
O241	O24	0.014500	0.580900	0.555800
H601	H60	0.075600	0.580600	0.561500
N371	N37	0.459550	0.288600	0.997900
N381	N38	0.425690	0.254990	0.066600
N391	N39	0.390750	0.221470	0.134000
N401	N40	0.436820	0.391990	0.800200
N411	N41	0.475470	0.426750	0.736400
N421	N42	0.514640	0.463410	0.677100
N431	N43	0.516240	0.400100	0.444500
N441	N44	0.465780	0.362680	0.384500
N451	N45	0.417380	0.324280	0.326700
N461	N46	0.584100	0.273650	0.798000
N471	N47	0.270450	0.291530	0.831340
N481	N48	0.659200	0.510440	0.519500
C551	C55	0.644500	0.238050	0.876200
C561	C56	0.626400	0.299870	0.710200
C571	C57	0.744500	0.228870	0.868800
C581	C58	0.726000	0.293340	0.698500
C591	C59	0.788300	0.258100	0.778300
C601	C60	0.899000	0.252540	0.772000
C611	C61	0.213900	0.339960	0.780400
C621	C62	0.223600	0.247710	0.894300
C631	C63	0.113300	0.345500	0.785500
C641	C64	0.123500	0.251200	0.905900
C651	C65	0.065300	0.300310	0.847500
C661	C66	0.954200	0.303800	0.855600
C671	C67	0.707400	0.563640	0.484100
C681	C68	0.716300	0.460440	0.565100
C691	C69	0.819000	0.461900	0.579200
C701	C70	0.810000	0.568680	0.493100
C711	C71	0.868400	0.516370	0.540400
C721	C72	0.981300	0.518480	0.550700
H611	H61	0.580800	0.324100	0.655000
H621	H62	0.780000	0.205700	0.924000
H631	H63	0.850000	0.613200	0.457000
H641	H64	0.669000	0.595700	0.454000
H651	H65	0.753000	0.309000	0.647000
H661	H66	0.609000	0.218900	0.947000
H671	H67	0.857000	0.428000	0.613000
H681	H68	0.246000	0.374600	0.743000
H691	H69	0.682000	0.428100	0.601000
H701	H70	0.265000	0.205000	0.926000
H711	H71	0.085000	0.383000	0.757000
H721	H72	0.080000	0.217800	0.939000
Co51	Co5	0.500000	0.000000	0.000000
Co61	Co6	0.500000	0.500000	0.500000
