data_PEFRID01_freeONLY_PM
_symmetry_space_group_name_H-M	'P1'
_cell_length_a	11.351000
_cell_length_b	27.095100
_cell_length_c	17.018400
_cell_angle_alpha	98.218000
_cell_angle_beta	90.000000
_cell_angle_gamma	90.000000
_symmetry_Int_Tables_number 1

loop_
_symmetry_equiv_pos_as_xyz
'x,y,z'

loop_
_atom_site_label
_atom_site_type_symbol
_atom_site_fract_x
_atom_site_fract_y
_atom_site_fract_z
Sm11	Sm1	0.123560	0.751810	0.690440
Sm21	Sm2	0.686610	0.249120	0.530170
Sm31	Sm3	0.623560	0.248190	0.809560
Sm41	Sm4	0.186610	0.750880	0.969830
Sm51	Sm5	0.876440	0.248190	0.309560
Sm61	Sm6	0.313390	0.750880	0.469830
Sm71	Sm7	0.376440	0.751810	0.190440
Sm81	Sm8	0.813390	0.249120	0.030170
H11	H1	0.930200	0.894300	0.619900
H21	H2	0.170600	0.878600	0.444800
H31	H3	0.131900	0.959200	0.420700
H41	H4	0.086400	0.515700	0.388200
H51	H5	0.138100	0.598600	0.389400
H61	H6	0.004400	0.631800	0.609300
H71	H7	0.464000	0.858200	0.556700
H81	H8	0.344500	0.897900	0.778900
H91	H9	0.430600	0.975900	0.782100
H101	H10	0.497000	0.038500	0.775400
H111	H11	0.532000	0.121600	0.764300
H121	H12	0.627700	0.082500	0.536600
H131	H13	0.437100	0.486700	0.771900
H141	H14	0.475400	0.403800	0.782500
H151	H15	0.638100	0.387400	0.570600
H161	H16	0.514100	0.618100	0.543900
H171	H17	0.308500	0.626800	0.737600
H181	H18	0.365400	0.547000	0.755600
H191	H19	0.430200	0.105700	0.880100
H201	H20	0.670600	0.121400	0.055200
H211	H21	0.631900	0.040800	0.079300
H221	H22	0.586400	0.484300	0.111800
H231	H23	0.638100	0.401400	0.110600
H241	H24	0.504400	0.368200	0.890700
H251	H25	0.964000	0.141800	0.943300
H261	H26	0.844500	0.102100	0.721100
H271	H27	0.930600	0.024100	0.717900
H281	H28	0.997000	0.961500	0.724600
H291	H29	0.032000	0.878400	0.735700
H301	H30	0.127700	0.917500	0.963400
H311	H31	0.937100	0.513300	0.728100
H321	H32	0.975400	0.596200	0.717500
H331	H33	0.138100	0.612600	0.929400
H341	H34	0.014100	0.381900	0.956100
H351	H35	0.808500	0.373200	0.762400
H361	H36	0.865400	0.453000	0.744400
H371	H37	0.069800	0.105700	0.380100
H381	H38	0.829400	0.121400	0.555200
H391	H39	0.868100	0.040800	0.579300
H401	H40	0.913600	0.484300	0.611800
H411	H41	0.861900	0.401400	0.610600
H421	H42	0.995600	0.368200	0.390700
H431	H43	0.536000	0.141800	0.443300
H441	H44	0.655500	0.102100	0.221100
H451	H45	0.569400	0.024100	0.217900
H461	H46	0.503000	0.961500	0.224600
H471	H47	0.468000	0.878400	0.235700
H481	H48	0.372300	0.917500	0.463400
H491	H49	0.562900	0.513300	0.228100
H501	H50	0.524600	0.596200	0.217500
H511	H51	0.361900	0.612600	0.429400
H521	H52	0.485900	0.381900	0.456100
H531	H53	0.691500	0.373200	0.262400
H541	H54	0.634600	0.453000	0.244400
H551	H55	0.569800	0.894300	0.119900
H561	H56	0.329400	0.878600	0.944800
H571	H57	0.368100	0.959200	0.920700
H581	H58	0.413600	0.515700	0.888200
H591	H59	0.361900	0.598600	0.889400
H601	H60	0.495600	0.631800	0.109300
H611	H61	0.036000	0.858200	0.056700
H621	H62	0.155500	0.897900	0.278900
H631	H63	0.069400	0.975900	0.282100
H641	H64	0.003000	0.038500	0.275400
H651	H65	0.968000	0.121600	0.264300
H661	H66	0.872300	0.082500	0.036600
H671	H67	0.062900	0.486700	0.271900
H681	H68	0.024600	0.403800	0.282500
H691	H69	0.861900	0.387400	0.070600
H701	H70	0.985900	0.618100	0.043900
H711	H71	0.191500	0.626800	0.237600
H721	H72	0.134600	0.547000	0.255600
C11	C1	0.007900	0.975000	0.505900
C21	C2	0.970600	0.907300	0.579900
C31	C3	0.054200	0.878440	0.534700
C41	C4	0.114700	0.897900	0.475000
C51	C5	0.091500	0.946200	0.460600
C61	C6	0.083100	0.827700	0.551700
C71	C7	0.014500	0.524000	0.498000
C81	C8	0.070000	0.538900	0.432500
C91	C9	0.101000	0.588600	0.433200
C101	C10	0.076400	0.623400	0.499500
C111	C11	0.020900	0.608500	0.565000
C121	C12	0.120200	0.675600	0.504100
C131	C13	0.498900	0.963680	0.671200
C141	C14	0.457300	0.881700	0.601800
C151	C15	0.395700	0.870300	0.667500
C161	C16	0.385700	0.905600	0.735000
C171	C17	0.437300	0.952300	0.736900
C181	C18	0.325800	0.823600	0.664600
C191	C19	0.541400	0.010730	0.662700
C201	C20	0.523200	0.047300	0.727600
C211	C21	0.544200	0.097100	0.720900
C221	C22	0.583300	0.110280	0.649300
C231	C23	0.601500	0.073700	0.584400
C241	C24	0.592100	0.164300	0.642000
C251	C25	0.514700	0.486710	0.664900
C261	C26	0.477400	0.466800	0.731500
C271	C27	0.500300	0.417100	0.737900
C281	C28	0.560500	0.387380	0.677600
C291	C29	0.597800	0.407300	0.611000
C301	C30	0.580300	0.334400	0.688500
C311	C31	0.473800	0.534700	0.660600
C321	C32	0.484300	0.603800	0.586300
C331	C33	0.405600	0.630400	0.638900
C341	C34	0.361100	0.609100	0.702400
C351	C35	0.395200	0.561200	0.713200
C361	C36	0.357000	0.678300	0.620300
C371	C37	0.507900	0.025000	0.994100
C381	C38	0.470600	0.092700	0.920100
C391	C39	0.554200	0.121560	0.965300
C401	C40	0.614700	0.102100	0.025000
C411	C41	0.591500	0.053800	0.039400
C421	C42	0.583100	0.172300	0.948300
C431	C43	0.514500	0.476000	0.002000
C441	C44	0.570000	0.461100	0.067500
C451	C45	0.601000	0.411400	0.066800
C461	C46	0.576400	0.376600	0.000500
C471	C47	0.520900	0.391500	0.935000
C481	C48	0.620200	0.324400	0.995900
C491	C49	0.998900	0.036320	0.828800
C501	C50	0.957300	0.118300	0.898200
C511	C51	0.895700	0.129700	0.832500
C521	C52	0.885700	0.094400	0.765000
C531	C53	0.937300	0.047700	0.763100
C541	C54	0.825800	0.176400	0.835400
C551	C55	0.041400	0.989270	0.837300
C561	C56	0.023200	0.952700	0.772400
C571	C57	0.044200	0.902900	0.779100
C581	C58	0.083300	0.889720	0.850700
C591	C59	0.101500	0.926300	0.915600
C601	C60	0.092100	0.835700	0.858000
C611	C61	0.014700	0.513290	0.835100
C621	C62	0.977400	0.533200	0.768500
C631	C63	0.000300	0.582900	0.762100
C641	C64	0.060500	0.612620	0.822400
C651	C65	0.097800	0.592700	0.889000
C661	C66	0.080300	0.665600	0.811500
C671	C67	0.973800	0.465300	0.839400
C681	C68	0.984300	0.396200	0.913700
C691	C69	0.905600	0.369600	0.861100
C701	C70	0.861100	0.390900	0.797600
C711	C71	0.895200	0.438800	0.786800
C721	C72	0.857000	0.321700	0.879700
C731	C73	0.992100	0.025000	0.494100
C741	C74	0.029400	0.092700	0.420100
C751	C75	0.945800	0.121560	0.465300
C761	C76	0.885300	0.102100	0.525000
C771	C77	0.908500	0.053800	0.539400
C781	C78	0.916900	0.172300	0.448300
C791	C79	0.985500	0.476000	0.502000
C801	C80	0.930000	0.461100	0.567500
C811	C81	0.899000	0.411400	0.566800
C821	C82	0.923600	0.376600	0.500500
C831	C83	0.979100	0.391500	0.435000
C841	C84	0.879800	0.324400	0.495900
C851	C85	0.501100	0.036320	0.328800
C861	C86	0.542700	0.118300	0.398200
C871	C87	0.604300	0.129700	0.332500
C881	C88	0.614300	0.094400	0.265000
C891	C89	0.562700	0.047700	0.263100
C901	C90	0.674200	0.176400	0.335400
C911	C91	0.458600	0.989270	0.337300
C921	C92	0.476800	0.952700	0.272400
C931	C93	0.455800	0.902900	0.279100
C941	C94	0.416700	0.889720	0.350700
C951	C95	0.398500	0.926300	0.415600
C961	C96	0.407900	0.835700	0.358000
C971	C97	0.485300	0.513290	0.335100
C981	C98	0.522600	0.533200	0.268500
C991	C99	0.499700	0.582900	0.262100
C1001	C100	0.439500	0.612620	0.322400
C1011	C101	0.402200	0.592700	0.389000
C1021	C102	0.419700	0.665600	0.311500
C1031	C103	0.526200	0.465300	0.339400
C1041	C104	0.515700	0.396200	0.413700
C1051	C105	0.594400	0.369600	0.361100
C1061	C106	0.638900	0.390900	0.297600
C1071	C107	0.604800	0.438800	0.286800
C1081	C108	0.643000	0.321700	0.379700
C1091	C109	0.492100	0.975000	0.005900
C1101	C110	0.529400	0.907300	0.079900
C1111	C111	0.445800	0.878440	0.034700
C1121	C112	0.385300	0.897900	0.975000
C1131	C113	0.408500	0.946200	0.960600
C1141	C114	0.416900	0.827700	0.051700
C1151	C115	0.485500	0.524000	0.998000
C1161	C116	0.430000	0.538900	0.932500
C1171	C117	0.399000	0.588600	0.933200
C1181	C118	0.423600	0.623400	0.999500
C1191	C119	0.479100	0.608500	0.065000
C1201	C120	0.379800	0.675600	0.004100
C1211	C121	0.001100	0.963680	0.171200
C1221	C122	0.042700	0.881700	0.101800
C1231	C123	0.104300	0.870300	0.167500
C1241	C124	0.114300	0.905600	0.235000
C1251	C125	0.062700	0.952300	0.236900
C1261	C126	0.174200	0.823600	0.164600
C1271	C127	0.958600	0.010730	0.162700
C1281	C128	0.976800	0.047300	0.227600
C1291	C129	0.955800	0.097100	0.220900
C1301	C130	0.916700	0.110280	0.149300
C1311	C131	0.898500	0.073700	0.084400
C1321	C132	0.907900	0.164300	0.142000
C1331	C133	0.985300	0.486710	0.164900
C1341	C134	0.022600	0.466800	0.231500
C1351	C135	0.999700	0.417100	0.237900
C1361	C136	0.939500	0.387380	0.177600
C1371	C137	0.902200	0.407300	0.111000
C1381	C138	0.919700	0.334400	0.188500
C1391	C139	0.026200	0.534700	0.160600
C1401	C140	0.015700	0.603800	0.086300
C1411	C141	0.094400	0.630400	0.138900
C1421	C142	0.138900	0.609100	0.202400
C1431	C143	0.104800	0.561200	0.213200
C1441	C144	0.143000	0.678300	0.120300
N11	N1	0.947400	0.955500	0.565500
N21	N2	0.989900	0.558800	0.564300
N31	N3	0.508900	0.928400	0.603700
N41	N4	0.580500	0.023900	0.591100
N51	N5	0.574900	0.457000	0.604600
N61	N6	0.518400	0.556000	0.597100
N71	N7	0.447400	0.044500	0.934500
N81	N8	0.489900	0.441200	0.935700
N91	N9	0.008900	0.071600	0.896300
N101	N10	0.080500	0.976100	0.908900
N111	N11	0.074900	0.543000	0.895400
N121	N12	0.018400	0.444000	0.902900
N131	N13	0.052600	0.044500	0.434500
N141	N14	0.010100	0.441200	0.435700
N151	N15	0.491100	0.071600	0.396300
N161	N16	0.419500	0.976100	0.408900
N171	N17	0.425100	0.543000	0.395400
N181	N18	0.481600	0.444000	0.402900
N191	N19	0.552600	0.955500	0.065500
N201	N20	0.510100	0.558800	0.064300
N211	N21	0.991100	0.928400	0.103700
N221	N22	0.919500	0.023900	0.091100
N231	N23	0.925100	0.457000	0.104600
N241	N24	0.981600	0.556000	0.097100
O11	O1	0.100400	0.703000	0.568200
O21	O2	0.274200	0.815200	0.723000
O31	O3	0.301300	0.703100	0.675900
O41	O4	0.054300	0.816600	0.616100
O51	O5	0.561300	0.195000	0.698400
O61	O6	0.589100	0.322100	0.754000
O71	O7	0.894700	0.744400	0.691900
O81	O8	0.638200	0.174600	0.580000
O91	O9	0.329400	0.796600	0.601100
O101	O10	0.141100	0.800800	0.497600
O111	O11	0.171500	0.686600	0.444500
O121	O12	0.791400	0.247000	0.660700
O131	O13	0.377000	0.689000	0.553500
O141	O14	0.575800	0.304800	0.620900
O151	O15	0.448300	0.236600	0.511100
O161	O16	0.600400	0.297000	0.931800
O171	O17	0.774200	0.184800	0.777000
O181	O18	0.801300	0.296900	0.824100
O191	O19	0.554300	0.183400	0.883900
O201	O20	0.061300	0.805000	0.801600
O211	O21	0.089100	0.677900	0.746000
O221	O22	0.394700	0.255600	0.808100
O231	O23	0.138200	0.825400	0.920000
O241	O24	0.829400	0.203400	0.898900
O251	O25	0.641100	0.199200	0.002400
O261	O26	0.671500	0.313400	0.055500
O271	O27	0.291400	0.753000	0.839300
O281	O28	0.877000	0.311000	0.946500
O291	O29	0.075800	0.695200	0.879100
O301	O30	0.948300	0.763400	0.988900
O311	O31	0.899600	0.297000	0.431800
O321	O32	0.725800	0.184800	0.277000
O331	O33	0.698700	0.296900	0.324100
O341	O34	0.945700	0.183400	0.383900
O351	O35	0.438700	0.805000	0.301600
O361	O36	0.410900	0.677900	0.246000
O371	O37	0.105300	0.255600	0.308100
O381	O38	0.361800	0.825400	0.420000
O391	O39	0.670600	0.203400	0.398900
O401	O40	0.858900	0.199200	0.502400
O411	O41	0.828500	0.313400	0.555500
O421	O42	0.208600	0.753000	0.339300
O431	O43	0.623000	0.311000	0.446500
O441	O44	0.424200	0.695200	0.379100
O451	O45	0.551700	0.763400	0.488900
O461	O46	0.399600	0.703000	0.068200
O471	O47	0.225800	0.815200	0.223000
O481	O48	0.198700	0.703100	0.175900
O491	O49	0.445700	0.816600	0.116100
O501	O50	0.938700	0.195000	0.198400
O511	O51	0.910900	0.322100	0.254000
O521	O52	0.605300	0.744400	0.191900
O531	O53	0.861800	0.174600	0.080000
O541	O54	0.170600	0.796600	0.101100
O551	O55	0.358900	0.800800	0.997600
O561	O56	0.328500	0.686600	0.944500
O571	O57	0.708600	0.247000	0.160700
O581	O58	0.123000	0.689000	0.053500
O591	O59	0.924200	0.304800	0.120900
O601	O60	0.051700	0.236600	0.011100
