data_PEFRID_freeONLY_PM
_symmetry_space_group_name_H-M	'P1'
_cell_length_a	15.511700
_cell_length_b	25.527300
_cell_length_c	17.100500
_cell_angle_alpha	98.298000
_cell_angle_beta	90.000000
_cell_angle_gamma	90.000000
_symmetry_Int_Tables_number 1

loop_
_symmetry_equiv_pos_as_xyz
'x,y,z'

loop_
_atom_site_label
_atom_site_type_symbol
_atom_site_fract_x
_atom_site_fract_y
_atom_site_fract_z
Sm11	Sm1	0.825140	0.749350	0.685430
Sm21	Sm2	0.294530	0.249540	0.536820
Sm31	Sm3	0.325140	0.250650	0.814570
Sm41	Sm4	0.794530	0.750460	0.963180
Sm51	Sm5	0.174860	0.250650	0.314570
Sm61	Sm6	0.705470	0.750460	0.463180
Sm71	Sm7	0.674860	0.749350	0.185430
Sm81	Sm8	0.205470	0.249540	0.036820
H11	H1	0.999400	0.886400	0.619300
H21	H2	0.896600	0.971900	0.416300
H31	H3	0.837800	0.891400	0.436800
H41	H4	0.930700	0.634700	0.608800
H51	H5	0.933900	0.509100	0.383900
H61	H6	0.861300	0.588400	0.383000
H71	H7	0.585800	0.859400	0.546600
H81	H8	0.571200	0.982000	0.774600
H91	H9	0.657100	0.907300	0.771500
H101	H10	0.355900	0.074300	0.552000
H111	H11	0.525700	0.049100	0.766800
H121	H12	0.460200	0.130300	0.762600
H131	H13	0.405400	0.381800	0.565900
H141	H14	0.469600	0.504900	0.785300
H151	H15	0.412000	0.423300	0.801600
H161	H16	0.662400	0.621500	0.730800
H171	H17	0.590900	0.545500	0.754200
H181	H18	0.523100	0.623500	0.533100
H191	H19	0.499400	0.113600	0.880700
H201	H20	0.396600	0.028100	0.083700
H211	H21	0.337800	0.108600	0.063200
H221	H22	0.430700	0.365300	0.891200
H231	H23	0.433900	0.490900	0.116100
H241	H24	0.361300	0.411600	0.117000
H251	H25	0.085800	0.140600	0.953400
H261	H26	0.071200	0.018000	0.725400
H271	H27	0.157100	0.092700	0.728500
H281	H28	0.855900	0.925700	0.948000
H291	H29	0.025700	0.950900	0.733200
H301	H30	0.960200	0.869700	0.737400
H311	H31	0.905400	0.618200	0.934100
H321	H32	0.969600	0.495100	0.714700
H331	H33	0.912000	0.576700	0.698400
H341	H34	0.162400	0.378500	0.769200
H351	H35	0.090900	0.454500	0.745800
H361	H36	0.023100	0.376500	0.966900
H371	H37	0.000600	0.113600	0.380700
H381	H38	0.103400	0.028100	0.583700
H391	H39	0.162200	0.108600	0.563200
H401	H40	0.069300	0.365300	0.391200
H411	H41	0.066100	0.490900	0.616100
H421	H42	0.138700	0.411600	0.617000
H431	H43	0.414200	0.140600	0.453400
H441	H44	0.428800	0.018000	0.225400
H451	H45	0.342900	0.092700	0.228500
H461	H46	0.644100	0.925700	0.448000
H471	H47	0.474300	0.950900	0.233200
H481	H48	0.539800	0.869700	0.237400
H491	H49	0.594600	0.618200	0.434100
H501	H50	0.530400	0.495100	0.214700
H511	H51	0.588000	0.576700	0.198400
H521	H52	0.337600	0.378500	0.269200
H531	H53	0.409100	0.454500	0.245800
H541	H54	0.476900	0.376500	0.466900
H551	H55	0.500600	0.886400	0.119300
H561	H56	0.603400	0.971900	0.916300
H571	H57	0.662200	0.891400	0.936800
H581	H58	0.569300	0.634700	0.108800
H591	H59	0.566100	0.509100	0.883900
H601	H60	0.638700	0.588400	0.883000
H611	H61	0.914200	0.859400	0.046600
H621	H62	0.928800	0.982000	0.274600
H631	H63	0.842900	0.907300	0.271500
H641	H64	0.144100	0.074300	0.052000
H651	H65	0.974300	0.049100	0.266800
H661	H66	0.039800	0.130300	0.262600
H671	H67	0.094600	0.381800	0.065900
H681	H68	0.030400	0.504900	0.285300
H691	H69	0.088000	0.423300	0.301600
H701	H70	0.837600	0.621500	0.230800
H711	H71	0.909100	0.545500	0.254200
H721	H72	0.976900	0.623500	0.033100
C11	C1	0.912800	0.880900	0.530100
C21	C2	0.978800	0.903600	0.578600
C31	C3	0.983200	0.977400	0.505500
C41	C4	0.917200	0.954800	0.457000
C51	C5	0.882000	0.906500	0.469300
C61	C6	0.871900	0.827400	0.542100
C71	C7	0.888800	0.619500	0.495900
C81	C8	0.931300	0.609600	0.563700
C91	C9	0.975800	0.524400	0.496900
C101	C10	0.933300	0.534300	0.429000
C111	C11	0.889800	0.581800	0.428500
C121	C12	0.839100	0.666000	0.495400
C131	C13	0.630000	0.875900	0.658800
C141	C14	0.582900	0.883900	0.592300
C151	C15	0.527000	0.965400	0.662500
C161	C16	0.574100	0.957400	0.728900
C171	C17	0.625600	0.912700	0.727100
C181	C18	0.686600	0.829000	0.659100
C191	C19	0.401500	0.110400	0.656900
C201	C20	0.389900	0.069300	0.595000
C211	C21	0.480100	0.013000	0.661900
C221	C22	0.491700	0.054100	0.723700
C231	C23	0.452400	0.102800	0.721200
C241	C24	0.363100	0.162100	0.647200
C251	C25	0.403000	0.394500	0.685400
C261	C26	0.418300	0.406500	0.609900
C271	C27	0.472000	0.492200	0.665800
C281	C28	0.456700	0.480200	0.741300
C291	C29	0.422200	0.431300	0.751100
C301	C30	0.369700	0.341700	0.695300
C311	C31	0.599800	0.630100	0.629700
C321	C32	0.620100	0.606700	0.695900
C331	C33	0.577300	0.561100	0.709900
C341	C34	0.514100	0.539000	0.657700
C351	C35	0.536700	0.607900	0.577400
C361	C36	0.652800	0.679400	0.615300
C371	C37	0.412800	0.119100	0.969900
C381	C38	0.478800	0.096400	0.921400
C391	C39	0.483200	0.022600	0.994500
C401	C40	0.417200	0.045200	0.043000
C411	C41	0.382000	0.093500	0.030700
C421	C42	0.371900	0.172600	0.957900
C431	C43	0.388800	0.380500	0.004100
C441	C44	0.431300	0.390400	0.936300
C451	C45	0.475800	0.475600	0.003100
C461	C46	0.433300	0.465700	0.071000
C471	C47	0.389800	0.418200	0.071500
C481	C48	0.339100	0.334000	0.004600
C491	C49	0.130000	0.124100	0.841200
C501	C50	0.082900	0.116100	0.907700
C511	C51	0.027000	0.034600	0.837500
C521	C52	0.074100	0.042600	0.771100
C531	C53	0.125600	0.087300	0.772900
C541	C54	0.186600	0.171000	0.840900
C551	C55	0.901500	0.889600	0.843100
C561	C56	0.889900	0.930700	0.905000
C571	C57	0.980100	0.987000	0.838100
C581	C58	0.991700	0.945900	0.776300
C591	C59	0.952400	0.897200	0.778800
C601	C60	0.863100	0.837900	0.852800
C611	C61	0.903000	0.605500	0.814600
C621	C62	0.918300	0.593500	0.890100
C631	C63	0.972000	0.507800	0.834200
C641	C64	0.956700	0.519800	0.758700
C651	C65	0.922200	0.568700	0.748900
C661	C66	0.869700	0.658300	0.804700
C671	C67	0.099800	0.369900	0.870300
C681	C68	0.120100	0.393300	0.804100
C691	C69	0.077300	0.438900	0.790100
C701	C70	0.014100	0.461000	0.842300
C711	C71	0.036700	0.392100	0.922600
C721	C72	0.152800	0.320600	0.884700
C731	C73	0.087200	0.119100	0.469900
C741	C74	0.021200	0.096400	0.421400
C751	C75	0.016800	0.022600	0.494500
C761	C76	0.082800	0.045200	0.543000
C771	C77	0.118000	0.093500	0.530700
C781	C78	0.128100	0.172600	0.457900
C791	C79	0.111200	0.380500	0.504100
C801	C80	0.068700	0.390400	0.436300
C811	C81	0.024200	0.475600	0.503100
C821	C82	0.066700	0.465700	0.571000
C831	C83	0.110200	0.418200	0.571500
C841	C84	0.160900	0.334000	0.504600
C851	C85	0.370000	0.124100	0.341200
C861	C86	0.417100	0.116100	0.407700
C871	C87	0.473000	0.034600	0.337500
C881	C88	0.425900	0.042600	0.271100
C891	C89	0.374400	0.087300	0.272900
C901	C90	0.313400	0.171000	0.340900
C911	C91	0.598500	0.889600	0.343100
C921	C92	0.610100	0.930700	0.405000
C931	C93	0.519900	0.987000	0.338100
C941	C94	0.508300	0.945900	0.276300
C951	C95	0.547600	0.897200	0.278800
C961	C96	0.636900	0.837900	0.352800
C971	C97	0.597000	0.605500	0.314600
C981	C98	0.581700	0.593500	0.390100
C991	C99	0.528000	0.507800	0.334200
C1001	C100	0.543300	0.519800	0.258700
C1011	C101	0.577800	0.568700	0.248900
C1021	C102	0.630300	0.658300	0.304700
C1031	C103	0.400200	0.369900	0.370300
C1041	C104	0.379900	0.393300	0.304100
C1051	C105	0.422700	0.438900	0.290100
C1061	C106	0.485900	0.461000	0.342300
C1071	C107	0.463300	0.392100	0.422600
C1081	C108	0.347200	0.320600	0.384700
C1091	C109	0.587200	0.880900	0.030100
C1101	C110	0.521200	0.903600	0.078600
C1111	C111	0.516800	0.977400	0.005500
C1121	C112	0.582800	0.954800	0.957000
C1131	C113	0.618000	0.906500	0.969300
C1141	C114	0.628100	0.827400	0.042100
C1151	C115	0.611200	0.619500	0.995900
C1161	C116	0.568700	0.609600	0.063700
C1171	C117	0.524200	0.524400	0.996900
C1181	C118	0.566700	0.534300	0.929000
C1191	C119	0.610200	0.581800	0.928500
C1201	C120	0.660900	0.666000	0.995400
C1211	C121	0.870000	0.875900	0.158800
C1221	C122	0.917100	0.883900	0.092300
C1231	C123	0.973000	0.965400	0.162500
C1241	C124	0.925900	0.957400	0.228900
C1251	C125	0.874400	0.912700	0.227100
C1261	C126	0.813400	0.829000	0.159100
C1271	C127	0.098500	0.110400	0.156900
C1281	C128	0.110100	0.069300	0.095000
C1291	C129	0.019900	0.013000	0.161900
C1301	C130	0.008300	0.054100	0.223700
C1311	C131	0.047600	0.102800	0.221200
C1321	C132	0.136900	0.162100	0.147200
C1331	C133	0.097000	0.394500	0.185400
C1341	C134	0.081700	0.406500	0.109900
C1351	C135	0.028000	0.492200	0.165800
C1361	C136	0.043300	0.480200	0.241300
C1371	C137	0.077800	0.431300	0.251100
C1381	C138	0.130300	0.341700	0.195300
C1391	C139	0.900200	0.630100	0.129700
C1401	C140	0.879900	0.606700	0.195900
C1411	C141	0.922700	0.561100	0.209900
C1421	C142	0.985900	0.539000	0.157700
C1431	C143	0.963300	0.607900	0.077400
C1441	C144	0.847200	0.679400	0.115300
N11	N1	0.014000	0.951800	0.566300
N21	N2	0.974900	0.562000	0.564200
N31	N3	0.531400	0.928700	0.594200
N41	N4	0.429200	0.020600	0.597500
N51	N5	0.452800	0.455400	0.600100
N61	N6	0.493800	0.562300	0.591500
N71	N7	0.514000	0.048200	0.933700
N81	N8	0.474900	0.438000	0.935800
N91	N9	0.031400	0.071300	0.905800
N101	N10	0.929200	0.979400	0.902500
N111	N11	0.952800	0.544600	0.899900
N121	N12	0.993800	0.437700	0.908500
N131	N13	0.986000	0.048200	0.433700
N141	N14	0.025100	0.438000	0.435800
N151	N15	0.468600	0.071300	0.405800
N161	N16	0.570800	0.979400	0.402500
N171	N17	0.547200	0.544600	0.399900
N181	N18	0.506200	0.437700	0.408500
N191	N19	0.486000	0.951800	0.066300
N201	N20	0.525100	0.562000	0.064200
N211	N21	0.968600	0.928700	0.094200
N221	N22	0.070800	0.020600	0.097500
N231	N23	0.047200	0.455400	0.100100
N241	N24	0.006200	0.562300	0.091500
O11	O1	0.835700	0.698400	0.557600
O21	O2	0.724700	0.821800	0.719700
O31	O3	0.695000	0.700900	0.670900
O41	O4	0.883700	0.814700	0.611600
O51	O5	0.382000	0.198100	0.702900
O61	O6	0.351900	0.332100	0.761500
O71	O7	0.988400	0.736400	0.673300
O81	O8	0.322300	0.168000	0.587600
O91	O9	0.695500	0.799200	0.593100
O101	O10	0.834500	0.800400	0.486900
O111	O11	0.800700	0.674600	0.436000
O121	O12	0.460400	0.233900	0.524300
O131	O13	0.212100	0.249700	0.667200
O141	O14	0.644700	0.689500	0.545800
O151	O15	0.360500	0.309000	0.635500
O161	O16	0.335700	0.301600	0.942400
O171	O17	0.224700	0.178200	0.780300
O181	O18	0.195000	0.299100	0.829100
O191	O19	0.383700	0.185300	0.888400
O201	O20	0.882000	0.801900	0.797100
O211	O21	0.851900	0.667900	0.738500
O221	O22	0.488400	0.263600	0.826700
O231	O23	0.822300	0.832000	0.912400
O241	O24	0.195500	0.200800	0.906900
O251	O25	0.334500	0.199600	0.013100
O261	O26	0.300700	0.325400	0.064000
O271	O27	0.960400	0.766100	0.975700
O281	O28	0.712100	0.750300	0.832800
O291	O29	0.144700	0.310500	0.954200
O301	O30	0.860500	0.691000	0.864500
O311	O31	0.164300	0.301600	0.442400
O321	O32	0.275300	0.178200	0.280300
O331	O33	0.305000	0.299100	0.329100
O341	O34	0.116300	0.185300	0.388400
O351	O35	0.618000	0.801900	0.297100
O361	O36	0.648100	0.667900	0.238500
O371	O37	0.011600	0.263600	0.326700
O381	O38	0.677700	0.832000	0.412400
O391	O39	0.304500	0.200800	0.406900
O401	O40	0.165500	0.199600	0.513100
O411	O41	0.199300	0.325400	0.564000
O421	O42	0.539600	0.766100	0.475700
O431	O43	0.787900	0.750300	0.332800
O441	O44	0.355300	0.310500	0.454200
O451	O45	0.639500	0.691000	0.364500
O461	O46	0.664300	0.698400	0.057600
O471	O47	0.775300	0.821800	0.219700
O481	O48	0.805000	0.700900	0.170900
O491	O49	0.616300	0.814700	0.111600
O501	O50	0.118000	0.198100	0.202900
O511	O51	0.148100	0.332100	0.261500
O521	O52	0.511600	0.736400	0.173300
O531	O53	0.177700	0.168000	0.087600
O541	O54	0.804500	0.799200	0.093100
O551	O55	0.665500	0.800400	0.986900
O561	O56	0.699300	0.674600	0.936000
O571	O57	0.039600	0.233900	0.024300
O581	O58	0.287900	0.249700	0.167200
O591	O59	0.855300	0.689500	0.045800
O601	O60	0.139500	0.309000	0.135500
