data_PEFRUP01_freeONLY_PM
_symmetry_space_group_name_H-M	'P1'
_cell_length_a	11.521300
_cell_length_b	27.015400
_cell_length_c	16.995000
_cell_angle_alpha	98.137000
_cell_angle_beta	90.000000
_cell_angle_gamma	90.000000
_symmetry_Int_Tables_number 1

loop_
_symmetry_equiv_pos_as_xyz
'x,y,z'

loop_
_atom_site_label
_atom_site_type_symbol
_atom_site_fract_x
_atom_site_fract_y
_atom_site_fract_z
Gd11	Gd1	0.619870	0.751900	0.691050
Gd21	Gd2	0.191200	0.249160	0.530760
Gd31	Gd3	0.119870	0.248100	0.808950
Gd41	Gd4	0.691200	0.750840	0.969240
Gd51	Gd5	0.380130	0.248100	0.308950
Gd61	Gd6	0.808800	0.750840	0.469240
Gd71	Gd7	0.880130	0.751900	0.191050
Gd81	Gd8	0.308800	0.249160	0.030760
H11	H1	0.432200	0.894900	0.621300
H21	H2	0.669100	0.878300	0.445900
H31	H3	0.630800	0.958900	0.420500
H41	H4	0.632800	0.600700	0.390200
H51	H5	0.501800	0.632000	0.610800
H61	H6	0.454600	0.548300	0.608900
H71	H7	0.965700	0.857400	0.556500
H81	H8	0.831200	0.898900	0.774000
H91	H9	0.916600	0.977000	0.778400
H101	H10	0.025100	0.122900	0.763700
H111	H11	0.131900	0.082300	0.538700
H121	H12	0.090900	0.999500	0.549300
H131	H13	0.981000	0.404100	0.783200
H141	H14	0.136100	0.387800	0.569300
H151	H15	0.092500	0.470200	0.557200
H161	H16	0.862500	0.545900	0.754800
H171	H17	0.796000	0.624000	0.733400
H181	H18	0.002200	0.618200	0.541600
H191	H19	0.932200	0.105100	0.878700
H201	H20	0.169100	0.121700	0.054100
H211	H21	0.130800	0.041100	0.079500
H221	H22	0.132800	0.399300	0.109800
H231	H23	0.001800	0.368000	0.889200
H241	H24	0.954600	0.451700	0.891100
H251	H25	0.465700	0.142600	0.943500
H261	H26	0.331200	0.101100	0.726000
H271	H27	0.416600	0.023000	0.721600
H281	H28	0.525100	0.877100	0.736300
H291	H29	0.631900	0.917700	0.961300
H301	H30	0.590900	0.000500	0.950700
H311	H31	0.481000	0.595900	0.716800
H321	H32	0.636100	0.612200	0.930700
H331	H33	0.592500	0.529800	0.942800
H341	H34	0.362500	0.454100	0.745200
H351	H35	0.296000	0.376000	0.766600
H361	H36	0.502200	0.381800	0.958400
H371	H37	0.567800	0.105100	0.378700
H381	H38	0.330900	0.121700	0.554100
H391	H39	0.369200	0.041100	0.579500
H401	H40	0.367200	0.399300	0.609800
H411	H41	0.498200	0.368000	0.389200
H421	H42	0.545400	0.451700	0.391100
H431	H43	0.034300	0.142600	0.443500
H441	H44	0.168800	0.101100	0.226000
H451	H45	0.083400	0.023000	0.221600
H461	H46	0.974900	0.877100	0.236300
H471	H47	0.868100	0.917700	0.461300
H481	H48	0.909100	0.000500	0.450700
H491	H49	0.019000	0.595900	0.216800
H501	H50	0.863900	0.612200	0.430700
H511	H51	0.907500	0.529800	0.442800
H521	H52	0.137500	0.454100	0.245200
H531	H53	0.204000	0.376000	0.266600
H541	H54	0.997800	0.381800	0.458400
H551	H55	0.067800	0.894900	0.121300
H561	H56	0.830900	0.878300	0.945900
H571	H57	0.869200	0.958900	0.920500
H581	H58	0.867200	0.600700	0.890200
H591	H59	0.998200	0.632000	0.110800
H601	H60	0.045400	0.548300	0.108900
H611	H61	0.534300	0.857400	0.056500
H621	H62	0.668800	0.898900	0.274000
H631	H63	0.583400	0.977000	0.278400
H641	H64	0.474900	0.122900	0.263700
H651	H65	0.368100	0.082300	0.038700
H661	H66	0.409100	0.999500	0.049300
H671	H67	0.519000	0.404100	0.283200
H681	H68	0.363900	0.387800	0.069300
H691	H69	0.407500	0.470200	0.057200
H701	H70	0.637500	0.545900	0.254800
H711	H71	0.704000	0.624000	0.233400
H721	H72	0.497800	0.618200	0.041600
C11	C1	0.508600	0.975200	0.505700
C21	C2	0.472000	0.907700	0.581000
C31	C3	0.554400	0.878600	0.536100
C41	C4	0.613900	0.897800	0.476000
C51	C5	0.591000	0.946100	0.460800
C61	C6	0.583700	0.827000	0.553300
C71	C7	0.515500	0.524400	0.498500
C81	C8	0.597100	0.590200	0.434000
C91	C9	0.572000	0.624600	0.500700
C101	C10	0.518600	0.608900	0.566200
C111	C11	0.490400	0.558800	0.565100
C121	C12	0.609000	0.677600	0.507800
C131	C13	0.992300	0.964000	0.670100
C141	C14	0.955900	0.881400	0.601000
C151	C15	0.890000	0.870400	0.664800
C161	C16	0.875300	0.906200	0.731300
C171	C17	0.926400	0.953000	0.733900
C181	C18	0.826600	0.823000	0.660200
C191	C19	0.033400	0.011500	0.662800
C201	C20	0.038300	0.098100	0.720700
C211	C21	0.082600	0.110820	0.650100
C221	C22	0.102300	0.073800	0.585900
C231	C23	0.077700	0.024200	0.592200
C241	C24	0.098100	0.164000	0.639900
C251	C25	0.010600	0.486500	0.663000
C261	C26	0.003300	0.417300	0.737900
C271	C27	0.062800	0.387700	0.677400
C281	C28	0.096200	0.407600	0.609700
C291	C29	0.070100	0.456900	0.602500
C301	C30	0.084200	0.334500	0.686100
C311	C31	0.972100	0.535300	0.661000
C321	C32	0.890500	0.560400	0.712100
C331	C33	0.850600	0.607200	0.699300
C341	C34	0.892500	0.628900	0.635400
C351	C35	0.974200	0.603700	0.584300
C361	C36	0.845900	0.677300	0.620300
C371	C37	0.008600	0.024800	0.994300
C381	C38	0.972000	0.092300	0.919000
C391	C39	0.054400	0.121400	0.963900
C401	C40	0.113900	0.102200	0.024000
C411	C41	0.091000	0.053900	0.039200
C421	C42	0.083700	0.173000	0.946700
C431	C43	0.015500	0.475600	0.001500
C441	C44	0.097100	0.409800	0.066000
C451	C45	0.072000	0.375400	0.999300
C461	C46	0.018600	0.391100	0.933800
C471	C47	0.990400	0.441200	0.934900
C481	C48	0.109000	0.322400	0.992200
C491	C49	0.492300	0.036000	0.829900
C501	C50	0.455900	0.118600	0.899000
C511	C51	0.390000	0.129600	0.835200
C521	C52	0.375300	0.093800	0.768700
C531	C53	0.426400	0.047000	0.766100
C541	C54	0.326600	0.177000	0.839800
C551	C55	0.533400	0.988500	0.837200
C561	C56	0.538300	0.901900	0.779300
C571	C57	0.582600	0.889180	0.849900
C581	C58	0.602300	0.926200	0.914100
C591	C59	0.577700	0.975800	0.907800
C601	C60	0.598100	0.836000	0.860100
C611	C61	0.510600	0.513500	0.837000
C621	C62	0.503300	0.582700	0.762100
C631	C63	0.562800	0.612300	0.822600
C641	C64	0.596200	0.592400	0.890300
C651	C65	0.570100	0.543100	0.897500
C661	C66	0.584200	0.665500	0.813900
C671	C67	0.472100	0.464700	0.839000
C681	C68	0.390500	0.439600	0.787900
C691	C69	0.350600	0.392800	0.800700
C701	C70	0.392500	0.371100	0.864600
C711	C71	0.474200	0.396300	0.915700
C721	C72	0.345900	0.322700	0.879700
C731	C73	0.491400	0.024800	0.494300
C741	C74	0.528000	0.092300	0.419000
C751	C75	0.445600	0.121400	0.463900
C761	C76	0.386100	0.102200	0.524000
C771	C77	0.409000	0.053900	0.539200
C781	C78	0.416300	0.173000	0.446700
C791	C79	0.484500	0.475600	0.501500
C801	C80	0.402900	0.409800	0.566000
C811	C81	0.428000	0.375400	0.499300
C821	C82	0.481400	0.391100	0.433800
C831	C83	0.509600	0.441200	0.434900
C841	C84	0.391000	0.322400	0.492200
C851	C85	0.007700	0.036000	0.329900
C861	C86	0.044100	0.118600	0.399000
C871	C87	0.110000	0.129600	0.335200
C881	C88	0.124700	0.093800	0.268700
C891	C89	0.073600	0.047000	0.266100
C901	C90	0.173400	0.177000	0.339800
C911	C91	0.966600	0.988500	0.337200
C921	C92	0.961700	0.901900	0.279300
C931	C93	0.917400	0.889180	0.349900
C941	C94	0.897700	0.926200	0.414100
C951	C95	0.922300	0.975800	0.407800
C961	C96	0.901900	0.836000	0.360100
C971	C97	0.989400	0.513500	0.337000
C981	C98	0.996700	0.582700	0.262100
C991	C99	0.937200	0.612300	0.322600
C1001	C100	0.903800	0.592400	0.390300
C1011	C101	0.929900	0.543100	0.397500
C1021	C102	0.915800	0.665500	0.313900
C1031	C103	0.027900	0.464700	0.339000
C1041	C104	0.109500	0.439600	0.287900
C1051	C105	0.149400	0.392800	0.300700
C1061	C106	0.107500	0.371100	0.364600
C1071	C107	0.025800	0.396300	0.415700
C1081	C108	0.154100	0.322700	0.379700
C1091	C109	0.991400	0.975200	0.005700
C1101	C110	0.028000	0.907700	0.081000
C1111	C111	0.945600	0.878600	0.036100
C1121	C112	0.886100	0.897800	0.976000
C1131	C113	0.909000	0.946100	0.960800
C1141	C114	0.916300	0.827000	0.053300
C1151	C115	0.984500	0.524400	0.998500
C1161	C116	0.902900	0.590200	0.934000
C1171	C117	0.928000	0.624600	0.000700
C1181	C118	0.981400	0.608900	0.066200
C1191	C119	0.009600	0.558800	0.065100
C1201	C120	0.891000	0.677600	0.007800
C1211	C121	0.507700	0.964000	0.170100
C1221	C122	0.544100	0.881400	0.101000
C1231	C123	0.610000	0.870400	0.164800
C1241	C124	0.624700	0.906200	0.231300
C1251	C125	0.573600	0.953000	0.233900
C1261	C126	0.673400	0.823000	0.160200
C1271	C127	0.466600	0.011500	0.162800
C1281	C128	0.461700	0.098100	0.220700
C1291	C129	0.417400	0.110820	0.150100
C1301	C130	0.397700	0.073800	0.085900
C1311	C131	0.422300	0.024200	0.092200
C1321	C132	0.401900	0.164000	0.139900
C1331	C133	0.489400	0.486500	0.163000
C1341	C134	0.496700	0.417300	0.237900
C1351	C135	0.437200	0.387700	0.177400
C1361	C136	0.403800	0.407600	0.109700
C1371	C137	0.429900	0.456900	0.102500
C1381	C138	0.415800	0.334500	0.186100
C1391	C139	0.527900	0.535300	0.161000
C1401	C140	0.609500	0.560400	0.212100
C1411	C141	0.649400	0.607200	0.199300
C1421	C142	0.607500	0.628900	0.135400
C1431	C143	0.525800	0.603700	0.084300
C1441	C144	0.654100	0.677300	0.120300
N11	N1	0.449200	0.956000	0.565800
N21	N2	0.568900	0.540100	0.432900
N31	N3	0.007000	0.928200	0.603600
N41	N4	0.013700	0.048500	0.727000
N51	N5	0.977200	0.466700	0.730700
N61	N6	0.014000	0.557000	0.597100
N71	N7	0.949200	0.044000	0.934200
N81	N8	0.068900	0.459900	0.067100
N91	N9	0.507000	0.071800	0.896400
N101	N10	0.513700	0.951500	0.773000
N111	N11	0.477200	0.533300	0.769300
N121	N12	0.514000	0.443000	0.902900
N131	N13	0.550800	0.044000	0.434200
N141	N14	0.431100	0.459900	0.567100
N151	N15	0.993000	0.071800	0.396400
N161	N16	0.986300	0.951500	0.273000
N171	N17	0.022800	0.533300	0.269300
N181	N18	0.986000	0.443000	0.402900
N191	N19	0.050800	0.956000	0.065800
N201	N20	0.931100	0.540100	0.932900
N211	N21	0.493000	0.928200	0.103600
N221	N22	0.486300	0.048500	0.227000
N231	N23	0.522800	0.466700	0.230700
N241	N24	0.486000	0.557000	0.097100
O11	O1	0.586900	0.703800	0.572300
O21	O2	0.771000	0.814300	0.717900
O31	O3	0.789700	0.702300	0.674300
O41	O4	0.552100	0.815200	0.617300
O51	O5	0.063600	0.196600	0.697300
O61	O6	0.076000	0.320000	0.749600
O71	O7	0.408300	0.745700	0.693000
O81	O8	0.141100	0.174300	0.578900
O91	O9	0.832700	0.795600	0.597600
O101	O10	0.644400	0.800600	0.501400
O111	O11	0.661700	0.689100	0.449900
O121	O12	0.963300	0.237400	0.513000
O131	O13	0.296000	0.245400	0.659800
O141	O14	0.868200	0.688400	0.551500
O151	O15	0.106000	0.307100	0.624400
O161	O16	0.086900	0.296200	0.927700
O171	O17	0.271000	0.185700	0.782100
O181	O18	0.289700	0.297700	0.825700
O191	O19	0.052100	0.184800	0.882700
O201	O20	0.563600	0.803400	0.802700
O211	O21	0.576000	0.680000	0.750400
O221	O22	0.908300	0.254300	0.807000
O231	O23	0.641100	0.825700	0.921100
O241	O24	0.332700	0.204400	0.902400
O251	O25	0.144400	0.199400	0.998600
O261	O26	0.161700	0.310900	0.050100
O271	O27	0.463300	0.762600	0.987000
O281	O28	0.796000	0.754600	0.840200
O291	O29	0.368200	0.311600	0.948500
O301	O30	0.606000	0.692900	0.875600
O311	O31	0.413100	0.296200	0.427700
O321	O32	0.229000	0.185700	0.282100
O331	O33	0.210300	0.297700	0.325700
O341	O34	0.447900	0.184800	0.382700
O351	O35	0.936400	0.803400	0.302700
O361	O36	0.924000	0.680000	0.250400
O371	O37	0.591700	0.254300	0.307000
O381	O38	0.858900	0.825700	0.421100
O391	O39	0.167300	0.204400	0.402400
O401	O40	0.355600	0.199400	0.498600
O411	O41	0.338300	0.310900	0.550100
O421	O42	0.036700	0.762600	0.487000
O431	O43	0.704000	0.754600	0.340200
O441	O44	0.131800	0.311600	0.448500
O451	O45	0.894000	0.692900	0.375600
O461	O46	0.913100	0.703800	0.072300
O471	O47	0.729000	0.814300	0.217900
O481	O48	0.710300	0.702300	0.174300
O491	O49	0.947900	0.815200	0.117300
O501	O50	0.436400	0.196600	0.197300
O511	O51	0.424000	0.320000	0.249600
O521	O52	0.091700	0.745700	0.193000
O531	O53	0.358900	0.174300	0.078900
O541	O54	0.667300	0.795600	0.097600
O551	O55	0.855600	0.800600	0.001400
O561	O56	0.838300	0.689100	0.949900
O571	O57	0.536700	0.237400	0.013000
O581	O58	0.204000	0.245400	0.159800
O591	O59	0.631800	0.688400	0.051500
O601	O60	0.394000	0.307100	0.124400
