data_PEFSEA_freeONLY_PM
_symmetry_space_group_name_H-M	'P1'
_cell_length_a	9.724000
_cell_length_b	10.764000
_cell_length_c	26.969000
_cell_angle_alpha	90.000000
_cell_angle_beta	90.000000
_cell_angle_gamma	90.000000
_symmetry_Int_Tables_number 1

loop_
_symmetry_equiv_pos_as_xyz
'x,y,z'

loop_
_atom_site_label
_atom_site_type_symbol
_atom_site_fract_x
_atom_site_fract_y
_atom_site_fract_z
Cu11	Cu1	0.813200	0.110000	0.833910
Cu21	Cu2	0.686460	0.885190	0.667740
Cu31	Cu3	0.813200	0.890000	0.166090
Cu41	Cu4	0.686460	0.114810	0.332260
Cu51	Cu5	0.186800	0.390000	0.333910
Cu61	Cu6	0.313540	0.614810	0.167740
Cu71	Cu7	0.186800	0.610000	0.666090
Cu81	Cu8	0.313540	0.385190	0.832260
H11	H1	0.034400	0.180900	0.736900
H21	H2	0.418300	0.924100	0.756200
H31	H3	0.912900	0.788300	0.601500
H41	H4	0.943200	0.959400	0.901300
H51	H5	0.961300	0.954400	0.959000
H61	H6	0.867400	0.856800	0.932200
H71	H7	0.542900	0.031400	0.599900
H81	H8	0.602200	0.132700	0.564100
H91	H9	0.520200	0.019500	0.542600
H101	H10	0.079600	0.779100	0.536900
H111	H11	0.010100	0.794400	0.484800
H121	H12	0.092000	0.905300	0.508200
H131	H13	0.586100	0.222700	0.900600
H141	H14	0.517400	0.774900	0.808800
H151	H15	0.390600	0.715900	0.781700
H161	H16	0.540200	0.685200	0.763800
H171	H17	0.451200	0.132700	0.016900
H181	H18	0.473700	0.259600	0.989600
H191	H19	0.385300	0.155200	0.964600
H201	H20	0.096000	0.977900	0.716200
H211	H21	0.220600	0.040900	0.743100
H221	H22	0.126400	0.947400	0.771900
H231	H23	0.034400	0.819100	0.263100
H241	H24	0.418300	0.075900	0.243800
H251	H25	0.912900	0.211700	0.398500
H261	H26	0.943200	0.040600	0.098700
H271	H27	0.961300	0.045600	0.041000
H281	H28	0.867400	0.143200	0.067800
H291	H29	0.542900	0.968600	0.400100
H301	H30	0.602200	0.867300	0.435900
H311	H31	0.520200	0.980500	0.457400
H321	H32	0.079600	0.220900	0.463100
H331	H33	0.010100	0.205600	0.515200
H341	H34	0.092000	0.094700	0.491800
H351	H35	0.586100	0.777300	0.099400
H361	H36	0.517400	0.225100	0.191200
H371	H37	0.390600	0.284100	0.218300
H381	H38	0.540200	0.314800	0.236200
H391	H39	0.451200	0.867300	0.983100
H401	H40	0.473700	0.740400	0.010400
H411	H41	0.385300	0.844800	0.035400
H421	H42	0.096000	0.022100	0.283800
H431	H43	0.220600	0.959100	0.256900
H441	H44	0.126400	0.052600	0.228100
H451	H45	0.965600	0.319100	0.236900
H461	H46	0.581700	0.575900	0.256200
H471	H47	0.087100	0.711700	0.101500
H481	H48	0.056800	0.540600	0.401300
H491	H49	0.038700	0.545600	0.459000
H501	H50	0.132600	0.643200	0.432200
H511	H51	0.457100	0.468600	0.099900
H521	H52	0.397800	0.367300	0.064100
H531	H53	0.479800	0.480500	0.042600
H541	H54	0.920400	0.720900	0.036900
H551	H55	0.989900	0.705600	0.984800
H561	H56	0.908000	0.594700	0.008200
H571	H57	0.413900	0.277300	0.400600
H581	H58	0.482600	0.725100	0.308800
H591	H59	0.609400	0.784100	0.281700
H601	H60	0.459800	0.814800	0.263800
H611	H61	0.548800	0.367300	0.516900
H621	H62	0.526300	0.240400	0.489600
H631	H63	0.614700	0.344800	0.464600
H641	H64	0.904000	0.522100	0.216200
H651	H65	0.779400	0.459100	0.243100
H661	H66	0.873600	0.552600	0.271900
H671	H67	0.965600	0.680900	0.763100
H681	H68	0.581700	0.424100	0.743800
H691	H69	0.087100	0.288300	0.898500
H701	H70	0.056800	0.459400	0.598700
H711	H71	0.038700	0.454400	0.541000
H721	H72	0.132600	0.356800	0.567800
H731	H73	0.457100	0.531400	0.900100
H741	H74	0.397800	0.632700	0.935900
H751	H75	0.479800	0.519500	0.957400
H761	H76	0.920400	0.279100	0.963100
H771	H77	0.989900	0.294400	0.015200
H781	H78	0.908000	0.405300	0.991800
H791	H79	0.413900	0.722700	0.599400
H801	H80	0.482600	0.274900	0.691200
H811	H81	0.609400	0.215900	0.718300
H821	H82	0.459800	0.185200	0.736200
H831	H83	0.548800	0.632700	0.483100
H841	H84	0.526300	0.759600	0.510400
H851	H85	0.614700	0.655200	0.535400
H861	H86	0.904000	0.477900	0.783800
H871	H87	0.779400	0.540900	0.756900
H881	H88	0.873600	0.447400	0.728100
C11	C1	0.820400	0.012000	0.739700
C21	C2	0.685500	0.973500	0.762340
C31	C3	0.808400	0.964500	0.523360
C41	C4	0.905900	0.880500	0.539300
C51	C5	0.416300	0.818100	0.691300
C61	C6	0.036500	0.116900	0.762800
C71	C7	0.083900	0.173200	0.811700
C81	C8	0.717700	0.971500	0.563500
C91	C9	0.476900	0.859200	0.741900
C101	C10	0.898100	0.941600	0.932100
C111	C11	0.583100	0.045700	0.567900
C121	C12	0.033000	0.836000	0.515200
C131	C13	0.684300	0.035200	0.976460
C141	C14	0.481700	0.748500	0.777400
C151	C15	0.778300	0.025300	0.938100
C161	C16	0.587800	0.121600	0.961500
C171	C17	0.463800	0.171600	0.985200
C181	C18	0.128200	0.011200	0.747100
C191	C19	0.820400	0.988000	0.260300
C201	C20	0.685500	0.026500	0.237660
C211	C21	0.808400	0.035500	0.476640
C221	C22	0.905900	0.119500	0.460700
C231	C23	0.416300	0.181900	0.308700
C241	C24	0.036500	0.883100	0.237200
C251	C25	0.083900	0.826800	0.188300
C261	C26	0.717700	0.028500	0.436500
C271	C27	0.476900	0.140800	0.258100
C281	C28	0.898100	0.058400	0.067900
C291	C29	0.583100	0.954300	0.432100
C301	C30	0.033000	0.164000	0.484800
C311	C31	0.684300	0.964800	0.023540
C321	C32	0.481700	0.251500	0.222600
C331	C33	0.778300	0.974700	0.061900
C341	C34	0.587800	0.878400	0.038500
C351	C35	0.463800	0.828400	0.014800
C361	C36	0.128200	0.988800	0.252900
C371	C37	0.179600	0.488000	0.239700
C381	C38	0.314500	0.526500	0.262340
C391	C39	0.191600	0.535500	0.023360
C401	C40	0.094100	0.619500	0.039300
C411	C41	0.583700	0.681900	0.191300
C421	C42	0.963500	0.383100	0.262800
C431	C43	0.916100	0.326800	0.311700
C441	C44	0.282300	0.528500	0.063500
C451	C45	0.523100	0.640800	0.241900
C461	C46	0.101900	0.558400	0.432100
C471	C47	0.416900	0.454300	0.067900
C481	C48	0.967000	0.664000	0.015200
C491	C49	0.315700	0.464800	0.476460
C501	C50	0.518300	0.751500	0.277400
C511	C51	0.221700	0.474700	0.438100
C521	C52	0.412200	0.378400	0.461500
C531	C53	0.536200	0.328400	0.485200
C541	C54	0.871800	0.488800	0.247100
C551	C55	0.179600	0.512000	0.760300
C561	C56	0.314500	0.473500	0.737660
C571	C57	0.191600	0.464500	0.976640
C581	C58	0.094100	0.380500	0.960700
C591	C59	0.583700	0.318100	0.808700
C601	C60	0.963500	0.616900	0.737200
C611	C61	0.916100	0.673200	0.688300
C621	C62	0.282300	0.471500	0.936500
C631	C63	0.523100	0.359200	0.758100
C641	C64	0.101900	0.441600	0.567900
C651	C65	0.416900	0.545700	0.932100
C661	C66	0.967000	0.336000	0.984800
C671	C67	0.315700	0.535200	0.523540
C681	C68	0.518300	0.248500	0.722600
C691	C69	0.221700	0.525300	0.561900
C701	C70	0.412200	0.621600	0.538500
C711	C71	0.536200	0.671600	0.514800
C721	C72	0.871800	0.511200	0.752900
N11	N1	0.752200	0.896200	0.599110
N21	N2	0.747000	0.107200	0.901310
N31	N3	0.609100	0.909500	0.732050
N41	N4	0.896600	0.069900	0.772030
N51	N5	0.868000	0.841900	0.584220
N61	N6	0.628400	0.165700	0.916990
N71	N7	0.752200	0.103800	0.400890
N81	N8	0.747000	0.892800	0.098690
N91	N9	0.609100	0.090500	0.267950
N101	N10	0.896600	0.930100	0.227970
N111	N11	0.868000	0.158100	0.415780
N121	N12	0.628400	0.834300	0.083010
N131	N13	0.247800	0.603800	0.099110
N141	N14	0.253000	0.392800	0.401310
N151	N15	0.390900	0.590500	0.232050
N161	N16	0.103400	0.430100	0.272030
N171	N17	0.132000	0.658100	0.084220
N181	N18	0.371600	0.334300	0.416990
N191	N19	0.247800	0.396200	0.900890
N201	N20	0.253000	0.607200	0.598690
N211	N21	0.390900	0.409500	0.767950
N221	N22	0.103400	0.569900	0.727970
N231	N23	0.132000	0.341900	0.915780
N241	N24	0.371600	0.665700	0.583010
O11	O1	0.844400	0.986400	0.695190
O21	O2	0.658800	0.001800	0.807800
O31	O3	0.995000	0.184000	0.846800
O41	O4	0.497500	0.820100	0.653930
O51	O5	0.293800	0.784700	0.687890
O61	O6	0.206300	0.203400	0.814090
O71	O7	0.844400	0.013600	0.304810
O81	O8	0.658800	0.998200	0.192200
O91	O9	0.995000	0.816000	0.153200
O101	O10	0.497500	0.179900	0.346070
O111	O11	0.293800	0.215300	0.312110
O121	O12	0.206300	0.796600	0.185910
O131	O13	0.155600	0.513600	0.195190
O141	O14	0.341200	0.498200	0.307800
O151	O15	0.005000	0.316000	0.346800
O161	O16	0.502500	0.679900	0.153930
O171	O17	0.706200	0.715300	0.187890
O181	O18	0.793700	0.296600	0.314090
O191	O19	0.155600	0.486400	0.804810
O201	O20	0.341200	0.501800	0.692200
O211	O21	0.005000	0.684000	0.653200
O221	O22	0.502500	0.320100	0.846070
O231	O23	0.706200	0.284700	0.812110
O241	O24	0.793700	0.703400	0.685910
