data_PEGBUA_freeONLY_PM
_symmetry_space_group_name_H-M	'P1'
_cell_length_a	10.682500
_cell_length_b	12.338800
_cell_length_c	17.126000
_cell_angle_alpha	90.000000
_cell_angle_beta	95.447000
_cell_angle_gamma	90.000000
_symmetry_Int_Tables_number 1

loop_
_symmetry_equiv_pos_as_xyz
'x,y,z'

loop_
_atom_site_label
_atom_site_type_symbol
_atom_site_fract_x
_atom_site_fract_y
_atom_site_fract_z
Zn11	Zn1	0.273100	0.263410	0.399090
Zn21	Zn2	0.793080	0.255010	0.543410
Zn31	Zn3	0.226900	0.763410	0.100910
Zn41	Zn4	0.706920	0.755010	0.956590
Zn51	Zn5	0.726900	0.736590	0.600910
Zn61	Zn6	0.206920	0.744990	0.456590
Zn71	Zn7	0.773100	0.236590	0.899090
Zn81	Zn8	0.293080	0.244990	0.043410
H11	H1	0.933100	0.363200	0.787300
H21	H2	0.991000	0.318200	0.710800
H31	H3	0.883800	0.409200	0.702500
H41	H4	0.520400	0.055500	0.644200
H51	H5	0.641800	0.015200	0.604700
H61	H6	0.528400	0.318400	0.338200
H71	H7	0.642700	0.361100	0.397400
H81	H8	0.658500	0.253200	0.347400
H91	H9	0.980400	0.006300	0.326200
H101	H10	0.072500	0.093900	0.293200
H111	H11	0.127200	0.004900	0.355300
H121	H12	0.043200	0.367400	0.574000
H131	H13	0.174300	0.304000	0.583500
H141	H14	0.382700	0.614900	0.363700
H151	H15	0.464300	0.512000	0.394100
H161	H16	0.357600	0.499500	0.322600
H171	H17	0.566900	0.863200	0.712700
H181	H18	0.509000	0.818200	0.789200
H191	H19	0.616200	0.909200	0.797500
H201	H20	0.979600	0.555500	0.855800
H211	H21	0.858200	0.515200	0.895300
H221	H22	0.971600	0.818400	0.161800
H231	H23	0.857300	0.861100	0.102600
H241	H24	0.841500	0.753200	0.152600
H251	H25	0.519600	0.506300	0.173800
H261	H26	0.427500	0.593900	0.206800
H271	H27	0.372800	0.504900	0.144700
H281	H28	0.456800	0.867400	0.926000
H291	H29	0.325700	0.804000	0.916500
H301	H30	0.117300	0.114900	0.136300
H311	H31	0.035700	0.012000	0.105900
H321	H32	0.142400	0.999500	0.177400
H331	H33	0.066900	0.636800	0.212700
H341	H34	0.009000	0.681800	0.289200
H351	H35	0.116200	0.590800	0.297500
H361	H36	0.479600	0.944500	0.355800
H371	H37	0.358200	0.984800	0.395300
H381	H38	0.471600	0.681600	0.661800
H391	H39	0.357300	0.638900	0.602600
H401	H40	0.341500	0.746800	0.652600
H411	H41	0.019600	0.993700	0.673800
H421	H42	0.927500	0.906100	0.706800
H431	H43	0.872800	0.995100	0.644700
H441	H44	0.956800	0.632600	0.426000
H451	H45	0.825700	0.696000	0.416500
H461	H46	0.617300	0.385100	0.636300
H471	H47	0.535700	0.488000	0.605900
H481	H48	0.642400	0.500500	0.677400
H491	H49	0.433100	0.136800	0.287300
H501	H50	0.491000	0.181800	0.210800
H511	H51	0.383800	0.090800	0.202500
H521	H52	0.020400	0.444500	0.144200
H531	H53	0.141800	0.484800	0.104700
H541	H54	0.028400	0.181600	0.838200
H551	H55	0.142700	0.138900	0.897400
H561	H56	0.158500	0.246800	0.847400
H571	H57	0.480400	0.493700	0.826200
H581	H58	0.572500	0.406100	0.793200
H591	H59	0.627200	0.495100	0.855300
H601	H60	0.543200	0.132600	0.074000
H611	H61	0.674300	0.196000	0.083500
H621	H62	0.882700	0.885100	0.863700
H631	H63	0.964300	0.988000	0.894100
H641	H64	0.857600	0.000500	0.822600
C11	C1	0.914400	0.344700	0.731780
C21	C2	0.816200	0.258660	0.723690
C31	C3	0.676800	0.147400	0.675870
C41	C4	0.594400	0.080400	0.618390
C51	C5	0.549200	0.139040	0.544160
C61	C6	0.553400	0.230560	0.439140
C71	C7	0.599700	0.296400	0.375070
C81	C8	0.054900	0.051400	0.339200
C91	C9	0.031800	0.125900	0.404450
C101	C10	0.055500	0.249490	0.491450
C111	C11	0.110500	0.336660	0.544740
C121	C12	0.170800	0.426840	0.503040
C131	C13	0.286100	0.510580	0.429230
C141	C14	0.381000	0.536500	0.372450
C151	C15	0.585600	0.844700	0.768220
C161	C16	0.683800	0.758660	0.776310
C171	C17	0.823200	0.647400	0.824130
C181	C18	0.905600	0.580400	0.881610
C191	C19	0.950800	0.639040	0.955840
C201	C20	0.946600	0.730560	0.060860
C211	C21	0.900300	0.796400	0.124930
C221	C22	0.445100	0.551400	0.160800
C231	C23	0.468200	0.625900	0.095550
C241	C24	0.444500	0.749490	0.008550
C251	C25	0.389500	0.836660	0.955260
C261	C26	0.329200	0.926840	0.996960
C271	C27	0.213900	0.010580	0.070770
C281	C28	0.119000	0.036500	0.127550
C291	C29	0.085600	0.655300	0.268220
C301	C30	0.183800	0.741340	0.276310
C311	C31	0.323200	0.852600	0.324130
C321	C32	0.405600	0.919600	0.381610
C331	C33	0.450800	0.860960	0.455840
C341	C34	0.446600	0.769440	0.560860
C351	C35	0.400300	0.703600	0.624930
C361	C36	0.945100	0.948600	0.660800
C371	C37	0.968200	0.874100	0.595550
C381	C38	0.944500	0.750510	0.508550
C391	C39	0.889500	0.663340	0.455260
C401	C40	0.829200	0.573160	0.496960
C411	C41	0.713900	0.489420	0.570770
C421	C42	0.619000	0.463500	0.627550
C431	C43	0.414400	0.155300	0.231780
C441	C44	0.316200	0.241340	0.223690
C451	C45	0.176800	0.352600	0.175870
C461	C46	0.094400	0.419600	0.118390
C471	C47	0.049200	0.360960	0.044160
C481	C48	0.053400	0.269440	0.939140
C491	C49	0.099700	0.203600	0.875070
C501	C50	0.554900	0.448600	0.839200
C511	C51	0.531800	0.374100	0.904450
C521	C52	0.555500	0.250510	0.991450
C531	C53	0.610500	0.163340	0.044740
C541	C54	0.670800	0.073160	0.003040
C551	C55	0.786100	0.989420	0.929230
C561	C56	0.881000	0.963500	0.872450
N11	N1	0.116790	0.200470	0.435720
N21	N2	0.925500	0.126920	0.437770
N31	N3	0.941990	0.207770	0.494470
N41	N4	0.255250	0.409780	0.449350
N51	N5	0.148910	0.529920	0.515860
N61	N6	0.224330	0.584230	0.466640
N71	N7	0.434590	0.200970	0.444750
N81	N8	0.431510	0.141190	0.513460
N91	N9	0.629230	0.193080	0.500350
N101	N10	0.768850	0.215830	0.655060
N111	N11	0.668770	0.144410	0.751740
N121	N12	0.759640	0.217580	0.782840
N131	N13	0.383210	0.700470	0.064280
N141	N14	0.574500	0.626920	0.062230
N151	N15	0.558010	0.707770	0.005530
N161	N16	0.244750	0.909780	0.050650
N171	N17	0.351090	0.029920	0.984140
N181	N18	0.275670	0.084230	0.033360
N191	N19	0.065410	0.700970	0.055250
N201	N20	0.068490	0.641190	0.986540
N211	N21	0.870770	0.693080	0.999650
N221	N22	0.731150	0.715830	0.844940
N231	N23	0.831230	0.644410	0.748260
N241	N24	0.740360	0.717580	0.717160
N251	N25	0.883210	0.799530	0.564280
N261	N26	0.074500	0.873080	0.562230
N271	N27	0.058010	0.792230	0.505530
N281	N28	0.744750	0.590220	0.550650
N291	N29	0.851090	0.470080	0.484140
N301	N30	0.775670	0.415770	0.533360
N311	N31	0.565410	0.799030	0.555250
N321	N32	0.568490	0.858810	0.486540
N331	N33	0.370770	0.806920	0.499650
N341	N34	0.231150	0.784170	0.344940
N351	N35	0.331230	0.855590	0.248260
N361	N36	0.240360	0.782420	0.217160
N371	N37	0.616790	0.299530	0.935720
N381	N38	0.425500	0.373080	0.937770
N391	N39	0.441990	0.292230	0.994470
N401	N40	0.755250	0.090220	0.949350
N411	N41	0.648910	0.970080	0.015860
N421	N42	0.724330	0.915770	0.966640
N431	N43	0.934590	0.299030	0.944750
N441	N44	0.931510	0.358810	0.013460
N451	N45	0.129230	0.306920	0.000350
N461	N46	0.268850	0.284170	0.155060
N471	N47	0.168770	0.355590	0.251740
N481	N48	0.259640	0.282420	0.282840
