data_PEJFUG_freeONLY_PM
_symmetry_space_group_name_H-M	'P1'
_cell_length_a	20.131000
_cell_length_b	15.670000
_cell_length_c	9.097000
_cell_angle_alpha	90.000000
_cell_angle_beta	105.988000
_cell_angle_gamma	90.000000
_symmetry_Int_Tables_number 1

loop_
_symmetry_equiv_pos_as_xyz
'x,y,z'

loop_
_atom_site_label
_atom_site_type_symbol
_atom_site_fract_x
_atom_site_fract_y
_atom_site_fract_z
Ga11	Ga1	0.161960	0.135690	0.332380
Ga21	Ga2	0.251960	0.883720	0.435630
P11	P1	0.210730	0.979650	0.135950
P21	P2	0.144130	0.233090	0.004490
C11	C1	0.219800	0.275700	0.511300
O11	O1	0.160800	0.245900	0.458500
O21	O2	0.233900	0.345800	0.582600
O31	O3	0.063000	0.133400	0.269600
O41	O4	0.169700	0.213600	0.172600
O51	O5	0.170700	0.035100	0.217800
O61	O6	0.256600	0.916000	0.247700
O71	O7	0.159600	0.932800	0.008200
O81	O8	0.262500	0.030800	0.074500
O91	O9	0.167800	0.164600	0.909500
O101	O10	0.174000	0.319000	0.972500
O111	O11	0.066300	0.238100	0.943800
O121	O12	0.007300	0.248900	0.386700
Ga31	Ga3	0.661960	0.635690	0.332380
Ga41	Ga4	0.751960	0.383720	0.435630
P31	P3	0.710730	0.479650	0.135950
P41	P4	0.644130	0.733090	0.004490
C21	C2	0.719800	0.775700	0.511300
O131	O13	0.660800	0.745900	0.458500
O141	O14	0.733900	0.845800	0.582600
O151	O15	0.563000	0.633400	0.269600
O161	O16	0.669700	0.713600	0.172600
O171	O17	0.670700	0.535100	0.217800
O181	O18	0.756600	0.416000	0.247700
O191	O19	0.659600	0.432800	0.008200
O201	O20	0.762500	0.530800	0.074500
O211	O21	0.667800	0.664600	0.909500
O221	O22	0.674000	0.819000	0.972500
O231	O23	0.566300	0.738100	0.943800
O241	O24	0.507300	0.748900	0.386700
Ga51	Ga5	0.838040	0.135690	0.167620
Ga61	Ga6	0.748040	0.883720	0.064370
P51	P5	0.789270	0.979650	0.364050
P61	P6	0.855870	0.233090	0.495510
C31	C3	0.780200	0.275700	0.988700
O251	O25	0.839200	0.245900	0.041500
O261	O26	0.766100	0.345800	0.917400
O271	O27	0.937000	0.133400	0.230400
O281	O28	0.830300	0.213600	0.327400
O291	O29	0.829300	0.035100	0.282200
O301	O30	0.743400	0.916000	0.252300
O311	O31	0.840400	0.932800	0.491800
O321	O32	0.737500	0.030800	0.425500
O331	O33	0.832200	0.164600	0.590500
O341	O34	0.826000	0.319000	0.527500
O351	O35	0.933700	0.238100	0.556200
O361	O36	0.992700	0.248900	0.113300
Ga71	Ga7	0.338040	0.635690	0.167620
Ga81	Ga8	0.248040	0.383720	0.064370
P71	P7	0.289270	0.479650	0.364050
P81	P8	0.355870	0.733090	0.495510
C41	C4	0.280200	0.775700	0.988700
O371	O37	0.339200	0.745900	0.041500
O381	O38	0.266100	0.845800	0.917400
O391	O39	0.437000	0.633400	0.230400
O401	O40	0.330300	0.713600	0.327400
O411	O41	0.329300	0.535100	0.282200
O421	O42	0.243400	0.416000	0.252300
O431	O43	0.340400	0.432800	0.491800
O441	O44	0.237500	0.530800	0.425500
O451	O45	0.332200	0.664600	0.590500
O461	O46	0.326000	0.819000	0.527500
O471	O47	0.433700	0.738100	0.556200
O481	O48	0.492700	0.748900	0.113300
Ga91	Ga9	0.838040	0.864310	0.667620
Ga101	Ga10	0.748040	0.116280	0.564370
P91	P9	0.789270	0.020350	0.864050
P101	P10	0.855870	0.766910	0.995510
C51	C5	0.780200	0.724300	0.488700
O491	O49	0.839200	0.754100	0.541500
O501	O50	0.766100	0.654200	0.417400
O511	O51	0.937000	0.866600	0.730400
O521	O52	0.830300	0.786400	0.827400
O531	O53	0.829300	0.964900	0.782200
O541	O54	0.743400	0.084000	0.752300
O551	O55	0.840400	0.067200	0.991800
O561	O56	0.737500	0.969200	0.925500
O571	O57	0.832200	0.835400	0.090500
O581	O58	0.826000	0.681000	0.027500
O591	O59	0.933700	0.761900	0.056200
O601	O60	0.992700	0.751100	0.613300
Ga111	Ga11	0.338040	0.364310	0.667620
Ga121	Ga12	0.248040	0.616280	0.564370
P111	P11	0.289270	0.520350	0.864050
P121	P12	0.355870	0.266910	0.995510
C61	C6	0.280200	0.224300	0.488700
O611	O61	0.339200	0.254100	0.541500
O621	O62	0.266100	0.154200	0.417400
O631	O63	0.437000	0.366600	0.730400
O641	O64	0.330300	0.286400	0.827400
O651	O65	0.329300	0.464900	0.782200
O661	O66	0.243400	0.584000	0.752300
O671	O67	0.340400	0.567200	0.991800
O681	O68	0.237500	0.469200	0.925500
O691	O69	0.332200	0.335400	0.090500
O701	O70	0.326000	0.181000	0.027500
O711	O71	0.433700	0.261900	0.056200
O721	O72	0.492700	0.251100	0.613300
Ga131	Ga13	0.161960	0.864310	0.832380
Ga141	Ga14	0.251960	0.116280	0.935630
P131	P13	0.210730	0.020350	0.635950
P141	P14	0.144130	0.766910	0.504490
C71	C7	0.219800	0.724300	0.011300
O731	O73	0.160800	0.754100	0.958500
O741	O74	0.233900	0.654200	0.082600
O751	O75	0.063000	0.866600	0.769600
O761	O76	0.169700	0.786400	0.672600
O771	O77	0.170700	0.964900	0.717800
O781	O78	0.256600	0.084000	0.747700
O791	O79	0.159600	0.067200	0.508200
O801	O80	0.262500	0.969200	0.574500
O811	O81	0.167800	0.835400	0.409500
O821	O82	0.174000	0.681000	0.472500
O831	O83	0.066300	0.761900	0.443800
O841	O84	0.007300	0.751100	0.886700
Ga151	Ga15	0.661960	0.364310	0.832380
Ga161	Ga16	0.751960	0.616280	0.935630
P151	P15	0.710730	0.520350	0.635950
P161	P16	0.644130	0.266910	0.504490
C81	C8	0.719800	0.224300	0.011300
O851	O85	0.660800	0.254100	0.958500
O861	O86	0.733900	0.154200	0.082600
O871	O87	0.563000	0.366600	0.769600
O881	O88	0.669700	0.286400	0.672600
O891	O89	0.670700	0.464900	0.717800
O901	O90	0.756600	0.584000	0.747700
O911	O91	0.659600	0.567200	0.508200
O921	O92	0.762500	0.469200	0.574500
O931	O93	0.667800	0.335400	0.409500
O941	O94	0.674000	0.181000	0.472500
O951	O95	0.566300	0.261900	0.443800
O961	O96	0.507300	0.251100	0.886700
P171	P17	0.000000	0.188960	0.250000
P181	P18	0.500000	0.688960	0.250000
P191	P19	0.000000	0.811040	0.750000
P201	P20	0.500000	0.311040	0.750000
