data_PEJMOI_freeONLY_PM
_symmetry_space_group_name_H-M	'P1'
_cell_length_a	16.055000
_cell_length_b	17.936900
_cell_length_c	17.936900
_cell_angle_alpha	72.882700
_cell_angle_beta	63.413900
_cell_angle_gamma	63.413800
_symmetry_Int_Tables_number 1

loop_
_symmetry_equiv_pos_as_xyz
'x,y,z'

loop_
_atom_site_label
_atom_site_type_symbol
_atom_site_fract_x
_atom_site_fract_y
_atom_site_fract_z
K11	K1	0.258900	0.588380	0.911620
K21	K2	0.258900	0.911620	0.588380
K31	K3	0.741100	0.411620	0.088380
K41	K4	0.741100	0.088380	0.411620
Cd11	Cd1	0.123410	0.267380	0.955020
Cd21	Cd2	0.387610	0.370670	0.820050
Cd31	Cd3	0.845810	0.232620	0.544980
Cd41	Cd4	0.078330	0.129330	0.679950
Cd51	Cd5	0.154190	0.455020	0.767380
Cd61	Cd6	0.921670	0.320050	0.870670
Cd71	Cd7	0.876590	0.044980	0.732620
Cd81	Cd8	0.612390	0.179950	0.629330
Cd91	Cd9	0.876590	0.732620	0.044980
Cd101	Cd10	0.612390	0.629330	0.179950
Cd111	Cd11	0.154190	0.767380	0.455020
Cd121	Cd12	0.921670	0.870670	0.320050
Cd131	Cd13	0.845810	0.544980	0.232620
Cd141	Cd14	0.078330	0.679950	0.129330
Cd151	Cd15	0.123410	0.955020	0.267380
Cd161	Cd16	0.387610	0.820050	0.370670
C11	C1	0.102400	0.415700	0.026700
C21	C2	0.200200	0.399000	0.955200
C31	C3	0.001300	0.157800	0.092600
C41	C4	0.926400	0.217000	0.053200
C51	C5	0.240300	0.810800	0.151000
C61	C6	0.227000	0.755000	0.121200
C71	C7	0.322500	0.840100	0.132100
C81	C8	0.289000	0.697400	0.054000
C91	C9	0.044800	0.084300	0.473300
C101	C10	0.054400	0.101000	0.544800
C111	C11	0.751700	0.342200	0.407400
C121	C12	0.696600	0.283000	0.446800
C131	C13	0.702100	0.689200	0.349000
C141	C14	0.603200	0.745000	0.378800
C151	C15	0.794700	0.659900	0.367900
C161	C16	0.540400	0.802600	0.446000
C171	C17	0.955200	0.526700	0.915700
C181	C18	0.945600	0.455200	0.899000
C191	C19	0.248300	0.592600	0.657800
C201	C20	0.303400	0.553200	0.717000
C211	C21	0.297900	0.651000	0.310800
C221	C22	0.396800	0.621200	0.255000
C231	C23	0.205300	0.632100	0.340100
C241	C24	0.459600	0.554000	0.197400
C251	C25	0.897600	0.973300	0.584300
C261	C26	0.799800	0.044800	0.601000
C271	C27	0.998700	0.907400	0.842200
C281	C28	0.073600	0.946800	0.783000
C291	C29	0.759700	0.849000	0.189200
C301	C30	0.773000	0.878800	0.245000
C311	C31	0.677500	0.867900	0.159900
C321	C32	0.711000	0.946000	0.302600
C331	C33	0.897600	0.584300	0.973300
C341	C34	0.799800	0.601000	0.044800
C351	C35	0.998700	0.842200	0.907400
C361	C36	0.073600	0.783000	0.946800
C371	C37	0.759700	0.189200	0.849000
C381	C38	0.773000	0.245000	0.878800
C391	C39	0.677500	0.159900	0.867900
C401	C40	0.711000	0.302600	0.946000
C411	C41	0.955200	0.915700	0.526700
C421	C42	0.945600	0.899000	0.455200
C431	C43	0.248300	0.657800	0.592600
C441	C44	0.303400	0.717000	0.553200
C451	C45	0.297900	0.310800	0.651000
C461	C46	0.396800	0.255000	0.621200
C471	C47	0.205300	0.340100	0.632100
C481	C48	0.459600	0.197400	0.554000
C491	C49	0.044800	0.473300	0.084300
C501	C50	0.054400	0.544800	0.101000
C511	C51	0.751700	0.407400	0.342200
C521	C52	0.696600	0.446800	0.283000
C531	C53	0.702100	0.349000	0.689200
C541	C54	0.603200	0.378800	0.745000
C551	C55	0.794700	0.367900	0.659900
C561	C56	0.540400	0.446000	0.802600
C571	C57	0.102400	0.026700	0.415700
C581	C58	0.200200	0.955200	0.399000
C591	C59	0.001300	0.092600	0.157800
C601	C60	0.926400	0.053200	0.217000
C611	C61	0.240300	0.151000	0.810800
C621	C62	0.227000	0.121200	0.755000
C631	C63	0.322500	0.132100	0.840100
C641	C64	0.289000	0.054000	0.697400
N11	N1	0.049000	0.368900	0.040900
N21	N2	0.091500	0.164500	0.062900
N31	N3	0.152400	0.844400	0.213000
N41	N4	0.086300	0.814000	0.221800
N51	N5	0.131300	0.759400	0.165600
N61	N6	0.958800	0.131100	0.459100
N71	N7	0.818900	0.335500	0.437100
N81	N8	0.709800	0.655600	0.287000
N91	N9	0.622100	0.686000	0.278200
N101	N10	0.556300	0.740600	0.334400
N111	N11	0.041200	0.540900	0.868900
N121	N12	0.181100	0.562900	0.664500
N131	N13	0.290200	0.713000	0.344400
N141	N14	0.377900	0.721800	0.314000
N151	N15	0.443700	0.665600	0.259400
N161	N16	0.951000	0.959100	0.631100
N171	N17	0.908500	0.937100	0.835500
N181	N18	0.847600	0.787000	0.155600
N191	N19	0.913700	0.778200	0.186000
N201	N20	0.868700	0.834400	0.240600
N211	N21	0.951000	0.631100	0.959100
N221	N22	0.908500	0.835500	0.937100
N231	N23	0.847600	0.155600	0.787000
N241	N24	0.913700	0.186000	0.778200
N251	N25	0.868700	0.240600	0.834400
N261	N26	0.041200	0.868900	0.540900
N271	N27	0.181100	0.664500	0.562900
N281	N28	0.290200	0.344400	0.713000
N291	N29	0.377900	0.314000	0.721800
N301	N30	0.443700	0.259400	0.665600
N311	N31	0.958800	0.459100	0.131100
N321	N32	0.818900	0.437100	0.335500
N331	N33	0.709800	0.287000	0.655600
N341	N34	0.622100	0.278200	0.686000
N351	N35	0.556300	0.334400	0.740600
N361	N36	0.049000	0.040900	0.368900
N371	N37	0.091500	0.062900	0.164500
N381	N38	0.152400	0.213000	0.844400
N391	N39	0.086300	0.221800	0.814000
N401	N40	0.131300	0.165600	0.759400
N411	N41	0.960900	0.395000	0.105000
N421	N42	0.960900	0.105000	0.395000
N431	N43	0.039100	0.605000	0.895000
N441	N44	0.039100	0.895000	0.605000
N451	N45	0.145200	0.106700	0.106700
N461	N46	0.858600	0.393300	0.393300
N471	N47	0.141400	0.606700	0.606700
N481	N48	0.854800	0.893300	0.893300
O11	O1	0.215770	0.357430	0.900430
O21	O2	0.263450	0.425450	0.949050
O31	O3	0.956000	0.267800	0.991200
O41	O4	0.859500	0.194000	0.058800
O51	O5	0.297700	0.900600	0.169400
O61	O6	0.407700	0.803300	0.083300
O71	O7	0.254000	0.647300	0.055300
O81	O8	0.368500	0.704200	0.001200
O91	O9	0.415100	0.243100	0.905300
O101	O10	0.973630	0.142570	0.599570
O111	O11	0.137950	0.074550	0.550950
O121	O12	0.715000	0.232200	0.508800
O131	O13	0.612300	0.306000	0.441200
O141	O14	0.867700	0.599400	0.330600
O151	O15	0.794300	0.696700	0.416700
O161	O16	0.456600	0.852700	0.444700
O171	O17	0.573900	0.795800	0.498800
O181	O18	0.063500	0.256900	0.594700
O191	O19	0.026370	0.400430	0.857430
O201	O20	0.862050	0.449050	0.925450
O211	O21	0.285000	0.491200	0.767800
O221	O22	0.387700	0.558800	0.694000
O231	O23	0.132300	0.669400	0.400600
O241	O24	0.205700	0.583300	0.303300
O251	O25	0.543400	0.555300	0.147300
O261	O26	0.426100	0.501200	0.204200
O271	O27	0.936500	0.405300	0.743100
O281	O28	0.784230	0.099570	0.642570
O291	O29	0.736550	0.050950	0.574550
O301	O30	0.044000	0.008800	0.732200
O311	O31	0.140500	0.941200	0.806000
O321	O32	0.702300	0.830600	0.099400
O331	O33	0.592300	0.916700	0.196700
O341	O34	0.746000	0.944700	0.352700
O351	O35	0.631500	0.998800	0.295800
O361	O36	0.584900	0.094700	0.756900
O371	O37	0.784230	0.642570	0.099570
O381	O38	0.736550	0.574550	0.050950
O391	O39	0.044000	0.732200	0.008800
O401	O40	0.140500	0.806000	0.941200
O411	O41	0.702300	0.099400	0.830600
O421	O42	0.592300	0.196700	0.916700
O431	O43	0.746000	0.352700	0.944700
O441	O44	0.631500	0.295800	0.998800
O451	O45	0.584900	0.756900	0.094700
O461	O46	0.026370	0.857430	0.400430
O471	O47	0.862050	0.925450	0.449050
O481	O48	0.285000	0.767800	0.491200
O491	O49	0.387700	0.694000	0.558800
O501	O50	0.132300	0.400600	0.669400
O511	O51	0.205700	0.303300	0.583300
O521	O52	0.543400	0.147300	0.555300
O531	O53	0.426100	0.204200	0.501200
O541	O54	0.936500	0.743100	0.405300
O551	O55	0.973630	0.599570	0.142570
O561	O56	0.137950	0.550950	0.074550
O571	O57	0.715000	0.508800	0.232200
O581	O58	0.612300	0.441200	0.306000
O591	O59	0.867700	0.330600	0.599400
O601	O60	0.794300	0.416700	0.696700
O611	O61	0.456600	0.444700	0.852700
O621	O62	0.573900	0.498800	0.795800
O631	O63	0.063500	0.594700	0.256900
O641	O64	0.215770	0.900430	0.357430
O651	O65	0.263450	0.949050	0.425450
O661	O66	0.956000	0.991200	0.267800
O671	O67	0.859500	0.058800	0.194000
O681	O68	0.297700	0.169400	0.900600
O691	O69	0.407700	0.083300	0.803300
O701	O70	0.254000	0.055300	0.647300
O711	O71	0.368500	0.001200	0.704200
O721	O72	0.415100	0.905300	0.243100
O731	O73	0.422900	0.647900	0.852100
O741	O74	0.422900	0.852100	0.647900
O751	O75	0.577100	0.352100	0.147900
O761	O76	0.577100	0.147900	0.352100
