data_PELXIP_freeONLY_PM
_symmetry_space_group_name_H-M	'P1'
_cell_length_a	12.380000
_cell_length_b	16.488000
_cell_length_c	21.246000
_cell_angle_alpha	90.000000
_cell_angle_beta	90.000000
_cell_angle_gamma	90.000000
_symmetry_Int_Tables_number 1

loop_
_symmetry_equiv_pos_as_xyz
'x,y,z'

loop_
_atom_site_label
_atom_site_type_symbol
_atom_site_fract_x
_atom_site_fract_y
_atom_site_fract_z
Cd11	Cd1	0.480810	0.939690	0.728700
Cd21	Cd2	0.226440	0.820720	0.687250
Cd31	Cd3	0.729150	0.799220	0.731600
Cd41	Cd4	0.488180	0.829970	0.200230
Cd51	Cd5	0.019190	0.439690	0.771300
Cd61	Cd6	0.273560	0.320720	0.812750
Cd71	Cd7	0.770850	0.299220	0.768400
Cd81	Cd8	0.011820	0.329970	0.299770
Cd91	Cd9	0.519190	0.060310	0.271300
Cd101	Cd10	0.773560	0.179280	0.312750
Cd111	Cd11	0.270850	0.200780	0.268400
Cd121	Cd12	0.511820	0.170030	0.799770
Cd131	Cd13	0.980810	0.560310	0.228700
Cd141	Cd14	0.726440	0.679280	0.187250
Cd151	Cd15	0.229150	0.700780	0.231600
Cd161	Cd16	0.988180	0.670030	0.700230
H11	H1	0.729300	0.415300	0.617000
H21	H2	0.585900	0.459300	0.559400
H31	H3	0.488200	0.572000	0.590500
H41	H4	0.703000	0.610900	0.728700
H51	H5	0.363900	0.873300	0.945800
H61	H6	0.071000	0.796200	0.995800
H71	H7	0.009000	0.822300	0.894900
H81	H8	0.126600	0.872800	0.819600
H91	H9	0.200300	0.005600	0.738900
H101	H10	0.944700	0.082000	0.640500
H111	H11	0.031000	0.204200	0.622400
H121	H12	0.193800	0.231500	0.669800
H131	H13	0.692700	0.234800	0.548000
H141	H14	0.602100	0.180000	0.465600
H151	H15	0.459800	0.089100	0.484100
H161	H16	0.525400	0.098700	0.669600
H171	H17	0.196000	0.718000	0.590000
H181	H18	0.102000	0.757000	0.584000
H191	H19	0.770700	0.915300	0.883000
H201	H20	0.914100	0.959300	0.940600
H211	H21	0.011800	0.072000	0.909500
H221	H22	0.797000	0.110900	0.771300
H231	H23	0.136100	0.373300	0.554200
H241	H24	0.429000	0.296200	0.504200
H251	H25	0.491000	0.322300	0.605100
H261	H26	0.373400	0.372800	0.680400
H271	H27	0.299700	0.505600	0.761100
H281	H28	0.555300	0.582000	0.859500
H291	H29	0.469000	0.704200	0.877600
H301	H30	0.306200	0.731500	0.830200
H311	H31	0.807300	0.734800	0.952000
H321	H32	0.897900	0.680000	0.034400
H331	H33	0.040200	0.589100	0.015900
H341	H34	0.974600	0.598700	0.830400
H351	H35	0.304000	0.218000	0.910000
H361	H36	0.398000	0.257000	0.916000
H371	H37	0.270700	0.584700	0.383000
H381	H38	0.414100	0.540700	0.440600
H391	H39	0.511800	0.428000	0.409500
H401	H40	0.297000	0.389100	0.271300
H411	H41	0.636100	0.126700	0.054200
H421	H42	0.929000	0.203800	0.004200
H431	H43	0.991000	0.177700	0.105100
H441	H44	0.873400	0.127200	0.180400
H451	H45	0.799700	0.994400	0.261100
H461	H46	0.055300	0.918000	0.359500
H471	H47	0.969000	0.795800	0.377600
H481	H48	0.806200	0.768500	0.330200
H491	H49	0.307300	0.765200	0.452000
H501	H50	0.397900	0.820000	0.534400
H511	H51	0.540200	0.910900	0.515900
H521	H52	0.474600	0.901300	0.330400
H531	H53	0.804000	0.282000	0.410000
H541	H54	0.898000	0.243000	0.416000
H551	H55	0.229300	0.084700	0.117000
H561	H56	0.085900	0.040700	0.059400
H571	H57	0.988200	0.928000	0.090500
H581	H58	0.203000	0.889100	0.228700
H591	H59	0.863900	0.626700	0.445800
H601	H60	0.571000	0.703800	0.495800
H611	H61	0.509000	0.677700	0.394900
H621	H62	0.626600	0.627200	0.319600
H631	H63	0.700300	0.494400	0.238900
H641	H64	0.444700	0.418000	0.140500
H651	H65	0.531000	0.295800	0.122400
H661	H66	0.693800	0.268500	0.169800
H671	H67	0.192700	0.265200	0.048000
H681	H68	0.102100	0.320000	0.965600
H691	H69	0.959800	0.410900	0.984100
H701	H70	0.025400	0.401300	0.169600
H711	H71	0.696000	0.782000	0.090000
H721	H72	0.602000	0.743000	0.084000
C11	C1	0.831300	0.483000	0.711600
C21	C2	0.731900	0.510000	0.677400
C31	C3	0.694600	0.463500	0.627600
C41	C4	0.607800	0.488400	0.594700
C51	C5	0.550100	0.557100	0.612500
C61	C6	0.585000	0.603300	0.663000
C71	C7	0.523400	0.676800	0.680400
C81	C8	0.677600	0.579900	0.695300
C91	C9	0.334700	0.901700	0.825300
C101	C10	0.258000	0.876000	0.874800
C111	C11	0.292600	0.861800	0.935300
C121	C12	0.225500	0.831300	0.980600
C131	C13	0.264400	0.813100	0.043700
C141	C14	0.118000	0.816500	0.965500
C151	C15	0.080900	0.832000	0.905200
C161	C16	0.151600	0.862100	0.860100
C171	C17	0.319300	0.139200	0.740000
C181	C18	0.213900	0.122100	0.709000
C191	C19	0.165000	0.045900	0.716100
C201	C20	0.065600	0.030000	0.689900
C211	C21	0.012400	0.952600	0.698600
C221	C22	0.013600	0.090900	0.656600
C231	C23	0.064000	0.165000	0.647300
C241	C24	0.162100	0.180800	0.674600
C251	C25	0.677400	0.210000	0.671500
C261	C26	0.619600	0.171600	0.616400
C271	C27	0.639800	0.195900	0.555400
C281	C28	0.584800	0.164800	0.506500
C291	C29	0.500300	0.108700	0.517700
C301	C30	0.477300	0.082400	0.579000
C311	C31	0.393700	0.022500	0.590500
C321	C32	0.538800	0.115000	0.628400
C331	C33	0.668700	0.983000	0.788400
C341	C34	0.768100	0.010000	0.822600
C351	C35	0.805400	0.963500	0.872400
C361	C36	0.892200	0.988400	0.905300
C371	C37	0.949900	0.057100	0.887500
C381	C38	0.915000	0.103300	0.837000
C391	C39	0.976600	0.176800	0.819600
C401	C40	0.822400	0.079900	0.804700
C411	C41	0.165300	0.401700	0.674700
C421	C42	0.242000	0.376000	0.625200
C431	C43	0.207400	0.361800	0.564700
C441	C44	0.274500	0.331300	0.519400
C451	C45	0.235600	0.313100	0.456300
C461	C46	0.382000	0.316500	0.534500
C471	C47	0.419100	0.332000	0.594800
C481	C48	0.348400	0.362100	0.639900
C491	C49	0.180700	0.639200	0.760000
C501	C50	0.286100	0.622100	0.791000
C511	C51	0.335000	0.545900	0.783900
C521	C52	0.434400	0.530000	0.810100
C531	C53	0.487600	0.452600	0.801400
C541	C54	0.486400	0.590900	0.843400
C551	C55	0.436000	0.665000	0.852700
C561	C56	0.337900	0.680800	0.825400
C571	C57	0.822600	0.710000	0.828500
C581	C58	0.880400	0.671600	0.883600
C591	C59	0.860200	0.695900	0.944600
C601	C60	0.915200	0.664800	0.993500
C611	C61	0.999700	0.608700	0.982300
C621	C62	0.022700	0.582400	0.921000
C631	C63	0.106300	0.522500	0.909500
C641	C64	0.961200	0.615000	0.871600
C651	C65	0.168700	0.517000	0.288400
C661	C66	0.268100	0.490000	0.322600
C671	C67	0.305400	0.536500	0.372400
C681	C68	0.392200	0.511600	0.405300
C691	C69	0.449900	0.442900	0.387500
C701	C70	0.415000	0.396700	0.337000
C711	C71	0.476600	0.323200	0.319600
C721	C72	0.322400	0.420100	0.304700
C731	C73	0.665300	0.098300	0.174700
C741	C74	0.742000	0.124000	0.125200
C751	C75	0.707400	0.138200	0.064700
C761	C76	0.774500	0.168700	0.019400
C771	C77	0.735600	0.186900	0.956300
C781	C78	0.882000	0.183500	0.034500
C791	C79	0.919100	0.168000	0.094800
C801	C80	0.848400	0.137900	0.139900
C811	C81	0.680700	0.860800	0.260000
C821	C82	0.786100	0.877900	0.291000
C831	C83	0.835000	0.954100	0.283900
C841	C84	0.934400	0.970000	0.310100
C851	C85	0.987600	0.047400	0.301400
C861	C86	0.986400	0.909100	0.343400
C871	C87	0.936000	0.835000	0.352700
C881	C88	0.837900	0.819200	0.325400
C891	C89	0.322600	0.790000	0.328500
C901	C90	0.380400	0.828400	0.383600
C911	C91	0.360200	0.804100	0.444600
C921	C92	0.415200	0.835200	0.493500
C931	C93	0.499700	0.891300	0.482300
C941	C94	0.522700	0.917600	0.421000
C951	C95	0.606300	0.977500	0.409500
C961	C96	0.461200	0.885000	0.371600
C971	C97	0.331300	0.017000	0.211600
C981	C98	0.231900	0.990000	0.177400
C991	C99	0.194600	0.036500	0.127600
C1001	C100	0.107800	0.011600	0.094700
C1011	C101	0.050100	0.942900	0.112500
C1021	C102	0.085000	0.896700	0.163000
C1031	C103	0.023400	0.823200	0.180400
C1041	C104	0.177600	0.920100	0.195300
C1051	C105	0.834700	0.598300	0.325300
C1061	C106	0.758000	0.624000	0.374800
C1071	C107	0.792600	0.638200	0.435300
C1081	C108	0.725500	0.668700	0.480600
C1091	C109	0.764400	0.686900	0.543700
C1101	C110	0.618000	0.683500	0.465500
C1111	C111	0.580900	0.668000	0.405200
C1121	C112	0.651600	0.637900	0.360100
C1131	C113	0.819300	0.360800	0.240000
C1141	C114	0.713900	0.377900	0.209000
C1151	C115	0.665000	0.454100	0.216100
C1161	C116	0.565600	0.470000	0.189900
C1171	C117	0.512400	0.547400	0.198600
C1181	C118	0.513600	0.409100	0.156600
C1191	C119	0.564000	0.335000	0.147300
C1201	C120	0.662100	0.319200	0.174600
C1211	C121	0.177400	0.290000	0.171500
C1221	C122	0.119600	0.328400	0.116400
C1231	C123	0.139800	0.304100	0.055400
C1241	C124	0.084800	0.335200	0.006500
C1251	C125	0.000300	0.391300	0.017700
C1261	C126	0.977300	0.417600	0.079000
C1271	C127	0.893700	0.477500	0.090500
C1281	C128	0.038800	0.385000	0.128400
N11	N1	0.562600	0.742300	0.708800
N21	N2	0.478900	0.795100	0.711500
N31	N3	0.394700	0.761100	0.685600
N41	N4	0.419800	0.686000	0.665600
N51	N5	0.354500	0.843400	0.069400
N61	N6	0.359900	0.810400	0.127000
N71	N7	0.276400	0.762000	0.135300
N81	N8	0.214400	0.762400	0.083500
N91	N9	0.060900	0.878300	0.699400
N101	N10	0.980300	0.824300	0.709300
N111	N11	0.889200	0.864300	0.713200
N121	N12	0.906000	0.944800	0.706000
N131	N13	0.391600	0.967500	0.637200
N141	N14	0.298000	0.926700	0.627800
N151	N15	0.249800	0.954000	0.578200
N161	N16	0.307900	0.014700	0.553900
N171	N17	0.937400	0.242300	0.791200
N181	N18	0.021100	0.295100	0.788500
N191	N19	0.105300	0.261100	0.814400
N201	N20	0.080200	0.186000	0.834400
N211	N21	0.145500	0.343400	0.430600
N221	N22	0.140100	0.310400	0.373000
N231	N23	0.223600	0.262000	0.364700
N241	N24	0.285600	0.262400	0.416500
N251	N25	0.439100	0.378300	0.800600
N261	N26	0.519700	0.324300	0.790700
N271	N27	0.610800	0.364300	0.786800
N281	N28	0.594000	0.444800	0.794000
N291	N29	0.108400	0.467500	0.862800
N301	N30	0.202000	0.426700	0.872200
N311	N31	0.250200	0.454000	0.921800
N321	N32	0.192100	0.514700	0.946100
N331	N33	0.437400	0.257700	0.291200
N341	N34	0.521100	0.204900	0.288500
N351	N35	0.605300	0.238900	0.314400
N361	N36	0.580200	0.314000	0.334400
N371	N37	0.645500	0.156600	0.930600
N381	N38	0.640100	0.189600	0.873000
N391	N39	0.723600	0.238000	0.864700
N401	N40	0.785600	0.237600	0.916500
N411	N41	0.939100	0.121700	0.300600
N421	N42	0.019700	0.175700	0.290700
N431	N43	0.110800	0.135700	0.286800
N441	N44	0.094000	0.055200	0.294000
N451	N45	0.608400	0.032500	0.362800
N461	N46	0.702000	0.073300	0.372200
N471	N47	0.750200	0.046000	0.421800
N481	N48	0.692100	0.985300	0.446100
N491	N49	0.062600	0.757700	0.208800
N501	N50	0.978900	0.704900	0.211500
N511	N51	0.894700	0.738900	0.185600
N521	N52	0.919800	0.814000	0.165600
N531	N53	0.854500	0.656600	0.569400
N541	N54	0.859900	0.689600	0.627000
N551	N55	0.776400	0.738000	0.635300
N561	N56	0.714400	0.737600	0.583500
N571	N57	0.560900	0.621700	0.199400
N581	N58	0.480300	0.675700	0.209300
N591	N59	0.389200	0.635700	0.213200
N601	N60	0.406000	0.555200	0.206000
N611	N61	0.891600	0.532500	0.137200
N621	N62	0.798000	0.573300	0.127800
N631	N63	0.749800	0.546000	0.078200
N641	N64	0.807900	0.485300	0.053900
O11	O1	0.895600	0.533400	0.733800
O21	O2	0.849400	0.407300	0.717900
O31	O3	0.428600	0.925800	0.839100
O41	O4	0.307300	0.895700	0.767400
O51	O5	0.384000	0.083700	0.753700
O61	O6	0.344600	0.212600	0.753800
O71	O7	0.642400	0.200000	0.726700
O81	O8	0.759400	0.252600	0.662700
O91	O9	0.152100	0.747100	0.607400
O101	O10	0.604400	0.033400	0.766200
O111	O11	0.650600	0.907300	0.782100
O121	O12	0.071400	0.425800	0.660900
O131	O13	0.192700	0.395700	0.732600
O141	O14	0.116000	0.583700	0.746300
O151	O15	0.155400	0.712600	0.746200
O161	O16	0.857600	0.700000	0.773300
O171	O17	0.740600	0.752600	0.837300
O181	O18	0.347900	0.247100	0.892600
O191	O19	0.104400	0.466600	0.266200
O201	O20	0.150600	0.592700	0.282100
O211	O21	0.571400	0.074200	0.160900
O221	O22	0.692700	0.104300	0.232600
O231	O23	0.616000	0.916300	0.246300
O241	O24	0.655400	0.787400	0.246200
O251	O25	0.357600	0.800000	0.273300
O261	O26	0.240600	0.747400	0.337300
O271	O27	0.847900	0.252900	0.392600
O281	O28	0.395600	0.966600	0.233800
O291	O29	0.349400	0.092700	0.217900
O301	O30	0.928600	0.574200	0.339100
O311	O31	0.807300	0.604300	0.267400
O321	O32	0.884000	0.416300	0.253700
O331	O33	0.844600	0.287400	0.253800
O341	O34	0.142400	0.300000	0.226700
O351	O35	0.259400	0.247400	0.162700
O361	O36	0.652100	0.752900	0.107400
