data_PEMRIK_freeONLY_PM
_symmetry_space_group_name_H-M	'P1'
_cell_length_a	13.763300
_cell_length_b	16.602700
_cell_length_c	19.230300
_cell_angle_alpha	115.574000
_cell_angle_beta	103.772000
_cell_angle_gamma	90.000000
_symmetry_Int_Tables_number 1

loop_
_symmetry_equiv_pos_as_xyz
'x,y,z'

loop_
_atom_site_label
_atom_site_type_symbol
_atom_site_fract_x
_atom_site_fract_y
_atom_site_fract_z
Zn11	Zn1	0.755880	0.080050	0.651120
Zn21	Zn2	0.816300	0.158550	0.827540
Zn31	Zn3	0.255880	0.571070	0.651120
Zn41	Zn4	0.316300	0.668990	0.827540
H11	H1	0.058000	0.003000	0.843400
H21	H2	0.155900	0.889600	0.842000
H31	H3	0.068800	0.767800	0.601800
H41	H4	0.974300	0.883900	0.603000
H51	H5	0.509400	0.474500	0.878000
H61	H6	0.416400	0.351100	0.637200
H71	H7	0.514000	0.237000	0.635400
H81	H8	0.608500	0.361700	0.876000
H91	H9	0.879400	0.056300	0.918400
H101	H10	0.977300	0.076600	0.041200
H111	H11	0.964100	0.341900	0.120600
H121	H12	0.868600	0.313200	0.995200
H131	H13	0.205600	0.184800	0.283800
H141	H14	0.029600	0.424200	0.374000
H151	H15	0.084500	0.529000	0.506400
H161	H16	0.338400	0.425800	0.533400
H171	H17	0.292000	0.319500	0.401000
H181	H18	0.558000	0.840400	0.843400
H191	H19	0.655900	0.952400	0.842000
H201	H20	0.568800	0.834000	0.601800
H211	H21	0.474300	0.719100	0.603000
H221	H22	0.009400	0.403500	0.878000
H231	H23	0.916400	0.286100	0.637200
H241	H24	0.014000	0.398400	0.635400
H251	H25	0.108500	0.514300	0.876000
H261	H26	0.379400	0.862100	0.918400
H271	H27	0.477300	0.964600	0.041200
H281	H28	0.464100	0.778700	0.120600
H291	H29	0.368600	0.682000	0.995200
H301	H30	0.705600	0.099000	0.283800
H311	H31	0.529600	0.949800	0.374000
H321	H32	0.584500	0.977400	0.506400
H331	H33	0.838400	0.107600	0.533400
H341	H34	0.792000	0.081500	0.401000
C11	C1	0.178600	0.739620	0.722280
C21	C2	0.931300	0.021680	0.725000
C31	C3	0.003100	0.953270	0.723200
C41	C4	0.059500	0.955010	0.794320
C51	C5	0.117400	0.887340	0.793600
C61	C6	0.119350	0.815440	0.721560
C71	C7	0.066200	0.815180	0.650860
C81	C8	0.009200	0.884140	0.651580
C91	C9	0.393800	0.500690	0.757840
C101	C10	0.454460	0.425550	0.757700
C111	C11	0.511300	0.427060	0.828920
C121	C12	0.455600	0.353520	0.685560
C131	C13	0.642330	0.218530	0.753180
C141	C14	0.572300	0.288040	0.755300
C151	C15	0.513900	0.285440	0.684460
C161	C16	0.569800	0.359610	0.827700
C171	C17	0.899000	0.115090	0.959560
C181	C18	0.956800	0.126490	0.032920
C191	C19	0.984000	0.212440	0.093980
C201	C20	0.949300	0.282710	0.079760
C211	C21	0.892600	0.264820	0.004580
C221	C22	0.123400	0.291580	0.290860
C231	C23	0.156600	0.208280	0.256960
C241	C24	0.154500	0.359040	0.373660
C251	C25	0.092800	0.422960	0.405620
C261	C26	0.126000	0.484840	0.484860
C271	C27	0.275000	0.424820	0.500840
C281	C28	0.247700	0.360970	0.421740
C291	C29	0.678600	0.982660	0.722280
C301	C30	0.431300	0.703320	0.725000
C311	C31	0.503100	0.769930	0.723200
C321	C32	0.559500	0.839310	0.794320
C331	C33	0.617400	0.906260	0.793600
C341	C34	0.619350	0.906120	0.721560
C351	C35	0.566200	0.835680	0.650860
C361	C36	0.509200	0.767440	0.651580
C371	C37	0.893800	0.257150	0.757840
C381	C38	0.954460	0.332150	0.757700
C391	C39	0.011300	0.401860	0.828920
C401	C40	0.955600	0.332040	0.685560
C411	C41	0.142330	0.534650	0.753180
C421	C42	0.072300	0.467260	0.755300
C431	C43	0.013900	0.399020	0.684460
C441	C44	0.069800	0.468090	0.827700
C451	C45	0.399000	0.844470	0.959560
C461	C46	0.456800	0.906430	0.032920
C471	C47	0.484000	0.881540	0.093980
C481	C48	0.449300	0.797050	0.079760
C491	C49	0.392600	0.739760	0.004580
C501	C50	0.623400	0.999280	0.290860
C511	C51	0.656600	0.048680	0.256960
C521	C52	0.654500	0.014620	0.373660
C531	C53	0.592800	0.982660	0.405620
C541	C54	0.626000	0.000020	0.484860
C551	C55	0.775000	0.076020	0.500840
C561	C56	0.747700	0.060770	0.421740
N11	N1	0.869720	0.183060	0.944400
N21	N2	0.214260	0.484950	0.532380
N31	N3	0.047600	0.227150	0.169060
N41	N4	0.054690	0.303480	0.235580
N51	N5	0.107000	0.166430	0.179100
N61	N6	0.369720	0.761340	0.944400
N71	N7	0.714260	0.047430	0.532380
N81	N8	0.547600	0.941910	0.169060
N91	N9	0.554690	0.932100	0.235580
N101	N10	0.607000	0.012670	0.179100
O11	O1	0.176030	0.675040	0.655760
O21	O2	0.225810	0.746570	0.788800
O31	O3	0.925870	0.078570	0.792240
O41	O4	0.879670	0.015800	0.659580
O51	O5	0.396500	0.564810	0.824320
O61	O6	0.345220	0.493750	0.691460
O71	O7	0.696080	0.226620	0.818760
O81	O8	0.643990	0.158930	0.685380
O91	O9	0.676030	0.980720	0.655760
O101	O10	0.725810	0.042230	0.788800
O111	O11	0.425870	0.713670	0.792240
O121	O12	0.379670	0.643780	0.659580
O131	O13	0.896500	0.259510	0.824320
O141	O14	0.845220	0.197710	0.691460
O151	O15	0.196080	0.592140	0.818760
O161	O16	0.143990	0.526450	0.685380
Zn51	Zn5	0.744120	0.428930	0.348880
Zn61	Zn6	0.683700	0.331010	0.172460
Zn71	Zn7	0.244120	0.919950	0.348880
Zn81	Zn8	0.183700	0.841450	0.172460
H351	H35	0.442000	0.159600	0.156600
H361	H36	0.344100	0.047600	0.158000
H371	H37	0.431200	0.166000	0.398200
H381	H38	0.525700	0.280900	0.397000
H391	H39	0.990600	0.596500	0.122000
H401	H40	0.083600	0.713900	0.362800
H411	H41	0.986000	0.601600	0.364600
H421	H42	0.891500	0.485700	0.124000
H431	H43	0.620600	0.137900	0.081600
H441	H44	0.522700	0.035400	0.958800
H451	H45	0.535900	0.221300	0.879400
H461	H46	0.631400	0.318000	0.004800
H471	H47	0.294400	0.901000	0.716200
H481	H48	0.470400	0.050200	0.626000
H491	H49	0.415500	0.022600	0.493600
H501	H50	0.161600	0.892400	0.466600
H511	H51	0.208000	0.918500	0.599000
H521	H52	0.942000	0.997000	0.156600
H531	H53	0.844100	0.110400	0.158000
H541	H54	0.931200	0.232200	0.398200
H551	H55	0.025700	0.116100	0.397000
H561	H56	0.490600	0.525500	0.122000
H571	H57	0.583600	0.648900	0.362800
H581	H58	0.486000	0.763000	0.364600
H591	H59	0.391500	0.638300	0.124000
H601	H60	0.120600	0.943700	0.081600
H611	H61	0.022700	0.923400	0.958800
H621	H62	0.035900	0.658100	0.879400
H631	H63	0.131400	0.686800	0.004800
H641	H64	0.794400	0.815200	0.716200
H651	H65	0.970400	0.575800	0.626000
H661	H66	0.915500	0.471000	0.493600
H671	H67	0.661600	0.574200	0.466600
H681	H68	0.708000	0.680500	0.599000
C571	C57	0.321400	0.017340	0.277720
C581	C58	0.568700	0.296680	0.275000
C591	C59	0.496900	0.230070	0.276800
C601	C60	0.440500	0.160690	0.205680
C611	C61	0.382600	0.093740	0.206400
C621	C62	0.380650	0.093880	0.278440
C631	C63	0.433800	0.164320	0.349140
C641	C64	0.490800	0.232560	0.348420
C651	C65	0.106200	0.742850	0.242160
C661	C66	0.045540	0.667850	0.242300
C671	C67	0.988700	0.598140	0.171080
C681	C68	0.044400	0.667960	0.314440
C691	C69	0.857670	0.465350	0.246820
C701	C70	0.927700	0.532740	0.244700
C711	C71	0.986100	0.600980	0.315540
C721	C72	0.930200	0.531910	0.172300
C731	C73	0.601000	0.155530	0.040440
C741	C74	0.543200	0.093570	0.967080
C751	C75	0.516000	0.118460	0.906020
C761	C76	0.550700	0.202950	0.920240
C771	C77	0.607400	0.260240	0.995420
C781	C78	0.376600	0.000720	0.709140
C791	C79	0.343400	0.951320	0.743040
C801	C80	0.345500	0.985380	0.626340
C811	C81	0.407200	0.017340	0.594380
C821	C82	0.374000	0.999980	0.515140
C831	C83	0.225000	0.923980	0.499160
C841	C84	0.252300	0.939230	0.578260
C851	C85	0.821400	0.260380	0.277720
C861	C86	0.068700	0.978320	0.275000
C871	C87	0.996900	0.046730	0.276800
C881	C88	0.940500	0.044990	0.205680
C891	C89	0.882600	0.112660	0.206400
C901	C90	0.880650	0.184560	0.278440
C911	C91	0.933800	0.184820	0.349140
C921	C92	0.990800	0.115860	0.348420
C931	C93	0.606200	0.499310	0.242160
C941	C94	0.545540	0.574450	0.242300
C951	C95	0.488700	0.572940	0.171080
C961	C96	0.544400	0.646480	0.314440
C971	C97	0.357670	0.781470	0.246820
C981	C98	0.427700	0.711960	0.244700
C991	C99	0.486100	0.714560	0.315540
C1001	C100	0.430200	0.640390	0.172300
C1011	C101	0.101000	0.884910	0.040440
C1021	C102	0.043200	0.873510	0.967080
C1031	C103	0.016000	0.787560	0.906020
C1041	C104	0.050700	0.717290	0.920240
C1051	C105	0.107400	0.735180	0.995420
C1061	C106	0.876600	0.708420	0.709140
C1071	C107	0.843400	0.791720	0.743040
C1081	C108	0.845500	0.640960	0.626340
C1091	C109	0.907200	0.577040	0.594380
C1101	C110	0.874000	0.515160	0.515140
C1111	C111	0.725000	0.575180	0.499160
C1121	C112	0.752300	0.639030	0.578260
N111	N11	0.630280	0.238660	0.055600
N121	N12	0.285740	0.952570	0.467620
N131	N13	0.452400	0.058090	0.830940
N141	N14	0.445310	0.067900	0.764420
N151	N15	0.393000	0.987330	0.820900
N161	N16	0.130280	0.816940	0.055600
N171	N17	0.785740	0.515050	0.467620
N181	N18	0.952400	0.772850	0.830940
N191	N19	0.945310	0.696520	0.764420
N201	N20	0.893000	0.833570	0.820900
O171	O17	0.323970	0.019280	0.344240
O181	O18	0.274190	0.957770	0.211200
O191	O19	0.574130	0.286330	0.207760
O201	O20	0.620330	0.356220	0.340420
O211	O21	0.103500	0.740490	0.175680
O221	O22	0.154780	0.802290	0.308540
O231	O23	0.803920	0.407860	0.181240
O241	O24	0.856010	0.473550	0.314620
O251	O25	0.823970	0.324960	0.344240
O261	O26	0.774190	0.253430	0.211200
O271	O27	0.074130	0.921430	0.207760
O281	O28	0.120330	0.984200	0.340420
O291	O29	0.603500	0.435190	0.175680
O301	O30	0.654780	0.506250	0.308540
O311	O31	0.303920	0.773380	0.181240
O321	O32	0.356010	0.841070	0.314620
