data_PENYIR_freeONLY_PM
_symmetry_space_group_name_H-M	'P1'
_cell_length_a	9.098200
_cell_length_b	11.854900
_cell_length_c	12.011300
_cell_angle_alpha	103.128000
_cell_angle_beta	90.775000
_cell_angle_gamma	91.887000
_symmetry_Int_Tables_number 1

loop_
_symmetry_equiv_pos_as_xyz
'x,y,z'

loop_
_atom_site_label
_atom_site_type_symbol
_atom_site_fract_x
_atom_site_fract_y
_atom_site_fract_z
P11	P1	0.801970	0.653890	0.438830
P21	P2	0.407150	0.725220	0.472260
P31	P3	0.771330	0.957650	0.140930
P41	P4	0.375610	0.960210	0.237120
F11	F1	0.934600	0.521650	0.599460
F21	F2	0.041700	0.895420	0.992320
O11	O1	0.864400	0.300100	0.321000
O21	O2	0.772200	0.522000	0.407000
O31	O3	0.260900	0.658700	0.468300
O41	O4	0.962200	0.688900	0.481000
O51	O5	0.773200	0.706300	0.335400
O61	O6	0.470900	0.692300	0.352400
O71	O7	0.585000	0.638500	0.141500
H11	H1	0.637700	0.585200	0.153100
O81	O8	0.747200	0.844100	0.180200
O91	O9	0.440600	0.839800	0.204400
O101	O10	0.387600	0.856000	0.513200
O111	O11	0.628000	0.908200	0.398000
O121	O12	0.371900	0.007500	0.366300
O131	O13	0.219900	0.953600	0.184300
O141	O14	0.139800	0.182300	0.192700
O151	O15	0.750900	0.936400	0.011000
O161	O16	0.925100	0.007600	0.186600
C11	C1	0.693900	0.716900	0.561100
H21	H2	0.745600	0.704100	0.629900
H31	H3	0.695300	0.801600	0.567400
C21	C2	0.532000	0.676200	0.566700
H41	H4	0.498700	0.703500	0.646100
H51	H5	0.526700	0.590400	0.548600
C31	C3	0.649000	0.068200	0.207100
H61	H6	0.656300	0.075200	0.290800
H71	H7	0.687100	0.142600	0.192500
C41	C4	0.484800	0.055900	0.173100
H81	H8	0.476200	0.028200	0.089000
H91	H9	0.442800	0.133700	0.193200
V11	V1	0.892970	0.393160	0.439110
V21	V2	0.607970	0.766680	0.263820
V31	V3	0.101200	0.057890	0.110350
P51	P5	0.198030	0.346110	0.561170
P61	P6	0.592850	0.274780	0.527740
P71	P7	0.228670	0.042350	0.859070
P81	P8	0.624390	0.039790	0.762880
F31	F3	0.065400	0.478350	0.400540
F41	F4	0.958300	0.104580	0.007680
O171	O17	0.135600	0.699900	0.679000
O181	O18	0.227800	0.478000	0.593000
O191	O19	0.739100	0.341300	0.531700
O201	O20	0.037800	0.311100	0.519000
O211	O21	0.226800	0.293700	0.664600
O221	O22	0.529100	0.307700	0.647600
O231	O23	0.415000	0.361500	0.858500
H101	H10	0.362300	0.414800	0.846900
O241	O24	0.252800	0.155900	0.819800
O251	O25	0.559400	0.160200	0.795600
O261	O26	0.612400	0.144000	0.486800
O271	O27	0.372000	0.091800	0.602000
O281	O28	0.628100	0.992500	0.633700
O291	O29	0.780100	0.046400	0.815700
O301	O30	0.860200	0.817700	0.807300
O311	O31	0.249100	0.063600	0.989000
O321	O32	0.074900	0.992400	0.813400
C51	C5	0.306100	0.283100	0.438900
H111	H11	0.254400	0.295900	0.370100
H121	H12	0.304700	0.198400	0.432600
C61	C6	0.468000	0.323800	0.433300
H131	H13	0.501300	0.296500	0.353900
H141	H14	0.473300	0.409600	0.451400
C71	C7	0.351000	0.931800	0.792900
H151	H15	0.343700	0.924800	0.709200
H161	H16	0.312900	0.857400	0.807500
C81	C8	0.515200	0.944100	0.826900
H171	H17	0.523800	0.971800	0.911000
H181	H18	0.557200	0.866300	0.806800
V41	V4	0.107030	0.606840	0.560890
V51	V5	0.392030	0.233320	0.736180
V61	V6	0.898800	0.942110	0.889650
V71	V7	0.500000	0.000000	0.500000
