data_PEPKOL_freeONLY_PM
_symmetry_space_group_name_H-M	'P1'
_cell_length_a	6.569700
_cell_length_b	22.616700
_cell_length_c	7.851100
_cell_angle_alpha	90.000000
_cell_angle_beta	90.154000
_cell_angle_gamma	90.000000
_symmetry_Int_Tables_number 1

loop_
_symmetry_equiv_pos_as_xyz
'x,y,z'

loop_
_atom_site_label
_atom_site_type_symbol
_atom_site_fract_x
_atom_site_fract_y
_atom_site_fract_z
Ni11	Ni1	0.546770	0.209820	0.605980
O11	O1	0.342400	0.180200	0.427580
O21	O2	0.378200	0.168680	0.800410
N11	N1	0.921900	0.208300	0.142900
H11	H1	0.872200	0.193700	0.044600
H21	H2	0.820700	0.209900	0.219800
O31	O3	0.238000	0.263080	0.298800
C11	C1	0.236300	0.208230	0.321100
N21	N2	0.715400	0.132340	0.564500
O41	O4	0.236200	0.245990	0.931200
C21	C2	0.906100	0.126950	0.621500
H31	H3	0.964000	0.158800	0.678600
C31	C3	0.022800	0.076270	0.600000
H41	H4	0.154500	0.074600	0.643400
C41	C4	0.941400	0.027940	0.513000
C51	C5	0.092500	0.171530	0.206700
H51	H5	0.037400	0.138500	0.273100
C61	C6	0.279100	0.191840	0.920400
C71	C7	0.744500	0.034460	0.450300
H61	H6	0.684300	0.003900	0.388800
C81	C8	0.638300	0.086100	0.479000
H71	H7	0.506300	0.089000	0.436800
C91	C9	0.211700	0.147060	0.056800
H81	H8	0.129000	0.117100	0.001600
H91	H9	0.332400	0.127600	0.100800
Ni21	Ni2	0.953230	0.709820	0.894020
O51	O5	0.157600	0.680200	0.072420
O61	O6	0.121800	0.668680	0.699590
N31	N3	0.578100	0.708300	0.357100
H101	H10	0.627800	0.693700	0.455400
H111	H11	0.679300	0.709900	0.280200
O71	O7	0.262000	0.763080	0.201200
C101	C10	0.263700	0.708230	0.178900
N41	N4	0.784600	0.632340	0.935500
O81	O8	0.263800	0.745990	0.568800
C111	C11	0.593900	0.626950	0.878500
H121	H12	0.536000	0.658800	0.821400
C121	C12	0.477200	0.576270	0.900000
H131	H13	0.345500	0.574600	0.856600
C131	C13	0.558600	0.527940	0.987000
C141	C14	0.407500	0.671530	0.293300
H141	H14	0.462600	0.638500	0.226900
C151	C15	0.220900	0.691840	0.579600
C161	C16	0.755500	0.534460	0.049700
H151	H15	0.815700	0.503900	0.111200
C171	C17	0.861700	0.586100	0.021000
H161	H16	0.993700	0.589000	0.063200
C181	C18	0.288300	0.647060	0.443200
H171	H17	0.371000	0.617100	0.498400
H181	H18	0.167600	0.627600	0.399200
Ni31	Ni3	0.453230	0.790180	0.394020
O91	O9	0.657600	0.819800	0.572420
O101	O10	0.621800	0.831320	0.199590
N51	N5	0.078100	0.791700	0.857100
H191	H19	0.127800	0.806300	0.955400
H201	H20	0.179300	0.790100	0.780200
O111	O11	0.762000	0.736920	0.701200
C191	C19	0.763700	0.791770	0.678900
N61	N6	0.284600	0.867660	0.435500
O121	O12	0.763800	0.754010	0.068800
C201	C20	0.093900	0.873050	0.378500
H211	H21	0.036000	0.841200	0.321400
C211	C21	0.977200	0.923730	0.400000
H221	H22	0.845500	0.925400	0.356600
C221	C22	0.058600	0.972060	0.487000
C231	C23	0.907500	0.828470	0.793300
H231	H23	0.962600	0.861500	0.726900
C241	C24	0.720900	0.808160	0.079600
C251	C25	0.255500	0.965540	0.549700
H241	H24	0.315700	0.996100	0.611200
C261	C26	0.361700	0.913900	0.521000
H251	H25	0.493700	0.911000	0.563200
C271	C27	0.788300	0.852940	0.943200
H261	H26	0.871000	0.882900	0.998400
H271	H27	0.667600	0.872400	0.899200
Ni41	Ni4	0.046770	0.290180	0.105980
O131	O13	0.842400	0.319800	0.927580
O141	O14	0.878200	0.331320	0.300410
N71	N7	0.421900	0.291700	0.642900
H281	H28	0.372200	0.306300	0.544600
H291	H29	0.320700	0.290100	0.719800
O151	O15	0.738000	0.236920	0.798800
C281	C28	0.736300	0.291770	0.821100
N81	N8	0.215400	0.367660	0.064500
O161	O16	0.736200	0.254010	0.431200
C291	C29	0.406100	0.373050	0.121500
H301	H30	0.464000	0.341200	0.178600
C301	C30	0.522800	0.423730	0.100000
H311	H31	0.654500	0.425400	0.143400
C311	C31	0.441400	0.472060	0.013000
C321	C32	0.592500	0.328470	0.706700
H321	H32	0.537400	0.361500	0.773100
C331	C33	0.779100	0.308160	0.420400
C341	C34	0.244500	0.465540	0.950300
H331	H33	0.184300	0.496100	0.888800
C351	C35	0.138300	0.413900	0.979000
H341	H34	0.006300	0.411000	0.936800
C361	C36	0.711700	0.352940	0.556800
H351	H35	0.629000	0.382900	0.501600
H361	H36	0.832400	0.372400	0.600800
