data_PEPKUR_freeONLY_PM
_symmetry_space_group_name_H-M	'P1'
_cell_length_a	6.837100
_cell_length_b	22.272100
_cell_length_c	7.730800
_cell_angle_alpha	90.000000
_cell_angle_beta	90.000000
_cell_angle_gamma	90.000000
_symmetry_Int_Tables_number 1

loop_
_symmetry_equiv_pos_as_xyz
'x,y,z'

loop_
_atom_site_label
_atom_site_type_symbol
_atom_site_fract_x
_atom_site_fract_y
_atom_site_fract_z
Ni11	Ni1	0.943920	0.787410	0.741720
Ni21	Ni2	0.056080	0.212590	0.741720
Ni31	Ni3	0.443920	0.712590	0.258280
Ni41	Ni4	0.556080	0.287410	0.258280
H11	H1	0.155400	0.699700	0.650100
H21	H2	0.095000	0.688600	0.833400
H31	H3	0.838100	0.615800	0.886100
H41	H4	0.645200	0.625000	0.773100
H51	H5	0.939000	0.628100	0.606400
H61	H6	0.524100	0.828100	0.765700
H71	H7	0.338300	0.914700	0.732600
H81	H8	0.819100	0.007400	0.652900
H91	H9	0.987900	0.918100	0.629100
H101	H10	0.844600	0.300300	0.650100
H111	H11	0.905000	0.311400	0.833400
H121	H12	0.161900	0.384200	0.886100
H131	H13	0.354800	0.375000	0.773100
H141	H14	0.061000	0.371900	0.606400
H151	H15	0.475900	0.171900	0.765700
H161	H16	0.661700	0.085300	0.732600
H171	H17	0.180900	0.992600	0.652900
H181	H18	0.012100	0.081900	0.629100
H191	H19	0.655400	0.800300	0.349900
H201	H20	0.595000	0.811400	0.166600
H211	H21	0.338100	0.884200	0.113900
H221	H22	0.145200	0.875000	0.226900
H231	H23	0.439000	0.871900	0.393600
H241	H24	0.024100	0.671900	0.234300
H251	H25	0.838300	0.585300	0.267400
H261	H26	0.319100	0.492600	0.347100
H271	H27	0.487900	0.581900	0.370900
H281	H28	0.344600	0.199700	0.349900
H291	H29	0.405000	0.188600	0.166600
H301	H30	0.661900	0.115800	0.113900
H311	H31	0.854800	0.125000	0.226900
H321	H32	0.561000	0.128100	0.393600
H331	H33	0.975900	0.328100	0.234300
H341	H34	0.161700	0.414700	0.267400
H351	H35	0.680900	0.507400	0.347100
H361	H36	0.512100	0.418100	0.370900
C11	C1	0.695900	0.695820	0.942000
C21	C2	0.763100	0.645610	0.818200
C31	C3	0.887000	0.664730	0.665600
C41	C4	0.762700	0.700980	0.536600
C51	C5	0.588000	0.865780	0.755600
C61	C6	0.473800	0.916910	0.759000
C71	C7	0.557200	0.971700	0.715600
C81	C8	0.754200	0.970700	0.677900
C91	C9	0.859100	0.918400	0.675300
C101	C10	0.304100	0.304180	0.942000
C111	C11	0.236900	0.354390	0.818200
C121	C12	0.113000	0.335270	0.665600
C131	C13	0.237300	0.299020	0.536600
C141	C14	0.412000	0.134220	0.755600
C151	C15	0.526200	0.083090	0.759000
C161	C16	0.442800	0.028300	0.715600
C171	C17	0.245800	0.029300	0.677900
C181	C18	0.140900	0.081600	0.675300
C191	C19	0.195900	0.804180	0.058000
C201	C20	0.263100	0.854390	0.181800
C211	C21	0.387000	0.835270	0.334400
C221	C22	0.262700	0.799020	0.463400
C231	C23	0.088000	0.634220	0.244400
C241	C24	0.973800	0.583090	0.241000
C251	C25	0.057200	0.528300	0.284400
C261	C26	0.254200	0.529300	0.322100
C271	C27	0.359100	0.581600	0.324700
C281	C28	0.804100	0.195820	0.058000
C291	C29	0.736900	0.145610	0.181800
C301	C30	0.613000	0.164730	0.334400
C311	C31	0.737300	0.200980	0.463400
C321	C32	0.912000	0.365780	0.244400
C331	C33	0.026200	0.416910	0.241000
C341	C34	0.942800	0.471700	0.284400
C351	C35	0.745800	0.470700	0.322100
C361	C36	0.640900	0.418400	0.324700
N11	N1	0.052700	0.701550	0.726800
N21	N2	0.779400	0.865880	0.739100
N31	N3	0.947300	0.298450	0.726800
N41	N4	0.220600	0.134120	0.739100
N51	N5	0.552700	0.798450	0.273200
N61	N6	0.279400	0.634120	0.260900
N71	N7	0.447300	0.201550	0.273200
N81	N8	0.720600	0.365880	0.260900
O11	O1	0.736300	0.749760	0.917200
O21	O2	0.600000	0.674950	0.067600
O31	O3	0.648600	0.672990	0.438400
O41	O4	0.785700	0.757050	0.538700
O51	O5	0.263700	0.250240	0.917200
O61	O6	0.400000	0.325050	0.067600
O71	O7	0.351400	0.327010	0.438400
O81	O8	0.214300	0.242950	0.538700
O91	O9	0.236300	0.750240	0.082800
O101	O10	0.100000	0.825050	0.932400
O111	O11	0.148600	0.827010	0.561600
O121	O12	0.285700	0.742950	0.461300
O131	O13	0.763700	0.249760	0.082800
O141	O14	0.900000	0.174950	0.932400
O151	O15	0.851400	0.172990	0.561600
O161	O16	0.714300	0.257050	0.461300
