data_PEPLAY_freeONLY_PM
_symmetry_space_group_name_H-M	'P1'
_cell_length_a	6.809400
_cell_length_b	12.422000
_cell_length_c	17.173300
_cell_angle_alpha	90.000000
_cell_angle_beta	90.000000
_cell_angle_gamma	90.000000
_symmetry_Int_Tables_number 1

loop_
_symmetry_equiv_pos_as_xyz
'x,y,z'

loop_
_atom_site_label
_atom_site_type_symbol
_atom_site_fract_x
_atom_site_fract_y
_atom_site_fract_z
V11	V1	0.060550	0.265670	0.000840
O11	O1	0.278300	0.316850	0.004920
O21	O2	0.112200	0.171100	0.910630
O31	O3	0.111900	0.148300	0.075710
O41	O4	0.939400	0.344600	0.089290
O51	O5	0.939400	0.367200	0.924760
C11	C1	0.273500	0.138600	0.882220
C21	C2	0.261700	0.076400	0.808460
C31	C3	0.080100	0.052200	0.776100
H11	H1	0.965400	0.075800	0.800000
C41	C4	0.070900	0.992600	0.707900
H21	H2	0.949400	0.976400	0.686200
C51	C5	0.432700	0.040300	0.772500
H31	H3	0.554600	0.055700	0.794200
C61	C6	0.420300	0.981500	0.704500
H41	H4	0.534400	0.957900	0.680100
C71	C7	0.270700	0.113000	0.101930
C81	C8	0.238800	0.957400	0.672370
V21	V2	0.439450	0.734330	0.500840
O61	O6	0.221700	0.683150	0.504920
O71	O7	0.387800	0.828900	0.410630
O81	O8	0.388100	0.851700	0.575710
O91	O9	0.560600	0.655400	0.589290
O101	O10	0.560600	0.632800	0.424760
C91	C9	0.226500	0.861400	0.382220
C101	C10	0.238300	0.923600	0.308460
C111	C11	0.419900	0.947800	0.276100
H51	H5	0.534600	0.924200	0.300000
C121	C12	0.429100	0.007400	0.207900
H61	H6	0.550600	0.023600	0.186200
C131	C13	0.067300	0.959700	0.272500
H71	H7	0.945400	0.944300	0.294200
C141	C14	0.079700	0.018500	0.204500
H81	H8	0.965600	0.042100	0.180100
C151	C15	0.229300	0.887000	0.601930
C161	C16	0.261200	0.042600	0.172370
V31	V3	0.939450	0.765670	0.499160
O111	O11	0.721700	0.816850	0.495080
O121	O12	0.887800	0.671100	0.589370
O131	O13	0.888100	0.648300	0.424290
O141	O14	0.060600	0.844600	0.410710
O151	O15	0.060600	0.867200	0.575240
C171	C17	0.726500	0.638600	0.617780
C181	C18	0.738300	0.576400	0.691540
C191	C19	0.919900	0.552200	0.723900
H91	H9	0.034600	0.575800	0.700000
C201	C20	0.929100	0.492600	0.792100
H101	H10	0.050600	0.476400	0.813800
C211	C21	0.567300	0.540300	0.727500
H111	H11	0.445400	0.555700	0.705800
C221	C22	0.579700	0.481500	0.795500
H121	H12	0.465600	0.457900	0.819900
C231	C23	0.729300	0.613000	0.398070
C241	C24	0.761200	0.457400	0.827630
V41	V4	0.560550	0.234330	0.999160
O161	O16	0.778300	0.183150	0.995080
O171	O17	0.612200	0.328900	0.089370
O181	O18	0.611900	0.351700	0.924290
O191	O19	0.439400	0.155400	0.910710
O201	O20	0.439400	0.132800	0.075240
C251	C25	0.773500	0.361400	0.117780
C261	C26	0.761700	0.423600	0.191540
C271	C27	0.580100	0.447800	0.223900
H131	H13	0.465400	0.424200	0.200000
C281	C28	0.570900	0.507400	0.292100
H141	H14	0.449400	0.523600	0.313800
C291	C29	0.932700	0.459700	0.227500
H151	H15	0.054600	0.444300	0.205800
C301	C30	0.920300	0.518500	0.295500
H161	H16	0.034400	0.542100	0.319900
C311	C31	0.770700	0.387000	0.898070
C321	C32	0.738800	0.542600	0.327630
