data_PETNOS_freeONLY_PM
_symmetry_space_group_name_H-M	'P1'
_cell_length_a	9.461000
_cell_length_b	9.402800
_cell_length_c	20.963000
_cell_angle_alpha	90.000000
_cell_angle_beta	100.186000
_cell_angle_gamma	90.000000
_symmetry_Int_Tables_number 1

loop_
_symmetry_equiv_pos_as_xyz
'x,y,z'

loop_
_atom_site_label
_atom_site_type_symbol
_atom_site_fract_x
_atom_site_fract_y
_atom_site_fract_z
O11	O1	0.246700	0.150100	0.410420
In11	In1	0.372420	0.334230	0.403300
In21	In2	0.124890	0.164500	0.590380
P11	P1	0.619110	0.589040	0.439920
P21	P2	0.666100	0.125520	0.442780
P31	P3	0.208460	0.263400	0.252620
P41	P4	0.096000	0.118860	0.422940
P51	P5	0.034910	0.511140	0.397190
O21	O2	0.338100	0.324100	0.298860
O31	O3	0.066200	0.179000	0.486770
O41	O4	0.233400	0.108900	0.236310
O51	O5	0.494600	0.523900	0.390950
O61	O6	0.169400	0.356400	0.193230
O71	O7	0.027100	0.671000	0.402960
O81	O8	0.066800	0.959700	0.414650
O91	O9	0.703300	0.690900	0.404640
O101	O10	0.561600	0.658900	0.495520
O111	O11	0.186800	0.464900	0.397650
O121	O12	0.554700	0.204600	0.396510
O131	O13	0.744100	0.016300	0.411900
H11	H1	0.090000	0.260000	0.280000
H21	H2	0.006000	0.192000	0.380000
H31	H3	0.713000	0.481000	0.462000
H41	H4	0.987000	0.439000	0.447000
O141	O14	0.936700	0.456600	0.336000
H51	H5	0.854000	0.482200	0.336300
O151	O15	0.769900	0.233600	0.479500
H61	H6	0.852300	0.212800	0.475900
H71	H7	0.592000	0.047000	0.485000
O161	O16	0.753300	0.650100	0.089580
In31	In3	0.627580	0.834230	0.096700
In41	In4	0.875110	0.664500	0.909620
P61	P6	0.380890	0.089040	0.060080
P71	P7	0.333900	0.625520	0.057220
P81	P8	0.791540	0.763400	0.247380
P91	P9	0.904000	0.618860	0.077060
P101	P10	0.965090	0.011140	0.102810
O171	O17	0.661900	0.824100	0.201140
O181	O18	0.933800	0.679000	0.013230
O191	O19	0.766600	0.608900	0.263690
O201	O20	0.505400	0.023900	0.109050
O211	O21	0.830600	0.856400	0.306770
O221	O22	0.972900	0.171000	0.097040
O231	O23	0.933200	0.459700	0.085350
O241	O24	0.296700	0.190900	0.095360
O251	O25	0.438400	0.158900	0.004480
O261	O26	0.813200	0.964900	0.102350
O271	O27	0.445300	0.704600	0.103490
O281	O28	0.255900	0.516300	0.088100
H81	H8	0.910000	0.760000	0.220000
H91	H9	0.994000	0.692000	0.120000
H101	H10	0.287000	0.981000	0.038000
H111	H11	0.013000	0.939000	0.053000
O291	O29	0.063300	0.956600	0.164000
H121	H12	0.146000	0.982200	0.163700
O301	O30	0.230100	0.733600	0.020500
H131	H13	0.147700	0.712800	0.024100
H141	H14	0.408000	0.547000	0.015000
O311	O31	0.753300	0.849900	0.589580
In51	In5	0.627580	0.665770	0.596700
In61	In6	0.875110	0.835500	0.409620
P111	P11	0.380890	0.410960	0.560080
P121	P12	0.333900	0.874480	0.557220
P131	P13	0.791540	0.736600	0.747380
P141	P14	0.904000	0.881140	0.577060
P151	P15	0.965090	0.488860	0.602810
O321	O32	0.661900	0.675900	0.701140
O331	O33	0.933800	0.821000	0.513230
O341	O34	0.766600	0.891100	0.763690
O351	O35	0.505400	0.476100	0.609050
O361	O36	0.830600	0.643600	0.806770
O371	O37	0.972900	0.329000	0.597040
O381	O38	0.933200	0.040300	0.585350
O391	O39	0.296700	0.309100	0.595360
O401	O40	0.438400	0.341100	0.504480
O411	O41	0.813200	0.535100	0.602350
O421	O42	0.445300	0.795400	0.603490
O431	O43	0.255900	0.983700	0.588100
H151	H15	0.910000	0.740000	0.720000
H161	H16	0.994000	0.808000	0.620000
H171	H17	0.287000	0.519000	0.538000
H181	H18	0.013000	0.561000	0.553000
O441	O44	0.063300	0.543400	0.664000
H191	H19	0.146000	0.517800	0.663700
O451	O45	0.230100	0.766400	0.520500
H201	H20	0.147700	0.787200	0.524100
H211	H21	0.408000	0.953000	0.515000
O461	O46	0.246700	0.349900	0.910420
In71	In7	0.372420	0.165770	0.903300
In81	In8	0.124890	0.335500	0.090380
P161	P16	0.619110	0.910960	0.939920
P171	P17	0.666100	0.374480	0.942780
P181	P18	0.208460	0.236600	0.752620
P191	P19	0.096000	0.381140	0.922940
P201	P20	0.034910	0.988860	0.897190
O471	O47	0.338100	0.175900	0.798860
O481	O48	0.066200	0.321000	0.986770
O491	O49	0.233400	0.391100	0.736310
O501	O50	0.494600	0.976100	0.890950
O511	O51	0.169400	0.143600	0.693230
O521	O52	0.027100	0.829000	0.902960
O531	O53	0.066800	0.540300	0.914650
O541	O54	0.703300	0.809100	0.904640
O551	O55	0.561600	0.841100	0.995520
O561	O56	0.186800	0.035100	0.897650
O571	O57	0.554700	0.295400	0.896510
O581	O58	0.744100	0.483700	0.911900
H221	H22	0.090000	0.240000	0.780000
H231	H23	0.006000	0.308000	0.880000
H241	H24	0.713000	0.019000	0.962000
H251	H25	0.987000	0.061000	0.947000
O591	O59	0.936700	0.043400	0.836000
H261	H26	0.854000	0.017800	0.836300
O601	O60	0.769900	0.266400	0.979500
H271	H27	0.852300	0.287200	0.975900
H281	H28	0.592000	0.453000	0.985000
