data_PETWOC_freeONLY_PM
_symmetry_space_group_name_H-M	'P1'
_cell_length_a	15.213500
_cell_length_b	15.213500
_cell_length_c	15.213500
_cell_angle_alpha	60.000000
_cell_angle_beta	60.000000
_cell_angle_gamma	60.000000
_symmetry_Int_Tables_number 1

loop_
_symmetry_equiv_pos_as_xyz
'x,y,z'

loop_
_atom_site_label
_atom_site_type_symbol
_atom_site_fract_x
_atom_site_fract_y
_atom_site_fract_z
U11	U1	0.873990	0.873990	0.126010
U21	U2	0.126010	0.126010	0.873990
U31	U3	0.873990	0.126010	0.126010
U41	U4	0.126010	0.873990	0.873990
U51	U5	0.873990	0.126010	0.873990
U61	U6	0.126010	0.873990	0.126010
H11	H1	0.864320	0.578300	0.421700
H21	H2	0.578300	0.864320	0.135680
H31	H3	0.421700	0.135680	0.864320
H41	H4	0.135680	0.421700	0.578300
H51	H5	0.864320	0.421700	0.135680
H61	H6	0.578300	0.135680	0.421700
H71	H7	0.421700	0.864320	0.578300
H81	H8	0.135680	0.578300	0.864320
H91	H9	0.864320	0.135680	0.578300
H101	H10	0.578300	0.421700	0.864320
H111	H11	0.421700	0.578300	0.135680
H121	H12	0.135680	0.864320	0.421700
H131	H13	0.421700	0.135680	0.578300
H141	H14	0.135680	0.421700	0.864320
H151	H15	0.864320	0.578300	0.135680
H161	H16	0.578300	0.864320	0.421700
H171	H17	0.578300	0.135680	0.864320
H181	H18	0.864320	0.421700	0.578300
H191	H19	0.135680	0.578300	0.421700
H201	H20	0.421700	0.864320	0.135680
H211	H21	0.864320	0.135680	0.421700
H221	H22	0.578300	0.421700	0.135680
H231	H23	0.421700	0.578300	0.864320
H241	H24	0.135680	0.864320	0.578300
C11	C1	0.918700	0.546300	0.453700
C21	C2	0.546300	0.918700	0.081300
C31	C3	0.453700	0.081300	0.918700
C41	C4	0.081300	0.453700	0.546300
C51	C5	0.918700	0.453700	0.081300
C61	C6	0.546300	0.081300	0.453700
C71	C7	0.453700	0.918700	0.546300
C81	C8	0.081300	0.546300	0.918700
C91	C9	0.918700	0.081300	0.546300
C101	C10	0.546300	0.453700	0.918700
C111	C11	0.453700	0.546300	0.081300
C121	C12	0.081300	0.918700	0.453700
C131	C13	0.453700	0.081300	0.546300
C141	C14	0.081300	0.453700	0.918700
C151	C15	0.918700	0.546300	0.081300
C161	C16	0.546300	0.918700	0.453700
C171	C17	0.546300	0.081300	0.918700
C181	C18	0.918700	0.453700	0.546300
C191	C19	0.081300	0.546300	0.453700
C201	C20	0.453700	0.918700	0.081300
C211	C21	0.918700	0.081300	0.453700
C221	C22	0.546300	0.453700	0.081300
C231	C23	0.453700	0.546300	0.918700
C241	C24	0.081300	0.918700	0.546300
C251	C25	0.000000	0.690200	0.309800
C261	C26	0.000000	0.591600	0.408400
C271	C27	0.690200	0.000000	0.000000
C281	C28	0.591600	0.000000	0.000000
C291	C29	0.309800	0.000000	0.000000
C301	C30	0.408400	0.000000	0.000000
C311	C31	0.000000	0.309800	0.690200
C321	C32	0.000000	0.408400	0.591600
C331	C33	0.000000	0.309800	0.000000
C341	C34	0.000000	0.408400	0.000000
C351	C35	0.690200	0.000000	0.309800
C361	C36	0.591600	0.000000	0.408400
C371	C37	0.309800	0.000000	0.690200
C381	C38	0.408400	0.000000	0.591600
C391	C39	0.000000	0.690200	0.000000
C401	C40	0.000000	0.591600	0.000000
C411	C41	0.000000	0.000000	0.690200
C421	C42	0.000000	0.000000	0.591600
C431	C43	0.690200	0.309800	0.000000
C441	C44	0.591600	0.408400	0.000000
C451	C45	0.309800	0.690200	0.000000
C461	C46	0.408400	0.591600	0.000000
C471	C47	0.000000	0.000000	0.309800
C481	C48	0.000000	0.000000	0.408400
O11	O1	0.925300	0.727100	0.272900
O21	O2	0.727100	0.925300	0.074700
O31	O3	0.272900	0.074700	0.925300
O41	O4	0.074700	0.272900	0.727100
O51	O5	0.925300	0.272900	0.074700
O61	O6	0.727100	0.074700	0.272900
O71	O7	0.272900	0.925300	0.727100
O81	O8	0.074700	0.727100	0.925300
O91	O9	0.925300	0.074700	0.727100
O101	O10	0.727100	0.272900	0.925300
O111	O11	0.272900	0.727100	0.074700
O121	O12	0.074700	0.925300	0.272900
O131	O13	0.272900	0.074700	0.727100
O141	O14	0.074700	0.272900	0.925300
O151	O15	0.925300	0.727100	0.074700
O161	O16	0.727100	0.925300	0.272900
O171	O17	0.727100	0.074700	0.925300
O181	O18	0.925300	0.272900	0.727100
O191	O19	0.074700	0.727100	0.272900
O201	O20	0.272900	0.925300	0.074700
O211	O21	0.925300	0.074700	0.272900
O221	O22	0.727100	0.272900	0.074700
O231	O23	0.272900	0.727100	0.925300
O241	O24	0.074700	0.925300	0.727100
O251	O25	0.819700	0.060100	0.060100
O261	O26	0.060100	0.819700	0.060100
O271	O27	0.060100	0.060100	0.819700
O281	O28	0.060100	0.060100	0.060100
O291	O29	0.939900	0.180300	0.939900
O301	O30	0.180300	0.939900	0.939900
O311	O31	0.939900	0.939900	0.180300
O321	O32	0.939900	0.939900	0.939900
O331	O33	0.750500	0.750500	0.249500
O341	O34	0.249500	0.249500	0.750500
O351	O35	0.750500	0.249500	0.249500
O361	O36	0.249500	0.750500	0.750500
O371	O37	0.750500	0.249500	0.750500
O381	O38	0.249500	0.750500	0.249500
