data_PEVBUP_freeONLY_PM
_symmetry_space_group_name_H-M	'P1'
_cell_length_a	22.773000
_cell_length_b	22.773000
_cell_length_c	12.668000
_cell_angle_alpha	90.000000
_cell_angle_beta	90.000000
_cell_angle_gamma	90.000000
_symmetry_Int_Tables_number 1

loop_
_symmetry_equiv_pos_as_xyz
'x,y,z'

loop_
_atom_site_label
_atom_site_type_symbol
_atom_site_fract_x
_atom_site_fract_y
_atom_site_fract_z
Cu11	Cu1	0.710900	0.588730	0.414970
Cu21	Cu2	0.545630	0.632520	0.258940
Cu31	Cu3	0.557840	0.184210	0.169050
Cu41	Cu4	0.620920	0.370150	0.011780
N11	N1	0.714060	0.588720	0.572500
N21	N2	0.628730	0.611950	0.451600
N31	N3	0.578980	0.628030	0.402300
N41	N4	0.561470	0.629890	0.578000
N51	N5	0.470060	0.657770	0.345700
N61	N6	0.382500	0.682200	0.493700
N71	N7	0.795420	0.571760	0.441400
N81	N8	0.869990	0.567820	0.557500
N91	N9	0.845090	0.566340	0.384800
N101	N10	0.952900	0.538780	0.317600
N111	N11	0.052350	0.561070	0.439400
N121	N12	0.726100	0.661120	0.217200
N131	N13	0.715310	0.609160	0.263600
N141	N14	0.715780	0.593710	0.088700
H11	H1	0.713700	0.577400	0.027500
N151	N15	0.693680	0.495540	0.313800
N161	N16	0.679120	0.410220	0.157500
C11	C1	0.573100	0.258300	0.104500
N171	N17	0.521100	0.072400	0.053500
N181	N18	0.658700	0.406900	0.893300
C21	C2	0.764540	0.576200	0.620800
C31	C3	0.767100	0.568200	0.728900
H21	H2	0.802300	0.559400	0.762500
C41	C4	0.715300	0.573800	0.785300
H31	H3	0.715500	0.566600	0.857500
C51	C5	0.662600	0.590000	0.736200
H41	H4	0.628200	0.595500	0.774500
C61	C6	0.664500	0.597500	0.626600
C71	C7	0.616290	0.613200	0.556200
C81	C8	0.539970	0.638310	0.479500
C91	C9	0.480560	0.656110	0.450700
C101	C10	0.436400	0.669100	0.523100
H51	H5	0.445300	0.668400	0.594800
C111	C11	0.371900	0.681900	0.390700
H61	H6	0.333900	0.689200	0.367300
C121	C12	0.415200	0.671100	0.317100
H71	H7	0.405900	0.673100	0.245700
C131	C13	0.812120	0.572000	0.543400
C141	C14	0.888850	0.564060	0.455800
C151	C15	0.948620	0.557270	0.418500
C161	C16	0.007500	0.530200	0.281000
H81	H8	0.012400	0.517000	0.212000
C171	C17	0.056300	0.540100	0.341400
H91	H9	0.093200	0.531900	0.313500
C181	C18	0.998640	0.569200	0.477900
H101	H10	0.994400	0.583300	0.546400
C191	C19	0.737900	0.699800	0.044300
C201	C20	0.738300	0.698300	0.936900
H111	H11	0.730000	0.661300	0.900300
C211	C21	0.774700	0.744500	0.883400
H121	H12	0.799500	0.738900	0.821000
C221	C22	0.726100	0.650030	0.113900
C231	C23	0.709480	0.569650	0.185300
C241	C24	0.698030	0.508850	0.210700
C251	C25	0.692010	0.465900	0.134500
H131	H13	0.697200	0.476200	0.064000
C261	C26	0.675000	0.397800	0.259600
H141	H14	0.666200	0.359500	0.279600
C271	C27	0.683400	0.439300	0.336700
H151	H15	0.681800	0.427900	0.407100
N191	N19	0.589000	0.299900	0.069000
C281	C28	0.533100	0.115900	0.093100
C291	C29	0.673000	0.425600	0.817800
Cu51	Cu5	0.789100	0.911270	0.414970
Cu61	Cu6	0.954370	0.867480	0.258940
Cu71	Cu7	0.942160	0.315790	0.169050
Cu81	Cu8	0.879080	0.129850	0.011780
N201	N20	0.785940	0.911280	0.572500
N211	N21	0.871270	0.888050	0.451600
N221	N22	0.921020	0.871970	0.402300
N231	N23	0.938530	0.870110	0.578000
N241	N24	0.029940	0.842230	0.345700
N251	N25	0.117500	0.817800	0.493700
N261	N26	0.704580	0.928240	0.441400
N271	N27	0.630010	0.932180	0.557500
N281	N28	0.654910	0.933660	0.384800
N291	N29	0.547100	0.961220	0.317600
N301	N30	0.447650	0.938930	0.439400
N311	N31	0.773900	0.838880	0.217200
N321	N32	0.784690	0.890840	0.263600
N331	N33	0.784220	0.906290	0.088700
H161	H16	0.786300	0.922600	0.027500
N341	N34	0.806320	0.004460	0.313800
N351	N35	0.820880	0.089780	0.157500
C301	C30	0.926900	0.241700	0.104500
N361	N36	0.978900	0.427600	0.053500
N371	N37	0.841300	0.093100	0.893300
C311	C31	0.735460	0.923800	0.620800
C321	C32	0.732900	0.931800	0.728900
H171	H17	0.697700	0.940600	0.762500
C331	C33	0.784700	0.926200	0.785300
H181	H18	0.784500	0.933400	0.857500
C341	C34	0.837400	0.910000	0.736200
H191	H19	0.871800	0.904500	0.774500
C351	C35	0.835500	0.902500	0.626600
C361	C36	0.883710	0.886800	0.556200
C371	C37	0.960030	0.861690	0.479500
C381	C38	0.019440	0.843890	0.450700
C391	C39	0.063600	0.830900	0.523100
H201	H20	0.054700	0.831600	0.594800
C401	C40	0.128100	0.818100	0.390700
H211	H21	0.166100	0.810800	0.367300
C411	C41	0.084800	0.828900	0.317100
H221	H22	0.094100	0.826900	0.245700
C421	C42	0.687880	0.928000	0.543400
C431	C43	0.611150	0.935940	0.455800
C441	C44	0.551380	0.942730	0.418500
C451	C45	0.492500	0.969800	0.281000
H231	H23	0.487600	0.983000	0.212000
C461	C46	0.443700	0.959900	0.341400
H241	H24	0.406800	0.968100	0.313500
C471	C47	0.501360	0.930800	0.477900
H251	H25	0.505600	0.916700	0.546400
C481	C48	0.762100	0.800200	0.044300
C491	C49	0.761700	0.801700	0.936900
H261	H26	0.770000	0.838700	0.900300
C501	C50	0.725300	0.755500	0.883400
H271	H27	0.700500	0.761100	0.821000
C511	C51	0.773900	0.849970	0.113900
C521	C52	0.790520	0.930350	0.185300
C531	C53	0.801970	0.991150	0.210700
C541	C54	0.807990	0.034100	0.134500
H281	H28	0.802800	0.023800	0.064000
C551	C55	0.825000	0.102200	0.259600
H291	H29	0.833800	0.140500	0.279600
C561	C56	0.816600	0.060700	0.336700
H301	H30	0.818200	0.072100	0.407100
N381	N38	0.911000	0.200100	0.069000
C571	C57	0.966900	0.384100	0.093100
C581	C58	0.827000	0.074400	0.817800
Cu91	Cu9	0.411270	0.210900	0.914970
Cu101	Cu10	0.367480	0.045630	0.758940
Cu111	Cu11	0.815790	0.057840	0.669050
Cu121	Cu12	0.629850	0.120920	0.511780
N391	N39	0.411280	0.214060	0.072500
N401	N40	0.388050	0.128730	0.951600
N411	N41	0.371970	0.078980	0.902300
N421	N42	0.370110	0.061470	0.078000
N431	N43	0.342230	0.970060	0.845700
N441	N44	0.317800	0.882500	0.993700
N451	N45	0.428240	0.295420	0.941400
N461	N46	0.432180	0.369990	0.057500
N471	N47	0.433660	0.345090	0.884800
N481	N48	0.461220	0.452900	0.817600
N491	N49	0.438930	0.552350	0.939400
N501	N50	0.338880	0.226100	0.717200
N511	N51	0.390840	0.215310	0.763600
N521	N52	0.406290	0.215780	0.588700
H311	H31	0.422600	0.213700	0.527500
N531	N53	0.504460	0.193680	0.813800
N541	N54	0.589780	0.179120	0.657500
C591	C59	0.741700	0.073100	0.604500
N551	N55	0.927600	0.021100	0.553500
N561	N56	0.593100	0.158700	0.393300
C601	C60	0.423800	0.264540	0.120800
C611	C61	0.431800	0.267100	0.228900
H321	H32	0.440600	0.302300	0.262500
C621	C62	0.426200	0.215300	0.285300
H331	H33	0.433400	0.215500	0.357500
C631	C63	0.410000	0.162600	0.236200
H341	H34	0.404500	0.128200	0.274500
C641	C64	0.402500	0.164500	0.126600
C651	C65	0.386800	0.116290	0.056200
C661	C66	0.361690	0.039970	0.979500
C671	C67	0.343890	0.980560	0.950700
C681	C68	0.330900	0.936400	0.023100
H351	H35	0.331600	0.945300	0.094800
C691	C69	0.318100	0.871900	0.890700
H361	H36	0.310800	0.833900	0.867300
C701	C70	0.328900	0.915200	0.817100
H371	H37	0.326900	0.905900	0.745700
C711	C71	0.428000	0.312120	0.043400
C721	C72	0.435940	0.388850	0.955800
C731	C73	0.442730	0.448620	0.918500
C741	C74	0.469800	0.507500	0.781000
H381	H38	0.483000	0.512400	0.712000
C751	C75	0.459900	0.556300	0.841400
H391	H39	0.468100	0.593200	0.813500
C761	C76	0.430800	0.498640	0.977900
H401	H40	0.416700	0.494400	0.046400
C771	C77	0.300200	0.237900	0.544300
C781	C78	0.301700	0.238300	0.436900
H411	H41	0.338700	0.230000	0.400300
C791	C79	0.255500	0.274700	0.383400
H421	H42	0.261100	0.299500	0.321000
C801	C80	0.349970	0.226100	0.613900
C811	C81	0.430350	0.209480	0.685300
C821	C82	0.491150	0.198030	0.710700
C831	C83	0.534100	0.192010	0.634500
H431	H43	0.523800	0.197200	0.564000
C841	C84	0.602200	0.175000	0.759600
H441	H44	0.640500	0.166200	0.779600
C851	C85	0.560700	0.183400	0.836700
H451	H45	0.572100	0.181800	0.907100
N571	N57	0.700100	0.089000	0.569000
C861	C86	0.884100	0.033100	0.593100
C871	C87	0.574400	0.173000	0.317800
Cu131	Cu13	0.088730	0.289100	0.914970
Cu141	Cu14	0.132520	0.454370	0.758940
Cu151	Cu15	0.684210	0.442160	0.669050
Cu161	Cu16	0.870150	0.379080	0.511780
N581	N58	0.088720	0.285940	0.072500
N591	N59	0.111950	0.371270	0.951600
N601	N60	0.128030	0.421020	0.902300
N611	N61	0.129890	0.438530	0.078000
N621	N62	0.157770	0.529940	0.845700
N631	N63	0.182200	0.617500	0.993700
N641	N64	0.071760	0.204580	0.941400
N651	N65	0.067820	0.130010	0.057500
N661	N66	0.066340	0.154910	0.884800
N671	N67	0.038780	0.047100	0.817600
N681	N68	0.061070	0.947650	0.939400
N691	N69	0.161120	0.273900	0.717200
N701	N70	0.109160	0.284690	0.763600
N711	N71	0.093710	0.284220	0.588700
H461	H46	0.077400	0.286300	0.527500
N721	N72	0.995540	0.306320	0.813800
N731	N73	0.910220	0.320880	0.657500
C881	C88	0.758300	0.426900	0.604500
N741	N74	0.572400	0.478900	0.553500
N751	N75	0.906900	0.341300	0.393300
C891	C89	0.076200	0.235460	0.120800
C901	C90	0.068200	0.232900	0.228900
H471	H47	0.059400	0.197700	0.262500
C911	C91	0.073800	0.284700	0.285300
H481	H48	0.066600	0.284500	0.357500
C921	C92	0.090000	0.337400	0.236200
H491	H49	0.095500	0.371800	0.274500
C931	C93	0.097500	0.335500	0.126600
C941	C94	0.113200	0.383710	0.056200
C951	C95	0.138310	0.460030	0.979500
C961	C96	0.156110	0.519440	0.950700
C971	C97	0.169100	0.563600	0.023100
H501	H50	0.168400	0.554700	0.094800
C981	C98	0.181900	0.628100	0.890700
H511	H51	0.189200	0.666100	0.867300
C991	C99	0.171100	0.584800	0.817100
H521	H52	0.173100	0.594100	0.745700
C1001	C100	0.072000	0.187880	0.043400
C1011	C101	0.064060	0.111150	0.955800
C1021	C102	0.057270	0.051380	0.918500
C1031	C103	0.030200	0.992500	0.781000
H531	H53	0.017000	0.987600	0.712000
C1041	C104	0.040100	0.943700	0.841400
H541	H54	0.031900	0.906800	0.813500
C1051	C105	0.069200	0.001360	0.977900
H551	H55	0.083300	0.005600	0.046400
C1061	C106	0.199800	0.262100	0.544300
C1071	C107	0.198300	0.261700	0.436900
H561	H56	0.161300	0.270000	0.400300
C1081	C108	0.244500	0.225300	0.383400
H571	H57	0.238900	0.200500	0.321000
C1091	C109	0.150030	0.273900	0.613900
C1101	C110	0.069650	0.290520	0.685300
C1111	C111	0.008850	0.301970	0.710700
C1121	C112	0.965900	0.307990	0.634500
H581	H58	0.976200	0.302800	0.564000
C1131	C113	0.897800	0.325000	0.759600
H591	H59	0.859500	0.333800	0.779600
C1141	C114	0.939300	0.316600	0.836700
H601	H60	0.927900	0.318200	0.907100
N761	N76	0.799900	0.411000	0.569000
C1151	C115	0.615900	0.466900	0.593100
C1161	C116	0.925600	0.327000	0.317800
Cu171	Cu17	0.289100	0.411270	0.585030
Cu181	Cu18	0.454370	0.367480	0.741060
Cu191	Cu19	0.442160	0.815790	0.830950
Cu201	Cu20	0.379080	0.629850	0.988220
N771	N77	0.285940	0.411280	0.427500
N781	N78	0.371270	0.388050	0.548400
N791	N79	0.421020	0.371970	0.597700
N801	N80	0.438530	0.370110	0.422000
N811	N81	0.529940	0.342230	0.654300
N821	N82	0.617500	0.317800	0.506300
N831	N83	0.204580	0.428240	0.558600
N841	N84	0.130010	0.432180	0.442500
N851	N85	0.154910	0.433660	0.615200
N861	N86	0.047100	0.461220	0.682400
N871	N87	0.947650	0.438930	0.560600
N881	N88	0.273900	0.338880	0.782800
N891	N89	0.284690	0.390840	0.736400
N901	N90	0.284220	0.406290	0.911300
H611	H61	0.286300	0.422600	0.972500
N911	N91	0.306320	0.504460	0.686200
N921	N92	0.320880	0.589780	0.842500
C1171	C117	0.426900	0.741700	0.895500
N931	N93	0.478900	0.927600	0.946500
N941	N94	0.341300	0.593100	0.106700
C1181	C118	0.235460	0.423800	0.379200
C1191	C119	0.232900	0.431800	0.271100
H621	H62	0.197700	0.440600	0.237500
C1201	C120	0.284700	0.426200	0.214700
H631	H63	0.284500	0.433400	0.142500
C1211	C121	0.337400	0.410000	0.263800
H641	H64	0.371800	0.404500	0.225500
C1221	C122	0.335500	0.402500	0.373400
C1231	C123	0.383710	0.386800	0.443800
C1241	C124	0.460030	0.361690	0.520500
C1251	C125	0.519440	0.343890	0.549300
C1261	C126	0.563600	0.330900	0.476900
H651	H65	0.554700	0.331600	0.405200
C1271	C127	0.628100	0.318100	0.609300
H661	H66	0.666100	0.310800	0.632700
C1281	C128	0.584800	0.328900	0.682900
H671	H67	0.594100	0.326900	0.754300
C1291	C129	0.187880	0.428000	0.456600
C1301	C130	0.111150	0.435940	0.544200
C1311	C131	0.051380	0.442730	0.581500
C1321	C132	0.992500	0.469800	0.719000
H681	H68	0.987600	0.483000	0.788000
C1331	C133	0.943700	0.459900	0.658600
H691	H69	0.906800	0.468100	0.686500
C1341	C134	0.001360	0.430800	0.522100
H701	H70	0.005600	0.416700	0.453600
C1351	C135	0.262100	0.300200	0.955700
C1361	C136	0.261700	0.301700	0.063100
H711	H71	0.270000	0.338700	0.099700
C1371	C137	0.225300	0.255500	0.116600
H721	H72	0.200500	0.261100	0.179000
C1381	C138	0.273900	0.349970	0.886100
C1391	C139	0.290520	0.430350	0.814700
C1401	C140	0.301970	0.491150	0.789300
C1411	C141	0.307990	0.534100	0.865500
H731	H73	0.302800	0.523800	0.936000
C1421	C142	0.325000	0.602200	0.740400
H741	H74	0.333800	0.640500	0.720400
C1431	C143	0.316600	0.560700	0.663300
H751	H75	0.318200	0.572100	0.592900
N951	N95	0.411000	0.700100	0.931000
C1441	C144	0.466900	0.884100	0.906900
C1451	C145	0.327000	0.574400	0.182200
Cu211	Cu21	0.210900	0.088730	0.585030
Cu221	Cu22	0.045630	0.132520	0.741060
Cu231	Cu23	0.057840	0.684210	0.830950
Cu241	Cu24	0.120920	0.870150	0.988220
N961	N96	0.214060	0.088720	0.427500
N971	N97	0.128730	0.111950	0.548400
N981	N98	0.078980	0.128030	0.597700
N991	N99	0.061470	0.129890	0.422000
N1001	N100	0.970060	0.157770	0.654300
N1011	N101	0.882500	0.182200	0.506300
N1021	N102	0.295420	0.071760	0.558600
N1031	N103	0.369990	0.067820	0.442500
N1041	N104	0.345090	0.066340	0.615200
N1051	N105	0.452900	0.038780	0.682400
N1061	N106	0.552350	0.061070	0.560600
N1071	N107	0.226100	0.161120	0.782800
N1081	N108	0.215310	0.109160	0.736400
N1091	N109	0.215780	0.093710	0.911300
H761	H76	0.213700	0.077400	0.972500
N1101	N110	0.193680	0.995540	0.686200
N1111	N111	0.179120	0.910220	0.842500
C1461	C146	0.073100	0.758300	0.895500
N1121	N112	0.021100	0.572400	0.946500
N1131	N113	0.158700	0.906900	0.106700
C1471	C147	0.264540	0.076200	0.379200
C1481	C148	0.267100	0.068200	0.271100
H771	H77	0.302300	0.059400	0.237500
C1491	C149	0.215300	0.073800	0.214700
H781	H78	0.215500	0.066600	0.142500
C1501	C150	0.162600	0.090000	0.263800
H791	H79	0.128200	0.095500	0.225500
C1511	C151	0.164500	0.097500	0.373400
C1521	C152	0.116290	0.113200	0.443800
C1531	C153	0.039970	0.138310	0.520500
C1541	C154	0.980560	0.156110	0.549300
C1551	C155	0.936400	0.169100	0.476900
H801	H80	0.945300	0.168400	0.405200
C1561	C156	0.871900	0.181900	0.609300
H811	H81	0.833900	0.189200	0.632700
C1571	C157	0.915200	0.171100	0.682900
H821	H82	0.905900	0.173100	0.754300
C1581	C158	0.312120	0.072000	0.456600
C1591	C159	0.388850	0.064060	0.544200
C1601	C160	0.448620	0.057270	0.581500
C1611	C161	0.507500	0.030200	0.719000
H831	H83	0.512400	0.017000	0.788000
C1621	C162	0.556300	0.040100	0.658600
H841	H84	0.593200	0.031900	0.686500
C1631	C163	0.498640	0.069200	0.522100
H851	H85	0.494400	0.083300	0.453600
C1641	C164	0.237900	0.199800	0.955700
C1651	C165	0.238300	0.198300	0.063100
H861	H86	0.230000	0.161300	0.099700
C1661	C166	0.274700	0.244500	0.116600
H871	H87	0.299500	0.238900	0.179000
C1671	C167	0.226100	0.150030	0.886100
C1681	C168	0.209480	0.069650	0.814700
C1691	C169	0.198030	0.008850	0.789300
C1701	C170	0.192010	0.965900	0.865500
H881	H88	0.197200	0.976200	0.936000
C1711	C171	0.175000	0.897800	0.740400
H891	H89	0.166200	0.859500	0.720400
C1721	C172	0.183400	0.939300	0.663300
H901	H90	0.181800	0.927900	0.592900
N1141	N114	0.089000	0.799900	0.931000
C1731	C173	0.033100	0.615900	0.906900
C1741	C174	0.173000	0.925600	0.182200
Cu251	Cu25	0.588730	0.789100	0.085030
Cu261	Cu26	0.632520	0.954370	0.241060
Cu271	Cu27	0.184210	0.942160	0.330950
Cu281	Cu28	0.370150	0.879080	0.488220
N1151	N115	0.588720	0.785940	0.927500
N1161	N116	0.611950	0.871270	0.048400
N1171	N117	0.628030	0.921020	0.097700
N1181	N118	0.629890	0.938530	0.922000
N1191	N119	0.657770	0.029940	0.154300
N1201	N120	0.682200	0.117500	0.006300
N1211	N121	0.571760	0.704580	0.058600
N1221	N122	0.567820	0.630010	0.942500
N1231	N123	0.566340	0.654910	0.115200
N1241	N124	0.538780	0.547100	0.182400
N1251	N125	0.561070	0.447650	0.060600
N1261	N126	0.661120	0.773900	0.282800
N1271	N127	0.609160	0.784690	0.236400
N1281	N128	0.593710	0.784220	0.411300
H911	H91	0.577400	0.786300	0.472500
N1291	N129	0.495540	0.806320	0.186200
N1301	N130	0.410220	0.820880	0.342500
C1751	C175	0.258300	0.926900	0.395500
N1311	N131	0.072400	0.978900	0.446500
N1321	N132	0.406900	0.841300	0.606700
C1761	C176	0.576200	0.735460	0.879200
C1771	C177	0.568200	0.732900	0.771100
H921	H92	0.559400	0.697700	0.737500
C1781	C178	0.573800	0.784700	0.714700
H931	H93	0.566600	0.784500	0.642500
C1791	C179	0.590000	0.837400	0.763800
H941	H94	0.595500	0.871800	0.725500
C1801	C180	0.597500	0.835500	0.873400
C1811	C181	0.613200	0.883710	0.943800
C1821	C182	0.638310	0.960030	0.020500
C1831	C183	0.656110	0.019440	0.049300
C1841	C184	0.669100	0.063600	0.976900
H951	H95	0.668400	0.054700	0.905200
C1851	C185	0.681900	0.128100	0.109300
H961	H96	0.689200	0.166100	0.132700
C1861	C186	0.671100	0.084800	0.182900
H971	H97	0.673100	0.094100	0.254300
C1871	C187	0.572000	0.687880	0.956600
C1881	C188	0.564060	0.611150	0.044200
C1891	C189	0.557270	0.551380	0.081500
C1901	C190	0.530200	0.492500	0.219000
H981	H98	0.517000	0.487600	0.288000
C1911	C191	0.540100	0.443700	0.158600
H991	H99	0.531900	0.406800	0.186500
C1921	C192	0.569200	0.501360	0.022100
H1001	H100	0.583300	0.505600	0.953600
C1931	C193	0.699800	0.762100	0.455700
C1941	C194	0.698300	0.761700	0.563100
H1011	H101	0.661300	0.770000	0.599700
C1951	C195	0.744500	0.725300	0.616600
H1021	H102	0.738900	0.700500	0.679000
C1961	C196	0.650030	0.773900	0.386100
C1971	C197	0.569650	0.790520	0.314700
C1981	C198	0.508850	0.801970	0.289300
C1991	C199	0.465900	0.807990	0.365500
H1031	H103	0.476200	0.802800	0.436000
C2001	C200	0.397800	0.825000	0.240400
H1041	H104	0.359500	0.833800	0.220400
C2011	C201	0.439300	0.816600	0.163300
H1051	H105	0.427900	0.818200	0.092900
N1331	N133	0.299900	0.911000	0.431000
C2021	C202	0.115900	0.966900	0.406900
C2031	C203	0.425600	0.827000	0.682200
Cu291	Cu29	0.911270	0.710900	0.085030
Cu301	Cu30	0.867480	0.545630	0.241060
Cu311	Cu31	0.315790	0.557840	0.330950
Cu321	Cu32	0.129850	0.620920	0.488220
N1341	N134	0.911280	0.714060	0.927500
N1351	N135	0.888050	0.628730	0.048400
N1361	N136	0.871970	0.578980	0.097700
N1371	N137	0.870110	0.561470	0.922000
N1381	N138	0.842230	0.470060	0.154300
N1391	N139	0.817800	0.382500	0.006300
N1401	N140	0.928240	0.795420	0.058600
N1411	N141	0.932180	0.869990	0.942500
N1421	N142	0.933660	0.845090	0.115200
N1431	N143	0.961220	0.952900	0.182400
N1441	N144	0.938930	0.052350	0.060600
N1451	N145	0.838880	0.726100	0.282800
N1461	N146	0.890840	0.715310	0.236400
N1471	N147	0.906290	0.715780	0.411300
H1061	H106	0.922600	0.713700	0.472500
N1481	N148	0.004460	0.693680	0.186200
N1491	N149	0.089780	0.679120	0.342500
C2041	C204	0.241700	0.573100	0.395500
N1501	N150	0.427600	0.521100	0.446500
N1511	N151	0.093100	0.658700	0.606700
C2051	C205	0.923800	0.764540	0.879200
C2061	C206	0.931800	0.767100	0.771100
H1071	H107	0.940600	0.802300	0.737500
C2071	C207	0.926200	0.715300	0.714700
H1081	H108	0.933400	0.715500	0.642500
C2081	C208	0.910000	0.662600	0.763800
H1091	H109	0.904500	0.628200	0.725500
C2091	C209	0.902500	0.664500	0.873400
C2101	C210	0.886800	0.616290	0.943800
C2111	C211	0.861690	0.539970	0.020500
C2121	C212	0.843890	0.480560	0.049300
C2131	C213	0.830900	0.436400	0.976900
H1101	H110	0.831600	0.445300	0.905200
C2141	C214	0.818100	0.371900	0.109300
H1111	H111	0.810800	0.333900	0.132700
C2151	C215	0.828900	0.415200	0.182900
H1121	H112	0.826900	0.405900	0.254300
C2161	C216	0.928000	0.812120	0.956600
C2171	C217	0.935940	0.888850	0.044200
C2181	C218	0.942730	0.948620	0.081500
C2191	C219	0.969800	0.007500	0.219000
H1131	H113	0.983000	0.012400	0.288000
C2201	C220	0.959900	0.056300	0.158600
H1141	H114	0.968100	0.093200	0.186500
C2211	C221	0.930800	0.998640	0.022100
H1151	H115	0.916700	0.994400	0.953600
C2221	C222	0.800200	0.737900	0.455700
C2231	C223	0.801700	0.738300	0.563100
H1161	H116	0.838700	0.730000	0.599700
C2241	C224	0.755500	0.774700	0.616600
H1171	H117	0.761100	0.799500	0.679000
C2251	C225	0.849970	0.726100	0.386100
C2261	C226	0.930350	0.709480	0.314700
C2271	C227	0.991150	0.698030	0.289300
C2281	C228	0.034100	0.692010	0.365500
H1181	H118	0.023800	0.697200	0.436000
C2291	C229	0.102200	0.675000	0.240400
H1191	H119	0.140500	0.666200	0.220400
C2301	C230	0.060700	0.683400	0.163300
H1201	H120	0.072100	0.681800	0.092900
N1521	N152	0.200100	0.589000	0.431000
C2311	C231	0.384100	0.533100	0.406900
C2321	C232	0.074400	0.673000	0.682200
Cu331	Cu33	0.750000	0.750000	0.250000
Cu341	Cu34	0.250000	0.250000	0.750000
Cu351	Cu35	0.500000	0.000000	0.000000
Cu361	Cu36	0.000000	0.500000	0.000000
Cu371	Cu37	0.000000	0.000000	0.500000
Cu381	Cu38	0.500000	0.500000	0.500000
N1531	N153	0.750000	0.750000	0.094300
N1541	N154	0.250000	0.250000	0.594300
N1551	N155	0.250000	0.250000	0.905700
N1561	N156	0.750000	0.750000	0.405700
