data_PEVLIN_freeONLY_PM
_symmetry_space_group_name_H-M	'P1'
_cell_length_a	6.905900
_cell_length_b	9.989020
_cell_length_c	11.092100
_cell_angle_alpha	116.761000
_cell_angle_beta	104.274000
_cell_angle_gamma	90.000000
_symmetry_Int_Tables_number 1

loop_
_symmetry_equiv_pos_as_xyz
'x,y,z'

loop_
_atom_site_label
_atom_site_type_symbol
_atom_site_fract_x
_atom_site_fract_y
_atom_site_fract_z
Nd11	Nd1	0.442360	0.908500	0.296210
Nd21	Nd2	0.942360	0.387710	0.296210
H11	H1	0.459700	0.678900	0.682800
H21	H2	0.633200	0.852200	0.909400
H31	H3	0.530000	0.188700	0.804800
H41	H4	0.187600	0.179000	0.637400
H51	H5	0.390300	0.247400	0.633600
H61	H6	0.858200	0.937300	0.258600
H71	H7	0.732800	0.992200	0.175400
H81	H8	0.596700	0.637100	0.206800
H91	H9	0.444900	0.566100	0.075400
H101	H10	0.959700	0.003900	0.682800
H111	H11	0.133200	0.057200	0.909400
H121	H12	0.030000	0.616100	0.804800
H131	H13	0.687600	0.458400	0.637400
H141	H14	0.890300	0.386200	0.633600
H151	H15	0.358200	0.321300	0.258600
H161	H16	0.232800	0.183200	0.175400
H171	H17	0.096700	0.569700	0.206800
H181	H18	0.944900	0.509300	0.075400
C11	C1	0.425800	0.979400	0.642400
C21	C2	0.404000	0.825400	0.602400
C31	C3	0.478000	0.780800	0.706200
C41	C4	0.577900	0.884300	0.843000
C51	C5	0.594200	0.037500	0.879600
C61	C6	0.518600	0.086200	0.779800
C71	C7	0.278500	0.166700	0.580000
C81	C8	0.169000	0.170700	0.445200
C91	C9	0.298000	0.704200	0.454800
C101	C10	0.702200	0.155500	0.026400
C111	C11	0.925800	0.663000	0.642400
C121	C12	0.904000	0.777000	0.602400
C131	C13	0.978000	0.925400	0.706200
C141	C14	0.077900	0.958700	0.843000
C151	C15	0.094200	0.842100	0.879600
C161	C16	0.018600	0.693600	0.779800
C171	C17	0.778500	0.413300	0.580000
C181	C18	0.669000	0.274500	0.445200
C191	C19	0.798000	0.750600	0.454800
C201	C20	0.202200	0.870900	0.026400
O11	O1	0.350300	0.021900	0.539000
O21	O2	0.156500	0.054620	0.330640
O31	O3	0.100200	0.288980	0.459160
O41	O4	0.284600	0.731410	0.351220
O51	O5	0.225700	0.582290	0.441580
O61	O6	0.836500	0.118750	0.102300
O71	O7	0.659800	0.288300	0.070000
O81	O8	0.739200	0.933910	0.212420
O91	O9	0.516300	0.651170	0.140140
O101	O10	0.850300	0.517100	0.539000
O111	O11	0.656500	0.276020	0.330640
O121	O12	0.600200	0.170180	0.459160
O131	O13	0.784600	0.619810	0.351220
O141	O14	0.725700	0.859290	0.441580
O151	O15	0.336500	0.983550	0.102300
O161	O16	0.159800	0.781700	0.070000
O171	O17	0.239200	0.278510	0.212420
O181	O18	0.016300	0.488970	0.140140
