data_PEVQIQ_freeONLY_PM
_symmetry_space_group_name_H-M	'P1'
_cell_length_a	9.987000
_cell_length_b	12.275000
_cell_length_c	17.462000
_cell_angle_alpha	90.000000
_cell_angle_beta	102.800000
_cell_angle_gamma	90.000000
_symmetry_Int_Tables_number 1

loop_
_symmetry_equiv_pos_as_xyz
'x,y,z'

loop_
_atom_site_label
_atom_site_type_symbol
_atom_site_fract_x
_atom_site_fract_y
_atom_site_fract_z
O11	O1	0.909700	0.258700	0.716700
O21	O2	0.816800	0.414100	0.629800
O31	O3	0.359700	0.118700	0.645000
O41	O4	0.948300	0.988200	0.905300
O51	O5	0.179200	0.949200	0.876300
O61	O6	0.120200	0.145300	0.665000
O71	O7	0.685600	0.024300	0.480900
O81	O8	0.154100	0.098600	0.968700
O91	O9	0.593900	0.049200	0.602800
O101	O10	0.049400	0.122500	0.826900
O111	O11	0.307000	0.079800	0.777200
O121	O12	0.942700	0.450900	0.766400
O131	O13	0.846900	0.069500	0.608000
O141	O14	0.068400	0.387500	0.664000
O151	O15	0.314800	0.271400	0.727400
O161	O16	0.680000	0.210200	0.539500
O171	O17	0.515300	0.183200	0.396300
O181	O18	0.801400	0.053000	0.756000
O191	O19	0.539800	0.285600	0.642800
Fe11	Fe1	0.245800	0.924200	0.779500
Fe21	Fe2	0.649600	0.358500	0.572600
Fe31	Fe3	0.565000	0.023900	0.372300
Fe41	Fe4	0.964800	0.108300	0.710700
P11	P1	0.701100	0.087600	0.558900
P21	P2	0.083300	0.039400	0.893700
P31	P3	0.272900	0.153800	0.704200
P41	P4	0.938100	0.375500	0.695600
F11	F1	0.049800	0.958000	0.722500
F21	F2	0.712600	0.090200	0.326500
H11	H1	0.564000	0.207000	0.445000
H21	H2	0.529000	0.234000	0.360000
H31	H3	0.720000	0.019000	0.732000
H41	H4	0.829000	0.028000	0.805000
H51	H5	0.625000	0.280000	0.682000
H61	H6	0.497000	0.218000	0.639000
O201	O20	0.590300	0.758700	0.783300
O211	O21	0.683200	0.914100	0.870200
O221	O22	0.140300	0.618700	0.855000
O231	O23	0.551700	0.488200	0.594700
O241	O24	0.320800	0.449200	0.623700
O251	O25	0.379800	0.645300	0.835000
O261	O26	0.814400	0.524300	0.019100
O271	O27	0.345900	0.598600	0.531300
O281	O28	0.906100	0.549200	0.897200
O291	O29	0.450600	0.622500	0.673100
O301	O30	0.193000	0.579800	0.722800
O311	O31	0.557300	0.950900	0.733600
O321	O32	0.653100	0.569500	0.892000
O331	O33	0.431600	0.887500	0.836000
O341	O34	0.185200	0.771400	0.772600
O351	O35	0.820000	0.710200	0.960500
O361	O36	0.984700	0.683200	0.103700
O371	O37	0.698600	0.553000	0.744000
O381	O38	0.960200	0.785600	0.857200
Fe51	Fe5	0.254200	0.424200	0.720500
Fe61	Fe6	0.850400	0.858500	0.927400
Fe71	Fe7	0.935000	0.523900	0.127700
Fe81	Fe8	0.535200	0.608300	0.789300
P51	P5	0.798900	0.587600	0.941100
P61	P6	0.416700	0.539400	0.606300
P71	P7	0.227100	0.653800	0.795800
P81	P8	0.561900	0.875500	0.804400
F31	F3	0.450200	0.458000	0.777500
F41	F4	0.787400	0.590200	0.173500
H71	H7	0.936000	0.707000	0.055000
H81	H8	0.971000	0.734000	0.140000
H91	H9	0.780000	0.519000	0.768000
H101	H10	0.671000	0.528000	0.695000
H111	H11	0.875000	0.780000	0.818000
H121	H12	0.003000	0.718000	0.861000
O391	O39	0.090300	0.741300	0.283300
O401	O40	0.183200	0.585900	0.370200
O411	O41	0.640300	0.881300	0.355000
O421	O42	0.051700	0.011800	0.094700
O431	O43	0.820800	0.050800	0.123700
O441	O44	0.879800	0.854700	0.335000
O451	O45	0.314400	0.975700	0.519100
O461	O46	0.845900	0.901400	0.031300
O471	O47	0.406100	0.950800	0.397200
O481	O48	0.950600	0.877500	0.173100
O491	O49	0.693000	0.920200	0.222800
O501	O50	0.057300	0.549100	0.233600
O511	O51	0.153100	0.930500	0.392000
O521	O52	0.931600	0.612500	0.336000
O531	O53	0.685200	0.728600	0.272600
O541	O54	0.320000	0.789800	0.460500
O551	O55	0.484700	0.816800	0.603700
O561	O56	0.198600	0.947000	0.244000
O571	O57	0.460200	0.714400	0.357200
Fe91	Fe9	0.754200	0.075800	0.220500
Fe101	Fe10	0.350400	0.641500	0.427400
Fe111	Fe11	0.435000	0.976100	0.627700
Fe121	Fe12	0.035200	0.891700	0.289300
P91	P9	0.298900	0.912400	0.441100
P101	P10	0.916700	0.960600	0.106300
P111	P11	0.727100	0.846200	0.295800
P121	P12	0.061900	0.624500	0.304400
F51	F5	0.950200	0.042000	0.277500
F61	F6	0.287400	0.909800	0.673500
H131	H13	0.436000	0.793000	0.555000
H141	H14	0.471000	0.766000	0.640000
H151	H15	0.280000	0.981000	0.268000
H161	H16	0.171000	0.972000	0.195000
H171	H17	0.375000	0.720000	0.318000
H181	H18	0.503000	0.782000	0.361000
O581	O58	0.409700	0.241300	0.216700
O591	O59	0.316800	0.085900	0.129800
O601	O60	0.859700	0.381300	0.145000
O611	O61	0.448300	0.511800	0.405300
O621	O62	0.679200	0.550800	0.376300
O631	O63	0.620200	0.354700	0.165000
O641	O64	0.185600	0.475700	0.980900
O651	O65	0.654100	0.401400	0.468700
O661	O66	0.093900	0.450800	0.102800
O671	O67	0.549400	0.377500	0.326900
O681	O68	0.807000	0.420200	0.277200
O691	O69	0.442700	0.049100	0.266400
O701	O70	0.346900	0.430500	0.108000
O711	O71	0.568400	0.112500	0.164000
O721	O72	0.814800	0.228600	0.227400
O731	O73	0.180000	0.289800	0.039500
O741	O74	0.015300	0.316800	0.896300
O751	O75	0.301400	0.447000	0.256000
O761	O76	0.039800	0.214400	0.142800
Fe131	Fe13	0.745800	0.575800	0.279500
Fe141	Fe14	0.149600	0.141500	0.072600
Fe151	Fe15	0.065000	0.476100	0.872300
Fe161	Fe16	0.464800	0.391700	0.210700
P131	P13	0.201100	0.412400	0.058900
P141	P14	0.583300	0.460600	0.393700
P151	P15	0.772900	0.346200	0.204200
P161	P16	0.438100	0.124500	0.195600
F71	F7	0.549800	0.542000	0.222500
F81	F8	0.212600	0.409800	0.826500
H191	H19	0.064000	0.293000	0.945000
H201	H20	0.029000	0.266000	0.860000
H211	H21	0.220000	0.481000	0.232000
H221	H22	0.329000	0.472000	0.305000
H231	H23	0.125000	0.220000	0.182000
H241	H24	0.997000	0.282000	0.139000
