data_PEVYUM_freeONLY_PM
_symmetry_space_group_name_H-M	'P1'
_cell_length_a	7.324000
_cell_length_b	9.650300
_cell_length_c	11.409000
_cell_angle_alpha	97.091400
_cell_angle_beta	90.000000
_cell_angle_gamma	112.301000
_symmetry_Int_Tables_number 1

loop_
_symmetry_equiv_pos_as_xyz
'x,y,z'

loop_
_atom_site_label
_atom_site_type_symbol
_atom_site_fract_x
_atom_site_fract_y
_atom_site_fract_z
Co11	Co1	0.595240	0.498080	0.503100
Co21	Co2	0.097160	0.501920	0.496900
H11	H1	0.867000	0.027400	0.390300
H21	H2	0.411400	0.285800	0.269800
H31	H3	0.408200	0.280400	0.068100
H41	H4	0.778900	0.716800	0.115900
H51	H5	0.770400	0.709800	0.315500
H61	H6	0.600700	0.703800	0.733200
H71	H7	0.612400	0.715200	0.932900
H81	H8	0.584900	0.286000	0.889200
H91	H9	0.589100	0.294000	0.690000
H101	H10	0.208700	0.004400	0.398200
H111	H11	0.839600	0.972600	0.609700
H121	H12	0.125600	0.714200	0.730200
H131	H13	0.127800	0.719600	0.931900
H141	H14	0.062100	0.283200	0.884100
H151	H15	0.060600	0.290200	0.684500
H161	H16	0.896900	0.296200	0.266800
H171	H17	0.897200	0.284800	0.067100
H181	H18	0.298900	0.714000	0.110800
H191	H19	0.295100	0.706000	0.310000
H201	H20	0.204300	0.995600	0.601800
C11	C1	0.486900	0.372800	0.238000
C21	C2	0.483100	0.369000	0.116600
C31	C3	0.593400	0.500200	0.066800
C41	C4	0.702800	0.627800	0.144800
C51	C5	0.698400	0.622400	0.265000
C61	C6	0.601100	0.620000	0.765700
C71	C7	0.603900	0.627000	0.885700
C81	C8	0.593700	0.500200	0.937300
C91	C9	0.589500	0.372800	0.859600
C101	C10	0.592200	0.378800	0.739700
C111	C11	0.199000	0.209200	0.467500
C121	C12	0.111200	0.035400	0.440700
C131	C13	0.114100	0.627200	0.762000
C141	C14	0.114100	0.631000	0.883400
C151	C15	0.093200	0.499800	0.933200
C161	C16	0.075000	0.372200	0.855200
C171	C17	0.076000	0.377600	0.735000
C181	C18	0.981100	0.380000	0.234300
C191	C19	0.976900	0.373000	0.114300
C201	C20	0.093500	0.499800	0.062700
C211	C21	0.216700	0.627200	0.140400
C221	C22	0.213400	0.621200	0.260300
C231	C23	0.989800	0.790800	0.532500
C241	C24	0.075800	0.964600	0.559300
N11	N1	0.598900	0.498800	0.690500
N21	N2	0.595200	0.497200	0.312300
N31	N3	0.100100	0.501200	0.309500
N41	N4	0.098000	0.502800	0.687700
O11	O1	0.385000	0.269600	0.489000
O21	O2	0.081100	0.274000	0.465300
O31	O3	0.936000	0.980000	0.368800
O41	O4	0.115400	0.730400	0.511000
O51	O5	0.807100	0.726000	0.534700
O61	O6	0.956000	0.020000	0.631200
F11	F1	0.799790	0.406580	0.489400
F21	F2	0.393210	0.593420	0.510600
