data_PEYPIU_freeONLY_PM
_symmetry_space_group_name_H-M	'P1'
_cell_length_a	10.894700
_cell_length_b	10.970800
_cell_length_c	13.989100
_cell_angle_alpha	81.540000
_cell_angle_beta	89.016000
_cell_angle_gamma	87.658000
_symmetry_Int_Tables_number 1

loop_
_symmetry_equiv_pos_as_xyz
'x,y,z'

loop_
_atom_site_label
_atom_site_type_symbol
_atom_site_fract_x
_atom_site_fract_y
_atom_site_fract_z
Zn11	Zn1	0.727000	0.663830	0.607030
Zn21	Zn2	0.722960	0.622230	0.819240
H11	H1	0.548300	0.648100	0.451500
H21	H2	0.542200	0.640800	0.290400
H31	H3	0.544300	0.635300	0.981100
H41	H4	0.906600	0.626300	0.137400
H51	H5	0.901800	0.684100	0.438900
H61	H6	0.782400	0.277300	0.583300
H71	H7	0.539700	0.650600	0.140000
H81	H8	0.125200	0.644600	0.571800
H91	H9	0.904900	0.681000	0.276800
H101	H10	0.781800	0.072700	0.574200
H111	H11	0.899300	0.608800	0.978300
H121	H12	0.331300	0.651500	0.572500
H131	H13	0.208900	0.790700	0.945700
H141	H14	0.216000	0.657400	0.005900
H151	H15	0.630600	0.073000	0.000300
H161	H16	0.514400	0.097800	0.933700
C11	C1	0.726200	0.406900	0.723400
C21	C2	0.725900	0.271500	0.720800
C31	C3	0.957900	0.641900	0.712900
C41	C4	0.689400	0.060400	0.791700
C51	C5	0.723600	0.645000	0.159100
C61	C6	0.156200	0.664000	0.796800
C71	C7	0.621200	0.654400	0.415900
C81	C8	0.617200	0.649000	0.319100
C91	C9	0.724100	0.655700	0.263100
C101	C10	0.094100	0.653200	0.713900
C111	C11	0.618400	0.634100	0.013300
C121	C12	0.831000	0.629500	0.107100
C131	C13	0.828100	0.675900	0.408300
C141	C14	0.759000	0.223600	0.637600
C151	C15	0.614900	0.644200	0.108300
C161	C16	0.690000	0.186300	0.798300
C171	C17	0.284600	0.668500	0.796200
C181	C18	0.164500	0.649800	0.629500
C191	C19	0.489700	0.654900	0.713600
C201	C20	0.355600	0.661400	0.714900
C211	C21	0.725200	0.012300	0.708700
C221	C22	0.830900	0.672300	0.310900
C231	C23	0.758500	0.099200	0.632300
C241	C24	0.825800	0.619100	0.011400
C251	C25	0.288200	0.653800	0.630200
C261	C26	0.725200	0.877900	0.702600
C271	C27	0.214900	0.703300	0.941100
C281	C28	0.603500	0.092300	0.933900
N11	N1	0.725200	0.668300	0.461700
N21	N2	0.722300	0.622700	0.962800
O11	O1	0.732600	0.475500	0.644200
O21	O2	0.908100	0.660500	0.631800
O31	O3	0.904000	0.615000	0.792600
O41	O4	0.543600	0.664800	0.633200
O51	O5	0.541700	0.640200	0.792300
O61	O6	0.728800	0.807900	0.780000
O71	O7	0.723300	0.847800	0.621000
O81	O8	0.717400	0.441400	0.804600
O91	O9	0.113600	0.668800	0.887700
O101	O10	0.324100	0.674000	0.888000
O111	O11	0.648500	0.998700	0.878500
O121	O12	0.652700	0.206800	0.888800
Zn31	Zn3	0.273000	0.336170	0.392970
Zn41	Zn4	0.277040	0.377770	0.180760
H171	H17	0.451700	0.351900	0.548500
H181	H18	0.457800	0.359200	0.709600
H191	H19	0.455700	0.364700	0.018900
H201	H20	0.093400	0.373700	0.862600
H211	H21	0.098200	0.315900	0.561100
H221	H22	0.217600	0.722700	0.416700
H231	H23	0.460300	0.349400	0.860000
H241	H24	0.874800	0.355400	0.428200
H251	H25	0.095100	0.319000	0.723200
H261	H26	0.218200	0.927300	0.425800
H271	H27	0.100700	0.391200	0.021700
H281	H28	0.668700	0.348500	0.427500
H291	H29	0.791100	0.209300	0.054300
H301	H30	0.784000	0.342600	0.994100
H311	H31	0.369400	0.927000	0.999700
H321	H32	0.485600	0.902200	0.066300
C291	C29	0.273800	0.593100	0.276600
C301	C30	0.274100	0.728500	0.279200
C311	C31	0.042100	0.358100	0.287100
C321	C32	0.310600	0.939600	0.208300
C331	C33	0.276400	0.355000	0.840900
C341	C34	0.843800	0.336000	0.203200
C351	C35	0.378800	0.345600	0.584100
C361	C36	0.382800	0.351000	0.680900
C371	C37	0.275900	0.344300	0.736900
C381	C38	0.905900	0.346800	0.286100
C391	C39	0.381600	0.365900	0.986700
C401	C40	0.169000	0.370500	0.892900
C411	C41	0.171900	0.324100	0.591700
C421	C42	0.241000	0.776400	0.362400
C431	C43	0.385100	0.355800	0.891700
C441	C44	0.310000	0.813700	0.201700
C451	C45	0.715400	0.331500	0.203800
C461	C46	0.835500	0.350200	0.370500
C471	C47	0.510300	0.345100	0.286400
C481	C48	0.644400	0.338600	0.285100
C491	C49	0.274800	0.987700	0.291300
C501	C50	0.169100	0.327700	0.689100
C511	C51	0.241500	0.900800	0.367700
C521	C52	0.174200	0.380900	0.988600
C531	C53	0.711800	0.346200	0.369800
C541	C54	0.274800	0.122100	0.297400
C551	C55	0.785100	0.296700	0.058900
C561	C56	0.396500	0.907700	0.066100
N31	N3	0.274800	0.331700	0.538300
N41	N4	0.277700	0.377300	0.037200
O131	O13	0.267400	0.524500	0.355800
O141	O14	0.091900	0.339500	0.368200
O151	O15	0.096000	0.385000	0.207400
O161	O16	0.456400	0.335200	0.366800
O171	O17	0.458300	0.359800	0.207700
O181	O18	0.271200	0.192100	0.220000
O191	O19	0.276700	0.152200	0.379000
O201	O20	0.282600	0.558600	0.195400
O211	O21	0.886400	0.331200	0.112300
O221	O22	0.675900	0.326000	0.112000
O231	O23	0.351500	0.001300	0.121500
O241	O24	0.347300	0.793200	0.111200
