data_PIHNUQ_freeONLY_PM
_symmetry_space_group_name_H-M	'P1'
_cell_length_a	10.363000
_cell_length_b	12.742800
_cell_length_c	12.742800
_cell_angle_alpha	107.822000
_cell_angle_beta	93.204900
_cell_angle_gamma	86.795100
_symmetry_Int_Tables_number 1

loop_
_symmetry_equiv_pos_as_xyz
'x,y,z'

loop_
_atom_site_label
_atom_site_type_symbol
_atom_site_fract_x
_atom_site_fract_y
_atom_site_fract_z
Zn11	Zn1	0.899710	0.579950	0.978150
Zn21	Zn2	0.600290	0.978150	0.579950
Zn31	Zn3	0.100290	0.420050	0.021850
Zn41	Zn4	0.399710	0.021850	0.420050
H11	H1	0.778200	0.382100	0.647700
H21	H2	0.738300	0.259300	0.475900
H31	H3	0.072300	0.093000	0.507200
H41	H4	0.106800	0.213100	0.681700
H51	H5	0.743100	0.153800	0.306400
H61	H6	0.772200	0.029300	0.242900
H71	H7	0.734900	0.668400	0.820200
H81	H8	0.581600	0.805800	0.824400
H91	H9	0.563400	0.861900	0.147900
H101	H10	0.718400	0.723500	0.136300
H111	H11	0.408500	0.932100	0.926700
H121	H12	0.408700	0.959400	0.055600
H131	H13	0.721800	0.647700	0.382100
H141	H14	0.761700	0.475900	0.259300
H151	H15	0.427700	0.507200	0.093000
H161	H16	0.393200	0.681700	0.213100
H171	H17	0.756900	0.306400	0.153800
H181	H18	0.727800	0.242900	0.029300
H191	H19	0.765100	0.820200	0.668400
H201	H20	0.918400	0.824400	0.805800
H211	H21	0.936600	0.147900	0.861900
H221	H22	0.781600	0.136300	0.723500
H231	H23	0.091500	0.926700	0.932100
H241	H24	0.091300	0.055600	0.959400
H251	H25	0.221800	0.617900	0.352300
H261	H26	0.261700	0.740700	0.524100
H271	H27	0.927700	0.907000	0.492800
H281	H28	0.893200	0.786900	0.318300
H291	H29	0.256900	0.846200	0.693600
H301	H30	0.227800	0.970700	0.757100
H311	H31	0.265100	0.331600	0.179800
H321	H32	0.418400	0.194200	0.175600
H331	H33	0.436600	0.138100	0.852100
H341	H34	0.281600	0.276500	0.863700
H351	H35	0.591500	0.067900	0.073300
H361	H36	0.591300	0.040600	0.944400
H371	H37	0.278200	0.352300	0.617900
H381	H38	0.238300	0.524100	0.740700
H391	H39	0.572300	0.492800	0.907000
H401	H40	0.606800	0.318300	0.786900
H411	H41	0.243100	0.693600	0.846200
H421	H42	0.272200	0.757100	0.970700
H431	H43	0.234900	0.179800	0.331600
H441	H44	0.081600	0.175600	0.194200
H451	H45	0.063400	0.852100	0.138100
H461	H46	0.218400	0.863700	0.276500
H471	H47	0.908500	0.073300	0.067900
H481	H48	0.908700	0.944400	0.040600
C11	C1	0.967600	0.388000	0.796800
C21	C2	0.946300	0.311300	0.684100
C31	C3	0.836800	0.323300	0.620100
C41	C4	0.812900	0.250300	0.516900
C51	C5	0.901100	0.162800	0.474400
C61	C6	0.012200	0.150200	0.535800
C71	C7	0.033200	0.223100	0.640100
C81	C8	0.765400	0.082200	0.315800
C91	C9	0.657000	0.049900	0.374100
C101	C10	0.701700	0.709000	0.887600
C111	C11	0.609100	0.791300	0.889500
C121	C12	0.557600	0.851600	0.987200
C131	C13	0.598400	0.824500	0.080300
C141	C14	0.691800	0.741300	0.072700
C151	C15	0.463400	0.948000	0.993400
C161	C16	0.532400	0.796800	0.388000
C171	C17	0.553700	0.684100	0.311300
C181	C18	0.663200	0.620100	0.323300
C191	C19	0.687100	0.516900	0.250300
C201	C20	0.598900	0.474400	0.162800
C211	C21	0.487800	0.535800	0.150200
C221	C22	0.466800	0.640100	0.223100
C231	C23	0.734600	0.315800	0.082200
C241	C24	0.843000	0.374100	0.049900
C251	C25	0.798300	0.887600	0.709000
C261	C26	0.890900	0.889500	0.791300
C271	C27	0.942400	0.987200	0.851600
C281	C28	0.901600	0.080300	0.824500
C291	C29	0.808200	0.072700	0.741300
C301	C30	0.036600	0.993400	0.948000
C311	C31	0.032400	0.612000	0.203200
C321	C32	0.053700	0.688700	0.315900
C331	C33	0.163200	0.676700	0.379900
C341	C34	0.187100	0.749700	0.483100
C351	C35	0.098900	0.837200	0.525600
C361	C36	0.987800	0.849800	0.464200
C371	C37	0.966800	0.776900	0.359900
C381	C38	0.234600	0.917800	0.684200
C391	C39	0.343000	0.950100	0.625900
C401	C40	0.298300	0.291000	0.112400
C411	C41	0.390900	0.208700	0.110500
C421	C42	0.442400	0.148400	0.012800
C431	C43	0.401600	0.175500	0.919700
C441	C44	0.308200	0.258700	0.927300
C451	C45	0.536600	0.052000	0.006600
C461	C46	0.467600	0.203200	0.612000
C471	C47	0.446300	0.315900	0.688700
C481	C48	0.336800	0.379900	0.676700
C491	C49	0.312900	0.483100	0.749700
C501	C50	0.401100	0.525600	0.837200
C511	C51	0.512200	0.464200	0.849800
C521	C52	0.533200	0.359900	0.776900
C531	C53	0.265400	0.684200	0.917800
C541	C54	0.157000	0.625900	0.950100
C551	C55	0.201700	0.112400	0.291000
C561	C56	0.109100	0.110500	0.208700
C571	C57	0.057600	0.012800	0.148400
C581	C58	0.098400	0.919700	0.175500
C591	C59	0.191800	0.927300	0.258700
C601	C60	0.963400	0.006600	0.052000
N11	N1	0.745700	0.685090	0.978310
N21	N2	0.754300	0.978310	0.685090
N31	N3	0.254300	0.314910	0.021690
N41	N4	0.245700	0.021690	0.314910
O11	O1	0.903900	0.478640	0.822640
O21	O2	0.048200	0.356370	0.860330
O31	O3	0.887300	0.086790	0.372830
O41	O4	0.544900	0.057960	0.332840
O51	O5	0.687800	0.016420	0.454300
O61	O6	0.596100	0.822640	0.478640
O71	O7	0.451800	0.860330	0.356370
O81	O8	0.612700	0.372830	0.086790
O91	O9	0.955100	0.332840	0.057960
O101	O10	0.812200	0.454300	0.016420
O111	O11	0.096100	0.521360	0.177360
O121	O12	0.951800	0.643630	0.139670
O131	O13	0.112700	0.913210	0.627170
O141	O14	0.455100	0.942040	0.667160
O151	O15	0.312200	0.983580	0.545700
O161	O16	0.403900	0.177360	0.521360
O171	O17	0.548200	0.139670	0.643630
O181	O18	0.387300	0.627170	0.913210
O191	O19	0.044900	0.667160	0.942040
O201	O20	0.187800	0.545700	0.983580
