data_PIHWAG_freeONLY_PM
_symmetry_space_group_name_H-M	'P1'
_cell_length_a	8.206000
_cell_length_b	14.183300
_cell_length_c	14.183300
_cell_angle_alpha	110.031000
_cell_angle_beta	91.265000
_cell_angle_gamma	88.735000
_symmetry_Int_Tables_number 1

loop_
_symmetry_equiv_pos_as_xyz
'x,y,z'

loop_
_atom_site_label
_atom_site_type_symbol
_atom_site_fract_x
_atom_site_fract_y
_atom_site_fract_z
La11	La1	0.003450	0.748780	0.218000
La21	La2	0.503450	0.782000	0.251220
H11	H1	0.497300	0.563200	0.602200
H21	H2	0.428700	0.281800	0.408200
H31	H3	0.277100	0.357400	0.694800
H41	H4	0.463900	0.742900	0.953700
H51	H5	0.526700	0.660300	0.775100
H61	H6	0.784600	0.395600	0.217200
H71	H7	0.626700	0.313500	0.314300
H81	H8	0.050900	0.039500	0.570700
H91	H9	0.131700	0.214600	0.647800
H101	H10	0.181400	0.934700	0.127100
H111	H11	0.210800	0.999200	0.933400
H121	H12	0.326800	0.986900	0.020700
H131	H13	0.338300	0.907300	0.909300
H141	H14	0.970700	0.787500	0.921300
H151	H15	0.006500	0.857400	0.856600
H161	H16	0.132900	0.769900	0.856500
H171	H17	0.997300	0.397800	0.436800
H181	H18	0.928700	0.591800	0.718200
H191	H19	0.777100	0.305200	0.642600
H201	H20	0.963900	0.046300	0.257100
H211	H21	0.026700	0.224900	0.339700
H221	H22	0.284600	0.782800	0.604400
H231	H23	0.126700	0.685700	0.686500
H241	H24	0.550900	0.429300	0.960500
H251	H25	0.631700	0.352200	0.785400
H261	H26	0.681400	0.872900	0.065300
H271	H27	0.710800	0.066600	0.000800
H281	H28	0.826800	0.979300	0.013100
H291	H29	0.838300	0.090700	0.092700
H301	H30	0.470700	0.078700	0.212500
H311	H31	0.506500	0.143400	0.142600
H321	H32	0.632900	0.143500	0.230100
C11	C1	0.385100	0.473900	0.665500
C21	C2	0.459400	0.497000	0.588800
C31	C3	0.480200	0.426000	0.492800
C41	C4	0.418600	0.330200	0.473600
C51	C5	0.342500	0.303400	0.547800
C61	C6	0.327100	0.375100	0.643500
C71	C7	0.367200	0.547800	0.767400
C81	C8	0.300000	0.632400	0.945400
C91	C9	0.414700	0.682400	0.912200
C101	C10	0.451700	0.634900	0.810300
C111	C11	0.229000	0.659500	0.046300
C121	C12	0.568300	0.448900	0.414700
C131	C13	0.716700	0.534300	0.316700
C141	C14	0.725900	0.431300	0.276100
C151	C15	0.636500	0.384200	0.333000
C161	C16	0.794800	0.607700	0.279700
C171	C17	0.274900	0.202600	0.526800
C181	C18	0.194000	0.024200	0.450200
C191	C19	0.123800	0.071400	0.540400
C201	C20	0.169600	0.171900	0.584500
C211	C21	0.158300	0.922800	0.378600
C221	C22	0.115000	0.892800	0.074200
C231	C23	0.264500	0.950800	0.959800
C241	C24	0.056000	0.820500	0.897300
C251	C25	0.885100	0.334500	0.526100
C261	C26	0.959400	0.411200	0.503000
C271	C27	0.980200	0.507200	0.574000
C281	C28	0.918600	0.526400	0.669800
C291	C29	0.842500	0.452200	0.696600
C301	C30	0.827100	0.356500	0.624900
C311	C31	0.867200	0.232600	0.452200
C321	C32	0.800000	0.054600	0.367600
C331	C33	0.914700	0.087800	0.317600
C341	C34	0.951700	0.189700	0.365100
C351	C35	0.729000	0.953700	0.340500
C361	C36	0.068300	0.585300	0.551100
C371	C37	0.216700	0.683300	0.465700
C381	C38	0.225900	0.723900	0.568700
C391	C39	0.136500	0.667000	0.615800
C401	C40	0.294800	0.720300	0.392300
C411	C41	0.774900	0.473200	0.797400
C421	C42	0.694000	0.549800	0.975800
C431	C43	0.623800	0.459600	0.928600
C441	C44	0.669600	0.415500	0.828100
C451	C45	0.658300	0.621400	0.077200
C461	C46	0.615000	0.925800	0.107200
C471	C47	0.764500	0.040200	0.049200
C481	C48	0.556000	0.102700	0.179500
S11	S1	0.235900	0.526820	0.850640
S21	S2	0.599900	0.571770	0.423670
S31	S3	0.321300	0.104080	0.418640
S41	S4	0.735900	0.149360	0.473180
S51	S5	0.099900	0.576330	0.428230
S61	S6	0.821300	0.581360	0.895920
N11	N1	0.142600	0.890400	0.983200
N21	N2	0.642600	0.016800	0.109600
O11	O1	0.290300	0.732300	0.116700
O21	O2	0.109500	0.612300	0.059300
O31	O3	0.906100	0.579200	0.218200
O41	O4	0.747500	0.699600	0.315400
O51	O5	0.053200	0.871100	0.398500
O61	O6	0.236300	0.891200	0.295800
O71	O7	0.007500	0.843700	0.096500
O81	O8	0.790300	0.883300	0.267700
O91	O9	0.609500	0.940700	0.387700
O101	O10	0.406100	0.781800	0.420800
O111	O11	0.247500	0.684600	0.300400
O121	O12	0.553200	0.601500	0.128900
O131	O13	0.736300	0.704200	0.108800
O141	O14	0.507500	0.903500	0.156300
