data_PIQFIG_freeONLY_PM
_symmetry_space_group_name_H-M	'P1'
_cell_length_a	21.763300
_cell_length_b	14.195800
_cell_length_c	22.964900
_cell_angle_alpha	90.000000
_cell_angle_beta	90.182000
_cell_angle_gamma	90.000000
_symmetry_Int_Tables_number 1

loop_
_symmetry_equiv_pos_as_xyz
'x,y,z'

loop_
_atom_site_label
_atom_site_type_symbol
_atom_site_fract_x
_atom_site_fract_y
_atom_site_fract_z
C11	C1	0.810300	0.062000	0.841500
C21	C2	0.846300	0.139100	0.809200
C31	C3	0.683200	0.308100	0.793000
C41	C4	0.712900	0.396300	0.823300
C51	C5	0.785200	0.258900	0.004800
C61	C6	0.003500	0.953100	0.783700
O11	O1	0.775030	0.088800	0.880410
O21	O2	0.837610	0.222700	0.824430
O31	O3	0.818410	0.978700	0.826210
O41	O4	0.880410	0.110600	0.769790
O51	O5	0.701160	0.228900	0.811280
O61	O6	0.752910	0.380400	0.862760
O71	O7	0.644090	0.323300	0.752770
O81	O8	0.694370	0.475200	0.805240
O91	O9	0.816590	0.260600	0.960100
O101	O10	0.804560	0.270000	0.056620
O111	O11	0.954900	0.949000	0.811340
O121	O12	0.058000	0.959100	0.804690
Cr11	Cr1	0.876810	0.964650	0.757900
Cr21	Cr2	0.765240	0.237410	0.882780
Mn11	Mn1	0.234760	0.237410	0.617220
C71	C7	0.310300	0.562000	0.841500
C81	C8	0.346300	0.639100	0.809200
C91	C9	0.183200	0.808100	0.793000
C101	C10	0.212900	0.896300	0.823300
C111	C11	0.285200	0.758900	0.004800
C121	C12	0.503500	0.453100	0.783700
O131	O13	0.275030	0.588800	0.880410
O141	O14	0.337610	0.722700	0.824430
O151	O15	0.318410	0.478700	0.826210
O161	O16	0.380410	0.610600	0.769790
O171	O17	0.201160	0.728900	0.811280
O181	O18	0.252910	0.880400	0.862760
O191	O19	0.144090	0.823300	0.752770
O201	O20	0.194370	0.975200	0.805240
O211	O21	0.316590	0.760600	0.960100
O221	O22	0.304560	0.770000	0.056620
O231	O23	0.454900	0.449000	0.811340
O241	O24	0.558000	0.459100	0.804690
Cr31	Cr3	0.376810	0.464650	0.757900
Cr41	Cr4	0.265240	0.737410	0.882780
Mn21	Mn2	0.734760	0.737410	0.617220
C131	C13	0.189700	0.062000	0.658500
C141	C14	0.153700	0.139100	0.690800
C151	C15	0.316800	0.308100	0.707000
C161	C16	0.287100	0.396300	0.676700
C171	C17	0.214800	0.258900	0.495200
C181	C18	0.996500	0.953100	0.716300
O251	O25	0.224970	0.088800	0.619590
O261	O26	0.162390	0.222700	0.675570
O271	O27	0.181590	0.978700	0.673790
O281	O28	0.119590	0.110600	0.730210
O291	O29	0.298840	0.228900	0.688720
O301	O30	0.247090	0.380400	0.637240
O311	O31	0.355910	0.323300	0.747230
O321	O32	0.305630	0.475200	0.694760
O331	O33	0.183410	0.260600	0.539900
O341	O34	0.195440	0.270000	0.443380
O351	O35	0.045100	0.949000	0.688660
O361	O36	0.942000	0.959100	0.695310
Cr51	Cr5	0.123190	0.964650	0.742100
C191	C19	0.689700	0.562000	0.658500
C201	C20	0.653700	0.639100	0.690800
C211	C21	0.816800	0.808100	0.707000
C221	C22	0.787100	0.896300	0.676700
C231	C23	0.714800	0.758900	0.495200
C241	C24	0.496500	0.453100	0.716300
O371	O37	0.724970	0.588800	0.619590
O381	O38	0.662390	0.722700	0.675570
O391	O39	0.681590	0.478700	0.673790
O401	O40	0.619590	0.610600	0.730210
O411	O41	0.798840	0.728900	0.688720
O421	O42	0.747090	0.880400	0.637240
O431	O43	0.855910	0.823300	0.747230
O441	O44	0.805630	0.975200	0.694760
O451	O45	0.683410	0.760600	0.539900
O461	O46	0.695440	0.770000	0.443380
O471	O47	0.545100	0.449000	0.688660
O481	O48	0.442000	0.459100	0.695310
Cr61	Cr6	0.623190	0.464650	0.742100
C251	C25	0.189700	0.938000	0.158500
C261	C26	0.153700	0.860900	0.190800
C271	C27	0.316800	0.691900	0.207000
C281	C28	0.287100	0.603700	0.176700
C291	C29	0.214800	0.741100	0.995200
C301	C30	0.996500	0.046900	0.216300
O491	O49	0.224970	0.911200	0.119590
O501	O50	0.162390	0.777300	0.175570
O511	O51	0.181590	0.021300	0.173790
O521	O52	0.119590	0.889400	0.230210
O531	O53	0.298840	0.771100	0.188720
O541	O54	0.247090	0.619600	0.137240
O551	O55	0.355910	0.676700	0.247230
O561	O56	0.305630	0.524800	0.194760
O571	O57	0.183410	0.739400	0.039900
O581	O58	0.195440	0.730000	0.943380
O591	O59	0.045100	0.051000	0.188660
O601	O60	0.942000	0.040900	0.195310
Cr71	Cr7	0.123190	0.035350	0.242100
Cr81	Cr8	0.234760	0.762590	0.117220
Mn31	Mn3	0.765240	0.762590	0.382780
C311	C31	0.689700	0.438000	0.158500
C321	C32	0.653700	0.360900	0.190800
C331	C33	0.816800	0.191900	0.207000
C341	C34	0.787100	0.103700	0.176700
C351	C35	0.714800	0.241100	0.995200
C361	C36	0.496500	0.546900	0.216300
O611	O61	0.724970	0.411200	0.119590
O621	O62	0.662390	0.277300	0.175570
O631	O63	0.681590	0.521300	0.173790
O641	O64	0.619590	0.389400	0.230210
O651	O65	0.798840	0.271100	0.188720
O661	O66	0.747090	0.119600	0.137240
O671	O67	0.855910	0.176700	0.247230
O681	O68	0.805630	0.024800	0.194760
O691	O69	0.683410	0.239400	0.039900
O701	O70	0.695440	0.230000	0.943380
O711	O71	0.545100	0.551000	0.188660
O721	O72	0.442000	0.540900	0.195310
Cr91	Cr9	0.623190	0.535350	0.242100
Cr101	Cr10	0.734760	0.262590	0.117220
Mn41	Mn4	0.265240	0.262590	0.382780
C371	C37	0.810300	0.938000	0.341500
C381	C38	0.846300	0.860900	0.309200
C391	C39	0.683200	0.691900	0.293000
C401	C40	0.712900	0.603700	0.323300
C411	C41	0.785200	0.741100	0.504800
C421	C42	0.003500	0.046900	0.283700
O731	O73	0.775030	0.911200	0.380410
O741	O74	0.837610	0.777300	0.324430
O751	O75	0.818410	0.021300	0.326210
O761	O76	0.880410	0.889400	0.269790
O771	O77	0.701160	0.771100	0.311280
O781	O78	0.752910	0.619600	0.362760
O791	O79	0.644090	0.676700	0.252770
O801	O80	0.694370	0.524800	0.305240
O811	O81	0.816590	0.739400	0.460100
O821	O82	0.804560	0.730000	0.556620
O831	O83	0.954900	0.051000	0.311340
O841	O84	0.058000	0.040900	0.304690
Cr111	Cr11	0.876810	0.035350	0.257900
C431	C43	0.310300	0.438000	0.341500
C441	C44	0.346300	0.360900	0.309200
C451	C45	0.183200	0.191900	0.293000
C461	C46	0.212900	0.103700	0.323300
C471	C47	0.285200	0.241100	0.504800
C481	C48	0.503500	0.546900	0.283700
O851	O85	0.275030	0.411200	0.380410
O861	O86	0.337610	0.277300	0.324430
O871	O87	0.318410	0.521300	0.326210
O881	O88	0.380410	0.389400	0.269790
O891	O89	0.201160	0.271100	0.311280
O901	O90	0.252910	0.119600	0.362760
O911	O91	0.144090	0.176700	0.252770
O921	O92	0.194370	0.024800	0.305240
O931	O93	0.316590	0.239400	0.460100
O941	O94	0.304560	0.230000	0.556620
O951	O95	0.454900	0.551000	0.311340
O961	O96	0.558000	0.540900	0.304690
Cr121	Cr12	0.376810	0.535350	0.257900
