data_PIQMOT_freeONLY_PM
_symmetry_space_group_name_H-M	'P1'
_cell_length_a	22.140800
_cell_length_b	24.557700
_cell_length_c	7.344500
_cell_angle_alpha	90.000000
_cell_angle_beta	90.000000
_cell_angle_gamma	90.000000
_symmetry_Int_Tables_number 1

loop_
_symmetry_equiv_pos_as_xyz
'x,y,z'

loop_
_atom_site_label
_atom_site_type_symbol
_atom_site_fract_x
_atom_site_fract_y
_atom_site_fract_z
Ce11	Ce1	0.260410	0.267530	0.781770
O11	O1	0.631500	0.796400	0.250500
O21	O2	0.680900	0.789600	0.987000
O31	O3	0.802300	0.785900	0.987300
O41	O4	0.847300	0.805700	0.246000
O51	O5	0.264900	0.132400	0.339800
O61	O6	0.261100	0.185800	0.579400
N11	N1	0.241900	0.833100	0.404200
C11	C1	0.263000	0.137700	0.511800
C21	C2	0.015200	0.823300	0.788000
C31	C3	0.573800	0.821300	0.792000
H11	H1	0.609800	0.825300	0.728500
C41	C4	0.907000	0.814100	0.784000
H21	H2	0.871300	0.811000	0.718400
C51	C5	0.462800	0.820800	0.803000
C61	C6	0.238100	0.870500	0.264000
C71	C7	0.630400	0.798500	0.083200
C81	C8	0.574700	0.808300	0.981200
C91	C9	0.905100	0.813100	0.971900
C101	C10	0.266800	0.037500	0.563000
H31	H3	0.274500	0.032300	0.439400
C111	C11	0.198000	0.915300	0.257000
H41	H4	0.167800	0.918100	0.344500
C121	C12	0.250800	0.998200	0.867000
C131	C13	0.518300	0.802900	0.075000
H51	H5	0.518200	0.795300	0.198900
C141	C14	0.262400	0.992500	0.678000
H61	H6	0.267200	0.957800	0.630100
C151	C15	0.282700	0.906600	0.981200
H71	H7	0.310700	0.903200	0.887500
C161	C16	0.848700	0.800500	0.078100
C171	C17	0.259800	0.088900	0.630000
C181	C18	0.251900	0.096200	0.812000
H81	H8	0.251100	0.131300	0.859000
C191	C19	0.245300	0.952500	0.987900
C201	C20	0.958800	0.818800	0.069100
H91	H9	0.958400	0.819200	0.195700
C211	C21	0.519000	0.828000	0.704800
H101	H10	0.518300	0.837200	0.581900
C221	C22	0.125200	0.848500	0.774000
H111	H11	0.122500	0.862600	0.890700
C231	C23	0.405100	0.824100	0.699200
C241	C24	0.295800	0.830500	0.504700
C251	C25	0.961500	0.819700	0.692000
H121	H12	0.961900	0.821000	0.565500
C261	C26	0.202300	0.954400	0.126600
H131	H13	0.175500	0.983500	0.129800
C271	C27	0.073900	0.825000	0.684800
C281	C28	0.135100	0.802800	0.421600
H141	H14	0.138500	0.787300	0.306600
C291	C29	0.278800	0.866300	0.110600
H151	H15	0.302900	0.835500	0.099200
C301	C30	0.357100	0.787300	0.733400
H161	H16	0.361400	0.760800	0.822700
C311	C31	0.179800	0.849200	0.676800
H171	H17	0.213200	0.865500	0.731300
C321	C32	0.244900	0.051400	0.932000
H181	H18	0.236200	0.057400	0.053900
C331	C33	0.012900	0.824000	0.975800
H191	H19	0.048600	0.828100	0.041300
C341	C34	0.463700	0.808700	0.983700
H201	H20	0.427600	0.804200	0.046600
C351	C35	0.080900	0.802400	0.511400
H211	H21	0.047600	0.786500	0.455100
C361	C36	0.344200	0.868000	0.468000
C371	C37	0.186700	0.827500	0.507100
C381	C38	0.396500	0.864100	0.564000
C391	C39	0.304000	0.790600	0.635200
Ce21	Ce2	0.739590	0.732470	0.781770
O71	O7	0.368500	0.203600	0.250500
O81	O8	0.319100	0.210400	0.987000
O91	O9	0.197700	0.214100	0.987300
O101	O10	0.152700	0.194300	0.246000
O111	O11	0.735100	0.867600	0.339800
O121	O12	0.738900	0.814200	0.579400
N21	N2	0.758100	0.166900	0.404200
C401	C40	0.737000	0.862300	0.511800
C411	C41	0.984800	0.176700	0.788000
C421	C42	0.426200	0.178700	0.792000
H221	H22	0.390200	0.174700	0.728500
C431	C43	0.093000	0.185900	0.784000
H231	H23	0.128700	0.189000	0.718400
C441	C44	0.537200	0.179200	0.803000
C451	C45	0.761900	0.129500	0.264000
C461	C46	0.369600	0.201500	0.083200
C471	C47	0.425300	0.191700	0.981200
C481	C48	0.094900	0.186900	0.971900
C491	C49	0.733200	0.962500	0.563000
H241	H24	0.725500	0.967700	0.439400
C501	C50	0.802000	0.084700	0.257000
H251	H25	0.832200	0.081900	0.344500
C511	C51	0.749200	0.001800	0.867000
C521	C52	0.481700	0.197100	0.075000
H261	H26	0.481800	0.204700	0.198900
C531	C53	0.737600	0.007500	0.678000
H271	H27	0.732800	0.042200	0.630100
C541	C54	0.717300	0.093400	0.981200
H281	H28	0.689300	0.096800	0.887500
C551	C55	0.151300	0.199500	0.078100
C561	C56	0.740200	0.911100	0.630000
C571	C57	0.748100	0.903800	0.812000
H291	H29	0.748900	0.868700	0.859000
C581	C58	0.754700	0.047500	0.987900
C591	C59	0.041200	0.181200	0.069100
H301	H30	0.041600	0.180800	0.195700
C601	C60	0.481000	0.172000	0.704800
H311	H31	0.481700	0.162800	0.581900
C611	C61	0.874800	0.151500	0.774000
H321	H32	0.877500	0.137400	0.890700
C621	C62	0.594900	0.175900	0.699200
C631	C63	0.704200	0.169500	0.504700
C641	C64	0.038500	0.180300	0.692000
H331	H33	0.038100	0.179000	0.565500
C651	C65	0.797700	0.045600	0.126600
H341	H34	0.824500	0.016500	0.129800
C661	C66	0.926100	0.175000	0.684800
C671	C67	0.864900	0.197200	0.421600
H351	H35	0.861500	0.212700	0.306600
C681	C68	0.721200	0.133700	0.110600
H361	H36	0.697100	0.164500	0.099200
C691	C69	0.642900	0.212700	0.733400
H371	H37	0.638600	0.239200	0.822700
C701	C70	0.820200	0.150800	0.676800
H381	H38	0.786800	0.134500	0.731300
C711	C71	0.755100	0.948600	0.932000
H391	H39	0.763800	0.942600	0.053900
C721	C72	0.987100	0.176000	0.975800
H401	H40	0.951400	0.171900	0.041300
C731	C73	0.536300	0.191300	0.983700
H411	H41	0.572400	0.195800	0.046600
C741	C74	0.919100	0.197600	0.511400
H421	H42	0.952400	0.213500	0.455100
C751	C75	0.655800	0.132000	0.468000
C761	C76	0.813300	0.172500	0.507100
C771	C77	0.603500	0.135900	0.564000
C781	C78	0.696000	0.209400	0.635200
Ce31	Ce3	0.260410	0.232470	0.281770
O131	O13	0.631500	0.703600	0.750500
O141	O14	0.680900	0.710400	0.487000
O151	O15	0.802300	0.714100	0.487300
O161	O16	0.847300	0.694300	0.746000
O171	O17	0.264900	0.367600	0.839800
O181	O18	0.261100	0.314200	0.079400
N31	N3	0.241900	0.666900	0.904200
C791	C79	0.263000	0.362300	0.011800
C801	C80	0.015200	0.676700	0.288000
C811	C81	0.573800	0.678700	0.292000
H431	H43	0.609800	0.674700	0.228500
C821	C82	0.907000	0.685900	0.284000
H441	H44	0.871300	0.689000	0.218400
C831	C83	0.462800	0.679200	0.303000
C841	C84	0.238100	0.629500	0.764000
C851	C85	0.630400	0.701500	0.583200
C861	C86	0.574700	0.691700	0.481200
C871	C87	0.905100	0.686900	0.471900
C881	C88	0.266800	0.462500	0.063000
H451	H45	0.274500	0.467700	0.939400
C891	C89	0.198000	0.584700	0.757000
H461	H46	0.167800	0.581900	0.844500
C901	C90	0.250800	0.501800	0.367000
C911	C91	0.518300	0.697100	0.575000
H471	H47	0.518200	0.704700	0.698900
C921	C92	0.262400	0.507500	0.178000
H481	H48	0.267200	0.542200	0.130100
C931	C93	0.282700	0.593400	0.481200
H491	H49	0.310700	0.596800	0.387500
C941	C94	0.848700	0.699500	0.578100
C951	C95	0.259800	0.411100	0.130000
C961	C96	0.251900	0.403800	0.312000
H501	H50	0.251100	0.368700	0.359000
C971	C97	0.245300	0.547500	0.487900
C981	C98	0.958800	0.681200	0.569100
H511	H51	0.958400	0.680800	0.695700
C991	C99	0.519000	0.672000	0.204800
H521	H52	0.518300	0.662800	0.081900
C1001	C100	0.125200	0.651500	0.274000
H531	H53	0.122500	0.637400	0.390700
C1011	C101	0.405100	0.675900	0.199200
C1021	C102	0.295800	0.669500	0.004700
C1031	C103	0.961500	0.680300	0.192000
H541	H54	0.961900	0.679000	0.065500
C1041	C104	0.202300	0.545600	0.626600
H551	H55	0.175500	0.516500	0.629800
C1051	C105	0.073900	0.675000	0.184800
C1061	C106	0.135100	0.697200	0.921600
H561	H56	0.138500	0.712700	0.806600
C1071	C107	0.278800	0.633700	0.610600
H571	H57	0.302900	0.664500	0.599200
C1081	C108	0.357100	0.712700	0.233400
H581	H58	0.361400	0.739200	0.322700
C1091	C109	0.179800	0.650800	0.176800
H591	H59	0.213200	0.634500	0.231300
C1101	C110	0.244900	0.448600	0.432000
H601	H60	0.236200	0.442600	0.553900
C1111	C111	0.012900	0.676000	0.475800
H611	H61	0.048600	0.671900	0.541300
C1121	C112	0.463700	0.691300	0.483700
H621	H62	0.427600	0.695800	0.546600
C1131	C113	0.080900	0.697600	0.011400
H631	H63	0.047600	0.713500	0.955100
C1141	C114	0.344200	0.632000	0.968000
C1151	C115	0.186700	0.672500	0.007100
C1161	C116	0.396500	0.635900	0.064000
C1171	C117	0.304000	0.709400	0.135200
Ce41	Ce4	0.739590	0.767530	0.281770
O191	O19	0.368500	0.296400	0.750500
O201	O20	0.319100	0.289600	0.487000
O211	O21	0.197700	0.285900	0.487300
O221	O22	0.152700	0.305700	0.746000
O231	O23	0.735100	0.632400	0.839800
O241	O24	0.738900	0.685800	0.079400
N41	N4	0.758100	0.333100	0.904200
C1181	C118	0.737000	0.637700	0.011800
C1191	C119	0.984800	0.323300	0.288000
C1201	C120	0.426200	0.321300	0.292000
H641	H64	0.390200	0.325300	0.228500
C1211	C121	0.093000	0.314100	0.284000
H651	H65	0.128700	0.311000	0.218400
C1221	C122	0.537200	0.320800	0.303000
C1231	C123	0.761900	0.370500	0.764000
C1241	C124	0.369600	0.298500	0.583200
C1251	C125	0.425300	0.308300	0.481200
C1261	C126	0.094900	0.313100	0.471900
C1271	C127	0.733200	0.537500	0.063000
H661	H66	0.725500	0.532300	0.939400
C1281	C128	0.802000	0.415300	0.757000
H671	H67	0.832200	0.418100	0.844500
C1291	C129	0.749200	0.498200	0.367000
C1301	C130	0.481700	0.302900	0.575000
H681	H68	0.481800	0.295300	0.698900
C1311	C131	0.737600	0.492500	0.178000
H691	H69	0.732800	0.457800	0.130100
C1321	C132	0.717300	0.406600	0.481200
H701	H70	0.689300	0.403200	0.387500
C1331	C133	0.151300	0.300500	0.578100
C1341	C134	0.740200	0.588900	0.130000
C1351	C135	0.748100	0.596200	0.312000
H711	H71	0.748900	0.631300	0.359000
C1361	C136	0.754700	0.452500	0.487900
C1371	C137	0.041200	0.318800	0.569100
H721	H72	0.041600	0.319200	0.695700
C1381	C138	0.481000	0.328000	0.204800
H731	H73	0.481700	0.337200	0.081900
C1391	C139	0.874800	0.348500	0.274000
H741	H74	0.877500	0.362600	0.390700
C1401	C140	0.594900	0.324100	0.199200
C1411	C141	0.704200	0.330500	0.004700
C1421	C142	0.038500	0.319700	0.192000
H751	H75	0.038100	0.321000	0.065500
C1431	C143	0.797700	0.454400	0.626600
H761	H76	0.824500	0.483500	0.629800
C1441	C144	0.926100	0.325000	0.184800
C1451	C145	0.864900	0.302800	0.921600
H771	H77	0.861500	0.287300	0.806600
C1461	C146	0.721200	0.366300	0.610600
H781	H78	0.697100	0.335500	0.599200
C1471	C147	0.642900	0.287300	0.233400
H791	H79	0.638600	0.260800	0.322700
C1481	C148	0.820200	0.349200	0.176800
H801	H80	0.786800	0.365500	0.231300
C1491	C149	0.755100	0.551400	0.432000
H811	H81	0.763800	0.557400	0.553900
C1501	C150	0.987100	0.324000	0.475800
H821	H82	0.951400	0.328100	0.541300
C1511	C151	0.536300	0.308700	0.483700
H831	H83	0.572400	0.304200	0.546600
C1521	C152	0.919100	0.302400	0.011400
H841	H84	0.952400	0.286500	0.955100
C1531	C153	0.655800	0.368000	0.968000
C1541	C154	0.813300	0.327500	0.007100
C1551	C155	0.603500	0.364100	0.064000
C1561	C156	0.696000	0.290600	0.135200
