data_PIZPIX02_freeONLY_PM
_symmetry_space_group_name_H-M	'P1'
_cell_length_a	8.438000
_cell_length_b	17.081000
_cell_length_c	9.585000
_cell_angle_alpha	90.000000
_cell_angle_beta	111.720000
_cell_angle_gamma	90.000000
_symmetry_Int_Tables_number 1

loop_
_symmetry_equiv_pos_as_xyz
'x,y,z'

loop_
_atom_site_label
_atom_site_type_symbol
_atom_site_fract_x
_atom_site_fract_y
_atom_site_fract_z
Er11	Er1	0.663090	0.758000	0.978230
O11	O1	0.414900	0.732600	0.771900
O21	O2	0.481500	0.692200	0.578400
O31	O3	0.842300	0.727800	0.359400
O41	O4	0.905800	0.700300	0.159300
O51	O5	0.688800	0.622500	0.904800
O61	O6	0.541700	0.646300	0.049100
O71	O7	0.583500	0.880600	0.842200
O81	O8	0.813300	0.862500	0.137600
C11	C1	0.377500	0.713400	0.636000
C21	C2	0.191000	0.716300	0.539400
H11	H1	0.114700	0.732600	0.582900
C31	C3	0.129800	0.696800	0.395900
H21	H2	0.203100	0.675300	0.353700
C41	C4	0.946300	0.708200	0.299300
C51	C5	0.597700	0.598600	0.974900
C61	C6	0.552900	0.514400	0.969400
H31	H3	0.601000	0.480100	0.920800
Er21	Er2	0.336910	0.258000	0.521770
O91	O9	0.585100	0.232600	0.728100
O101	O10	0.518500	0.192200	0.921600
O111	O11	0.157700	0.227800	0.140600
O121	O12	0.094200	0.200300	0.340700
O131	O13	0.311200	0.122500	0.595200
O141	O14	0.458300	0.146300	0.450900
O151	O15	0.416500	0.380600	0.657800
O161	O16	0.186700	0.362500	0.362400
C71	C7	0.622500	0.213400	0.864000
C81	C8	0.809000	0.216300	0.960600
H41	H4	0.885300	0.232600	0.917100
C91	C9	0.870200	0.196800	0.104100
H51	H5	0.796900	0.175300	0.146300
C101	C10	0.053700	0.208200	0.200700
C111	C11	0.402300	0.098600	0.525100
C121	C12	0.447100	0.014400	0.530600
H61	H6	0.399000	0.980100	0.579200
Er31	Er3	0.336910	0.242000	0.021770
O171	O17	0.585100	0.267400	0.228100
O181	O18	0.518500	0.307800	0.421600
O191	O19	0.157700	0.272200	0.640600
O201	O20	0.094200	0.299700	0.840700
O211	O21	0.311200	0.377500	0.095200
O221	O22	0.458300	0.353700	0.950900
O231	O23	0.416500	0.119400	0.157800
O241	O24	0.186700	0.137500	0.862400
C131	C13	0.622500	0.286600	0.364000
C141	C14	0.809000	0.283700	0.460600
H71	H7	0.885300	0.267400	0.417100
C151	C15	0.870200	0.303200	0.604100
H81	H8	0.796900	0.324700	0.646300
C161	C16	0.053700	0.291800	0.700700
C171	C17	0.402300	0.401400	0.025100
C181	C18	0.447100	0.485600	0.030600
H91	H9	0.399000	0.519900	0.079200
Er41	Er4	0.663090	0.742000	0.478230
O251	O25	0.414900	0.767400	0.271900
O261	O26	0.481500	0.807800	0.078400
O271	O27	0.842300	0.772200	0.859400
O281	O28	0.905800	0.799700	0.659300
O291	O29	0.688800	0.877500	0.404800
O301	O30	0.541700	0.853700	0.549100
O311	O31	0.583500	0.619400	0.342200
O321	O32	0.813300	0.637500	0.637600
C191	C19	0.377500	0.786600	0.136000
C201	C20	0.191000	0.783700	0.039400
H101	H10	0.114700	0.767400	0.082900
C211	C21	0.129800	0.803200	0.895900
H111	H11	0.203100	0.824700	0.853700
C221	C22	0.946300	0.791800	0.799300
C231	C23	0.597700	0.901400	0.474900
C241	C24	0.552900	0.985600	0.469400
H121	H12	0.601000	0.019900	0.420800
