data_PIZQUM_freeONLY_PM
_symmetry_space_group_name_H-M	'P1'
_cell_length_a	13.014000
_cell_length_b	14.394000
_cell_length_c	16.306000
_cell_angle_alpha	90.000000
_cell_angle_beta	90.000000
_cell_angle_gamma	90.000000
_symmetry_Int_Tables_number 1

loop_
_symmetry_equiv_pos_as_xyz
'x,y,z'

loop_
_atom_site_label
_atom_site_type_symbol
_atom_site_fract_x
_atom_site_fract_y
_atom_site_fract_z
Cu11	Cu1	0.209820	0.705640	0.160470
Cu21	Cu2	0.939930	0.962990	0.085860
Cu31	Cu3	0.790180	0.205640	0.339530
Cu41	Cu4	0.290180	0.294360	0.660470
Cu51	Cu5	0.560070	0.037010	0.585860
Cu61	Cu6	0.709820	0.794360	0.839530
Cu71	Cu7	0.060070	0.462990	0.414140
Cu81	Cu8	0.439930	0.537010	0.914140
H11	H1	0.545800	0.755100	0.560100
H21	H2	0.920800	0.082700	0.738800
H31	H3	0.401800	0.582800	0.472400
H41	H4	0.432200	0.192200	0.088800
H51	H5	0.567800	0.692200	0.411200
H61	H6	0.997900	0.654100	0.974400
H71	H7	0.877500	0.964300	0.907300
H81	H8	0.045800	0.744900	0.439900
H91	H9	0.438800	0.418400	0.525400
H101	H10	0.002100	0.154100	0.525600
H111	H11	0.420800	0.417300	0.261200
H121	H12	0.227300	0.635300	0.334600
H131	H13	0.901700	0.273200	0.823700
H141	H14	0.158000	0.508700	0.729300
H151	H15	0.076100	0.588100	0.930100
H161	H16	0.401700	0.226800	0.176300
H171	H17	0.860400	0.820200	0.498900
H181	H18	0.582700	0.084700	0.871600
H191	H19	0.502100	0.345900	0.474400
H201	H20	0.917300	0.915300	0.371600
H211	H21	0.122500	0.464300	0.592700
H221	H22	0.981800	0.672700	0.805500
H231	H23	0.525200	0.168300	0.830500
H241	H24	0.061200	0.581600	0.025400
H251	H25	0.521400	0.728000	0.170800
H261	H26	0.901800	0.917200	0.527600
H271	H27	0.453300	0.026900	0.783100
H281	H28	0.727300	0.864700	0.665400
H291	H29	0.272700	0.364700	0.834600
H301	H30	0.500600	0.346000	0.902100
H311	H31	0.478600	0.228000	0.329200
H321	H32	0.098300	0.773200	0.676300
H331	H33	0.082700	0.415300	0.128400
H341	H34	0.308800	0.387100	0.238100
H351	H35	0.417300	0.584700	0.628400
H361	H36	0.018200	0.172700	0.694500
H371	H37	0.342000	0.491300	0.229300
H381	H38	0.067800	0.807800	0.588800
H391	H39	0.546700	0.526900	0.716900
H401	H40	0.499400	0.846000	0.597900
H411	H41	0.923900	0.088100	0.569900
H421	H42	0.366400	0.638000	0.701700
H431	H43	0.216200	0.395800	0.968700
H441	H44	0.283800	0.604200	0.468700
H451	H45	0.934700	0.713100	0.464200
H461	H46	0.691200	0.887100	0.261900
H471	H47	0.083600	0.235900	0.636200
H481	H48	0.474800	0.668300	0.669500
H491	H49	0.025200	0.331700	0.169500
H501	H50	0.360400	0.679800	0.501100
H511	H51	0.454200	0.255100	0.939900
H521	H52	0.079200	0.582700	0.761200
H531	H53	0.133600	0.362000	0.201700
H541	H54	0.842000	0.008700	0.770700
H551	H55	0.649300	0.761500	0.054500
H561	H56	0.579200	0.917300	0.238800
H571	H57	0.633600	0.138000	0.798300
H581	H58	0.598300	0.726800	0.323700
H591	H59	0.191200	0.612900	0.738100
H601	H60	0.434700	0.786900	0.535800
H611	H61	0.021400	0.772000	0.829200
H621	H62	0.576100	0.911900	0.069900
H631	H63	0.583600	0.264100	0.363800
H641	H64	0.978600	0.272000	0.670800
H651	H65	0.658000	0.991300	0.270700
H661	H66	0.639600	0.179800	0.998900
H671	H67	0.953300	0.473100	0.216900
H681	H68	0.622500	0.035700	0.407300
H691	H69	0.416400	0.764100	0.136200
H701	H70	0.916400	0.735900	0.863800
H711	H71	0.518200	0.327300	0.305500
H721	H72	0.565300	0.286900	0.964200
H731	H73	0.561200	0.918400	0.974600
H741	H74	0.377500	0.535700	0.092700
H751	H75	0.000600	0.154000	0.097900
H761	H76	0.999400	0.654000	0.402100
H771	H77	0.481800	0.827300	0.194500
H781	H78	0.139600	0.320200	0.001100
H791	H79	0.808800	0.112900	0.761900
H801	H80	0.974800	0.831700	0.330500
H811	H81	0.866400	0.862000	0.298300
H821	H82	0.065300	0.213100	0.035800
H831	H83	0.850700	0.238500	0.554500
H841	H84	0.046700	0.973100	0.283100
H851	H85	0.149300	0.738500	0.945500
H861	H86	0.783800	0.895800	0.531300
H871	H87	0.497900	0.845900	0.025600
H881	H88	0.350700	0.261500	0.445500
H891	H89	0.932200	0.307800	0.911200
H901	H90	0.423900	0.411900	0.430100
H911	H91	0.716200	0.104200	0.031300
H921	H92	0.772700	0.135300	0.165400
H931	H93	0.954200	0.244900	0.060100
H941	H94	0.098200	0.417200	0.972400
H951	H95	0.598200	0.082800	0.027600
H961	H96	0.938800	0.081600	0.474600
C11	C1	0.427800	0.183900	0.578200
C21	C2	0.411100	0.465700	0.754900
C31	C3	0.147800	0.694700	0.991500
C41	C4	0.437100	0.377000	0.479200
C51	C5	0.063200	0.667000	0.598800
C61	C6	0.038500	0.235400	0.682700
C71	C7	0.443600	0.710600	0.336800
C81	C8	0.481600	0.548800	0.740200
C91	C9	0.601400	0.909600	0.362500
C101	C10	0.749700	0.145400	0.500700
C111	C11	0.249700	0.354600	0.499300
C121	C12	0.049700	0.764400	0.631900
C131	C13	0.851300	0.869900	0.537500
C141	C14	0.648700	0.130100	0.037500
C151	C15	0.101400	0.590400	0.637500
C161	C16	0.407400	0.724800	0.255000
C171	C17	0.997400	0.192200	0.049700
C181	C18	0.863800	0.832800	0.624000
C191	C19	0.092600	0.275200	0.755000
C201	C20	0.955300	0.138400	0.981800
C211	C21	0.569800	0.116300	0.820800
C221	C22	0.563200	0.833000	0.401200
C231	C23	0.502600	0.807800	0.549700
C241	C24	0.898600	0.090400	0.862500
C251	C25	0.588900	0.965700	0.745100
C261	C26	0.864500	0.072000	0.775600
C271	C27	0.455300	0.361600	0.018200
C281	C28	0.062900	0.623000	0.979200
C291	C29	0.562900	0.877000	0.020800
C301	C30	0.364500	0.428000	0.224400
C311	C31	0.931900	0.343700	0.331700
C321	C32	0.852200	0.194700	0.508500
C331	C33	0.937100	0.123000	0.520800
C341	C34	0.072200	0.816100	0.078200
C351	C35	0.088900	0.534300	0.254900
C361	C36	0.936800	0.167000	0.901200
C371	C37	0.056400	0.289400	0.836800
C381	C38	0.647800	0.805300	0.008500
C391	C39	0.398600	0.409600	0.137500
C401	C40	0.907400	0.775200	0.745000
C411	C41	0.497400	0.307800	0.950300
C421	C42	0.549700	0.735600	0.368100
C431	C43	0.351300	0.630100	0.462500
C441	C44	0.069800	0.383700	0.179200
C451	C45	0.538500	0.264600	0.317300
C461	C46	0.927800	0.316100	0.421800
C471	C47	0.518400	0.048800	0.759800
C481	C48	0.635500	0.928000	0.275600
C491	C49	0.352200	0.305300	0.491500
C501	C50	0.572200	0.683900	0.921800
C511	C51	0.592600	0.224800	0.245000
C521	C52	0.136200	0.332800	0.876000
C531	C53	0.568100	0.656300	0.831700
C541	C54	0.544700	0.861600	0.481800
C551	C55	0.943600	0.789400	0.663200
C561	C56	0.950300	0.264400	0.868100
C571	C57	0.135500	0.572000	0.724400
C581	C58	0.981600	0.951200	0.259800
C591	C59	0.430200	0.616300	0.679200
C601	C60	0.436800	0.333000	0.098800
C611	C61	0.018400	0.451200	0.240200
C621	C62	0.930200	0.883700	0.320800
C631	C63	0.068100	0.843700	0.168300
C641	C64	0.450300	0.235600	0.131900
C651	C65	0.911100	0.034300	0.245100
C661	C66	0.961500	0.735400	0.817300
C671	C67	0.363800	0.667200	0.376000
C681	C68	0.044700	0.638400	0.518200
C691	C69	0.002600	0.692200	0.450300
C701	C70	0.461500	0.764600	0.182700
C711	C71	0.148700	0.369900	0.962500
C721	C72	0.250300	0.645400	0.999300
C731	C73	0.431900	0.156300	0.668300
C741	C74	0.636200	0.167200	0.124000
C751	C75	0.750300	0.854600	0.000700
C761	C76	0.556400	0.210600	0.163200
N11	N1	0.501100	0.591400	0.819200
N21	N2	0.570000	0.950500	0.490800
N31	N3	0.130600	0.743800	0.068100
N41	N4	0.430000	0.450500	0.009200
N51	N5	0.397100	0.479800	0.082200
N61	N6	0.602900	0.979800	0.417800
N71	N7	0.213800	0.341000	0.822800
N81	N8	0.688400	0.192600	0.251700
N91	N9	0.311600	0.692600	0.248300
N101	N10	0.070000	0.549500	0.509200
N111	N11	0.930000	0.049500	0.990800
N121	N12	0.998900	0.408600	0.319200
N131	N13	0.369400	0.256200	0.568100
N141	N14	0.188400	0.307400	0.748300
N151	N15	0.869400	0.243800	0.431900
N161	N16	0.897100	0.020200	0.917800
N171	N17	0.001100	0.908600	0.180800
N181	N18	0.498900	0.091400	0.680800
N191	N19	0.286200	0.659000	0.322800
N201	N20	0.630600	0.756200	0.931900
N211	N21	0.102900	0.520200	0.582200
N221	N22	0.786200	0.841000	0.677200
N231	N23	0.713800	0.159000	0.177200
N241	N24	0.811600	0.807400	0.751700
O11	O1	0.886000	0.051600	0.170200
O21	O2	0.979500	0.362000	0.473400
O31	O3	0.790600	0.857200	0.928300
O41	O4	0.286600	0.607000	0.938500
O51	O5	0.125900	0.802800	0.219700
O61	O6	0.213400	0.393000	0.438500
O71	O7	0.379800	0.421400	0.695500
O81	O8	0.614000	0.948400	0.670200
O91	O9	0.120200	0.578600	0.195500
O101	O10	0.290600	0.642800	0.071700
O111	O11	0.786600	0.893000	0.061500
O121	O12	0.114000	0.551600	0.329800
O131	O13	0.386000	0.448400	0.829800
O141	O14	0.209400	0.357200	0.571700
O151	O15	0.479500	0.138000	0.526600
O161	O16	0.520500	0.638000	0.973400
O171	O17	0.879800	0.078600	0.304500
O181	O18	0.625900	0.697200	0.780300
O191	O19	0.020500	0.862000	0.026600
O201	O20	0.874100	0.302800	0.280300
O211	O21	0.620200	0.921400	0.804500
O221	O22	0.374100	0.197200	0.719700
O231	O23	0.713400	0.107000	0.561500
O241	O24	0.709400	0.142800	0.428300
