data_POBNEA_freeONLY_PM
_symmetry_space_group_name_H-M	'P1'
_cell_length_a	18.658000
_cell_length_b	18.658000
_cell_length_c	14.840000
_cell_angle_alpha	90.000000
_cell_angle_beta	90.000000
_cell_angle_gamma	120.000000
_symmetry_Int_Tables_number 1

loop_
_symmetry_equiv_pos_as_xyz
'x,y,z'

loop_
_atom_site_label
_atom_site_type_symbol
_atom_site_fract_x
_atom_site_fract_y
_atom_site_fract_z
N11	N1	0.344400	0.573400	0.086800
O11	O1	0.420700	0.505800	0.082100
O21	O2	0.493200	0.590700	0.930400
O31	O3	0.419900	0.653900	0.936300
C11	C1	0.304400	0.535100	0.168200
C21	C2	0.223200	0.470000	0.169300
C31	C3	0.398000	0.556500	0.053000
C41	C4	0.438400	0.603500	0.965800
N21	N2	0.426600	0.771000	0.086800
O41	O4	0.494200	0.914900	0.082100
O51	O5	0.409300	0.902500	0.930400
O61	O6	0.346100	0.766000	0.936300
C51	C5	0.464900	0.769300	0.168200
C61	C6	0.530000	0.753200	0.169300
C71	C7	0.443500	0.841500	0.053000
C81	C8	0.396500	0.834900	0.965800
N31	N3	0.229000	0.655600	0.086800
O71	O7	0.085100	0.579300	0.082100
O81	O8	0.097500	0.506800	0.930400
O91	O9	0.234000	0.580100	0.936300
C91	C9	0.230700	0.695600	0.168200
C101	C10	0.246800	0.776800	0.169300
C111	C11	0.158500	0.602000	0.053000
C121	C12	0.165100	0.561600	0.965800
N41	N4	0.655600	0.426600	0.586800
O101	O10	0.579300	0.494200	0.582100
O111	O11	0.506800	0.409300	0.430400
O121	O12	0.580100	0.346100	0.436300
C131	C13	0.695600	0.464900	0.668200
C141	C14	0.776800	0.530000	0.669300
C151	C15	0.602000	0.443500	0.553000
C161	C16	0.561600	0.396500	0.465800
N51	N5	0.573400	0.229000	0.586800
O131	O13	0.505800	0.085100	0.582100
O141	O14	0.590700	0.097500	0.430400
O151	O15	0.653900	0.234000	0.436300
C171	C17	0.535100	0.230700	0.668200
C181	C18	0.470000	0.246800	0.669300
C191	C19	0.556500	0.158500	0.553000
C201	C20	0.603500	0.165100	0.465800
N61	N6	0.771000	0.344400	0.586800
O161	O16	0.914900	0.420700	0.582100
O171	O17	0.902500	0.493200	0.430400
O181	O18	0.766000	0.419900	0.436300
C211	C21	0.769300	0.304400	0.668200
C221	C22	0.753200	0.223200	0.669300
C231	C23	0.841500	0.398000	0.553000
C241	C24	0.834900	0.438400	0.465800
N71	N7	0.655600	0.426600	0.913200
O191	O19	0.579300	0.494200	0.917900
O201	O20	0.506800	0.409300	0.069600
O211	O21	0.580100	0.346100	0.063700
C251	C25	0.695600	0.464900	0.831800
C261	C26	0.776800	0.530000	0.830700
C271	C27	0.602000	0.443500	0.947000
C281	C28	0.561600	0.396500	0.034200
N81	N8	0.573400	0.229000	0.913200
O221	O22	0.505800	0.085100	0.917900
O231	O23	0.590700	0.097500	0.069600
O241	O24	0.653900	0.234000	0.063700
C291	C29	0.535100	0.230700	0.831800
C301	C30	0.470000	0.246800	0.830700
C311	C31	0.556500	0.158500	0.947000
C321	C32	0.603500	0.165100	0.034200
N91	N9	0.771000	0.344400	0.913200
O251	O25	0.914900	0.420700	0.917900
O261	O26	0.902500	0.493200	0.069600
O271	O27	0.766000	0.419900	0.063700
C331	C33	0.769300	0.304400	0.831800
C341	C34	0.753200	0.223200	0.830700
C351	C35	0.841500	0.398000	0.947000
C361	C36	0.834900	0.438400	0.034200
N101	N10	0.344400	0.573400	0.413200
O281	O28	0.420700	0.505800	0.417900
O291	O29	0.493200	0.590700	0.569600
O301	O30	0.419900	0.653900	0.563700
C371	C37	0.304400	0.535100	0.331800
C381	C38	0.223200	0.470000	0.330700
C391	C39	0.398000	0.556500	0.447000
C401	C40	0.438400	0.603500	0.534200
N111	N11	0.426600	0.771000	0.413200
O311	O31	0.494200	0.914900	0.417900
O321	O32	0.409300	0.902500	0.569600
O331	O33	0.346100	0.766000	0.563700
C411	C41	0.464900	0.769300	0.331800
C421	C42	0.530000	0.753200	0.330700
C431	C43	0.443500	0.841500	0.447000
C441	C44	0.396500	0.834900	0.534200
N121	N12	0.229000	0.655600	0.413200
O341	O34	0.085100	0.579300	0.417900
O351	O35	0.097500	0.506800	0.569600
O361	O36	0.234000	0.580100	0.563700
C451	C45	0.230700	0.695600	0.331800
C461	C46	0.246800	0.776800	0.330700
C471	C47	0.158500	0.602000	0.447000
C481	C48	0.165100	0.561600	0.534200
Co11	Co1	0.333330	0.666670	0.019180
Co21	Co2	0.666670	0.333330	0.519180
Co31	Co3	0.666670	0.333330	0.980820
Co41	Co4	0.333330	0.666670	0.480820
Li11	Li1	0.500000	0.500000	0.000000
Li21	Li2	0.500000	0.000000	0.000000
Li31	Li3	0.000000	0.500000	0.000000
Li41	Li4	0.500000	0.500000	0.500000
Li51	Li5	0.500000	0.000000	0.500000
Li61	Li6	0.000000	0.500000	0.500000
C491	C49	0.346500	0.566600	0.250000
C501	C50	0.184300	0.438700	0.250000
C511	C51	0.433400	0.779900	0.250000
C521	C52	0.561300	0.745600	0.250000
C531	C53	0.220100	0.653500	0.250000
C541	C54	0.254400	0.815700	0.250000
C551	C55	0.653500	0.433400	0.750000
C561	C56	0.815700	0.561300	0.750000
C571	C57	0.566600	0.220100	0.750000
C581	C58	0.438700	0.254400	0.750000
C591	C59	0.779900	0.346500	0.750000
C601	C60	0.745600	0.184300	0.750000
