data_POFGUO_freeONLY_PM
_symmetry_space_group_name_H-M	'P1'
_cell_length_a	21.128800
_cell_length_b	21.128800
_cell_length_c	21.128800
_cell_angle_alpha	90.000000
_cell_angle_beta	90.000000
_cell_angle_gamma	90.000000
_symmetry_Int_Tables_number 1

loop_
_symmetry_equiv_pos_as_xyz
'x,y,z'

loop_
_atom_site_label
_atom_site_type_symbol
_atom_site_fract_x
_atom_site_fract_y
_atom_site_fract_z
O11	O1	0.977550	0.797650	0.559500
O21	O2	0.091800	0.608470	0.360500
O31	O3	0.077900	0.657570	0.268420
C11	C1	0.070600	0.651800	0.327100
C21	C2	0.033000	0.704400	0.427600
C31	C3	0.033700	0.703800	0.361300
Li11	Li1	0.028200	0.842000	0.627700
H11	H1	0.059000	0.666000	0.454000
O41	O4	0.477550	0.297650	0.059500
O51	O5	0.591800	0.108470	0.860500
O61	O6	0.577900	0.157570	0.768420
C41	C4	0.570600	0.151800	0.827100
C51	C5	0.533000	0.204400	0.927600
C61	C6	0.533700	0.203800	0.861300
Li21	Li2	0.528200	0.342000	0.127700
H21	H2	0.559000	0.166000	0.954000
O71	O7	0.522450	0.202350	0.059500
O81	O8	0.408200	0.391530	0.860500
O91	O9	0.422100	0.342430	0.768420
C71	C7	0.429400	0.348200	0.827100
C81	C8	0.467000	0.295600	0.927600
C91	C9	0.466300	0.296200	0.861300
Li31	Li3	0.471800	0.158000	0.127700
H31	H3	0.441000	0.334000	0.954000
O101	O10	0.022450	0.702350	0.559500
O111	O11	0.908200	0.891530	0.360500
O121	O12	0.922100	0.842430	0.268420
C101	C10	0.929400	0.848200	0.327100
C111	C11	0.967000	0.795600	0.427600
C121	C12	0.966300	0.796200	0.361300
Li41	Li4	0.971800	0.658000	0.627700
H41	H4	0.941000	0.834000	0.454000
O131	O13	0.022450	0.297650	0.940500
O141	O14	0.908200	0.108470	0.139500
O151	O15	0.922100	0.157570	0.231580
C131	C13	0.929400	0.151800	0.172900
C141	C14	0.967000	0.204400	0.072400
C151	C15	0.966300	0.203800	0.138700
Li51	Li5	0.971800	0.342000	0.872300
H51	H5	0.941000	0.166000	0.046000
O161	O16	0.522450	0.797650	0.440500
O171	O17	0.408200	0.608470	0.639500
O181	O18	0.422100	0.657570	0.731580
C161	C16	0.429400	0.651800	0.672900
C171	C17	0.467000	0.704400	0.572400
C181	C18	0.466300	0.703800	0.638700
Li61	Li6	0.471800	0.842000	0.372300
H61	H6	0.441000	0.666000	0.546000
O191	O19	0.477550	0.702350	0.440500
O201	O20	0.591800	0.891530	0.639500
O211	O21	0.577900	0.842430	0.731580
C191	C19	0.570600	0.848200	0.672900
C201	C20	0.533000	0.795600	0.572400
C211	C21	0.533700	0.796200	0.638700
Li71	Li7	0.528200	0.658000	0.372300
H71	H7	0.559000	0.834000	0.546000
O221	O22	0.977550	0.202350	0.940500
O231	O23	0.091800	0.391530	0.139500
O241	O24	0.077900	0.342430	0.231580
C221	C22	0.070600	0.348200	0.172900
C231	C23	0.033000	0.295600	0.072400
C241	C24	0.033700	0.296200	0.138700
Li81	Li8	0.028200	0.158000	0.872300
H81	H8	0.059000	0.334000	0.046000
O251	O25	0.559500	0.977550	0.797650
O261	O26	0.360500	0.091800	0.608470
O271	O27	0.268420	0.077900	0.657570
C251	C25	0.327100	0.070600	0.651800
C261	C26	0.427600	0.033000	0.704400
C271	C27	0.361300	0.033700	0.703800
Li91	Li9	0.627700	0.028200	0.842000
H91	H9	0.454000	0.059000	0.666000
O281	O28	0.059500	0.477550	0.297650
O291	O29	0.860500	0.591800	0.108470
O301	O30	0.768420	0.577900	0.157570
C281	C28	0.827100	0.570600	0.151800
C291	C29	0.927600	0.533000	0.204400
C301	C30	0.861300	0.533700	0.203800
Li101	Li10	0.127700	0.528200	0.342000
H101	H10	0.954000	0.559000	0.166000
O311	O31	0.059500	0.522450	0.202350
O321	O32	0.860500	0.408200	0.391530
O331	O33	0.768420	0.422100	0.342430
C311	C31	0.827100	0.429400	0.348200
C321	C32	0.927600	0.467000	0.295600
C331	C33	0.861300	0.466300	0.296200
Li111	Li11	0.127700	0.471800	0.158000
H111	H11	0.954000	0.441000	0.334000
O341	O34	0.559500	0.022450	0.702350
O351	O35	0.360500	0.908200	0.891530
O361	O36	0.268420	0.922100	0.842430
C341	C34	0.327100	0.929400	0.848200
C351	C35	0.427600	0.967000	0.795600
C361	C36	0.361300	0.966300	0.796200
Li121	Li12	0.627700	0.971800	0.658000
H121	H12	0.454000	0.941000	0.834000
O371	O37	0.940500	0.022450	0.297650
O381	O38	0.139500	0.908200	0.108470
O391	O39	0.231580	0.922100	0.157570
C371	C37	0.172900	0.929400	0.151800
C381	C38	0.072400	0.967000	0.204400
C391	C39	0.138700	0.966300	0.203800
Li131	Li13	0.872300	0.971800	0.342000
H131	H13	0.046000	0.941000	0.166000
O401	O40	0.440500	0.522450	0.797650
O411	O41	0.639500	0.408200	0.608470
O421	O42	0.731580	0.422100	0.657570
C401	C40	0.672900	0.429400	0.651800
C411	C41	0.572400	0.467000	0.704400
C421	C42	0.638700	0.466300	0.703800
Li141	Li14	0.372300	0.471800	0.842000
H141	H14	0.546000	0.441000	0.666000
O431	O43	0.440500	0.477550	0.702350
O441	O44	0.639500	0.591800	0.891530
O451	O45	0.731580	0.577900	0.842430
C431	C43	0.672900	0.570600	0.848200
C441	C44	0.572400	0.533000	0.795600
C451	C45	0.638700	0.533700	0.796200
Li151	Li15	0.372300	0.528200	0.658000
H151	H15	0.546000	0.559000	0.834000
O461	O46	0.940500	0.977550	0.202350
O471	O47	0.139500	0.091800	0.391530
O481	O48	0.231580	0.077900	0.342430
C461	C46	0.172900	0.070600	0.348200
C471	C47	0.072400	0.033000	0.295600
C481	C48	0.138700	0.033700	0.296200
Li161	Li16	0.872300	0.028200	0.158000
H161	H16	0.046000	0.059000	0.334000
O491	O49	0.797650	0.559500	0.977550
O501	O50	0.608470	0.360500	0.091800
O511	O51	0.657570	0.268420	0.077900
C491	C49	0.651800	0.327100	0.070600
C501	C50	0.704400	0.427600	0.033000
C511	C51	0.703800	0.361300	0.033700
Li171	Li17	0.842000	0.627700	0.028200
H171	H17	0.666000	0.454000	0.059000
O521	O52	0.297650	0.059500	0.477550
O531	O53	0.108470	0.860500	0.591800
O541	O54	0.157570	0.768420	0.577900
C521	C52	0.151800	0.827100	0.570600
C531	C53	0.204400	0.927600	0.533000
C541	C54	0.203800	0.861300	0.533700
Li181	Li18	0.342000	0.127700	0.528200
H181	H18	0.166000	0.954000	0.559000
O551	O55	0.202350	0.059500	0.522450
O561	O56	0.391530	0.860500	0.408200
O571	O57	0.342430	0.768420	0.422100
C551	C55	0.348200	0.827100	0.429400
C561	C56	0.295600	0.927600	0.467000
C571	C57	0.296200	0.861300	0.466300
Li191	Li19	0.158000	0.127700	0.471800
H191	H19	0.334000	0.954000	0.441000
O581	O58	0.702350	0.559500	0.022450
O591	O59	0.891530	0.360500	0.908200
O601	O60	0.842430	0.268420	0.922100
C581	C58	0.848200	0.327100	0.929400
C591	C59	0.795600	0.427600	0.967000
C601	C60	0.796200	0.361300	0.966300
Li201	Li20	0.658000	0.627700	0.971800
H201	H20	0.834000	0.454000	0.941000
O611	O61	0.297650	0.940500	0.022450
O621	O62	0.108470	0.139500	0.908200
O631	O63	0.157570	0.231580	0.922100
C611	C61	0.151800	0.172900	0.929400
C621	C62	0.204400	0.072400	0.967000
C631	C63	0.203800	0.138700	0.966300
Li211	Li21	0.342000	0.872300	0.971800
H211	H21	0.166000	0.046000	0.941000
O641	O64	0.797650	0.440500	0.522450
O651	O65	0.608470	0.639500	0.408200
O661	O66	0.657570	0.731580	0.422100
C641	C64	0.651800	0.672900	0.429400
C651	C65	0.704400	0.572400	0.467000
C661	C66	0.703800	0.638700	0.466300
Li221	Li22	0.842000	0.372300	0.471800
H221	H22	0.666000	0.546000	0.441000
O671	O67	0.702350	0.440500	0.477550
O681	O68	0.891530	0.639500	0.591800
O691	O69	0.842430	0.731580	0.577900
C671	C67	0.848200	0.672900	0.570600
C681	C68	0.795600	0.572400	0.533000
C691	C69	0.796200	0.638700	0.533700
Li231	Li23	0.658000	0.372300	0.528200
H231	H23	0.834000	0.546000	0.559000
O701	O70	0.202350	0.940500	0.977550
O711	O71	0.391530	0.139500	0.091800
O721	O72	0.342430	0.231580	0.077900
C701	C70	0.348200	0.172900	0.070600
C711	C71	0.295600	0.072400	0.033000
C721	C72	0.296200	0.138700	0.033700
Li241	Li24	0.158000	0.872300	0.028200
H241	H24	0.334000	0.046000	0.059000
O731	O73	0.047650	0.227550	0.809500
O741	O74	0.858470	0.341800	0.610500
O751	O75	0.907570	0.327900	0.518420
C731	C73	0.901800	0.320600	0.577100
C741	C74	0.954400	0.283000	0.677600
C751	C75	0.953800	0.283700	0.611300
Li251	Li25	0.092000	0.278200	0.877700
H251	H25	0.916000	0.309000	0.704000
O761	O76	0.547650	0.727550	0.309500
O771	O77	0.358470	0.841800	0.110500
O781	O78	0.407570	0.827900	0.018420
C761	C76	0.401800	0.820600	0.077100
C771	C77	0.454400	0.783000	0.177600
C781	C78	0.453800	0.783700	0.111300
Li261	Li26	0.592000	0.778200	0.377700
H261	H26	0.416000	0.809000	0.204000
O791	O79	0.452350	0.772450	0.309500
O801	O80	0.641530	0.658200	0.110500
O811	O81	0.592430	0.672100	0.018420
C791	C79	0.598200	0.679400	0.077100
C801	C80	0.545600	0.717000	0.177600
C811	C81	0.546200	0.716300	0.111300
Li271	Li27	0.408000	0.721800	0.377700
H271	H27	0.584000	0.691000	0.204000
O821	O82	0.952350	0.272450	0.809500
O831	O83	0.141530	0.158200	0.610500
O841	O84	0.092430	0.172100	0.518420
C821	C82	0.098200	0.179400	0.577100
C831	C83	0.045600	0.217000	0.677600
C841	C84	0.046200	0.216300	0.611300
Li281	Li28	0.908000	0.221800	0.877700
H281	H28	0.084000	0.191000	0.704000
O851	O85	0.547650	0.272450	0.190500
O861	O86	0.358470	0.158200	0.389500
O871	O87	0.407570	0.172100	0.481580
C851	C85	0.401800	0.179400	0.422900
C861	C86	0.454400	0.217000	0.322400
C871	C87	0.453800	0.216300	0.388700
Li291	Li29	0.592000	0.221800	0.122300
H291	H29	0.416000	0.191000	0.296000
O881	O88	0.047650	0.772450	0.690500
O891	O89	0.858470	0.658200	0.889500
O901	O90	0.907570	0.672100	0.981580
C881	C88	0.901800	0.679400	0.922900
C891	C89	0.954400	0.717000	0.822400
C901	C90	0.953800	0.716300	0.888700
Li301	Li30	0.092000	0.721800	0.622300
H301	H30	0.916000	0.691000	0.796000
O911	O91	0.952350	0.727550	0.690500
O921	O92	0.141530	0.841800	0.889500
O931	O93	0.092430	0.827900	0.981580
C911	C91	0.098200	0.820600	0.922900
C921	C92	0.045600	0.783000	0.822400
C931	C93	0.046200	0.783700	0.888700
Li311	Li31	0.908000	0.778200	0.622300
H311	H31	0.084000	0.809000	0.796000
O941	O94	0.452350	0.227550	0.190500
O951	O95	0.641530	0.341800	0.389500
O961	O96	0.592430	0.327900	0.481580
C941	C94	0.598200	0.320600	0.422900
C951	C95	0.545600	0.283000	0.322400
C961	C96	0.546200	0.283700	0.388700
Li321	Li32	0.408000	0.278200	0.122300
H321	H32	0.584000	0.309000	0.296000
O971	O97	0.227550	0.809500	0.047650
O981	O98	0.341800	0.610500	0.858470
O991	O99	0.327900	0.518420	0.907570
C971	C97	0.320600	0.577100	0.901800
C981	C98	0.283000	0.677600	0.954400
C991	C99	0.283700	0.611300	0.953800
Li331	Li33	0.278200	0.877700	0.092000
H331	H33	0.309000	0.704000	0.916000
O1001	O100	0.727550	0.309500	0.547650
O1011	O101	0.841800	0.110500	0.358470
O1021	O102	0.827900	0.018420	0.407570
C1001	C100	0.820600	0.077100	0.401800
C1011	C101	0.783000	0.177600	0.454400
C1021	C102	0.783700	0.111300	0.453800
Li341	Li34	0.778200	0.377700	0.592000
H341	H34	0.809000	0.204000	0.416000
O1031	O103	0.772450	0.309500	0.452350
O1041	O104	0.658200	0.110500	0.641530
O1051	O105	0.672100	0.018420	0.592430
C1031	C103	0.679400	0.077100	0.598200
C1041	C104	0.717000	0.177600	0.545600
C1051	C105	0.716300	0.111300	0.546200
Li351	Li35	0.721800	0.377700	0.408000
H351	H35	0.691000	0.204000	0.584000
O1061	O106	0.272450	0.809500	0.952350
O1071	O107	0.158200	0.610500	0.141530
O1081	O108	0.172100	0.518420	0.092430
C1061	C106	0.179400	0.577100	0.098200
C1071	C107	0.217000	0.677600	0.045600
C1081	C108	0.216300	0.611300	0.046200
Li361	Li36	0.221800	0.877700	0.908000
H361	H36	0.191000	0.704000	0.084000
O1091	O109	0.272450	0.190500	0.547650
O1101	O110	0.158200	0.389500	0.358470
O1111	O111	0.172100	0.481580	0.407570
C1091	C109	0.179400	0.422900	0.401800
C1101	C110	0.217000	0.322400	0.454400
C1111	C111	0.216300	0.388700	0.453800
Li371	Li37	0.221800	0.122300	0.592000
H371	H37	0.191000	0.296000	0.416000
O1121	O112	0.772450	0.690500	0.047650
O1131	O113	0.658200	0.889500	0.858470
O1141	O114	0.672100	0.981580	0.907570
C1121	C112	0.679400	0.922900	0.901800
C1131	C113	0.717000	0.822400	0.954400
C1141	C114	0.716300	0.888700	0.953800
Li381	Li38	0.721800	0.622300	0.092000
H381	H38	0.691000	0.796000	0.916000
O1151	O115	0.727550	0.690500	0.952350
O1161	O116	0.841800	0.889500	0.141530
O1171	O117	0.827900	0.981580	0.092430
C1151	C115	0.820600	0.922900	0.098200
C1161	C116	0.783000	0.822400	0.045600
C1171	C117	0.783700	0.888700	0.046200
Li391	Li39	0.778200	0.622300	0.908000
H391	H39	0.809000	0.796000	0.084000
O1181	O118	0.227550	0.190500	0.452350
O1191	O119	0.341800	0.389500	0.641530
O1201	O120	0.327900	0.481580	0.592430
C1181	C118	0.320600	0.422900	0.598200
C1191	C119	0.283000	0.322400	0.545600
C1201	C120	0.283700	0.388700	0.546200
Li401	Li40	0.278200	0.122300	0.408000
H401	H40	0.309000	0.296000	0.584000
O1211	O121	0.809500	0.047650	0.227550
O1221	O122	0.610500	0.858470	0.341800
O1231	O123	0.518420	0.907570	0.327900
C1211	C121	0.577100	0.901800	0.320600
C1221	C122	0.677600	0.954400	0.283000
C1231	C123	0.611300	0.953800	0.283700
Li411	Li41	0.877700	0.092000	0.278200
H411	H41	0.704000	0.916000	0.309000
O1241	O124	0.309500	0.547650	0.727550
O1251	O125	0.110500	0.358470	0.841800
O1261	O126	0.018420	0.407570	0.827900
C1241	C124	0.077100	0.401800	0.820600
C1251	C125	0.177600	0.454400	0.783000
C1261	C126	0.111300	0.453800	0.783700
Li421	Li42	0.377700	0.592000	0.778200
H421	H42	0.204000	0.416000	0.809000
O1271	O127	0.309500	0.452350	0.772450
O1281	O128	0.110500	0.641530	0.658200
O1291	O129	0.018420	0.592430	0.672100
C1271	C127	0.077100	0.598200	0.679400
C1281	C128	0.177600	0.545600	0.717000
C1291	C129	0.111300	0.546200	0.716300
Li431	Li43	0.377700	0.408000	0.721800
H431	H43	0.204000	0.584000	0.691000
O1301	O130	0.809500	0.952350	0.272450
O1311	O131	0.610500	0.141530	0.158200
O1321	O132	0.518420	0.092430	0.172100
C1301	C130	0.577100	0.098200	0.179400
C1311	C131	0.677600	0.045600	0.217000
C1321	C132	0.611300	0.046200	0.216300
Li441	Li44	0.877700	0.908000	0.221800
H441	H44	0.704000	0.084000	0.191000
O1331	O133	0.190500	0.547650	0.272450
O1341	O134	0.389500	0.358470	0.158200
O1351	O135	0.481580	0.407570	0.172100
C1331	C133	0.422900	0.401800	0.179400
C1341	C134	0.322400	0.454400	0.217000
C1351	C135	0.388700	0.453800	0.216300
Li451	Li45	0.122300	0.592000	0.221800
H451	H45	0.296000	0.416000	0.191000
O1361	O136	0.690500	0.047650	0.772450
O1371	O137	0.889500	0.858470	0.658200
O1381	O138	0.981580	0.907570	0.672100
C1361	C136	0.922900	0.901800	0.679400
C1371	C137	0.822400	0.954400	0.717000
C1381	C138	0.888700	0.953800	0.716300
Li461	Li46	0.622300	0.092000	0.721800
H461	H46	0.796000	0.916000	0.691000
O1391	O139	0.690500	0.952350	0.727550
O1401	O140	0.889500	0.141530	0.841800
O1411	O141	0.981580	0.092430	0.827900
C1391	C139	0.922900	0.098200	0.820600
C1401	C140	0.822400	0.045600	0.783000
C1411	C141	0.888700	0.046200	0.783700
Li471	Li47	0.622300	0.908000	0.778200
H471	H47	0.796000	0.084000	0.809000
O1421	O142	0.190500	0.452350	0.227550
O1431	O143	0.389500	0.641530	0.341800
O1441	O144	0.481580	0.592430	0.327900
C1421	C142	0.422900	0.598200	0.320600
C1431	C143	0.322400	0.545600	0.283000
C1441	C144	0.388700	0.546200	0.283700
Li481	Li48	0.122300	0.408000	0.278200
H481	H48	0.296000	0.584000	0.309000
C1451	C145	0.000000	0.750000	0.460600
C1461	C146	0.000000	0.750000	0.329900
C1471	C147	0.000000	0.750000	0.531800
H491	H49	0.000000	0.750000	0.275000
C1481	C148	0.500000	0.250000	0.960600
C1491	C149	0.500000	0.250000	0.829900
C1501	C150	0.500000	0.250000	0.031800
H501	H50	0.500000	0.250000	0.775000
C1511	C151	0.000000	0.250000	0.039400
C1521	C152	0.000000	0.250000	0.170100
C1531	C153	0.000000	0.250000	0.968200
H511	H51	0.000000	0.250000	0.225000
C1541	C154	0.500000	0.750000	0.539400
C1551	C155	0.500000	0.750000	0.670100
C1561	C156	0.500000	0.750000	0.468200
H521	H52	0.500000	0.750000	0.725000
C1571	C157	0.460600	0.000000	0.750000
C1581	C158	0.329900	0.000000	0.750000
C1591	C159	0.531800	0.000000	0.750000
H531	H53	0.275000	0.000000	0.750000
C1601	C160	0.960600	0.500000	0.250000
C1611	C161	0.829900	0.500000	0.250000
C1621	C162	0.031800	0.500000	0.250000
H541	H54	0.775000	0.500000	0.250000
C1631	C163	0.039400	0.000000	0.250000
C1641	C164	0.170100	0.000000	0.250000
C1651	C165	0.968200	0.000000	0.250000
H551	H55	0.225000	0.000000	0.250000
C1661	C166	0.539400	0.500000	0.750000
C1671	C167	0.670100	0.500000	0.750000
C1681	C168	0.468200	0.500000	0.750000
H561	H56	0.725000	0.500000	0.750000
C1691	C169	0.750000	0.460600	0.000000
C1701	C170	0.750000	0.329900	0.000000
C1711	C171	0.750000	0.531800	0.000000
H571	H57	0.750000	0.275000	0.000000
C1721	C172	0.250000	0.960600	0.500000
C1731	C173	0.250000	0.829900	0.500000
C1741	C174	0.250000	0.031800	0.500000
H581	H58	0.250000	0.775000	0.500000
C1751	C175	0.250000	0.039400	0.000000
C1761	C176	0.250000	0.170100	0.000000
C1771	C177	0.250000	0.968200	0.000000
H591	H59	0.250000	0.225000	0.000000
C1781	C178	0.750000	0.539400	0.500000
C1791	C179	0.750000	0.670100	0.500000
C1801	C180	0.750000	0.468200	0.500000
H601	H60	0.750000	0.725000	0.500000
C1811	C181	0.000000	0.250000	0.710600
C1821	C182	0.000000	0.250000	0.579900
C1831	C183	0.000000	0.250000	0.781800
H611	H61	0.000000	0.250000	0.525000
C1841	C184	0.500000	0.750000	0.210600
C1851	C185	0.500000	0.750000	0.079900
C1861	C186	0.500000	0.750000	0.281800
H621	H62	0.500000	0.750000	0.025000
C1871	C187	0.500000	0.250000	0.289400
C1881	C188	0.500000	0.250000	0.420100
C1891	C189	0.500000	0.250000	0.218200
H631	H63	0.500000	0.250000	0.475000
C1901	C190	0.000000	0.750000	0.789400
C1911	C191	0.000000	0.750000	0.920100
C1921	C192	0.000000	0.750000	0.718200
H641	H64	0.000000	0.750000	0.975000
C1931	C193	0.250000	0.710600	0.000000
C1941	C194	0.250000	0.579900	0.000000
C1951	C195	0.250000	0.781800	0.000000
H651	H65	0.250000	0.525000	0.000000
C1961	C196	0.750000	0.210600	0.500000
C1971	C197	0.750000	0.079900	0.500000
C1981	C198	0.750000	0.281800	0.500000
H661	H66	0.750000	0.025000	0.500000
C1991	C199	0.250000	0.289400	0.500000
C2001	C200	0.250000	0.420100	0.500000
C2011	C201	0.250000	0.218200	0.500000
H671	H67	0.250000	0.475000	0.500000
C2021	C202	0.750000	0.789400	0.000000
C2031	C203	0.750000	0.920100	0.000000
C2041	C204	0.750000	0.718200	0.000000
H681	H68	0.750000	0.975000	0.000000
C2051	C205	0.710600	0.000000	0.250000
C2061	C206	0.579900	0.000000	0.250000
C2071	C207	0.781800	0.000000	0.250000
H691	H69	0.525000	0.000000	0.250000
C2081	C208	0.210600	0.500000	0.750000
C2091	C209	0.079900	0.500000	0.750000
C2101	C210	0.281800	0.500000	0.750000
H701	H70	0.025000	0.500000	0.750000
C2111	C211	0.289400	0.500000	0.250000
C2121	C212	0.420100	0.500000	0.250000
C2131	C213	0.218200	0.500000	0.250000
H711	H71	0.475000	0.500000	0.250000
C2141	C214	0.789400	0.000000	0.750000
C2151	C215	0.920100	0.000000	0.750000
C2161	C216	0.718200	0.000000	0.750000
H721	H72	0.975000	0.000000	0.750000
