data_POFSIN02_freeONLY_PM
_symmetry_space_group_name_H-M	'P1'
_cell_length_a	12.696600
_cell_length_b	12.696600
_cell_length_c	12.696600
_cell_angle_alpha	90.000000
_cell_angle_beta	90.000000
_cell_angle_gamma	90.000000
_symmetry_Int_Tables_number 1

loop_
_symmetry_equiv_pos_as_xyz
'x,y,z'

loop_
_atom_site_label
_atom_site_type_symbol
_atom_site_fract_x
_atom_site_fract_y
_atom_site_fract_z
Cd11	Cd1	0.625000	0.125000	0.125000
Cd21	Cd2	0.125000	0.625000	0.125000
Cd31	Cd3	0.125000	0.125000	0.625000
Cd41	Cd4	0.625000	0.625000	0.625000
Cd51	Cd5	0.875000	0.875000	0.375000
Cd61	Cd6	0.875000	0.375000	0.875000
Cd71	Cd7	0.375000	0.875000	0.875000
Cd81	Cd8	0.375000	0.375000	0.375000
C11	C1	0.723200	0.223200	0.026800
C21	C2	0.026800	0.026800	0.526800
C31	C3	0.526800	0.526800	0.526800
C41	C4	0.526800	0.723200	0.723200
C51	C5	0.223200	0.526800	0.223200
C61	C6	0.026800	0.723200	0.223200
C71	C7	0.526800	0.026800	0.026800
C81	C8	0.723200	0.526800	0.723200
C91	C9	0.223200	0.223200	0.526800
C101	C10	0.223200	0.026800	0.723200
C111	C11	0.026800	0.526800	0.026800
C121	C12	0.723200	0.723200	0.526800
C131	C13	0.526800	0.223200	0.223200
C141	C14	0.973200	0.973200	0.473200
C151	C15	0.776800	0.276800	0.973200
C161	C16	0.473200	0.776800	0.776800
C171	C17	0.276800	0.473200	0.276800
C181	C18	0.473200	0.276800	0.276800
C191	C19	0.776800	0.776800	0.473200
C201	C20	0.276800	0.973200	0.776800
C211	C21	0.973200	0.473200	0.973200
C221	C22	0.776800	0.473200	0.776800
C231	C23	0.276800	0.276800	0.473200
C241	C24	0.473200	0.973200	0.973200
C251	C25	0.473200	0.473200	0.473200
C261	C26	0.973200	0.776800	0.276800
C271	C27	0.276800	0.776800	0.973200
C281	C28	0.973200	0.276800	0.776800
C291	C29	0.776800	0.973200	0.276800
C301	C30	0.223200	0.723200	0.026800
C311	C31	0.723200	0.026800	0.223200
C321	C32	0.026800	0.223200	0.723200
