data_POFSIN04_freeONLY_PM
_symmetry_space_group_name_H-M	'P1'
_cell_length_a	12.674100
_cell_length_b	12.674100
_cell_length_c	12.674100
_cell_angle_alpha	90.000000
_cell_angle_beta	90.000000
_cell_angle_gamma	90.000000
_symmetry_Int_Tables_number 1

loop_
_symmetry_equiv_pos_as_xyz
'x,y,z'

loop_
_atom_site_label
_atom_site_type_symbol
_atom_site_fract_x
_atom_site_fract_y
_atom_site_fract_z
Cd11	Cd1	0.625000	0.125000	0.125000
Cd21	Cd2	0.125000	0.625000	0.125000
Cd31	Cd3	0.125000	0.125000	0.625000
Cd41	Cd4	0.625000	0.625000	0.625000
Cd51	Cd5	0.875000	0.875000	0.375000
Cd61	Cd6	0.875000	0.375000	0.875000
Cd71	Cd7	0.375000	0.875000	0.875000
Cd81	Cd8	0.375000	0.375000	0.375000
C11	C1	0.724900	0.224900	0.025100
C21	C2	0.025100	0.025100	0.525100
C31	C3	0.525100	0.525100	0.525100
C41	C4	0.525100	0.724900	0.724900
C51	C5	0.224900	0.525100	0.224900
C61	C6	0.025100	0.724900	0.224900
C71	C7	0.525100	0.025100	0.025100
C81	C8	0.724900	0.525100	0.724900
C91	C9	0.224900	0.224900	0.525100
C101	C10	0.224900	0.025100	0.724900
C111	C11	0.025100	0.525100	0.025100
C121	C12	0.724900	0.724900	0.525100
C131	C13	0.525100	0.224900	0.224900
C141	C14	0.974900	0.974900	0.474900
C151	C15	0.775100	0.275100	0.974900
C161	C16	0.474900	0.775100	0.775100
C171	C17	0.275100	0.474900	0.275100
C181	C18	0.474900	0.275100	0.275100
C191	C19	0.775100	0.775100	0.474900
C201	C20	0.275100	0.974900	0.775100
C211	C21	0.974900	0.474900	0.974900
C221	C22	0.775100	0.474900	0.775100
C231	C23	0.275100	0.275100	0.474900
C241	C24	0.474900	0.974900	0.974900
C251	C25	0.474900	0.474900	0.474900
C261	C26	0.974900	0.775100	0.275100
C271	C27	0.275100	0.775100	0.974900
C281	C28	0.974900	0.275100	0.775100
C291	C29	0.775100	0.974900	0.275100
C301	C30	0.224900	0.724900	0.025100
C311	C31	0.724900	0.025100	0.224900
C321	C32	0.025100	0.224900	0.724900
