data_POKSIT_freeONLY_PM
_symmetry_space_group_name_H-M	'P1'
_cell_length_a	6.040800
_cell_length_b	12.332400
_cell_length_c	23.577000
_cell_angle_alpha	90.000000
_cell_angle_beta	90.000000
_cell_angle_gamma	94.110400
_symmetry_Int_Tables_number 1

loop_
_symmetry_equiv_pos_as_xyz
'x,y,z'

loop_
_atom_site_label
_atom_site_type_symbol
_atom_site_fract_x
_atom_site_fract_y
_atom_site_fract_z
Tm11	Tm1	0.510170	0.609730	0.171450
Tm21	Tm2	0.010170	0.109730	0.328550
Tm31	Tm3	0.489830	0.390270	0.828550
Tm41	Tm4	0.989830	0.890270	0.671450
Cu11	Cu1	0.000000	0.000000	0.000000
Cu21	Cu2	0.500000	0.500000	0.500000
H11	H1	0.529500	0.274500	0.335800
H21	H2	0.872400	0.337100	0.894100
H31	H3	0.951300	0.623400	0.328500
H41	H4	0.831700	0.189700	0.417800
H51	H5	0.061400	0.908600	0.354800
H61	H6	0.371600	0.409800	0.113200
H71	H7	0.168300	0.810300	0.582200
H81	H8	0.668300	0.310300	0.917800
H91	H9	0.438600	0.591400	0.854800
H101	H10	0.127600	0.662900	0.105900
H111	H11	0.628400	0.590200	0.886800
H121	H12	0.372400	0.837100	0.605900
H131	H13	0.112400	0.078200	0.792100
H141	H14	0.938600	0.091400	0.645200
H151	H15	0.331700	0.689700	0.082200
H161	H16	0.451300	0.123400	0.171500
H171	H17	0.048700	0.376600	0.671500
H181	H18	0.174800	0.142900	0.103700
H191	H19	0.548700	0.876600	0.828500
H201	H20	0.612400	0.578200	0.707900
H211	H21	0.871600	0.909800	0.386800
H221	H22	0.627600	0.162900	0.394100
H231	H23	0.970500	0.225500	0.835800
H241	H24	0.825200	0.857100	0.896300
H251	H25	0.128400	0.090200	0.613200
H261	H26	0.561400	0.408600	0.145200
H271	H27	0.887600	0.921800	0.207900
H281	H28	0.387600	0.421800	0.292100
H291	H29	0.470500	0.725500	0.664200
H301	H30	0.029500	0.774500	0.164200
H311	H31	0.325200	0.357100	0.603700
H321	H32	0.674800	0.642900	0.396300
C11	C1	0.932900	0.573100	0.357800
C21	C2	0.302400	0.166700	0.907300
C31	C3	0.985100	0.511200	0.196400
C41	C4	0.134300	0.569100	0.556200
C51	C5	0.473100	0.598800	0.718400
C61	C6	0.735400	0.915100	0.898800
C71	C7	0.973100	0.098800	0.781600
C81	C8	0.514900	0.988800	0.696400
C91	C9	0.026900	0.901200	0.218400
C101	C10	0.155500	0.572400	0.770000
C111	C11	0.467500	0.079400	0.904300
C121	C12	0.892500	0.190700	0.806200
C131	C13	0.526900	0.401200	0.281600
C141	C14	0.911100	0.327600	0.248000
C151	C15	0.816400	0.354100	0.492100
C161	C16	0.107500	0.809300	0.193800
C171	C17	0.432900	0.073100	0.142200
C181	C18	0.697600	0.833300	0.092700
C191	C19	0.485100	0.011200	0.303600
C201	C20	0.567100	0.926900	0.857800
C211	C21	0.411100	0.827600	0.252000
C221	C22	0.402600	0.231200	0.722100
C231	C23	0.802400	0.666700	0.592700
C241	C24	0.097400	0.268800	0.222100
C251	C25	0.655500	0.072400	0.730000
C261	C26	0.264600	0.084900	0.101200
C271	C27	0.865700	0.430900	0.443800
C281	C28	0.532500	0.920600	0.095700
C291	C29	0.088900	0.672400	0.752000
C301	C30	0.683600	0.145900	0.992100
C311	C31	0.967500	0.579400	0.595700
C321	C32	0.607500	0.309300	0.306200
C331	C33	0.764600	0.584900	0.398800
C341	C34	0.634300	0.069100	0.943800
C351	C35	0.344500	0.927600	0.270000
C361	C36	0.067100	0.426900	0.642200
C371	C37	0.183600	0.645900	0.507900
C381	C38	0.365700	0.930900	0.056200
C391	C39	0.392500	0.690700	0.693800
C401	C40	0.588900	0.172400	0.748000
C411	C41	0.316400	0.854100	0.007900
C421	C42	0.235400	0.415100	0.601200
C431	C43	0.902600	0.731200	0.777900
C441	C44	0.014900	0.488800	0.803600
C451	C45	0.597400	0.768800	0.277900
C461	C46	0.844500	0.427600	0.230000
C471	C47	0.197600	0.333300	0.407300
C481	C48	0.032500	0.420600	0.404300
N11	N1	0.702500	0.229700	0.787740
N21	N2	0.356300	0.540100	0.756520
N31	N3	0.564700	0.991400	0.139600
N41	N4	0.265400	0.486500	0.559430
N51	N5	0.202500	0.729700	0.712260
N61	N6	0.734600	0.513500	0.440570
N71	N7	0.797500	0.270300	0.287740
N81	N8	0.435300	0.008600	0.860400
N91	N9	0.643700	0.459900	0.243480
N101	N10	0.143700	0.959900	0.256520
N111	N11	0.297500	0.770300	0.212260
N121	N12	0.234600	0.013500	0.059430
N131	N13	0.064700	0.491400	0.360400
N141	N14	0.856300	0.040100	0.743480
N151	N15	0.935300	0.508600	0.639600
N161	N16	0.765400	0.986500	0.940570
O11	O1	0.336800	0.309400	0.750860
O21	O2	0.178000	0.887300	0.971210
O31	O3	0.488500	0.447500	0.123200
O41	O4	0.187900	0.521700	0.206570
O51	O5	0.745500	0.360200	0.900430
O61	O6	0.836800	0.809400	0.749140
O71	O7	0.338900	0.247400	0.874700
O81	O8	0.312100	0.978300	0.706570
O91	O9	0.322000	0.612700	0.471210
O101	O10	0.381100	0.068800	0.337380
O111	O11	0.336300	0.204400	0.674010
O121	O12	0.245500	0.860200	0.599570
O131	O13	0.407300	0.769200	0.005100
O141	O14	0.836300	0.704400	0.825990
O151	O15	0.358100	0.349800	0.438700
O161	O16	0.161100	0.252600	0.374700
O171	O17	0.618900	0.931200	0.662620
O181	O18	0.163200	0.190600	0.250860
O191	O19	0.822000	0.112700	0.028790
O201	O20	0.687900	0.021700	0.293430
O211	O21	0.592700	0.230800	0.994900
O221	O22	0.663700	0.795600	0.325990
O231	O23	0.641900	0.650200	0.561300
O241	O24	0.988500	0.947500	0.376800
O251	O25	0.141900	0.150200	0.938700
O261	O26	0.678000	0.387300	0.528790
O271	O27	0.881100	0.568800	0.162620
O281	O28	0.661100	0.752600	0.125300
O291	O29	0.838900	0.747400	0.625300
O301	O30	0.812100	0.478300	0.793430
O311	O31	0.858100	0.849800	0.061300
O321	O32	0.092700	0.730800	0.505100
O331	O33	0.254500	0.639800	0.099570
O341	O34	0.011500	0.052500	0.623200
O351	O35	0.511500	0.552500	0.876800
O361	O36	0.907300	0.269200	0.494900
O371	O37	0.663200	0.690600	0.249140
O381	O38	0.754500	0.139800	0.400430
O391	O39	0.118900	0.431200	0.837380
O401	O40	0.163700	0.295600	0.174010
