data_POKSAL_freeONLY_PM
_symmetry_space_group_name_H-M	'P1'
_cell_length_a	6.021400
_cell_length_b	12.315100
_cell_length_c	23.592000
_cell_angle_alpha	90.000000
_cell_angle_beta	90.000000
_cell_angle_gamma	94.013000
_symmetry_Int_Tables_number 1

loop_
_symmetry_equiv_pos_as_xyz
'x,y,z'

loop_
_atom_site_label
_atom_site_type_symbol
_atom_site_fract_x
_atom_site_fract_y
_atom_site_fract_z
Yb11	Yb1	0.487850	0.390210	0.327820
Yb21	Yb2	0.012150	0.109790	0.827820
Yb31	Yb3	0.512150	0.609790	0.672180
Yb41	Yb4	0.987850	0.890210	0.172180
Cu11	Cu1	0.000000	0.000000	0.500000
Cu21	Cu2	0.500000	0.500000	0.000000
H11	H1	0.033000	0.774400	0.664400
H21	H2	0.820600	0.193400	0.918700
H31	H3	0.533000	0.274400	0.835600
H41	H4	0.432500	0.470700	0.590800
H51	H5	0.179400	0.806600	0.081300
H61	H6	0.676300	0.641200	0.895200
H71	H7	0.176300	0.141200	0.604800
H81	H8	0.823700	0.858800	0.395200
H91	H9	0.567500	0.529300	0.409200
H101	H10	0.125600	0.631100	0.590000
H111	H11	0.067500	0.029300	0.090800
H121	H12	0.991200	0.116600	0.119200
H131	H13	0.008800	0.883400	0.880800
H141	H14	0.932500	0.970700	0.909200
H151	H15	0.390000	0.421500	0.792600
H161	H16	0.450600	0.121200	0.671500
H171	H17	0.890000	0.921500	0.707400
H181	H18	0.110000	0.078500	0.292600
H191	H19	0.625600	0.131100	0.910000
H201	H20	0.508800	0.383400	0.619200
H211	H21	0.374400	0.868900	0.090000
H221	H22	0.320600	0.693400	0.581300
H231	H23	0.950600	0.621200	0.828500
H241	H24	0.467000	0.725600	0.164400
H251	H25	0.610000	0.578500	0.207400
H261	H26	0.967000	0.225600	0.335600
H271	H27	0.679400	0.306600	0.418700
H281	H28	0.549400	0.878800	0.328500
H291	H29	0.491200	0.616600	0.380800
H301	H30	0.323700	0.358800	0.104800
H311	H31	0.874400	0.368900	0.410000
H321	H32	0.049400	0.378800	0.171500
C11	C1	0.233600	0.416900	0.101900
C21	C2	0.867100	0.429200	0.944200
C31	C3	0.889100	0.190800	0.306000
C41	C4	0.603600	0.768600	0.778300
C51	C5	0.465600	0.081600	0.404300
C61	C6	0.534400	0.918400	0.595700
C71	C7	0.034400	0.418400	0.904300
C81	C8	0.068200	0.429000	0.142100
C91	C9	0.801100	0.668700	0.091900
C101	C10	0.414500	0.827100	0.752500
C111	C11	0.389100	0.690800	0.194000
C121	C12	0.610900	0.309200	0.806000
C131	C13	0.103600	0.268600	0.721700
C141	C14	0.931800	0.571000	0.857900
C151	C15	0.965600	0.581600	0.095700
C161	C16	0.152700	0.573100	0.270300
C171	C17	0.815600	0.353500	0.992700
C181	C18	0.529100	0.400600	0.781500
C191	C19	0.896400	0.731400	0.278300
C201	C20	0.632900	0.070800	0.444200
C211	C21	0.470900	0.599400	0.218500
C221	C22	0.367100	0.929200	0.555800
C231	C23	0.914500	0.327100	0.747500
C241	C24	0.970900	0.099400	0.281500
C251	C25	0.684400	0.146500	0.492700
C261	C26	0.698900	0.831300	0.591900
C271	C27	0.085500	0.672900	0.252500
C281	C28	0.486400	0.011400	0.803510
C291	C29	0.568200	0.929000	0.357900
C301	C30	0.733600	0.916900	0.398100
C311	C31	0.986400	0.511400	0.696490
C321	C32	0.301100	0.168700	0.408100
C331	C33	0.110900	0.809200	0.694000
C341	C34	0.513600	0.988600	0.196490
C351	C35	0.315600	0.853500	0.507300
C361	C36	0.013600	0.488600	0.303510
C371	C37	0.198900	0.331300	0.908100
C381	C38	0.652700	0.073100	0.229700
C391	C39	0.029100	0.900600	0.718500
C401	C40	0.847300	0.426900	0.729700
C411	C41	0.585500	0.172900	0.247500
C421	C42	0.431800	0.071000	0.642100
C431	C43	0.132900	0.570800	0.055800
C441	C44	0.266400	0.083100	0.601900
C451	C45	0.766400	0.583100	0.898100
C461	C46	0.396400	0.231400	0.221700
C471	C47	0.184400	0.646500	0.007300
C481	C48	0.347300	0.926900	0.770300
N11	N1	0.934800	0.512400	0.139350
N21	N2	0.855500	0.040400	0.242510
N31	N3	0.735300	0.513400	0.940690
N41	N4	0.644500	0.459600	0.742510
N51	N5	0.699200	0.229900	0.287740
N61	N6	0.144500	0.959600	0.757490
N71	N7	0.065200	0.487600	0.860650
N81	N8	0.764700	0.986600	0.440690
N91	N9	0.264700	0.486600	0.059310
N101	N10	0.434800	0.012400	0.360650
N111	N11	0.355500	0.540400	0.257490
N121	N12	0.800800	0.270100	0.787740
N131	N13	0.199200	0.729900	0.212260
N141	N14	0.300800	0.770100	0.712260
N151	N15	0.235300	0.013400	0.559310
N161	N16	0.565200	0.987600	0.639350
O11	O1	0.115700	0.430600	0.337040
O21	O2	0.504100	0.548700	0.378600
O31	O3	0.336700	0.251400	0.376000
O41	O4	0.807600	0.477700	0.293580
O51	O5	0.172800	0.296600	0.674790
O61	O6	0.739100	0.359500	0.399710
O71	O7	0.668300	0.689900	0.749560
O81	O8	0.836700	0.751400	0.124000
O91	O9	0.831700	0.810100	0.249560
O101	O10	0.995900	0.951300	0.878600
O111	O11	0.140300	0.152700	0.439740
O121	O12	0.327200	0.203400	0.174790
O131	O13	0.904900	0.267400	0.995170
O141	O14	0.095100	0.732600	0.004830
O151	O15	0.677500	0.386000	0.029450
O161	O16	0.359700	0.347300	0.939740
O171	O17	0.260900	0.640500	0.600290
O181	O18	0.168300	0.189900	0.750440
O191	O19	0.177500	0.886000	0.470550
O201	O20	0.615700	0.930600	0.162960
O211	O21	0.404900	0.767400	0.504830
O221	O22	0.884300	0.569400	0.662960
O231	O23	0.640300	0.652700	0.060260
O241	O24	0.192400	0.522300	0.706420
O251	O25	0.827200	0.703400	0.325210
O261	O26	0.595100	0.232600	0.495170
O271	O27	0.307600	0.977700	0.206420
O281	O28	0.859700	0.847300	0.560260
O291	O29	0.672800	0.796600	0.825210
O301	O30	0.495900	0.451300	0.621400
O311	O31	0.239100	0.859500	0.100290
O321	O32	0.004100	0.048700	0.121400
O331	O33	0.822500	0.114000	0.529450
O341	O34	0.692400	0.022300	0.793580
O351	O35	0.760900	0.140500	0.899710
O361	O36	0.322500	0.614000	0.970550
O371	O37	0.663300	0.748600	0.624000
O381	O38	0.384300	0.069400	0.837040
O391	O39	0.163300	0.248600	0.876000
O401	O40	0.331700	0.310100	0.250440
