data_POKTUG_freeONLY_PM
_symmetry_space_group_name_H-M	'P1'
_cell_length_a	6.081200
_cell_length_b	12.388700
_cell_length_c	23.472000
_cell_angle_alpha	90.000000
_cell_angle_beta	90.000000
_cell_angle_gamma	94.322100
_symmetry_Int_Tables_number 1

loop_
_symmetry_equiv_pos_as_xyz
'x,y,z'

loop_
_atom_site_label
_atom_site_type_symbol
_atom_site_fract_x
_atom_site_fract_y
_atom_site_fract_z
Ho11	Ho1	0.008690	0.609170	0.831000
Ho21	Ho2	0.508690	0.109170	0.669000
Ho31	Ho3	0.991310	0.390830	0.169000
Ho41	Ho4	0.491310	0.890830	0.331000
Cu11	Cu1	0.000000	0.500000	0.500000
Cu21	Cu2	0.500000	0.000000	0.000000
H11	H1	0.530200	0.775100	0.837200
H21	H2	0.871500	0.398300	0.860400
H31	H3	0.128500	0.601700	0.139600
H41	H4	0.175500	0.643500	0.604100
H51	H5	0.555400	0.374700	0.328700
H61	H6	0.675500	0.143500	0.895900
H71	H7	0.212500	0.151700	0.563600
H81	H8	0.371500	0.898300	0.639600
H91	H9	0.657600	0.592800	0.885300
H101	H10	0.842400	0.907200	0.385300
H111	H11	0.469800	0.224900	0.162800
H121	H12	0.787500	0.848300	0.436400
H131	H13	0.112300	0.577700	0.293400
H141	H14	0.055400	0.874700	0.171300
H151	H15	0.612300	0.077700	0.206600
H161	H16	0.628500	0.101700	0.360400
H171	H17	0.595100	0.923900	0.639800
H181	H18	0.324500	0.856500	0.104100
H191	H19	0.712500	0.651700	0.936400
H201	H20	0.157600	0.092800	0.614700
H211	H21	0.287500	0.348300	0.063600
H221	H22	0.444600	0.625300	0.671300
H231	H23	0.944600	0.125300	0.828700
H241	H24	0.095100	0.423900	0.860200
H251	H25	0.342400	0.407200	0.114700
H261	H26	0.387700	0.922300	0.793400
H271	H27	0.969800	0.724900	0.337200
H281	H28	0.904900	0.576100	0.139800
H291	H29	0.824500	0.356500	0.395900
H301	H30	0.030200	0.275100	0.662800
H311	H31	0.887700	0.422300	0.706600
H321	H32	0.404900	0.076100	0.360200
C11	C1	0.818300	0.856100	0.992600
C21	C2	0.681700	0.643900	0.492600
C31	C3	0.474500	0.098500	0.217400
C41	C4	0.181700	0.143900	0.007400
C51	C5	0.525500	0.901500	0.782600
C61	C6	0.095100	0.173400	0.251800
C71	C7	0.306000	0.662800	0.405500
C81	C8	0.532800	0.425100	0.596500
C91	C9	0.158400	0.072900	0.270200
C101	C10	0.363900	0.434000	0.556400
C111	C11	0.863900	0.934000	0.943600
C121	C12	0.410100	0.732100	0.221800
C131	C13	0.764800	0.086000	0.898500
C141	C14	0.910100	0.232100	0.278200
C151	C15	0.428500	0.575200	0.641800
C161	C16	0.136100	0.066000	0.056400
C171	C17	0.904900	0.826600	0.748200
C181	C18	0.735200	0.414000	0.398500
C191	C19	0.974500	0.598500	0.282600
C201	C20	0.589900	0.267900	0.778200
C211	C21	0.483900	0.510300	0.803900
C221	C22	0.658400	0.572900	0.229800
C231	C23	0.025500	0.401500	0.717400
C241	C24	0.318300	0.356100	0.507400
C251	C25	0.467200	0.574900	0.403500
C261	C26	0.595100	0.673400	0.248200
C271	C27	0.404900	0.326600	0.751800
C281	C28	0.341600	0.427100	0.770200
C291	C29	0.636100	0.566000	0.443600
C301	C30	0.264800	0.586000	0.601500
C311	C31	0.893700	0.690500	0.307100
C321	C32	0.694000	0.337200	0.594500
C331	C33	0.928500	0.075200	0.858200
C341	C34	0.393700	0.190500	0.192900
C351	C35	0.194000	0.837200	0.905500
C361	C36	0.967200	0.074900	0.096500
C371	C37	0.571500	0.424800	0.358200
C381	C38	0.032800	0.925100	0.903500
C391	C39	0.089900	0.767900	0.721800
C401	C40	0.235200	0.914000	0.101500
C411	C41	0.516100	0.489700	0.196100
C421	C42	0.841600	0.927100	0.729800
C431	C43	0.106300	0.309500	0.692900
C441	C44	0.016100	0.989700	0.303900
C451	C45	0.806000	0.162800	0.094500
C461	C46	0.606300	0.809500	0.807100
C471	C47	0.071500	0.924800	0.141800
C481	C48	0.983900	0.010300	0.696100
N11	N1	0.790100	0.770400	0.788000
N21	N2	0.234900	0.515700	0.559600
N31	N3	0.265100	0.984300	0.059600
N41	N4	0.290100	0.270400	0.712000
N51	N5	0.438100	0.503900	0.360200
N61	N6	0.143700	0.460200	0.756100
N71	N7	0.209900	0.229600	0.212000
N81	N8	0.734900	0.015700	0.940400
N91	N9	0.643700	0.960200	0.743900
N101	N10	0.561900	0.496100	0.639800
N111	N11	0.356300	0.039800	0.256100
N121	N12	0.938100	0.003900	0.139800
N131	N13	0.061900	0.996100	0.860200
N141	N14	0.709900	0.729600	0.288000
N151	N15	0.856300	0.539800	0.243900
N161	N16	0.765100	0.484300	0.440400
O11	O1	0.120800	0.932300	0.337700
O21	O2	0.855100	0.353700	0.562600
O31	O3	0.355100	0.853700	0.937400
O41	O4	0.745100	0.640800	0.900900
O51	O5	0.254900	0.359200	0.099100
O61	O6	0.846900	0.205100	0.327000
O71	O7	0.754900	0.859200	0.400900
O81	O8	0.184100	0.021000	0.706400
O91	O9	0.644900	0.146300	0.062600
O101	O10	0.324500	0.113900	0.971600
O111	O11	0.824500	0.613900	0.528400
O121	O12	0.157500	0.690800	0.750100
O131	O13	0.175500	0.386100	0.471600
O141	O14	0.315900	0.479000	0.206400
O151	O15	0.657500	0.190800	0.749900
O161	O16	0.089300	0.228200	0.004300
O171	O17	0.815900	0.979000	0.293600
O181	O18	0.974400	0.438800	0.875600
O191	O19	0.842500	0.309200	0.249900
O201	O20	0.379200	0.567700	0.837700
O211	O21	0.342500	0.809200	0.250100
O221	O22	0.879200	0.067700	0.662300
O231	O23	0.910700	0.771800	0.995700
O241	O24	0.656900	0.259600	0.627400
O251	O25	0.346900	0.705100	0.173000
O261	O26	0.410700	0.271800	0.504300
O271	O27	0.589300	0.728200	0.495700
O281	O28	0.343100	0.740400	0.372600
O291	O29	0.525600	0.061200	0.375600
O301	O30	0.144900	0.646300	0.437400
O311	O31	0.245100	0.140800	0.599100
O321	O32	0.153100	0.794900	0.673000
O331	O33	0.156900	0.759600	0.872600
O341	O34	0.675500	0.886100	0.028400
O351	O35	0.684100	0.521000	0.793600
O361	O36	0.025600	0.561200	0.124400
O371	O37	0.653100	0.294900	0.827000
O381	O38	0.843100	0.240400	0.127400
O391	O39	0.474400	0.938800	0.624400
O401	O40	0.620800	0.432300	0.162300
