data_POLBIB_freeONLY_PM
_symmetry_space_group_name_H-M	'P1'
_cell_length_a	10.567000
_cell_length_b	16.970000
_cell_length_c	8.413000
_cell_angle_alpha	90.000000
_cell_angle_beta	90.000000
_cell_angle_gamma	90.000000
_symmetry_Int_Tables_number 1

loop_
_symmetry_equiv_pos_as_xyz
'x,y,z'

loop_
_atom_site_label
_atom_site_type_symbol
_atom_site_fract_x
_atom_site_fract_y
_atom_site_fract_z
V11	V1	0.140600	0.564300	0.779800
P11	P1	0.870700	0.586800	0.970900
O11	O1	0.015900	0.585300	0.949200
O21	O2	0.835900	0.545400	0.128300
O31	O3	0.806000	0.545700	0.829600
O41	O4	0.826000	0.673000	0.989200
O51	O5	0.659200	0.826100	0.758600
O61	O6	0.048000	0.540800	0.635400
O71	O7	0.282900	0.594900	0.986200
V21	V2	0.359400	0.435700	0.279800
P21	P2	0.629300	0.413200	0.470900
O81	O8	0.484100	0.414700	0.449200
O91	O9	0.664100	0.454600	0.628300
O101	O10	0.694000	0.454300	0.329600
O111	O11	0.674000	0.327000	0.489200
O121	O12	0.840800	0.173900	0.258600
O131	O13	0.452000	0.459200	0.135400
O141	O14	0.217100	0.405100	0.486200
V31	V3	0.859400	0.064300	0.220200
P31	P3	0.129300	0.086800	0.029100
O151	O15	0.984100	0.085300	0.050800
O161	O16	0.164100	0.045400	0.871700
O171	O17	0.194000	0.045700	0.170400
O181	O18	0.174000	0.173000	0.010800
O191	O19	0.340800	0.326100	0.241400
O201	O20	0.952000	0.040800	0.364600
O211	O21	0.717100	0.094900	0.013800
V41	V4	0.640600	0.935700	0.720200
P41	P4	0.370700	0.913200	0.529100
O221	O22	0.515900	0.914700	0.550800
O231	O23	0.335900	0.954600	0.371700
O241	O24	0.306000	0.954300	0.670400
O251	O25	0.326000	0.827000	0.510800
O261	O26	0.159200	0.673900	0.741400
O271	O27	0.548000	0.959200	0.864600
O281	O28	0.782900	0.905100	0.513800
V51	V5	0.859400	0.435700	0.220200
P51	P5	0.129300	0.413200	0.029100
O291	O29	0.984100	0.414700	0.050800
O301	O30	0.164100	0.454600	0.871700
O311	O31	0.194000	0.454300	0.170400
O321	O32	0.174000	0.327000	0.010800
O331	O33	0.340800	0.173900	0.241400
O341	O34	0.952000	0.459200	0.364600
O351	O35	0.717100	0.405100	0.013800
V61	V6	0.640600	0.564300	0.720200
P61	P6	0.370700	0.586800	0.529100
O361	O36	0.515900	0.585300	0.550800
O371	O37	0.335900	0.545400	0.371700
O381	O38	0.306000	0.545700	0.670400
O391	O39	0.326000	0.673000	0.510800
O401	O40	0.159200	0.826100	0.741400
O411	O41	0.548000	0.540800	0.864600
O421	O42	0.782900	0.594900	0.513800
V71	V7	0.140600	0.935700	0.779800
P71	P7	0.870700	0.913200	0.970900
O431	O43	0.015900	0.914700	0.949200
O441	O44	0.835900	0.954600	0.128300
O451	O45	0.806000	0.954300	0.829600
O461	O46	0.826000	0.827000	0.989200
O471	O47	0.659200	0.673900	0.758600
O481	O48	0.048000	0.959200	0.635400
O491	O49	0.282900	0.905100	0.986200
V81	V8	0.359400	0.064300	0.279800
P81	P8	0.629300	0.086800	0.470900
O501	O50	0.484100	0.085300	0.449200
O511	O51	0.664100	0.045400	0.628300
O521	O52	0.694000	0.045700	0.329600
O531	O53	0.674000	0.173000	0.489200
O541	O54	0.840800	0.326100	0.258600
O551	O55	0.452000	0.040800	0.135400
O561	O56	0.217100	0.094900	0.486200
V91	V9	0.779100	0.750000	0.826100
O571	O57	0.890100	0.750000	0.696100
V101	V10	0.720900	0.250000	0.326100
O581	O58	0.609900	0.250000	0.196100
V111	V11	0.220900	0.250000	0.173900
O591	O59	0.109900	0.250000	0.303900
V121	V12	0.279100	0.750000	0.673900
O601	O60	0.390100	0.750000	0.803900
