data_POLYEW_freeONLY_PM
_symmetry_space_group_name_H-M	'P1'
_cell_length_a	13.172300
_cell_length_b	13.172300
_cell_length_c	15.867000
_cell_angle_alpha	92.683700
_cell_angle_beta	92.683700
_cell_angle_gamma	109.093000
_symmetry_Int_Tables_number 1

loop_
_symmetry_equiv_pos_as_xyz
'x,y,z'

loop_
_atom_site_label
_atom_site_type_symbol
_atom_site_fract_x
_atom_site_fract_y
_atom_site_fract_z
Zn11	Zn1	0.562800	0.572420	0.439220
Zn21	Zn2	0.437200	0.427580	0.560780
Zn31	Zn3	0.427580	0.437200	0.060780
Zn41	Zn4	0.572420	0.562800	0.939220
H11	H1	0.794500	0.818500	0.089100
H21	H2	0.985800	0.742600	0.462400
H31	H3	0.194700	0.910500	0.431400
H41	H4	0.617300	0.014700	0.665900
H51	H5	0.771600	0.742600	0.442800
H61	H6	0.014200	0.257400	0.537600
H71	H7	0.445700	0.966300	0.900700
H81	H8	0.500100	0.829700	0.856200
H91	H9	0.181500	0.205500	0.410900
H101	H10	0.908600	0.949200	0.220700
H111	H11	0.005800	0.811400	0.135400
H121	H12	0.242600	0.004800	0.937600
H131	H13	0.332300	0.700900	0.168000
H141	H14	0.188600	0.994200	0.364600
H151	H15	0.796400	0.100000	0.011300
H161	H16	0.854200	0.320000	0.735100
H171	H17	0.346200	0.252400	0.831900
H181	H18	0.382700	0.985300	0.334100
H191	H19	0.966300	0.445700	0.400700
H201	H20	0.033700	0.554300	0.599300
H211	H21	0.299100	0.667700	0.332000
H221	H22	0.949200	0.908600	0.720700
H231	H23	0.818500	0.794500	0.589100
H241	H24	0.135800	0.396200	0.918200
H251	H25	0.203600	0.900000	0.988700
H261	H26	0.700900	0.332300	0.668000
H271	H27	0.900000	0.203600	0.488700
H281	H28	0.120500	0.438700	0.471200
H291	H29	0.667700	0.299100	0.832000
H301	H30	0.499900	0.170300	0.143800
H311	H31	0.742600	0.771600	0.942800
H321	H32	0.482100	0.678100	0.771100
H331	H33	0.829700	0.500100	0.356200
H341	H34	0.438700	0.120500	0.971200
H351	H35	0.757400	0.995200	0.062400
H361	H36	0.361300	0.450700	0.239500
H371	H37	0.228400	0.257400	0.557200
H381	H38	0.320000	0.854200	0.235100
H391	H39	0.805300	0.089500	0.568600
H401	H40	0.139300	0.117700	0.143700
H411	H41	0.875400	0.105400	0.855600
H421	H42	0.517900	0.321900	0.228900
H431	H43	0.742600	0.985800	0.962400
H441	H44	0.747600	0.653800	0.668100
H451	H45	0.549300	0.638700	0.260500
H461	H46	0.882300	0.860700	0.356300
H471	H47	0.680000	0.145800	0.764900
H481	H48	0.100000	0.796400	0.511300
H491	H49	0.050800	0.091400	0.279300
H501	H50	0.321900	0.517900	0.728900
H511	H51	0.170300	0.499900	0.643800
H521	H52	0.089500	0.805300	0.068600
H531	H53	0.994200	0.188600	0.864600
H541	H54	0.638700	0.549300	0.760500
H551	H55	0.879500	0.561300	0.528800
H561	H56	0.653800	0.747600	0.168100
H571	H57	0.678100	0.482100	0.271100
H581	H58	0.091400	0.050800	0.779300
H591	H59	0.995200	0.757400	0.562400
H601	H60	0.145800	0.680000	0.264900
H611	H61	0.554300	0.033700	0.099300
H621	H62	0.257400	0.228400	0.057200
H631	H63	0.450700	0.361300	0.739500
H641	H64	0.205500	0.181500	0.910900
H651	H65	0.124600	0.894600	0.144400
H661	H66	0.014700	0.617300	0.165900
H671	H67	0.985300	0.382700	0.834100
H681	H68	0.396200	0.135800	0.418200
H691	H69	0.117700	0.139300	0.643700
H701	H70	0.910500	0.194700	0.931400
H711	H71	0.603800	0.864200	0.581800
H721	H72	0.894600	0.124600	0.644400
H731	H73	0.004800	0.242600	0.437600
H741	H74	0.864200	0.603800	0.081800
H751	H75	0.860700	0.882300	0.856300
H761	H76	0.105400	0.875400	0.355600
H771	H77	0.561300	0.879500	0.028800
H781	H78	0.811400	0.005800	0.635400
H791	H79	0.252400	0.346200	0.331900
H801	H80	0.257400	0.014200	0.037600
C11	C1	0.248400	0.320800	0.275100
C21	C2	0.126100	0.484900	0.427100
C31	C3	0.411100	0.053500	0.312500
C41	C4	0.459600	0.245000	0.333000
C51	C5	0.070300	0.058500	0.943400
C61	C6	0.774400	0.453800	0.594700
C71	C7	0.510100	0.966300	0.114800
C81	C8	0.253900	0.253500	0.612800
C91	C9	0.163000	0.481000	0.700100
C101	C10	0.140000	0.627800	0.304500
C111	C11	0.058500	0.070300	0.443400
C121	C12	0.588900	0.946500	0.687500
C131	C13	0.969800	0.070800	0.949100
C141	C14	0.231500	0.621100	0.345000
C151	C15	0.183200	0.187000	0.164600
C161	C16	0.856800	0.581200	0.137200
C171	C17	0.060200	0.444200	0.730100
C181	C18	0.177500	0.222700	0.248300
C191	C19	0.341900	0.470500	0.890400
C201	C20	0.546200	0.225600	0.905300
C211	C21	0.515100	0.873900	0.072900
C221	C22	0.147000	0.110200	0.805100
C231	C23	0.065700	0.853300	0.104700
C241	C24	0.320800	0.248400	0.775100
C251	C25	0.481000	0.163000	0.200100
C261	C26	0.453800	0.774400	0.094700
C271	C27	0.617400	0.685800	0.280800
C281	C28	0.988700	0.101100	0.493600
C291	C29	0.469000	0.674200	0.056600
C301	C30	0.024200	0.789000	0.511100
C311	C31	0.746100	0.746500	0.387200
C321	C32	0.011300	0.898900	0.506400
C331	C33	0.529500	0.658100	0.609600
C341	C34	0.929200	0.030200	0.550900
C351	C35	0.245000	0.459600	0.833000
C361	C36	0.053500	0.411100	0.812500
C371	C37	0.558700	0.038100	0.820600
C381	C38	0.946500	0.588900	0.187500
C391	C39	0.253500	0.253900	0.112800
C401	C40	0.929700	0.941500	0.056600
C411	C41	0.519000	0.837000	0.799900
C421	C42	0.418800	0.143200	0.362800
C431	C43	0.789000	0.024200	0.011100
C441	C44	0.038100	0.558700	0.320600
C451	C45	0.851700	0.876500	0.114800
C461	C46	0.148300	0.123500	0.885200
C471	C47	0.679200	0.751600	0.224900
C481	C48	0.941500	0.929700	0.556600
C491	C49	0.939800	0.555800	0.269900
C501	C50	0.674200	0.469000	0.556600
C511	C51	0.382600	0.314200	0.719200
C521	C52	0.509600	0.746400	0.749500
C531	C53	0.777300	0.822500	0.251700
C541	C54	0.768500	0.378900	0.655000
C551	C55	0.030200	0.929200	0.050900
C561	C56	0.531000	0.325800	0.943400
C571	C57	0.816800	0.813000	0.835400
C581	C58	0.123500	0.148300	0.385200
C591	C59	0.070800	0.969800	0.449100
C601	C60	0.746400	0.509600	0.249500
C611	C61	0.837000	0.519000	0.299900
C621	C62	0.621100	0.231500	0.845000
C631	C63	0.222700	0.177500	0.748300
C641	C64	0.555800	0.939800	0.769900
C651	C65	0.225600	0.546200	0.405300
C661	C66	0.101100	0.988700	0.993600
C671	C67	0.372200	0.860000	0.195500
C681	C68	0.378900	0.768500	0.155000
C691	C69	0.822500	0.777300	0.751700
C701	C70	0.314200	0.382600	0.219200
C711	C71	0.755000	0.540400	0.167000
C721	C72	0.658100	0.529500	0.109600
C731	C73	0.813000	0.816800	0.335400
C741	C74	0.853000	0.889800	0.194900
C751	C75	0.325800	0.531000	0.443400
C761	C76	0.146700	0.934300	0.395300
C771	C77	0.470500	0.341900	0.390400
C781	C78	0.253600	0.490400	0.750500
C791	C79	0.966300	0.510100	0.614800
C801	C80	0.751600	0.679200	0.724900
C811	C81	0.876500	0.851700	0.614800
C821	C82	0.489900	0.033700	0.885200
C831	C83	0.490400	0.253600	0.250500
C841	C84	0.581200	0.856800	0.637200
C851	C85	0.860000	0.372200	0.695500
C861	C86	0.143200	0.418800	0.862800
C871	C87	0.484900	0.126100	0.927100
C881	C88	0.441300	0.961900	0.179400
C891	C89	0.975800	0.211000	0.488900
C901	C90	0.187000	0.183200	0.664600
C911	C91	0.934300	0.146700	0.895300
C921	C92	0.898900	0.011300	0.006400
C931	C93	0.033700	0.489900	0.385200
C941	C94	0.211000	0.975800	0.988900
C951	C95	0.873900	0.515100	0.572900
C961	C96	0.961900	0.441300	0.679400
C971	C97	0.889800	0.853000	0.694900
C981	C98	0.627800	0.140000	0.804500
C991	C99	0.746500	0.746100	0.887200
C1001	C100	0.853300	0.065700	0.604700
C1011	C101	0.444200	0.060200	0.230100
C1021	C102	0.685800	0.617400	0.780800
C1031	C103	0.540400	0.755000	0.667000
C1041	C104	0.110200	0.147000	0.305100
N11	N1	0.684000	0.646800	0.860800
N21	N2	0.353200	0.316000	0.639200
N31	N3	0.646800	0.684000	0.360800
N41	N4	0.316000	0.353200	0.139200
O11	O1	0.420250	0.587150	0.088400
O21	O2	0.579750	0.412850	0.911600
O31	O3	0.433100	0.522300	0.866200
O41	O4	0.674470	0.573530	0.041280
O51	O5	0.573530	0.674470	0.541280
O61	O6	0.477700	0.566900	0.633800
O71	O7	0.412850	0.579750	0.411600
O81	O8	0.315740	0.469260	0.502800
O91	O9	0.587150	0.420250	0.588400
O101	O10	0.426470	0.325530	0.458720
O111	O11	0.469260	0.315740	0.002800
O121	O12	0.522300	0.433100	0.366200
O131	O13	0.325530	0.426470	0.958720
O141	O14	0.566900	0.477700	0.133800
O151	O15	0.684260	0.530740	0.497200
O161	O16	0.530740	0.684260	0.997200
