data_POQQES_freeONLY_PM
_symmetry_space_group_name_H-M	'P1'
_cell_length_a	17.802300
_cell_length_b	16.103700
_cell_length_c	19.123200
_cell_angle_alpha	90.000000
_cell_angle_beta	90.000000
_cell_angle_gamma	90.000000
_symmetry_Int_Tables_number 1

loop_
_symmetry_equiv_pos_as_xyz
'x,y,z'

loop_
_atom_site_label
_atom_site_type_symbol
_atom_site_fract_x
_atom_site_fract_y
_atom_site_fract_z
Fe11	Fe1	0.233570	0.664960	0.542410
Fe21	Fe2	0.457780	0.835650	0.551210
Fe31	Fe3	0.946040	0.756010	0.706770
P11	P1	0.116400	0.759240	0.650080
P21	P2	0.304460	0.958960	0.541810
P31	P3	0.341670	0.727650	0.658930
P41	P4	0.352580	0.733920	0.435090
P51	P5	0.011990	0.907110	0.794960
P61	P6	0.126350	0.751420	0.927060
B11	B1	0.239600	0.837900	0.612200
B21	B2	0.238900	0.835300	0.477300
B31	B3	0.095400	0.766100	0.786170
O11	O1	0.033180	0.778020	0.645740
O21	O2	0.141400	0.689670	0.601980
O31	O3	0.136830	0.734070	0.726220
O41	O4	0.159940	0.840140	0.631440
O51	O5	0.296510	0.050810	0.542980
O61	O6	0.385100	0.931070	0.535850
O71	O7	0.265610	0.923860	0.608440
O81	O8	0.256860	0.924270	0.479960
O91	O9	0.302520	0.654770	0.623750
O101	O10	0.407850	0.758820	0.615660
O111	O11	0.368470	0.703910	0.731930
O121	O12	0.282790	0.798340	0.668440
O131	O13	0.418380	0.777530	0.469250
O141	O14	0.374640	0.703330	0.362200
O151	O15	0.324110	0.660600	0.478940
O161	O16	0.286750	0.796850	0.423490
O171	O17	0.025660	0.994910	0.771160
O181	O18	0.997890	0.903340	0.873630
O191	O19	0.947830	0.866060	0.753190
O201	O20	0.085250	0.856170	0.779860
O211	O21	0.169040	0.823960	0.957570
O221	O22	0.043050	0.752970	0.942600
O231	O23	0.140420	0.746330	0.847090
O241	O24	0.159910	0.668930	0.955730
O251	O25	0.251460	0.794190	0.544940
O261	O26	0.022150	0.722440	0.787130
H11	H1	0.002000	0.726000	0.818000
O271	O27	0.949720	0.635130	0.663630
H21	H2	0.968000	0.635000	0.631000
H31	H3	0.962000	0.590000	0.688000
O281	O28	0.527420	0.899670	0.473850
H41	H4	0.558000	0.872000	0.460000
H51	H5	0.549000	0.947000	0.479000
Fe41	Fe4	0.266430	0.335040	0.042410
Fe51	Fe5	0.042220	0.164350	0.051210
Fe61	Fe6	0.553960	0.243990	0.206770
P71	P7	0.383600	0.240760	0.150080
P81	P8	0.195540	0.041040	0.041810
P91	P9	0.158330	0.272350	0.158930
P101	P10	0.147420	0.266080	0.935090
P111	P11	0.488010	0.092890	0.294960
P121	P12	0.373650	0.248580	0.427060
B41	B4	0.260400	0.162100	0.112200
B51	B5	0.261100	0.164700	0.977300
B61	B6	0.404600	0.233900	0.286170
O291	O29	0.466820	0.221980	0.145740
O301	O30	0.358600	0.310330	0.101980
O311	O31	0.363170	0.265930	0.226220
O321	O32	0.340060	0.159860	0.131440
O331	O33	0.203490	0.949190	0.042980
O341	O34	0.114900	0.068930	0.035850
O351	O35	0.234390	0.076140	0.108440
O361	O36	0.243140	0.075730	0.979960
O371	O37	0.197480	0.345230	0.123750
O381	O38	0.092150	0.241180	0.115660
O391	O39	0.131530	0.296090	0.231930
O401	O40	0.217210	0.201660	0.168440
O411	O41	0.081620	0.222470	0.969250
O421	O42	0.125360	0.296670	0.862200
O431	O43	0.175890	0.339400	0.978940
O441	O44	0.213250	0.203150	0.923490
O451	O45	0.474340	0.005090	0.271160
O461	O46	0.502110	0.096660	0.373630
O471	O47	0.552170	0.133940	0.253190
O481	O48	0.414750	0.143830	0.279860
O491	O49	0.330960	0.176040	0.457570
O501	O50	0.456950	0.247030	0.442600
O511	O51	0.359580	0.253670	0.347090
O521	O52	0.340090	0.331070	0.455730
O531	O53	0.248540	0.205810	0.044940
O541	O54	0.477850	0.277560	0.287130
H61	H6	0.498000	0.274000	0.318000
O551	O55	0.550280	0.364870	0.163630
H71	H7	0.532000	0.365000	0.131000
H81	H8	0.538000	0.410000	0.188000
O561	O56	0.972580	0.100330	0.973850
H91	H9	0.942000	0.128000	0.960000
H101	H10	0.951000	0.053000	0.979000
Fe71	Fe7	0.766430	0.164960	0.957590
Fe81	Fe8	0.542220	0.335650	0.948790
Fe91	Fe9	0.053960	0.256010	0.793230
P131	P13	0.883600	0.259240	0.849920
P141	P14	0.695540	0.458960	0.958190
P151	P15	0.658330	0.227650	0.841070
P161	P16	0.647420	0.233920	0.064910
P171	P17	0.988010	0.407110	0.705040
P181	P18	0.873650	0.251420	0.572940
B71	B7	0.760400	0.337900	0.887800
B81	B8	0.761100	0.335300	0.022700
B91	B9	0.904600	0.266100	0.713830
O571	O57	0.966820	0.278020	0.854260
O581	O58	0.858600	0.189670	0.898020
O591	O59	0.863170	0.234070	0.773780
O601	O60	0.840060	0.340140	0.868560
O611	O61	0.703490	0.550810	0.957020
O621	O62	0.614900	0.431070	0.964150
O631	O63	0.734390	0.423860	0.891560
O641	O64	0.743140	0.424270	0.020040
O651	O65	0.697480	0.154770	0.876250
O661	O66	0.592150	0.258820	0.884340
O671	O67	0.631530	0.203910	0.768070
O681	O68	0.717210	0.298340	0.831560
O691	O69	0.581620	0.277530	0.030750
O701	O70	0.625360	0.203330	0.137800
O711	O71	0.675890	0.160600	0.021060
O721	O72	0.713250	0.296850	0.076510
O731	O73	0.974340	0.494910	0.728840
O741	O74	0.002110	0.403340	0.626370
O751	O75	0.052170	0.366060	0.746810
O761	O76	0.914750	0.356170	0.720140
O771	O77	0.830960	0.323960	0.542430
O781	O78	0.956950	0.252970	0.557400
O791	O79	0.859580	0.246330	0.652910
O801	O80	0.840090	0.168930	0.544270
O811	O81	0.748540	0.294190	0.955060
O821	O82	0.977850	0.222440	0.712870
H111	H11	0.998000	0.226000	0.682000
O831	O83	0.050280	0.135130	0.836370
H121	H12	0.032000	0.135000	0.869000
H131	H13	0.038000	0.090000	0.812000
O841	O84	0.472580	0.399670	0.026150
H141	H14	0.442000	0.372000	0.040000
H151	H15	0.451000	0.447000	0.021000
Fe101	Fe10	0.733570	0.835040	0.457590
Fe111	Fe11	0.957780	0.664350	0.448790
Fe121	Fe12	0.446040	0.743990	0.293230
P191	P19	0.616400	0.740760	0.349920
P201	P20	0.804460	0.541040	0.458190
P211	P21	0.841670	0.772350	0.341070
P221	P22	0.852580	0.766080	0.564910
P231	P23	0.511990	0.592890	0.205040
P241	P24	0.626350	0.748580	0.072940
B101	B10	0.739600	0.662100	0.387800
B111	B11	0.738900	0.664700	0.522700
B121	B12	0.595400	0.733900	0.213830
O851	O85	0.533180	0.721980	0.354260
O861	O86	0.641400	0.810330	0.398020
O871	O87	0.636830	0.765930	0.273780
O881	O88	0.659940	0.659860	0.368560
O891	O89	0.796510	0.449190	0.457020
O901	O90	0.885100	0.568930	0.464150
O911	O91	0.765610	0.576140	0.391560
O921	O92	0.756860	0.575730	0.520040
O931	O93	0.802520	0.845230	0.376250
O941	O94	0.907850	0.741180	0.384340
O951	O95	0.868470	0.796090	0.268070
O961	O96	0.782790	0.701660	0.331560
O971	O97	0.918380	0.722470	0.530750
O981	O98	0.874640	0.796670	0.637800
O991	O99	0.824110	0.839400	0.521060
O1001	O100	0.786750	0.703150	0.576510
O1011	O101	0.525660	0.505090	0.228840
O1021	O102	0.497890	0.596660	0.126370
O1031	O103	0.447830	0.633940	0.246810
O1041	O104	0.585250	0.643830	0.220140
O1051	O105	0.669040	0.676040	0.042430
O1061	O106	0.543050	0.747030	0.057400
O1071	O107	0.640420	0.753670	0.152910
O1081	O108	0.659910	0.831070	0.044270
O1091	O109	0.751460	0.705810	0.455060
O1101	O110	0.522150	0.777560	0.212870
H161	H16	0.502000	0.774000	0.182000
O1111	O111	0.449720	0.864870	0.336370
H171	H17	0.468000	0.865000	0.369000
H181	H18	0.462000	0.910000	0.312000
O1121	O112	0.027420	0.600330	0.526150
H191	H19	0.058000	0.628000	0.540000
H201	H20	0.049000	0.553000	0.521000
Fe131	Fe13	0.766430	0.335040	0.457590
Fe141	Fe14	0.542220	0.164350	0.448790
Fe151	Fe15	0.053960	0.243990	0.293230
P251	P25	0.883600	0.240760	0.349920
P261	P26	0.695540	0.041040	0.458190
P271	P27	0.658330	0.272350	0.341070
P281	P28	0.647420	0.266080	0.564910
P291	P29	0.988010	0.092890	0.205040
P301	P30	0.873650	0.248580	0.072940
B131	B13	0.760400	0.162100	0.387800
B141	B14	0.761100	0.164700	0.522700
B151	B15	0.904600	0.233900	0.213830
O1131	O113	0.966820	0.221980	0.354260
O1141	O114	0.858600	0.310330	0.398020
O1151	O115	0.863170	0.265930	0.273780
O1161	O116	0.840060	0.159860	0.368560
O1171	O117	0.703490	0.949190	0.457020
O1181	O118	0.614900	0.068930	0.464150
O1191	O119	0.734390	0.076140	0.391560
O1201	O120	0.743140	0.075730	0.520040
O1211	O121	0.697480	0.345230	0.376250
O1221	O122	0.592150	0.241180	0.384340
O1231	O123	0.631530	0.296090	0.268070
O1241	O124	0.717210	0.201660	0.331560
O1251	O125	0.581620	0.222470	0.530750
O1261	O126	0.625360	0.296670	0.637800
O1271	O127	0.675890	0.339400	0.521060
O1281	O128	0.713250	0.203150	0.576510
O1291	O129	0.974340	0.005090	0.228840
O1301	O130	0.002110	0.096660	0.126370
O1311	O131	0.052170	0.133940	0.246810
O1321	O132	0.914750	0.143830	0.220140
O1331	O133	0.830960	0.176040	0.042430
O1341	O134	0.956950	0.247030	0.057400
O1351	O135	0.859580	0.253670	0.152910
O1361	O136	0.840090	0.331070	0.044270
O1371	O137	0.748540	0.205810	0.455060
O1381	O138	0.977850	0.277560	0.212870
H211	H21	0.998000	0.274000	0.182000
O1391	O139	0.050280	0.364870	0.336370
H221	H22	0.032000	0.365000	0.369000
H231	H23	0.038000	0.410000	0.312000
O1401	O140	0.472580	0.100330	0.526150
H241	H24	0.442000	0.128000	0.540000
H251	H25	0.451000	0.053000	0.521000
Fe161	Fe16	0.733570	0.664960	0.957590
Fe171	Fe17	0.957780	0.835650	0.948790
Fe181	Fe18	0.446040	0.756010	0.793230
P311	P31	0.616400	0.759240	0.849920
P321	P32	0.804460	0.958960	0.958190
P331	P33	0.841670	0.727650	0.841070
P341	P34	0.852580	0.733920	0.064910
P351	P35	0.511990	0.907110	0.705040
P361	P36	0.626350	0.751420	0.572940
B161	B16	0.739600	0.837900	0.887800
B171	B17	0.738900	0.835300	0.022700
B181	B18	0.595400	0.766100	0.713830
O1411	O141	0.533180	0.778020	0.854260
O1421	O142	0.641400	0.689670	0.898020
O1431	O143	0.636830	0.734070	0.773780
O1441	O144	0.659940	0.840140	0.868560
O1451	O145	0.796510	0.050810	0.957020
O1461	O146	0.885100	0.931070	0.964150
O1471	O147	0.765610	0.923860	0.891560
O1481	O148	0.756860	0.924270	0.020040
O1491	O149	0.802520	0.654770	0.876250
O1501	O150	0.907850	0.758820	0.884340
O1511	O151	0.868470	0.703910	0.768070
O1521	O152	0.782790	0.798340	0.831560
O1531	O153	0.918380	0.777530	0.030750
O1541	O154	0.874640	0.703330	0.137800
O1551	O155	0.824110	0.660600	0.021060
O1561	O156	0.786750	0.796850	0.076510
O1571	O157	0.525660	0.994910	0.728840
O1581	O158	0.497890	0.903340	0.626370
O1591	O159	0.447830	0.866060	0.746810
O1601	O160	0.585250	0.856170	0.720140
O1611	O161	0.669040	0.823960	0.542430
O1621	O162	0.543050	0.752970	0.557400
O1631	O163	0.640420	0.746330	0.652910
O1641	O164	0.659910	0.668930	0.544270
O1651	O165	0.751460	0.794190	0.955060
O1661	O166	0.522150	0.722440	0.712870
H261	H26	0.502000	0.726000	0.682000
O1671	O167	0.449720	0.635130	0.836370
H271	H27	0.468000	0.635000	0.869000
H281	H28	0.462000	0.590000	0.812000
O1681	O168	0.027420	0.899670	0.026150
H291	H29	0.058000	0.872000	0.040000
H301	H30	0.049000	0.947000	0.021000
Fe191	Fe19	0.233570	0.835040	0.042410
Fe201	Fe20	0.457780	0.664350	0.051210
Fe211	Fe21	0.946040	0.743990	0.206770
P371	P37	0.116400	0.740760	0.150080
P381	P38	0.304460	0.541040	0.041810
P391	P39	0.341670	0.772350	0.158930
P401	P40	0.352580	0.766080	0.935090
P411	P41	0.011990	0.592890	0.294960
P421	P42	0.126350	0.748580	0.427060
B191	B19	0.239600	0.662100	0.112200
B201	B20	0.238900	0.664700	0.977300
B211	B21	0.095400	0.733900	0.286170
O1691	O169	0.033180	0.721980	0.145740
O1701	O170	0.141400	0.810330	0.101980
O1711	O171	0.136830	0.765930	0.226220
O1721	O172	0.159940	0.659860	0.131440
O1731	O173	0.296510	0.449190	0.042980
O1741	O174	0.385100	0.568930	0.035850
O1751	O175	0.265610	0.576140	0.108440
O1761	O176	0.256860	0.575730	0.979960
O1771	O177	0.302520	0.845230	0.123750
O1781	O178	0.407850	0.741180	0.115660
O1791	O179	0.368470	0.796090	0.231930
O1801	O180	0.282790	0.701660	0.168440
O1811	O181	0.418380	0.722470	0.969250
O1821	O182	0.374640	0.796670	0.862200
O1831	O183	0.324110	0.839400	0.978940
O1841	O184	0.286750	0.703150	0.923490
O1851	O185	0.025660	0.505090	0.271160
O1861	O186	0.997890	0.596660	0.373630
O1871	O187	0.947830	0.633940	0.253190
O1881	O188	0.085250	0.643830	0.279860
O1891	O189	0.169040	0.676040	0.457570
O1901	O190	0.043050	0.747030	0.442600
O1911	O191	0.140420	0.753670	0.347090
O1921	O192	0.159910	0.831070	0.455730
O1931	O193	0.251460	0.705810	0.044940
O1941	O194	0.022150	0.777560	0.287130
H311	H31	0.002000	0.774000	0.318000
O1951	O195	0.949720	0.864870	0.163630
H321	H32	0.968000	0.865000	0.131000
H331	H33	0.962000	0.910000	0.188000
O1961	O196	0.527420	0.600330	0.973850
H341	H34	0.558000	0.628000	0.960000
H351	H35	0.549000	0.553000	0.979000
Fe221	Fe22	0.266430	0.164960	0.542410
Fe231	Fe23	0.042220	0.335650	0.551210
Fe241	Fe24	0.553960	0.256010	0.706770
P431	P43	0.383600	0.259240	0.650080
P441	P44	0.195540	0.458960	0.541810
P451	P45	0.158330	0.227650	0.658930
P461	P46	0.147420	0.233920	0.435090
P471	P47	0.488010	0.407110	0.794960
P481	P48	0.373650	0.251420	0.927060
B221	B22	0.260400	0.337900	0.612200
B231	B23	0.261100	0.335300	0.477300
B241	B24	0.404600	0.266100	0.786170
O1971	O197	0.466820	0.278020	0.645740
O1981	O198	0.358600	0.189670	0.601980
O1991	O199	0.363170	0.234070	0.726220
O2001	O200	0.340060	0.340140	0.631440
O2011	O201	0.203490	0.550810	0.542980
O2021	O202	0.114900	0.431070	0.535850
O2031	O203	0.234390	0.423860	0.608440
O2041	O204	0.243140	0.424270	0.479960
O2051	O205	0.197480	0.154770	0.623750
O2061	O206	0.092150	0.258820	0.615660
O2071	O207	0.131530	0.203910	0.731930
O2081	O208	0.217210	0.298340	0.668440
O2091	O209	0.081620	0.277530	0.469250
O2101	O210	0.125360	0.203330	0.362200
O2111	O211	0.175890	0.160600	0.478940
O2121	O212	0.213250	0.296850	0.423490
O2131	O213	0.474340	0.494910	0.771160
O2141	O214	0.502110	0.403340	0.873630
O2151	O215	0.552170	0.366060	0.753190
O2161	O216	0.414750	0.356170	0.779860
O2171	O217	0.330960	0.323960	0.957570
O2181	O218	0.456950	0.252970	0.942600
O2191	O219	0.359580	0.246330	0.847090
O2201	O220	0.340090	0.168930	0.955730
O2211	O221	0.248540	0.294190	0.544940
O2221	O222	0.477850	0.222440	0.787130
H361	H36	0.498000	0.226000	0.818000
O2231	O223	0.550280	0.135130	0.663630
H371	H37	0.532000	0.135000	0.631000
H381	H38	0.538000	0.090000	0.688000
O2241	O224	0.972580	0.399670	0.473850
H391	H39	0.942000	0.372000	0.460000
H401	H40	0.951000	0.447000	0.479000
