data_POSFIO_freeONLY_PM
_symmetry_space_group_name_H-M	'P1'
_cell_length_a	13.442500
_cell_length_b	14.420400
_cell_length_c	20.446900
_cell_angle_alpha	90.000000
_cell_angle_beta	108.168000
_cell_angle_gamma	90.000000
_symmetry_Int_Tables_number 1

loop_
_symmetry_equiv_pos_as_xyz
'x,y,z'

loop_
_atom_site_label
_atom_site_type_symbol
_atom_site_fract_x
_atom_site_fract_y
_atom_site_fract_z
Cu11	Cu1	0.719890	0.517150	0.487700
C11	C1	0.669900	0.334400	0.290000
H11	H1	0.717300	0.382100	0.292000
C21	C2	0.630500	0.283600	0.229900
H21	H2	0.651900	0.297100	0.191900
C31	C3	0.559100	0.212400	0.226300
C41	C4	0.529400	0.192100	0.283800
H31	H3	0.482400	0.144200	0.282100
C51	C5	0.569300	0.242700	0.343600
H41	H4	0.549100	0.228400	0.381900
C61	C6	0.639100	0.314700	0.346900
C71	C7	0.671900	0.375600	0.408900
C81	C8	0.509700	0.162800	0.160700
C91	C9	0.420500	0.111900	0.139100
H51	H5	0.377900	0.097200	0.165700
C101	C10	0.481400	0.118800	0.054100
H61	H6	0.489900	0.111400	0.011000
C111	C11	0.750900	0.684600	0.724700
H71	H7	0.802000	0.724200	0.718800
C121	C12	0.733900	0.680700	0.787900
H81	H8	0.775200	0.715700	0.824500
C131	C13	0.655100	0.624700	0.796700
C141	C14	0.594400	0.572300	0.741200
H91	H9	0.540100	0.535900	0.746300
C151	C15	0.614000	0.574100	0.679100
H101	H10	0.574400	0.537500	0.642900
C161	C16	0.693500	0.630800	0.670300
C171	C17	0.716500	0.628000	0.602800
C181	C18	0.634100	0.616400	0.862700
C191	C19	0.642800	0.639500	0.970800
H111	H11	0.662700	0.663400	0.015300
C201	C20	0.568300	0.557900	0.881200
H121	H12	0.525400	0.514200	0.852400
C211	C21	0.745500	0.568100	0.218300
H131	H13	0.688900	0.608600	0.205500
C221	C22	0.820500	0.576800	0.282800
H141	H14	0.812600	0.622000	0.313300
C231	C23	0.906400	0.518800	0.301800
C241	C24	0.915000	0.450700	0.256000
H151	H15	0.972300	0.411000	0.268100
C251	C25	0.839600	0.441200	0.193100
H161	H16	0.846100	0.394300	0.163400
C261	C26	0.754400	0.500100	0.173300
C271	C27	0.671300	0.487600	0.104500
C281	C28	0.988700	0.527000	0.368300
C291	C29	0.083300	0.491300	0.391700
H171	H17	0.110500	0.450500	0.366400
C301	C30	0.073800	0.577100	0.472900
H181	H18	0.091600	0.611400	0.513500
N11	N1	0.137100	0.519700	0.456100
N21	N2	0.574500	0.572500	0.948550
N31	N3	0.402900	0.085300	0.072100
N41	N4	0.547100	0.165000	0.106200
H191	H19	0.603900	0.191800	0.105500
N51	N5	0.679800	0.668800	0.920700
H201	H20	0.724300	0.712800	0.924200
N61	N6	0.977600	0.580400	0.423200
H211	H21	0.922500	0.609000	0.425100
O11	O1	0.729400	0.445600	0.407420
O21	O2	0.642700	0.358600	0.460010
O31	O3	0.685000	0.555100	0.568230
O41	O4	0.765600	0.692700	0.586700
O51	O5	0.597800	0.546800	0.088160
O61	O6	0.675800	0.421400	0.067500
Cu21	Cu2	0.280110	0.017150	0.012300
C311	C31	0.330100	0.834400	0.210000
H221	H22	0.282700	0.882100	0.208000
C321	C32	0.369500	0.783600	0.270100
H231	H23	0.348100	0.797100	0.308100
C331	C33	0.440900	0.712400	0.273700
C341	C34	0.470600	0.692100	0.216200
H241	H24	0.517600	0.644200	0.217900
C351	C35	0.430700	0.742700	0.156400
H251	H25	0.450900	0.728400	0.118100
C361	C36	0.360900	0.814700	0.153100
C371	C37	0.328100	0.875600	0.091100
C381	C38	0.490300	0.662800	0.339300
C391	C39	0.579500	0.611900	0.360900
H261	H26	0.622100	0.597200	0.334300
C401	C40	0.518600	0.618800	0.445900
H271	H27	0.510100	0.611400	0.489000
C411	C41	0.249100	0.184600	0.775300
H281	H28	0.198000	0.224200	0.781200
C421	C42	0.266100	0.180700	0.712100
H291	H29	0.224800	0.215700	0.675500
C431	C43	0.344900	0.124700	0.703300
C441	C44	0.405600	0.072300	0.758800
H301	H30	0.459900	0.035900	0.753700
C451	C45	0.386000	0.074100	0.820900
H311	H31	0.425600	0.037500	0.857100
C461	C46	0.306500	0.130800	0.829700
C471	C47	0.283500	0.128000	0.897200
C481	C48	0.365900	0.116400	0.637300
C491	C49	0.357200	0.139500	0.529200
H321	H32	0.337300	0.163400	0.484700
C501	C50	0.431700	0.057900	0.618800
H331	H33	0.474600	0.014200	0.647600
C511	C51	0.254500	0.068100	0.281700
H341	H34	0.311100	0.108600	0.294500
C521	C52	0.179500	0.076800	0.217200
H351	H35	0.187400	0.122000	0.186700
C531	C53	0.093600	0.018800	0.198200
C541	C54	0.085000	0.950700	0.244000
H361	H36	0.027700	0.911000	0.231900
C551	C55	0.160400	0.941200	0.306900
H371	H37	0.153900	0.894300	0.336600
C561	C56	0.245600	0.000100	0.326700
C571	C57	0.328700	0.987600	0.395500
C581	C58	0.011300	0.027000	0.131700
C591	C59	0.916700	0.991300	0.108300
H381	H38	0.889500	0.950500	0.133600
C601	C60	0.926200	0.077100	0.027100
H391	H39	0.908400	0.111400	0.986500
N71	N7	0.862900	0.019700	0.043900
N81	N8	0.425500	0.072500	0.551450
N91	N9	0.597100	0.585300	0.427900
N101	N10	0.452900	0.665000	0.393800
H401	H40	0.396100	0.691800	0.394500
N111	N11	0.320200	0.168800	0.579300
H411	H41	0.275700	0.212800	0.575800
N121	N12	0.022400	0.080400	0.076800
H421	H42	0.077500	0.109000	0.074900
O71	O7	0.270600	0.945600	0.092580
O81	O8	0.357300	0.858600	0.039990
O91	O9	0.315000	0.055100	0.931770
O101	O10	0.234400	0.192700	0.913300
O111	O11	0.402200	0.046800	0.411840
O121	O12	0.324200	0.921400	0.432500
Cu31	Cu3	0.280110	0.482850	0.512300
C611	C61	0.330100	0.665600	0.710000
H431	H43	0.282700	0.617900	0.708000
C621	C62	0.369500	0.716400	0.770100
H441	H44	0.348100	0.702900	0.808100
C631	C63	0.440900	0.787600	0.773700
C641	C64	0.470600	0.807900	0.716200
H451	H45	0.517600	0.855800	0.717900
C651	C65	0.430700	0.757300	0.656400
H461	H46	0.450900	0.771600	0.618100
C661	C66	0.360900	0.685300	0.653100
C671	C67	0.328100	0.624400	0.591100
C681	C68	0.490300	0.837200	0.839300
C691	C69	0.579500	0.888100	0.860900
H471	H47	0.622100	0.902800	0.834300
C701	C70	0.518600	0.881200	0.945900
H481	H48	0.510100	0.888600	0.989000
C711	C71	0.249100	0.315400	0.275300
H491	H49	0.198000	0.275800	0.281200
C721	C72	0.266100	0.319300	0.212100
H501	H50	0.224800	0.284300	0.175500
C731	C73	0.344900	0.375300	0.203300
C741	C74	0.405600	0.427700	0.258800
H511	H51	0.459900	0.464100	0.253700
C751	C75	0.386000	0.425900	0.320900
H521	H52	0.425600	0.462500	0.357100
C761	C76	0.306500	0.369200	0.329700
C771	C77	0.283500	0.372000	0.397200
C781	C78	0.365900	0.383600	0.137300
C791	C79	0.357200	0.360500	0.029200
H531	H53	0.337300	0.336600	0.984700
C801	C80	0.431700	0.442100	0.118800
H541	H54	0.474600	0.485800	0.147600
C811	C81	0.254500	0.431900	0.781700
H551	H55	0.311100	0.391400	0.794500
C821	C82	0.179500	0.423200	0.717200
H561	H56	0.187400	0.378000	0.686700
C831	C83	0.093600	0.481200	0.698200
C841	C84	0.085000	0.549300	0.744000
H571	H57	0.027700	0.589000	0.731900
C851	C85	0.160400	0.558800	0.806900
H581	H58	0.153900	0.605700	0.836600
C861	C86	0.245600	0.499900	0.826700
C871	C87	0.328700	0.512400	0.895500
C881	C88	0.011300	0.473000	0.631700
C891	C89	0.916700	0.508700	0.608300
H591	H59	0.889500	0.549500	0.633600
C901	C90	0.926200	0.422900	0.527100
H601	H60	0.908400	0.388600	0.486500
N131	N13	0.862900	0.480300	0.543900
N141	N14	0.425500	0.427500	0.051450
N151	N15	0.597100	0.914700	0.927900
N161	N16	0.452900	0.835000	0.893800
H611	H61	0.396100	0.808200	0.894500
N171	N17	0.320200	0.331200	0.079300
H621	H62	0.275700	0.287200	0.075800
N181	N18	0.022400	0.419600	0.576800
H631	H63	0.077500	0.391000	0.574900
O131	O13	0.270600	0.554400	0.592580
O141	O14	0.357300	0.641400	0.539990
O151	O15	0.315000	0.444900	0.431770
O161	O16	0.234400	0.307300	0.413300
O171	O17	0.402200	0.453200	0.911840
O181	O18	0.324200	0.578600	0.932500
Cu41	Cu4	0.719890	0.982850	0.987700
C911	C91	0.669900	0.165600	0.790000
H641	H64	0.717300	0.117900	0.792000
C921	C92	0.630500	0.216400	0.729900
H651	H65	0.651900	0.202900	0.691900
C931	C93	0.559100	0.287600	0.726300
C941	C94	0.529400	0.307900	0.783800
H661	H66	0.482400	0.355800	0.782100
C951	C95	0.569300	0.257300	0.843600
H671	H67	0.549100	0.271600	0.881900
C961	C96	0.639100	0.185300	0.846900
C971	C97	0.671900	0.124400	0.908900
C981	C98	0.509700	0.337200	0.660700
C991	C99	0.420500	0.388100	0.639100
H681	H68	0.377900	0.402800	0.665700
C1001	C100	0.481400	0.381200	0.554100
H691	H69	0.489900	0.388600	0.511000
C1011	C101	0.750900	0.815400	0.224700
H701	H70	0.802000	0.775800	0.218800
C1021	C102	0.733900	0.819300	0.287900
H711	H71	0.775200	0.784300	0.324500
C1031	C103	0.655100	0.875300	0.296700
C1041	C104	0.594400	0.927700	0.241200
H721	H72	0.540100	0.964100	0.246300
C1051	C105	0.614000	0.925900	0.179100
H731	H73	0.574400	0.962500	0.142900
C1061	C106	0.693500	0.869200	0.170300
C1071	C107	0.716500	0.872000	0.102800
C1081	C108	0.634100	0.883600	0.362700
C1091	C109	0.642800	0.860500	0.470800
H741	H74	0.662700	0.836600	0.515300
C1101	C110	0.568300	0.942100	0.381200
H751	H75	0.525400	0.985800	0.352400
C1111	C111	0.745500	0.931900	0.718300
H761	H76	0.688900	0.891400	0.705500
C1121	C112	0.820500	0.923200	0.782800
H771	H77	0.812600	0.878000	0.813300
C1131	C113	0.906400	0.981200	0.801800
C1141	C114	0.915000	0.049300	0.756000
H781	H78	0.972300	0.089000	0.768100
C1151	C115	0.839600	0.058800	0.693100
H791	H79	0.846100	0.105700	0.663400
C1161	C116	0.754400	0.999900	0.673300
C1171	C117	0.671300	0.012400	0.604500
C1181	C118	0.988700	0.973000	0.868300
C1191	C119	0.083300	0.008700	0.891700
H801	H80	0.110500	0.049500	0.866400
C1201	C120	0.073800	0.922900	0.972900
H811	H81	0.091600	0.888600	0.013500
N191	N19	0.137100	0.980300	0.956100
N201	N20	0.574500	0.927500	0.448550
N211	N21	0.402900	0.414700	0.572100
N221	N22	0.547100	0.335000	0.606200
H821	H82	0.603900	0.308200	0.605500
N231	N23	0.679800	0.831200	0.420700
H831	H83	0.724300	0.787200	0.424200
N241	N24	0.977600	0.919600	0.923200
H841	H84	0.922500	0.891000	0.925100
O191	O19	0.729400	0.054400	0.907420
O201	O20	0.642700	0.141400	0.960010
O211	O21	0.685000	0.944900	0.068230
O221	O22	0.765600	0.807300	0.086700
O231	O23	0.597800	0.953200	0.588160
O241	O24	0.675800	0.078600	0.567500
Cu51	Cu5	0.500000	0.500000	0.000000
Cu61	Cu6	0.500000	0.000000	0.500000
