data_POTNET_freeONLY_PM
_symmetry_space_group_name_H-M	'P1'
_cell_length_a	10.764300
_cell_length_b	11.190300
_cell_length_c	11.880500
_cell_angle_alpha	101.006000
_cell_angle_beta	110.549000
_cell_angle_gamma	99.779000
_symmetry_Int_Tables_number 1

loop_
_symmetry_equiv_pos_as_xyz
'x,y,z'

loop_
_atom_site_label
_atom_site_type_symbol
_atom_site_fract_x
_atom_site_fract_y
_atom_site_fract_z
Cu11	Cu1	0.437820	0.614230	0.789520
Cu21	Cu2	0.562180	0.385770	0.210480
Cu31	Cu3	0.355960	0.489300	0.988010
Cu41	Cu4	0.644040	0.510700	0.011990
Cu51	Cu5	0.500000	0.000000	0.000000
H11	H1	0.355300	0.129700	0.034300
H21	H2	0.750600	0.103800	0.396100
H31	H3	0.167300	0.259400	0.493900
H41	H4	0.770600	0.820700	0.740300
H51	H5	0.832700	0.740600	0.506100
H61	H6	0.249400	0.896200	0.603900
H71	H7	0.394800	0.078100	0.134600
H81	H8	0.974800	0.588700	0.900400
H91	H9	0.891000	0.116400	0.597200
H101	H10	0.852000	0.173200	0.250500
H111	H11	0.644700	0.870300	0.965700
H121	H12	0.025200	0.411300	0.099600
H131	H13	0.605200	0.921900	0.865400
H141	H14	0.109000	0.883600	0.402800
H151	H15	0.148000	0.826800	0.749500
H161	H16	0.229400	0.179300	0.259700
C11	C1	0.924700	0.206000	0.230800
C21	C2	0.029700	0.349600	0.142300
C31	C3	0.798300	0.357100	0.143000
C41	C4	0.704800	0.914900	0.326800
C51	C5	0.733700	0.641600	0.851100
C61	C6	0.233400	0.969500	0.582400
C71	C7	0.850600	0.038600	0.538000
C81	C8	0.874200	0.929000	0.569900
C91	C9	0.145900	0.305100	0.177200
C101	C10	0.151700	0.209800	0.236300
C111	C11	0.732500	0.805900	0.360500
C121	C12	0.039400	0.161100	0.259800
C131	C13	0.970300	0.650400	0.857700
C141	C14	0.919100	0.302600	0.170700
C151	C15	0.149400	0.961400	0.462000
C161	C16	0.267500	0.194100	0.639500
C171	C17	0.960600	0.838900	0.740200
C181	C18	0.201700	0.642900	0.857000
C191	C19	0.075300	0.794000	0.769200
C201	C20	0.848300	0.790200	0.763700
C211	C21	0.316200	0.323700	0.731900
C221	C22	0.854100	0.694900	0.822800
C231	C23	0.295200	0.085100	0.673200
C241	C24	0.766600	0.030500	0.417600
C251	C25	0.816300	0.813300	0.483200
C261	C26	0.125800	0.071000	0.430100
C271	C27	0.683800	0.676300	0.268100
C281	C28	0.183700	0.186700	0.516800
C291	C29	0.609900	0.910700	0.198200
C301	C30	0.080900	0.697400	0.829300
C311	C31	0.266300	0.358400	0.148900
C321	C32	0.390100	0.089300	0.801800
O11	O1	0.378500	0.641300	0.621500
O21	O2	0.603400	0.591600	0.283600
O31	O3	0.498800	0.599700	0.957900
O41	O4	0.729500	0.343300	0.207800
O51	O5	0.754400	0.576700	0.927400
O61	O6	0.962300	0.944500	0.691500
O71	O7	0.383700	0.984800	0.829700
O81	O8	0.376300	0.332600	0.204700
O91	O9	0.222800	0.587100	0.941400
O101	O10	0.634300	0.937600	0.944500
O111	O11	0.526800	0.809700	0.125300
O121	O12	0.270500	0.656700	0.792200
O131	O13	0.365700	0.062400	0.055500
O141	O14	0.616300	0.015200	0.170300
O151	O15	0.245600	0.423300	0.072600
O161	O16	0.262600	0.338600	0.810000
O171	O17	0.396600	0.408400	0.716400
O181	O18	0.777200	0.412900	0.058600
O191	O19	0.473200	0.190300	0.874700
O201	O20	0.621500	0.358700	0.378500
O211	O21	0.037700	0.055500	0.308500
O221	O22	0.737400	0.661400	0.190000
O231	O23	0.501200	0.400300	0.042100
O241	O24	0.623700	0.667400	0.795300
