data_POWBIO_freeONLY_PM
_symmetry_space_group_name_H-M	'P1'
_cell_length_a	11.322000
_cell_length_b	12.139000
_cell_length_c	23.311000
_cell_angle_alpha	83.586000
_cell_angle_beta	81.753000
_cell_angle_gamma	71.169000
_symmetry_Int_Tables_number 1

loop_
_symmetry_equiv_pos_as_xyz
'x,y,z'

loop_
_atom_site_label
_atom_site_type_symbol
_atom_site_fract_x
_atom_site_fract_y
_atom_site_fract_z
Ce11	Ce1	0.256180	0.236420	0.758830
Ce21	Ce2	0.743820	0.763580	0.241170
Cu11	Cu1	0.691900	0.630300	0.472170
Cu21	Cu2	0.892320	0.255780	0.245160
Cu31	Cu3	0.107680	0.744220	0.754840
Cu41	Cu4	0.308100	0.369700	0.527830
Cu51	Cu5	0.500000	0.000000	0.000000
Si11	Si1	0.869300	0.286700	0.737600
Si21	Si2	0.130700	0.713300	0.262400
H11	H1	0.253100	0.110700	0.388200
H21	H2	0.248600	0.895500	0.482900
H31	H3	0.249600	0.966100	0.963600
H41	H4	0.914700	0.170500	0.008800
H51	H5	0.678400	0.786500	0.068300
H61	H6	0.061200	0.368500	0.485200
H71	H7	0.746900	0.889300	0.611800
H81	H8	0.085300	0.829500	0.991200
H91	H9	0.926500	0.760800	0.672600
H101	H10	0.279700	0.753200	0.835200
H111	H11	0.589000	0.738500	0.951200
H121	H12	0.321600	0.213500	0.931700
H131	H13	0.904500	0.708200	0.042200
H141	H14	0.073500	0.239200	0.327400
H151	H15	0.283300	0.739400	0.648000
H161	H16	0.720300	0.246800	0.164800
H171	H17	0.925700	0.770600	0.860500
H181	H18	0.095500	0.291800	0.957800
H191	H19	0.531900	0.161300	0.570100
H201	H20	0.538800	0.386500	0.435600
H211	H21	0.753000	0.939200	0.916700
H221	H22	0.411000	0.261500	0.048800
H231	H23	0.938800	0.631500	0.514800
H241	H24	0.074300	0.229400	0.139500
H251	H25	0.108300	0.741900	0.511900
H261	H26	0.450300	0.649300	0.918000
H271	H27	0.468100	0.838700	0.429900
H281	H28	0.603200	0.844000	0.556600
H291	H29	0.549700	0.350700	0.082000
H301	H30	0.461200	0.613500	0.564400
H311	H31	0.247000	0.060800	0.083300
H321	H32	0.750400	0.033900	0.036400
H331	H33	0.751400	0.104500	0.517100
H341	H34	0.716700	0.260600	0.352000
H351	H35	0.396800	0.156000	0.443400
H361	H36	0.891700	0.258100	0.488100
W11	W1	0.647370	0.567040	0.731140
W21	W2	0.033310	0.870310	0.388760
W31	W3	0.441120	0.667860	0.282200
W41	W4	0.785200	0.033530	0.719010
W51	W5	0.914850	0.988210	0.264600
W61	W6	0.930430	0.616780	0.367150
W71	W7	0.319110	0.814990	0.144620
W81	W8	0.260550	0.575600	0.391770
W91	W9	0.069570	0.383220	0.632850
W101	W10	0.986600	0.158150	0.868620
W111	W11	0.763030	0.420920	0.869390
W121	W12	0.352630	0.432960	0.268860
W131	W13	0.680890	0.185010	0.855380
W141	W14	0.214800	0.966470	0.280990
W151	W15	0.018650	0.485950	0.245560
W161	W16	0.236970	0.579080	0.130610
W171	W17	0.558880	0.332140	0.717800
W181	W18	0.739450	0.424400	0.608230
W191	W19	0.085150	0.011790	0.735400
W201	W20	0.966690	0.129690	0.611240
W211	W21	0.981350	0.514050	0.754440
W221	W22	0.013400	0.841850	0.131380
C11	C1	0.996500	0.775700	0.874600
C21	C2	0.789900	0.256500	0.367000
C31	C3	0.311000	0.194000	0.445100
C41	C4	0.238200	0.107900	0.048900
C51	C5	0.152900	0.237000	0.979800
C61	C6	0.211500	0.743700	0.575000
C71	C7	0.768100	0.832000	0.585200
C81	C8	0.107200	0.746100	0.551600
C91	C9	0.892800	0.253900	0.448400
C101	C10	0.000200	0.244300	0.352200
C111	C11	0.497000	0.226000	0.050600
C121	C12	0.441300	0.802000	0.464100
C131	C13	0.503000	0.774000	0.949400
C141	C14	0.872400	0.690400	0.531900
C151	C15	0.799600	0.208600	0.083500
C161	C16	0.988700	0.798900	0.931500
C171	C17	0.210100	0.743500	0.633000
C181	C18	0.003500	0.224300	0.125400
C191	C19	0.090500	0.810100	0.953200
C201	C20	0.909500	0.189900	0.046800
C211	C21	0.573000	0.276000	0.069000
C221	C22	0.277500	0.192000	0.965500
C231	C23	0.795400	0.233800	0.140500
C241	C24	0.000000	0.754900	0.589600
C251	C25	0.722500	0.808000	0.034500
C261	C26	0.788500	0.256300	0.425000
C271	C27	0.200400	0.791400	0.916500
C281	C28	0.317000	0.832000	0.492400
C291	C29	0.231900	0.168000	0.414800
C301	C30	0.847100	0.763000	0.020200
C311	C31	0.682500	0.100000	0.043700
C321	C32	0.127600	0.309600	0.468100
C331	C33	0.317500	0.900000	0.956300
C341	C34	0.999800	0.755700	0.647800
C351	C35	0.011300	0.201100	0.068500
C361	C36	0.204600	0.766200	0.859500
C371	C37	0.558700	0.198000	0.535900
C381	C38	0.761800	0.892100	0.951100
C391	C39	0.427000	0.724000	0.931000
C401	C40	0.562900	0.322600	0.462100
C411	C41	0.000000	0.245100	0.410400
C421	C42	0.689000	0.806000	0.554900
C431	C43	0.683000	0.168000	0.507600
C441	C44	0.437100	0.677400	0.537900
N11	N1	0.884300	0.759600	0.569500
N21	N2	0.102900	0.760100	0.838800
N31	N3	0.246300	0.283900	0.478400
N41	N4	0.871600	0.815500	0.965700
N51	N5	0.436200	0.886200	0.965500
N61	N6	0.484300	0.289800	0.504500
N71	N7	0.897100	0.239900	0.161200
N81	N8	0.310600	0.802700	0.935100
N91	N9	0.689400	0.197300	0.064900
N101	N10	0.893600	0.251100	0.330700
N111	N11	0.115700	0.240400	0.430500
N121	N12	0.128400	0.184500	0.034300
N131	N13	0.668700	0.891200	0.992400
N141	N14	0.563800	0.113800	0.034500
N151	N15	0.106400	0.748900	0.669300
N161	N16	0.515700	0.710200	0.495500
N171	N17	0.320300	0.748900	0.536600
N181	N18	0.753700	0.716100	0.521600
N191	N19	0.679700	0.251100	0.463400
N201	N20	0.331300	0.108800	0.007600
O11	O1	0.569800	0.131400	0.896600
O21	O2	0.271100	0.588000	0.758100
O31	O3	0.892500	0.298600	0.906000
O41	O4	0.915000	0.159200	0.711300
O51	O5	0.653800	0.179400	0.701200
O61	O6	0.430200	0.868600	0.103400
O71	O7	0.823600	0.264200	0.597800
O81	O8	0.739000	0.076400	0.797200
O91	O9	0.836900	0.269400	0.806900
O101	O10	0.384000	0.089900	0.816800
O111	O11	0.318900	0.309500	0.838500
O121	O12	0.180100	0.882100	0.108600
O131	O13	0.103700	0.214600	0.830200
O141	O14	0.360900	0.429700	0.593900
O151	O15	0.663200	0.502500	0.810300
O161	O16	0.193000	0.870000	0.742600
O171	O17	0.985000	0.913400	0.456500
O181	O18	0.850200	0.045500	0.638600
O191	O19	0.890500	0.444900	0.611500
O201	O20	0.135300	0.432000	0.566400
O211	O21	0.013200	0.348700	0.232900
O221	O22	0.447700	0.294000	0.258400
O231	O23	0.176400	0.735800	0.402200
O241	O24	0.585200	0.382500	0.637900
O251	O25	0.021300	0.650300	0.279600
O261	O26	0.015000	0.086600	0.543500
O271	O27	0.939500	0.940100	0.736400
O281	O28	0.346600	0.670300	0.108100
O291	O29	0.653400	0.329700	0.891900
O301	O30	0.978700	0.349700	0.720400
O311	O31	0.163100	0.730600	0.193100
O321	O32	0.030200	0.521400	0.671600
O331	O33	0.707400	0.934600	0.717000
O341	O34	0.134800	0.425900	0.768300
O351	O35	0.986800	0.651300	0.767100
O361	O36	0.819900	0.117900	0.891400
O371	O37	0.180300	0.101900	0.731200
O381	O38	0.728900	0.412000	0.241900
O391	O39	0.942400	0.925300	0.074200
O401	O40	0.639100	0.570300	0.406100
O411	O41	0.284800	0.483000	0.078100
O421	O42	0.655100	0.565400	0.648700
O431	O43	0.107500	0.701400	0.094000
O441	O44	0.616000	0.910100	0.183200
O451	O45	0.819700	0.898100	0.268800
O461	O46	0.744600	0.368100	0.708600
O471	O47	0.104700	0.527700	0.176500
O481	O48	0.261000	0.923600	0.202800
O491	O49	0.060500	0.059900	0.263600
O501	O50	0.109500	0.555100	0.388500
O511	O51	0.208200	0.312800	0.667000
O521	O52	0.296200	0.523600	0.461600
O531	O53	0.947200	0.759800	0.385800
O541	O54	0.982900	0.956500	0.186800
O551	O55	0.017100	0.043500	0.813200
O561	O56	0.194100	0.424700	0.270500
O571	O57	0.417400	0.714200	0.204300
O581	O58	0.595500	0.671500	0.280300
O591	O59	0.087300	0.014200	0.652600
O601	O60	0.715200	0.517000	0.921900
O611	O61	0.344900	0.434600	0.351300
O621	O62	0.791800	0.687200	0.333000
O631	O63	0.895300	0.472300	0.823500
O641	O64	0.292600	0.065400	0.283000
O651	O65	0.255400	0.631900	0.291400
O661	O66	0.969800	0.478600	0.328400
O671	O67	0.085000	0.840800	0.288700
O681	O68	0.864700	0.568000	0.433600
O691	O69	0.336800	0.497500	0.189700
O701	O70	0.582600	0.285800	0.795700
O711	O71	0.576800	0.894800	0.304800
O721	O72	0.681100	0.690500	0.161500
O731	O73	0.483300	0.508800	0.264200
O741	O74	0.807000	0.130000	0.257400
O751	O75	0.057600	0.074700	0.925800
O761	O76	0.896300	0.785400	0.169800
O771	O77	0.912700	0.985800	0.347400
O781	O78	0.516700	0.491200	0.735800
O791	O79	0.404500	0.328500	0.719700
O801	O80	0.865200	0.574100	0.231700
O811	O81	0.346200	0.820600	0.298800
O821	O82	0.423200	0.105200	0.695200
O831	O83	0.149800	0.954500	0.361400
O841	O84	0.703800	0.476400	0.538400
O851	O85	0.052800	0.240200	0.614200
O861	O86	0.414800	0.617500	0.362100
O871	O87	0.805900	0.575300	0.729500
O881	O88	0.552300	0.706000	0.741600
