data_POXHOA_freeONLY_PM
_symmetry_space_group_name_H-M	'P1'
_cell_length_a	9.126200
_cell_length_b	9.679800
_cell_length_c	22.273300
_cell_angle_alpha	90.000000
_cell_angle_beta	90.000000
_cell_angle_gamma	117.872000
_symmetry_Int_Tables_number 1

loop_
_symmetry_equiv_pos_as_xyz
'x,y,z'

loop_
_atom_site_label
_atom_site_type_symbol
_atom_site_fract_x
_atom_site_fract_y
_atom_site_fract_z
Dy11	Dy1	0.618980	0.354990	0.008330
Dy21	Dy2	0.881020	0.645010	0.508330
Dy31	Dy3	0.381020	0.645010	0.991670
Dy41	Dy4	0.118980	0.354990	0.491670
Ag11	Ag1	0.012590	0.680190	0.851870
Ag21	Ag2	0.487410	0.319810	0.351870
Ag31	Ag3	0.987410	0.319810	0.148130
Ag41	Ag4	0.512590	0.680190	0.648130
H11	H1	0.944700	0.226500	0.928300
H21	H2	0.745000	0.036700	0.868300
H31	H3	0.776400	0.823600	0.840500
H41	H4	0.183300	0.972100	0.934300
H51	H5	0.987000	0.639400	0.716500
H61	H6	0.101800	0.309700	0.660000
H71	H7	0.138300	0.263300	0.759900
H81	H8	0.109700	0.412900	0.833700
H91	H9	0.555300	0.773500	0.428300
H101	H10	0.755000	0.963300	0.368300
H111	H11	0.723600	0.176400	0.340500
H121	H12	0.316700	0.027900	0.434300
H131	H13	0.513000	0.360600	0.216500
H141	H14	0.398200	0.690300	0.160000
H151	H15	0.361700	0.736700	0.259900
H161	H16	0.390300	0.587100	0.333700
H171	H17	0.055300	0.773500	0.071700
H181	H18	0.255000	0.963300	0.131700
H191	H19	0.223600	0.176400	0.159500
H201	H20	0.816700	0.027900	0.065700
H211	H21	0.013000	0.360600	0.283500
H221	H22	0.898200	0.690300	0.340000
H231	H23	0.861700	0.736700	0.240100
H241	H24	0.890300	0.587100	0.166300
H251	H25	0.444700	0.226500	0.571700
H261	H26	0.245000	0.036700	0.631700
H271	H27	0.276400	0.823600	0.659500
H281	H28	0.683300	0.972100	0.565700
H291	H29	0.487000	0.639400	0.783500
H301	H30	0.601800	0.309700	0.840000
H311	H31	0.638300	0.263300	0.740100
H321	H32	0.609700	0.412900	0.666300
C11	C1	0.223900	0.245200	0.974200
C21	C2	0.087500	0.119300	0.937500
C31	C3	0.954100	0.138200	0.917500
C41	C4	0.836000	0.026300	0.881600
C51	C5	0.855000	0.898300	0.865600
C61	C6	0.095400	0.986600	0.920500
C71	C7	0.019300	0.563500	0.725000
C81	C8	0.039700	0.481100	0.677500
C91	C9	0.086400	0.367100	0.690500
C101	C10	0.109600	0.340800	0.749900
C111	C11	0.090100	0.429500	0.794100
C121	C12	0.009800	0.517100	0.614900
C131	C13	0.508500	0.008200	0.965500
C141	C14	0.998400	0.520900	0.966800
C151	C15	0.276100	0.754800	0.474200
C161	C16	0.412500	0.880700	0.437500
C171	C17	0.545900	0.861800	0.417500
C181	C18	0.664000	0.973700	0.381600
C191	C19	0.645000	0.101700	0.365600
C201	C20	0.404600	0.013400	0.420500
C211	C21	0.480700	0.436500	0.225000
C221	C22	0.460300	0.518900	0.177500
C231	C23	0.413600	0.632900	0.190500
C241	C24	0.390400	0.659200	0.249900
C251	C25	0.409900	0.570500	0.294100
C261	C26	0.490200	0.482900	0.114900
C271	C27	0.991500	0.991800	0.465500
C281	C28	0.501600	0.479100	0.466800
C291	C29	0.776100	0.754800	0.025800
C301	C30	0.912500	0.880700	0.062500
C311	C31	0.045900	0.861800	0.082500
C321	C32	0.164000	0.973700	0.118400
C331	C33	0.145000	0.101700	0.134400
C341	C34	0.904600	0.013400	0.079500
C351	C35	0.980700	0.436500	0.275000
C361	C36	0.960300	0.518900	0.322500
C371	C37	0.913600	0.632900	0.309500
C381	C38	0.890400	0.659200	0.250100
C391	C39	0.909900	0.570500	0.205900
C401	C40	0.990200	0.482900	0.385100
C411	C41	0.491500	0.991800	0.034500
C421	C42	0.001600	0.479100	0.033200
C431	C43	0.723900	0.245200	0.525800
C441	C44	0.587500	0.119300	0.562500
C451	C45	0.454100	0.138200	0.582500
C461	C46	0.336000	0.026300	0.618400
C471	C47	0.355000	0.898300	0.634400
C481	C48	0.595400	0.986600	0.579500
C491	C49	0.519300	0.563500	0.775000
C501	C50	0.539700	0.481100	0.822500
C511	C51	0.586400	0.367100	0.809500
C521	C52	0.609600	0.340800	0.750100
C531	C53	0.590100	0.429500	0.705900
C541	C54	0.509800	0.517100	0.885100
C551	C55	0.008500	0.008200	0.534500
C561	C56	0.498400	0.520900	0.533200
N11	N1	0.981500	0.876500	0.884670
N21	N2	0.043800	0.539400	0.782290
N31	N3	0.518500	0.123500	0.384670
N41	N4	0.456200	0.460600	0.282290
N51	N5	0.018500	0.123500	0.115330
N61	N6	0.956200	0.460600	0.217710
N71	N7	0.481500	0.876500	0.615330
N81	N8	0.543800	0.539400	0.717710
O11	O1	0.327100	0.212000	0.998640
O21	O2	0.222400	0.373100	0.975550
O31	O3	0.948200	0.607900	0.607490
O41	O4	0.047800	0.453700	0.572810
O51	O5	0.133700	0.615600	0.943600
O61	O6	0.860700	0.457500	0.940940
O71	O7	0.578500	0.143500	0.944460
O81	O8	0.450500	0.882700	0.936280
O91	O9	0.172900	0.788000	0.498640
O101	O10	0.277600	0.626900	0.475550
O111	O11	0.551800	0.392100	0.107490
O121	O12	0.452200	0.546300	0.072810
O131	O13	0.366300	0.384400	0.443600
O141	O14	0.639300	0.542500	0.440940
O151	O15	0.921500	0.856500	0.444460
O161	O16	0.049500	0.117300	0.436280
O171	O17	0.672900	0.788000	0.001360
O181	O18	0.777600	0.626900	0.024450
O191	O19	0.051800	0.392100	0.392510
O201	O20	0.952200	0.546300	0.427190
O211	O21	0.866300	0.384400	0.056400
O221	O22	0.139300	0.542500	0.059060
O231	O23	0.421500	0.856500	0.055540
O241	O24	0.549500	0.117300	0.063720
O251	O25	0.827100	0.212000	0.501360
O261	O26	0.722400	0.373100	0.524450
O271	O27	0.448200	0.607900	0.892510
O281	O28	0.547800	0.453700	0.927190
O291	O29	0.633700	0.615600	0.556400
O301	O30	0.360700	0.457500	0.559060
O311	O31	0.078500	0.143500	0.555540
O321	O32	0.950500	0.882700	0.563720
