data_POYPAW_freeONLY_PM
_symmetry_space_group_name_H-M	'P1'
_cell_length_a	23.901100
_cell_length_b	34.639500
_cell_length_c	13.455300
_cell_angle_alpha	90.000000
_cell_angle_beta	90.000000
_cell_angle_gamma	90.000000
_symmetry_Int_Tables_number 1

loop_
_symmetry_equiv_pos_as_xyz
'x,y,z'

loop_
_atom_site_label
_atom_site_type_symbol
_atom_site_fract_x
_atom_site_fract_y
_atom_site_fract_z
C11	C1	0.305080	0.439550	0.577350
H11	H1	0.328200	0.454300	0.536900
C21	C2	0.313410	0.434170	0.681090
H21	H2	0.342100	0.444500	0.719700
C31	C3	0.271120	0.410960	0.712510
H31	H3	0.265400	0.402300	0.777100
C41	C4	0.237250	0.402370	0.628660
C51	C5	0.189370	0.378740	0.626000
C61	C6	0.158520	0.368490	0.543530
C71	C7	0.108210	0.345860	0.540090
H41	H4	0.090000	0.335000	0.594300
C81	C8	0.091870	0.343190	0.442490
H51	H5	0.061000	0.330000	0.417500
C91	C9	0.131850	0.364660	0.387990
H61	H6	0.130600	0.368000	0.319400
C101	C10	0.169240	0.363750	0.723740
C111	C11	0.153930	0.389260	0.799380
H71	H7	0.156900	0.415700	0.788600
C121	C12	0.134370	0.376060	0.890210
H81	H8	0.124000	0.393400	0.939800
C131	C13	0.130550	0.336460	0.905810
C141	C14	0.145510	0.310320	0.831990
H91	H9	0.142900	0.283900	0.843300
C151	C15	0.164380	0.324300	0.740980
H101	H10	0.173900	0.307000	0.690900
C161	C16	0.115640	0.338670	0.092220
H111	H11	0.134100	0.361400	0.108400
C171	C17	0.088670	0.314700	0.154300
H121	H12	0.085900	0.318300	0.222600
C181	C18	0.079610	0.289340	0.010310
H131	H13	0.069800	0.272700	0.958900
C191	C19	0.177460	0.142550	0.920870
H141	H14	0.176800	0.139000	0.989400
C201	C20	0.143890	0.170030	0.871300
H151	H15	0.118500	0.187200	0.899600
C211	C21	0.156810	0.165920	0.772500
H161	H16	0.141700	0.179900	0.720000
C221	C22	0.197840	0.136190	0.765750
C231	C23	0.222180	0.121720	0.678800
C241	C24	0.266360	0.094840	0.672960
C251	C25	0.287940	0.077920	0.584390
H171	H17	0.274800	0.081800	0.520100
C261	C26	0.331830	0.054740	0.611950
H181	H18	0.354400	0.040000	0.570500
C271	C27	0.335550	0.057920	0.715650
H191	H19	0.362300	0.045200	0.753700
C281	C28	0.199550	0.135650	0.582490
C291	C29	0.144390	0.128260	0.556600
H201	H20	0.121100	0.115500	0.601300
C301	C30	0.123410	0.139690	0.464300
H211	H21	0.087000	0.133600	0.445900
C311	C31	0.157520	0.160000	0.401450
C321	C32	0.212130	0.167870	0.425300
H221	H22	0.235000	0.181200	0.381000
C331	C33	0.232730	0.155750	0.515990
H231	H23	0.269600	0.161200	0.532700
C341	C34	0.161860	0.178130	0.218970
H241	H24	0.198600	0.171600	0.203900
C351	C35	0.123660	0.193930	0.157800
H251	H25	0.130100	0.200200	0.091600
C361	C36	0.082520	0.187680	0.297990
H261	H26	0.056200	0.188800	0.348800
C371	C37	0.124840	0.465830	0.468790
H271	H27	0.106700	0.442400	0.479500
C381	C38	0.332170	0.466300	0.316500
H281	H28	0.349300	0.442900	0.301000
N11	N1	0.259780	0.420730	0.545510
N21	N2	0.171430	0.379510	0.446200
N31	N3	0.110030	0.322140	0.998500
N41	N4	0.065840	0.284210	0.103820
N51	N5	0.209710	0.122440	0.861180
N61	N6	0.296860	0.081060	0.753680
N71	N7	0.134790	0.173700	0.309000
N81	N8	0.073400	0.199550	0.207020
N91	N9	0.281630	0.465780	0.359920
N101	N10	0.177630	0.465910	0.436080
Ni11	Ni1	0.230960	0.417060	0.400970
C391	C39	0.805080	0.939550	0.077350
H291	H29	0.828200	0.954300	0.036900
C401	C40	0.813410	0.934170	0.181090
H301	H30	0.842100	0.944500	0.219700
C411	C41	0.771120	0.910960	0.212510
H311	H31	0.765400	0.902300	0.277100
C421	C42	0.737250	0.902370	0.128660
C431	C43	0.689370	0.878740	0.126000
C441	C44	0.658520	0.868490	0.043530
C451	C45	0.608210	0.845860	0.040090
H321	H32	0.590000	0.835000	0.094300
C461	C46	0.591870	0.843190	0.942490
H331	H33	0.561000	0.830000	0.917500
C471	C47	0.631850	0.864660	0.887990
H341	H34	0.630600	0.868000	0.819400
C481	C48	0.669240	0.863750	0.223740
C491	C49	0.653930	0.889260	0.299380
H351	H35	0.656900	0.915700	0.288600
C501	C50	0.634370	0.876060	0.390210
H361	H36	0.624000	0.893400	0.439800
C511	C51	0.630550	0.836460	0.405810
C521	C52	0.645510	0.810320	0.331990
H371	H37	0.642900	0.783900	0.343300
C531	C53	0.664380	0.824300	0.240980
H381	H38	0.673900	0.807000	0.190900
C541	C54	0.615640	0.838670	0.592220
H391	H39	0.634100	0.861400	0.608400
C551	C55	0.588670	0.814700	0.654300
H401	H40	0.585900	0.818300	0.722600
C561	C56	0.579610	0.789340	0.510310
H411	H41	0.569800	0.772700	0.458900
C571	C57	0.677460	0.642550	0.420870
H421	H42	0.676800	0.639000	0.489400
C581	C58	0.643890	0.670030	0.371300
H431	H43	0.618500	0.687200	0.399600
C591	C59	0.656810	0.665920	0.272500
H441	H44	0.641700	0.679900	0.220000
C601	C60	0.697840	0.636190	0.265750
C611	C61	0.722180	0.621720	0.178800
C621	C62	0.766360	0.594840	0.172960
C631	C63	0.787940	0.577920	0.084390
H451	H45	0.774800	0.581800	0.020100
C641	C64	0.831830	0.554740	0.111950
H461	H46	0.854400	0.540000	0.070500
C651	C65	0.835550	0.557920	0.215650
H471	H47	0.862300	0.545200	0.253700
C661	C66	0.699550	0.635650	0.082490
C671	C67	0.644390	0.628260	0.056600
H481	H48	0.621100	0.615500	0.101300
C681	C68	0.623410	0.639690	0.964300
H491	H49	0.587000	0.633600	0.945900
C691	C69	0.657520	0.660000	0.901450
C701	C70	0.712130	0.667870	0.925300
H501	H50	0.735000	0.681200	0.881000
C711	C71	0.732730	0.655750	0.015990
H511	H51	0.769600	0.661200	0.032700
C721	C72	0.661860	0.678130	0.718970
H521	H52	0.698600	0.671600	0.703900
C731	C73	0.623660	0.693930	0.657800
H531	H53	0.630100	0.700200	0.591600
C741	C74	0.582520	0.687680	0.797990
H541	H54	0.556200	0.688800	0.848800
C751	C75	0.624840	0.965830	0.968790
H551	H55	0.606700	0.942400	0.979500
C761	C76	0.832170	0.966300	0.816500
H561	H56	0.849300	0.942900	0.801000
N111	N11	0.759780	0.920730	0.045510
N121	N12	0.671430	0.879510	0.946200
N131	N13	0.610030	0.822140	0.498500
N141	N14	0.565840	0.784210	0.603820
N151	N15	0.709710	0.622440	0.361180
N161	N16	0.796860	0.581060	0.253680
N171	N17	0.634790	0.673700	0.809000
N181	N18	0.573400	0.699550	0.707020
N191	N19	0.781630	0.965780	0.859920
N201	N20	0.677630	0.965910	0.936080
Ni21	Ni2	0.730960	0.917060	0.900970
C771	C77	0.694920	0.560450	0.577350
H571	H57	0.671800	0.545700	0.536900
C781	C78	0.686590	0.565830	0.681090
H581	H58	0.657900	0.555500	0.719700
C791	C79	0.728880	0.589040	0.712510
H591	H59	0.734600	0.597700	0.777100
C801	C80	0.762750	0.597630	0.628660
C811	C81	0.810630	0.621260	0.626000
C821	C82	0.841480	0.631510	0.543530
C831	C83	0.891790	0.654140	0.540090
H601	H60	0.910000	0.665000	0.594300
C841	C84	0.908130	0.656810	0.442490
H611	H61	0.939000	0.670000	0.417500
C851	C85	0.868150	0.635340	0.387990
H621	H62	0.869400	0.632000	0.319400
C861	C86	0.830760	0.636250	0.723740
C871	C87	0.846070	0.610740	0.799380
H631	H63	0.843100	0.584300	0.788600
C881	C88	0.865630	0.623940	0.890210
H641	H64	0.876000	0.606600	0.939800
C891	C89	0.869450	0.663540	0.905810
C901	C90	0.854490	0.689680	0.831990
H651	H65	0.857100	0.716100	0.843300
C911	C91	0.835620	0.675700	0.740980
H661	H66	0.826100	0.693000	0.690900
C921	C92	0.884360	0.661330	0.092220
H671	H67	0.865900	0.638600	0.108400
C931	C93	0.911330	0.685300	0.154300
H681	H68	0.914100	0.681700	0.222600
C941	C94	0.920390	0.710660	0.010310
H691	H69	0.930200	0.727300	0.958900
C951	C95	0.822540	0.857450	0.920870
H701	H70	0.823200	0.861000	0.989400
C961	C96	0.856110	0.829970	0.871300
H711	H71	0.881500	0.812800	0.899600
C971	C97	0.843190	0.834080	0.772500
H721	H72	0.858300	0.820100	0.720000
C981	C98	0.802160	0.863810	0.765750
C991	C99	0.777820	0.878280	0.678800
C1001	C100	0.733640	0.905160	0.672960
C1011	C101	0.712060	0.922080	0.584390
H731	H73	0.725200	0.918200	0.520100
C1021	C102	0.668170	0.945260	0.611950
H741	H74	0.645600	0.960000	0.570500
C1031	C103	0.664450	0.942080	0.715650
H751	H75	0.637700	0.954800	0.753700
C1041	C104	0.800450	0.864350	0.582490
C1051	C105	0.855610	0.871740	0.556600
H761	H76	0.878900	0.884500	0.601300
C1061	C106	0.876590	0.860310	0.464300
H771	H77	0.913000	0.866400	0.445900
C1071	C107	0.842480	0.840000	0.401450
C1081	C108	0.787870	0.832130	0.425300
H781	H78	0.765000	0.818800	0.381000
C1091	C109	0.767270	0.844250	0.515990
H791	H79	0.730400	0.838800	0.532700
C1101	C110	0.838140	0.821870	0.218970
H801	H80	0.801400	0.828400	0.203900
C1111	C111	0.876340	0.806070	0.157800
H811	H81	0.869900	0.799800	0.091600
C1121	C112	0.917480	0.812320	0.297990
H821	H82	0.943800	0.811200	0.348800
C1131	C113	0.875160	0.534170	0.468790
H831	H83	0.893300	0.557600	0.479500
C1141	C114	0.667830	0.533700	0.316500
H841	H84	0.650700	0.557100	0.301000
N211	N21	0.740220	0.579270	0.545510
N221	N22	0.828570	0.620490	0.446200
N231	N23	0.889970	0.677860	0.998500
N241	N24	0.934160	0.715790	0.103820
N251	N25	0.790290	0.877560	0.861180
N261	N26	0.703140	0.918940	0.753680
N271	N27	0.865210	0.826300	0.309000
N281	N28	0.926600	0.800450	0.207020
N291	N29	0.718370	0.534220	0.359920
N301	N30	0.822370	0.534090	0.436080
Ni31	Ni3	0.769040	0.582940	0.400970
C1151	C115	0.194920	0.060450	0.077350
H851	H85	0.171800	0.045700	0.036900
C1161	C116	0.186590	0.065830	0.181090
H861	H86	0.157900	0.055500	0.219700
C1171	C117	0.228880	0.089040	0.212510
H871	H87	0.234600	0.097700	0.277100
C1181	C118	0.262750	0.097630	0.128660
C1191	C119	0.310630	0.121260	0.126000
C1201	C120	0.341480	0.131510	0.043530
C1211	C121	0.391790	0.154140	0.040090
H881	H88	0.410000	0.165000	0.094300
C1221	C122	0.408130	0.156810	0.942490
H891	H89	0.439000	0.170000	0.917500
C1231	C123	0.368150	0.135340	0.887990
H901	H90	0.369400	0.132000	0.819400
C1241	C124	0.330760	0.136250	0.223740
C1251	C125	0.346070	0.110740	0.299380
H911	H91	0.343100	0.084300	0.288600
C1261	C126	0.365630	0.123940	0.390210
H921	H92	0.376000	0.106600	0.439800
C1271	C127	0.369450	0.163540	0.405810
C1281	C128	0.354490	0.189680	0.331990
H931	H93	0.357100	0.216100	0.343300
C1291	C129	0.335620	0.175700	0.240980
H941	H94	0.326100	0.193000	0.190900
C1301	C130	0.384360	0.161330	0.592220
H951	H95	0.365900	0.138600	0.608400
C1311	C131	0.411330	0.185300	0.654300
H961	H96	0.414100	0.181700	0.722600
C1321	C132	0.420390	0.210660	0.510310
H971	H97	0.430200	0.227300	0.458900
C1331	C133	0.322540	0.357450	0.420870
H981	H98	0.323200	0.361000	0.489400
C1341	C134	0.356110	0.329970	0.371300
H991	H99	0.381500	0.312800	0.399600
C1351	C135	0.343190	0.334080	0.272500
H1001	H100	0.358300	0.320100	0.220000
C1361	C136	0.302160	0.363810	0.265750
C1371	C137	0.277820	0.378280	0.178800
C1381	C138	0.233640	0.405160	0.172960
C1391	C139	0.212060	0.422080	0.084390
H1011	H101	0.225200	0.418200	0.020100
C1401	C140	0.168170	0.445260	0.111950
H1021	H102	0.145600	0.460000	0.070500
C1411	C141	0.164450	0.442080	0.215650
H1031	H103	0.137700	0.454800	0.253700
C1421	C142	0.300450	0.364350	0.082490
C1431	C143	0.355610	0.371740	0.056600
H1041	H104	0.378900	0.384500	0.101300
C1441	C144	0.376590	0.360310	0.964300
H1051	H105	0.413000	0.366400	0.945900
C1451	C145	0.342480	0.340000	0.901450
C1461	C146	0.287870	0.332130	0.925300
H1061	H106	0.265000	0.318800	0.881000
C1471	C147	0.267270	0.344250	0.015990
H1071	H107	0.230400	0.338800	0.032700
C1481	C148	0.338140	0.321870	0.718970
H1081	H108	0.301400	0.328400	0.703900
C1491	C149	0.376340	0.306070	0.657800
H1091	H109	0.369900	0.299800	0.591600
C1501	C150	0.417480	0.312320	0.797990
H1101	H110	0.443800	0.311200	0.848800
C1511	C151	0.375160	0.034170	0.968790
H1111	H111	0.393300	0.057600	0.979500
C1521	C152	0.167830	0.033700	0.816500
H1121	H112	0.150700	0.057100	0.801000
N311	N31	0.240220	0.079270	0.045510
N321	N32	0.328570	0.120490	0.946200
N331	N33	0.389970	0.177860	0.498500
N341	N34	0.434160	0.215790	0.603820
N351	N35	0.290290	0.377560	0.361180
N361	N36	0.203140	0.418940	0.253680
N371	N37	0.365210	0.326300	0.809000
N381	N38	0.426600	0.300450	0.707020
N391	N39	0.218370	0.034220	0.859920
N401	N40	0.322370	0.034090	0.936080
Ni41	Ni4	0.269040	0.082940	0.900970
C1531	C153	0.305080	0.560450	0.577350
H1131	H113	0.328200	0.545700	0.536900
C1541	C154	0.313410	0.565830	0.681090
H1141	H114	0.342100	0.555500	0.719700
C1551	C155	0.271120	0.589040	0.712510
H1151	H115	0.265400	0.597700	0.777100
C1561	C156	0.237250	0.597630	0.628660
C1571	C157	0.189370	0.621260	0.626000
C1581	C158	0.158520	0.631510	0.543530
C1591	C159	0.108210	0.654140	0.540090
H1161	H116	0.090000	0.665000	0.594300
C1601	C160	0.091870	0.656810	0.442490
H1171	H117	0.061000	0.670000	0.417500
C1611	C161	0.131850	0.635340	0.387990
H1181	H118	0.130600	0.632000	0.319400
C1621	C162	0.169240	0.636250	0.723740
C1631	C163	0.153930	0.610740	0.799380
H1191	H119	0.156900	0.584300	0.788600
C1641	C164	0.134370	0.623940	0.890210
H1201	H120	0.124000	0.606600	0.939800
C1651	C165	0.130550	0.663540	0.905810
C1661	C166	0.145510	0.689680	0.831990
H1211	H121	0.142900	0.716100	0.843300
C1671	C167	0.164380	0.675700	0.740980
H1221	H122	0.173900	0.693000	0.690900
C1681	C168	0.115640	0.661330	0.092220
H1231	H123	0.134100	0.638600	0.108400
C1691	C169	0.088670	0.685300	0.154300
H1241	H124	0.085900	0.681700	0.222600
C1701	C170	0.079610	0.710660	0.010310
H1251	H125	0.069800	0.727300	0.958900
C1711	C171	0.177460	0.857450	0.920870
H1261	H126	0.176800	0.861000	0.989400
C1721	C172	0.143890	0.829970	0.871300
H1271	H127	0.118500	0.812800	0.899600
C1731	C173	0.156810	0.834080	0.772500
H1281	H128	0.141700	0.820100	0.720000
C1741	C174	0.197840	0.863810	0.765750
C1751	C175	0.222180	0.878280	0.678800
C1761	C176	0.266360	0.905160	0.672960
C1771	C177	0.287940	0.922080	0.584390
H1291	H129	0.274800	0.918200	0.520100
C1781	C178	0.331830	0.945260	0.611950
H1301	H130	0.354400	0.960000	0.570500
C1791	C179	0.335550	0.942080	0.715650
H1311	H131	0.362300	0.954800	0.753700
C1801	C180	0.199550	0.864350	0.582490
C1811	C181	0.144390	0.871740	0.556600
H1321	H132	0.121100	0.884500	0.601300
C1821	C182	0.123410	0.860310	0.464300
H1331	H133	0.087000	0.866400	0.445900
C1831	C183	0.157520	0.840000	0.401450
C1841	C184	0.212130	0.832130	0.425300
H1341	H134	0.235000	0.818800	0.381000
C1851	C185	0.232730	0.844250	0.515990
H1351	H135	0.269600	0.838800	0.532700
C1861	C186	0.161860	0.821870	0.218970
H1361	H136	0.198600	0.828400	0.203900
C1871	C187	0.123660	0.806070	0.157800
H1371	H137	0.130100	0.799800	0.091600
C1881	C188	0.082520	0.812320	0.297990
H1381	H138	0.056200	0.811200	0.348800
C1891	C189	0.124840	0.534170	0.468790
H1391	H139	0.106700	0.557600	0.479500
C1901	C190	0.332170	0.533700	0.316500
H1401	H140	0.349300	0.557100	0.301000
N411	N41	0.259780	0.579270	0.545510
N421	N42	0.171430	0.620490	0.446200
N431	N43	0.110030	0.677860	0.998500
N441	N44	0.065840	0.715790	0.103820
N451	N45	0.209710	0.877560	0.861180
N461	N46	0.296860	0.918940	0.753680
N471	N47	0.134790	0.826300	0.309000
N481	N48	0.073400	0.800450	0.207020
N491	N49	0.281630	0.534220	0.359920
N501	N50	0.177630	0.534090	0.436080
Ni51	Ni5	0.230960	0.582940	0.400970
C1911	C191	0.805080	0.060450	0.077350
H1411	H141	0.828200	0.045700	0.036900
C1921	C192	0.813410	0.065830	0.181090
H1421	H142	0.842100	0.055500	0.219700
C1931	C193	0.771120	0.089040	0.212510
H1431	H143	0.765400	0.097700	0.277100
C1941	C194	0.737250	0.097630	0.128660
C1951	C195	0.689370	0.121260	0.126000
C1961	C196	0.658520	0.131510	0.043530
C1971	C197	0.608210	0.154140	0.040090
H1441	H144	0.590000	0.165000	0.094300
C1981	C198	0.591870	0.156810	0.942490
H1451	H145	0.561000	0.170000	0.917500
C1991	C199	0.631850	0.135340	0.887990
H1461	H146	0.630600	0.132000	0.819400
C2001	C200	0.669240	0.136250	0.223740
C2011	C201	0.653930	0.110740	0.299380
H1471	H147	0.656900	0.084300	0.288600
C2021	C202	0.634370	0.123940	0.390210
H1481	H148	0.624000	0.106600	0.439800
C2031	C203	0.630550	0.163540	0.405810
C2041	C204	0.645510	0.189680	0.331990
H1491	H149	0.642900	0.216100	0.343300
C2051	C205	0.664380	0.175700	0.240980
H1501	H150	0.673900	0.193000	0.190900
C2061	C206	0.615640	0.161330	0.592220
H1511	H151	0.634100	0.138600	0.608400
C2071	C207	0.588670	0.185300	0.654300
H1521	H152	0.585900	0.181700	0.722600
C2081	C208	0.579610	0.210660	0.510310
H1531	H153	0.569800	0.227300	0.458900
C2091	C209	0.677460	0.357450	0.420870
H1541	H154	0.676800	0.361000	0.489400
C2101	C210	0.643890	0.329970	0.371300
H1551	H155	0.618500	0.312800	0.399600
C2111	C211	0.656810	0.334080	0.272500
H1561	H156	0.641700	0.320100	0.220000
C2121	C212	0.697840	0.363810	0.265750
C2131	C213	0.722180	0.378280	0.178800
C2141	C214	0.766360	0.405160	0.172960
C2151	C215	0.787940	0.422080	0.084390
H1571	H157	0.774800	0.418200	0.020100
C2161	C216	0.831830	0.445260	0.111950
H1581	H158	0.854400	0.460000	0.070500
C2171	C217	0.835550	0.442080	0.215650
H1591	H159	0.862300	0.454800	0.253700
C2181	C218	0.699550	0.364350	0.082490
C2191	C219	0.644390	0.371740	0.056600
H1601	H160	0.621100	0.384500	0.101300
C2201	C220	0.623410	0.360310	0.964300
H1611	H161	0.587000	0.366400	0.945900
C2211	C221	0.657520	0.340000	0.901450
C2221	C222	0.712130	0.332130	0.925300
H1621	H162	0.735000	0.318800	0.881000
C2231	C223	0.732730	0.344250	0.015990
H1631	H163	0.769600	0.338800	0.032700
C2241	C224	0.661860	0.321870	0.718970
H1641	H164	0.698600	0.328400	0.703900
C2251	C225	0.623660	0.306070	0.657800
H1651	H165	0.630100	0.299800	0.591600
C2261	C226	0.582520	0.312320	0.797990
H1661	H166	0.556200	0.311200	0.848800
C2271	C227	0.624840	0.034170	0.968790
H1671	H167	0.606700	0.057600	0.979500
C2281	C228	0.832170	0.033700	0.816500
H1681	H168	0.849300	0.057100	0.801000
N511	N51	0.759780	0.079270	0.045510
N521	N52	0.671430	0.120490	0.946200
N531	N53	0.610030	0.177860	0.498500
N541	N54	0.565840	0.215790	0.603820
N551	N55	0.709710	0.377560	0.361180
N561	N56	0.796860	0.418940	0.253680
N571	N57	0.634790	0.326300	0.809000
N581	N58	0.573400	0.300450	0.707020
N591	N59	0.781630	0.034220	0.859920
N601	N60	0.677630	0.034090	0.936080
Ni61	Ni6	0.730960	0.082940	0.900970
C2291	C229	0.694920	0.439550	0.577350
H1691	H169	0.671800	0.454300	0.536900
C2301	C230	0.686590	0.434170	0.681090
H1701	H170	0.657900	0.444500	0.719700
C2311	C231	0.728880	0.410960	0.712510
H1711	H171	0.734600	0.402300	0.777100
C2321	C232	0.762750	0.402370	0.628660
C2331	C233	0.810630	0.378740	0.626000
C2341	C234	0.841480	0.368490	0.543530
C2351	C235	0.891790	0.345860	0.540090
H1721	H172	0.910000	0.335000	0.594300
C2361	C236	0.908130	0.343190	0.442490
H1731	H173	0.939000	0.330000	0.417500
C2371	C237	0.868150	0.364660	0.387990
H1741	H174	0.869400	0.368000	0.319400
C2381	C238	0.830760	0.363750	0.723740
C2391	C239	0.846070	0.389260	0.799380
H1751	H175	0.843100	0.415700	0.788600
C2401	C240	0.865630	0.376060	0.890210
H1761	H176	0.876000	0.393400	0.939800
C2411	C241	0.869450	0.336460	0.905810
C2421	C242	0.854490	0.310320	0.831990
H1771	H177	0.857100	0.283900	0.843300
C2431	C243	0.835620	0.324300	0.740980
H1781	H178	0.826100	0.307000	0.690900
C2441	C244	0.884360	0.338670	0.092220
H1791	H179	0.865900	0.361400	0.108400
C2451	C245	0.911330	0.314700	0.154300
H1801	H180	0.914100	0.318300	0.222600
C2461	C246	0.920390	0.289340	0.010310
H1811	H181	0.930200	0.272700	0.958900
C2471	C247	0.822540	0.142550	0.920870
H1821	H182	0.823200	0.139000	0.989400
C2481	C248	0.856110	0.170030	0.871300
H1831	H183	0.881500	0.187200	0.899600
C2491	C249	0.843190	0.165920	0.772500
H1841	H184	0.858300	0.179900	0.720000
C2501	C250	0.802160	0.136190	0.765750
C2511	C251	0.777820	0.121720	0.678800
C2521	C252	0.733640	0.094840	0.672960
C2531	C253	0.712060	0.077920	0.584390
H1851	H185	0.725200	0.081800	0.520100
C2541	C254	0.668170	0.054740	0.611950
H1861	H186	0.645600	0.040000	0.570500
C2551	C255	0.664450	0.057920	0.715650
H1871	H187	0.637700	0.045200	0.753700
C2561	C256	0.800450	0.135650	0.582490
C2571	C257	0.855610	0.128260	0.556600
H1881	H188	0.878900	0.115500	0.601300
C2581	C258	0.876590	0.139690	0.464300
H1891	H189	0.913000	0.133600	0.445900
C2591	C259	0.842480	0.160000	0.401450
C2601	C260	0.787870	0.167870	0.425300
H1901	H190	0.765000	0.181200	0.381000
C2611	C261	0.767270	0.155750	0.515990
H1911	H191	0.730400	0.161200	0.532700
C2621	C262	0.838140	0.178130	0.218970
H1921	H192	0.801400	0.171600	0.203900
C2631	C263	0.876340	0.193930	0.157800
H1931	H193	0.869900	0.200200	0.091600
C2641	C264	0.917480	0.187680	0.297990
H1941	H194	0.943800	0.188800	0.348800
C2651	C265	0.875160	0.465830	0.468790
H1951	H195	0.893300	0.442400	0.479500
C2661	C266	0.667830	0.466300	0.316500
H1961	H196	0.650700	0.442900	0.301000
N611	N61	0.740220	0.420730	0.545510
N621	N62	0.828570	0.379510	0.446200
N631	N63	0.889970	0.322140	0.998500
N641	N64	0.934160	0.284210	0.103820
N651	N65	0.790290	0.122440	0.861180
N661	N66	0.703140	0.081060	0.753680
N671	N67	0.865210	0.173700	0.309000
N681	N68	0.926600	0.199550	0.207020
N691	N69	0.718370	0.465780	0.359920
N701	N70	0.822370	0.465910	0.436080
Ni71	Ni7	0.769040	0.417060	0.400970
C2671	C267	0.194920	0.939550	0.077350
H1971	H197	0.171800	0.954300	0.036900
C2681	C268	0.186590	0.934170	0.181090
H1981	H198	0.157900	0.944500	0.219700
C2691	C269	0.228880	0.910960	0.212510
H1991	H199	0.234600	0.902300	0.277100
C2701	C270	0.262750	0.902370	0.128660
C2711	C271	0.310630	0.878740	0.126000
C2721	C272	0.341480	0.868490	0.043530
C2731	C273	0.391790	0.845860	0.040090
H2001	H200	0.410000	0.835000	0.094300
C2741	C274	0.408130	0.843190	0.942490
H2011	H201	0.439000	0.830000	0.917500
C2751	C275	0.368150	0.864660	0.887990
H2021	H202	0.369400	0.868000	0.819400
C2761	C276	0.330760	0.863750	0.223740
C2771	C277	0.346070	0.889260	0.299380
H2031	H203	0.343100	0.915700	0.288600
C2781	C278	0.365630	0.876060	0.390210
H2041	H204	0.376000	0.893400	0.439800
C2791	C279	0.369450	0.836460	0.405810
C2801	C280	0.354490	0.810320	0.331990
H2051	H205	0.357100	0.783900	0.343300
C2811	C281	0.335620	0.824300	0.240980
H2061	H206	0.326100	0.807000	0.190900
C2821	C282	0.384360	0.838670	0.592220
H2071	H207	0.365900	0.861400	0.608400
C2831	C283	0.411330	0.814700	0.654300
H2081	H208	0.414100	0.818300	0.722600
C2841	C284	0.420390	0.789340	0.510310
H2091	H209	0.430200	0.772700	0.458900
C2851	C285	0.322540	0.642550	0.420870
H2101	H210	0.323200	0.639000	0.489400
C2861	C286	0.356110	0.670030	0.371300
H2111	H211	0.381500	0.687200	0.399600
C2871	C287	0.343190	0.665920	0.272500
H2121	H212	0.358300	0.679900	0.220000
C2881	C288	0.302160	0.636190	0.265750
C2891	C289	0.277820	0.621720	0.178800
C2901	C290	0.233640	0.594840	0.172960
C2911	C291	0.212060	0.577920	0.084390
H2131	H213	0.225200	0.581800	0.020100
C2921	C292	0.168170	0.554740	0.111950
H2141	H214	0.145600	0.540000	0.070500
C2931	C293	0.164450	0.557920	0.215650
H2151	H215	0.137700	0.545200	0.253700
C2941	C294	0.300450	0.635650	0.082490
C2951	C295	0.355610	0.628260	0.056600
H2161	H216	0.378900	0.615500	0.101300
C2961	C296	0.376590	0.639690	0.964300
H2171	H217	0.413000	0.633600	0.945900
C2971	C297	0.342480	0.660000	0.901450
C2981	C298	0.287870	0.667870	0.925300
H2181	H218	0.265000	0.681200	0.881000
C2991	C299	0.267270	0.655750	0.015990
H2191	H219	0.230400	0.661200	0.032700
C3001	C300	0.338140	0.678130	0.718970
H2201	H220	0.301400	0.671600	0.703900
C3011	C301	0.376340	0.693930	0.657800
H2211	H221	0.369900	0.700200	0.591600
C3021	C302	0.417480	0.687680	0.797990
H2221	H222	0.443800	0.688800	0.848800
C3031	C303	0.375160	0.965830	0.968790
H2231	H223	0.393300	0.942400	0.979500
C3041	C304	0.167830	0.966300	0.816500
H2241	H224	0.150700	0.942900	0.801000
N711	N71	0.240220	0.920730	0.045510
N721	N72	0.328570	0.879510	0.946200
N731	N73	0.389970	0.822140	0.498500
N741	N74	0.434160	0.784210	0.603820
N751	N75	0.290290	0.622440	0.361180
N761	N76	0.203140	0.581060	0.253680
N771	N77	0.365210	0.673700	0.809000
N781	N78	0.426600	0.699550	0.707020
N791	N79	0.218370	0.965780	0.859920
N801	N80	0.322370	0.965910	0.936080
Ni81	Ni8	0.269040	0.917060	0.900970
C3051	C305	0.096640	0.500000	0.486900
H2251	H225	0.060100	0.500000	0.510500
C3061	C306	0.201080	0.500000	0.419900
C3071	C307	0.258330	0.500000	0.378000
C3081	C308	0.359580	0.500000	0.294200
H2261	H226	0.394900	0.500000	0.265400
C3091	C309	0.596640	0.000000	0.986900
H2271	H227	0.560100	0.000000	0.010500
C3101	C310	0.701080	0.000000	0.919900
C3111	C311	0.758330	0.000000	0.878000
C3121	C312	0.859580	0.000000	0.794200
H2281	H228	0.894900	0.000000	0.765400
C3131	C313	0.903360	0.500000	0.486900
H2291	H229	0.939900	0.500000	0.510500
C3141	C314	0.798920	0.500000	0.419900
C3151	C315	0.741670	0.500000	0.378000
C3161	C316	0.640420	0.500000	0.294200
H2301	H230	0.605100	0.500000	0.265400
C3171	C317	0.403360	0.000000	0.986900
H2311	H231	0.439900	0.000000	0.010500
C3181	C318	0.298920	0.000000	0.919900
C3191	C319	0.241670	0.000000	0.878000
C3201	C320	0.140420	0.000000	0.794200
H2321	H232	0.105100	0.000000	0.765400
Cl11	Cl1	0.000000	0.209370	0.977690
Cl21	Cl2	0.000000	0.269670	0.334320
Cd11	Cd1	0.000000	0.238330	0.157240
Cl31	Cl3	0.500000	0.709370	0.477690
Cl41	Cl4	0.500000	0.769670	0.834320
Cd21	Cd2	0.500000	0.738330	0.657240
Cl51	Cl5	0.000000	0.790630	0.977690
Cl61	Cl6	0.000000	0.730330	0.334320
Cd31	Cd3	0.000000	0.761670	0.157240
Cl71	Cl7	0.500000	0.290630	0.477690
Cl81	Cl8	0.500000	0.230330	0.834320
Cd41	Cd4	0.500000	0.261670	0.657240
