data_PUGSER_freeONLY_PM
_symmetry_space_group_name_H-M	'P1'
_cell_length_a	10.316000
_cell_length_b	26.096000
_cell_length_c	27.889000
_cell_angle_alpha	90.000000
_cell_angle_beta	93.780000
_cell_angle_gamma	90.000000
_symmetry_Int_Tables_number 1

loop_
_symmetry_equiv_pos_as_xyz
'x,y,z'

loop_
_atom_site_label
_atom_site_type_symbol
_atom_site_fract_x
_atom_site_fract_y
_atom_site_fract_z
C11	C1	0.691600	0.238370	0.566860
C21	C2	0.561500	0.235120	0.538050
C31	C3	0.449000	0.235820	0.561690
H11	H1	0.453200	0.234300	0.595400
C41	C4	0.330200	0.238660	0.536380
C51	C5	0.323800	0.237000	0.487360
H21	H2	0.242300	0.237900	0.470200
C61	C6	0.438200	0.233900	0.461780
C71	C7	0.555500	0.233800	0.488820
H31	H3	0.633100	0.232700	0.473000
C81	C8	0.207600	0.243170	0.563280
C91	C9	0.432600	0.233500	0.408520
C101	C10	0.332100	0.256300	0.381000
H41	H4	0.265800	0.273000	0.396500
C111	C11	0.326300	0.255200	0.331700
H51	H5	0.256300	0.271000	0.314100
C121	C12	0.422100	0.231100	0.307370
C131	C13	0.523600	0.209500	0.334700
H61	H6	0.593300	0.195000	0.319400
C141	C14	0.524400	0.208900	0.384500
H71	H7	0.590700	0.191000	0.402100
C151	C15	0.418800	0.230200	0.253700
C161	C16	0.944400	0.396500	0.556400
C171	C17	0.935900	0.442900	0.524000
H81	H8	0.847300	0.455600	0.521500
H91	H9	0.961600	0.433600	0.492300
H101	H10	0.993400	0.469500	0.537400
C181	C18	0.241600	0.357670	0.690990
C191	C19	0.364800	0.385040	0.703010
C201	C20	0.480000	0.362010	0.691770
H111	H11	0.480000	0.328500	0.679300
C211	C21	0.596600	0.389320	0.699220
C221	C22	0.596100	0.437320	0.720150
H121	H12	0.675200	0.454800	0.725900
C231	C23	0.482500	0.460520	0.732900
C241	C24	0.365700	0.434150	0.722380
H131	H13	0.286600	0.449900	0.728500
C251	C25	0.717200	0.363820	0.683350
C261	C26	0.484000	0.512030	0.753170
C271	C27	0.590300	0.530000	0.781800
H141	H14	0.663900	0.509200	0.787600
C281	C28	0.587400	0.578800	0.801900
H151	H15	0.658700	0.590000	0.821900
C291	C29	0.483800	0.610730	0.793360
C301	C30	0.380400	0.593800	0.764900
H161	H16	0.307700	0.615200	0.759100
C311	C31	0.381000	0.546400	0.744700
H171	H17	0.309300	0.536400	0.724300
C321	C32	0.486200	0.664250	0.814420
O11	O1	0.966300	0.290170	0.633490
O21	O2	0.787600	0.251980	0.543210
O31	O3	0.692300	0.230410	0.610690
O41	O4	0.218900	0.236640	0.607160
O51	O5	0.104000	0.254420	0.538310
O61	O6	0.324000	0.251640	0.231290
O71	O7	0.511600	0.210600	0.235390
O81	O8	0.136400	0.382780	0.687290
O91	O9	0.250100	0.309010	0.685510
O101	O10	0.707500	0.321530	0.663880
O111	O11	0.824100	0.388510	0.691550
O121	O12	0.584600	0.679140	0.838840
O131	O13	0.384300	0.691810	0.805220
O141	O14	0.958800	0.403810	0.599690
O151	O15	0.940400	0.353560	0.536150
Zn11	Zn1	0.118180	0.258190	0.665610
Zn21	Zn2	0.823890	0.253040	0.661050
Zn31	Zn3	0.967880	0.359230	0.659130
Zn41	Zn4	0.952200	0.285010	0.565650
C331	C33	0.808400	0.738370	0.933140
C341	C34	0.938500	0.735120	0.961950
C351	C35	0.051000	0.735820	0.938310
H181	H18	0.046800	0.734300	0.904600
C361	C36	0.169800	0.738660	0.963620
C371	C37	0.176200	0.737000	0.012640
H191	H19	0.257700	0.737900	0.029800
C381	C38	0.061800	0.733900	0.038220
C391	C39	0.944500	0.733800	0.011180
H201	H20	0.866900	0.732700	0.027000
C401	C40	0.292400	0.743170	0.936720
C411	C41	0.067400	0.733500	0.091480
C421	C42	0.167900	0.756300	0.119000
H211	H21	0.234200	0.773000	0.103500
C431	C43	0.173700	0.755200	0.168300
H221	H22	0.243700	0.771000	0.185900
C441	C44	0.077900	0.731100	0.192630
C451	C45	0.976400	0.709500	0.165300
H231	H23	0.906700	0.695000	0.180600
C461	C46	0.975600	0.708900	0.115500
H241	H24	0.909300	0.691000	0.097900
C471	C47	0.081200	0.730200	0.246300
C481	C48	0.555600	0.896500	0.943600
C491	C49	0.564100	0.942900	0.976000
H251	H25	0.652700	0.955600	0.978500
H261	H26	0.538400	0.933600	0.007700
H271	H27	0.506600	0.969500	0.962600
C501	C50	0.258400	0.857670	0.809010
C511	C51	0.135200	0.885040	0.796990
C521	C52	0.020000	0.862010	0.808230
H281	H28	0.020000	0.828500	0.820700
C531	C53	0.903400	0.889320	0.800780
C541	C54	0.903900	0.937320	0.779850
H291	H29	0.824800	0.954800	0.774100
C551	C55	0.017500	0.960520	0.767100
C561	C56	0.134300	0.934150	0.777620
H301	H30	0.213400	0.949900	0.771500
C571	C57	0.782800	0.863820	0.816650
C581	C58	0.016000	0.012030	0.746830
C591	C59	0.909700	0.030000	0.718200
H311	H31	0.836100	0.009200	0.712400
C601	C60	0.912600	0.078800	0.698100
H321	H32	0.841300	0.090000	0.678100
C611	C61	0.016200	0.110730	0.706640
C621	C62	0.119600	0.093800	0.735100
H331	H33	0.192300	0.115200	0.740900
C631	C63	0.119000	0.046400	0.755300
H341	H34	0.190700	0.036400	0.775700
C641	C64	0.013800	0.164250	0.685580
O161	O16	0.533700	0.790170	0.866510
O171	O17	0.712400	0.751980	0.956790
O181	O18	0.807700	0.730410	0.889310
O191	O19	0.281100	0.736640	0.892840
O201	O20	0.396000	0.754420	0.961690
O211	O21	0.176000	0.751640	0.268710
O221	O22	0.988400	0.710600	0.264610
O231	O23	0.363600	0.882780	0.812710
O241	O24	0.249900	0.809010	0.814490
O251	O25	0.792500	0.821530	0.836120
O261	O26	0.675900	0.888510	0.808450
O271	O27	0.915400	0.179140	0.661160
O281	O28	0.115700	0.191810	0.694780
O291	O29	0.541200	0.903810	0.900310
O301	O30	0.559600	0.853560	0.963850
Zn51	Zn5	0.381820	0.758190	0.834390
Zn61	Zn6	0.676110	0.753040	0.838950
Zn71	Zn7	0.532120	0.859230	0.840870
Zn81	Zn8	0.547800	0.785010	0.934350
C651	C65	0.308400	0.761630	0.433140
C661	C66	0.438500	0.764880	0.461950
C671	C67	0.551000	0.764180	0.438310
H351	H35	0.546800	0.765700	0.404600
C681	C68	0.669800	0.761340	0.463620
C691	C69	0.676200	0.763000	0.512640
H361	H36	0.757700	0.762100	0.529800
C701	C70	0.561800	0.766100	0.538220
C711	C71	0.444500	0.766200	0.511180
H371	H37	0.366900	0.767300	0.527000
C721	C72	0.792400	0.756830	0.436720
C731	C73	0.567400	0.766500	0.591480
C741	C74	0.667900	0.743700	0.619000
H381	H38	0.734200	0.727000	0.603500
C751	C75	0.673700	0.744800	0.668300
H391	H39	0.743700	0.729000	0.685900
C761	C76	0.577900	0.768900	0.692630
C771	C77	0.476400	0.790500	0.665300
H401	H40	0.406700	0.805000	0.680600
C781	C78	0.475600	0.791100	0.615500
H411	H41	0.409300	0.809000	0.597900
C791	C79	0.581200	0.769800	0.746300
C801	C80	0.055600	0.603500	0.443600
C811	C81	0.064100	0.557100	0.476000
H421	H42	0.152700	0.544400	0.478500
H431	H43	0.038400	0.566400	0.507700
H441	H44	0.006600	0.530500	0.462600
C821	C82	0.758400	0.642330	0.309010
C831	C83	0.635200	0.614960	0.296990
C841	C84	0.520000	0.637990	0.308230
H451	H45	0.520000	0.671500	0.320700
C851	C85	0.403400	0.610680	0.300780
C861	C86	0.403900	0.562680	0.279850
H461	H46	0.324800	0.545200	0.274100
C871	C87	0.517500	0.539480	0.267100
C881	C88	0.634300	0.565850	0.277620
H471	H47	0.713400	0.550100	0.271500
C891	C89	0.282800	0.636180	0.316650
C901	C90	0.516000	0.487970	0.246830
C911	C91	0.409700	0.470000	0.218200
H481	H48	0.336100	0.490800	0.212400
C921	C92	0.412600	0.421200	0.198100
H491	H49	0.341300	0.410000	0.178100
C931	C93	0.516200	0.389270	0.206640
C941	C94	0.619600	0.406200	0.235100
H501	H50	0.692300	0.384800	0.240900
C951	C95	0.619000	0.453600	0.255300
H511	H51	0.690700	0.463600	0.275700
C961	C96	0.513800	0.335750	0.185580
O311	O31	0.033700	0.709830	0.366510
O321	O32	0.212400	0.748020	0.456790
O331	O33	0.307700	0.769590	0.389310
O341	O34	0.781100	0.763360	0.392840
O351	O35	0.896000	0.745580	0.461690
O361	O36	0.676000	0.748360	0.768710
O371	O37	0.488400	0.789400	0.764610
O381	O38	0.863600	0.617220	0.312710
O391	O39	0.749900	0.690990	0.314490
O401	O40	0.292500	0.678470	0.336120
O411	O41	0.175900	0.611490	0.308450
O421	O42	0.415400	0.320860	0.161160
O431	O43	0.615700	0.308190	0.194780
O441	O44	0.041200	0.596190	0.400310
O451	O45	0.059600	0.646440	0.463850
Zn91	Zn9	0.881820	0.741810	0.334390
Zn101	Zn10	0.176110	0.746960	0.338950
Zn111	Zn11	0.032120	0.640770	0.340870
Zn121	Zn12	0.047800	0.714990	0.434350
C971	C97	0.191600	0.261630	0.066860
C981	C98	0.061500	0.264880	0.038050
C991	C99	0.949000	0.264180	0.061690
H521	H52	0.953200	0.265700	0.095400
C1001	C100	0.830200	0.261340	0.036380
C1011	C101	0.823800	0.263000	0.987360
H531	H53	0.742300	0.262100	0.970200
C1021	C102	0.938200	0.266100	0.961780
C1031	C103	0.055500	0.266200	0.988820
H541	H54	0.133100	0.267300	0.973000
C1041	C104	0.707600	0.256830	0.063280
C1051	C105	0.932600	0.266500	0.908520
C1061	C106	0.832100	0.243700	0.881000
H551	H55	0.765800	0.227000	0.896500
C1071	C107	0.826300	0.244800	0.831700
H561	H56	0.756300	0.229000	0.814100
C1081	C108	0.922100	0.268900	0.807370
C1091	C109	0.023600	0.290500	0.834700
H571	H57	0.093300	0.305000	0.819400
C1101	C110	0.024400	0.291100	0.884500
H581	H58	0.090700	0.309000	0.902100
C1111	C111	0.918800	0.269800	0.753700
C1121	C112	0.444400	0.103500	0.056400
C1131	C113	0.435900	0.057100	0.024000
H591	H59	0.347300	0.044400	0.021500
H601	H60	0.461600	0.066400	0.992300
H611	H61	0.493400	0.030500	0.037400
C1141	C114	0.741600	0.142330	0.190990
C1151	C115	0.864800	0.114960	0.203010
C1161	C116	0.980000	0.137990	0.191770
H621	H62	0.980000	0.171500	0.179300
C1171	C117	0.096600	0.110680	0.199220
C1181	C118	0.096100	0.062680	0.220150
H631	H63	0.175200	0.045200	0.225900
C1191	C119	0.982500	0.039480	0.232900
C1201	C120	0.865700	0.065850	0.222380
H641	H64	0.786600	0.050100	0.228500
C1211	C121	0.217200	0.136180	0.183350
C1221	C122	0.984000	0.987970	0.253170
C1231	C123	0.090300	0.970000	0.281800
H651	H65	0.163900	0.990800	0.287600
C1241	C124	0.087400	0.921200	0.301900
H661	H66	0.158700	0.910000	0.321900
C1251	C125	0.983800	0.889270	0.293360
C1261	C126	0.880400	0.906200	0.264900
H671	H67	0.807700	0.884800	0.259100
C1271	C127	0.881000	0.953600	0.244700
H681	H68	0.809300	0.963600	0.224300
C1281	C128	0.986200	0.835750	0.314420
O461	O46	0.466300	0.209830	0.133490
O471	O47	0.287600	0.248020	0.043210
O481	O48	0.192300	0.269590	0.110690
O491	O49	0.718900	0.263360	0.107160
O501	O50	0.604000	0.245580	0.038310
O511	O51	0.824000	0.248360	0.731290
O521	O52	0.011600	0.289400	0.735390
O531	O53	0.636400	0.117220	0.187290
O541	O54	0.750100	0.190990	0.185510
O551	O55	0.207500	0.178470	0.163880
O561	O56	0.324100	0.111490	0.191550
O571	O57	0.084600	0.820860	0.338840
O581	O58	0.884300	0.808190	0.305220
O591	O59	0.458800	0.096190	0.099690
O601	O60	0.440400	0.146440	0.036150
Zn131	Zn13	0.618180	0.241810	0.165610
Zn141	Zn14	0.323890	0.246960	0.161050
Zn151	Zn15	0.467880	0.140770	0.159130
Zn161	Zn16	0.452200	0.214990	0.065650
