data_PULHOT_freeONLY_PM
_symmetry_space_group_name_H-M	'P1'
_cell_length_a	10.193000
_cell_length_b	14.276000
_cell_length_c	10.380000
_cell_angle_alpha	90.000000
_cell_angle_beta	91.184000
_cell_angle_gamma	90.000000
_symmetry_Int_Tables_number 1

loop_
_symmetry_equiv_pos_as_xyz
'x,y,z'

loop_
_atom_site_label
_atom_site_type_symbol
_atom_site_fract_x
_atom_site_fract_y
_atom_site_fract_z
P11	P1	0.315300	0.509150	0.789900
P21	P2	0.885600	0.480920	0.673900
P31	P3	0.021900	0.800830	0.501900
O11	O1	0.122200	0.728200	0.558900
O21	O2	0.240700	0.592100	0.726600
O31	O3	0.956400	0.578000	0.677400
O41	O4	0.319100	0.521800	0.931500
O51	O5	0.448900	0.497500	0.731000
O61	O6	0.238800	0.417200	0.750900
O71	O7	0.948700	0.848100	0.607400
O81	O8	0.983700	0.404600	0.714300
O91	O9	0.768100	0.483500	0.755900
O101	O10	0.156400	0.534300	0.468400
O111	O11	0.092700	0.862700	0.409400
O121	O12	0.917500	0.738100	0.425700
Ga11	Ga1	0.111410	0.606740	0.603910
Mn11	Mn1	0.388890	0.507680	0.123580
H11	H1	0.950000	0.690000	0.377000
H21	H2	0.144000	0.409000	0.749000
P41	P4	0.184700	0.009150	0.710100
P51	P5	0.614400	0.980920	0.826100
P61	P6	0.478100	0.300830	0.998100
O131	O13	0.377800	0.228200	0.941100
O141	O14	0.259300	0.092100	0.773400
O151	O15	0.543600	0.078000	0.822600
O161	O16	0.180900	0.021800	0.568500
O171	O17	0.051100	0.997500	0.769000
O181	O18	0.261200	0.917200	0.749100
O191	O19	0.551300	0.348100	0.892600
O201	O20	0.516300	0.904600	0.785700
O211	O21	0.731900	0.983500	0.744100
O221	O22	0.343600	0.034300	0.031600
O231	O23	0.407300	0.362700	0.090600
O241	O24	0.582500	0.238100	0.074300
Ga21	Ga2	0.388590	0.106740	0.896090
Mn21	Mn2	0.111110	0.007680	0.376420
H31	H3	0.550000	0.190000	0.123000
H41	H4	0.356000	0.909000	0.751000
P71	P7	0.684700	0.490850	0.210100
P81	P8	0.114400	0.519080	0.326100
P91	P9	0.978100	0.199170	0.498100
O251	O25	0.877800	0.271800	0.441100
O261	O26	0.759300	0.407900	0.273400
O271	O27	0.043600	0.422000	0.322600
O281	O28	0.680900	0.478200	0.068500
O291	O29	0.551100	0.502500	0.269000
O301	O30	0.761200	0.582800	0.249100
O311	O31	0.051300	0.151900	0.392600
O321	O32	0.016300	0.595400	0.285700
O331	O33	0.231900	0.516500	0.244100
O341	O34	0.843600	0.465700	0.531600
O351	O35	0.907300	0.137300	0.590600
O361	O36	0.082500	0.261900	0.574300
Ga31	Ga3	0.888590	0.393260	0.396090
Mn31	Mn3	0.611110	0.492320	0.876420
H51	H5	0.050000	0.310000	0.623000
H61	H6	0.856000	0.591000	0.251000
P101	P10	0.815300	0.990850	0.289900
P111	P11	0.385600	0.019080	0.173900
P121	P12	0.521900	0.699170	0.001900
O371	O37	0.622200	0.771800	0.058900
O381	O38	0.740700	0.907900	0.226600
O391	O39	0.456400	0.922000	0.177400
O401	O40	0.819100	0.978200	0.431500
O411	O41	0.948900	0.002500	0.231000
O421	O42	0.738800	0.082800	0.250900
O431	O43	0.448700	0.651900	0.107400
O441	O44	0.483700	0.095400	0.214300
O451	O45	0.268100	0.016500	0.255900
O461	O46	0.656400	0.965700	0.968400
O471	O47	0.592700	0.637300	0.909400
O481	O48	0.417500	0.761900	0.925700
Ga41	Ga4	0.611410	0.893260	0.103910
Mn41	Mn4	0.888890	0.992320	0.623580
H71	H7	0.450000	0.810000	0.877000
H81	H8	0.644000	0.091000	0.249000
