data_PUWDEQ_charged_PM
_symmetry_space_group_name_H-M	'P1'
_cell_length_a	9.951800
_cell_length_b	11.576100
_cell_length_c	15.556200
_cell_angle_alpha	72.377000
_cell_angle_beta	83.165000
_cell_angle_gamma	84.326000
_symmetry_Int_Tables_number 1

loop_
_symmetry_equiv_pos_as_xyz
'x,y,z'

loop_
_atom_site_label
_atom_site_type_symbol
_atom_site_fract_x
_atom_site_fract_y
_atom_site_fract_z
Zn11	Zn1	0.585400	0.907300	0.112200
Zn21	Zn2	0.414600	0.092700	0.887800
H11	H1	0.759100	0.614700	0.023200
H21	H2	0.766800	0.412500	0.990400
H31	H3	0.110000	0.750700	0.039000
H41	H4	0.516400	0.283500	0.127800
H51	H5	0.465700	0.467500	0.176800
H61	H6	0.566100	0.321100	0.858200
H71	H7	0.749700	0.704200	0.434600
H81	H8	0.714400	0.548100	0.567300
H91	H9	0.421500	0.624100	0.337600
H101	H10	0.240900	0.385300	0.976800
H111	H11	0.233200	0.587500	0.009600
H121	H12	0.890000	0.249300	0.961000
H131	H13	0.483600	0.716500	0.872200
H141	H14	0.534300	0.532500	0.823200
H151	H15	0.433900	0.678900	0.141800
H161	H16	0.250300	0.295800	0.565400
H171	H17	0.285600	0.451900	0.432700
H181	H18	0.578500	0.375900	0.662400
C11	C1	0.842900	0.802400	0.061600
C21	C2	0.920000	0.697700	0.035000
C31	C3	0.855300	0.608100	0.020700
C41	C4	0.928000	0.503900	0.002100
C51	C5	0.863000	0.408500	0.987700
C61	C6	0.064000	0.687900	0.029900
C71	C7	0.569300	0.146400	0.015800
C81	C8	0.545400	0.282900	0.997700
C91	C9	0.519500	0.333400	0.066700
C101	C10	0.496100	0.466700	0.045800
C111	C11	0.470100	0.517000	0.115600
C121	C12	0.549500	0.357900	0.905700
C131	C13	0.614800	0.778500	0.285700
C141	C14	0.588900	0.679000	0.372900
C151	C15	0.675500	0.655200	0.442400
C161	C16	0.654800	0.562500	0.521200
C171	C17	0.544300	0.488100	0.534200
C181	C18	0.480200	0.608300	0.384300
C191	C19	0.157100	0.197600	0.938400
C201	C20	0.080000	0.302300	0.965000
C211	C21	0.144700	0.391900	0.979300
C221	C22	0.072000	0.496100	0.997900
C231	C23	0.137000	0.591500	0.012300
C241	C24	0.936000	0.312100	0.970100
C251	C25	0.430700	0.853600	0.984200
C261	C26	0.454600	0.717100	0.002300
C271	C27	0.480500	0.666600	0.933300
C281	C28	0.503900	0.533300	0.954200
C291	C29	0.529900	0.483000	0.884400
C301	C30	0.450500	0.642100	0.094300
C311	C31	0.385200	0.221500	0.714300
C321	C32	0.411100	0.321000	0.627100
C331	C33	0.324500	0.344800	0.557600
C341	C34	0.345200	0.437500	0.478800
C351	C35	0.455700	0.511900	0.465800
C361	C36	0.519800	0.391700	0.615700
O11	O1	0.713300	0.809400	0.056100
O21	O2	0.902700	0.872500	0.086900
O31	O3	0.579000	0.081400	0.097500
O41	O4	0.580300	0.104900	0.950100
O51	O5	0.521800	0.806500	0.232500
O61	O6	0.725800	0.826300	0.270600
O71	O7	0.286700	0.190600	0.943900
O81	O8	0.097300	0.127500	0.913100
O91	O9	0.421000	0.918600	0.902500
O101	O10	0.419700	0.895100	0.049900
O111	O11	0.478200	0.193500	0.767500
O121	O12	0.274200	0.173700	0.729400
H191	H19	0.951000	0.908000	0.197000
H201	H20	0.795000	0.175900	0.235100
H211	H21	0.915300	0.169100	0.158400
H221	H22	0.786100	0.091100	0.171900
H231	H23	0.975300	0.052700	0.301900
H241	H24	0.847100	0.974200	0.314300
H251	H25	0.284500	0.081200	0.142400
H261	H26	0.172800	0.108100	0.218200
H271	H27	0.260800	0.981000	0.238600
H281	H28	0.068700	0.057500	0.107700
H291	H29	0.157100	0.930900	0.127500
H301	H30	0.108300	0.854300	0.336700
H311	H31	0.974700	0.786600	0.339100
H321	H32	0.168700	0.664900	0.313200
H331	H33	0.082700	0.701400	0.227200
H341	H34	0.216100	0.769800	0.224000
C371	C37	0.847300	0.122800	0.203000
C381	C38	0.916600	0.019600	0.269200
C391	C39	0.216600	0.045200	0.191900
C401	C40	0.111400	0.992200	0.155700
C411	C41	0.052900	0.825700	0.299300
C421	C42	0.137500	0.732300	0.262700
N11	N1	0.001300	0.933000	0.226900
H351	H35	0.049000	0.092000	0.803000
H361	H36	0.205000	0.824100	0.764900
H371	H37	0.084700	0.830900	0.841600
H381	H38	0.213900	0.908900	0.828100
H391	H39	0.024700	0.947300	0.698100
H401	H40	0.152900	0.025800	0.685700
H411	H41	0.715500	0.918800	0.857600
H421	H42	0.827200	0.891900	0.781800
H431	H43	0.739200	0.019000	0.761400
H441	H44	0.931300	0.942500	0.892300
H451	H45	0.842900	0.069100	0.872500
H461	H46	0.891700	0.145700	0.663300
H471	H47	0.025300	0.213400	0.660900
H481	H48	0.831300	0.335100	0.686800
H491	H49	0.917300	0.298600	0.772800
H501	H50	0.783900	0.230200	0.776000
C431	C43	0.152700	0.877200	0.797000
C441	C44	0.083400	0.980400	0.730800
C451	C45	0.783400	0.954800	0.808100
C461	C46	0.888600	0.007800	0.844300
C471	C47	0.947100	0.174300	0.700700
C481	C48	0.862500	0.267700	0.737300
N21	N2	0.998700	0.067000	0.773100
