data_QABKIQ_freeONLY_PM
_symmetry_space_group_name_H-M	'P1'
_cell_length_a	10.501400
_cell_length_b	10.501400
_cell_length_c	21.470000
_cell_angle_alpha	90.000000
_cell_angle_beta	90.000000
_cell_angle_gamma	90.000000
_symmetry_Int_Tables_number 1

loop_
_symmetry_equiv_pos_as_xyz
'x,y,z'

loop_
_atom_site_label
_atom_site_type_symbol
_atom_site_fract_x
_atom_site_fract_y
_atom_site_fract_z
F11	F1	0.651170	0.746540	0.384420
N11	N1	0.505200	0.035150	0.380190
C11	C1	0.503330	0.925940	0.381990
F21	F2	0.151170	0.246540	0.884420
N21	N2	0.005200	0.535150	0.880190
C21	C2	0.003330	0.425940	0.881990
F31	F3	0.848830	0.253460	0.884420
N31	N3	0.994800	0.964850	0.880190
C31	C3	0.996670	0.074060	0.881990
F41	F4	0.348830	0.753460	0.384420
N41	N4	0.494800	0.464850	0.380190
C41	C4	0.496670	0.574060	0.381990
F51	F5	0.003460	0.901170	0.634420
N51	N5	0.714850	0.755200	0.630190
C51	C5	0.824060	0.753330	0.631990
F61	F6	0.503460	0.401170	0.134420
N61	N6	0.214850	0.255200	0.130190
C61	C6	0.324060	0.253330	0.131990
F71	F7	0.496540	0.098830	0.134420
N71	N7	0.785150	0.244800	0.130190
C71	C7	0.675940	0.246670	0.131990
F81	F8	0.996540	0.598830	0.634420
N81	N8	0.285150	0.744800	0.630190
C81	C8	0.175940	0.746670	0.631990
F91	F9	0.348830	0.253460	0.615580
N91	N9	0.494800	0.964850	0.619810
C91	C9	0.496670	0.074060	0.618010
F101	F10	0.848830	0.753460	0.115580
N101	N10	0.994800	0.464850	0.119810
C101	C10	0.996670	0.574060	0.118010
F111	F11	0.151170	0.746540	0.115580
N111	N11	0.005200	0.035150	0.119810
C111	C11	0.003330	0.925940	0.118010
F121	F12	0.651170	0.246540	0.615580
N121	N12	0.505200	0.535150	0.619810
C121	C12	0.503330	0.425940	0.618010
F131	F13	0.996540	0.098830	0.365580
N131	N13	0.285150	0.244800	0.369810
C131	C13	0.175940	0.246670	0.368010
F141	F14	0.496540	0.598830	0.865580
N141	N14	0.785150	0.744800	0.869810
C141	C14	0.675940	0.746670	0.868010
F151	F15	0.503460	0.901170	0.865580
N151	N15	0.214850	0.755200	0.869810
C151	C15	0.324060	0.753330	0.868010
F161	F16	0.003460	0.401170	0.365580
N161	N16	0.714850	0.255200	0.369810
C161	C16	0.824060	0.253330	0.368010
Li11	Li1	0.500000	0.250000	0.375000
Li21	Li2	0.000000	0.750000	0.875000
Li31	Li3	0.500000	0.750000	0.625000
Li41	Li4	0.000000	0.250000	0.125000
P11	P1	0.500000	0.750000	0.382730
F171	F17	0.500000	0.750000	0.309240
N171	N17	0.500000	0.750000	0.522000
C171	C17	0.500000	0.750000	0.468560
P21	P2	0.000000	0.250000	0.882730
F181	F18	0.000000	0.250000	0.809240
N181	N18	0.000000	0.250000	0.022000
C181	C18	0.000000	0.250000	0.968560
P31	P3	0.000000	0.750000	0.632730
F191	F19	0.000000	0.750000	0.559240
N191	N19	0.000000	0.750000	0.772000
C191	C19	0.000000	0.750000	0.718560
P41	P4	0.500000	0.250000	0.132730
F201	F20	0.500000	0.250000	0.059240
N201	N20	0.500000	0.250000	0.272000
C201	C20	0.500000	0.250000	0.218560
P51	P5	0.500000	0.250000	0.617270
F211	F21	0.500000	0.250000	0.690760
N211	N21	0.500000	0.250000	0.478000
C211	C21	0.500000	0.250000	0.531440
P61	P6	0.000000	0.750000	0.117270
F221	F22	0.000000	0.750000	0.190760
N221	N22	0.000000	0.750000	0.978000
C221	C22	0.000000	0.750000	0.031440
P71	P7	0.000000	0.250000	0.367270
F231	F23	0.000000	0.250000	0.440760
N231	N23	0.000000	0.250000	0.228000
C231	C23	0.000000	0.250000	0.281440
P81	P8	0.500000	0.750000	0.867270
F241	F24	0.500000	0.750000	0.940760
N241	N24	0.500000	0.750000	0.728000
C241	C24	0.500000	0.750000	0.781440
