data_QAJKAO_freeONLY_PM
_symmetry_space_group_name_H-M	'P1'
_cell_length_a	13.467800
_cell_length_b	13.467800
_cell_length_c	18.317100
_cell_angle_alpha	90.000000
_cell_angle_beta	90.000000
_cell_angle_gamma	120.000000
_symmetry_Int_Tables_number 1

loop_
_symmetry_equiv_pos_as_xyz
'x,y,z'

loop_
_atom_site_label
_atom_site_type_symbol
_atom_site_fract_x
_atom_site_fract_y
_atom_site_fract_z
V11	V1	0.435290	0.143320	0.458230
P11	P1	0.188320	0.029280	0.371150
H11	H1	0.193000	0.932000	0.347000
P21	P2	0.496050	0.369720	0.554320
H21	H2	0.501000	0.313000	0.620000
O11	O1	0.308800	0.124000	0.391680
O21	O2	0.433100	0.282500	0.493940
O31	O3	0.619100	0.453300	0.535040
O41	O4	0.428500	0.427500	0.576500
O51	O5	0.552900	0.227600	0.383960
O61	O6	0.310400	0.054600	0.537950
H31	H3	0.284000	0.993000	0.532000
H41	H4	0.257900	0.071200	0.544600
O71	O7	0.111500	0.978600	0.438330
O81	O8	0.141100	0.074800	0.312730
V21	V2	0.856680	0.291970	0.458230
P31	P3	0.970720	0.159040	0.371150
H51	H5	0.068000	0.261000	0.347000
P41	P4	0.630280	0.126330	0.554320
H61	H6	0.687000	0.188000	0.620000
O91	O9	0.876000	0.184800	0.391680
O101	O10	0.717500	0.150600	0.493940
O111	O11	0.546700	0.165800	0.535040
O121	O12	0.572500	0.001000	0.576500
O131	O13	0.772400	0.325300	0.383960
O141	O14	0.945400	0.255800	0.537950
H71	H7	0.007000	0.291000	0.532000
H81	H8	0.928800	0.186700	0.544600
O151	O15	0.021400	0.132900	0.438330
O161	O16	0.925200	0.066300	0.312730
V31	V3	0.708030	0.564710	0.458230
P51	P5	0.840960	0.811680	0.371150
H91	H9	0.739000	0.807000	0.347000
P61	P6	0.873670	0.503950	0.554320
H101	H10	0.812000	0.499000	0.620000
O171	O17	0.815200	0.691200	0.391680
O181	O18	0.849400	0.566900	0.493940
O191	O19	0.834200	0.380900	0.535040
O201	O20	0.999000	0.571500	0.576500
O211	O21	0.674700	0.447100	0.383960
O221	O22	0.744200	0.689600	0.537950
H111	H11	0.709000	0.716000	0.532000
H121	H12	0.813300	0.742100	0.544600
O231	O23	0.867100	0.888500	0.438330
O241	O24	0.933700	0.858900	0.312730
V41	V4	0.143320	0.435290	0.041770
P71	P7	0.029280	0.188320	0.128850
H131	H13	0.932000	0.193000	0.153000
P81	P8	0.369720	0.496050	0.945680
H141	H14	0.313000	0.501000	0.880000
O251	O25	0.124000	0.308800	0.108320
O261	O26	0.282500	0.433100	0.006060
O271	O27	0.453300	0.619100	0.964960
O281	O28	0.427500	0.428500	0.923500
O291	O29	0.227600	0.552900	0.116040
O301	O30	0.054600	0.310400	0.962050
H151	H15	0.993000	0.284000	0.968000
H161	H16	0.071200	0.257900	0.955400
O311	O31	0.978600	0.111500	0.061670
O321	O32	0.074800	0.141100	0.187270
V51	V5	0.291970	0.856680	0.041770
P91	P9	0.159040	0.970720	0.128850
H171	H17	0.261000	0.068000	0.153000
P101	P10	0.126330	0.630280	0.945680
H181	H18	0.188000	0.687000	0.880000
O331	O33	0.184800	0.876000	0.108320
O341	O34	0.150600	0.717500	0.006060
O351	O35	0.165800	0.546700	0.964960
O361	O36	0.001000	0.572500	0.923500
O371	O37	0.325300	0.772400	0.116040
O381	O38	0.255800	0.945400	0.962050
H191	H19	0.291000	0.007000	0.968000
H201	H20	0.186700	0.928800	0.955400
O391	O39	0.132900	0.021400	0.061670
O401	O40	0.066300	0.925200	0.187270
V61	V6	0.564710	0.708030	0.041770
P111	P11	0.811680	0.840960	0.128850
H211	H21	0.807000	0.739000	0.153000
P121	P12	0.503950	0.873670	0.945680
H221	H22	0.499000	0.812000	0.880000
O411	O41	0.691200	0.815200	0.108320
O421	O42	0.566900	0.849400	0.006060
O431	O43	0.380900	0.834200	0.964960
O441	O44	0.571500	0.999000	0.923500
O451	O45	0.447100	0.674700	0.116040
O461	O46	0.689600	0.744200	0.962050
H231	H23	0.716000	0.709000	0.968000
H241	H24	0.742100	0.813300	0.955400
O471	O47	0.888500	0.867100	0.061670
O481	O48	0.858900	0.933700	0.187270
V71	V7	0.564710	0.856680	0.541770
P131	P13	0.811680	0.970720	0.628850
H251	H25	0.807000	0.068000	0.653000
P141	P14	0.503950	0.630280	0.445680
H261	H26	0.499000	0.687000	0.380000
O491	O49	0.691200	0.876000	0.608320
O501	O50	0.566900	0.717500	0.506060
O511	O51	0.380900	0.546700	0.464960
O521	O52	0.571500	0.572500	0.423500
O531	O53	0.447100	0.772400	0.616040
O541	O54	0.689600	0.945400	0.462050
H271	H27	0.716000	0.007000	0.468000
H281	H28	0.742100	0.928800	0.455400
O551	O55	0.888500	0.021400	0.561670
O561	O56	0.858900	0.925200	0.687270
V81	V8	0.143320	0.708030	0.541770
P151	P15	0.029280	0.840960	0.628850
H291	H29	0.932000	0.739000	0.653000
P161	P16	0.369720	0.873670	0.445680
H301	H30	0.313000	0.812000	0.380000
O571	O57	0.124000	0.815200	0.608320
O581	O58	0.282500	0.849400	0.506060
O591	O59	0.453300	0.834200	0.464960
O601	O60	0.427500	0.999000	0.423500
O611	O61	0.227600	0.674700	0.616040
O621	O62	0.054600	0.744200	0.462050
H311	H31	0.993000	0.709000	0.468000
H321	H32	0.071200	0.813300	0.455400
O631	O63	0.978600	0.867100	0.561670
O641	O64	0.074800	0.933700	0.687270
V91	V9	0.291970	0.435290	0.541770
P171	P17	0.159040	0.188320	0.628850
H331	H33	0.261000	0.193000	0.653000
P181	P18	0.126330	0.496050	0.445680
H341	H34	0.188000	0.501000	0.380000
O651	O65	0.184800	0.308800	0.608320
O661	O66	0.150600	0.433100	0.506060
O671	O67	0.165800	0.619100	0.464960
O681	O68	0.001000	0.428500	0.423500
O691	O69	0.325300	0.552900	0.616040
O701	O70	0.255800	0.310400	0.462050
H351	H35	0.291000	0.284000	0.468000
H361	H36	0.186700	0.257900	0.455400
O711	O71	0.132900	0.111500	0.561670
O721	O72	0.066300	0.141100	0.687270
V101	V10	0.856680	0.564710	0.958230
P191	P19	0.970720	0.811680	0.871150
H371	H37	0.068000	0.807000	0.847000
P201	P20	0.630280	0.503950	0.054320
H381	H38	0.687000	0.499000	0.120000
O731	O73	0.876000	0.691200	0.891680
O741	O74	0.717500	0.566900	0.993940
O751	O75	0.546700	0.380900	0.035040
O761	O76	0.572500	0.571500	0.076500
O771	O77	0.772400	0.447100	0.883960
O781	O78	0.945400	0.689600	0.037950
H391	H39	0.007000	0.716000	0.032000
H401	H40	0.928800	0.742100	0.044600
O791	O79	0.021400	0.888500	0.938330
O801	O80	0.925200	0.858900	0.812730
V111	V11	0.708030	0.143320	0.958230
P211	P21	0.840960	0.029280	0.871150
H411	H41	0.739000	0.932000	0.847000
P221	P22	0.873670	0.369720	0.054320
H421	H42	0.812000	0.313000	0.120000
O811	O81	0.815200	0.124000	0.891680
O821	O82	0.849400	0.282500	0.993940
O831	O83	0.834200	0.453300	0.035040
O841	O84	0.999000	0.427500	0.076500
O851	O85	0.674700	0.227600	0.883960
O861	O86	0.744200	0.054600	0.037950
H431	H43	0.709000	0.993000	0.032000
H441	H44	0.813300	0.071200	0.044600
O871	O87	0.867100	0.978600	0.938330
O881	O88	0.933700	0.074800	0.812730
V121	V12	0.435290	0.291970	0.958230
P231	P23	0.188320	0.159040	0.871150
H451	H45	0.193000	0.261000	0.847000
P241	P24	0.496050	0.126330	0.054320
H461	H46	0.501000	0.188000	0.120000
O891	O89	0.308800	0.184800	0.891680
O901	O90	0.433100	0.150600	0.993940
O911	O91	0.619100	0.165800	0.035040
O921	O92	0.428500	0.001000	0.076500
O931	O93	0.552900	0.325300	0.883960
O941	O94	0.310400	0.255800	0.037950
H471	H47	0.284000	0.291000	0.032000
H481	H48	0.257900	0.186700	0.044600
O951	O95	0.111500	0.132900	0.938330
O961	O96	0.141100	0.066300	0.812730
V131	V13	0.000000	0.000000	0.500000
V141	V14	0.000000	0.000000	0.000000
V151	V15	0.000000	0.000000	0.250000
V161	V16	0.000000	0.000000	0.750000
P251	P25	0.666670	0.333330	0.363310
H491	H49	0.666670	0.333330	0.291230
P261	P26	0.333330	0.666670	0.136690
H501	H50	0.333330	0.666670	0.208770
P271	P27	0.333330	0.666670	0.636690
H511	H51	0.333330	0.666670	0.708770
P281	P28	0.666670	0.333330	0.863310
H521	H52	0.666670	0.333330	0.791230
