data_QARTAG_freeONLY_PM
_symmetry_space_group_name_H-M	'P1'
_cell_length_a	11.060300
_cell_length_b	16.322000
_cell_length_c	19.472300
_cell_angle_alpha	65.763800
_cell_angle_beta	73.500800
_cell_angle_gamma	70.195200
_symmetry_Int_Tables_number 1

loop_
_symmetry_equiv_pos_as_xyz
'x,y,z'

loop_
_atom_site_label
_atom_site_type_symbol
_atom_site_fract_x
_atom_site_fract_y
_atom_site_fract_z
Cd11	Cd1	0.001600	0.408260	0.474760
Cd21	Cd2	0.884620	0.091740	0.025240
Cd31	Cd3	0.998400	0.591740	0.525240
Cd41	Cd4	0.115380	0.908260	0.974760
Cd51	Cd5	0.818460	0.250000	0.750000
Cd61	Cd6	0.181540	0.750000	0.250000
H11	H1	0.750400	0.736100	0.690300
H21	H2	0.569300	0.451900	0.696100
H31	H3	0.318200	0.573700	0.792500
H41	H4	0.358500	0.493300	0.759700
H51	H5	0.317800	0.432800	0.892200
H61	H6	0.465100	0.393300	0.863100
H71	H7	0.424300	0.473800	0.895800
H81	H8	0.515500	0.856300	0.837300
H91	H9	0.362900	0.886700	0.846900
H101	H10	0.420600	0.901600	0.945600
H111	H11	0.506600	0.798600	0.968400
H121	H12	0.405600	0.671000	0.024200
H131	H13	0.253100	0.690100	0.039700
H141	H14	0.248600	0.744400	0.910400
H151	H15	0.346900	0.645700	0.931300
H161	H16	0.585000	0.932600	0.557400
H171	H17	0.741800	0.842100	0.493300
H181	H18	0.494700	0.690200	0.532600
H191	H19	0.339100	0.778600	0.599200
H201	H20	0.447300	0.952200	0.673600
H211	H21	0.284300	0.056900	0.722500
H221	H22	0.028800	0.033600	0.624800
H231	H23	0.192000	0.928900	0.575900
H241	H24	0.941800	0.556400	0.345400
H251	H25	0.829400	0.576100	0.393100
H261	H26	0.571000	0.219000	0.787400
H271	H27	0.176800	0.763900	0.809700
H281	H28	0.717300	0.048100	0.803900
H291	H29	0.684400	0.926300	0.707500
H301	H30	0.611500	0.006700	0.740300
H311	H31	0.642800	0.067200	0.607800
H321	H32	0.721500	0.106700	0.636900
H331	H33	0.793900	0.026200	0.604200
H341	H34	0.209100	0.643700	0.662700
H351	H35	0.096500	0.613300	0.653100
H361	H36	0.267800	0.598400	0.554400
H371	H37	0.273600	0.701400	0.531600
H381	H38	0.100800	0.829000	0.475800
H391	H39	0.982900	0.809900	0.460300
H401	H40	0.903400	0.755600	0.589600
H411	H41	0.923900	0.854300	0.568700
H421	H42	0.075000	0.567400	0.942600
H431	H43	0.077200	0.657900	0.006700
H441	H44	0.717500	0.809800	0.967400
H451	H45	0.716900	0.721400	0.900800
H461	H46	0.073100	0.547800	0.826400
H471	H47	0.063700	0.443100	0.777500
H481	H48	0.687200	0.466400	0.875200
H491	H49	0.696800	0.571100	0.924100
H501	H50	0.843600	0.943600	0.154600
H511	H51	0.798600	0.923900	0.106900
H521	H52	0.577400	0.281000	0.712600
H531	H53	0.249600	0.263900	0.309700
H541	H54	0.430700	0.548100	0.303900
H551	H55	0.681800	0.426300	0.207500
H561	H56	0.641500	0.506700	0.240300
H571	H57	0.682200	0.567200	0.107800
H581	H58	0.534900	0.606700	0.136900
H591	H59	0.575700	0.526200	0.104200
H601	H60	0.484500	0.143700	0.162700
H611	H61	0.637100	0.113300	0.153100
H621	H62	0.579400	0.098400	0.054400
H631	H63	0.493400	0.201400	0.031600
H641	H64	0.594400	0.329000	0.975800
H651	H65	0.746900	0.309900	0.960300
H661	H66	0.751400	0.255600	0.089600
H671	H67	0.653100	0.354300	0.068700
H681	H68	0.415000	0.067400	0.442600
H691	H69	0.258200	0.157900	0.506700
H701	H70	0.505300	0.309800	0.467400
H711	H71	0.660900	0.221400	0.400800
H721	H72	0.552700	0.047800	0.326400
H731	H73	0.715700	0.943100	0.277500
H741	H74	0.971200	0.966400	0.375200
H751	H75	0.808000	0.071100	0.424100
H761	H76	0.058200	0.443600	0.654600
H771	H77	0.170600	0.423900	0.606900
H781	H78	0.429000	0.781000	0.212600
H791	H79	0.823200	0.236100	0.190300
H801	H80	0.282700	0.951900	0.196100
H811	H81	0.315600	0.073700	0.292500
H821	H82	0.388500	0.993300	0.259700
H831	H83	0.357200	0.932800	0.392200
H841	H84	0.278500	0.893300	0.363100
H851	H85	0.206100	0.973800	0.395800
H861	H86	0.790900	0.356300	0.337300
H871	H87	0.903500	0.386700	0.346900
H881	H88	0.732200	0.401600	0.445600
H891	H89	0.726400	0.298600	0.468400
H901	H90	0.899200	0.171000	0.524200
H911	H91	0.017100	0.190100	0.539700
H921	H92	0.096600	0.244400	0.410400
H931	H93	0.076100	0.145700	0.431300
H941	H94	0.925000	0.432600	0.057400
H951	H95	0.922800	0.342100	0.993300
H961	H96	0.282500	0.190200	0.032600
H971	H97	0.283100	0.278600	0.099200
H981	H98	0.926900	0.452200	0.173600
H991	H99	0.936300	0.556900	0.222500
H1001	H100	0.312800	0.533600	0.124800
H1011	H101	0.303200	0.428900	0.075900
H1021	H102	0.156400	0.056400	0.845400
H1031	H103	0.201400	0.076100	0.893100
H1041	H104	0.422600	0.719000	0.287400
C11	C1	0.789560	0.456590	0.611890
C21	C2	0.708990	0.518670	0.656730
C31	C3	0.747580	0.591630	0.660970
C41	C4	0.657170	0.639720	0.710840
C51	C5	0.678240	0.714120	0.720420
C61	C6	0.501220	0.717450	0.814110
C71	C7	0.542380	0.613870	0.755110
C81	C8	0.592600	0.499730	0.699330
C91	C9	0.385710	0.518690	0.788250
C101	C10	0.399490	0.448280	0.866940
C111	C11	0.436230	0.839930	0.869410
C121	C12	0.427870	0.839360	0.948320
C131	C13	0.326740	0.712070	0.004450
C141	C14	0.331620	0.709480	0.927440
C151	C15	0.566230	0.884400	0.552020
C161	C16	0.660080	0.830040	0.513620
C171	C17	0.634790	0.757830	0.504850
C181	C18	0.512970	0.739110	0.537350
C191	C19	0.419210	0.792750	0.576630
C201	C20	0.442500	0.867140	0.582960
C211	C21	0.337870	0.930290	0.618890
C221	C22	0.363440	0.968740	0.663380
C231	C23	0.265790	0.031480	0.692940
C241	C24	0.139220	0.056450	0.678030
C251	C25	0.113010	0.017550	0.634470
C261	C26	0.210970	0.954750	0.604990
C271	C27	0.735430	0.700220	0.460920
C281	C28	0.032200	0.124500	0.709500
C291	C29	0.858040	0.043410	0.888110
C301	C30	0.884390	0.981330	0.843270
C311	C31	0.000180	0.908370	0.839030
C321	C32	0.007730	0.860280	0.789160
C331	C33	0.112780	0.785880	0.779580
C341	C34	0.032780	0.782550	0.685890
C351	C35	0.911360	0.886130	0.744890
C361	C36	0.791660	0.000270	0.800670
C371	C37	0.692650	0.981310	0.711750
C381	C38	0.714710	0.051720	0.633060
C391	C39	0.145570	0.660070	0.630590
C401	C40	0.215550	0.660640	0.551680
C411	C41	0.043260	0.787930	0.495550
C421	C42	0.968540	0.790520	0.572560
C431	C43	0.002650	0.615600	0.947980
C441	C44	0.003740	0.669960	0.986380
C451	C45	0.897470	0.742170	0.995150
C461	C46	0.789430	0.760890	0.962650
C471	C47	0.788590	0.707250	0.923370
C481	C48	0.892600	0.632860	0.917040
C491	C49	0.887050	0.569710	0.881110
C501	C50	0.995560	0.531260	0.836620
C511	C51	0.990210	0.468520	0.807060
C521	C52	0.873700	0.443550	0.821970
C531	C53	0.765030	0.482450	0.865530
C541	C54	0.770710	0.545250	0.895010
C551	C55	0.896570	0.799780	0.039080
C561	C56	0.866200	0.375500	0.790500
C571	C57	0.210440	0.543410	0.388110
C581	C58	0.291010	0.481330	0.343270
C591	C59	0.252420	0.408370	0.339030
C601	C60	0.342830	0.360280	0.289160
C611	C61	0.321760	0.285880	0.279580
C621	C62	0.498780	0.282550	0.185890
C631	C63	0.457620	0.386130	0.244890
C641	C64	0.407400	0.500270	0.300670
C651	C65	0.614290	0.481310	0.211750
C661	C66	0.600510	0.551720	0.133060
C671	C67	0.563770	0.160070	0.130590
C681	C68	0.572130	0.160640	0.051680
C691	C69	0.673260	0.287930	0.995550
C701	C70	0.668380	0.290520	0.072560
C711	C71	0.433770	0.115600	0.447980
C721	C72	0.339920	0.169960	0.486380
C731	C73	0.365210	0.242170	0.495150
C741	C74	0.487030	0.260890	0.462650
C751	C75	0.580790	0.207250	0.423370
C761	C76	0.557500	0.132860	0.417040
C771	C77	0.662130	0.069710	0.381110
C781	C78	0.636560	0.031260	0.336620
C791	C79	0.734210	0.968520	0.307060
C801	C80	0.860780	0.943550	0.321970
C811	C81	0.886990	0.982450	0.365530
C821	C82	0.789030	0.045250	0.395010
C831	C83	0.264570	0.299780	0.539080
C841	C84	0.967800	0.875500	0.290500
C851	C85	0.141960	0.956590	0.111890
C861	C86	0.115610	0.018670	0.156730
C871	C87	0.999820	0.091630	0.160970
C881	C88	0.992270	0.139720	0.210840
C891	C89	0.887220	0.214120	0.220420
C901	C90	0.967220	0.217450	0.314110
C911	C91	0.088640	0.113870	0.255110
C921	C92	0.208340	0.999730	0.199330
C931	C93	0.307350	0.018690	0.288250
C941	C94	0.285290	0.948280	0.366940
C951	C95	0.854430	0.339930	0.369410
C961	C96	0.784450	0.339360	0.448320
C971	C97	0.956740	0.212070	0.504450
C981	C98	0.031460	0.209480	0.427440
C991	C99	0.997350	0.384400	0.052020
C1001	C100	0.996260	0.330040	0.013620
C1011	C101	0.102530	0.257830	0.004850
C1021	C102	0.210570	0.239110	0.037350
C1031	C103	0.211410	0.292750	0.076630
C1041	C104	0.107400	0.367140	0.082960
C1051	C105	0.112950	0.430290	0.118890
C1061	C106	0.004440	0.468740	0.163380
C1071	C107	0.009790	0.531480	0.192940
C1081	C108	0.126300	0.556450	0.178030
C1091	C109	0.234970	0.517550	0.134470
C1101	C110	0.229290	0.454750	0.104990
C1111	C111	0.103430	0.200220	0.960920
C1121	C112	0.133800	0.624500	0.209500
N11	N1	0.314210	0.807320	0.999260
N21	N2	0.435700	0.749230	0.871790
N31	N3	0.602840	0.754830	0.769050
N41	N4	0.464380	0.651640	0.806460
N51	N5	0.509620	0.545540	0.745620
N61	N6	0.120790	0.692680	0.500740
N71	N7	0.056720	0.750770	0.628210
N81	N8	0.126720	0.745170	0.730950
N91	N9	0.922480	0.848360	0.693540
N101	N10	0.800780	0.954460	0.754380
N111	N11	0.685790	0.192680	0.000740
N121	N12	0.564300	0.250770	0.128210
N131	N13	0.397160	0.245170	0.230950
N141	N14	0.535620	0.348360	0.193540
N151	N15	0.490380	0.454460	0.254380
N161	N16	0.879210	0.307320	0.499260
N171	N17	0.943280	0.249230	0.371790
N181	N18	0.873280	0.254830	0.269050
N191	N19	0.077520	0.151640	0.306460
N201	N20	0.199220	0.045540	0.245620
O11	O1	0.768110	0.379240	0.630200
O21	O2	0.875430	0.486090	0.555510
O31	O3	0.887760	0.531890	0.382610
O41	O4	0.853040	0.614400	0.628240
O51	O5	0.853110	0.701600	0.450920
O61	O6	0.697700	0.655280	0.436640
O71	O7	0.929060	0.160670	0.680750
O81	O8	0.046830	0.141500	0.763160
O91	O9	0.777550	0.120760	0.869800
O101	O10	0.917030	0.013910	0.944490
O111	O11	0.802260	0.968110	0.117390
O121	O12	0.095680	0.885600	0.871760
O131	O13	0.005630	0.798400	0.049080
O141	O14	0.789620	0.844720	0.063360
O151	O15	0.770480	0.339330	0.819250
O161	O16	0.951490	0.358500	0.736840
O171	O17	0.231890	0.620760	0.369800
O181	O18	0.124570	0.513910	0.444490
O191	O19	0.112240	0.468110	0.617390
O201	O20	0.146960	0.385600	0.371760
O211	O21	0.146890	0.298400	0.549080
O221	O22	0.302300	0.344720	0.563360
O231	O23	0.070940	0.839330	0.319250
O241	O24	0.953170	0.858500	0.236840
O251	O25	0.222450	0.879240	0.130200
O261	O26	0.082970	0.986090	0.055510
O271	O27	0.197740	0.031890	0.882610
O281	O28	0.904320	0.114400	0.128240
O291	O29	0.994370	0.201600	0.950920
O301	O30	0.210380	0.155280	0.936640
O311	O31	0.229520	0.660670	0.180750
O321	O32	0.048510	0.641500	0.263160
O331	O33	0.612500	0.250000	0.750000
O341	O34	0.387500	0.750000	0.250000
