data_QASSUZ_freeONLY_PM
_symmetry_space_group_name_H-M	'P1'
_cell_length_a	12.464800
_cell_length_b	20.883000
_cell_length_c	20.883000
_cell_angle_alpha	120.000000
_cell_angle_beta	90.000000
_cell_angle_gamma	90.000000
_symmetry_Int_Tables_number 1

loop_
_symmetry_equiv_pos_as_xyz
'x,y,z'

loop_
_atom_site_label
_atom_site_type_symbol
_atom_site_fract_x
_atom_site_fract_y
_atom_site_fract_z
K11	K1	0.721950	0.631390	0.040450
K21	K2	0.611070	0.519820	0.625520
K31	K3	0.371300	0.194500	0.350000
K41	K4	0.055280	0.409060	0.368610
K51	K5	0.944400	0.105700	0.480180
K61	K6	0.704630	0.155500	0.805500
K71	K7	0.388620	0.959550	0.590940
K81	K8	0.277740	0.374480	0.894300
K91	K9	0.037970	0.650000	0.844500
K101	K10	0.278050	0.590940	0.959550
K111	K11	0.388930	0.894300	0.374480
K121	K12	0.628700	0.844500	0.650000
K131	K13	0.944720	0.040450	0.631390
K141	K14	0.055600	0.625520	0.519820
K151	K15	0.295370	0.350000	0.194500
K161	K16	0.611380	0.368610	0.409060
K171	K17	0.722260	0.480180	0.105700
K181	K18	0.962030	0.805500	0.155500
K191	K19	0.000000	0.458100	0.000000
K201	K20	0.333330	0.541900	0.541900
K211	K21	0.666670	0.000000	0.458100
Fe11	Fe1	0.536260	0.492580	0.914850
Fe21	Fe2	0.869590	0.422270	0.507420
Fe31	Fe3	0.202930	0.085150	0.577730
Fe41	Fe4	0.463740	0.577730	0.085150
Fe51	Fe5	0.130410	0.914850	0.492580
Fe61	Fe6	0.797070	0.507420	0.422270
H11	H1	0.693000	0.410000	0.732100
H21	H2	0.762300	0.445100	0.804500
H31	H3	0.746700	0.340000	0.810400
H41	H4	0.644100	0.326200	0.845500
H51	H5	0.498200	0.330700	0.780500
H61	H6	0.581300	0.314900	0.717900
H71	H7	0.290200	0.525400	0.789900
H81	H8	0.281700	0.487600	0.667500
H91	H9	0.512100	0.336900	0.624700
H101	H10	0.026330	0.322100	0.590000
H111	H11	0.095630	0.359400	0.554900
H121	H12	0.080030	0.470400	0.660000
H131	H13	0.977430	0.519300	0.673800
H141	H14	0.831530	0.449800	0.669300
H151	H15	0.914630	0.403000	0.685100
H161	H16	0.623530	0.264500	0.474600
H171	H17	0.615030	0.179900	0.512400
H181	H18	0.845430	0.287800	0.663100
H191	H19	0.359670	0.267900	0.677900
H201	H20	0.428970	0.195500	0.640600
H211	H21	0.413370	0.189600	0.529600
H221	H22	0.310770	0.154500	0.480700
H231	H23	0.164870	0.219500	0.550200
H241	H24	0.247970	0.282100	0.597000
H251	H25	0.956870	0.210100	0.735500
H261	H26	0.948370	0.332500	0.820100
H271	H27	0.178770	0.375300	0.712200
H281	H28	0.307000	0.677900	0.267900
H291	H29	0.237700	0.640600	0.195500
H301	H30	0.253300	0.529600	0.189600
H311	H31	0.355900	0.480700	0.154500
H321	H32	0.501800	0.550200	0.219500
H331	H33	0.418700	0.597000	0.282100
H341	H34	0.709800	0.735500	0.210100
H351	H35	0.718300	0.820100	0.332500
H361	H36	0.487900	0.712200	0.375300
H371	H37	0.973670	0.732100	0.410000
H381	H38	0.904370	0.804500	0.445100
H391	H39	0.919970	0.810400	0.340000
H401	H40	0.022570	0.845500	0.326200
H411	H41	0.168470	0.780500	0.330700
H421	H42	0.085370	0.717900	0.314900
H431	H43	0.376470	0.789900	0.525400
H441	H44	0.384970	0.667500	0.487600
H451	H45	0.154570	0.624700	0.336900
H461	H46	0.640330	0.590000	0.322100
H471	H47	0.571030	0.554900	0.359400
H481	H48	0.586630	0.660000	0.470400
H491	H49	0.689230	0.673800	0.519300
H501	H50	0.835130	0.669300	0.449800
H511	H51	0.752030	0.685100	0.403000
H521	H52	0.043130	0.474600	0.264500
H531	H53	0.051630	0.512400	0.179900
H541	H54	0.821230	0.663100	0.287800
C11	C1	0.690000	0.440700	0.785500
C21	C2	0.649200	0.516700	0.805400
C31	C3	0.687000	0.364000	0.843700
C41	C4	0.729200	0.418200	0.920900
C51	C5	0.542500	0.353700	0.759400
C61	C6	0.470800	0.393820	0.732020
C71	C7	0.404400	0.452200	0.784400
C81	C8	0.333800	0.486700	0.756900
C91	C9	0.329000	0.464500	0.684000
C101	C10	0.394200	0.407200	0.633100
C111	C11	0.466400	0.373600	0.658240
C121	C12	0.183000	0.677000	0.737400
C131	C13	0.023330	0.344800	0.559300
C141	C14	0.982530	0.288700	0.483300
C151	C15	0.020330	0.479700	0.636000
C161	C16	0.062530	0.502700	0.581800
C171	C17	0.875830	0.405700	0.646300
C181	C18	0.804130	0.338200	0.606180
C191	C19	0.737730	0.332200	0.547800
C201	C20	0.667130	0.270200	0.513300
C211	C21	0.662330	0.219500	0.535500
C221	C22	0.727530	0.225900	0.592800
C231	C23	0.799730	0.284640	0.626400
C241	C24	0.516330	0.060400	0.323000
C251	C25	0.356670	0.214500	0.655200
C261	C26	0.315870	0.194600	0.711300
C271	C27	0.353670	0.156300	0.520300
C281	C28	0.395870	0.079100	0.497300
C291	C29	0.209170	0.240600	0.594300
C301	C30	0.137470	0.267980	0.661800
C311	C31	0.071070	0.215600	0.667800
C321	C32	0.000470	0.243100	0.729800
C331	C33	0.995670	0.316000	0.780500
C341	C34	0.060870	0.366900	0.774100
C351	C35	0.133070	0.341760	0.715360
C361	C36	0.849670	0.262600	0.939600
C371	C37	0.310000	0.655200	0.214500
C381	C38	0.350800	0.711300	0.194600
C391	C39	0.313000	0.520300	0.156300
C401	C40	0.270800	0.497300	0.079100
C411	C41	0.457500	0.594300	0.240600
C421	C42	0.529200	0.661800	0.267980
C431	C43	0.595600	0.667800	0.215600
C441	C44	0.666200	0.729800	0.243100
C451	C45	0.671000	0.780500	0.316000
C461	C46	0.605800	0.774100	0.366900
C471	C47	0.533600	0.715360	0.341760
C481	C48	0.817000	0.939600	0.262600
C491	C49	0.976670	0.785500	0.440700
C501	C50	0.017470	0.805400	0.516700
C511	C51	0.979670	0.843700	0.364000
C521	C52	0.937470	0.920900	0.418200
C531	C53	0.124170	0.759400	0.353700
C541	C54	0.195870	0.732020	0.393820
C551	C55	0.262270	0.784400	0.452200
C561	C56	0.332870	0.756900	0.486700
C571	C57	0.337670	0.684000	0.464500
C581	C58	0.272470	0.633100	0.407200
C591	C59	0.200270	0.658240	0.373600
C601	C60	0.483670	0.737400	0.677000
C611	C61	0.643330	0.559300	0.344800
C621	C62	0.684130	0.483300	0.288700
C631	C63	0.646330	0.636000	0.479700
C641	C64	0.604130	0.581800	0.502700
C651	C65	0.790830	0.646300	0.405700
C661	C66	0.862530	0.606180	0.338200
C671	C67	0.928930	0.547800	0.332200
C681	C68	0.999530	0.513300	0.270200
C691	C69	0.004330	0.535500	0.219500
C701	C70	0.939130	0.592800	0.225900
C711	C71	0.866930	0.626400	0.284640
C721	C72	0.150330	0.323000	0.060400
C731	C73	0.500000	0.414600	0.000000
C741	C74	0.833330	0.585400	0.585400
C751	C75	0.166670	0.000000	0.414600
S11	S1	0.386760	0.379220	0.537640
S21	S2	0.720090	0.158420	0.620780
S31	S3	0.053430	0.462360	0.841580
S41	S4	0.613240	0.841580	0.462360
S51	S5	0.279910	0.537640	0.379220
S61	S6	0.946570	0.620780	0.158420
N11	N1	0.620600	0.404400	0.816010
N21	N2	0.953930	0.411610	0.595600
N31	N3	0.287270	0.183990	0.588390
N41	N4	0.379400	0.588390	0.183990
N51	N5	0.046070	0.816010	0.404400
N61	N6	0.712730	0.595600	0.411610
O11	O1	0.485000	0.414400	0.938920
O21	O2	0.597600	0.551150	0.866740
O31	O3	0.672000	0.541900	0.764940
O41	O4	0.687500	0.483260	0.953720
O51	O5	0.799200	0.397280	0.947860
O61	O6	0.404200	0.473010	0.855670
O71	O7	0.467900	0.422500	0.526440
O81	O8	0.279900	0.399100	0.526380
O91	O9	0.408500	0.300680	0.496050
O101	O10	0.086500	0.307000	0.919600
O111	O11	0.743400	0.773300	0.087600
O121	O12	0.551000	0.714500	0.036100
O131	O13	0.203800	0.635800	0.739900
O141	O14	0.901600	0.624300	0.958700
O151	O15	0.178200	0.135800	0.365500
O161	O16	0.390000	0.185000	0.220000
O171	O17	0.818330	0.524520	0.585600
O181	O18	0.930930	0.315590	0.448850
O191	O19	0.005330	0.223040	0.458100
O201	O20	0.020830	0.470460	0.516740
O211	O21	0.132530	0.550580	0.602720
O221	O22	0.737530	0.382660	0.526990
O231	O23	0.801230	0.103940	0.577500
O241	O24	0.613230	0.127280	0.600900
O251	O25	0.741830	0.195370	0.699320
O261	O26	0.419830	0.612600	0.693000
O271	O27	0.076730	0.314300	0.226700
O281	O28	0.884330	0.321600	0.285500
O291	O29	0.537130	0.104100	0.364200
O301	O30	0.234930	0.334400	0.375700
O311	O31	0.511530	0.229700	0.864200
O321	O32	0.723330	0.035000	0.815000
O331	O33	0.151670	0.061080	0.475480
O341	O34	0.264270	0.133260	0.684410
O351	O35	0.338670	0.235060	0.776960
O361	O36	0.354170	0.046280	0.529540
O371	O37	0.465870	0.052140	0.449420
O381	O38	0.070870	0.144330	0.617340
O391	O39	0.134570	0.473560	0.896060
O401	O40	0.946570	0.473620	0.872720
O411	O41	0.075170	0.503950	0.804630
O421	O42	0.753170	0.080400	0.387400
O431	O43	0.410070	0.912400	0.685700
O441	O44	0.217670	0.963900	0.678400
O451	O45	0.870470	0.260100	0.895900
O461	O46	0.568270	0.041300	0.665600
O471	O47	0.844870	0.634500	0.770300
O481	O48	0.056670	0.780000	0.965000
O491	O49	0.515000	0.475480	0.061080
O501	O50	0.402400	0.684410	0.133260
O511	O51	0.328000	0.776960	0.235060
O521	O52	0.312500	0.529540	0.046280
O531	O53	0.200800	0.449420	0.052140
O541	O54	0.595800	0.617340	0.144330
O551	O55	0.532100	0.896060	0.473560
O561	O56	0.720100	0.872720	0.473620
O571	O57	0.591500	0.804630	0.503950
O581	O58	0.913500	0.387400	0.080400
O591	O59	0.256600	0.685700	0.912400
O601	O60	0.449000	0.678400	0.963900
O611	O61	0.796200	0.895900	0.260100
O621	O62	0.098400	0.665600	0.041300
O631	O63	0.821800	0.770300	0.634500
O641	O64	0.610000	0.965000	0.780000
O651	O65	0.181670	0.938920	0.414400
O661	O66	0.069070	0.866740	0.551150
O671	O67	0.994670	0.764940	0.541900
O681	O68	0.979170	0.953720	0.483260
O691	O69	0.867470	0.947860	0.397280
O701	O70	0.262470	0.855670	0.473010
O711	O71	0.198770	0.526440	0.422500
O721	O72	0.386770	0.526380	0.399100
O731	O73	0.258170	0.496050	0.300680
O741	O74	0.580170	0.919600	0.307000
O751	O75	0.923270	0.087600	0.773300
O761	O76	0.115670	0.036100	0.714500
O771	O77	0.462870	0.739900	0.635800
O781	O78	0.765070	0.958700	0.624300
O791	O79	0.488470	0.365500	0.135800
O801	O80	0.276670	0.220000	0.185000
O811	O81	0.848330	0.585600	0.524520
O821	O82	0.735730	0.448850	0.315590
O831	O83	0.661330	0.458100	0.223040
O841	O84	0.645830	0.516740	0.470460
O851	O85	0.534130	0.602720	0.550580
O861	O86	0.929130	0.526990	0.382660
O871	O87	0.865430	0.577500	0.103940
O881	O88	0.053430	0.600900	0.127280
O891	O89	0.924830	0.699320	0.195370
O901	O90	0.246830	0.693000	0.612600
O911	O91	0.589930	0.226700	0.314300
O921	O92	0.782330	0.285500	0.321600
O931	O93	0.129530	0.364200	0.104100
O941	O94	0.431730	0.375700	0.334400
O951	O95	0.155130	0.864200	0.229700
O961	O96	0.943330	0.815000	0.035000
O971	O97	0.500000	0.577060	0.000000
O981	O98	0.500000	0.355000	0.000000
O991	O99	0.833330	0.422940	0.422940
O1001	O100	0.833330	0.645000	0.645000
O1011	O101	0.166670	0.000000	0.577060
O1021	O102	0.166670	0.000000	0.355000
