data_QATHOK_freeONLY_PM
_symmetry_space_group_name_H-M	'P1'
_cell_length_a	13.750600
_cell_length_b	17.867500
_cell_length_c	17.867500
_cell_angle_alpha	66.341200
_cell_angle_beta	75.135800
_cell_angle_gamma	104.864000
_symmetry_Int_Tables_number 1

loop_
_symmetry_equiv_pos_as_xyz
'x,y,z'

loop_
_atom_site_label
_atom_site_type_symbol
_atom_site_fract_x
_atom_site_fract_y
_atom_site_fract_z
Cd11	Cd1	0.920420	0.366540	0.227710
Cd21	Cd2	0.148130	0.227710	0.405750
Cd31	Cd3	0.553880	0.405750	0.366540
Cd41	Cd4	0.079580	0.633460	0.772290
Cd51	Cd5	0.851870	0.772290	0.594250
Cd61	Cd6	0.446120	0.594250	0.633460
H11	H1	0.794700	0.036700	0.468200
H21	H2	0.572100	0.063600	0.365800
H31	H3	0.677100	0.215400	0.283600
H41	H4	0.555200	0.915500	0.388700
H51	H5	0.639300	0.915200	0.587300
H61	H6	0.559400	0.760000	0.663100
H71	H7	0.059000	0.261400	0.180800
H81	H8	0.120800	0.218000	0.078900
H91	H9	0.101000	0.275900	0.946300
H101	H10	0.013500	0.369100	0.920400
H111	H11	0.939300	0.402200	0.032400
H121	H12	0.262900	0.468200	0.495100
H131	H13	0.937900	0.365800	0.570600
H141	H14	0.960700	0.283600	0.501000
H151	H15	0.943900	0.388700	0.695800
H161	H16	0.226600	0.587300	0.497500
H171	H17	0.222500	0.663100	0.576900
H181	H18	0.239800	0.180800	0.557800
H191	H19	0.199700	0.078900	0.703100
H201	H20	0.047300	0.946300	0.777800
H211	H21	0.933900	0.920400	0.710500
H221	H22	0.971700	0.032400	0.565400
H231	H23	0.758000	0.495100	0.036700
H241	H24	0.508500	0.570600	0.063600
H251	H25	0.461700	0.501000	0.215400
H261	H26	0.639700	0.695800	0.915500
H271	H27	0.724100	0.497500	0.915200
H281	H28	0.799400	0.576900	0.760000
H291	H29	0.797600	0.557800	0.261400
H301	H30	0.902800	0.703100	0.218000
H311	H31	0.825100	0.777800	0.275900
H321	H32	0.644400	0.710500	0.369100
H331	H33	0.537100	0.565400	0.402200
H341	H34	0.205300	0.963300	0.531800
H351	H35	0.427900	0.936400	0.634200
H361	H36	0.322900	0.784600	0.716400
H371	H37	0.444800	0.084500	0.611300
H381	H38	0.360700	0.084800	0.412700
H391	H39	0.440600	0.240000	0.336900
H401	H40	0.941000	0.738600	0.819200
H411	H41	0.879200	0.782000	0.921100
H421	H42	0.899000	0.724100	0.053700
H431	H43	0.986500	0.630900	0.079600
H441	H44	0.060700	0.597800	0.967600
H451	H45	0.737100	0.531800	0.504900
H461	H46	0.062100	0.634200	0.429400
H471	H47	0.039300	0.716400	0.499000
H481	H48	0.056100	0.611300	0.304200
H491	H49	0.773400	0.412700	0.502500
H501	H50	0.777500	0.336900	0.423100
H511	H51	0.760200	0.819200	0.442200
H521	H52	0.800300	0.921100	0.296900
H531	H53	0.952700	0.053700	0.222200
H541	H54	0.066100	0.079600	0.289500
H551	H55	0.028300	0.967600	0.434600
H561	H56	0.242000	0.504900	0.963300
H571	H57	0.491500	0.429400	0.936400
H581	H58	0.538300	0.499000	0.784600
H591	H59	0.360300	0.304200	0.084500
H601	H60	0.275900	0.502500	0.084800
H611	H61	0.200600	0.423100	0.240000
H621	H62	0.202400	0.442200	0.738600
H631	H63	0.097200	0.296900	0.782000
H641	H64	0.174900	0.222200	0.724100
H651	H65	0.355600	0.289500	0.630900
H661	H66	0.462900	0.434600	0.597800
C11	C1	0.829200	0.161400	0.377500
C21	C2	0.770100	0.071700	0.429400
C31	C3	0.671400	0.031900	0.424700
C41	C4	0.637800	0.086900	0.370200
C51	C5	0.701700	0.178500	0.320500
C61	C6	0.939800	0.205100	0.376500
C71	C7	0.511500	0.794000	0.490100
C81	C8	0.558400	0.885100	0.443500
C91	C9	0.610600	0.933300	0.477300
C101	C10	0.608200	0.885200	0.561500
C111	C11	0.559100	0.791600	0.607400
C121	C12	0.458900	0.738000	0.457800
C131	C13	0.047100	0.282700	0.128600
C141	C14	0.086300	0.257300	0.066900
C151	C15	0.073500	0.290800	0.989100
C161	C16	0.021700	0.345100	0.974100
C171	C17	0.978400	0.366200	0.041700
C181	C18	0.206700	0.377500	0.461100
C191	C19	0.199500	0.429400	0.498900
C201	C20	0.096100	0.424700	0.543400
C211	C21	0.008000	0.370200	0.542900
C221	C22	0.022200	0.320500	0.501000
C231	C23	0.316300	0.376500	0.418400
C241	C24	0.001600	0.490100	0.715900
C251	C25	0.001900	0.443500	0.671400
C261	C26	0.087900	0.477300	0.589400
C271	C27	0.169700	0.561500	0.553300
C281	C28	0.166500	0.607400	0.601000
C291	C29	0.916700	0.457800	0.804200
C301	C30	0.175700	0.128600	0.588700
C311	C31	0.153200	0.066900	0.675800
C321	C32	0.062600	0.989100	0.720100
C331	C33	0.995800	0.974100	0.680800
C341	C34	0.020100	0.041700	0.592100
C351	C35	0.667800	0.461100	0.161400
C361	C36	0.698400	0.498900	0.071700
C371	C37	0.639500	0.543400	0.031900
C381	C38	0.550900	0.542900	0.086900
C391	C39	0.523200	0.501000	0.178500
C401	C40	0.734700	0.418400	0.205100
C411	C41	0.717500	0.715900	0.794000
C421	C42	0.673300	0.671400	0.885100
C431	C43	0.677300	0.589400	0.933300
C441	C44	0.723000	0.553300	0.885200
C451	C45	0.767500	0.601000	0.791600
C461	C46	0.720900	0.804200	0.738000
C471	C47	0.764400	0.588700	0.282700
C481	C48	0.829000	0.675800	0.257300
C491	C49	0.782700	0.720100	0.290800
C501	C50	0.676600	0.680800	0.345100
C511	C51	0.612200	0.592100	0.366200
C521	C52	0.170800	0.838600	0.622500
C531	C53	0.229900	0.928300	0.570600
C541	C54	0.328600	0.968100	0.575300
C551	C55	0.362200	0.913100	0.629800
C561	C56	0.298300	0.821500	0.679500
C571	C57	0.060200	0.794900	0.623500
C581	C58	0.488500	0.206000	0.509900
C591	C59	0.441600	0.114900	0.556500
C601	C60	0.389400	0.066700	0.522700
C611	C61	0.391800	0.114800	0.438500
C621	C62	0.440900	0.208400	0.392600
C631	C63	0.541100	0.262000	0.542200
C641	C64	0.952900	0.717300	0.871400
C651	C65	0.913700	0.742700	0.933100
C661	C66	0.926500	0.709200	0.010900
C671	C67	0.978300	0.654900	0.025900
C681	C68	0.021600	0.633800	0.958300
C691	C69	0.793300	0.622500	0.538900
C701	C70	0.800500	0.570600	0.501100
C711	C71	0.903900	0.575300	0.456600
C721	C72	0.992000	0.629800	0.457100
C731	C73	0.977800	0.679500	0.499000
C741	C74	0.683700	0.623500	0.581600
C751	C75	0.998400	0.509900	0.284100
C761	C76	0.998100	0.556500	0.328600
C771	C77	0.912100	0.522700	0.410600
C781	C78	0.830300	0.438500	0.446700
C791	C79	0.833500	0.392600	0.399000
C801	C80	0.083300	0.542200	0.195800
C811	C81	0.824300	0.871400	0.411300
C821	C82	0.846800	0.933100	0.324200
C831	C83	0.937400	0.010900	0.279900
C841	C84	0.004200	0.025900	0.319200
C851	C85	0.979900	0.958300	0.407900
C861	C86	0.332200	0.538900	0.838600
C871	C87	0.301600	0.501100	0.928300
C881	C88	0.360500	0.456600	0.968100
C891	C89	0.449100	0.457100	0.913100
C901	C90	0.476800	0.499000	0.821500
C911	C91	0.265300	0.581600	0.794900
C921	C92	0.282500	0.284100	0.206000
C931	C93	0.326700	0.328600	0.114900
C941	C94	0.322700	0.410600	0.066700
C951	C95	0.277000	0.446700	0.114800
C961	C96	0.232500	0.399000	0.208400
C971	C97	0.279100	0.195800	0.262000
C981	C98	0.235600	0.411300	0.717300
C991	C99	0.171000	0.324200	0.742700
C1001	C100	0.217300	0.279900	0.709200
C1011	C101	0.323400	0.319200	0.654900
C1021	C102	0.387800	0.407900	0.633800
N11	N1	0.795100	0.214800	0.323500
N21	N2	0.511600	0.746700	0.572400
N31	N3	0.993400	0.335500	0.116900
N41	N4	0.118600	0.323500	0.461700
N51	N5	0.084000	0.572400	0.680900
N61	N6	0.110300	0.116900	0.547600
N71	N7	0.580300	0.461700	0.214800
N81	N8	0.764900	0.680900	0.746700
N91	N9	0.657900	0.547600	0.335500
N101	N10	0.204900	0.785200	0.676500
N111	N11	0.488400	0.253300	0.427600
N121	N12	0.006600	0.664500	0.883100
N131	N13	0.881400	0.676500	0.538300
N141	N14	0.916000	0.427600	0.319100
N151	N15	0.889700	0.883100	0.452400
N161	N16	0.419700	0.538300	0.785200
N171	N17	0.235100	0.319100	0.253300
N181	N18	0.342100	0.452400	0.664500
O11	O1	0.996100	0.286800	0.320500
O21	O2	0.969900	0.156700	0.431300
O31	O3	0.432300	0.655400	0.498500
O41	O4	0.449200	0.778800	0.387000
O51	O5	0.316600	0.320500	0.392700
O61	O6	0.401200	0.431300	0.412000
O71	O7	0.930800	0.498500	0.846100
O81	O8	0.836200	0.387000	0.834200
O91	O9	0.709300	0.392700	0.286800
O101	O10	0.813200	0.412000	0.156700
O111	O11	0.776900	0.846100	0.655400
O121	O12	0.670400	0.834200	0.778800
O131	O13	0.003900	0.713200	0.679500
O141	O14	0.030100	0.843300	0.568700
O151	O15	0.567700	0.344600	0.501500
O161	O16	0.550800	0.221200	0.613000
O171	O17	0.683400	0.679500	0.607300
O181	O18	0.598800	0.568700	0.588000
O191	O19	0.069200	0.501500	0.153900
O201	O20	0.163800	0.613000	0.165800
O211	O21	0.290700	0.607300	0.713200
O221	O22	0.186800	0.588000	0.843300
O231	O23	0.223100	0.153900	0.344600
O241	O24	0.329600	0.165800	0.221200
