data_QATLEE_freeONLY_PM
_symmetry_space_group_name_H-M	'P1'
_cell_length_a	12.983600
_cell_length_b	12.983600
_cell_length_c	23.941000
_cell_angle_alpha	90.000000
_cell_angle_beta	90.000000
_cell_angle_gamma	94.683500
_symmetry_Int_Tables_number 1

loop_
_symmetry_equiv_pos_as_xyz
'x,y,z'

loop_
_atom_site_label
_atom_site_type_symbol
_atom_site_fract_x
_atom_site_fract_y
_atom_site_fract_z
Zn11	Zn1	0.161450	0.997290	0.398210
Zn21	Zn2	0.338550	0.502710	0.898210
Zn31	Zn3	0.497290	0.661450	0.101790
Zn41	Zn4	0.002710	0.838550	0.601790
Zn51	Zn5	0.838550	0.002710	0.601790
Zn61	Zn6	0.661450	0.497290	0.101790
Zn71	Zn7	0.502710	0.338550	0.898210
Zn81	Zn8	0.997290	0.161450	0.398210
Zn91	Zn9	0.180960	0.180960	0.480180
Zn101	Zn10	0.319040	0.319040	0.980180
Zn111	Zn11	0.680960	0.680960	0.019820
Zn121	Zn12	0.819040	0.819040	0.519820
Zn131	Zn13	0.000000	0.000000	0.500000
Zn141	Zn14	0.500000	0.500000	0.000000
H11	H1	0.927700	0.653100	0.436100
H21	H2	0.930100	0.475900	0.427400
H31	H3	0.260900	0.422500	0.395000
H41	H4	0.411100	0.526100	0.382000
H51	H5	0.410500	0.703500	0.391000
H61	H6	0.254300	0.774700	0.401300
H71	H7	0.572300	0.846900	0.936100
H81	H8	0.569900	0.024100	0.927400
H91	H9	0.239100	0.077500	0.895000
H101	H10	0.088900	0.973900	0.882000
H111	H11	0.089500	0.796500	0.891000
H121	H12	0.245700	0.725300	0.901300
H131	H13	0.153100	0.427700	0.063900
H141	H14	0.975900	0.430100	0.072600
H151	H15	0.922500	0.760900	0.105000
H161	H16	0.026100	0.911100	0.118000
H171	H17	0.203500	0.910500	0.109000
H181	H18	0.274700	0.754300	0.098700
H191	H19	0.346900	0.072300	0.563900
H201	H20	0.524100	0.069900	0.572600
H211	H21	0.577500	0.739100	0.605000
H221	H22	0.473900	0.588900	0.618000
H231	H23	0.296500	0.589500	0.609000
H241	H24	0.225300	0.745700	0.598700
H251	H25	0.072300	0.346900	0.563900
H261	H26	0.069900	0.524100	0.572600
H271	H27	0.739100	0.577500	0.605000
H281	H28	0.588900	0.473900	0.618000
H291	H29	0.589500	0.296500	0.609000
H301	H30	0.745700	0.225300	0.598700
H311	H31	0.427700	0.153100	0.063900
H321	H32	0.430100	0.975900	0.072600
H331	H33	0.760900	0.922500	0.105000
H341	H34	0.911100	0.026100	0.118000
H351	H35	0.910500	0.203500	0.109000
H361	H36	0.754300	0.274700	0.098700
H371	H37	0.846900	0.572300	0.936100
H381	H38	0.024100	0.569900	0.927400
H391	H39	0.077500	0.239100	0.895000
H401	H40	0.973900	0.088900	0.882000
H411	H41	0.796500	0.089500	0.891000
H421	H42	0.725300	0.245700	0.901300
H431	H43	0.653100	0.927700	0.436100
H441	H44	0.475900	0.930100	0.427400
H451	H45	0.422500	0.260900	0.395000
H461	H46	0.526100	0.411100	0.382000
H471	H47	0.703500	0.410500	0.391000
H481	H48	0.774700	0.254300	0.401300
H491	H49	0.047500	0.047500	0.203100
H501	H50	0.093700	0.093700	0.111800
H511	H51	0.353600	0.353600	0.132600
H521	H52	0.433300	0.433300	0.207500
H531	H53	0.383700	0.383700	0.297700
H541	H54	0.256500	0.256500	0.312900
H551	H55	0.452500	0.452500	0.703100
H561	H56	0.406300	0.406300	0.611800
H571	H57	0.146400	0.146400	0.632600
H581	H58	0.066700	0.066700	0.707500
H591	H59	0.116300	0.116300	0.797700
H601	H60	0.243500	0.243500	0.812900
H611	H61	0.547500	0.547500	0.296900
H621	H62	0.593700	0.593700	0.388200
H631	H63	0.853600	0.853600	0.367400
H641	H64	0.933300	0.933300	0.292500
H651	H65	0.883700	0.883700	0.202300
H661	H66	0.756500	0.756500	0.187100
H671	H67	0.952500	0.952500	0.796900
H681	H68	0.906300	0.906300	0.888200
H691	H69	0.646400	0.646400	0.867400
H701	H70	0.566700	0.566700	0.792500
H711	H71	0.616300	0.616300	0.702300
H721	H72	0.743500	0.743500	0.687100
C11	C1	0.078500	0.688500	0.430600
C21	C2	0.990900	0.624700	0.432200
C31	C3	0.992100	0.517300	0.428300
C41	C4	0.084600	0.472600	0.425700
C51	C5	0.179600	0.536600	0.426400
C61	C6	0.264000	0.492800	0.403000
C71	C7	0.350600	0.555000	0.392200
C81	C8	0.349800	0.661400	0.396100
C91	C9	0.258900	0.704500	0.407600
C101	C10	0.176400	0.646600	0.428000
C111	C11	0.071000	0.802600	0.431000
C121	C12	0.079200	0.356400	0.424700
C131	C13	0.421500	0.811500	0.930600
C141	C14	0.509100	0.875300	0.932200
C151	C15	0.507900	0.982700	0.928300
C161	C16	0.415400	0.027400	0.925700
C171	C17	0.320400	0.963400	0.926400
C181	C18	0.236000	0.007200	0.903000
C191	C19	0.149400	0.945000	0.892200
C201	C20	0.150200	0.838600	0.896100
C211	C21	0.241100	0.795500	0.907600
C221	C22	0.323600	0.853400	0.928000
C231	C23	0.429000	0.697400	0.931000
C241	C24	0.420800	0.143600	0.924700
C251	C25	0.188500	0.578500	0.069400
C261	C26	0.124700	0.490900	0.067800
C271	C27	0.017300	0.492100	0.071700
C281	C28	0.972600	0.584600	0.074300
C291	C29	0.036600	0.679600	0.073600
C301	C30	0.992800	0.764000	0.097000
C311	C31	0.055000	0.850600	0.107800
C321	C32	0.161400	0.849800	0.103900
C331	C33	0.204500	0.758900	0.092400
C341	C34	0.146600	0.676400	0.072000
C351	C35	0.302600	0.571000	0.069000
C361	C36	0.856400	0.579200	0.075300
C371	C37	0.311500	0.921500	0.569400
C381	C38	0.375300	0.009100	0.567800
C391	C39	0.482700	0.007900	0.571700
C401	C40	0.527400	0.915400	0.574300
C411	C41	0.463400	0.820400	0.573600
C421	C42	0.507200	0.736000	0.597000
C431	C43	0.445000	0.649400	0.607800
C441	C44	0.338600	0.650200	0.603900
C451	C45	0.295500	0.741100	0.592400
C461	C46	0.353400	0.823600	0.572000
C471	C47	0.197400	0.929000	0.569000
C481	C48	0.643600	0.920800	0.575300
C491	C49	0.921500	0.311500	0.569400
C501	C50	0.009100	0.375300	0.567800
C511	C51	0.007900	0.482700	0.571700
C521	C52	0.915400	0.527400	0.574300
C531	C53	0.820400	0.463400	0.573600
C541	C54	0.736000	0.507200	0.597000
C551	C55	0.649400	0.445000	0.607800
C561	C56	0.650200	0.338600	0.603900
C571	C57	0.741100	0.295500	0.592400
C581	C58	0.823600	0.353400	0.572000
C591	C59	0.929000	0.197400	0.569000
C601	C60	0.920800	0.643600	0.575300
C611	C61	0.578500	0.188500	0.069400
C621	C62	0.490900	0.124700	0.067800
C631	C63	0.492100	0.017300	0.071700
C641	C64	0.584600	0.972600	0.074300
C651	C65	0.679600	0.036600	0.073600
C661	C66	0.764000	0.992800	0.097000
C671	C67	0.850600	0.055000	0.107800
C681	C68	0.849800	0.161400	0.103900
C691	C69	0.758900	0.204500	0.092400
C701	C70	0.676400	0.146600	0.072000
C711	C71	0.571000	0.302600	0.069000
C721	C72	0.579200	0.856400	0.075300
C731	C73	0.811500	0.421500	0.930600
C741	C74	0.875300	0.509100	0.932200
C751	C75	0.982700	0.507900	0.928300
C761	C76	0.027400	0.415400	0.925700
C771	C77	0.963400	0.320400	0.926400
C781	C78	0.007200	0.236000	0.903000
C791	C79	0.945000	0.149400	0.892200
C801	C80	0.838600	0.150200	0.896100
C811	C81	0.795500	0.241100	0.907600
C821	C82	0.853400	0.323600	0.928000
C831	C83	0.697400	0.429000	0.931000
C841	C84	0.143600	0.420800	0.924700
C851	C85	0.688500	0.078500	0.430600
C861	C86	0.624700	0.990900	0.432200
C871	C87	0.517300	0.992100	0.428300
C881	C88	0.472600	0.084600	0.425700
C891	C89	0.536600	0.179600	0.426400
C901	C90	0.492800	0.264000	0.403000
C911	C91	0.555000	0.350600	0.392200
C921	C92	0.661400	0.349800	0.396100
C931	C93	0.704500	0.258900	0.407600
C941	C94	0.646600	0.176400	0.428000
C951	C95	0.802600	0.071000	0.431000
C961	C96	0.356400	0.079200	0.424700
C971	C97	0.146500	0.146500	0.239200
C981	C98	0.099600	0.099600	0.196800
C991	C99	0.127800	0.127800	0.141400
C1001	C100	0.203100	0.203100	0.130800
C1011	C101	0.253600	0.253600	0.174600
C1021	C102	0.333100	0.333100	0.168400
C1031	C103	0.381000	0.381000	0.212900
C1041	C104	0.350700	0.350700	0.267300
C1051	C105	0.275200	0.275200	0.276600
C1061	C106	0.224500	0.224500	0.230800
C1071	C107	0.114700	0.114700	0.298300
C1081	C108	0.222900	0.222900	0.068800
C1091	C109	0.353500	0.353500	0.739200
C1101	C110	0.400400	0.400400	0.696800
C1111	C111	0.372200	0.372200	0.641400
C1121	C112	0.296900	0.296900	0.630800
C1131	C113	0.246400	0.246400	0.674600
C1141	C114	0.166900	0.166900	0.668400
C1151	C115	0.119000	0.119000	0.712900
C1161	C116	0.149300	0.149300	0.767300
C1171	C117	0.224800	0.224800	0.776600
C1181	C118	0.275500	0.275500	0.730800
C1191	C119	0.385300	0.385300	0.798300
C1201	C120	0.277100	0.277100	0.568800
C1211	C121	0.646500	0.646500	0.260800
C1221	C122	0.599600	0.599600	0.303200
C1231	C123	0.627800	0.627800	0.358600
C1241	C124	0.703100	0.703100	0.369200
C1251	C125	0.753600	0.753600	0.325400
C1261	C126	0.833100	0.833100	0.331600
C1271	C127	0.881000	0.881000	0.287100
C1281	C128	0.850700	0.850700	0.232700
C1291	C129	0.775200	0.775200	0.223400
C1301	C130	0.724500	0.724500	0.269200
C1311	C131	0.614700	0.614700	0.201700
C1321	C132	0.722900	0.722900	0.431200
C1331	C133	0.853500	0.853500	0.760800
C1341	C134	0.900400	0.900400	0.803200
C1351	C135	0.872200	0.872200	0.858600
C1361	C136	0.796900	0.796900	0.869200
C1371	C137	0.746400	0.746400	0.825400
C1381	C138	0.666900	0.666900	0.831600
C1391	C139	0.619000	0.619000	0.787100
C1401	C140	0.649300	0.649300	0.732700
C1411	C141	0.724800	0.724800	0.723400
C1421	C142	0.775500	0.775500	0.769200
C1431	C143	0.885300	0.885300	0.701700
C1441	C144	0.777100	0.777100	0.931200
O11	O1	0.019270	0.841410	0.466590
O21	O2	0.119120	0.852440	0.391940
O31	O3	0.154250	0.311790	0.440510
O41	O4	0.995700	0.310500	0.407400
O51	O5	0.159200	0.044000	0.319400
O61	O6	0.480730	0.658590	0.966590
O71	O7	0.380880	0.647560	0.891940
O81	O8	0.345750	0.188210	0.940510
O91	O9	0.504300	0.189500	0.907400
O101	O10	0.340800	0.456000	0.819400
O111	O11	0.341410	0.519270	0.033410
O121	O12	0.352440	0.619120	0.108060
O131	O13	0.811790	0.654250	0.059490
O141	O14	0.810500	0.495700	0.092600
O151	O15	0.544000	0.659200	0.180600
O161	O16	0.158590	0.980730	0.533410
O171	O17	0.147560	0.880880	0.608060
O181	O18	0.688210	0.845750	0.559490
O191	O19	0.689500	0.004300	0.592600
O201	O20	0.956000	0.840800	0.680600
O211	O21	0.980730	0.158590	0.533410
O221	O22	0.880880	0.147560	0.608060
O231	O23	0.845750	0.688210	0.559490
O241	O24	0.004300	0.689500	0.592600
O251	O25	0.840800	0.956000	0.680600
O261	O26	0.519270	0.341410	0.033410
O271	O27	0.619120	0.352440	0.108060
O281	O28	0.654250	0.811790	0.059490
O291	O29	0.495700	0.810500	0.092600
O301	O30	0.659200	0.544000	0.180600
O311	O31	0.658590	0.480730	0.966590
O321	O32	0.647560	0.380880	0.891940
O331	O33	0.188210	0.345750	0.940510
O341	O34	0.189500	0.504300	0.907400
O351	O35	0.456000	0.340800	0.819400
O361	O36	0.841410	0.019270	0.466590
O371	O37	0.852440	0.119120	0.391940
O381	O38	0.311790	0.154250	0.440510
O391	O39	0.310500	0.995700	0.407400
O401	O40	0.044000	0.159200	0.319400
O411	O41	0.171600	0.171600	0.035300
O421	O42	0.291000	0.291000	0.056390
O431	O43	0.081660	0.081660	0.443880
O441	O44	0.328400	0.328400	0.535300
O451	O45	0.209000	0.209000	0.556390
O461	O46	0.418340	0.418340	0.943880
O471	O47	0.671600	0.671600	0.464700
O481	O48	0.791000	0.791000	0.443610
O491	O49	0.581660	0.581660	0.056120
O501	O50	0.828400	0.828400	0.964700
O511	O51	0.709000	0.709000	0.943610
O521	O52	0.918340	0.918340	0.556120
