data_QATRAG_freeONLY_PM
_symmetry_space_group_name_H-M	'P1'
_cell_length_a	6.099700
_cell_length_b	7.652800
_cell_length_c	22.533000
_cell_angle_alpha	90.000000
_cell_angle_beta	91.606000
_cell_angle_gamma	90.000000
_symmetry_Int_Tables_number 1

loop_
_symmetry_equiv_pos_as_xyz
'x,y,z'

loop_
_atom_site_label
_atom_site_type_symbol
_atom_site_fract_x
_atom_site_fract_y
_atom_site_fract_z
Ce11	Ce1	0.545120	0.501710	0.853910
Ce21	Ce2	0.454880	0.001710	0.646090
Ce31	Ce3	0.454880	0.498290	0.146090
Ce41	Ce4	0.545120	0.998290	0.353910
H11	H1	0.440000	0.125000	0.883700
H21	H2	0.302000	0.228000	0.741900
H31	H3	0.960000	0.678000	0.870900
H41	H4	0.891000	0.729000	0.922300
H51	H5	0.125900	0.064400	0.874700
H61	H6	0.041000	0.978000	0.780100
H71	H7	0.560000	0.625000	0.616300
H81	H8	0.698000	0.728000	0.758100
H91	H9	0.040000	0.178000	0.629100
H101	H10	0.109000	0.229000	0.577700
H111	H11	0.874100	0.564400	0.625300
H121	H12	0.959000	0.478000	0.719900
H131	H13	0.560000	0.875000	0.116300
H141	H14	0.698000	0.772000	0.258100
H151	H15	0.040000	0.322000	0.129100
H161	H16	0.109000	0.271000	0.077700
H171	H17	0.874100	0.935600	0.125300
H181	H18	0.959000	0.022000	0.219900
H191	H19	0.440000	0.375000	0.383700
H201	H20	0.302000	0.272000	0.241900
H211	H21	0.960000	0.822000	0.370900
H221	H22	0.891000	0.771000	0.422300
H231	H23	0.125900	0.435600	0.374700
H241	H24	0.041000	0.522000	0.280100
C11	C1	0.046800	0.305700	0.840110
C21	C2	0.182300	0.139300	0.843300
C31	C3	0.183700	0.035500	0.785520
C41	C4	0.361100	0.894100	0.788710
C51	C5	0.582100	0.424200	0.001330
C61	C6	0.953200	0.805700	0.659890
C71	C7	0.817700	0.639300	0.656700
C81	C8	0.816300	0.535500	0.714480
C91	C9	0.638900	0.394100	0.711290
C101	C10	0.417900	0.924200	0.498670
C111	C11	0.953200	0.694300	0.159890
C121	C12	0.817700	0.860700	0.156700
C131	C13	0.816300	0.964500	0.214480
C141	C14	0.638900	0.105900	0.211290
C151	C15	0.417900	0.575800	0.998670
C161	C16	0.046800	0.194300	0.340110
C171	C17	0.182300	0.360700	0.343300
C181	C18	0.183700	0.464500	0.285520
C191	C19	0.361100	0.605900	0.288710
C201	C20	0.582100	0.075800	0.501330
O11	O1	0.846200	0.289300	0.833360
O21	O2	0.145600	0.447300	0.845320
O31	O3	0.399900	0.186000	0.858290
O41	O4	0.220300	0.140300	0.734700
O51	O5	0.350400	0.786800	0.829740
O61	O6	0.511100	0.898000	0.749220
O71	O7	0.661500	0.369400	0.953680
O81	O8	0.623300	0.368100	0.051760
O91	O9	0.850400	0.706600	0.888900
O101	O10	0.153800	0.789300	0.666640
O111	O11	0.854400	0.947300	0.654680
O121	O12	0.600100	0.686000	0.641710
O131	O13	0.779700	0.640300	0.765300
O141	O14	0.649600	0.286800	0.670260
O151	O15	0.488900	0.398000	0.750780
O161	O16	0.338500	0.869400	0.546320
O171	O17	0.376700	0.868100	0.448240
O181	O18	0.149600	0.206600	0.611100
O191	O19	0.153800	0.710700	0.166640
O201	O20	0.854400	0.552700	0.154680
O211	O21	0.600100	0.814000	0.141710
O221	O22	0.779700	0.859700	0.265300
O231	O23	0.649600	0.213200	0.170260
O241	O24	0.488900	0.102000	0.250780
O251	O25	0.338500	0.630600	0.046320
O261	O26	0.376700	0.631900	0.948240
O271	O27	0.149600	0.293400	0.111100
O281	O28	0.846200	0.210700	0.333360
O291	O29	0.145600	0.052700	0.345320
O301	O30	0.399900	0.314000	0.358290
O311	O31	0.220300	0.359700	0.234700
O321	O32	0.350400	0.713200	0.329740
O331	O33	0.511100	0.602000	0.249220
O341	O34	0.661500	0.130600	0.453680
O351	O35	0.623300	0.131900	0.551760
O361	O36	0.850400	0.793400	0.388900
