data_QAVDEW_freeONLY_PM
_symmetry_space_group_name_H-M	'P1'
_cell_length_a	6.685000
_cell_length_b	9.905000
_cell_length_c	20.666000
_cell_angle_alpha	90.000000
_cell_angle_beta	91.910000
_cell_angle_gamma	90.000000
_symmetry_Int_Tables_number 1

loop_
_symmetry_equiv_pos_as_xyz
'x,y,z'

loop_
_atom_site_label
_atom_site_type_symbol
_atom_site_fract_x
_atom_site_fract_y
_atom_site_fract_z
Cu11	Cu1	0.326650	0.295810	0.721170
Cu21	Cu2	0.673350	0.795810	0.778830
Cu31	Cu3	0.673350	0.704190	0.278830
Cu41	Cu4	0.326650	0.204190	0.221170
Cu51	Cu5	0.000000	0.000000	0.000000
Cu61	Cu6	0.000000	0.500000	0.500000
H11	H1	0.895700	0.054900	0.736500
H21	H2	0.988000	0.228300	0.946200
H31	H3	0.185500	0.170900	0.934500
H41	H4	0.425600	0.756800	0.657500
H51	H5	0.095200	0.166700	0.644700
H61	H6	0.272800	0.201300	0.608600
H71	H7	0.104300	0.554900	0.763500
H81	H8	0.012000	0.728300	0.553800
H91	H9	0.814500	0.670900	0.565500
H101	H10	0.574400	0.256800	0.842500
H111	H11	0.904800	0.666700	0.855300
H121	H12	0.727200	0.701300	0.891400
H131	H13	0.104300	0.945100	0.263500
H141	H14	0.012000	0.771700	0.053800
H151	H15	0.814500	0.829100	0.065500
H161	H16	0.574400	0.243200	0.342500
H171	H17	0.904800	0.833300	0.355300
H181	H18	0.727200	0.798700	0.391400
H191	H19	0.895700	0.445100	0.236500
H201	H20	0.988000	0.271700	0.446200
H211	H21	0.185500	0.329100	0.434500
H221	H22	0.425600	0.743200	0.157500
H231	H23	0.095200	0.333300	0.144700
H241	H24	0.272800	0.298700	0.108600
C11	C1	0.886000	0.977400	0.875600
C21	C2	0.998000	0.149000	0.813800
C31	C3	0.431400	0.031200	0.717600
C41	C4	0.301400	0.924100	0.628000
C51	C5	0.114000	0.477400	0.624400
C61	C6	0.002000	0.649000	0.686200
C71	C7	0.568600	0.531200	0.782400
C81	C8	0.698600	0.424100	0.872000
C91	C9	0.114000	0.022600	0.124400
C101	C10	0.002000	0.851000	0.186200
C111	C11	0.568600	0.968800	0.282400
C121	C12	0.698600	0.075900	0.372000
C131	C13	0.886000	0.522600	0.375600
C141	C14	0.998000	0.351000	0.313800
C151	C15	0.431400	0.468800	0.217600
C161	C16	0.301400	0.575900	0.128000
N11	N1	0.907000	0.052200	0.778100
N21	N2	0.832400	0.946400	0.815200
N31	N3	0.980600	0.100000	0.876100
N41	N4	0.053900	0.152600	0.935700
N51	N5	0.409900	0.841000	0.665900
N61	N6	0.496100	0.904200	0.721100
N71	N7	0.313200	0.044300	0.661900
N81	N8	0.229700	0.171200	0.646800
N91	N9	0.093000	0.552200	0.721900
N101	N10	0.167600	0.446400	0.684800
N111	N11	0.019400	0.600000	0.623900
N121	N12	0.946100	0.652600	0.564300
N131	N13	0.590100	0.341000	0.834100
N141	N14	0.503900	0.404200	0.778900
N151	N15	0.686800	0.544300	0.838100
N161	N16	0.770300	0.671200	0.853200
N171	N17	0.093000	0.947800	0.221900
N181	N18	0.167600	0.053600	0.184800
N191	N19	0.019400	0.900000	0.123900
N201	N20	0.946100	0.847400	0.064300
N211	N21	0.590100	0.159000	0.334100
N221	N22	0.503900	0.095800	0.278900
N231	N23	0.686800	0.955700	0.338100
N241	N24	0.770300	0.828800	0.353200
N251	N25	0.907000	0.447800	0.278100
N261	N26	0.832400	0.553600	0.315200
N271	N27	0.980600	0.400000	0.376100
N281	N28	0.053900	0.347400	0.435700
N291	N29	0.409900	0.659000	0.165900
N301	N30	0.496100	0.595800	0.221100
N311	N31	0.313200	0.455700	0.161900
N321	N32	0.229700	0.328800	0.146800
O11	O1	0.859000	0.910400	0.926760
O21	O2	0.077600	0.255800	0.797330
O31	O3	0.464400	0.130700	0.753950
O41	O4	0.212100	0.903200	0.576110
O51	O5	0.141000	0.410400	0.573240
O61	O6	0.922400	0.755800	0.702670
O71	O7	0.535600	0.630700	0.746050
O81	O8	0.787900	0.403200	0.923890
O91	O9	0.141000	0.089600	0.073240
O101	O10	0.922400	0.744200	0.202670
O111	O11	0.535600	0.869300	0.246050
O121	O12	0.787900	0.096800	0.423890
O131	O13	0.859000	0.589600	0.426760
O141	O14	0.077600	0.244200	0.297330
O151	O15	0.464400	0.369300	0.253950
O161	O16	0.212100	0.596800	0.076110
