data_QAVPIO_freeONLY_PM
_symmetry_space_group_name_H-M	'P1'
_cell_length_a	5.091900
_cell_length_b	9.252800
_cell_length_c	12.740000
_cell_angle_alpha	73.820000
_cell_angle_beta	84.580000
_cell_angle_gamma	74.130000
_symmetry_Int_Tables_number 1

loop_
_symmetry_equiv_pos_as_xyz
'x,y,z'

loop_
_atom_site_label
_atom_site_type_symbol
_atom_site_fract_x
_atom_site_fract_y
_atom_site_fract_z
Al11	Al1	0.962100	0.710200	0.154080
Al21	Al2	0.284800	0.032900	0.402220
Al31	Al3	0.782700	0.277700	0.120200
Al41	Al4	0.461800	0.958400	0.867650
P11	P1	0.872300	0.049100	0.971860
P21	P2	0.361100	0.100900	0.618100
P31	P3	0.210100	0.350700	0.235630
P41	P4	0.530900	0.637800	0.035840
P51	P5	0.878700	0.940900	0.298060
O11	O1	0.338100	0.006200	0.539900
O21	O2	0.413600	0.984600	0.731100
O31	O3	0.049200	0.929000	0.395700
O41	O4	0.700700	0.058500	0.876200
O51	O5	0.655200	0.662400	0.130700
O61	O6	0.167700	0.045600	0.931600
O71	O7	0.569600	0.760500	0.927700
O81	O8	0.085000	0.327300	0.139200
O91	O9	0.583100	0.956900	0.338500
O101	O10	0.163800	0.232700	0.342500
O111	O11	0.516000	0.328600	0.215800
O121	O12	0.225800	0.656300	0.058600
O131	O13	0.852000	0.909200	0.062000
O141	O14	0.909700	0.079400	0.206100
O151	O15	0.568300	0.192100	0.584900
O161	O16	0.978800	0.787900	0.265500
O171	O17	0.080900	0.511700	0.254200
O181	O18	0.664300	0.478300	0.015200
O191	O19	0.762300	0.203400	0.004200
O201	O20	0.070800	0.220400	0.621600
