data_QAVWAN_freeONLY_PM
_symmetry_space_group_name_H-M	'P1'
_cell_length_a	13.013300
_cell_length_b	13.013300
_cell_length_c	13.922000
_cell_angle_alpha	106.373000
_cell_angle_beta	106.373000
_cell_angle_gamma	91.273400
_symmetry_Int_Tables_number 1

loop_
_symmetry_equiv_pos_as_xyz
'x,y,z'

loop_
_atom_site_label
_atom_site_type_symbol
_atom_site_fract_x
_atom_site_fract_y
_atom_site_fract_z
Zn11	Zn1	0.187500	0.866780	0.866620
Zn21	Zn2	0.133220	0.812500	0.633380
H11	H1	0.537100	0.899300	0.938700
H21	H2	0.715400	0.899200	0.951200
H31	H3	0.455700	0.807700	0.622500
H41	H4	0.858900	0.860900	0.861500
H51	H5	0.047000	0.924000	0.996700
H61	H6	0.019600	0.910600	0.148400
H71	H7	0.309300	0.798700	0.220800
H81	H8	0.406700	0.872700	0.050500
H91	H9	0.416700	0.779500	0.106000
H101	H10	0.349900	0.753300	0.984600
H111	H11	0.780000	0.785800	0.546400
H121	H12	0.598300	0.786500	0.535500
H131	H13	0.100700	0.462900	0.561300
H141	H14	0.100800	0.284600	0.548800
H151	H15	0.192300	0.544300	0.877500
H161	H16	0.139100	0.141100	0.638500
H171	H17	0.076000	0.953000	0.503300
H181	H18	0.089400	0.980400	0.351600
H191	H19	0.201300	0.690700	0.279200
H201	H20	0.127300	0.593300	0.449500
H211	H21	0.220500	0.583300	0.394000
H221	H22	0.246700	0.650100	0.515400
H231	H23	0.214200	0.220000	0.953600
H241	H24	0.213500	0.401700	0.964500
C11	C1	0.361200	0.849800	0.770700
C21	C2	0.477900	0.851700	0.777800
C31	C3	0.558100	0.879900	0.876400
C41	C4	0.663200	0.879600	0.883900
C51	C5	0.509100	0.825300	0.689000
C61	C6	0.697100	0.850500	0.792500
C71	C7	0.805400	0.848000	0.795500
C81	C8	0.101200	0.898200	0.043000
C91	C9	0.084200	0.890600	0.132800
C101	C10	0.162600	0.853000	0.201400
C111	C11	0.254900	0.825300	0.175500
C121	C12	0.268900	0.836100	0.083300
C131	C13	0.369300	0.807900	0.053500
C141	C14	0.836900	0.827500	0.706700
C151	C15	0.954500	0.830700	0.714200
C161	C16	0.758900	0.802500	0.608600
C171	C17	0.650800	0.802000	0.602300
C181	C18	0.617300	0.823900	0.693300
C191	C19	0.150200	0.638800	0.729300
C201	C20	0.148300	0.522100	0.722200
C211	C21	0.120100	0.441900	0.623600
C221	C22	0.120400	0.336800	0.616100
C231	C23	0.174700	0.490900	0.811000
C241	C24	0.149500	0.302900	0.707500
C251	C25	0.152000	0.194600	0.704500
C261	C26	0.101800	0.898800	0.457000
C271	C27	0.109400	0.915800	0.367200
C281	C28	0.147000	0.837400	0.298600
C291	C29	0.174700	0.745100	0.324500
C301	C30	0.163900	0.731100	0.416700
C311	C31	0.192100	0.630700	0.446500
C321	C32	0.172500	0.163100	0.793300
C331	C33	0.169300	0.045500	0.785800
C341	C34	0.197500	0.241100	0.891400
C351	C35	0.198000	0.349200	0.897700
C361	C36	0.176100	0.382700	0.806700
N11	N1	0.191100	0.870900	0.015900
N21	N2	0.129100	0.808900	0.484100
O11	O1	0.336510	0.888890	0.854600
O21	O2	0.294800	0.808000	0.681100
O31	O3	0.977680	0.830320	0.631900
O41	O4	0.021200	0.835600	0.801200
O51	O5	0.111110	0.663490	0.645400
O61	O6	0.192000	0.705200	0.818900
O71	O7	0.169680	0.022320	0.868100
O81	O8	0.164400	0.978800	0.698800
Zn31	Zn3	0.812500	0.133220	0.133380
Zn41	Zn4	0.866780	0.187500	0.366620
H251	H25	0.462900	0.100700	0.061300
H261	H26	0.284600	0.100800	0.048800
H271	H27	0.544300	0.192300	0.377500
H281	H28	0.141100	0.139100	0.138500
H291	H29	0.953000	0.076000	0.003300
H301	H30	0.980400	0.089400	0.851600
H311	H31	0.690700	0.201300	0.779200
H321	H32	0.593300	0.127300	0.949500
H331	H33	0.583300	0.220500	0.894000
H341	H34	0.650100	0.246700	0.015400
H351	H35	0.220000	0.214200	0.453600
H361	H36	0.401700	0.213500	0.464500
H371	H37	0.899300	0.537100	0.438700
H381	H38	0.899200	0.715400	0.451200
H391	H39	0.807700	0.455700	0.122500
H401	H40	0.860900	0.858900	0.361500
H411	H41	0.924000	0.047000	0.496700
H421	H42	0.910600	0.019600	0.648400
H431	H43	0.798700	0.309300	0.720800
H441	H44	0.872700	0.406700	0.550500
H451	H45	0.779500	0.416700	0.606000
H461	H46	0.753300	0.349900	0.484600
H471	H47	0.785800	0.780000	0.046400
H481	H48	0.786500	0.598300	0.035500
C371	C37	0.638800	0.150200	0.229300
C381	C38	0.522100	0.148300	0.222200
C391	C39	0.441900	0.120100	0.123600
C401	C40	0.336800	0.120400	0.116100
C411	C41	0.490900	0.174700	0.311000
C421	C42	0.302900	0.149500	0.207500
C431	C43	0.194600	0.152000	0.204500
C441	C44	0.898800	0.101800	0.957000
C451	C45	0.915800	0.109400	0.867200
C461	C46	0.837400	0.147000	0.798600
C471	C47	0.745100	0.174700	0.824500
C481	C48	0.731100	0.163900	0.916700
C491	C49	0.630700	0.192100	0.946500
C501	C50	0.163100	0.172500	0.293300
C511	C51	0.045500	0.169300	0.285800
C521	C52	0.241100	0.197500	0.391400
C531	C53	0.349200	0.198000	0.397700
C541	C54	0.382700	0.176100	0.306700
C551	C55	0.849800	0.361200	0.270700
C561	C56	0.851700	0.477900	0.277800
C571	C57	0.879900	0.558100	0.376400
C581	C58	0.879600	0.663200	0.383900
C591	C59	0.825300	0.509100	0.189000
C601	C60	0.850500	0.697100	0.292500
C611	C61	0.848000	0.805400	0.295500
C621	C62	0.898200	0.101200	0.543000
C631	C63	0.890600	0.084200	0.632800
C641	C64	0.853000	0.162600	0.701400
C651	C65	0.825300	0.254900	0.675500
C661	C66	0.836100	0.268900	0.583300
C671	C67	0.807900	0.369300	0.553500
C681	C68	0.827500	0.836900	0.206700
C691	C69	0.830700	0.954500	0.214200
C701	C70	0.802500	0.758900	0.108600
C711	C71	0.802000	0.650800	0.102300
C721	C72	0.823900	0.617300	0.193300
N31	N3	0.808900	0.129100	0.984100
N41	N4	0.870900	0.191100	0.515900
O91	O9	0.663490	0.111110	0.145400
O101	O10	0.705200	0.192000	0.318900
O111	O11	0.022320	0.169680	0.368100
O121	O12	0.978800	0.164400	0.198800
O131	O13	0.888890	0.336510	0.354600
O141	O14	0.808000	0.294800	0.181100
O151	O15	0.830320	0.977680	0.131900
O161	O16	0.835600	0.021200	0.301200
