data_QAVZAQ_freeONLY_PM
_symmetry_space_group_name_H-M	'P1'
_cell_length_a	7.290400
_cell_length_b	9.241400
_cell_length_c	14.014000
_cell_angle_alpha	83.886000
_cell_angle_beta	85.398000
_cell_angle_gamma	72.647000
_symmetry_Int_Tables_number 1

loop_
_symmetry_equiv_pos_as_xyz
'x,y,z'

loop_
_atom_site_label
_atom_site_type_symbol
_atom_site_fract_x
_atom_site_fract_y
_atom_site_fract_z
Nd11	Nd1	0.495270	0.713100	0.904510
Nd21	Nd2	0.504730	0.286900	0.095490
Ni11	Ni1	0.500000	0.500000	0.500000
H11	H1	0.709500	0.907900	0.993200
H21	H2	0.745300	0.913400	0.904700
H31	H3	0.159700	0.644800	0.994700
H41	H4	0.057100	0.774700	0.936200
H51	H5	0.271700	0.325200	0.486500
H61	H6	0.163600	0.472600	0.502200
H71	H7	0.782800	0.116300	0.762400
H81	H8	0.007900	0.558400	0.643200
H91	H9	0.377900	0.142700	0.628700
H101	H10	0.080700	0.260900	0.876900
H111	H11	0.809300	0.169300	0.598500
H121	H12	0.290500	0.092100	0.006800
H131	H13	0.254700	0.086600	0.095300
H141	H14	0.840300	0.355200	0.005300
H151	H15	0.942900	0.225300	0.063800
H161	H16	0.728300	0.674800	0.513500
H171	H17	0.836400	0.527400	0.497800
H181	H18	0.217200	0.883700	0.237600
H191	H19	0.992100	0.441600	0.356800
H201	H20	0.622100	0.857300	0.371300
H211	H21	0.919300	0.739100	0.123100
H221	H22	0.190700	0.830700	0.401500
C11	C1	0.868300	0.540800	0.822200
C21	C2	0.022300	0.427800	0.768800
C31	C3	0.068500	0.463000	0.672900
C41	C4	0.203900	0.357600	0.620900
C51	C5	0.290100	0.214800	0.664100
C61	C6	0.246300	0.178000	0.760300
C71	C7	0.111100	0.285200	0.812700
C81	C8	0.343700	0.023500	0.807800
C91	C9	0.555600	0.319600	0.881500
C101	C10	0.606800	0.330700	0.776800
C111	C11	0.549000	0.438100	0.700900
C121	C12	0.736600	0.236600	0.641700
C131	C13	0.416200	0.596300	0.690400
C141	C14	0.131700	0.459200	0.177800
C151	C15	0.977700	0.572200	0.231200
C161	C16	0.931500	0.537000	0.327100
C171	C17	0.796100	0.642400	0.379100
C181	C18	0.709900	0.785200	0.335900
C191	C19	0.753700	0.822000	0.239700
C201	C20	0.888900	0.714800	0.187300
C211	C21	0.656300	0.976500	0.192200
C221	C22	0.444400	0.680400	0.118500
C231	C23	0.393200	0.669300	0.223200
C241	C24	0.451000	0.561900	0.299100
C251	C25	0.263400	0.763400	0.358300
C261	C26	0.583800	0.403700	0.309600
N11	N1	0.264300	0.398700	0.524100
N21	N2	0.725400	0.204100	0.736800
N31	N3	0.631600	0.375700	0.617300
N41	N4	0.735700	0.601300	0.475900
N51	N5	0.274600	0.795900	0.263200
N61	N6	0.368400	0.624300	0.382700
O11	O1	0.768200	0.658300	0.775600
O21	O2	0.833800	0.516000	0.910000
O31	O3	0.484800	0.936900	0.766300
O41	O4	0.280900	0.983300	0.889900
O51	O5	0.475400	0.438700	0.922400
O61	O6	0.595100	0.190500	0.924900
O71	O7	0.352500	0.668700	0.762200
O81	O8	0.374100	0.645900	0.605000
O91	O9	0.714400	0.857000	0.948100
O101	O10	0.158200	0.710200	0.950000
O111	O11	0.231800	0.341700	0.224400
O121	O12	0.166200	0.484000	0.090000
O131	O13	0.515200	0.063100	0.233700
O141	O14	0.719100	0.016700	0.110100
O151	O15	0.524600	0.561300	0.077600
O161	O16	0.404900	0.809500	0.075100
O171	O17	0.647500	0.331300	0.237800
O181	O18	0.625900	0.354100	0.395000
O191	O19	0.285600	0.143000	0.051900
O201	O20	0.841800	0.289800	0.050000
