data_QAWPIO_freeONLY_PM
_symmetry_space_group_name_H-M	'P1'
_cell_length_a	17.074000
_cell_length_b	17.074000
_cell_length_c	14.606000
_cell_angle_alpha	90.000000
_cell_angle_beta	90.000000
_cell_angle_gamma	90.000000
_symmetry_Int_Tables_number 1

loop_
_symmetry_equiv_pos_as_xyz
'x,y,z'

loop_
_atom_site_label
_atom_site_type_symbol
_atom_site_fract_x
_atom_site_fract_y
_atom_site_fract_z
N11	N1	0.661100	0.222300	0.160600
N21	N2	0.348900	0.214100	0.840200
C11	C1	0.335900	0.195800	0.926600
H11	H1	0.284900	0.184900	0.944800
C21	C2	0.395800	0.192300	0.992300
H21	H2	0.384000	0.180800	0.053000
C31	C3	0.470600	0.205600	0.966900
C41	C4	0.484700	0.224900	0.875100
H31	H3	0.535300	0.235900	0.855500
C51	C5	0.423200	0.227500	0.813900
H41	H4	0.433400	0.238700	0.752800
C61	C6	0.587000	0.237000	0.183300
H51	H5	0.577100	0.252700	0.243100
C71	C7	0.524600	0.230900	0.125800
H61	H6	0.474300	0.240700	0.147400
C81	C8	0.536000	0.209900	0.034300
C91	C9	0.611700	0.187500	0.011800
H71	H7	0.622200	0.167600	0.953900
C101	C10	0.671200	0.194600	0.074000
H81	H8	0.721300	0.179600	0.056200
O11	O1	0.829500	0.182300	0.181700
O21	O2	0.991000	0.129800	0.181900
O31	O3	0.941100	0.185700	0.038500
O41	O4	0.871100	0.019900	0.181600
O51	O5	0.820300	0.073100	0.036700
O61	O6	0.132900	0.120200	0.122700
O71	O7	0.069000	0.271100	0.125400
O81	O8	0.724000	0.957100	0.122400
O91	O9	0.113400	0.104500	0.317300
V11	V1	0.887760	0.122030	0.127820
V21	V2	0.048420	0.184580	0.089160
V31	V3	0.811630	0.967830	0.086690
V41	V4	0.071440	0.065360	0.230170
N31	N3	0.338900	0.777700	0.160600
N41	N4	0.651100	0.785900	0.840200
C111	C11	0.664100	0.804200	0.926600
H91	H9	0.715100	0.815100	0.944800
C121	C12	0.604200	0.807700	0.992300
H101	H10	0.616000	0.819200	0.053000
C131	C13	0.529400	0.794400	0.966900
C141	C14	0.515300	0.775100	0.875100
H111	H11	0.464700	0.764100	0.855500
C151	C15	0.576800	0.772500	0.813900
H121	H12	0.566600	0.761300	0.752800
C161	C16	0.413000	0.763000	0.183300
H131	H13	0.422900	0.747300	0.243100
C171	C17	0.475400	0.769100	0.125800
H141	H14	0.525700	0.759300	0.147400
C181	C18	0.464000	0.790100	0.034300
C191	C19	0.388300	0.812500	0.011800
H151	H15	0.377800	0.832400	0.953900
C201	C20	0.328800	0.805400	0.074000
H161	H16	0.278700	0.820400	0.056200
O101	O10	0.170500	0.817700	0.181700
O111	O11	0.009000	0.870200	0.181900
O121	O12	0.058900	0.814300	0.038500
O131	O13	0.128900	0.980100	0.181600
O141	O14	0.179700	0.926900	0.036700
O151	O15	0.867100	0.879800	0.122700
O161	O16	0.931000	0.728900	0.125400
O171	O17	0.276000	0.042900	0.122400
O181	O18	0.886600	0.895500	0.317300
V51	V5	0.112240	0.877970	0.127820
V61	V6	0.951580	0.815420	0.089160
V71	V7	0.188370	0.032170	0.086690
V81	V8	0.928560	0.934640	0.230170
N51	N5	0.222300	0.338900	0.839400
N61	N6	0.214100	0.651100	0.159800
C211	C21	0.195800	0.664100	0.073400
H171	H17	0.184900	0.715100	0.055200
C221	C22	0.192300	0.604200	0.007700
H181	H18	0.180800	0.616000	0.947000
C231	C23	0.205600	0.529400	0.033100
C241	C24	0.224900	0.515300	0.124900
H191	H19	0.235900	0.464700	0.144500
C251	C25	0.227500	0.576800	0.186100
H201	H20	0.238700	0.566600	0.247200
C261	C26	0.237000	0.413000	0.816700
H211	H21	0.252700	0.422900	0.756900
C271	C27	0.230900	0.475400	0.874200
H221	H22	0.240700	0.525700	0.852600
C281	C28	0.209900	0.464000	0.965700
C291	C29	0.187500	0.388300	0.988200
H231	H23	0.167600	0.377800	0.046100
C301	C30	0.194600	0.328800	0.926000
H241	H24	0.179600	0.278700	0.943800
O191	O19	0.182300	0.170500	0.818300
O201	O20	0.129800	0.009000	0.818100
O211	O21	0.185700	0.058900	0.961500
O221	O22	0.019900	0.128900	0.818400
O231	O23	0.073100	0.179700	0.963300
O241	O24	0.120200	0.867100	0.877300
O251	O25	0.271100	0.931000	0.874600
O261	O26	0.957100	0.276000	0.877600
O271	O27	0.104500	0.886600	0.682700
V91	V9	0.122030	0.112240	0.872180
V101	V10	0.184580	0.951580	0.910840
V111	V11	0.967830	0.188370	0.913310
V121	V12	0.065360	0.928560	0.769830
N71	N7	0.777700	0.661100	0.839400
N81	N8	0.785900	0.348900	0.159800
C311	C31	0.804200	0.335900	0.073400
H251	H25	0.815100	0.284900	0.055200
C321	C32	0.807700	0.395800	0.007700
H261	H26	0.819200	0.384000	0.947000
C331	C33	0.794400	0.470600	0.033100
C341	C34	0.775100	0.484700	0.124900
H271	H27	0.764100	0.535300	0.144500
C351	C35	0.772500	0.423200	0.186100
H281	H28	0.761300	0.433400	0.247200
C361	C36	0.763000	0.587000	0.816700
H291	H29	0.747300	0.577100	0.756900
C371	C37	0.769100	0.524600	0.874200
H301	H30	0.759300	0.474300	0.852600
C381	C38	0.790100	0.536000	0.965700
C391	C39	0.812500	0.611700	0.988200
H311	H31	0.832400	0.622200	0.046100
C401	C40	0.805400	0.671200	0.926000
H321	H32	0.820400	0.721300	0.943800
O281	O28	0.817700	0.829500	0.818300
O291	O29	0.870200	0.991000	0.818100
O301	O30	0.814300	0.941100	0.961500
O311	O31	0.980100	0.871100	0.818400
O321	O32	0.926900	0.820300	0.963300
O331	O33	0.879800	0.132900	0.877300
O341	O34	0.728900	0.069000	0.874600
O351	O35	0.042900	0.724000	0.877600
O361	O36	0.895500	0.113400	0.682700
V131	V13	0.877970	0.887760	0.872180
V141	V14	0.815420	0.048420	0.910840
V151	V15	0.032170	0.811630	0.913310
V161	V16	0.934640	0.071440	0.769830
N91	N9	0.161100	0.277700	0.660600
N101	N10	0.848900	0.285900	0.340200
C411	C41	0.835900	0.304200	0.426600
H331	H33	0.784900	0.315100	0.444800
C421	C42	0.895800	0.307700	0.492300
H341	H34	0.884000	0.319200	0.553000
C431	C43	0.970600	0.294400	0.466900
C441	C44	0.984700	0.275100	0.375100
H351	H35	0.035300	0.264100	0.355500
C451	C45	0.923200	0.272500	0.313900
H361	H36	0.933400	0.261300	0.252800
C461	C46	0.087000	0.263000	0.683300
H371	H37	0.077100	0.247300	0.743100
C471	C47	0.024600	0.269100	0.625800
H381	H38	0.974300	0.259300	0.647400
C481	C48	0.036000	0.290100	0.534300
C491	C49	0.111700	0.312500	0.511800
H391	H39	0.122200	0.332400	0.453900
C501	C50	0.171200	0.305400	0.574000
H401	H40	0.221300	0.320400	0.556200
O371	O37	0.329500	0.317700	0.681700
O381	O38	0.491000	0.370200	0.681900
O391	O39	0.441100	0.314300	0.538500
O401	O40	0.371100	0.480100	0.681600
O411	O41	0.320300	0.426900	0.536700
O421	O42	0.632900	0.379800	0.622700
O431	O43	0.569000	0.228900	0.625400
O441	O44	0.224000	0.542900	0.622400
O451	O45	0.613400	0.395500	0.817300
V171	V17	0.387760	0.377970	0.627820
V181	V18	0.548420	0.315420	0.589160
V191	V19	0.311630	0.532170	0.586690
V201	V20	0.571440	0.434640	0.730170
N111	N11	0.838900	0.722300	0.660600
N121	N12	0.151100	0.714100	0.340200
C511	C51	0.164100	0.695800	0.426600
H411	H41	0.215100	0.684900	0.444800
C521	C52	0.104200	0.692300	0.492300
H421	H42	0.116000	0.680800	0.553000
C531	C53	0.029400	0.705600	0.466900
C541	C54	0.015300	0.724900	0.375100
H431	H43	0.964700	0.735900	0.355500
C551	C55	0.076800	0.727500	0.313900
H441	H44	0.066600	0.738700	0.252800
C561	C56	0.913000	0.737000	0.683300
H451	H45	0.922900	0.752700	0.743100
C571	C57	0.975400	0.730900	0.625800
H461	H46	0.025700	0.740700	0.647400
C581	C58	0.964000	0.709900	0.534300
C591	C59	0.888300	0.687500	0.511800
H471	H47	0.877800	0.667600	0.453900
C601	C60	0.828800	0.694600	0.574000
H481	H48	0.778700	0.679600	0.556200
O461	O46	0.670500	0.682300	0.681700
O471	O47	0.509000	0.629800	0.681900
O481	O48	0.558900	0.685700	0.538500
O491	O49	0.628900	0.519900	0.681600
O501	O50	0.679700	0.573100	0.536700
O511	O51	0.367100	0.620200	0.622700
O521	O52	0.431000	0.771100	0.625400
O531	O53	0.776000	0.457100	0.622400
O541	O54	0.386600	0.604500	0.817300
V211	V21	0.612240	0.622030	0.627820
V221	V22	0.451580	0.684580	0.589160
V231	V23	0.688370	0.467830	0.586690
V241	V24	0.428560	0.565360	0.730170
N131	N13	0.722300	0.161100	0.339400
N141	N14	0.714100	0.848900	0.659800
C611	C61	0.695800	0.835900	0.573400
H491	H49	0.684900	0.784900	0.555200
C621	C62	0.692300	0.895800	0.507700
H501	H50	0.680800	0.884000	0.447000
C631	C63	0.705600	0.970600	0.533100
C641	C64	0.724900	0.984700	0.624900
H511	H51	0.735900	0.035300	0.644500
C651	C65	0.727500	0.923200	0.686100
H521	H52	0.738700	0.933400	0.747200
C661	C66	0.737000	0.087000	0.316700
H531	H53	0.752700	0.077100	0.256900
C671	C67	0.730900	0.024600	0.374200
H541	H54	0.740700	0.974300	0.352600
C681	C68	0.709900	0.036000	0.465700
C691	C69	0.687500	0.111700	0.488200
H551	H55	0.667600	0.122200	0.546100
C701	C70	0.694600	0.171200	0.426000
H561	H56	0.679600	0.221300	0.443800
O551	O55	0.682300	0.329500	0.318300
O561	O56	0.629800	0.491000	0.318100
O571	O57	0.685700	0.441100	0.461500
O581	O58	0.519900	0.371100	0.318400
O591	O59	0.573100	0.320300	0.463300
O601	O60	0.620200	0.632900	0.377300
O611	O61	0.771100	0.569000	0.374600
O621	O62	0.457100	0.224000	0.377600
O631	O63	0.604500	0.613400	0.182700
V251	V25	0.622030	0.387760	0.372180
V261	V26	0.684580	0.548420	0.410840
V271	V27	0.467830	0.311630	0.413310
V281	V28	0.565360	0.571440	0.269830
N151	N15	0.277700	0.838900	0.339400
N161	N16	0.285900	0.151100	0.659800
C711	C71	0.304200	0.164100	0.573400
H571	H57	0.315100	0.215100	0.555200
C721	C72	0.307700	0.104200	0.507700
H581	H58	0.319200	0.116000	0.447000
C731	C73	0.294400	0.029400	0.533100
C741	C74	0.275100	0.015300	0.624900
H591	H59	0.264100	0.964700	0.644500
C751	C75	0.272500	0.076800	0.686100
H601	H60	0.261300	0.066600	0.747200
C761	C76	0.263000	0.913000	0.316700
H611	H61	0.247300	0.922900	0.256900
C771	C77	0.269100	0.975400	0.374200
H621	H62	0.259300	0.025700	0.352600
C781	C78	0.290100	0.964000	0.465700
C791	C79	0.312500	0.888300	0.488200
H631	H63	0.332400	0.877800	0.546100
C801	C80	0.305400	0.828800	0.426000
H641	H64	0.320400	0.778700	0.443800
O641	O64	0.317700	0.670500	0.318300
O651	O65	0.370200	0.509000	0.318100
O661	O66	0.314300	0.558900	0.461500
O671	O67	0.480100	0.628900	0.318400
O681	O68	0.426900	0.679700	0.463300
O691	O69	0.379800	0.367100	0.377300
O701	O70	0.228900	0.431000	0.374600
O711	O71	0.542900	0.776000	0.377600
O721	O72	0.395500	0.386600	0.182700
V291	V29	0.377970	0.612240	0.372180
V301	V30	0.315420	0.451580	0.410840
V311	V31	0.532170	0.688370	0.413310
V321	V32	0.434640	0.428560	0.269830
O731	O73	0.000000	0.000000	0.283200
O741	O74	0.000000	0.000000	0.716800
O751	O75	0.500000	0.500000	0.783200
O761	O76	0.500000	0.500000	0.216800
Ni11	Ni1	0.754670	0.254670	0.250000
Ni21	Ni2	0.245330	0.745330	0.250000
Ni31	Ni3	0.254670	0.245330	0.750000
Ni41	Ni4	0.745330	0.754670	0.750000
