data_QERZUI01_freeONLY_PM
_symmetry_space_group_name_H-M	'P1'
_cell_length_a	5.118610
_cell_length_b	11.325400
_cell_length_c	12.576600
_cell_angle_alpha	92.029300
_cell_angle_beta	101.742000
_cell_angle_gamma	79.979000
_symmetry_Int_Tables_number 1

loop_
_symmetry_equiv_pos_as_xyz
'x,y,z'

loop_
_atom_site_label
_atom_site_type_symbol
_atom_site_fract_x
_atom_site_fract_y
_atom_site_fract_z
Cu11	Cu1	0.055640	0.783490	0.225940
Cu21	Cu2	0.829700	0.283490	0.774060
H11	H1	0.872500	0.507000	0.662800
H21	H2	0.652700	0.622000	0.512200
H31	H3	0.092500	0.405600	0.459200
H41	H4	0.324200	0.297200	0.611800
H51	H5	0.334900	0.107800	0.807200
H61	H6	0.597000	0.969200	0.932400
H71	H7	0.048500	0.056500	0.123400
H81	H8	0.810300	0.197500	0.997000
H91	H9	0.209700	0.007000	0.337200
H101	H10	0.140500	0.122000	0.487800
H111	H11	0.633300	0.905600	0.540800
H121	H12	0.712400	0.797200	0.388200
H131	H13	0.527700	0.607800	0.192800
H141	H14	0.664600	0.469200	0.067600
H151	H15	0.925100	0.556500	0.876600
H161	H16	0.813300	0.697500	0.003000
C11	C1	0.711730	0.486800	0.621260
C21	C2	0.582420	0.555900	0.530640
C31	C3	0.348210	0.525900	0.468020
C41	C4	0.251820	0.427900	0.499840
C51	C5	0.390570	0.363500	0.591340
C61	C6	0.194370	0.598100	0.368340
C71	C7	0.278000	0.098100	0.872400
C81	C8	0.435350	0.014100	0.946700
C91	C9	0.351990	0.996600	0.042980
C101	C10	0.112610	0.066300	0.059820
C111	C11	0.969660	0.149700	0.983320
C121	C12	0.516850	0.908400	0.127900
C131	C13	0.090470	0.986800	0.378740
C141	C14	0.051780	0.055900	0.469360
C151	C15	0.880190	0.025900	0.531980
C161	C16	0.751980	0.927900	0.500160
C171	C17	0.799230	0.863500	0.408660
C181	C18	0.826030	0.098100	0.631660
C191	C19	0.405600	0.598100	0.127600
C201	C20	0.488650	0.514100	0.053300
C211	C21	0.309010	0.496600	0.957020
C221	C22	0.052790	0.566300	0.940180
C231	C23	0.986340	0.649700	0.016680
C241	C24	0.388950	0.408400	0.872100
N11	N1	0.620330	0.393500	0.652460
N21	N2	0.048670	0.166100	0.889140
N31	N3	0.967870	0.893500	0.347540
N41	N4	0.159530	0.666100	0.110860
O11	O1	0.302850	0.683100	0.343500
O21	O2	0.976050	0.572300	0.320100
O31	O3	0.762960	0.873900	0.118320
O41	O4	0.409670	0.876300	0.199540
O51	O5	0.959350	0.183100	0.656500
O61	O6	0.655950	0.072300	0.679900
O71	O7	0.644640	0.373900	0.881680
O81	O8	0.210130	0.376300	0.800460
