data_QERZUI_freeONLY_PM
_symmetry_space_group_name_H-M	'P1'
_cell_length_a	5.032800
_cell_length_b	11.176000
_cell_length_c	12.679700
_cell_angle_alpha	91.847700
_cell_angle_beta	101.447000
_cell_angle_gamma	80.649900
_symmetry_Int_Tables_number 1

loop_
_symmetry_equiv_pos_as_xyz
'x,y,z'

loop_
_atom_site_label
_atom_site_type_symbol
_atom_site_fract_x
_atom_site_fract_y
_atom_site_fract_z
Cu11	Cu1	0.399440	0.197750	0.227000
Cu21	Cu2	0.172440	0.697750	0.773000
H11	H1	0.584900	0.589900	0.455400
H21	H2	0.170500	0.410600	0.873000
H31	H3	0.408400	0.273000	0.002600
H41	H4	0.633800	0.514400	0.066800
H51	H5	0.894100	0.377500	0.192600
H61	H6	0.096600	0.357300	0.511000
H71	H7	0.034300	0.467300	0.664600
H81	H8	0.506300	0.692700	0.609000
H91	H9	0.129500	0.089900	0.544600
H101	H10	0.297500	0.910600	0.127000
H111	H11	0.405800	0.773000	0.997400
H121	H12	0.567000	0.014400	0.933200
H131	H13	0.701500	0.877500	0.807400
H141	H14	0.585600	0.857300	0.489000
H151	H15	0.369700	0.967300	0.335400
H161	H16	0.897300	0.192700	0.391000
C11	C1	0.346670	0.461600	0.464540
C21	C2	0.400570	0.391500	0.364940
C31	C3	0.470900	0.563600	0.496200
C41	C4	0.108300	0.405100	0.936800
C51	C5	0.251850	0.323200	0.015700
C61	C6	0.791730	0.466800	0.052060
C71	C7	0.870690	0.478900	0.953780
C81	C8	0.707800	0.567600	0.869000
C91	C9	0.948890	0.383900	0.127380
C101	C10	0.181260	0.425200	0.528920
C111	C11	0.144030	0.492300	0.621260
C121	C12	0.422620	0.625000	0.588440
C131	C13	0.882130	0.961600	0.535460
C141	C14	0.035630	0.891500	0.635060
C151	C15	0.974700	0.063600	0.503800
C161	C16	0.171500	0.905100	0.063200
C171	C17	0.236150	0.823200	0.984300
C181	C18	0.739670	0.966800	0.947940
C191	C19	0.916910	0.978900	0.046220
C201	C20	0.838800	0.067600	0.131000
C211	C21	0.821510	0.883900	0.872620
C221	C22	0.652340	0.925200	0.471080
C231	C23	0.522770	0.992300	0.378740
C241	C24	0.834180	0.125000	0.411560
N11	N1	0.175580	0.312900	0.109960
N21	N2	0.259220	0.590500	0.649640
N31	N3	0.065620	0.812900	0.890040
N41	N4	0.609580	0.090500	0.350360
O11	O1	0.269030	0.303000	0.340860
O21	O2	0.817060	0.597500	0.797120
O31	O3	0.565880	0.420100	0.315360
O41	O4	0.460360	0.604200	0.878520
O51	O5	0.928170	0.803000	0.659140
O61	O6	0.019940	0.097500	0.202880
O71	O7	0.250520	0.920100	0.684640
O81	O8	0.581840	0.104200	0.121480
