data_QESLOQ_freeONLY_PM
_symmetry_space_group_name_H-M	'P1'
_cell_length_a	10.350000
_cell_length_b	12.190000
_cell_length_c	13.000000
_cell_angle_alpha	90.000000
_cell_angle_beta	90.000000
_cell_angle_gamma	90.000000
_symmetry_Int_Tables_number 1

loop_
_symmetry_equiv_pos_as_xyz
'x,y,z'

loop_
_atom_site_label
_atom_site_type_symbol
_atom_site_fract_x
_atom_site_fract_y
_atom_site_fract_z
O11	O1	0.545500	0.277500	0.162600
O21	O2	0.392000	0.133800	0.210200
O31	O3	0.105700	0.111900	0.240500
O41	O4	0.725800	0.024100	0.908200
O51	O5	0.454500	0.722500	0.162600
O61	O6	0.608000	0.866200	0.210200
O71	O7	0.894300	0.888100	0.240500
O81	O8	0.274200	0.975900	0.908200
O91	O9	0.454500	0.277500	0.337400
O101	O10	0.608000	0.133800	0.289800
O111	O11	0.894300	0.111900	0.259500
O121	O12	0.274200	0.024100	0.591800
O131	O13	0.545500	0.722500	0.337400
O141	O14	0.392000	0.866200	0.289800
O151	O15	0.105700	0.888100	0.259500
O161	O16	0.725800	0.975900	0.591800
O171	O17	0.454500	0.722500	0.837400
O181	O18	0.608000	0.866200	0.789800
O191	O19	0.894300	0.888100	0.759500
O201	O20	0.274200	0.975900	0.091800
O211	O21	0.545500	0.277500	0.837400
O221	O22	0.392000	0.133800	0.789800
O231	O23	0.105700	0.111900	0.759500
O241	O24	0.725800	0.024100	0.091800
O251	O25	0.545500	0.722500	0.662600
O261	O26	0.392000	0.866200	0.710200
O271	O27	0.105700	0.888100	0.740500
O281	O28	0.725800	0.975900	0.408200
O291	O29	0.454500	0.277500	0.662600
O301	O30	0.608000	0.133800	0.710200
O311	O31	0.894300	0.111900	0.740500
O321	O32	0.274200	0.024100	0.408200
In11	In1	0.559300	0.270300	0.000000
P11	P1	0.781000	0.083400	0.000000
C11	C1	0.574000	0.512300	0.000000
O331	O33	0.647800	0.431900	0.000000
O341	O34	0.607100	0.611100	0.000000
O351	O35	0.742600	0.201500	0.000000
O361	O36	0.419500	0.140400	0.000000
O371	O37	0.924000	0.091000	0.000000
In21	In2	0.440700	0.729700	0.000000
P21	P2	0.219000	0.916600	0.000000
C21	C2	0.426000	0.487700	0.000000
O381	O38	0.352200	0.568100	0.000000
O391	O39	0.392900	0.388900	0.000000
O401	O40	0.257400	0.798500	0.000000
O411	O41	0.580500	0.859600	0.000000
O421	O42	0.076000	0.909000	0.000000
In31	In3	0.440700	0.270300	0.500000
P31	P3	0.219000	0.083400	0.500000
C31	C3	0.426000	0.512300	0.500000
O431	O43	0.352200	0.431900	0.500000
O441	O44	0.392900	0.611100	0.500000
O451	O45	0.257400	0.201500	0.500000
O461	O46	0.580500	0.140400	0.500000
O471	O47	0.076000	0.091000	0.500000
In41	In4	0.559300	0.729700	0.500000
P41	P4	0.781000	0.916600	0.500000
C41	C4	0.574000	0.487700	0.500000
O481	O48	0.647800	0.568100	0.500000
O491	O49	0.607100	0.388900	0.500000
O501	O50	0.742600	0.798500	0.500000
O511	O51	0.419500	0.859600	0.500000
O521	O52	0.924000	0.909000	0.500000
In51	In5	0.275900	0.000000	0.250000
In61	In6	0.724100	0.000000	0.250000
In71	In7	0.724100	0.000000	0.750000
In81	In8	0.275900	0.000000	0.750000
P51	P5	0.500000	0.204300	0.250000
P61	P6	0.500000	0.795700	0.250000
P71	P7	0.500000	0.795700	0.750000
P81	P8	0.500000	0.204300	0.750000
C51	C5	0.000000	0.066700	0.250000
C61	C6	0.000000	0.933300	0.250000
C71	C7	0.000000	0.933300	0.750000
C81	C8	0.000000	0.066700	0.750000
