data_QEWDON_freeONLY_PM
_symmetry_space_group_name_H-M	'P1'
_cell_length_a	16.278200
_cell_length_b	16.278200
_cell_length_c	30.499200
_cell_angle_alpha	90.000000
_cell_angle_beta	90.000000
_cell_angle_gamma	90.000000
_symmetry_Int_Tables_number 1

loop_
_symmetry_equiv_pos_as_xyz
'x,y,z'

loop_
_atom_site_label
_atom_site_type_symbol
_atom_site_fract_x
_atom_site_fract_y
_atom_site_fract_z
Zn11	Zn1	0.638830	0.909960	0.796130
Zn21	Zn2	0.624680	0.886000	0.899700
Zn31	Zn3	0.861170	0.590040	0.796130
Zn41	Zn4	0.875320	0.614000	0.899700
Zn51	Zn5	0.590040	0.638830	0.796130
Zn61	Zn6	0.614000	0.624680	0.899700
Zn71	Zn7	0.909960	0.861170	0.796130
Zn81	Zn8	0.886000	0.875320	0.899700
Zn91	Zn9	0.361170	0.409960	0.703870
Zn101	Zn10	0.375320	0.386000	0.600300
Zn111	Zn11	0.138830	0.090040	0.703870
Zn121	Zn12	0.124680	0.114000	0.600300
Zn131	Zn13	0.409960	0.138830	0.703870
Zn141	Zn14	0.386000	0.124680	0.600300
Zn151	Zn15	0.090040	0.361170	0.703870
Zn161	Zn16	0.114000	0.375320	0.600300
Zn171	Zn17	0.361170	0.090040	0.203870
Zn181	Zn18	0.375320	0.114000	0.100300
Zn191	Zn19	0.138830	0.409960	0.203870
Zn201	Zn20	0.124680	0.386000	0.100300
Zn211	Zn21	0.409960	0.361170	0.203870
Zn221	Zn22	0.386000	0.375320	0.100300
Zn231	Zn23	0.090040	0.138830	0.203870
Zn241	Zn24	0.114000	0.124680	0.100300
Zn251	Zn25	0.638830	0.590040	0.296130
Zn261	Zn26	0.624680	0.614000	0.399700
Zn271	Zn27	0.861170	0.909960	0.296130
Zn281	Zn28	0.875320	0.886000	0.399700
Zn291	Zn29	0.590040	0.861170	0.296130
Zn301	Zn30	0.614000	0.875320	0.399700
Zn311	Zn31	0.909960	0.638830	0.296130
Zn321	Zn32	0.886000	0.624680	0.399700
H11	H1	0.387600	0.978500	0.911500
H21	H2	0.189700	0.059400	0.844700
H31	H3	0.403500	0.017900	0.780600
H41	H4	0.319900	0.052200	0.967100
H51	H5	0.106700	0.995300	0.028800
H61	H6	0.049600	0.958000	0.961500
H71	H7	0.125500	0.968900	0.897600
H81	H8	0.728600	0.849000	0.843400
H91	H9	0.112400	0.521500	0.911500
H101	H10	0.310300	0.440600	0.844700
H111	H11	0.096500	0.482100	0.780600
H121	H12	0.180100	0.447800	0.967100
H131	H13	0.393300	0.504700	0.028800
H141	H14	0.450400	0.542000	0.961500
H151	H15	0.374500	0.531100	0.897600
H161	H16	0.771400	0.651000	0.843400
H171	H17	0.521500	0.387600	0.911500
H181	H18	0.440600	0.189700	0.844700
H191	H19	0.482100	0.403500	0.780600
H201	H20	0.447800	0.319900	0.967100
H211	H21	0.504700	0.106700	0.028800
H221	H22	0.542000	0.049600	0.961500
H231	H23	0.531100	0.125500	0.897600
H241	H24	0.651000	0.728600	0.843400
H251	H25	0.978500	0.112400	0.911500
H261	H26	0.059400	0.310300	0.844700
H271	H27	0.017900	0.096500	0.780600
H281	H28	0.052200	0.180100	0.967100
H291	H29	0.995300	0.393300	0.028800
H301	H30	0.958000	0.450400	0.961500
H311	H31	0.968900	0.374500	0.897600
H321	H32	0.849000	0.771400	0.843400
H331	H33	0.612400	0.478500	0.588500
H341	H34	0.810300	0.559400	0.655300
H351	H35	0.596500	0.517900	0.719400
H361	H36	0.680100	0.552200	0.532900
H371	H37	0.893300	0.495300	0.471200
H381	H38	0.950400	0.458000	0.538500
H391	H39	0.874500	0.468900	0.602400
H401	H40	0.271400	0.349000	0.656600
H411	H41	0.887600	0.021500	0.588500
H421	H42	0.689700	0.940600	0.655300
H431	H43	0.903500	0.982100	0.719400
H441	H44	0.819900	0.947800	0.532900
H451	H45	0.606700	0.004700	0.471200
H461	H46	0.549600	0.042000	0.538500
H471	H47	0.625500	0.031100	0.602400
H481	H48	0.228600	0.151000	0.656600
H491	H49	0.478500	0.887600	0.588500
H501	H50	0.559400	0.689700	0.655300
H511	H51	0.517900	0.903500	0.719400
H521	H52	0.552200	0.819900	0.532900
H531	H53	0.495300	0.606700	0.471200
H541	H54	0.458000	0.549600	0.538500
H551	H55	0.468900	0.625500	0.602400
H561	H56	0.349000	0.228600	0.656600
H571	H57	0.021500	0.612400	0.588500
H581	H58	0.940600	0.810300	0.655300
H591	H59	0.982100	0.596500	0.719400
H601	H60	0.947800	0.680100	0.532900
H611	H61	0.004700	0.893300	0.471200
H621	H62	0.042000	0.950400	0.538500
H631	H63	0.031100	0.874500	0.602400
H641	H64	0.151000	0.271400	0.656600
H651	H65	0.612400	0.021500	0.088500
H661	H66	0.810300	0.940600	0.155300
H671	H67	0.596500	0.982100	0.219400
H681	H68	0.680100	0.947800	0.032900
H691	H69	0.893300	0.004700	0.971200
H701	H70	0.950400	0.042000	0.038500
H711	H71	0.874500	0.031100	0.102400
H721	H72	0.271400	0.151000	0.156600
H731	H73	0.887600	0.478500	0.088500
H741	H74	0.689700	0.559400	0.155300
H751	H75	0.903500	0.517900	0.219400
H761	H76	0.819900	0.552200	0.032900
H771	H77	0.606700	0.495300	0.971200
H781	H78	0.549600	0.458000	0.038500
H791	H79	0.625500	0.468900	0.102400
H801	H80	0.228600	0.349000	0.156600
H811	H81	0.478500	0.612400	0.088500
H821	H82	0.559400	0.810300	0.155300
H831	H83	0.517900	0.596500	0.219400
H841	H84	0.552200	0.680100	0.032900
H851	H85	0.495300	0.893300	0.971200
H861	H86	0.458000	0.950400	0.038500
H871	H87	0.468900	0.874500	0.102400
H881	H88	0.349000	0.271400	0.156600
H891	H89	0.021500	0.887600	0.088500
H901	H90	0.940600	0.689700	0.155300
H911	H91	0.982100	0.903500	0.219400
H921	H92	0.947800	0.819900	0.032900
H931	H93	0.004700	0.606700	0.971200
H941	H94	0.042000	0.549600	0.038500
H951	H95	0.031100	0.625500	0.102400
H961	H96	0.151000	0.228600	0.156600
H971	H97	0.387600	0.521500	0.411500
H981	H98	0.189700	0.440600	0.344700
H991	H99	0.403500	0.482100	0.280600
H1001	H100	0.319900	0.447800	0.467100
H1011	H101	0.106700	0.504700	0.528800
H1021	H102	0.049600	0.542000	0.461500
H1031	H103	0.125500	0.531100	0.397600
H1041	H104	0.728600	0.651000	0.343400
H1051	H105	0.112400	0.978500	0.411500
H1061	H106	0.310300	0.059400	0.344700
H1071	H107	0.096500	0.017900	0.280600
H1081	H108	0.180100	0.052200	0.467100
H1091	H109	0.393300	0.995300	0.528800
H1101	H110	0.450400	0.958000	0.461500
H1111	H111	0.374500	0.968900	0.397600
H1121	H112	0.771400	0.849000	0.343400
H1131	H113	0.521500	0.112400	0.411500
H1141	H114	0.440600	0.310300	0.344700
H1151	H115	0.482100	0.096500	0.280600
H1161	H116	0.447800	0.180100	0.467100
H1171	H117	0.504700	0.393300	0.528800
H1181	H118	0.542000	0.450400	0.461500
H1191	H119	0.531100	0.374500	0.397600
H1201	H120	0.651000	0.771400	0.343400
H1211	H121	0.978500	0.387600	0.411500
H1221	H122	0.059400	0.189700	0.344700
H1231	H123	0.017900	0.403500	0.280600
H1241	H124	0.052200	0.319900	0.467100
H1251	H125	0.995300	0.106700	0.528800
H1261	H126	0.958000	0.049600	0.461500
H1271	H127	0.968900	0.125500	0.397600
H1281	H128	0.849000	0.728600	0.343400
C11	C1	0.408100	0.993800	0.846100
C21	C2	0.362300	0.994200	0.884740
C31	C3	0.280000	0.017200	0.884630
C41	C4	0.245600	0.042500	0.845260
C51	C5	0.291400	0.043600	0.806050
C61	C6	0.372200	0.018400	0.806880
C71	C7	0.251100	0.066800	0.764160
C81	C8	0.231000	0.012400	0.925850
C91	C9	0.264700	0.033600	0.965860
C101	C10	0.219300	0.028100	0.004330
C111	C11	0.138300	0.999500	0.002650
C121	C12	0.104500	0.977600	0.962750
C131	C13	0.149600	0.984000	0.924790
C141	C14	0.256500	0.054000	0.046600
C151	C15	0.494000	0.960600	0.845920
C161	C16	0.091900	0.506200	0.846100
C171	C17	0.137700	0.505800	0.884740
C181	C18	0.220000	0.482800	0.884630
C191	C19	0.254400	0.457500	0.845260
C201	C20	0.208600	0.456400	0.806050
C211	C21	0.127800	0.481600	0.806880
C221	C22	0.248900	0.433200	0.764160
C231	C23	0.269000	0.487600	0.925850
C241	C24	0.235300	0.466400	0.965860
C251	C25	0.280700	0.471900	0.004330
C261	C26	0.361700	0.500500	0.002650
C271	C27	0.395500	0.522400	0.962750
C281	C28	0.350400	0.516000	0.924790
C291	C29	0.243500	0.446000	0.046600
C301	C30	0.006000	0.539400	0.845920
C311	C31	0.506200	0.408100	0.846100
C321	C32	0.505800	0.362300	0.884740
C331	C33	0.482800	0.280000	0.884630
C341	C34	0.457500	0.245600	0.845260
C351	C35	0.456400	0.291400	0.806050
C361	C36	0.481600	0.372200	0.806880
C371	C37	0.433200	0.251100	0.764160
C381	C38	0.487600	0.231000	0.925850
C391	C39	0.466400	0.264700	0.965860
C401	C40	0.471900	0.219300	0.004330
C411	C41	0.500500	0.138300	0.002650
C421	C42	0.522400	0.104500	0.962750
C431	C43	0.516000	0.149600	0.924790
C441	C44	0.446000	0.256500	0.046600
C451	C45	0.539400	0.494000	0.845920
C461	C46	0.993800	0.091900	0.846100
C471	C47	0.994200	0.137700	0.884740
C481	C48	0.017200	0.220000	0.884630
C491	C49	0.042500	0.254400	0.845260
C501	C50	0.043600	0.208600	0.806050
C511	C51	0.018400	0.127800	0.806880
C521	C52	0.066800	0.248900	0.764160
C531	C53	0.012400	0.269000	0.925850
C541	C54	0.033600	0.235300	0.965860
C551	C55	0.028100	0.280700	0.004330
C561	C56	0.999500	0.361700	0.002650
C571	C57	0.977600	0.395500	0.962750
C581	C58	0.984000	0.350400	0.924790
C591	C59	0.054000	0.243500	0.046600
C601	C60	0.960600	0.006000	0.845920
C611	C61	0.591900	0.493800	0.653900
C621	C62	0.637700	0.494200	0.615260
C631	C63	0.720000	0.517200	0.615370
C641	C64	0.754400	0.542500	0.654740
C651	C65	0.708600	0.543600	0.693950
C661	C66	0.627800	0.518400	0.693120
C671	C67	0.748900	0.566800	0.735840
C681	C68	0.769000	0.512400	0.574150
C691	C69	0.735300	0.533600	0.534140
C701	C70	0.780700	0.528100	0.495670
C711	C71	0.861700	0.499500	0.497350
C721	C72	0.895500	0.477600	0.537250
C731	C73	0.850400	0.484000	0.575210
C741	C74	0.743500	0.554000	0.453400
C751	C75	0.506000	0.460600	0.654080
C761	C76	0.908100	0.006200	0.653900
C771	C77	0.862300	0.005800	0.615260
C781	C78	0.780000	0.982800	0.615370
C791	C79	0.745600	0.957500	0.654740
C801	C80	0.791400	0.956400	0.693950
C811	C81	0.872200	0.981600	0.693120
C821	C82	0.751100	0.933200	0.735840
C831	C83	0.731000	0.987600	0.574150
C841	C84	0.764700	0.966400	0.534140
C851	C85	0.719300	0.971900	0.495670
C861	C86	0.638300	0.000500	0.497350
C871	C87	0.604500	0.022400	0.537250
C881	C88	0.649600	0.016000	0.575210
C891	C89	0.756500	0.946000	0.453400
C901	C90	0.994000	0.039400	0.654080
C911	C91	0.493800	0.908100	0.653900
C921	C92	0.494200	0.862300	0.615260
C931	C93	0.517200	0.780000	0.615370
C941	C94	0.542500	0.745600	0.654740
C951	C95	0.543600	0.791400	0.693950
C961	C96	0.518400	0.872200	0.693120
C971	C97	0.566800	0.751100	0.735840
C981	C98	0.512400	0.731000	0.574150
C991	C99	0.533600	0.764700	0.534140
C1001	C100	0.528100	0.719300	0.495670
C1011	C101	0.499500	0.638300	0.497350
C1021	C102	0.477600	0.604500	0.537250
C1031	C103	0.484000	0.649600	0.575210
C1041	C104	0.554000	0.756500	0.453400
C1051	C105	0.460600	0.994000	0.654080
C1061	C106	0.006200	0.591900	0.653900
C1071	C107	0.005800	0.637700	0.615260
C1081	C108	0.982800	0.720000	0.615370
C1091	C109	0.957500	0.754400	0.654740
C1101	C110	0.956400	0.708600	0.693950
C1111	C111	0.981600	0.627800	0.693120
C1121	C112	0.933200	0.748900	0.735840
C1131	C113	0.987600	0.769000	0.574150
C1141	C114	0.966400	0.735300	0.534140
C1151	C115	0.971900	0.780700	0.495670
C1161	C116	0.000500	0.861700	0.497350
C1171	C117	0.022400	0.895500	0.537250
C1181	C118	0.016000	0.850400	0.575210
C1191	C119	0.946000	0.743500	0.453400
C1201	C120	0.039400	0.506000	0.654080
C1211	C121	0.591900	0.006200	0.153900
C1221	C122	0.637700	0.005800	0.115260
C1231	C123	0.720000	0.982800	0.115370
C1241	C124	0.754400	0.957500	0.154740
C1251	C125	0.708600	0.956400	0.193950
C1261	C126	0.627800	0.981600	0.193120
C1271	C127	0.748900	0.933200	0.235840
C1281	C128	0.769000	0.987600	0.074150
C1291	C129	0.735300	0.966400	0.034140
C1301	C130	0.780700	0.971900	0.995670
C1311	C131	0.861700	0.000500	0.997350
C1321	C132	0.895500	0.022400	0.037250
C1331	C133	0.850400	0.016000	0.075210
C1341	C134	0.743500	0.946000	0.953400
C1351	C135	0.506000	0.039400	0.154080
C1361	C136	0.908100	0.493800	0.153900
C1371	C137	0.862300	0.494200	0.115260
C1381	C138	0.780000	0.517200	0.115370
C1391	C139	0.745600	0.542500	0.154740
C1401	C140	0.791400	0.543600	0.193950
C1411	C141	0.872200	0.518400	0.193120
C1421	C142	0.751100	0.566800	0.235840
C1431	C143	0.731000	0.512400	0.074150
C1441	C144	0.764700	0.533600	0.034140
C1451	C145	0.719300	0.528100	0.995670
C1461	C146	0.638300	0.499500	0.997350
C1471	C147	0.604500	0.477600	0.037250
C1481	C148	0.649600	0.484000	0.075210
C1491	C149	0.756500	0.554000	0.953400
C1501	C150	0.994000	0.460600	0.154080
C1511	C151	0.493800	0.591900	0.153900
C1521	C152	0.494200	0.637700	0.115260
C1531	C153	0.517200	0.720000	0.115370
C1541	C154	0.542500	0.754400	0.154740
C1551	C155	0.543600	0.708600	0.193950
C1561	C156	0.518400	0.627800	0.193120
C1571	C157	0.566800	0.748900	0.235840
C1581	C158	0.512400	0.769000	0.074150
C1591	C159	0.533600	0.735300	0.034140
C1601	C160	0.528100	0.780700	0.995670
C1611	C161	0.499500	0.861700	0.997350
C1621	C162	0.477600	0.895500	0.037250
C1631	C163	0.484000	0.850400	0.075210
C1641	C164	0.554000	0.743500	0.953400
C1651	C165	0.460600	0.506000	0.154080
C1661	C166	0.006200	0.908100	0.153900
C1671	C167	0.005800	0.862300	0.115260
C1681	C168	0.982800	0.780000	0.115370
C1691	C169	0.957500	0.745600	0.154740
C1701	C170	0.956400	0.791400	0.193950
C1711	C171	0.981600	0.872200	0.193120
C1721	C172	0.933200	0.751100	0.235840
C1731	C173	0.987600	0.731000	0.074150
C1741	C174	0.966400	0.764700	0.034140
C1751	C175	0.971900	0.719300	0.995670
C1761	C176	0.000500	0.638300	0.997350
C1771	C177	0.022400	0.604500	0.037250
C1781	C178	0.016000	0.649600	0.075210
C1791	C179	0.946000	0.756500	0.953400
C1801	C180	0.039400	0.994000	0.154080
C1811	C181	0.408100	0.506200	0.346100
C1821	C182	0.362300	0.505800	0.384740
C1831	C183	0.280000	0.482800	0.384630
C1841	C184	0.245600	0.457500	0.345260
C1851	C185	0.291400	0.456400	0.306050
C1861	C186	0.372200	0.481600	0.306880
C1871	C187	0.251100	0.433200	0.264160
C1881	C188	0.231000	0.487600	0.425850
C1891	C189	0.264700	0.466400	0.465860
C1901	C190	0.219300	0.471900	0.504330
C1911	C191	0.138300	0.500500	0.502650
C1921	C192	0.104500	0.522400	0.462750
C1931	C193	0.149600	0.516000	0.424790
C1941	C194	0.256500	0.446000	0.546600
C1951	C195	0.494000	0.539400	0.345920
C1961	C196	0.091900	0.993800	0.346100
C1971	C197	0.137700	0.994200	0.384740
C1981	C198	0.220000	0.017200	0.384630
C1991	C199	0.254400	0.042500	0.345260
C2001	C200	0.208600	0.043600	0.306050
C2011	C201	0.127800	0.018400	0.306880
C2021	C202	0.248900	0.066800	0.264160
C2031	C203	0.269000	0.012400	0.425850
C2041	C204	0.235300	0.033600	0.465860
C2051	C205	0.280700	0.028100	0.504330
C2061	C206	0.361700	0.999500	0.502650
C2071	C207	0.395500	0.977600	0.462750
C2081	C208	0.350400	0.984000	0.424790
C2091	C209	0.243500	0.054000	0.546600
C2101	C210	0.006000	0.960600	0.345920
C2111	C211	0.506200	0.091900	0.346100
C2121	C212	0.505800	0.137700	0.384740
C2131	C213	0.482800	0.220000	0.384630
C2141	C214	0.457500	0.254400	0.345260
C2151	C215	0.456400	0.208600	0.306050
C2161	C216	0.481600	0.127800	0.306880
C2171	C217	0.433200	0.248900	0.264160
C2181	C218	0.487600	0.269000	0.425850
C2191	C219	0.466400	0.235300	0.465860
C2201	C220	0.471900	0.280700	0.504330
C2211	C221	0.500500	0.361700	0.502650
C2221	C222	0.522400	0.395500	0.462750
C2231	C223	0.516000	0.350400	0.424790
C2241	C224	0.446000	0.243500	0.546600
C2251	C225	0.539400	0.006000	0.345920
C2261	C226	0.993800	0.408100	0.346100
C2271	C227	0.994200	0.362300	0.384740
C2281	C228	0.017200	0.280000	0.384630
C2291	C229	0.042500	0.245600	0.345260
C2301	C230	0.043600	0.291400	0.306050
C2311	C231	0.018400	0.372200	0.306880
C2321	C232	0.066800	0.251100	0.264160
C2331	C233	0.012400	0.231000	0.425850
C2341	C234	0.033600	0.264700	0.465860
C2351	C235	0.028100	0.219300	0.504330
C2361	C236	0.999500	0.138300	0.502650
C2371	C237	0.977600	0.104500	0.462750
C2381	C238	0.984000	0.149600	0.424790
C2391	C239	0.054000	0.256500	0.546600
C2401	C240	0.960600	0.494000	0.345920
O11	O1	0.291600	0.090200	0.731840
O21	O2	0.173200	0.058500	0.762930
O31	O3	0.333700	0.061100	0.047620
O41	O4	0.214100	0.067000	0.079840
O51	O5	0.677420	0.850600	0.847010
O61	O6	0.524380	0.943700	0.809570
O71	O7	0.528600	0.952300	0.882720
O81	O8	0.208400	0.409800	0.731840
O91	O9	0.326800	0.441500	0.762930
O101	O10	0.166300	0.438900	0.047620
O111	O11	0.285900	0.433000	0.079840
O121	O12	0.822580	0.649400	0.847010
O131	O13	0.975620	0.556300	0.809570
O141	O14	0.971400	0.547700	0.882720
O151	O15	0.409800	0.291600	0.731840
O161	O16	0.441500	0.173200	0.762930
O171	O17	0.438900	0.333700	0.047620
O181	O18	0.433000	0.214100	0.079840
O191	O19	0.649400	0.677420	0.847010
O201	O20	0.556300	0.524380	0.809570
O211	O21	0.547700	0.528600	0.882720
O221	O22	0.090200	0.208400	0.731840
O231	O23	0.058500	0.326800	0.762930
O241	O24	0.061100	0.166300	0.047620
O251	O25	0.067000	0.285900	0.079840
O261	O26	0.850600	0.822580	0.847010
O271	O27	0.943700	0.975620	0.809570
O281	O28	0.952300	0.971400	0.882720
O291	O29	0.708400	0.590200	0.768160
O301	O30	0.826800	0.558500	0.737070
O311	O31	0.666300	0.561100	0.452380
O321	O32	0.785900	0.567000	0.420160
O331	O33	0.322580	0.350600	0.652990
O341	O34	0.475620	0.443700	0.690430
O351	O35	0.471400	0.452300	0.617280
O361	O36	0.791600	0.909800	0.768160
O371	O37	0.673200	0.941500	0.737070
O381	O38	0.833700	0.938900	0.452380
O391	O39	0.714100	0.933000	0.420160
O401	O40	0.177420	0.149400	0.652990
O411	O41	0.024380	0.056300	0.690430
O421	O42	0.028600	0.047700	0.617280
O431	O43	0.590200	0.791600	0.768160
O441	O44	0.558500	0.673200	0.737070
O451	O45	0.561100	0.833700	0.452380
O461	O46	0.567000	0.714100	0.420160
O471	O47	0.350600	0.177420	0.652990
O481	O48	0.443700	0.024380	0.690430
O491	O49	0.452300	0.028600	0.617280
O501	O50	0.909800	0.708400	0.768160
O511	O51	0.941500	0.826800	0.737070
O521	O52	0.938900	0.666300	0.452380
O531	O53	0.933000	0.785900	0.420160
O541	O54	0.149400	0.322580	0.652990
O551	O55	0.056300	0.475620	0.690430
O561	O56	0.047700	0.471400	0.617280
O571	O57	0.708400	0.909800	0.268160
O581	O58	0.826800	0.941500	0.237070
O591	O59	0.666300	0.938900	0.952380
O601	O60	0.785900	0.933000	0.920160
O611	O61	0.322580	0.149400	0.152990
O621	O62	0.475620	0.056300	0.190430
O631	O63	0.471400	0.047700	0.117280
O641	O64	0.791600	0.590200	0.268160
O651	O65	0.673200	0.558500	0.237070
O661	O66	0.833700	0.561100	0.952380
O671	O67	0.714100	0.567000	0.920160
O681	O68	0.177420	0.350600	0.152990
O691	O69	0.024380	0.443700	0.190430
O701	O70	0.028600	0.452300	0.117280
O711	O71	0.590200	0.708400	0.268160
O721	O72	0.558500	0.826800	0.237070
O731	O73	0.561100	0.666300	0.952380
O741	O74	0.567000	0.785900	0.920160
O751	O75	0.350600	0.322580	0.152990
O761	O76	0.443700	0.475620	0.190430
O771	O77	0.452300	0.471400	0.117280
O781	O78	0.909800	0.791600	0.268160
O791	O79	0.941500	0.673200	0.237070
O801	O80	0.938900	0.833700	0.952380
O811	O81	0.933000	0.714100	0.920160
O821	O82	0.149400	0.177420	0.152990
O831	O83	0.056300	0.024380	0.190430
O841	O84	0.047700	0.028600	0.117280
O851	O85	0.291600	0.409800	0.231840
O861	O86	0.173200	0.441500	0.262930
O871	O87	0.333700	0.438900	0.547620
O881	O88	0.214100	0.433000	0.579840
O891	O89	0.677420	0.649400	0.347010
O901	O90	0.524380	0.556300	0.309570
O911	O91	0.528600	0.547700	0.382720
O921	O92	0.208400	0.090200	0.231840
O931	O93	0.326800	0.058500	0.262930
O941	O94	0.166300	0.061100	0.547620
O951	O95	0.285900	0.067000	0.579840
O961	O96	0.822580	0.850600	0.347010
O971	O97	0.975620	0.943700	0.309570
O981	O98	0.971400	0.952300	0.382720
O991	O99	0.409800	0.208400	0.231840
O1001	O100	0.441500	0.326800	0.262930
O1011	O101	0.438900	0.166300	0.547620
O1021	O102	0.433000	0.285900	0.579840
O1031	O103	0.649400	0.822580	0.347010
O1041	O104	0.556300	0.975620	0.309570
O1051	O105	0.547700	0.971400	0.382720
O1061	O106	0.090200	0.291600	0.231840
O1071	O107	0.058500	0.173200	0.262930
O1081	O108	0.061100	0.333700	0.547620
O1091	O109	0.067000	0.214100	0.579840
O1101	O110	0.850600	0.677420	0.347010
O1111	O111	0.943700	0.524380	0.309570
O1121	O112	0.952300	0.528600	0.382720
