data_QEZZIF_freeONLY_PM
_symmetry_space_group_name_H-M	'P1'
_cell_length_a	11.419000
_cell_length_b	20.293000
_cell_length_c	20.293000
_cell_angle_alpha	75.437700
_cell_angle_beta	73.659000
_cell_angle_gamma	73.659000
_symmetry_Int_Tables_number 1

loop_
_symmetry_equiv_pos_as_xyz
'x,y,z'

loop_
_atom_site_label
_atom_site_type_symbol
_atom_site_fract_x
_atom_site_fract_y
_atom_site_fract_z
Cu11	Cu1	0.848030	0.619520	0.116560
Cu21	Cu2	0.415890	0.116560	0.619520
Cu31	Cu3	0.651970	0.383440	0.880480
Cu41	Cu4	0.084110	0.880480	0.383440
Cu51	Cu5	0.151970	0.380480	0.883440
Cu61	Cu6	0.584110	0.883440	0.380480
Cu71	Cu7	0.348030	0.616560	0.119520
Cu81	Cu8	0.915890	0.119520	0.616560
Cu91	Cu9	0.113500	0.886500	0.886500
Cu101	Cu10	0.386500	0.613500	0.613500
Cu111	Cu11	0.886500	0.113500	0.113500
Cu121	Cu12	0.613500	0.386500	0.386500
H11	H1	0.268800	0.498300	0.239500
H21	H2	0.088600	0.454700	0.288300
H31	H3	0.916000	0.503400	0.239600
H41	H4	0.097900	0.634500	0.102700
H51	H5	0.993400	0.239500	0.498300
H61	H6	0.168400	0.288300	0.454700
H71	H7	0.341000	0.239600	0.503400
H81	H8	0.164900	0.102700	0.634500
H91	H9	0.231200	0.260500	0.001700
H101	H10	0.411400	0.211700	0.045300
H111	H11	0.584000	0.260400	0.996600
H121	H12	0.402100	0.397300	0.865500
H131	H13	0.506600	0.001700	0.260500
H141	H14	0.331600	0.045300	0.211700
H151	H15	0.159000	0.996600	0.260400
H161	H16	0.335100	0.865500	0.397300
H171	H17	0.731200	0.501700	0.760500
H181	H18	0.911400	0.545300	0.711700
H191	H19	0.084000	0.496600	0.760400
H201	H20	0.902100	0.365500	0.897300
H211	H21	0.006600	0.760500	0.501700
H221	H22	0.831600	0.711700	0.545300
H231	H23	0.659000	0.760400	0.496600
H241	H24	0.835100	0.897300	0.365500
H251	H25	0.768800	0.739500	0.998300
H261	H26	0.588600	0.788300	0.954700
H271	H27	0.416000	0.739600	0.003400
H281	H28	0.597900	0.602700	0.134500
H291	H29	0.493400	0.998300	0.739500
H301	H30	0.668400	0.954700	0.788300
H311	H31	0.841000	0.003400	0.739600
H321	H32	0.664900	0.134500	0.602700
W11	W1	0.936490	0.841820	0.158180
W21	W2	0.063510	0.158180	0.841820
W31	W3	0.563510	0.341820	0.658180
W41	W4	0.436490	0.658180	0.341820
W51	W5	0.750000	0.380290	0.119710
W61	W6	0.750000	0.119710	0.380290
W71	W7	0.250000	0.619710	0.880290
W81	W8	0.250000	0.880290	0.619710
C11	C1	0.892700	0.758810	0.128190
C21	C2	0.118920	0.773000	0.135560
C31	C3	0.012710	0.864780	0.047200
C41	C4	0.798270	0.476380	0.117280
C51	C5	0.082820	0.616420	0.963340
C61	C6	0.175920	0.727940	0.888620
C71	C7	0.596320	0.329340	0.153420
C81	C8	0.196670	0.518220	0.220440
C91	C9	0.090900	0.492190	0.249210
C101	C10	0.989810	0.520920	0.220460
C111	C11	0.096520	0.596510	0.141250
C121	C12	0.220300	0.128190	0.758810
C131	C13	0.972520	0.135560	0.773000
C141	C14	0.075310	0.047200	0.864780
C151	C15	0.608070	0.117280	0.476380
C161	C16	0.337420	0.963340	0.616420
C171	C17	0.207520	0.888620	0.727940
C181	C18	0.920920	0.153420	0.329340
C191	C19	0.064670	0.220440	0.518220
C201	C20	0.167700	0.249210	0.492190
C211	C21	0.268810	0.220460	0.520920
C221	C22	0.165720	0.141250	0.596510
C231	C23	0.607300	0.371810	0.741190
C241	C24	0.381080	0.364440	0.727000
C251	C25	0.487290	0.452800	0.635220
C261	C26	0.701730	0.382720	0.023620
C271	C27	0.417180	0.536660	0.883580
C281	C28	0.324080	0.611380	0.772060
C291	C29	0.903680	0.346580	0.170660
C301	C30	0.303330	0.279560	0.981780
C311	C31	0.409100	0.250790	0.007810
C321	C32	0.510190	0.279540	0.979080
C331	C33	0.403480	0.358750	0.903490
C341	C34	0.279700	0.741190	0.371810
C351	C35	0.527480	0.727000	0.364440
C361	C36	0.424690	0.635220	0.452800
C371	C37	0.891930	0.023620	0.382720
C381	C38	0.162580	0.883580	0.536660
C391	C39	0.292480	0.772060	0.611380
C401	C40	0.579080	0.170660	0.346580
C411	C41	0.435330	0.981780	0.279560
C421	C42	0.332300	0.007810	0.250790
C431	C43	0.231190	0.979080	0.279540
C441	C44	0.334280	0.903490	0.358750
C451	C45	0.107300	0.241190	0.871810
C461	C46	0.881080	0.227000	0.864440
C471	C47	0.987290	0.135220	0.952800
C481	C48	0.201730	0.523620	0.882720
C491	C49	0.917180	0.383580	0.036660
C501	C50	0.824080	0.272060	0.111380
C511	C51	0.403680	0.670660	0.846580
C521	C52	0.803330	0.481780	0.779560
C531	C53	0.909100	0.507810	0.750790
C541	C54	0.010190	0.479080	0.779540
C551	C55	0.903480	0.403490	0.858750
C561	C56	0.779700	0.871810	0.241190
C571	C57	0.027480	0.864440	0.227000
C581	C58	0.924690	0.952800	0.135220
C591	C59	0.391930	0.882720	0.523620
C601	C60	0.662580	0.036660	0.383580
C611	C61	0.792480	0.111380	0.272060
C621	C62	0.079080	0.846580	0.670660
C631	C63	0.935330	0.779560	0.481780
C641	C64	0.832300	0.750790	0.507810
C651	C65	0.731190	0.779540	0.479080
C661	C66	0.834280	0.858750	0.403490
C671	C67	0.392700	0.628190	0.258810
C681	C68	0.618920	0.635560	0.273000
C691	C69	0.512710	0.547200	0.364780
C701	C70	0.298270	0.617280	0.976380
C711	C71	0.582820	0.463340	0.116420
C721	C72	0.675920	0.388620	0.227940
C731	C73	0.096320	0.653420	0.829340
C741	C74	0.696670	0.720440	0.018220
C751	C75	0.590900	0.749210	0.992190
C761	C76	0.489810	0.720460	0.020920
C771	C77	0.596520	0.641250	0.096510
C781	C78	0.720300	0.258810	0.628190
C791	C79	0.472520	0.273000	0.635560
C801	C80	0.575310	0.364780	0.547200
C811	C81	0.108070	0.976380	0.617280
C821	C82	0.837420	0.116420	0.463340
C831	C83	0.707520	0.227940	0.388620
C841	C84	0.420920	0.829340	0.653420
C851	C85	0.564670	0.018220	0.720440
C861	C86	0.667700	0.992190	0.749210
C871	C87	0.768810	0.020920	0.720460
C881	C88	0.665720	0.096510	0.641250
C891	C89	0.776200	0.887900	0.112100
C901	C90	0.936500	0.754600	0.245400
C911	C91	0.223800	0.112100	0.887900
C921	C92	0.063500	0.245400	0.754600
C931	C93	0.723800	0.387900	0.612100
C941	C94	0.563500	0.254600	0.745400
C951	C95	0.276200	0.612100	0.387900
C961	C96	0.436500	0.745400	0.254600
N11	N1	0.872310	0.712230	0.115550
N21	N2	0.210300	0.732230	0.122370
N31	N3	0.050340	0.876100	0.988220
N41	N4	0.821040	0.527210	0.118510
N51	N5	0.995090	0.616800	0.007420
N61	N6	0.139970	0.785410	0.892650
N71	N7	0.513940	0.302360	0.168760
N81	N8	0.992760	0.573490	0.165590
N91	N9	0.199210	0.571120	0.166060
N101	N10	0.299910	0.115550	0.712230
N111	N11	0.935100	0.122370	0.732230
N121	N12	0.085340	0.988220	0.876100
N131	N13	0.533240	0.118510	0.527210
N141	N14	0.380690	0.007420	0.616800
N151	N15	0.181970	0.892650	0.785410
N161	N16	0.014940	0.168760	0.302360
N171	N17	0.268160	0.165590	0.573490
N181	N18	0.063610	0.166060	0.571120
N191	N19	0.627690	0.384450	0.787770
N201	N20	0.289700	0.377630	0.767770
N211	N21	0.449660	0.511780	0.623900
N221	N22	0.678960	0.381490	0.972790
N231	N23	0.504910	0.492580	0.883200
N241	N24	0.360030	0.607350	0.714590
N251	N25	0.986060	0.331240	0.197640
N261	N26	0.507240	0.334410	0.926510
N271	N27	0.300790	0.333940	0.928880
N281	N28	0.200090	0.787770	0.384450
N291	N29	0.564900	0.767770	0.377630
N301	N30	0.414660	0.623900	0.511780
N311	N31	0.966760	0.972790	0.381490
N321	N32	0.119310	0.883200	0.492580
N331	N33	0.318030	0.714590	0.607350
N341	N34	0.485060	0.197640	0.331240
N351	N35	0.231840	0.926510	0.334410
N361	N36	0.436390	0.928880	0.333940
N371	N37	0.127690	0.287770	0.884450
N381	N38	0.789700	0.267770	0.877630
N391	N39	0.949660	0.123900	0.011780
N401	N40	0.178960	0.472790	0.881490
N411	N41	0.004910	0.383200	0.992580
N421	N42	0.860030	0.214590	0.107350
N431	N43	0.486060	0.697640	0.831240
N441	N44	0.007240	0.426510	0.834410
N451	N45	0.800790	0.428880	0.833940
N461	N46	0.700090	0.884450	0.287770
N471	N47	0.064900	0.877630	0.267770
N481	N48	0.914660	0.011780	0.123900
N491	N49	0.466760	0.881490	0.472790
N501	N50	0.619310	0.992580	0.383200
N511	N51	0.818030	0.107350	0.214590
N521	N52	0.985060	0.831240	0.697640
N531	N53	0.731840	0.834410	0.426510
N541	N54	0.936390	0.833940	0.428880
N551	N55	0.372310	0.615550	0.212230
N561	N56	0.710300	0.622370	0.232230
N571	N57	0.550340	0.488220	0.376100
N581	N58	0.321040	0.618510	0.027210
N591	N59	0.495090	0.507420	0.116800
N601	N60	0.639970	0.392650	0.285410
N611	N61	0.013940	0.668760	0.802360
N621	N62	0.492760	0.665590	0.073490
N631	N63	0.699210	0.666060	0.071120
N641	N64	0.799910	0.212230	0.615550
N651	N65	0.435100	0.232230	0.622370
N661	N66	0.585340	0.376100	0.488220
N671	N67	0.033240	0.027210	0.618510
N681	N68	0.880690	0.116800	0.507420
N691	N69	0.681970	0.285410	0.392650
N701	N70	0.514940	0.802360	0.668760
N711	N71	0.768160	0.073490	0.665590
N721	N72	0.563610	0.071120	0.666060
N731	N73	0.692500	0.912300	0.087700
N741	N74	0.934200	0.709200	0.290800
N751	N75	0.307500	0.087700	0.912300
N761	N76	0.065800	0.290800	0.709200
N771	N77	0.807500	0.412300	0.587700
N781	N78	0.565800	0.209200	0.790800
N791	N79	0.192500	0.587700	0.412300
N801	N80	0.434200	0.790800	0.209200
