data_QEZZOL_freeONLY_PM
_symmetry_space_group_name_H-M	'P1'
_cell_length_a	11.528400
_cell_length_b	14.761000
_cell_length_c	25.593000
_cell_angle_alpha	90.000000
_cell_angle_beta	90.000000
_cell_angle_gamma	90.000000
_symmetry_Int_Tables_number 1

loop_
_symmetry_equiv_pos_as_xyz
'x,y,z'

loop_
_atom_site_label
_atom_site_type_symbol
_atom_site_fract_x
_atom_site_fract_y
_atom_site_fract_z
Cu11	Cu1	0.500000	0.500000	0.500000
Cu21	Cu2	0.500000	0.000000	0.000000
Cu31	Cu3	0.500000	0.500000	0.000000
Cu41	Cu4	0.500000	0.000000	0.500000
Cu51	Cu5	0.000000	0.500000	0.500000
Cu61	Cu6	0.000000	0.000000	0.000000
Cu71	Cu7	0.000000	0.500000	0.000000
Cu81	Cu8	0.000000	0.000000	0.500000
Cu91	Cu9	0.685060	0.514040	0.250000
Cu101	Cu10	0.685060	0.985960	0.250000
Cu111	Cu11	0.314940	0.485960	0.750000
Cu121	Cu12	0.314940	0.014040	0.750000
H11	H1	0.750100	0.499200	0.484600
H21	H2	0.578100	0.553500	0.611900
H31	H3	0.751200	0.578500	0.654400
H41	H4	0.921900	0.555600	0.610200
H51	H5	0.750100	0.000800	0.015400
H61	H6	0.578100	0.946500	0.888100
H71	H7	0.751200	0.921500	0.845600
H81	H8	0.921900	0.944400	0.889800
H91	H9	0.249900	0.500800	0.984600
H101	H10	0.421900	0.446500	0.111900
H111	H11	0.248800	0.421500	0.154400
H121	H12	0.078100	0.444400	0.110200
H131	H13	0.249900	0.999200	0.515400
H141	H14	0.421900	0.053500	0.388100
H151	H15	0.248800	0.078500	0.345600
H161	H16	0.078100	0.055600	0.389800
H171	H17	0.249900	0.500800	0.515400
H181	H18	0.421900	0.446500	0.388100
H191	H19	0.248800	0.421500	0.345600
H201	H20	0.078100	0.444400	0.389800
H211	H21	0.249900	0.999200	0.984600
H221	H22	0.421900	0.053500	0.111900
H231	H23	0.248800	0.078500	0.154400
H241	H24	0.078100	0.055600	0.110200
H251	H25	0.750100	0.499200	0.015400
H261	H26	0.578100	0.553500	0.888100
H271	H27	0.751200	0.578500	0.845600
H281	H28	0.921900	0.555600	0.889800
H291	H29	0.750100	0.000800	0.484600
H301	H30	0.578100	0.946500	0.611900
H311	H31	0.751200	0.921500	0.654400
H321	H32	0.921900	0.944400	0.610200
W11	W1	0.723300	0.250000	0.389440
W21	W2	0.723300	0.250000	0.110560
W31	W3	0.276700	0.750000	0.889440
W41	W4	0.276700	0.750000	0.610560
W51	W5	0.772610	0.750000	0.400510
W61	W6	0.772610	0.750000	0.099490
W71	W7	0.227390	0.250000	0.900510
W81	W8	0.227390	0.250000	0.599490
C11	C1	0.626000	0.342900	0.439100
C21	C2	0.841000	0.339000	0.431300
C31	C3	0.710400	0.361600	0.334500
C41	C4	0.636700	0.655700	0.423600
C51	C5	0.883600	0.642100	0.427500
C61	C6	0.734900	0.657800	0.336900
C71	C7	0.750200	0.513900	0.519900
C81	C8	0.647700	0.546500	0.594000
C91	C9	0.750400	0.560600	0.619600
C101	C10	0.851900	0.547700	0.592700
C111	C11	0.626000	0.157100	0.060900
C121	C12	0.841000	0.161000	0.068700
C131	C13	0.710400	0.138400	0.165500
C141	C14	0.636700	0.844300	0.076400
C151	C15	0.883600	0.857900	0.072500
C161	C16	0.734900	0.842200	0.163100
C171	C17	0.750200	0.986100	0.980100
C181	C18	0.647700	0.953500	0.906000
C191	C19	0.750400	0.939400	0.880400
C201	C20	0.851900	0.952300	0.907300
C211	C21	0.374000	0.657100	0.939100
C221	C22	0.159000	0.661000	0.931300
C231	C23	0.289600	0.638400	0.834500
C241	C24	0.363300	0.344300	0.923600
C251	C25	0.116400	0.357900	0.927500
C261	C26	0.265100	0.342200	0.836900
C271	C27	0.249800	0.486100	0.019900
C281	C28	0.352300	0.453500	0.094000
C291	C29	0.249600	0.439400	0.119600
C301	C30	0.148100	0.452300	0.092700
C311	C31	0.374000	0.842900	0.560900
C321	C32	0.159000	0.839000	0.568700
C331	C33	0.289600	0.861600	0.665500
C341	C34	0.363300	0.155700	0.576400
C351	C35	0.116400	0.142100	0.572500
C361	C36	0.265100	0.157800	0.663100
C371	C37	0.249800	0.013900	0.480100
C381	C38	0.352300	0.046500	0.406000
C391	C39	0.249600	0.060600	0.380400
C401	C40	0.148100	0.047700	0.407300
C411	C41	0.374000	0.657100	0.560900
C421	C42	0.159000	0.661000	0.568700
C431	C43	0.289600	0.638400	0.665500
C441	C44	0.363300	0.344300	0.576400
C451	C45	0.116400	0.357900	0.572500
C461	C46	0.265100	0.342200	0.663100
C471	C47	0.249800	0.486100	0.480100
C481	C48	0.352300	0.453500	0.406000
C491	C49	0.249600	0.439400	0.380400
C501	C50	0.148100	0.452300	0.407300
C511	C51	0.374000	0.842900	0.939100
C521	C52	0.159000	0.839000	0.931300
C531	C53	0.289600	0.861600	0.834500
C541	C54	0.363300	0.155700	0.923600
C551	C55	0.116400	0.142100	0.927500
C561	C56	0.265100	0.157800	0.836900
C571	C57	0.249800	0.013900	0.019900
C581	C58	0.352300	0.046500	0.094000
C591	C59	0.249600	0.060600	0.119600
C601	C60	0.148100	0.047700	0.092700
C611	C61	0.626000	0.342900	0.060900
C621	C62	0.841000	0.339000	0.068700
C631	C63	0.710400	0.361600	0.165500
C641	C64	0.636700	0.655700	0.076400
C651	C65	0.883600	0.642100	0.072500
C661	C66	0.734900	0.657800	0.163100
C671	C67	0.750200	0.513900	0.980100
C681	C68	0.647700	0.546500	0.906000
C691	C69	0.750400	0.560600	0.880400
C701	C70	0.851900	0.547700	0.907300
C711	C71	0.626000	0.157100	0.439100
C721	C72	0.841000	0.161000	0.431300
C731	C73	0.710400	0.138400	0.334500
C741	C74	0.636700	0.844300	0.423600
C751	C75	0.883600	0.857900	0.427500
C761	C76	0.734900	0.842200	0.336900
C771	C77	0.750200	0.986100	0.519900
C781	C78	0.647700	0.953500	0.594000
C791	C79	0.750400	0.939400	0.619600
C801	C80	0.851900	0.952300	0.592700
C811	C81	0.547100	0.250000	0.358800
C821	C82	0.885300	0.250000	0.346800
C831	C83	0.547100	0.250000	0.141200
C841	C84	0.885300	0.250000	0.153200
C851	C85	0.452900	0.750000	0.858800
C861	C86	0.114700	0.750000	0.846800
C871	C87	0.452900	0.750000	0.641200
C881	C88	0.114700	0.750000	0.653200
C891	C89	0.925300	0.750000	0.350800
C901	C90	0.767500	0.750000	0.485900
C911	C91	0.925300	0.750000	0.149200
C921	C92	0.767500	0.750000	0.014100
C931	C93	0.074700	0.250000	0.850800
C941	C94	0.232500	0.250000	0.985900
C951	C95	0.074700	0.250000	0.649200
C961	C96	0.232500	0.250000	0.514100
N11	N1	0.576800	0.396300	0.462000
N21	N2	0.902100	0.385800	0.453300
N31	N3	0.701800	0.419500	0.304200
N41	N4	0.570400	0.602400	0.436600
N51	N5	0.941800	0.586200	0.446000
N61	N6	0.715600	0.607200	0.304200
N71	N7	0.646200	0.522400	0.542700
N81	N8	0.853800	0.524100	0.542300
N91	N9	0.576800	0.103700	0.038000
N101	N10	0.902100	0.114200	0.046700
N111	N11	0.701800	0.080500	0.195800
N121	N12	0.570400	0.897600	0.063400
N131	N13	0.941800	0.913800	0.054000
N141	N14	0.715600	0.892800	0.195800
N151	N15	0.646200	0.977600	0.957300
N161	N16	0.853800	0.975900	0.957700
N171	N17	0.423200	0.603700	0.962000
N181	N18	0.097900	0.614200	0.953300
N191	N19	0.298200	0.580500	0.804200
N201	N20	0.429600	0.397600	0.936600
N211	N21	0.058200	0.413800	0.946000
N221	N22	0.284400	0.392800	0.804200
N231	N23	0.353800	0.477600	0.042700
N241	N24	0.146200	0.475900	0.042300
N251	N25	0.423200	0.896300	0.538000
N261	N26	0.097900	0.885800	0.546700
N271	N27	0.298200	0.919500	0.695800
N281	N28	0.429600	0.102400	0.563400
N291	N29	0.058200	0.086200	0.554000
N301	N30	0.284400	0.107200	0.695800
N311	N31	0.353800	0.022400	0.457300
N321	N32	0.146200	0.024100	0.457700
N331	N33	0.423200	0.603700	0.538000
N341	N34	0.097900	0.614200	0.546700
N351	N35	0.298200	0.580500	0.695800
N361	N36	0.429600	0.397600	0.563400
N371	N37	0.058200	0.413800	0.554000
N381	N38	0.284400	0.392800	0.695800
N391	N39	0.353800	0.477600	0.457300
N401	N40	0.146200	0.475900	0.457700
N411	N41	0.423200	0.896300	0.962000
N421	N42	0.097900	0.885800	0.953300
N431	N43	0.298200	0.919500	0.804200
N441	N44	0.429600	0.102400	0.936600
N451	N45	0.058200	0.086200	0.946000
N461	N46	0.284400	0.107200	0.804200
N471	N47	0.353800	0.022400	0.042700
N481	N48	0.146200	0.024100	0.042300
N491	N49	0.576800	0.396300	0.038000
N501	N50	0.902100	0.385800	0.046700
N511	N51	0.701800	0.419500	0.195800
N521	N52	0.570400	0.602400	0.063400
N531	N53	0.941800	0.586200	0.054000
N541	N54	0.715600	0.607200	0.195800
N551	N55	0.646200	0.522400	0.957300
N561	N56	0.853800	0.524100	0.957700
N571	N57	0.576800	0.103700	0.462000
N581	N58	0.902100	0.114200	0.453300
N591	N59	0.701800	0.080500	0.304200
N601	N60	0.570400	0.897600	0.436600
N611	N61	0.941800	0.913800	0.446000
N621	N62	0.715600	0.892800	0.304200
N631	N63	0.646200	0.977600	0.542700
N641	N64	0.853800	0.975900	0.542300
N651	N65	0.454700	0.250000	0.341600
N661	N66	0.972100	0.250000	0.324000
N671	N67	0.454700	0.250000	0.158400
N681	N68	0.972100	0.250000	0.176000
N691	N69	0.545300	0.750000	0.841600
N701	N70	0.027900	0.750000	0.824000
N711	N71	0.545300	0.750000	0.658400
N721	N72	0.027900	0.750000	0.676000
N731	N73	0.005800	0.750000	0.323300
N741	N74	0.766100	0.750000	0.530400
N751	N75	0.005800	0.750000	0.176700
N761	N76	0.766100	0.750000	0.969600
N771	N77	0.994200	0.250000	0.823300
N781	N78	0.233900	0.250000	0.030400
N791	N79	0.994200	0.250000	0.676700
N801	N80	0.233900	0.250000	0.469600
O11	O1	0.497400	0.526100	0.250000
O21	O2	0.497400	0.973900	0.250000
O31	O3	0.502600	0.473900	0.750000
O41	O4	0.502600	0.026100	0.750000
