data_QITDEE_freeONLY_PM
_symmetry_space_group_name_H-M	'P1'
_cell_length_a	12.382500
_cell_length_b	13.012800
_cell_length_c	15.372900
_cell_angle_alpha	91.351000
_cell_angle_beta	94.864000
_cell_angle_gamma	98.730000
_symmetry_Int_Tables_number 1

loop_
_symmetry_equiv_pos_as_xyz
'x,y,z'

loop_
_atom_site_label
_atom_site_type_symbol
_atom_site_fract_x
_atom_site_fract_y
_atom_site_fract_z
Cd11	Cd1	0.508310	0.614940	0.423380
Cd21	Cd2	0.823840	0.192770	0.149490
Cd31	Cd3	0.491690	0.385060	0.576620
Cd41	Cd4	0.176160	0.807230	0.850510
H11	H1	0.413000	0.759200	0.788100
H21	H2	0.647100	0.211000	0.619000
H31	H3	0.567900	0.463600	0.924500
H41	H4	0.171600	0.232800	0.427600
H51	H5	0.782100	0.406000	0.629600
H61	H6	0.116200	0.833300	0.453800
H71	H7	0.561600	0.869300	0.021300
H81	H8	0.598300	0.796500	0.729300
H91	H9	0.438000	0.146500	0.803400
H101	H10	0.645400	0.368100	0.406500
H111	H11	0.911500	0.823700	0.052800
H121	H12	0.429300	0.347400	0.865000
H131	H13	0.830000	0.539000	0.551000
H141	H14	0.649600	0.815800	0.140100
H151	H15	0.088500	0.176300	0.947200
H161	H16	0.570700	0.652600	0.135000
H171	H17	0.088700	0.556900	0.260300
H181	H18	0.721100	0.994300	0.280900
H191	H19	0.335300	0.536400	0.135000
H201	H20	0.516200	0.722100	0.916700
H211	H21	0.252800	0.371100	0.253100
H221	H22	0.926900	0.256400	0.695500
H231	H23	0.848200	0.525300	0.782100
H241	H24	0.810000	0.076200	0.490600
H251	H25	0.987200	0.172300	0.654100
H261	H26	0.943000	0.908500	0.824000
H271	H27	0.992300	0.415000	0.433500
H281	H28	0.883800	0.166700	0.546200
H291	H29	0.782300	0.251500	0.390500
H301	H30	0.217900	0.594000	0.370400
H311	H31	0.685300	0.976900	0.901300
H321	H32	0.170000	0.461000	0.449000
H331	H33	0.110800	0.822300	0.137600
H341	H34	0.691900	0.323500	0.790500
H351	H35	0.012800	0.827700	0.345900
H361	H36	0.720700	0.713300	0.680400
H371	H37	0.564900	0.819500	0.631800
H381	H38	0.027900	0.526300	0.399000
H391	H39	0.935000	0.791700	0.636700
H401	H40	0.819300	0.739400	0.752000
H411	H41	0.151800	0.474700	0.217900
H421	H42	0.829500	0.082500	0.910000
H431	H43	0.073100	0.743600	0.304500
H441	H44	0.541300	0.643600	0.988700
H451	H45	0.331800	0.011900	0.517100
H461	H46	0.180700	0.260600	0.248000
H471	H47	0.745200	0.883500	0.877700
H481	H48	0.432100	0.536400	0.075500
H491	H49	0.747200	0.628900	0.746900
H501	H50	0.681200	0.437600	0.963800
H511	H51	0.707800	0.464200	0.685700
H521	H52	0.083100	0.540500	0.638700
H531	H53	0.562000	0.853500	0.196600
H541	H54	0.436800	0.057900	0.472300
H551	H55	0.649400	0.208700	0.814200
H561	H56	0.742500	0.276900	0.875000
H571	H57	0.350600	0.791300	0.185800
H581	H58	0.563200	0.942100	0.527700
H591	H59	0.007700	0.585000	0.566500
H601	H60	0.428100	0.625900	0.932100
H611	H61	0.571900	0.374100	0.067900
H621	H62	0.784000	0.955800	0.060300
H631	H63	0.668200	0.988100	0.482900
H641	H64	0.462800	0.019100	0.654600
H651	H65	0.468200	0.898400	0.076900
H661	H66	0.656700	0.875000	0.517600
H671	H67	0.279300	0.286700	0.319600
H681	H68	0.314700	0.023100	0.098700
H691	H69	0.621700	0.881700	0.844300
H701	H70	0.587000	0.240800	0.211900
H711	H71	0.354600	0.631900	0.593500
H721	H72	0.972100	0.473700	0.601000
H731	H73	0.057000	0.091500	0.176000
H741	H74	0.458700	0.356400	0.011300
H751	H75	0.010800	0.815000	0.244100
H761	H76	0.308100	0.676500	0.209500
H771	H77	0.343300	0.125000	0.482400
H781	H78	0.401700	0.203500	0.270700
H791	H79	0.537200	0.980900	0.345400
H801	H80	0.257500	0.723100	0.125000
H811	H81	0.278900	0.005700	0.719100
H821	H82	0.170500	0.917500	0.090000
H831	H83	0.916900	0.459500	0.361300
H841	H84	0.318800	0.562400	0.036200
H851	H85	0.350400	0.184200	0.859900
H861	H86	0.989200	0.185000	0.755900
H871	H87	0.435100	0.180500	0.368200
H881	H88	0.066700	0.280300	0.446700
H891	H89	0.438400	0.130700	0.978700
H901	H90	0.065000	0.208300	0.363300
H911	H91	0.911300	0.443100	0.739700
H921	H92	0.190000	0.923800	0.509400
H931	H93	0.292200	0.535800	0.314300
H941	H94	0.828400	0.767200	0.572400
H951	H95	0.378300	0.118300	0.155700
H961	H96	0.664700	0.463600	0.865000
H971	H97	0.217700	0.748500	0.609500
H981	H98	0.889200	0.177700	0.862400
H991	H99	0.352900	0.789000	0.381000
H1001	H100	0.216000	0.044200	0.939700
H1011	H101	0.531800	0.101600	0.923100
H1021	H102	0.483800	0.277900	0.083300
H1031	H103	0.254800	0.116500	0.122300
H1041	H104	0.933300	0.719700	0.553300
C11	C1	0.109300	0.260400	0.401700
C21	C2	0.215000	0.930200	0.378100
C31	C3	0.302700	0.012700	0.382500
C41	C4	0.629800	0.430800	0.912800
C51	C5	0.143500	0.033900	0.915700
C61	C6	0.321900	0.422100	0.467600
C71	C7	0.485200	0.677300	0.959900
C81	C8	0.785000	0.069800	0.621900
C91	C9	0.273700	0.021300	0.225700
C101	C10	0.773500	0.683000	0.712700
C111	C11	0.125900	0.897600	0.137600
C121	C12	0.332100	0.060200	0.305000
C131	C13	0.591400	0.315700	0.889300
C141	C14	0.945800	0.188000	0.701500
C151	C15	0.262100	0.745400	0.564000
C161	C16	0.514800	0.322700	0.040100
C171	C17	0.189600	0.872500	0.462600
C181	C18	0.672200	0.041900	0.274900
C191	C19	0.510700	0.844200	0.063400
C201	C20	0.667900	0.939800	0.695000
C211	C21	0.840400	0.107800	0.699700
C221	C22	0.359000	0.056000	0.472000
C231	C23	0.856500	0.966100	0.084300
C241	C24	0.019900	0.673400	0.747000
C251	C25	0.423200	0.150600	0.309100
C261	C26	0.813200	0.059900	0.775900
C271	C27	0.776400	0.471700	0.658700
C281	C28	0.890700	0.739600	0.598300
C291	C29	0.641000	0.944000	0.528000
C301	C30	0.126800	0.498200	0.272000
C311	C31	0.051400	0.409600	0.311400
C321	C32	0.564300	0.256000	0.970800
C331	C33	0.571700	0.809500	0.147000
C341	C34	0.576800	0.849400	0.690900
C351	C35	0.402700	0.821800	0.763300
C361	C36	0.850700	0.642700	0.651300
C371	C37	0.074800	0.110200	0.920700
C381	C38	0.159600	0.892200	0.300300
C391	C39	0.597300	0.178200	0.236700
C401	C40	0.697300	0.987300	0.617500
C411	C41	0.925200	0.889800	0.079300
C421	C42	0.568500	0.033400	0.311300
C431	C43	0.308600	0.074800	0.142900
C441	C44	0.220300	0.441800	0.407700
C451	C45	0.008600	0.542900	0.616900
C461	C46	0.991400	0.457100	0.383100
C471	C47	0.186800	0.940100	0.224100
C481	C48	0.810400	0.127500	0.537400
C491	C49	0.526300	0.698200	0.162500
C501	C50	0.873200	0.501800	0.728000
C511	C51	0.980100	0.326600	0.253000
C521	C52	0.431500	0.966600	0.688700
C531	C53	0.726300	0.978700	0.774300
C541	C54	0.341200	0.682800	0.554200
C551	C55	0.996500	0.959400	0.851800
C561	C56	0.948600	0.590400	0.688600
C571	C57	0.370200	0.569200	0.087200
C581	C58	0.435700	0.744000	0.029200
C591	C59	0.476800	0.326400	0.742600
C601	C60	0.408600	0.684300	0.110700
C611	C61	0.737900	0.254600	0.436000
C621	C62	0.658800	0.317200	0.445800
C631	C63	0.523200	0.673600	0.257400
C641	C64	0.665800	0.237600	0.028600
C651	C65	0.658900	0.231200	0.562500
C661	C66	0.323500	0.722200	0.162500
C671	C67	0.678100	0.577900	0.532400
C681	C68	0.489300	0.155800	0.936600
C691	C69	0.334200	0.762400	0.971400
C701	C70	0.779700	0.558200	0.592300
C711	C71	0.874100	0.102400	0.862400
C721	C72	0.428300	0.190500	0.853000
C731	C73	0.003500	0.040600	0.148200
C741	C74	0.226500	0.317000	0.287300
C751	C75	0.691400	0.925200	0.857100
C761	C76	0.676500	0.277800	0.837500
C771	C77	0.327800	0.958100	0.725100
C781	C78	0.054200	0.812000	0.298500
C791	C79	0.473700	0.301800	0.837500
C801	C80	0.149300	0.357300	0.348700
C811	C81	0.223600	0.528300	0.341300
C821	C82	0.341100	0.768800	0.437500
N11	N1	0.903100	0.052500	0.125300
N21	N2	0.019000	0.941800	0.125300
N31	N3	0.395600	0.700400	0.485900
N41	N4	0.604400	0.299600	0.514100
N51	N5	0.312800	0.868200	0.770200
N61	N6	0.687200	0.131800	0.229800
N71	N7	0.475100	0.878300	0.716000
N81	N8	0.096900	0.947500	0.874700
N91	N9	0.524900	0.121700	0.284000
N101	N10	0.981000	0.058200	0.874700
N111	N11	0.265200	0.801600	0.490300
N121	N12	0.734800	0.198400	0.509700
O11	O1	0.985600	0.305200	0.172100
O21	O2	0.470600	0.254400	0.688200
O31	O3	0.014400	0.694800	0.827900
O41	O4	0.299400	0.847600	0.980100
O51	O5	0.585700	0.550700	0.555700
O61	O6	0.310800	0.372400	0.533900
O71	O7	0.497300	0.416600	0.717600
O81	O8	0.414300	0.449300	0.444300
O91	O9	0.529400	0.745600	0.311800
O101	O10	0.502700	0.583400	0.282400
O111	O11	0.907500	0.273200	0.276800
O121	O12	0.689200	0.627600	0.466100
O131	O13	0.700600	0.152400	0.019900
O141	O14	0.092500	0.726800	0.723200
O151	O15	0.715800	0.303800	0.081600
O161	O16	0.284200	0.696200	0.918400
