data_QITYOI_freeONLY_PM
_symmetry_space_group_name_H-M	'P1'
_cell_length_a	7.853800
_cell_length_b	11.021900
_cell_length_c	11.669300
_cell_angle_alpha	108.674000
_cell_angle_beta	105.812000
_cell_angle_gamma	104.108000
_symmetry_Int_Tables_number 1

loop_
_symmetry_equiv_pos_as_xyz
'x,y,z'

loop_
_atom_site_label
_atom_site_type_symbol
_atom_site_fract_x
_atom_site_fract_y
_atom_site_fract_z
Pr11	Pr1	0.725380	0.978920	0.934580
Pr21	Pr2	0.274620	0.021080	0.065420
H11	H1	0.769200	0.594800	0.948600
H21	H2	0.737800	0.697300	0.062100
H31	H3	0.012100	0.577200	0.117600
H41	H4	0.933400	0.654100	0.217100
H51	H5	0.154300	0.182700	0.464200
H61	H6	0.935700	0.154500	0.417500
H71	H7	0.896700	0.353200	0.166100
H81	H8	0.832200	0.443500	0.267900
H91	H9	0.873000	0.918700	0.369800
H101	H10	0.091600	0.948000	0.418600
H111	H11	0.716100	0.396900	0.000800
H121	H12	0.630500	0.474600	0.093800
H131	H13	0.484000	0.034000	0.730000
H141	H14	0.369000	0.953000	0.779000
H151	H15	0.230800	0.405200	0.051400
H161	H16	0.262200	0.302700	0.937900
H171	H17	0.987900	0.422800	0.882400
H181	H18	0.066600	0.345900	0.782900
H191	H19	0.845700	0.817300	0.535800
H201	H20	0.064300	0.845500	0.582500
H211	H21	0.103300	0.646800	0.833900
H221	H22	0.167800	0.556500	0.732100
H231	H23	0.127000	0.081300	0.630200
H241	H24	0.908400	0.052000	0.581400
H251	H25	0.283900	0.603100	0.999200
H261	H26	0.369500	0.525400	0.906200
H271	H27	0.516000	0.966000	0.270000
H281	H28	0.631000	0.047000	0.221000
C11	C1	0.018000	0.081100	0.265600
C21	C2	0.831800	0.663400	0.038300
C31	C3	0.899600	0.593800	0.126500
C41	C4	0.029900	0.114900	0.403800
C51	C5	0.793000	0.382500	0.176700
C61	C6	0.985600	0.781400	0.044100
C71	C7	0.996300	0.986600	0.432000
C81	C8	0.744700	0.457300	0.090500
C91	C9	0.619000	0.259000	0.137500
C101	C10	0.982000	0.918900	0.734400
C111	C11	0.168200	0.336600	0.961700
C121	C12	0.100400	0.406200	0.873500
C131	C13	0.970100	0.885100	0.596200
C141	C14	0.207000	0.617500	0.823300
C151	C15	0.014400	0.218600	0.955900
C161	C16	0.003700	0.013400	0.568000
C171	C17	0.255300	0.542700	0.909500
C181	C18	0.381000	0.741000	0.862500
O11	O1	0.931800	0.850700	0.981700
O21	O2	0.853200	0.039900	0.176500
O31	O3	0.459500	0.976500	0.758000
O41	O4	0.589900	0.144000	0.047800
O51	O5	0.165400	0.089500	0.243100
O61	O6	0.500100	0.271600	0.188800
O71	O7	0.156100	0.808500	0.104400
O81	O8	0.068200	0.149300	0.018300
O91	O9	0.146800	0.960100	0.823500
O101	O10	0.540500	0.023500	0.242000
O111	O11	0.410100	0.856000	0.952200
O121	O12	0.834600	0.910500	0.756900
O131	O13	0.499900	0.728400	0.811200
O141	O14	0.843900	0.191500	0.895600
