data_QIVZEC_freeONLY_PM
_symmetry_space_group_name_H-M	'P1'
_cell_length_a	10.757500
_cell_length_b	15.318000
_cell_length_c	29.390600
_cell_angle_alpha	81.112000
_cell_angle_beta	87.711000
_cell_angle_gamma	84.536000
_symmetry_Int_Tables_number 1

loop_
_symmetry_equiv_pos_as_xyz
'x,y,z'

loop_
_atom_site_label
_atom_site_type_symbol
_atom_site_fract_x
_atom_site_fract_y
_atom_site_fract_z
Zn11	Zn1	0.273610	0.649650	0.691800
Zn21	Zn2	0.301130	0.870760	0.179060
Zn31	Zn3	0.204910	0.143100	0.190250
Zn41	Zn4	0.235740	0.391670	0.683580
N11	N1	0.190100	0.093680	0.261990
N21	N2	0.245600	0.600580	0.763730
N31	N3	0.287200	0.703770	0.618960
N41	N4	0.276100	0.817120	0.250160
N51	N5	0.216900	0.333400	0.754760
N61	N6	0.260000	0.441750	0.611580
O11	O1	0.309900	0.266080	0.203320
O21	O2	0.189900	0.795670	0.697700
O31	O3	0.410800	0.751200	0.169350
O41	O4	0.410030	0.418310	0.695980
N71	N7	0.256300	0.107490	0.953820
O51	O5	0.367200	0.069570	0.181560
O61	O6	0.051360	0.084780	0.177970
O71	O7	0.148000	0.286710	0.667870
O81	O8	0.423510	0.565080	0.681720
O91	O9	0.209000	0.743030	0.165940
O101	O10	0.348100	0.241940	0.673090
O111	O11	0.081400	0.475680	0.692450
O121	O12	0.107200	0.266470	0.196790
O131	O13	0.098250	0.622120	0.681100
O141	O14	0.131400	0.943350	0.187500
N81	N8	0.267700	0.148490	0.908860
N91	N9	0.232200	0.197850	0.117880
N101	N10	0.298700	0.920990	0.106850
N111	N11	0.286700	0.614960	0.455310
N121	N12	0.214800	0.876800	0.463070
C11	C1	0.184700	0.239200	0.843470
C21	C2	0.304100	0.783600	0.526470
N131	N13	0.308500	0.649380	0.409520
O151	O15	0.387900	0.747780	0.704630
C31	C3	0.156700	0.019000	0.354550
O161	O16	0.453270	0.930630	0.191700
C41	C4	0.184200	0.528100	0.854440
C51	C5	0.302800	0.246000	0.822840
H11	H1	0.373200	0.218700	0.838400
C61	C6	0.138900	0.756700	0.310310
H21	H2	0.058200	0.743800	0.319700
C71	C7	0.168600	0.188300	0.890070
C81	C8	0.163200	0.795900	0.266140
H31	H3	0.097100	0.808500	0.246000
C91	C9	0.317900	0.707000	0.168030
C101	C10	0.236800	0.736300	0.341210
N141	N14	0.192100	0.375500	0.961100
N151	N15	0.228100	0.916900	0.417110
C111	C11	0.312800	0.827300	0.477650
C121	C12	0.811600	0.024300	0.193120
H41	H4	0.818300	0.084200	0.193800
C131	C13	0.214400	0.693100	0.388960
C141	C14	0.915500	0.971300	0.190960
H51	H5	0.908300	0.910800	0.193000
C151	C15	0.370600	0.797750	0.279550
H61	H6	0.450100	0.811700	0.269100
C161	C16	0.685200	0.531500	0.691630
C171	C17	0.819900	0.512500	0.692360
H71	H7	0.852100	0.453600	0.693700
C181	C18	0.314800	0.293300	0.779370
H81	H8	0.394600	0.297800	0.766300
C191	C19	0.336800	0.902400	0.696810
H91	H9	0.419500	0.910600	0.701800
N161	N16	0.218300	0.415200	0.916320
C201	C20	0.582700	0.046600	0.191390
H101	H10	0.586400	0.107000	0.191100
C211	C21	0.284600	0.322800	0.978320
C221	C22	0.355000	0.757900	0.324720
H111	H11	0.423000	0.745600	0.344000
C231	C23	0.405600	0.304700	0.953450
H121	H12	0.391700	0.310600	0.921000
H131	H13	0.440600	0.245600	0.964400
H141	H14	0.462500	0.346400	0.958900
C241	C24	0.152500	0.487000	0.902190
C251	C25	0.082600	0.281700	0.818180
H151	H15	0.001800	0.279300	0.830600
C261	C26	0.300800	0.810700	0.700230
C271	C27	0.140600	0.977100	0.403090
C281	C28	0.345900	0.208100	0.099060
H161	H16	0.414900	0.188600	0.117200
C291	C29	0.103400	0.326700	0.774880
H171	H17	0.034600	0.354300	0.758500
C301	C30	0.688200	0.994000	0.194510
H181	H18	0.682300	0.933100	0.197800
C311	C31	0.265500	0.278800	0.026240
C321	C32	0.076500	0.088200	0.333550
H191	H19	0.009100	0.111200	0.350200
C331	C33	0.274500	0.486600	0.828560
H201	H20	0.316400	0.433000	0.841100
C341	C34	0.900100	0.573600	0.691180
H211	H21	0.867800	0.631800	0.692000
C351	C35	0.042600	0.001700	0.185480
C361	C36	0.203000	0.306300	0.199100
C371	C37	0.607400	0.468700	0.692460
C381	C38	0.256800	0.973000	0.687020
H221	H22	0.174200	0.963500	0.682900
C391	C39	0.304500	0.989800	0.012420
C401	C40	0.206500	0.542400	0.543490
H231	H23	0.157400	0.592300	0.530100
C411	C41	0.302600	0.524000	0.784430
H241	H24	0.364400	0.494600	0.767900
C421	C42	0.037300	0.555100	0.688610
C431	C43	0.293000	0.499700	0.517080
C441	C44	0.310700	0.531900	0.467310
C451	C45	0.366200	0.246100	0.054190
H251	H25	0.447400	0.250000	0.042500
C461	C46	0.135100	0.228000	0.090880
H261	H26	0.055000	0.221200	0.103200
C471	C47	0.237100	0.226400	0.670320
C481	C48	0.408200	0.741000	0.549970
H271	H27	0.486000	0.738100	0.535000
C491	C49	0.191600	0.784200	0.550930
H281	H28	0.119300	0.812000	0.536800
C501	C50	0.468900	0.486200	0.689730
C511	C51	0.228800	0.028600	0.043720
H291	H29	0.176600	0.079400	0.033800
C521	C52	0.287300	0.063900	0.682210
H301	H30	0.370000	0.073900	0.685900
C531	C53	0.096600	0.123300	0.287820
H311	H31	0.041600	0.170000	0.274600
C541	C54	0.186400	0.744000	0.595970
H321	H32	0.109300	0.744600	0.611400
C551	C55	0.458700	0.012800	0.188280
C561	C56	0.257400	0.554000	0.179940
H331	H33	0.175100	0.578600	0.181200
C571	C57	0.395600	0.703100	0.595480
H341	H34	0.466600	0.675600	0.610500
C581	C58	0.431400	0.811800	0.450390
H351	H35	0.416800	0.831400	0.418300
H361	H36	0.458800	0.749600	0.455100
H371	H37	0.494600	0.844300	0.460300
C591	C59	0.147400	0.268500	0.046010
H381	H38	0.076800	0.289000	0.028900
C601	C60	0.085600	0.702800	0.410140
H391	H39	0.037000	0.658600	0.401700
H401	H40	0.046300	0.760800	0.399300
H411	H41	0.090900	0.695100	0.443100
C611	C61	0.277300	0.457800	0.186730
H421	H42	0.359000	0.432000	0.185500
C621	C62	0.308700	0.029100	0.963100
C631	C63	0.127400	0.608000	0.833280
H431	H43	0.067200	0.639700	0.849400
C641	C64	0.187000	0.405100	0.194460
H441	H44	0.106200	0.431600	0.197300
C651	C65	0.344100	0.609200	0.172260
H451	H45	0.426500	0.586000	0.169300
C661	C66	0.159100	0.641000	0.788660
H461	H46	0.118000	0.694400	0.775200
C671	C67	0.255200	0.988600	0.327510
H471	H47	0.312200	0.942400	0.339900
C681	C68	0.268400	0.026800	0.282540
H481	H48	0.335300	0.005300	0.265200
C691	C69	0.053800	0.531500	0.929720
H491	H49	0.079100	0.587500	0.934900
H501	H50	0.041300	0.494800	0.958800
H511	H51	0.977200	0.541100	0.913300
C701	C70	0.229400	0.993400	0.089500
H521	H52	0.177700	0.022300	0.109700
C711	C71	0.042100	0.186200	0.912420
H531	H53	0.994900	0.147100	0.898900
H541	H54	0.999900	0.244900	0.908000
H551	H55	0.049800	0.165400	0.944800
C721	C72	0.205500	0.133400	0.672880
H561	H56	0.123600	0.123800	0.667600
C731	C73	0.192100	0.511600	0.589630
H571	H57	0.131400	0.541300	0.606500
C741	C74	0.371700	0.882300	0.077020
H581	H58	0.422500	0.831500	0.088000
C751	C75	0.032300	0.007700	0.431330
H591	H59	0.040200	0.067500	0.436100
H601	H60	0.030400	0.969800	0.460600
H611	H61	0.956400	0.005600	0.415600
C761	C76	0.353200	0.469000	0.434900
H621	H62	0.283900	0.438800	0.427800
H631	H63	0.417100	0.426400	0.448900
H641	H64	0.386100	0.501100	0.407100
C771	C77	0.373600	0.978300	0.927980
H651	H65	0.319100	0.937600	0.919600
H661	H66	0.448200	0.945900	0.940700
H671	H67	0.395000	0.018800	0.901200
C781	C78	0.376100	0.913700	0.030450
H681	H68	0.427900	0.883200	0.011000
C791	C79	0.364100	0.427300	0.540060
H691	H69	0.424900	0.396000	0.524000
C801	C80	0.344800	0.401600	0.586550
H701	H70	0.394500	0.353100	0.601100
H711	H71	0.655000	0.594000	0.691200
H721	H72	0.638000	0.406000	0.694500
Zn51	Zn5	0.726390	0.350350	0.308200
Zn61	Zn6	0.698870	0.129240	0.820940
Zn71	Zn7	0.795090	0.856900	0.809750
Zn81	Zn8	0.764260	0.608330	0.316420
N171	N17	0.809900	0.906320	0.738010
N181	N18	0.754400	0.399420	0.236270
N191	N19	0.712800	0.296230	0.381040
N201	N20	0.723900	0.182880	0.749840
N211	N21	0.783100	0.666600	0.245240
N221	N22	0.740000	0.558250	0.388420
O171	O17	0.690100	0.733920	0.796680
O181	O18	0.810100	0.204330	0.302300
O191	O19	0.589200	0.248800	0.830650
O201	O20	0.589970	0.581690	0.304020
N231	N23	0.743700	0.892510	0.046180
O211	O21	0.632800	0.930430	0.818440
O221	O22	0.948640	0.915220	0.822030
O231	O23	0.852000	0.713290	0.332130
O241	O24	0.576490	0.434920	0.318280
O251	O25	0.791000	0.256970	0.834060
O261	O26	0.651900	0.758060	0.326910
O271	O27	0.918600	0.524320	0.307550
O281	O28	0.892800	0.733530	0.803210
O291	O29	0.901750	0.377880	0.318900
O301	O30	0.868600	0.056650	0.812500
N241	N24	0.732300	0.851510	0.091140
N251	N25	0.767800	0.802150	0.882120
N261	N26	0.701300	0.079010	0.893150
N271	N27	0.713300	0.385040	0.544690
N281	N28	0.785200	0.123200	0.536930
C811	C81	0.815300	0.760800	0.156530
C821	C82	0.695900	0.216400	0.473530
N291	N29	0.691500	0.350620	0.590480
O311	O31	0.612100	0.252220	0.295370
C831	C83	0.843300	0.981000	0.645450
O321	O32	0.546730	0.069370	0.808300
C841	C84	0.815800	0.471900	0.145560
C851	C85	0.697200	0.754000	0.177160
H731	H73	0.626800	0.781300	0.161600
C861	C86	0.861100	0.243300	0.689690
H741	H74	0.941800	0.256200	0.680300
C871	C87	0.831400	0.811700	0.109930
C881	C88	0.836800	0.204100	0.733860
H751	H75	0.902900	0.191500	0.754000
C891	C89	0.682100	0.293000	0.831970
C901	C90	0.763200	0.263700	0.658790
N301	N30	0.807900	0.624500	0.038900
N311	N31	0.771900	0.083100	0.582890
C911	C91	0.687200	0.172700	0.522350
C921	C92	0.188400	0.975700	0.806880
H761	H76	0.181700	0.915800	0.806200
C931	C93	0.785600	0.306900	0.611040
C941	C94	0.084500	0.028700	0.809040
H771	H77	0.091700	0.089200	0.807000
C951	C95	0.629400	0.202250	0.720450
H781	H78	0.549900	0.188300	0.730900
C961	C96	0.314800	0.468500	0.308370
C971	C97	0.180100	0.487500	0.307640
H791	H79	0.147900	0.546400	0.306300
C981	C98	0.685200	0.706700	0.220630
H801	H80	0.605400	0.702200	0.233700
C991	C99	0.663200	0.097600	0.303190
H811	H81	0.580500	0.089400	0.298200
N321	N32	0.781700	0.584800	0.083680
C1001	C100	0.417300	0.953400	0.808610
H821	H82	0.413600	0.893000	0.808900
C1011	C101	0.715400	0.677200	0.021680
C1021	C102	0.645000	0.242100	0.675280
H831	H83	0.577000	0.254400	0.656000
C1031	C103	0.594400	0.695300	0.046550
H841	H84	0.608300	0.689400	0.079000
H851	H85	0.559400	0.754400	0.035600
H861	H86	0.537500	0.653600	0.041100
C1041	C104	0.847500	0.513000	0.097810
C1051	C105	0.917400	0.718300	0.181820
H871	H87	0.998200	0.720700	0.169400
C1061	C106	0.699200	0.189300	0.299770
C1071	C107	0.859400	0.022900	0.596910
C1081	C108	0.654100	0.791900	0.900940
H881	H88	0.585100	0.811400	0.882800
C1091	C109	0.896600	0.673300	0.225120
H891	H89	0.965400	0.645700	0.241500
C1101	C110	0.311800	0.006000	0.805490
H901	H90	0.317700	0.066900	0.802200
C1111	C111	0.734500	0.721200	0.973760
C1121	C112	0.923500	0.911800	0.666450
H911	H91	0.990900	0.888800	0.649800
C1131	C113	0.725500	0.513400	0.171440
H921	H92	0.683600	0.567000	0.158900
C1141	C114	0.099900	0.426400	0.308820
H931	H93	0.132200	0.368200	0.308000
C1151	C115	0.957400	0.998300	0.814520
C1161	C116	0.797000	0.693700	0.800900
C1171	C117	0.392600	0.531300	0.307540
C1181	C118	0.743200	0.027000	0.312980
H941	H94	0.825800	0.036500	0.317100
C1191	C119	0.695500	0.010200	0.987580
C1201	C120	0.793500	0.457600	0.456510
H951	H95	0.842600	0.407700	0.469900
C1211	C121	0.697400	0.476000	0.215570
H961	H96	0.635600	0.505400	0.232100
C1221	C122	0.962700	0.444900	0.311390
C1231	C123	0.707000	0.500300	0.482920
C1241	C124	0.689300	0.468100	0.532690
C1251	C125	0.633800	0.753900	0.945810
H971	H97	0.552600	0.750000	0.957500
C1261	C126	0.864900	0.772000	0.909120
H981	H98	0.945000	0.778800	0.896800
C1271	C127	0.762900	0.773600	0.329680
C1281	C128	0.591800	0.259000	0.450030
H991	H99	0.514000	0.261900	0.465000
C1291	C129	0.808400	0.215800	0.449070
H1001	H100	0.880700	0.188000	0.463200
C1301	C130	0.531100	0.513800	0.310270
C1311	C131	0.771200	0.971400	0.956280
H1011	H101	0.823400	0.920600	0.966200
C1321	C132	0.712700	0.936100	0.317790
H1021	H102	0.630000	0.926100	0.314100
C1331	C133	0.903400	0.876700	0.712180
H1031	H103	0.958400	0.830000	0.725400
C1341	C134	0.813600	0.256000	0.404030
H1041	H104	0.890700	0.255400	0.388600
C1351	C135	0.541300	0.987200	0.811720
C1361	C136	0.742600	0.446000	0.820060
H1051	H105	0.824900	0.421400	0.818800
C1371	C137	0.604400	0.296900	0.404520
H1061	H106	0.533400	0.324400	0.389500
C1381	C138	0.568600	0.188200	0.549610
H1071	H107	0.583200	0.168600	0.581700
H1081	H108	0.541200	0.250400	0.544900
H1091	H109	0.505400	0.155700	0.539700
C1391	C139	0.852600	0.731500	0.953990
H1101	H110	0.923200	0.711000	0.971100
C1401	C140	0.914400	0.297200	0.589860
H1111	H111	0.963000	0.341400	0.598300
H1121	H112	0.953700	0.239200	0.600700
H1131	H113	0.909100	0.304900	0.556900
C1411	C141	0.722700	0.542200	0.813270
H1141	H114	0.641000	0.568000	0.814500
C1421	C142	0.691300	0.970900	0.036900
C1431	C143	0.872600	0.392000	0.166720
H1151	H115	0.932800	0.360300	0.150600
C1441	C144	0.813000	0.594900	0.805540
H1161	H116	0.893800	0.568400	0.802700
C1451	C145	0.655900	0.390800	0.827740
H1171	H117	0.573500	0.414000	0.830700
C1461	C146	0.840900	0.359000	0.211340
H1181	H118	0.882000	0.305600	0.224800
C1471	C147	0.744800	0.011400	0.672490
H1191	H119	0.687800	0.057600	0.660100
C1481	C148	0.731600	0.973200	0.717460
H1201	H120	0.664700	0.994700	0.734800
C1491	C149	0.946200	0.468500	0.070280
H1211	H121	0.920900	0.412500	0.065100
H1221	H122	0.958700	0.505200	0.041200
H1231	H123	0.022800	0.458900	0.086700
C1501	C150	0.770600	0.006600	0.910500
H1241	H124	0.822300	0.977700	0.890300
C1511	C151	0.957900	0.813800	0.087580
H1251	H125	0.005100	0.852900	0.101100
H1261	H126	0.000100	0.755100	0.092000
H1271	H127	0.950200	0.834600	0.055200
C1521	C152	0.794500	0.866600	0.327120
H1281	H128	0.876400	0.876200	0.332400
C1531	C153	0.807900	0.488400	0.410370
H1291	H129	0.868600	0.458700	0.393500
C1541	C154	0.628300	0.117700	0.922980
H1301	H130	0.577500	0.168500	0.912000
C1551	C155	0.967700	0.992300	0.568670
H1311	H131	0.959800	0.932500	0.563900
H1321	H132	0.969600	0.030200	0.539400
H1331	H133	0.043600	0.994400	0.584400
C1561	C156	0.646800	0.531000	0.565100
H1341	H134	0.716100	0.561200	0.572200
H1351	H135	0.582900	0.573600	0.551100
H1361	H136	0.613900	0.498900	0.592900
C1571	C157	0.626400	0.021700	0.072020
H1371	H137	0.680900	0.062400	0.080400
H1381	H138	0.551800	0.054100	0.059300
H1391	H139	0.605000	0.981200	0.098800
C1581	C158	0.623900	0.086300	0.969550
H1401	H140	0.572100	0.116800	0.989000
C1591	C159	0.635900	0.572700	0.459940
H1411	H141	0.575100	0.604000	0.476000
C1601	C160	0.655200	0.598400	0.413450
H1421	H142	0.605500	0.646900	0.398900
H1431	H143	0.345000	0.406000	0.308800
H1441	H144	0.362000	0.594000	0.305500
