data_QIWCOQ_freeONLY_PM
_symmetry_space_group_name_H-M	'P1'
_cell_length_a	11.927200
_cell_length_b	13.954000
_cell_length_c	20.185000
_cell_angle_alpha	90.000000
_cell_angle_beta	90.000000
_cell_angle_gamma	90.000000
_symmetry_Int_Tables_number 1

loop_
_symmetry_equiv_pos_as_xyz
'x,y,z'

loop_
_atom_site_label
_atom_site_type_symbol
_atom_site_fract_x
_atom_site_fract_y
_atom_site_fract_z
Cu11	Cu1	0.262570	0.072720	0.000000
Cu21	Cu2	0.237430	0.572720	0.500000
Cu31	Cu3	0.737430	0.927280	0.000000
Cu41	Cu4	0.762570	0.427280	0.500000
H11	H1	0.036600	0.099000	0.000000
H21	H2	0.514300	0.665200	0.385700
H31	H3	0.031000	0.778800	0.226800
H41	H4	0.014300	0.834800	0.885700
H51	H5	0.485700	0.334800	0.614300
H61	H6	0.969000	0.221200	0.773200
H71	H7	0.167300	0.401900	0.265700
H81	H8	0.573200	0.800800	0.172100
H91	H9	0.332700	0.901900	0.234300
H101	H10	0.364500	0.825900	0.340100
H111	H11	0.792200	0.510400	0.354900
H121	H12	0.207800	0.489600	0.645100
H131	H13	0.469000	0.278800	0.726800
H141	H14	0.707800	0.010400	0.145100
H151	H15	0.635500	0.174100	0.340100
H161	H16	0.531000	0.721200	0.273200
H171	H17	0.207800	0.489600	0.354900
H181	H18	0.469000	0.278800	0.273200
H191	H19	0.667300	0.098100	0.234300
H201	H20	0.292200	0.989600	0.145100
H211	H21	0.531000	0.721200	0.726800
H221	H22	0.014300	0.834800	0.114300
H231	H23	0.332700	0.901900	0.765700
H241	H24	0.985700	0.165200	0.885700
H251	H25	0.135500	0.325900	0.159900
H261	H26	0.485700	0.334800	0.385700
H271	H27	0.926800	0.300800	0.327900
H281	H28	0.135500	0.325900	0.840100
H291	H29	0.073200	0.699200	0.327900
H301	H30	0.167300	0.401900	0.734300
H311	H31	0.514300	0.665200	0.614300
H321	H32	0.792200	0.510400	0.645100
H331	H33	0.667300	0.098100	0.765700
H341	H34	0.969000	0.221200	0.226800
H351	H35	0.031000	0.778800	0.773200
H361	H36	0.536600	0.401000	0.500000
H371	H37	0.573200	0.800800	0.827900
H381	H38	0.426800	0.199200	0.172100
H391	H39	0.985700	0.165200	0.114300
H401	H40	0.963400	0.901000	0.000000
H411	H41	0.073200	0.699200	0.672100
H421	H42	0.364500	0.825900	0.659900
H431	H43	0.864500	0.674100	0.840100
H441	H44	0.635500	0.174100	0.659900
H451	H45	0.864500	0.674100	0.159900
H461	H46	0.463400	0.599000	0.500000
H471	H47	0.292200	0.989600	0.854900
H481	H48	0.426800	0.199200	0.827900
H491	H49	0.832700	0.598100	0.734300
H501	H50	0.926800	0.300800	0.672100
H511	H51	0.707800	0.010400	0.854900
H521	H52	0.832700	0.598100	0.265700
C11	C1	0.873200	0.258700	0.308800
C21	C2	0.126800	0.741300	0.691200
C31	C3	0.177500	0.846700	0.774500
C41	C4	0.754800	0.799900	0.096000
C51	C5	0.839300	0.103600	0.843900
C61	C6	0.297600	0.813800	0.684000
C71	C7	0.777800	0.638300	0.246000
C81	C8	0.702400	0.186200	0.316000
C91	C9	0.277800	0.861700	0.746000
C101	C10	0.925600	0.121000	0.109700
C111	C11	0.276500	0.253800	0.839000
C121	C12	0.254800	0.700100	0.404000
C131	C13	0.177500	0.846700	0.225500
C141	C14	0.600400	0.711500	0.748900
C151	C15	0.245200	0.200100	0.096000
C161	C16	0.660700	0.603600	0.343900
C171	C17	0.723500	0.746200	0.839000
C181	C18	0.722200	0.138300	0.746000
C191	C19	0.839300	0.103600	0.156100
C201	C20	0.297600	0.813800	0.316000
C211	C21	0.660700	0.603600	0.656100
C221	C22	0.777800	0.638300	0.754000
C231	C23	0.677500	0.653300	0.274500
C241	C24	0.774300	0.035600	0.125900
C251	C25	0.254800	0.700100	0.596000
C261	C26	0.797600	0.686200	0.816000
C271	C27	0.899600	0.211500	0.751100
C281	C28	0.245200	0.200100	0.904000
C291	C29	0.702400	0.186200	0.684000
C301	C30	0.222200	0.361700	0.754000
C311	C31	0.222200	0.361700	0.246000
C321	C32	0.322500	0.346700	0.274500
C331	C33	0.822500	0.153300	0.225500
C341	C34	0.126800	0.741300	0.308800
C351	C35	0.725700	0.535600	0.374100
C361	C36	0.754800	0.799900	0.904000
C371	C37	0.399600	0.288500	0.251100
C381	C38	0.225700	0.964400	0.125900
C391	C39	0.160700	0.896400	0.156100
C401	C40	0.474700	0.449200	0.500000
C411	C41	0.873200	0.258700	0.691200
C421	C42	0.925600	0.121000	0.890300
C431	C43	0.425600	0.379000	0.609700
C441	C44	0.223500	0.753800	0.661000
C451	C45	0.725700	0.535600	0.625900
C461	C46	0.774300	0.035600	0.874100
C471	C47	0.974700	0.050800	0.000000
C481	C48	0.745200	0.299900	0.596000
C491	C49	0.225700	0.964400	0.874100
C501	C50	0.574400	0.621000	0.390300
C511	C51	0.776500	0.246200	0.661000
C521	C52	0.339300	0.396400	0.343900
C531	C53	0.074400	0.879000	0.109700
C541	C54	0.677500	0.653300	0.725500
C551	C55	0.274300	0.464400	0.625900
C561	C56	0.276500	0.253800	0.161000
C571	C57	0.399600	0.288500	0.748900
C581	C58	0.100400	0.788500	0.751100
C591	C59	0.339300	0.396400	0.656100
C601	C60	0.723500	0.746200	0.161000
C611	C61	0.074400	0.879000	0.890300
C621	C62	0.274300	0.464400	0.374100
C631	C63	0.626800	0.758700	0.808800
C641	C64	0.025300	0.949200	0.000000
C651	C65	0.722200	0.138300	0.254000
C661	C66	0.277800	0.861700	0.254000
C671	C67	0.899600	0.211500	0.248900
C681	C68	0.223500	0.753800	0.339000
C691	C69	0.425600	0.379000	0.390300
C701	C70	0.626800	0.758700	0.191200
C711	C71	0.822500	0.153300	0.774500
C721	C72	0.160700	0.896400	0.843900
C731	C73	0.373200	0.241300	0.191200
C741	C74	0.373200	0.241300	0.808800
C751	C75	0.776500	0.246200	0.339000
C761	C76	0.525300	0.550800	0.500000
C771	C77	0.202400	0.313800	0.816000
C781	C78	0.202400	0.313800	0.184000
C791	C79	0.574400	0.621000	0.609700
C801	C80	0.745200	0.299900	0.404000
C811	C81	0.322500	0.346700	0.725500
C821	C82	0.600400	0.711500	0.251100
C831	C83	0.100400	0.788500	0.248900
C841	C84	0.797600	0.686200	0.184000
N11	N1	0.813000	0.008400	0.932500
N21	N2	0.187000	0.991600	0.932500
N31	N3	0.687000	0.508400	0.567500
N41	N4	0.906700	0.063900	0.058400
N51	N5	0.093300	0.936100	0.941600
N61	N6	0.593300	0.563900	0.441600
N71	N7	0.906700	0.063900	0.941600
N81	N8	0.406700	0.436100	0.558400
N91	N9	0.813000	0.008400	0.067500
N101	N10	0.093300	0.936100	0.058400
N111	N11	0.313000	0.491600	0.567500
N121	N12	0.687000	0.508400	0.432500
N131	N13	0.406700	0.436100	0.441600
N141	N14	0.593300	0.563900	0.558400
N151	N15	0.187000	0.991600	0.067500
N161	N16	0.313000	0.491600	0.432500
O11	O1	0.849200	0.791400	0.074400
O21	O2	0.321600	0.153300	0.927900
O31	O3	0.150800	0.208600	0.074400
O41	O4	0.678400	0.846700	0.072100
O51	O5	0.150800	0.208600	0.925600
O61	O6	0.849200	0.791400	0.925600
O71	O7	0.321600	0.153300	0.072100
O81	O8	0.178400	0.653300	0.427900
O91	O9	0.178400	0.653300	0.572100
O101	O10	0.650800	0.291400	0.425600
O111	O11	0.821600	0.346700	0.572100
O121	O12	0.650800	0.291400	0.574400
O131	O13	0.349200	0.708600	0.425600
O141	O14	0.349200	0.708600	0.574400
O151	O15	0.678400	0.846700	0.927900
O161	O16	0.821600	0.346700	0.427900
