data_QIWPET_freeONLY_PM
_symmetry_space_group_name_H-M	'P1'
_cell_length_a	7.374200
_cell_length_b	11.401100
_cell_length_c	11.670600
_cell_angle_alpha	89.666000
_cell_angle_beta	76.813000
_cell_angle_gamma	74.971000
_symmetry_Int_Tables_number 1

loop_
_symmetry_equiv_pos_as_xyz
'x,y,z'

loop_
_atom_site_label
_atom_site_type_symbol
_atom_site_fract_x
_atom_site_fract_y
_atom_site_fract_z
Mg11	Mg1	0.541220	0.146970	0.674360
Mg21	Mg2	0.687510	0.131970	0.363990
O11	O1	0.326400	0.252460	0.606260
O21	O2	0.397100	0.220600	0.411320
O31	O3	0.002500	0.178990	0.510940
O41	O4	0.774000	0.273490	0.419800
O51	O5	0.977980	0.021620	0.321880
O61	O6	0.274200	0.927820	0.220820
O71	O7	0.322100	0.167670	0.837650
O81	O8	0.366350	0.009910	0.719570
O91	O9	0.701070	0.051090	0.523810
H11	H1	0.659900	0.976300	0.520800
O101	O10	0.612100	0.303670	0.701350
H21	H2	0.532000	0.369500	0.706000
H31	H3	0.711000	0.306000	0.722000
O111	O11	0.710000	0.223860	0.206840
H41	H4	0.668000	0.208000	0.151300
H51	H5	0.708000	0.294800	0.218000
C11	C1	0.298400	0.277150	0.506230
C21	C2	0.139500	0.390390	0.501540
C31	C3	0.178600	0.501350	0.515970
H61	H6	0.299300	0.502300	0.526800
C41	C4	0.957900	0.388940	0.485290
C51	C5	0.907200	0.271010	0.471190
C61	C6	0.100600	0.978620	0.227700
C71	C7	0.038700	0.990740	0.112570
C81	C8	0.164000	0.024800	0.017980
H71	H7	0.274900	0.041900	0.030300
C91	C9	0.128800	0.033990	0.905640
C101	C10	0.278400	0.073640	0.814310
Mg31	Mg3	0.458780	0.853030	0.325640
Mg41	Mg4	0.312490	0.868030	0.636010
O121	O12	0.673600	0.747540	0.393740
O131	O13	0.602900	0.779400	0.588680
O141	O14	0.997500	0.821010	0.489060
O151	O15	0.226000	0.726510	0.580200
O161	O16	0.022020	0.978380	0.678120
O171	O17	0.725800	0.072180	0.779180
O181	O18	0.677900	0.832330	0.162350
O191	O19	0.633650	0.990090	0.280430
O201	O20	0.298930	0.948910	0.476190
H81	H8	0.340100	0.023700	0.479200
O211	O21	0.387900	0.696330	0.298650
H91	H9	0.468000	0.630500	0.294000
H101	H10	0.289000	0.694000	0.278000
O221	O22	0.290000	0.776140	0.793160
H111	H11	0.332000	0.792000	0.848700
H121	H12	0.292000	0.705200	0.782000
C111	C11	0.701600	0.722850	0.493770
C121	C12	0.860500	0.609610	0.498460
C131	C13	0.821400	0.498650	0.484030
H131	H13	0.700700	0.497700	0.473200
C141	C14	0.042100	0.611060	0.514710
C151	C15	0.092800	0.728990	0.528810
C161	C16	0.899400	0.021380	0.772300
C171	C17	0.961300	0.009260	0.887430
C181	C18	0.836000	0.975200	0.982020
H141	H14	0.725100	0.958100	0.969700
C191	C19	0.871200	0.966010	0.094360
C201	C20	0.721600	0.926360	0.185690
Mg51	Mg5	0.000000	0.000000	0.500000
