data_QIXSOG01_freeONLY_PM
_symmetry_space_group_name_H-M	'P1'
_cell_length_a	31.936000
_cell_length_b	10.664000
_cell_length_c	12.361000
_cell_angle_alpha	90.000000
_cell_angle_beta	96.200000
_cell_angle_gamma	90.000000
_symmetry_Int_Tables_number 1

loop_
_symmetry_equiv_pos_as_xyz
'x,y,z'

loop_
_atom_site_label
_atom_site_type_symbol
_atom_site_fract_x
_atom_site_fract_y
_atom_site_fract_z
Mn11	Mn1	0.249530	0.250100	0.499580
Cu11	Cu1	0.995650	0.257380	0.284980
C11	C1	0.074500	0.254600	0.434500
C21	C2	0.145100	0.245100	0.484700
C31	C3	0.352600	0.252000	0.538400
C41	C4	0.420100	0.239700	0.626700
C51	C5	0.255300	0.956100	0.410900
C61	C6	0.250500	0.544000	0.590500
C71	C7	0.252700	0.671300	0.738300
C81	C8	0.251800	0.827000	0.265200
N11	N1	0.043100	0.254100	0.380000
N21	N2	0.106180	0.255800	0.503400
N31	N3	0.180400	0.235200	0.479900
N41	N4	0.318000	0.261500	0.521600
N51	N5	0.392600	0.237700	0.543300
N61	N6	0.448600	0.240200	0.690000
N71	N7	0.250500	0.842900	0.369000
N81	N8	0.256200	0.047600	0.455400
N91	N9	0.246100	0.451500	0.544000
N101	N10	0.256300	0.653700	0.635200
N111	N11	0.251100	0.699800	0.825600
N121	N12	0.251200	0.799400	0.175200
Mn21	Mn2	0.250470	0.750100	0.000420
Cu21	Cu2	0.504350	0.757380	0.215020
C91	C9	0.425500	0.754600	0.065500
C101	C10	0.354900	0.745100	0.015300
C111	C11	0.147400	0.752000	0.961600
C121	C12	0.079900	0.739700	0.873300
C131	C13	0.244700	0.456100	0.089100
C141	C14	0.249500	0.044000	0.909500
C151	C15	0.247300	0.171300	0.761700
C161	C16	0.248200	0.327000	0.234800
N131	N13	0.456900	0.754100	0.120000
N141	N14	0.393820	0.755800	0.996600
N151	N15	0.319600	0.735200	0.020100
N161	N16	0.182000	0.761500	0.978400
N171	N17	0.107400	0.737700	0.956700
N181	N18	0.051400	0.740200	0.810000
N191	N19	0.249500	0.342900	0.131000
N201	N20	0.243800	0.547600	0.044600
N211	N21	0.253900	0.951500	0.956000
N221	N22	0.243700	0.153700	0.864800
N231	N23	0.248900	0.199800	0.674400
N241	N24	0.248800	0.299400	0.324800
Mn31	Mn3	0.750470	0.749900	0.500420
Cu31	Cu3	0.004350	0.742620	0.715020
C171	C17	0.925500	0.745400	0.565500
C181	C18	0.854900	0.754900	0.515300
C191	C19	0.647400	0.748000	0.461600
C201	C20	0.579900	0.760300	0.373300
C211	C21	0.744700	0.043900	0.589100
C221	C22	0.749500	0.456000	0.409500
C231	C23	0.747300	0.328700	0.261700
C241	C24	0.748200	0.173000	0.734800
N251	N25	0.956900	0.745900	0.620000
N261	N26	0.893820	0.744200	0.496600
N271	N27	0.819600	0.764800	0.520100
N281	N28	0.682000	0.738500	0.478400
N291	N29	0.607400	0.762300	0.456700
N301	N30	0.551400	0.759800	0.310000
N311	N31	0.749500	0.157100	0.631000
N321	N32	0.743800	0.952400	0.544600
N331	N33	0.753900	0.548500	0.456000
N341	N34	0.743700	0.346300	0.364800
N351	N35	0.748900	0.300200	0.174400
N361	N36	0.748800	0.200600	0.824800
Mn41	Mn4	0.749530	0.249900	0.999580
Cu41	Cu4	0.495650	0.242620	0.784980
C251	C25	0.574500	0.245400	0.934500
C261	C26	0.645100	0.254900	0.984700
C271	C27	0.852600	0.248000	0.038400
C281	C28	0.920100	0.260300	0.126700
C291	C29	0.755300	0.543900	0.910900
C301	C30	0.750500	0.956000	0.090500
C311	C31	0.752700	0.828700	0.238300
C321	C32	0.751800	0.673000	0.765200
N371	N37	0.543100	0.245900	0.880000
N381	N38	0.606180	0.244200	0.003400
N391	N39	0.680400	0.264800	0.979900
N401	N40	0.818000	0.238500	0.021600
N411	N41	0.892600	0.262300	0.043300
N421	N42	0.948600	0.259800	0.190000
N431	N43	0.750500	0.657100	0.869000
N441	N44	0.756200	0.452400	0.955400
N451	N45	0.746100	0.048500	0.044000
N461	N46	0.756300	0.846300	0.135200
N471	N47	0.751100	0.800200	0.325600
N481	N48	0.751200	0.700600	0.675200
