data_QIYCOS_freeONLY_PM
_symmetry_space_group_name_H-M	'P1'
_cell_length_a	18.094000
_cell_length_b	18.445000
_cell_length_c	20.183000
_cell_angle_alpha	90.000000
_cell_angle_beta	90.000000
_cell_angle_gamma	90.000000
_symmetry_Int_Tables_number 1

loop_
_symmetry_equiv_pos_as_xyz
'x,y,z'

loop_
_atom_site_label
_atom_site_type_symbol
_atom_site_fract_x
_atom_site_fract_y
_atom_site_fract_z
Ag11	Ag1	0.839870	0.376160	0.845120
Si11	Si1	0.957930	0.516400	0.147050
Si21	Si2	0.129190	0.495970	0.634610
N11	N1	0.869900	0.420400	0.946300
N21	N2	0.761200	0.587400	0.286100
N31	N3	0.938600	0.406600	0.768500
N41	N4	0.142700	0.750700	0.641800
C11	C1	0.936300	0.414200	0.964400
H11	H1	0.969500	0.388900	0.936300
C21	C2	0.963700	0.443000	0.024500
H21	H2	0.014500	0.437900	0.035500
C31	C3	0.917100	0.478000	0.066500
C41	C4	0.848800	0.480200	0.046500
H31	H3	0.813900	0.503800	0.074300
C51	C5	0.824100	0.451800	0.989700
H41	H4	0.772800	0.453900	0.980000
C61	C6	0.874700	0.541100	0.202100
C71	C7	0.833300	0.602900	0.187800
H51	H5	0.842200	0.630300	0.148700
C81	C8	0.779100	0.623100	0.232000
H61	H6	0.752500	0.666200	0.222700
C91	C9	0.800600	0.528700	0.300200
H71	H7	0.790900	0.503400	0.340300
C101	C10	0.854600	0.503800	0.258900
H81	H8	0.879100	0.459800	0.269400
C111	C11	0.018000	0.448200	0.185000
H91	H9	0.995400	0.431000	0.226800
H101	H10	0.022600	0.406200	0.154800
C121	C12	0.089800	0.476900	0.198600
H111	H11	0.120500	0.439200	0.218900
H121	H12	0.085500	0.518000	0.229000
H131	H13	0.112700	0.493000	0.157200
C131	C13	0.017300	0.593700	0.125700
H141	H14	0.990500	0.626500	0.096000
H151	H15	0.062100	0.576100	0.103600
H161	H16	0.031000	0.619800	0.166200
C141	C14	0.007000	0.401200	0.787800
H171	H17	0.017600	0.378400	0.829000
C151	C15	0.066400	0.428300	0.748900
H181	H18	0.115800	0.423500	0.764400
C161	C16	0.053300	0.461000	0.689500
C171	C17	0.979600	0.464200	0.671900
H191	H19	0.966300	0.487200	0.631600
C181	C18	0.926100	0.435900	0.709700
H201	H20	0.876800	0.436800	0.693600
C191	C19	0.128500	0.598100	0.637400
C201	C20	0.101000	0.637600	0.687400
H211	H21	0.076800	0.613400	0.722900
C211	C21	0.106700	0.712700	0.689100
H221	H22	0.084500	0.738200	0.724800
C221	C22	0.172100	0.713100	0.592300
H231	H23	0.197000	0.738500	0.558000
C231	C23	0.167900	0.638500	0.588900
H241	H24	0.191700	0.613700	0.553600
C241	C24	0.218600	0.462100	0.665800
H251	H25	0.253200	0.502600	0.674300
H261	H26	0.212000	0.434000	0.707200
C251	C25	0.125400	0.463400	0.548400
H271	H27	0.084300	0.428800	0.541100
H281	H28	0.122100	0.503700	0.516200
C261	C26	0.196200	0.428400	0.547000
H291	H29	0.227300	0.456100	0.515600
H301	H30	0.188600	0.379900	0.527200
C271	C27	0.244800	0.416800	0.613200
H311	H31	0.241900	0.365400	0.627100
H321	H32	0.297100	0.428300	0.603800
Ag21	Ag2	0.660130	0.623840	0.345120
Si31	Si3	0.542070	0.483600	0.647050
Si41	Si4	0.370810	0.504030	0.134610
N51	N5	0.630100	0.579600	0.446300
N61	N6	0.738800	0.412600	0.786100
N71	N7	0.561400	0.593400	0.268500
N81	N8	0.357300	0.249300	0.141800
C281	C28	0.563700	0.585800	0.464400
H331	H33	0.530500	0.611100	0.436300
C291	C29	0.536300	0.557000	0.524500
H341	H34	0.485500	0.562100	0.535500
C301	C30	0.582900	0.522000	0.566500
C311	C31	0.651200	0.519800	0.546500
H351	H35	0.686100	0.496200	0.574300
C321	C32	0.675900	0.548200	0.489700
H361	H36	0.727200	0.546100	0.480000
C331	C33	0.625300	0.458900	0.702100
C341	C34	0.666700	0.397100	0.687800
H371	H37	0.657800	0.369700	0.648700
C351	C35	0.720900	0.376900	0.732000
H381	H38	0.747500	0.333800	0.722700
C361	C36	0.699400	0.471300	0.800200
H391	H39	0.709100	0.496600	0.840300
C371	C37	0.645400	0.496200	0.758900
H401	H40	0.620900	0.540200	0.769400
C381	C38	0.482000	0.551800	0.685000
H411	H41	0.504600	0.569000	0.726800
H421	H42	0.477400	0.593800	0.654800
C391	C39	0.410200	0.523100	0.698600
H431	H43	0.379500	0.560800	0.718900
H441	H44	0.414500	0.482000	0.729000
H451	H45	0.387300	0.507000	0.657200
C401	C40	0.482700	0.406300	0.625700
H461	H46	0.509500	0.373500	0.596000
H471	H47	0.437900	0.423900	0.603600
H481	H48	0.469000	0.380200	0.666200
C411	C41	0.493000	0.598800	0.287800
H491	H49	0.482400	0.621600	0.329000
C421	C42	0.433600	0.571700	0.248900
H501	H50	0.384200	0.576500	0.264400
C431	C43	0.446700	0.539000	0.189500
C441	C44	0.520400	0.535800	0.171900
H511	H51	0.533700	0.512800	0.131600
C451	C45	0.573900	0.564100	0.209700
H521	H52	0.623200	0.563200	0.193600
C461	C46	0.371500	0.401900	0.137400
C471	C47	0.399000	0.362400	0.187400
H531	H53	0.423200	0.386600	0.222900
C481	C48	0.393300	0.287300	0.189100
H541	H54	0.415500	0.261800	0.224800
C491	C49	0.327900	0.286900	0.092300
H551	H55	0.303000	0.261500	0.058000
C501	C50	0.332100	0.361500	0.088900
H561	H56	0.308300	0.386300	0.053600
C511	C51	0.281400	0.537900	0.165800
H571	H57	0.246800	0.497400	0.174300
H581	H58	0.288000	0.566000	0.207200
C521	C52	0.374600	0.536600	0.048400
H591	H59	0.415700	0.571200	0.041100
H601	H60	0.377900	0.496300	0.016200
C531	C53	0.303800	0.571600	0.047000
H611	H61	0.272700	0.543900	0.015600
H621	H62	0.311400	0.620100	0.027200
C541	C54	0.255200	0.583200	0.113200
H631	H63	0.258100	0.634600	0.127100
H641	H64	0.202900	0.571700	0.103800
Ag31	Ag3	0.160130	0.876160	0.654880
Si51	Si5	0.042070	0.016400	0.352950
Si61	Si6	0.870810	0.995970	0.865390
N91	N9	0.130100	0.920400	0.553700
N101	N10	0.238800	0.087400	0.213900
N111	N11	0.061400	0.906600	0.731500
N121	N12	0.857300	0.250700	0.858200
C551	C55	0.063700	0.914200	0.535600
H651	H65	0.030500	0.888900	0.563700
C561	C56	0.036300	0.943000	0.475500
H661	H66	0.985500	0.937900	0.464500
C571	C57	0.082900	0.978000	0.433500
C581	C58	0.151200	0.980200	0.453500
H671	H67	0.186100	0.003800	0.425700
C591	C59	0.175900	0.951800	0.510300
H681	H68	0.227200	0.953900	0.520000
C601	C60	0.125300	0.041100	0.297900
C611	C61	0.166700	0.102900	0.312200
H691	H69	0.157800	0.130300	0.351300
C621	C62	0.220900	0.123100	0.268000
H701	H70	0.247500	0.166200	0.277300
C631	C63	0.199400	0.028700	0.199800
H711	H71	0.209100	0.003400	0.159700
C641	C64	0.145400	0.003800	0.241100
H721	H72	0.120900	0.959800	0.230600
C651	C65	0.982000	0.948200	0.315000
H731	H73	0.004600	0.931000	0.273200
H741	H74	0.977400	0.906200	0.345200
C661	C66	0.910200	0.976900	0.301400
H751	H75	0.879500	0.939200	0.281100
H761	H76	0.914500	0.018000	0.271000
H771	H77	0.887300	0.993000	0.342800
C671	C67	0.982700	0.093700	0.374300
H781	H78	0.009500	0.126500	0.404000
H791	H79	0.937900	0.076100	0.396400
H801	H80	0.969000	0.119800	0.333800
C681	C68	0.993000	0.901200	0.712200
H811	H81	0.982400	0.878400	0.671000
C691	C69	0.933600	0.928300	0.751100
H821	H82	0.884200	0.923500	0.735600
C701	C70	0.946700	0.961000	0.810500
C711	C71	0.020400	0.964200	0.828100
H831	H83	0.033700	0.987200	0.868400
C721	C72	0.073900	0.935900	0.790300
H841	H84	0.123200	0.936800	0.806400
C731	C73	0.871500	0.098100	0.862600
C741	C74	0.899000	0.137600	0.812600
H851	H85	0.923200	0.113400	0.777100
C751	C75	0.893300	0.212700	0.810900
H861	H86	0.915500	0.238200	0.775200
C761	C76	0.827900	0.213100	0.907700
H871	H87	0.803000	0.238500	0.942000
C771	C77	0.832100	0.138500	0.911100
H881	H88	0.808300	0.113700	0.946400
C781	C78	0.781400	0.962100	0.834200
H891	H89	0.746800	0.002600	0.825700
H901	H90	0.788000	0.934000	0.792800
C791	C79	0.874600	0.963400	0.951600
H911	H91	0.915700	0.928800	0.958900
H921	H92	0.877900	0.003700	0.983800
C801	C80	0.803800	0.928400	0.953000
H931	H93	0.772700	0.956100	0.984400
H941	H94	0.811400	0.879900	0.972800
C811	C81	0.755200	0.916800	0.886800
H951	H95	0.758100	0.865400	0.872900
H961	H96	0.702900	0.928300	0.896200
Ag41	Ag4	0.339870	0.123840	0.154880
Si71	Si7	0.457930	0.983600	0.852950
Si81	Si8	0.629190	0.004030	0.365390
N131	N13	0.369900	0.079600	0.053700
N141	N14	0.261200	0.912600	0.713900
N151	N15	0.438600	0.093400	0.231500
N161	N16	0.642700	0.749300	0.358200
C821	C82	0.436300	0.085800	0.035600
H971	H97	0.469500	0.111100	0.063700
C831	C83	0.463700	0.057000	0.975500
H981	H98	0.514500	0.062100	0.964500
C841	C84	0.417100	0.022000	0.933500
C851	C85	0.348800	0.019800	0.953500
H991	H99	0.313900	0.996200	0.925700
C861	C86	0.324100	0.048200	0.010300
H1001	H100	0.272800	0.046100	0.020000
C871	C87	0.374700	0.958900	0.797900
C881	C88	0.333300	0.897100	0.812200
H1011	H101	0.342200	0.869700	0.851300
C891	C89	0.279100	0.876900	0.768000
H1021	H102	0.252500	0.833800	0.777300
C901	C90	0.300600	0.971300	0.699800
H1031	H103	0.290900	0.996600	0.659700
C911	C91	0.354600	0.996200	0.741100
H1041	H104	0.379100	0.040200	0.730600
C921	C92	0.518000	0.051800	0.815000
H1051	H105	0.495400	0.069000	0.773200
H1061	H106	0.522600	0.093800	0.845200
C931	C93	0.589800	0.023100	0.801400
H1071	H107	0.620500	0.060800	0.781100
H1081	H108	0.585500	0.982000	0.771000
H1091	H109	0.612700	0.007000	0.842800
C941	C94	0.517300	0.906300	0.874300
H1101	H110	0.490500	0.873500	0.904000
H1111	H111	0.562100	0.923900	0.896400
H1121	H112	0.531000	0.880200	0.833800
C951	C95	0.507000	0.098800	0.212200
H1131	H113	0.517600	0.121600	0.171000
C961	C96	0.566400	0.071700	0.251100
H1141	H114	0.615800	0.076500	0.235600
C971	C97	0.553300	0.039000	0.310500
C981	C98	0.479600	0.035800	0.328100
H1151	H115	0.466300	0.012800	0.368400
C991	C99	0.426100	0.064100	0.290300
H1161	H116	0.376800	0.063200	0.306400
C1001	C100	0.628500	0.901900	0.362600
C1011	C101	0.601000	0.862400	0.312600
H1171	H117	0.576800	0.886600	0.277100
C1021	C102	0.606700	0.787300	0.310900
H1181	H118	0.584500	0.761800	0.275200
C1031	C103	0.672100	0.786900	0.407700
H1191	H119	0.697000	0.761500	0.442000
C1041	C104	0.667900	0.861500	0.411100
H1201	H120	0.691700	0.886300	0.446400
C1051	C105	0.718600	0.037900	0.334200
H1211	H121	0.753200	0.997400	0.325700
H1221	H122	0.712000	0.066000	0.292800
C1061	C106	0.625400	0.036600	0.451600
H1231	H123	0.584300	0.071200	0.458900
H1241	H124	0.622100	0.996300	0.483800
C1071	C107	0.696200	0.071600	0.453000
H1251	H125	0.727300	0.043900	0.484400
H1261	H126	0.688600	0.120100	0.472800
C1081	C108	0.744800	0.083200	0.386800
H1271	H127	0.741900	0.134600	0.372900
H1281	H128	0.797100	0.071700	0.396200
Ag51	Ag5	0.833150	0.867230	0.149110
Si91	Si9	0.448600	0.828100	0.132830
Si101	Si10	0.962100	0.676400	0.426880
N171	N17	0.707200	0.858800	0.137200
N181	N18	0.382300	0.709700	0.935400
N191	N19	0.868800	0.798700	0.238800
N201	N20	0.102000	0.471500	0.360300
C1091	C109	0.675300	0.794400	0.140600
H1291	H129	0.706200	0.753000	0.144700
C1101	C110	0.598100	0.783400	0.138600
H1301	H130	0.578700	0.735600	0.140000
C1111	C111	0.550600	0.841800	0.134700
C1121	C112	0.584800	0.908200	0.128600
H1311	H131	0.555400	0.950400	0.122800
C1131	C113	0.661200	0.915000	0.130900
H1321	H132	0.681900	0.962300	0.127800
C1141	C114	0.427200	0.782600	0.051900
C1151	C115	0.354300	0.776300	0.035600
H1331	H133	0.317500	0.795900	0.064000
C1161	C116	0.333200	0.740000	0.975400
H1341	H134	0.282300	0.737600	0.964000
C1171	C117	0.452000	0.715600	0.954700
H1351	H135	0.489200	0.694600	0.927500
C1181	C118	0.473300	0.749400	0.010400
H1361	H136	0.524500	0.749700	0.020900
C1191	C119	0.397100	0.909200	0.157500
H1371	H137	0.430300	0.949900	0.169400
H1381	H138	0.361900	0.925100	0.122900
C1201	C120	0.420300	0.770000	0.202000
H1391	H139	0.390400	0.729000	0.185400
H1401	H140	0.464400	0.750200	0.224600
C1211	C121	0.377700	0.812400	0.247600
H1411	H141	0.406500	0.822000	0.288400
H1421	H142	0.331800	0.786400	0.259900
C1221	C122	0.360100	0.879300	0.214600
H1431	H143	0.362800	0.917300	0.249200
H1441	H144	0.307400	0.875500	0.202000
C1231	C123	0.931100	0.762600	0.237800
H1451	H145	0.959800	0.763600	0.198400
C1241	C124	0.957300	0.723100	0.291100
H1461	H146	0.001800	0.696300	0.286400
C1251	C125	0.920600	0.721600	0.350600
C1261	C126	0.860100	0.763500	0.351000
H1471	H147	0.834000	0.769300	0.391500
C1271	C127	0.835300	0.796800	0.298100
H1481	H148	0.789600	0.821800	0.302100
C1281	C128	0.020100	0.596300	0.398300
C1291	C129	0.988300	0.528500	0.392900
H1491	H149	0.937100	0.522100	0.401500
C1301	C130	0.032600	0.469000	0.374600
H1501	H150	0.009300	0.422900	0.372500
C1311	C131	0.133800	0.539100	0.366000
H1511	H151	0.185300	0.543800	0.357900
C1321	C132	0.094400	0.599800	0.382800
H1521	H152	0.118700	0.645400	0.383900
C1331	C133	0.024500	0.739000	0.469800
H1531	H153	0.063700	0.754500	0.439400
H1541	H154	0.046600	0.714500	0.508100
H1551	H155	0.996700	0.781500	0.484900
C1341	C134	0.893600	0.648000	0.488300
H1561	H156	0.854900	0.685800	0.490800
H1571	H157	0.869600	0.603100	0.472000
C1351	C135	0.920400	0.634700	0.554000
H1581	H158	0.879100	0.620700	0.582700
H1591	H159	0.943600	0.678800	0.571400
H1601	H160	0.956900	0.595400	0.552900
Ag61	Ag6	0.666850	0.132770	0.649110
Si111	Si11	0.051400	0.171900	0.632830
Si121	Si12	0.537900	0.323600	0.926880
N211	N21	0.792800	0.141200	0.637200
N221	N22	0.117700	0.290300	0.435400
N231	N23	0.631200	0.201300	0.738800
N241	N24	0.398000	0.528500	0.860300
C1361	C136	0.824700	0.205600	0.640600
H1611	H161	0.793800	0.247000	0.644700
C1371	C137	0.901900	0.216600	0.638600
H1621	H162	0.921300	0.264400	0.640000
C1381	C138	0.949400	0.158200	0.634700
C1391	C139	0.915200	0.091800	0.628600
H1631	H163	0.944600	0.049600	0.622800
C1401	C140	0.838800	0.085000	0.630900
H1641	H164	0.818100	0.037700	0.627800
C1411	C141	0.072800	0.217400	0.551900
C1421	C142	0.145700	0.223700	0.535600
H1651	H165	0.182500	0.204100	0.564000
C1431	C143	0.166800	0.260000	0.475400
H1661	H166	0.217700	0.262400	0.464000
C1441	C144	0.048000	0.284400	0.454700
H1671	H167	0.010800	0.305400	0.427500
C1451	C145	0.026700	0.250600	0.510400
H1681	H168	0.975500	0.250300	0.520900
C1461	C146	0.102900	0.090800	0.657500
H1691	H169	0.069700	0.050100	0.669400
H1701	H170	0.138100	0.074900	0.622900
C1471	C147	0.079700	0.230000	0.702000
H1711	H171	0.109600	0.271000	0.685400
H1721	H172	0.035600	0.249800	0.724600
C1481	C148	0.122300	0.187600	0.747600
H1731	H173	0.093500	0.178000	0.788400
H1741	H174	0.168200	0.213600	0.759900
C1491	C149	0.139900	0.120700	0.714600
H1751	H175	0.137200	0.082700	0.749200
H1761	H176	0.192600	0.124500	0.702000
C1501	C150	0.568900	0.237400	0.737800
H1771	H177	0.540200	0.236400	0.698400
C1511	C151	0.542700	0.276900	0.791100
H1781	H178	0.498200	0.303700	0.786400
C1521	C152	0.579400	0.278400	0.850600
C1531	C153	0.639900	0.236500	0.851000
H1791	H179	0.666000	0.230700	0.891500
C1541	C154	0.664700	0.203200	0.798100
H1801	H180	0.710400	0.178200	0.802100
C1551	C155	0.479900	0.403700	0.898300
C1561	C156	0.511700	0.471500	0.892900
H1811	H181	0.562900	0.477900	0.901500
C1571	C157	0.467400	0.531000	0.874600
H1821	H182	0.490700	0.577100	0.872500
C1581	C158	0.366200	0.460900	0.866000
H1831	H183	0.314700	0.456200	0.857900
C1591	C159	0.405600	0.400200	0.882800
H1841	H184	0.381300	0.354600	0.883900
C1601	C160	0.475500	0.261000	0.969800
H1851	H185	0.436300	0.245500	0.939400
H1861	H186	0.453400	0.285500	0.008100
H1871	H187	0.503300	0.218500	0.984900
C1611	C161	0.606400	0.352000	0.988300
H1881	H188	0.645100	0.314200	0.990800
H1891	H189	0.630400	0.396900	0.972000
C1621	C162	0.579600	0.365300	0.054000
H1901	H190	0.620900	0.379300	0.082700
H1911	H191	0.556400	0.321200	0.071400
H1921	H192	0.543100	0.404600	0.052900
Ag71	Ag7	0.166850	0.367230	0.350890
Si131	Si13	0.551400	0.328100	0.367170
Si141	Si14	0.037900	0.176400	0.073120
N251	N25	0.292800	0.358800	0.362800
N261	N26	0.617700	0.209700	0.564600
N271	N27	0.131200	0.298700	0.261200
N281	N28	0.898000	0.971500	0.139700
C1631	C163	0.324700	0.294400	0.359400
H1931	H193	0.293800	0.253000	0.355300
C1641	C164	0.401900	0.283400	0.361400
H1941	H194	0.421300	0.235600	0.360000
C1651	C165	0.449400	0.341800	0.365300
C1661	C166	0.415200	0.408200	0.371400
H1951	H195	0.444600	0.450400	0.377200
C1671	C167	0.338800	0.415000	0.369100
H1961	H196	0.318100	0.462300	0.372200
C1681	C168	0.572800	0.282600	0.448100
C1691	C169	0.645700	0.276300	0.464400
H1971	H197	0.682500	0.295900	0.436000
C1701	C170	0.666800	0.240000	0.524600
H1981	H198	0.717700	0.237600	0.536000
C1711	C171	0.548000	0.215600	0.545300
H1991	H199	0.510800	0.194600	0.572500
C1721	C172	0.526700	0.249400	0.489600
H2001	H200	0.475500	0.249700	0.479100
C1731	C173	0.602900	0.409200	0.342500
H2011	H201	0.569700	0.449900	0.330600
H2021	H202	0.638100	0.425100	0.377100
C1741	C174	0.579700	0.270000	0.298000
H2031	H203	0.609600	0.229000	0.314600
H2041	H204	0.535600	0.250200	0.275400
C1751	C175	0.622300	0.312400	0.252400
H2051	H205	0.593500	0.322000	0.211600
H2061	H206	0.668200	0.286400	0.240100
C1761	C176	0.639900	0.379300	0.285400
H2071	H207	0.637200	0.417300	0.250800
H2081	H208	0.692600	0.375500	0.298000
C1771	C177	0.068900	0.262600	0.262200
H2091	H209	0.040200	0.263600	0.301600
C1781	C178	0.042700	0.223100	0.208900
H2101	H210	0.998200	0.196300	0.213600
C1791	C179	0.079400	0.221600	0.149400
C1801	C180	0.139900	0.263500	0.149000
H2111	H211	0.166000	0.269300	0.108500
C1811	C181	0.164700	0.296800	0.201900
H2121	H212	0.210400	0.321800	0.197900
C1821	C182	0.979900	0.096300	0.101700
C1831	C183	0.011700	0.028500	0.107100
H2131	H213	0.062900	0.022100	0.098500
C1841	C184	0.967400	0.969000	0.125400
H2141	H214	0.990700	0.922900	0.127500
C1851	C185	0.866200	0.039100	0.134000
H2151	H215	0.814700	0.043800	0.142100
C1861	C186	0.905600	0.099800	0.117200
H2161	H216	0.881300	0.145400	0.116100
C1871	C187	0.975500	0.239000	0.030200
H2171	H217	0.936300	0.254500	0.060600
H2181	H218	0.953400	0.214500	0.991900
H2191	H219	0.003300	0.281500	0.015100
C1881	C188	0.106400	0.148000	0.011700
H2201	H220	0.145100	0.185800	0.009200
H2211	H221	0.130400	0.103100	0.028000
C1891	C189	0.079600	0.134700	0.946000
H2221	H222	0.120900	0.120700	0.917300
H2231	H223	0.056400	0.178800	0.928600
H2241	H224	0.043100	0.095400	0.947100
Ag81	Ag8	0.333150	0.632770	0.850890
Si151	Si15	0.948600	0.671900	0.867170
Si161	Si16	0.462100	0.823600	0.573120
N291	N29	0.207200	0.641200	0.862800
N301	N30	0.882300	0.790300	0.064600
N311	N31	0.368800	0.701300	0.761200
N321	N32	0.602000	0.028500	0.639700
C1901	C190	0.175300	0.705600	0.859400
H2251	H225	0.206200	0.747000	0.855300
C1911	C191	0.098100	0.716600	0.861400
H2261	H226	0.078700	0.764400	0.860000
C1921	C192	0.050600	0.658200	0.865300
C1931	C193	0.084800	0.591800	0.871400
H2271	H227	0.055400	0.549600	0.877200
C1941	C194	0.161200	0.585000	0.869100
H2281	H228	0.181900	0.537700	0.872200
C1951	C195	0.927200	0.717400	0.948100
C1961	C196	0.854300	0.723700	0.964400
H2291	H229	0.817500	0.704100	0.936000
C1971	C197	0.833200	0.760000	0.024600
H2301	H230	0.782300	0.762400	0.036000
C1981	C198	0.952000	0.784400	0.045300
H2311	H231	0.989200	0.805400	0.072500
C1991	C199	0.973300	0.750600	0.989600
H2321	H232	0.024500	0.750300	0.979100
C2001	C200	0.897100	0.590800	0.842500
H2331	H233	0.930300	0.550100	0.830600
H2341	H234	0.861900	0.574900	0.877100
C2011	C201	0.920300	0.730000	0.798000
H2351	H235	0.890400	0.771000	0.814600
H2361	H236	0.964400	0.749800	0.775400
C2021	C202	0.877700	0.687600	0.752400
H2371	H237	0.906500	0.678000	0.711600
H2381	H238	0.831800	0.713600	0.740100
C2031	C203	0.860100	0.620700	0.785400
H2391	H239	0.862800	0.582700	0.750800
H2401	H240	0.807400	0.624500	0.798000
C2041	C204	0.431100	0.737400	0.762200
H2411	H241	0.459800	0.736400	0.801600
C2051	C205	0.457300	0.776900	0.708900
H2421	H242	0.501800	0.803700	0.713600
C2061	C206	0.420600	0.778400	0.649400
C2071	C207	0.360100	0.736500	0.649000
H2431	H243	0.334000	0.730700	0.608500
C2081	C208	0.335300	0.703200	0.701900
H2441	H244	0.289600	0.678200	0.697900
C2091	C209	0.520100	0.903700	0.601700
C2101	C210	0.488300	0.971500	0.607100
H2451	H245	0.437100	0.977900	0.598500
C2111	C211	0.532600	0.031000	0.625400
H2461	H246	0.509300	0.077100	0.627500
C2121	C212	0.633800	0.960900	0.634000
H2471	H247	0.685300	0.956200	0.642100
C2131	C213	0.594400	0.900200	0.617200
H2481	H248	0.618700	0.854600	0.616100
C2141	C214	0.524500	0.761000	0.530200
H2491	H249	0.563700	0.745500	0.560600
H2501	H250	0.546600	0.785500	0.491900
H2511	H251	0.496700	0.718500	0.515100
C2151	C215	0.393600	0.852000	0.511700
H2521	H252	0.354900	0.814200	0.509200
H2531	H253	0.369600	0.896900	0.528000
C2161	C216	0.420400	0.865300	0.446000
H2541	H254	0.379100	0.879300	0.417300
H2551	H255	0.443600	0.821200	0.428600
H2561	H256	0.456900	0.904600	0.447100
