data_QIYDAF_freeONLY_PM
_symmetry_space_group_name_H-M	'P1'
_cell_length_a	29.549700
_cell_length_b	29.549700
_cell_length_c	29.549700
_cell_angle_alpha	109.471000
_cell_angle_beta	109.471000
_cell_angle_gamma	109.471000
_symmetry_Int_Tables_number 1

loop_
_symmetry_equiv_pos_as_xyz
'x,y,z'

loop_
_atom_site_label
_atom_site_type_symbol
_atom_site_fract_x
_atom_site_fract_y
_atom_site_fract_z
Cu11	Cu1	0.257050	0.757050	0.500000
Cu21	Cu2	0.742950	0.242950	0.500000
Cu31	Cu3	0.242950	0.500000	0.742950
Cu41	Cu4	0.166440	0.500000	0.666440
Cu51	Cu5	0.666440	0.166440	0.500000
Cu61	Cu6	0.500000	0.742950	0.242950
Cu71	Cu7	0.757050	0.500000	0.257050
Cu81	Cu8	0.833560	0.500000	0.333560
Cu91	Cu9	0.500000	0.257050	0.757050
Cu101	Cu10	0.500000	0.666440	0.166440
Cu111	Cu11	0.333560	0.833560	0.500000
Cu121	Cu12	0.500000	0.333560	0.833560
H11	H1	0.400800	0.965200	0.906200
H21	H2	0.059000	0.965200	0.564400
H31	H3	0.508700	0.740100	0.059600
H41	H4	0.913600	0.386900	0.766100
H51	H5	0.233900	0.086400	0.613100
H61	H6	0.500800	0.021600	0.223800
H71	H7	0.814400	0.485400	0.144000
H81	H8	0.550900	0.059600	0.319500
H91	H9	0.941000	0.034800	0.435600
H101	H10	0.491300	0.550900	0.231400
H111	H11	0.965200	0.906200	0.400800
H121	H12	0.852500	0.766100	0.379200
H131	H13	0.479200	0.202200	0.978400
H141	H14	0.526700	0.379200	0.613100
H151	H15	0.599200	0.034800	0.093800
H161	H16	0.449100	0.768600	0.508700
H171	H17	0.550900	0.231400	0.491300
H181	H18	0.740100	0.231400	0.680500
H191	H19	0.435600	0.400800	0.494600
H201	H20	0.723000	0.223800	0.202200
H211	H21	0.852500	0.473300	0.086400
H221	H22	0.473300	0.086400	0.852500
H231	H23	0.435600	0.941000	0.034800
H241	H24	0.277000	0.776200	0.797800
H251	H25	0.491300	0.259900	0.940400
H261	H26	0.329600	0.144000	0.658600
H271	H27	0.233900	0.620800	0.147500
H281	H28	0.766100	0.379200	0.852500
H291	H29	0.277000	0.479200	0.500800
H301	H30	0.940400	0.491300	0.259900
H311	H31	0.319500	0.259900	0.768600
H321	H32	0.613100	0.526700	0.379200
H331	H33	0.144000	0.814400	0.485400
H341	H34	0.906200	0.400800	0.965200
H351	H35	0.671000	0.341400	0.485400
H361	H36	0.658600	0.514600	0.329000
H371	H37	0.505400	0.564400	0.599200
H381	H38	0.329000	0.814400	0.670400
H391	H39	0.500800	0.277000	0.479200
H401	H40	0.202200	0.723000	0.223800
H411	H41	0.978400	0.776200	0.499200
H421	H42	0.494600	0.435600	0.400800
H431	H43	0.658600	0.329600	0.144000
H441	H44	0.520800	0.499200	0.723000
H451	H45	0.086400	0.852500	0.473300
H461	H46	0.740100	0.059600	0.508700
H471	H47	0.499200	0.978400	0.776200
H481	H48	0.564400	0.599200	0.505400
H491	H49	0.185600	0.514600	0.856000
H501	H50	0.670400	0.856000	0.341400
H511	H51	0.093800	0.599200	0.034800
H521	H52	0.059000	0.494600	0.093800
H531	H53	0.680500	0.449100	0.940400
H541	H54	0.259900	0.940400	0.491300
H551	H55	0.505400	0.906200	0.941000
H561	H56	0.319500	0.550900	0.059600
H571	H57	0.514600	0.329000	0.658600
H581	H58	0.021600	0.223800	0.500800
H591	H59	0.386900	0.766100	0.913600
H601	H60	0.514600	0.856000	0.185600
H611	H61	0.379200	0.852500	0.766100
H621	H62	0.856000	0.185600	0.514600
H631	H63	0.473300	0.620800	0.386900
H641	H64	0.941000	0.505400	0.906200
H651	H65	0.231400	0.491300	0.550900
H661	H66	0.494600	0.093800	0.059000
H671	H67	0.086400	0.613100	0.233900
H681	H68	0.329000	0.658600	0.514600
H691	H69	0.223800	0.500800	0.021600
H701	H70	0.978400	0.479200	0.202200
H711	H71	0.144000	0.658600	0.329600
H721	H72	0.479200	0.500800	0.277000
H731	H73	0.814400	0.670400	0.329000
H741	H74	0.797800	0.021600	0.520800
H751	H75	0.913600	0.147500	0.526700
H761	H76	0.906200	0.941000	0.505400
H771	H77	0.400800	0.494600	0.435600
H781	H78	0.231400	0.680500	0.740100
H791	H79	0.034800	0.435600	0.941000
H801	H80	0.147500	0.233900	0.620800
H811	H81	0.485400	0.671000	0.341400
H821	H82	0.599200	0.505400	0.564400
H831	H83	0.768600	0.508700	0.449100
H841	H84	0.202200	0.978400	0.479200
H851	H85	0.564400	0.059000	0.965200
H861	H86	0.680500	0.740100	0.231400
H871	H87	0.940400	0.680500	0.449100
H881	H88	0.329600	0.671000	0.185600
H891	H89	0.021600	0.520800	0.797800
H901	H90	0.670400	0.329000	0.814400
H911	H91	0.259900	0.768600	0.319500
H921	H92	0.671000	0.185600	0.329600
H931	H93	0.386900	0.473300	0.620800
H941	H94	0.620800	0.386900	0.473300
H951	H95	0.034800	0.093800	0.599200
H961	H96	0.059600	0.319500	0.550900
H971	H97	0.059600	0.508700	0.740100
H981	H98	0.379200	0.613100	0.526700
H991	H99	0.526700	0.913600	0.147500
H1001	H100	0.723000	0.520800	0.499200
H1011	H101	0.147500	0.526700	0.913600
H1021	H102	0.499200	0.723000	0.520800
H1031	H103	0.485400	0.144000	0.814400
H1041	H104	0.776200	0.499200	0.978400
H1051	H105	0.093800	0.059000	0.494600
H1061	H106	0.965200	0.564400	0.059000
H1071	H107	0.185600	0.329600	0.671000
H1081	H108	0.520800	0.797800	0.021600
H1091	H109	0.508700	0.449100	0.768600
H1101	H110	0.768600	0.319500	0.259900
H1111	H111	0.620800	0.147500	0.233900
H1121	H112	0.223800	0.202200	0.723000
H1131	H113	0.449100	0.940400	0.680500
H1141	H114	0.766100	0.913600	0.386900
H1151	H115	0.341400	0.670400	0.856000
H1161	H116	0.341400	0.485400	0.671000
H1171	H117	0.797800	0.277000	0.776200
H1181	H118	0.856000	0.341400	0.670400
H1191	H119	0.613100	0.233900	0.086400
H1201	H120	0.776200	0.797800	0.277000
C11	C1	0.384290	0.718060	0.510550
C21	C2	0.639100	0.160300	0.107400
C31	C3	0.054600	0.519500	0.809500
C41	C4	0.496200	0.243500	0.842900
C51	C5	0.809500	0.054600	0.519500
C61	C6	0.444030	0.919100	0.780330
C71	C7	0.748900	0.878700	0.355600
C81	C8	0.333770	0.615710	0.126260
C91	C9	0.697800	0.435100	0.922700
C101	C10	0.965400	0.413800	0.943800
C111	C11	0.885300	0.502900	0.960400
C121	C12	0.524930	0.444030	0.663700
C131	C13	0.861230	0.336300	0.780330
C141	C14	0.400600	0.653300	0.157100
C151	C15	0.034600	0.586200	0.056200
C161	C16	0.792490	0.281940	0.666230
C171	C17	0.581300	0.526000	0.560900
C181	C18	0.502900	0.960400	0.885300
C191	C19	0.965400	0.021600	0.551600
C201	C20	0.360900	0.839700	0.892600
C211	C21	0.207510	0.718060	0.333770
C221	C22	0.080900	0.524930	0.861230
C231	C23	0.484100	0.155800	0.847500
C241	C24	0.839700	0.892600	0.360900
C251	C25	0.056200	0.034600	0.586200
C261	C26	0.523100	0.393300	0.644400
C271	C27	0.542500	0.502900	0.617600
C281	C28	0.474000	0.055300	0.034900
C291	C29	0.052900	0.160300	0.521200
C301	C30	0.535100	0.290000	0.480500
C311	C31	0.636600	0.152500	0.308300
C321	C32	0.308300	0.155800	0.671700
C331	C33	0.224900	0.922700	0.487600
C341	C34	0.842900	0.599400	0.346700
C351	C35	0.615710	0.281940	0.489450
C361	C36	0.666230	0.792490	0.281940
C371	C37	0.328300	0.691700	0.844200
C381	C38	0.878700	0.129800	0.523100
C391	C39	0.519500	0.464900	0.710000
C401	C40	0.844200	0.152500	0.515900
C411	C41	0.413800	0.943800	0.965400
C421	C42	0.251100	0.606700	0.129800
C431	C43	0.121300	0.644400	0.251100
C441	C44	0.336300	0.780330	0.861230
C451	C45	0.644400	0.251100	0.121300
C461	C46	0.413800	0.448400	0.470000
C471	C47	0.055300	0.581300	0.020400
C481	C48	0.360900	0.468300	0.521200
C491	C49	0.671700	0.308300	0.155800
C501	C50	0.252700	0.496200	0.653300
C511	C51	0.718060	0.333770	0.207510
C521	C52	0.644400	0.523100	0.393300
C531	C53	0.077300	0.512400	0.775100
C541	C54	0.718060	0.510550	0.384290
C551	C55	0.756500	0.157100	0.503800
C561	C56	0.020400	0.055300	0.581300
C571	C57	0.870200	0.476900	0.121300
C581	C58	0.190500	0.710000	0.245100
C591	C59	0.480500	0.535100	0.290000
C601	C60	0.480500	0.190500	0.945400
C611	C61	0.960400	0.885300	0.502900
C621	C62	0.484100	0.636600	0.328300
C631	C63	0.219670	0.138770	0.663700
C641	C64	0.468300	0.521200	0.360900
C651	C65	0.346700	0.747300	0.503800
C661	C66	0.475070	0.138770	0.919100
C671	C67	0.885300	0.924900	0.382400
C681	C68	0.251100	0.121300	0.644400
C691	C69	0.207510	0.873740	0.489450
C701	C70	0.965100	0.526000	0.944700
C711	C71	0.947100	0.839700	0.478800
C721	C72	0.489450	0.207510	0.873740
C731	C73	0.302200	0.564900	0.077300
C741	C74	0.444030	0.663700	0.524930
C751	C75	0.710000	0.245100	0.190500
C761	C76	0.737300	0.512400	0.435100
C771	C77	0.160300	0.107400	0.639100
C781	C78	0.138770	0.919100	0.475070
C791	C79	0.114700	0.075100	0.617600
C801	C80	0.333770	0.207510	0.718060
C811	C81	0.418700	0.474000	0.439100
C821	C82	0.336300	0.475070	0.555970
C831	C83	0.564900	0.262700	0.487600
C841	C84	0.792490	0.126260	0.510550
C851	C85	0.497100	0.039600	0.114700
C861	C86	0.155800	0.847500	0.484100
C871	C87	0.290000	0.480500	0.535100
C881	C88	0.470000	0.413800	0.448400
C891	C89	0.710000	0.519500	0.464900
C901	C90	0.075100	0.960400	0.457500
C911	C91	0.418700	0.979600	0.944700
C921	C92	0.464900	0.710000	0.519500
C931	C93	0.756500	0.252700	0.599400
C941	C94	0.691700	0.363400	0.847500
C951	C95	0.476900	0.606700	0.355600
C961	C96	0.077300	0.302200	0.564900
C971	C97	0.960400	0.457500	0.075100
C981	C98	0.586200	0.551600	0.530000
C991	C99	0.363400	0.671700	0.515900
C1001	C100	0.943800	0.965400	0.413800
C1011	C101	0.523100	0.878700	0.129800
C1021	C102	0.107400	0.947100	0.468300
C1031	C103	0.363400	0.847500	0.691700
C1041	C104	0.551600	0.965400	0.021600
C1051	C105	0.555970	0.080900	0.219670
C1061	C106	0.039600	0.542500	0.924900
C1071	C107	0.157100	0.400600	0.653300
C1081	C108	0.435100	0.737300	0.512400
C1091	C109	0.599400	0.756500	0.252700
C1101	C110	0.219670	0.555970	0.080900
C1111	C111	0.478800	0.639100	0.531700
C1121	C112	0.697800	0.775100	0.262700
C1131	C113	0.653300	0.252700	0.496200
C1141	C114	0.943800	0.530000	0.978400
C1151	C115	0.054600	0.245100	0.535100
C1161	C116	0.873740	0.666230	0.384290
C1171	C117	0.468300	0.107400	0.947100
C1181	C118	0.355600	0.748900	0.878700
C1191	C119	0.606700	0.355600	0.476900
C1201	C120	0.129800	0.251100	0.606700
C1211	C121	0.639100	0.531700	0.478800
C1221	C122	0.663700	0.524930	0.444030
C1231	C123	0.945400	0.754900	0.464900
C1241	C124	0.671700	0.515900	0.363400
C1251	C125	0.302200	0.224900	0.737300
C1261	C126	0.075100	0.617600	0.114700
C1271	C127	0.489450	0.615710	0.281940
C1281	C128	0.775100	0.262700	0.697800
C1291	C129	0.328300	0.484100	0.636600
C1301	C130	0.945400	0.480500	0.190500
C1311	C131	0.464900	0.945400	0.754900
C1321	C132	0.979600	0.560900	0.034900
C1331	C133	0.114700	0.497100	0.039600
C1341	C134	0.448400	0.034600	0.978400
C1351	C135	0.965100	0.020400	0.439100
C1361	C136	0.510550	0.384290	0.718060
C1371	C137	0.055300	0.034900	0.474000
C1381	C138	0.224900	0.737300	0.302200
C1391	C139	0.487600	0.564900	0.262700
C1401	C140	0.470000	0.021600	0.056200
C1411	C141	0.439100	0.418700	0.474000
C1421	C142	0.666230	0.384290	0.873740
C1431	C143	0.870200	0.748900	0.393300
C1441	C144	0.599400	0.346700	0.842900
C1451	C145	0.944700	0.418700	0.979600
C1461	C146	0.919100	0.475070	0.138770
C1471	C147	0.478800	0.947100	0.839700
C1481	C148	0.560900	0.581300	0.526000
C1491	C149	0.530000	0.586200	0.551600
C1501	C150	0.052900	0.531700	0.892600
C1511	C151	0.519500	0.809500	0.054600
C1521	C152	0.530000	0.978400	0.943800
C1531	C153	0.400600	0.243500	0.747300
C1541	C154	0.190500	0.945400	0.480500
C1551	C155	0.503800	0.346700	0.747300
C1561	C156	0.393300	0.870200	0.748900
C1571	C157	0.780330	0.861230	0.336300
C1581	C158	0.747300	0.400600	0.243500
C1591	C159	0.617600	0.114700	0.075100
C1601	C160	0.384290	0.873740	0.666230
C1611	C161	0.107400	0.639100	0.160300
C1621	C162	0.245100	0.190500	0.710000
C1631	C163	0.056200	0.470000	0.021600
C1641	C164	0.521200	0.360900	0.468300
C1651	C165	0.346700	0.842900	0.599400
C1661	C166	0.152500	0.308300	0.636600
C1671	C167	0.034600	0.978400	0.448400
C1681	C168	0.245100	0.535100	0.054600
C1691	C169	0.496200	0.653300	0.252700
C1701	C170	0.497100	0.382400	0.457500
C1711	C171	0.281940	0.489450	0.615710
C1721	C172	0.121300	0.870200	0.476900
C1731	C173	0.512400	0.775100	0.077300
C1741	C174	0.780330	0.444030	0.919100
C1751	C175	0.922700	0.697800	0.435100
C1761	C176	0.308300	0.636600	0.152500
C1771	C177	0.535100	0.054600	0.245100
C1781	C178	0.474000	0.439100	0.418700
C1791	C179	0.439100	0.965100	0.020400
C1801	C180	0.243500	0.842900	0.496200
C1811	C181	0.615710	0.126260	0.333770
C1821	C182	0.847500	0.484100	0.155800
C1831	C183	0.281940	0.666230	0.792490
C1841	C184	0.126260	0.333770	0.615710
C1851	C185	0.393300	0.644400	0.523100
C1861	C186	0.809500	0.290000	0.754900
C1871	C187	0.586200	0.056200	0.034600
C1881	C188	0.892600	0.052900	0.531700
C1891	C189	0.775100	0.077300	0.512400
C1901	C190	0.978400	0.943800	0.530000
C1911	C191	0.617600	0.542500	0.502900
C1921	C192	0.663700	0.219670	0.138770
C1931	C193	0.978400	0.448400	0.034600
C1941	C194	0.039600	0.114700	0.497100
C1951	C195	0.435100	0.922700	0.697800
C1961	C196	0.382400	0.457500	0.497100
C1971	C197	0.653300	0.157100	0.400600
C1981	C198	0.979600	0.944700	0.418700
C1991	C199	0.636600	0.328300	0.484100
C2001	C200	0.355600	0.476900	0.606700
C2011	C201	0.839700	0.478800	0.947100
C2021	C202	0.892600	0.360900	0.839700
C2031	C203	0.510550	0.792490	0.126260
C2041	C204	0.861230	0.080900	0.524930
C2051	C205	0.487600	0.224900	0.922700
C2061	C206	0.754900	0.809500	0.290000
C2071	C207	0.555970	0.336300	0.475070
C2081	C208	0.754900	0.464900	0.945400
C2091	C209	0.524930	0.861230	0.080900
C2101	C210	0.157100	0.503800	0.756500
C2111	C211	0.919100	0.780330	0.444030
C2121	C212	0.581300	0.020400	0.055300
C2131	C213	0.531700	0.478800	0.639100
C2141	C214	0.521200	0.052900	0.160300
C2151	C215	0.126260	0.510550	0.792490
C2161	C216	0.844200	0.328300	0.691700
C2171	C217	0.457500	0.075100	0.960400
C2181	C218	0.503800	0.756500	0.157100
C2191	C219	0.606700	0.129800	0.251100
C2201	C220	0.252700	0.599400	0.756500
C2211	C221	0.020400	0.439100	0.965100
C2221	C222	0.243500	0.747300	0.400600
C2231	C223	0.138770	0.663700	0.219670
C2241	C224	0.475070	0.555970	0.336300
C2251	C225	0.290000	0.754900	0.809500
C2261	C226	0.924900	0.039600	0.542500
C2271	C227	0.847500	0.691700	0.363400
C2281	C228	0.873740	0.489450	0.207510
C2291	C229	0.457500	0.497100	0.382400
C2301	C230	0.448400	0.470000	0.413800
C2311	C231	0.748900	0.393300	0.870200
C2321	C232	0.262700	0.697800	0.775100
C2331	C233	0.526000	0.944700	0.965100
C2341	C234	0.152500	0.515900	0.844200
C2351	C235	0.526000	0.560900	0.581300
C2361	C236	0.021600	0.551600	0.965400
C2371	C237	0.747300	0.503800	0.346700
C2381	C238	0.560900	0.034900	0.979600
C2391	C239	0.155800	0.671700	0.308300
C2401	C240	0.476900	0.121300	0.870200
C2411	C241	0.034900	0.979600	0.560900
C2421	C242	0.515900	0.844200	0.152500
C2431	C243	0.021600	0.056200	0.470000
C2441	C244	0.382400	0.885300	0.924900
C2451	C245	0.160300	0.521200	0.052900
C2461	C246	0.947100	0.468300	0.107400
C2471	C247	0.515900	0.363400	0.671700
C2481	C248	0.922700	0.487600	0.224900
C2491	C249	0.262700	0.487600	0.564900
C2501	C250	0.502900	0.617600	0.542500
C2511	C251	0.531700	0.892600	0.052900
C2521	C252	0.034900	0.474000	0.055300
C2531	C253	0.691700	0.844200	0.328300
C2541	C254	0.512400	0.435100	0.737300
C2551	C255	0.944700	0.965100	0.526000
C2561	C256	0.080900	0.219670	0.555970
C2571	C257	0.842900	0.496200	0.243500
C2581	C258	0.129800	0.523100	0.878700
C2591	C259	0.737300	0.302200	0.224900
C2601	C260	0.564900	0.077300	0.302200
C2611	C261	0.878700	0.355600	0.748900
C2621	C262	0.551600	0.530000	0.586200
C2631	C263	0.924900	0.382400	0.885300
C2641	C264	0.542500	0.924900	0.039600
O11	O1	0.700630	0.280180	0.500790
O21	O2	0.789740	0.501330	0.370910
O31	O3	0.898800	0.500000	0.398800
O41	O4	0.789740	0.418830	0.288410
O51	O5	0.500000	0.601200	0.101200
O61	O6	0.199840	0.420450	0.700630
O71	O7	0.581170	0.370910	0.869580
O81	O8	0.307000	0.500000	0.807000
O91	O9	0.499210	0.299370	0.719820
O101	O10	0.370910	0.789740	0.501330
O111	O11	0.579550	0.299370	0.800160
O121	O12	0.601200	0.101200	0.500000
O131	O13	0.500790	0.220610	0.800160
O141	O14	0.629090	0.130420	0.418830
O151	O15	0.280180	0.500790	0.700630
O161	O16	0.220610	0.719820	0.420450
O171	O17	0.800160	0.579550	0.299370
O181	O18	0.288410	0.789740	0.418830
O191	O19	0.498670	0.288410	0.869580
O201	O20	0.420450	0.220610	0.719820
O211	O21	0.869580	0.581170	0.370910
O221	O22	0.418830	0.629090	0.130420
O231	O23	0.629090	0.210260	0.498670
O241	O24	0.299370	0.800160	0.579550
O251	O25	0.418830	0.288410	0.789740
O261	O26	0.711590	0.210260	0.581170
O271	O27	0.420450	0.700630	0.199840
O281	O28	0.693000	0.500000	0.193000
O291	O29	0.807000	0.307000	0.500000
O301	O30	0.288410	0.869580	0.498670
O311	O31	0.500000	0.193000	0.693000
O321	O32	0.500790	0.700630	0.280180
O331	O33	0.581170	0.711590	0.210260
O341	O34	0.193000	0.693000	0.500000
O351	O35	0.280180	0.579550	0.779390
O361	O36	0.210260	0.581170	0.711590
O371	O37	0.130420	0.418830	0.629090
O381	O38	0.210260	0.498670	0.629090
O391	O39	0.299370	0.719820	0.499210
O401	O40	0.501330	0.370910	0.789740
O411	O41	0.501330	0.711590	0.130420
O421	O42	0.779390	0.280180	0.579550
O431	O43	0.500000	0.807000	0.307000
O441	O44	0.101200	0.500000	0.601200
O451	O45	0.398800	0.898800	0.500000
O461	O46	0.130420	0.501330	0.711590
O471	O47	0.779390	0.199840	0.499210
O481	O48	0.869580	0.498670	0.288410
O491	O49	0.500000	0.398800	0.898800
O501	O50	0.498670	0.629090	0.210260
O511	O51	0.719820	0.420450	0.220610
O521	O52	0.499210	0.779390	0.199840
O531	O53	0.700630	0.199840	0.420450
O541	O54	0.370910	0.869580	0.581170
O551	O55	0.711590	0.130420	0.501330
O561	O56	0.199840	0.499210	0.779390
O571	O57	0.220610	0.800160	0.500790
O581	O58	0.579550	0.779390	0.280180
O591	O59	0.800160	0.500790	0.220610
O601	O60	0.719820	0.499210	0.299370
