data_QOBWEJ_freeONLY_PM
_symmetry_space_group_name_H-M	'P1'
_cell_length_a	10.200000
_cell_length_b	9.998000
_cell_length_c	10.447100
_cell_angle_alpha	90.000000
_cell_angle_beta	92.242000
_cell_angle_gamma	90.000000
_symmetry_Int_Tables_number 1

loop_
_symmetry_equiv_pos_as_xyz
'x,y,z'

loop_
_atom_site_label
_atom_site_type_symbol
_atom_site_fract_x
_atom_site_fract_y
_atom_site_fract_z
Zn11	Zn1	0.137200	0.423500	0.892700
Zn21	Zn2	0.372400	0.098900	0.121100
Zn31	Zn3	0.083000	0.150100	0.398800
Zn41	Zn4	0.579200	0.814300	0.375000
P11	P1	0.928200	0.671300	0.905800
P21	P2	0.384100	0.063700	0.431300
P31	P3	0.114400	0.396800	0.587800
P41	P4	0.432700	0.354600	0.929300
O11	O1	0.319400	0.456800	0.930900
O21	O2	0.059100	0.597300	0.917000
O31	O3	0.100900	0.344800	0.724200
O41	O4	0.061800	0.286700	0.998900
O51	O5	0.429700	0.262000	0.045900
O61	O6	0.408400	0.130200	0.302200
O71	O7	0.563100	0.429400	0.938400
O81	O8	0.815500	0.574200	0.937600
O91	O9	0.236700	0.055300	0.456600
O101	O10	0.070600	0.539700	0.576600
O111	O11	0.032700	0.308900	0.496700
O121	O12	0.904000	0.729700	0.771900
O131	O13	0.434500	0.920000	0.434500
O141	O14	0.423600	0.269400	0.805700
O151	O15	0.261000	0.395300	0.552700
O161	O16	0.454800	0.143700	0.537200
Zn51	Zn5	0.862800	0.923500	0.107300
Zn61	Zn6	0.627600	0.598900	0.878900
Zn71	Zn7	0.917000	0.650100	0.601200
Zn81	Zn8	0.420800	0.314300	0.625000
P51	P5	0.071800	0.171300	0.094200
P61	P6	0.615900	0.563700	0.568700
P71	P7	0.885600	0.896800	0.412200
P81	P8	0.567300	0.854600	0.070700
O171	O17	0.680600	0.956800	0.069100
O181	O18	0.940900	0.097300	0.083000
O191	O19	0.899100	0.844800	0.275800
O201	O20	0.938200	0.786700	0.001100
O211	O21	0.570300	0.762000	0.954100
O221	O22	0.591600	0.630200	0.697800
O231	O23	0.436900	0.929400	0.061600
O241	O24	0.184500	0.074200	0.062400
O251	O25	0.763300	0.555300	0.543400
O261	O26	0.929400	0.039700	0.423400
O271	O27	0.967300	0.808900	0.503300
O281	O28	0.096000	0.229700	0.228100
O291	O29	0.565500	0.420000	0.565500
O301	O30	0.576400	0.769400	0.194300
O311	O31	0.739000	0.895300	0.447300
O321	O32	0.545200	0.643700	0.462800
