data_QODHUO02_freeONLY_PM
_symmetry_space_group_name_H-M	'P1'
_cell_length_a	21.930200
_cell_length_b	16.779500
_cell_length_c	25.488000
_cell_angle_alpha	90.000000
_cell_angle_beta	115.029000
_cell_angle_gamma	90.000000
_symmetry_Int_Tables_number 1

loop_
_symmetry_equiv_pos_as_xyz
'x,y,z'

loop_
_atom_site_label
_atom_site_type_symbol
_atom_site_fract_x
_atom_site_fract_y
_atom_site_fract_z
Ag11	Ag1	0.344230	0.455880	0.366310
Ag21	Ag2	0.321110	0.757730	0.865970
C11	C1	0.597600	0.971800	0.998600
C21	C2	0.032400	0.809100	0.408200
H11	H1	0.053700	0.787800	0.386700
C31	C3	0.776200	0.138700	0.007000
H21	H2	0.796900	0.134700	0.047200
C41	C4	0.059700	0.799500	0.467100
C51	C5	0.297300	0.583300	0.502900
H31	H3	0.319400	0.587300	0.543000
C61	C6	0.122800	0.755600	0.499300
C71	C7	0.503500	0.885700	0.993900
H41	H4	0.523200	0.884100	0.034100
C81	C8	0.532600	0.927900	0.964400
C91	C9	0.681500	0.052400	0.004400
C101	C10	0.209300	0.725100	0.585100
C111	C11	0.713700	0.101700	0.975000
C121	C12	0.719600	0.152500	0.889800
H51	H5	0.700300	0.156400	0.849700
C131	C13	0.443500	0.845000	0.962000
H61	H6	0.424100	0.816100	0.982200
C141	C14	0.711700	0.991700	0.150000
C151	C15	0.234800	0.620800	0.472000
C161	C16	0.235700	0.564500	0.386700
H71	H7	0.214700	0.558600	0.346700
C171	C17	0.242600	0.736300	0.648800
C181	C18	0.678700	0.955400	0.179200
H81	H8	0.634900	0.937100	0.158900
C191	C19	0.024900	0.834200	0.496600
H91	H9	0.041900	0.830800	0.536700
C201	C20	0.806300	0.181200	0.977600
H101	H10	0.847200	0.206300	0.998900
C211	C21	0.679400	0.002500	0.084800
C221	C22	0.204100	0.609300	0.413300
H111	H11	0.162000	0.631500	0.391400
C231	C23	0.204700	0.671200	0.502000
C241	C24	0.685500	0.110500	0.916200
H121	H12	0.643600	0.088400	0.893900
C251	C25	0.324900	0.540900	0.472500
H131	H13	0.367200	0.518700	0.492900
C261	C26	0.501100	0.928600	0.904500
H141	H14	0.518900	0.957900	0.883300
C271	C27	0.972500	0.851000	0.380900
H151	H15	0.954900	0.858300	0.341000
C281	C28	0.805900	0.004600	0.240300
H161	H16	0.849500	0.023100	0.261400
C291	C29	0.213500	0.786000	0.675600
H171	H17	0.173800	0.813100	0.654100
C301	C30	0.966800	0.872300	0.466000
H181	H18	0.944300	0.894500	0.486300
C311	C31	0.710700	0.946300	0.237900
H191	H19	0.687300	0.922900	0.256900
C321	C32	0.245200	0.793700	0.734600
H201	H20	0.226600	0.828400	0.752200
C331	C33	0.443100	0.885400	0.877000
H211	H21	0.423800	0.883800	0.836700
C341	C34	0.777400	0.015200	0.180800
H221	H22	0.802000	0.037400	0.162300
C351	C35	0.302000	0.699800	0.682000
H231	H23	0.324500	0.668800	0.665400
C361	C36	0.327800	0.710800	0.741800
H241	H24	0.367600	0.684500	0.764700
N11	N1	0.295100	0.529500	0.415800
N21	N2	0.939400	0.880700	0.409400
N31	N3	0.300400	0.755100	0.768000
N41	N4	0.236800	0.677300	0.560000
N51	N5	0.147600	0.709500	0.469700
N61	N6	0.152300	0.765500	0.556600
N71	N7	0.779200	0.187600	0.920100
N81	N8	0.412700	0.845300	0.904800
N91	N9	0.775100	0.969800	0.269500
N101	N10	0.624900	0.013500	0.970500
N111	N11	0.710700	0.049000	0.062500
N121	N12	0.622300	0.962300	0.056100
Ag31	Ag3	0.844230	0.955880	0.366310
Ag41	Ag4	0.821110	0.257730	0.865970
C371	C37	0.097600	0.471800	0.998600
C381	C38	0.532400	0.309100	0.408200
H251	H25	0.553700	0.287800	0.386700
C391	C39	0.276200	0.638700	0.007000
H261	H26	0.296900	0.634700	0.047200
C401	C40	0.559700	0.299500	0.467100
C411	C41	0.797300	0.083300	0.502900
H271	H27	0.819400	0.087300	0.543000
C421	C42	0.622800	0.255600	0.499300
C431	C43	0.003500	0.385700	0.993900
H281	H28	0.023200	0.384100	0.034100
C441	C44	0.032600	0.427900	0.964400
C451	C45	0.181500	0.552400	0.004400
C461	C46	0.709300	0.225100	0.585100
C471	C47	0.213700	0.601700	0.975000
C481	C48	0.219600	0.652500	0.889800
H291	H29	0.200300	0.656400	0.849700
C491	C49	0.943500	0.345000	0.962000
H301	H30	0.924100	0.316100	0.982200
C501	C50	0.211700	0.491700	0.150000
C511	C51	0.734800	0.120800	0.472000
C521	C52	0.735700	0.064500	0.386700
H311	H31	0.714700	0.058600	0.346700
C531	C53	0.742600	0.236300	0.648800
C541	C54	0.178700	0.455400	0.179200
H321	H32	0.134900	0.437100	0.158900
C551	C55	0.524900	0.334200	0.496600
H331	H33	0.541900	0.330800	0.536700
C561	C56	0.306300	0.681200	0.977600
H341	H34	0.347200	0.706300	0.998900
C571	C57	0.179400	0.502500	0.084800
C581	C58	0.704100	0.109300	0.413300
H351	H35	0.662000	0.131500	0.391400
C591	C59	0.704700	0.171200	0.502000
C601	C60	0.185500	0.610500	0.916200
H361	H36	0.143600	0.588400	0.893900
C611	C61	0.824900	0.040900	0.472500
H371	H37	0.867200	0.018700	0.492900
C621	C62	0.001100	0.428600	0.904500
H381	H38	0.018900	0.457900	0.883300
C631	C63	0.472500	0.351000	0.380900
H391	H39	0.454900	0.358300	0.341000
C641	C64	0.305900	0.504600	0.240300
H401	H40	0.349500	0.523100	0.261400
C651	C65	0.713500	0.286000	0.675600
H411	H41	0.673800	0.313100	0.654100
C661	C66	0.466800	0.372300	0.466000
H421	H42	0.444300	0.394500	0.486300
C671	C67	0.210700	0.446300	0.237900
H431	H43	0.187300	0.422900	0.256900
C681	C68	0.745200	0.293700	0.734600
H441	H44	0.726600	0.328400	0.752200
C691	C69	0.943100	0.385400	0.877000
H451	H45	0.923800	0.383800	0.836700
C701	C70	0.277400	0.515200	0.180800
H461	H46	0.302000	0.537400	0.162300
C711	C71	0.802000	0.199800	0.682000
H471	H47	0.824500	0.168800	0.665400
C721	C72	0.827800	0.210800	0.741800
H481	H48	0.867600	0.184500	0.764700
N131	N13	0.795100	0.029500	0.415800
N141	N14	0.439400	0.380700	0.409400
N151	N15	0.800400	0.255100	0.768000
N161	N16	0.736800	0.177300	0.560000
N171	N17	0.647600	0.209500	0.469700
N181	N18	0.652300	0.265500	0.556600
N191	N19	0.279200	0.687600	0.920100
N201	N20	0.912700	0.345300	0.904800
N211	N21	0.275100	0.469800	0.269500
N221	N22	0.124900	0.513500	0.970500
N231	N23	0.210700	0.549000	0.062500
N241	N24	0.122300	0.462300	0.056100
Ag51	Ag5	0.655770	0.455880	0.133690
Ag61	Ag6	0.678890	0.757730	0.634030
C731	C73	0.402400	0.971800	0.501400
C741	C74	0.967600	0.809100	0.091800
H491	H49	0.946300	0.787800	0.113300
C751	C75	0.223800	0.138700	0.493000
H501	H50	0.203100	0.134700	0.452800
C761	C76	0.940300	0.799500	0.032900
C771	C77	0.702700	0.583300	0.997100
H511	H51	0.680600	0.587300	0.957000
C781	C78	0.877200	0.755600	0.000700
C791	C79	0.496500	0.885700	0.506100
H521	H52	0.476800	0.884100	0.465900
C801	C80	0.467400	0.927900	0.535600
C811	C81	0.318500	0.052400	0.495600
C821	C82	0.790700	0.725100	0.914900
C831	C83	0.286300	0.101700	0.525000
C841	C84	0.280400	0.152500	0.610200
H531	H53	0.299700	0.156400	0.650300
C851	C85	0.556500	0.845000	0.538000
H541	H54	0.575900	0.816100	0.517800
C861	C86	0.288300	0.991700	0.350000
C871	C87	0.765200	0.620800	0.028000
C881	C88	0.764300	0.564500	0.113300
H551	H55	0.785300	0.558600	0.153300
C891	C89	0.757400	0.736300	0.851200
C901	C90	0.321300	0.955400	0.320800
H561	H56	0.365100	0.937100	0.341100
C911	C91	0.975100	0.834200	0.003400
H571	H57	0.958100	0.830800	0.963300
C921	C92	0.193700	0.181200	0.522400
H581	H58	0.152800	0.206300	0.501100
C931	C93	0.320600	0.002500	0.415200
C941	C94	0.795900	0.609300	0.086700
H591	H59	0.838000	0.631500	0.108600
C951	C95	0.795300	0.671200	0.998000
C961	C96	0.314500	0.110500	0.583800
H601	H60	0.356400	0.088400	0.606100
C971	C97	0.675100	0.540900	0.027500
H611	H61	0.632800	0.518700	0.007100
C981	C98	0.498900	0.928600	0.595500
H621	H62	0.481100	0.957900	0.616700
C991	C99	0.027500	0.851000	0.119100
H631	H63	0.045100	0.858300	0.159000
C1001	C100	0.194100	0.004600	0.259700
H641	H64	0.150500	0.023100	0.238600
C1011	C101	0.786500	0.786000	0.824400
H651	H65	0.826200	0.813100	0.845900
C1021	C102	0.033200	0.872300	0.034000
H661	H66	0.055700	0.894500	0.013700
C1031	C103	0.289300	0.946300	0.262100
H671	H67	0.312700	0.922900	0.243100
C1041	C104	0.754800	0.793700	0.765400
H681	H68	0.773400	0.828400	0.747800
C1051	C105	0.556900	0.885400	0.623000
H691	H69	0.576200	0.883800	0.663300
C1061	C106	0.222600	0.015200	0.319200
H701	H70	0.198000	0.037400	0.337700
C1071	C107	0.698000	0.699800	0.818000
H711	H71	0.675500	0.668800	0.834600
C1081	C108	0.672200	0.710800	0.758200
H721	H72	0.632400	0.684500	0.735300
N251	N25	0.704900	0.529500	0.084200
N261	N26	0.060600	0.880700	0.090600
N271	N27	0.699600	0.755100	0.732000
N281	N28	0.763200	0.677300	0.940000
N291	N29	0.852400	0.709500	0.030300
N301	N30	0.847700	0.765500	0.943400
N311	N31	0.220800	0.187600	0.579900
N321	N32	0.587300	0.845300	0.595200
N331	N33	0.224900	0.969800	0.230500
N341	N34	0.375100	0.013500	0.529500
N351	N35	0.289300	0.049000	0.437500
N361	N36	0.377700	0.962300	0.443900
Ag71	Ag7	0.155770	0.955880	0.133690
Ag81	Ag8	0.178890	0.257730	0.634030
C1091	C109	0.902400	0.471800	0.501400
C1101	C110	0.467600	0.309100	0.091800
H731	H73	0.446300	0.287800	0.113300
C1111	C111	0.723800	0.638700	0.493000
H741	H74	0.703100	0.634700	0.452800
C1121	C112	0.440300	0.299500	0.032900
C1131	C113	0.202700	0.083300	0.997100
H751	H75	0.180600	0.087300	0.957000
C1141	C114	0.377200	0.255600	0.000700
C1151	C115	0.996500	0.385700	0.506100
H761	H76	0.976800	0.384100	0.465900
C1161	C116	0.967400	0.427900	0.535600
C1171	C117	0.818500	0.552400	0.495600
C1181	C118	0.290700	0.225100	0.914900
C1191	C119	0.786300	0.601700	0.525000
C1201	C120	0.780400	0.652500	0.610200
H771	H77	0.799700	0.656400	0.650300
C1211	C121	0.056500	0.345000	0.538000
H781	H78	0.075900	0.316100	0.517800
C1221	C122	0.788300	0.491700	0.350000
C1231	C123	0.265200	0.120800	0.028000
C1241	C124	0.264300	0.064500	0.113300
H791	H79	0.285300	0.058600	0.153300
C1251	C125	0.257400	0.236300	0.851200
C1261	C126	0.821300	0.455400	0.320800
H801	H80	0.865100	0.437100	0.341100
C1271	C127	0.475100	0.334200	0.003400
H811	H81	0.458100	0.330800	0.963300
C1281	C128	0.693700	0.681200	0.522400
H821	H82	0.652800	0.706300	0.501100
C1291	C129	0.820600	0.502500	0.415200
C1301	C130	0.295900	0.109300	0.086700
H831	H83	0.338000	0.131500	0.108600
C1311	C131	0.295300	0.171200	0.998000
C1321	C132	0.814500	0.610500	0.583800
H841	H84	0.856400	0.588400	0.606100
C1331	C133	0.175100	0.040900	0.027500
H851	H85	0.132800	0.018700	0.007100
C1341	C134	0.998900	0.428600	0.595500
H861	H86	0.981100	0.457900	0.616700
C1351	C135	0.527500	0.351000	0.119100
H871	H87	0.545100	0.358300	0.159000
C1361	C136	0.694100	0.504600	0.259700
H881	H88	0.650500	0.523100	0.238600
C1371	C137	0.286500	0.286000	0.824400
H891	H89	0.326200	0.313100	0.845900
C1381	C138	0.533200	0.372300	0.034000
H901	H90	0.555700	0.394500	0.013700
C1391	C139	0.789300	0.446300	0.262100
H911	H91	0.812700	0.422900	0.243100
C1401	C140	0.254800	0.293700	0.765400
H921	H92	0.273400	0.328400	0.747800
C1411	C141	0.056900	0.385400	0.623000
H931	H93	0.076200	0.383800	0.663300
C1421	C142	0.722600	0.515200	0.319200
H941	H94	0.698000	0.537400	0.337700
C1431	C143	0.198000	0.199800	0.818000
H951	H95	0.175500	0.168800	0.834600
C1441	C144	0.172200	0.210800	0.758200
H961	H96	0.132400	0.184500	0.735300
N371	N37	0.204900	0.029500	0.084200
N381	N38	0.560600	0.380700	0.090600
N391	N39	0.199600	0.255100	0.732000
N401	N40	0.263200	0.177300	0.940000
N411	N41	0.352400	0.209500	0.030300
N421	N42	0.347700	0.265500	0.943400
N431	N43	0.720800	0.687600	0.579900
N441	N44	0.087300	0.345300	0.595200
N451	N45	0.724900	0.469800	0.230500
N461	N46	0.875100	0.513500	0.529500
N471	N47	0.789300	0.549000	0.437500
N481	N48	0.877700	0.462300	0.443900
Ag91	Ag9	0.655770	0.544120	0.633690
Ag101	Ag10	0.678890	0.242270	0.134030
C1451	C145	0.402400	0.028200	0.001400
C1461	C146	0.967600	0.190900	0.591800
H971	H97	0.946300	0.212200	0.613300
C1471	C147	0.223800	0.861300	0.993000
H981	H98	0.203100	0.865300	0.952800
C1481	C148	0.940300	0.200500	0.532900
C1491	C149	0.702700	0.416700	0.497100
H991	H99	0.680600	0.412700	0.457000
C1501	C150	0.877200	0.244400	0.500700
C1511	C151	0.496500	0.114300	0.006100
H1001	H100	0.476800	0.115900	0.965900
C1521	C152	0.467400	0.072100	0.035600
C1531	C153	0.318500	0.947600	0.995600
C1541	C154	0.790700	0.274900	0.414900
C1551	C155	0.286300	0.898300	0.025000
C1561	C156	0.280400	0.847500	0.110200
H1011	H101	0.299700	0.843600	0.150300
C1571	C157	0.556500	0.155000	0.038000
H1021	H102	0.575900	0.183900	0.017800
C1581	C158	0.288300	0.008300	0.850000
C1591	C159	0.765200	0.379200	0.528000
C1601	C160	0.764300	0.435500	0.613300
H1031	H103	0.785300	0.441400	0.653300
C1611	C161	0.757400	0.263700	0.351200
C1621	C162	0.321300	0.044600	0.820800
H1041	H104	0.365100	0.062900	0.841100
C1631	C163	0.975100	0.165800	0.503400
H1051	H105	0.958100	0.169200	0.463300
C1641	C164	0.193700	0.818800	0.022400
H1061	H106	0.152800	0.793700	0.001100
C1651	C165	0.320600	0.997500	0.915200
C1661	C166	0.795900	0.390700	0.586700
H1071	H107	0.838000	0.368500	0.608600
C1671	C167	0.795300	0.328800	0.498000
C1681	C168	0.314500	0.889500	0.083800
H1081	H108	0.356400	0.911600	0.106100
C1691	C169	0.675100	0.459100	0.527500
H1091	H109	0.632800	0.481300	0.507100
C1701	C170	0.498900	0.071400	0.095500
H1101	H110	0.481100	0.042100	0.116700
C1711	C171	0.027500	0.149000	0.619100
H1111	H111	0.045100	0.141700	0.659000
C1721	C172	0.194100	0.995400	0.759700
H1121	H112	0.150500	0.976900	0.738600
C1731	C173	0.786500	0.214000	0.324400
H1131	H113	0.826200	0.186900	0.345900
C1741	C174	0.033200	0.127700	0.534000
H1141	H114	0.055700	0.105500	0.513700
C1751	C175	0.289300	0.053700	0.762100
H1151	H115	0.312700	0.077100	0.743100
C1761	C176	0.754800	0.206300	0.265400
H1161	H116	0.773400	0.171600	0.247800
C1771	C177	0.556900	0.114600	0.123000
H1171	H117	0.576200	0.116200	0.163300
C1781	C178	0.222600	0.984800	0.819200
H1181	H118	0.198000	0.962600	0.837700
C1791	C179	0.698000	0.300200	0.318000
H1191	H119	0.675500	0.331200	0.334600
C1801	C180	0.672200	0.289200	0.258200
H1201	H120	0.632400	0.315500	0.235300
N491	N49	0.704900	0.470500	0.584200
N501	N50	0.060600	0.119300	0.590600
N511	N51	0.699600	0.244900	0.232000
N521	N52	0.763200	0.322700	0.440000
N531	N53	0.852400	0.290500	0.530300
N541	N54	0.847700	0.234500	0.443400
N551	N55	0.220800	0.812400	0.079900
N561	N56	0.587300	0.154700	0.095200
N571	N57	0.224900	0.030200	0.730500
N581	N58	0.375100	0.986500	0.029500
N591	N59	0.289300	0.951000	0.937500
N601	N60	0.377700	0.037700	0.943900
Ag111	Ag11	0.155770	0.044120	0.633690
Ag121	Ag12	0.178890	0.742270	0.134030
C1811	C181	0.902400	0.528200	0.001400
C1821	C182	0.467600	0.690900	0.591800
H1211	H121	0.446300	0.712200	0.613300
C1831	C183	0.723800	0.361300	0.993000
H1221	H122	0.703100	0.365300	0.952800
C1841	C184	0.440300	0.700500	0.532900
C1851	C185	0.202700	0.916700	0.497100
H1231	H123	0.180600	0.912700	0.457000
C1861	C186	0.377200	0.744400	0.500700
C1871	C187	0.996500	0.614300	0.006100
H1241	H124	0.976800	0.615900	0.965900
C1881	C188	0.967400	0.572100	0.035600
C1891	C189	0.818500	0.447600	0.995600
C1901	C190	0.290700	0.774900	0.414900
C1911	C191	0.786300	0.398300	0.025000
C1921	C192	0.780400	0.347500	0.110200
H1251	H125	0.799700	0.343600	0.150300
C1931	C193	0.056500	0.655000	0.038000
H1261	H126	0.075900	0.683900	0.017800
C1941	C194	0.788300	0.508300	0.850000
C1951	C195	0.265200	0.879200	0.528000
C1961	C196	0.264300	0.935500	0.613300
H1271	H127	0.285300	0.941400	0.653300
C1971	C197	0.257400	0.763700	0.351200
C1981	C198	0.821300	0.544600	0.820800
H1281	H128	0.865100	0.562900	0.841100
C1991	C199	0.475100	0.665800	0.503400
H1291	H129	0.458100	0.669200	0.463300
C2001	C200	0.693700	0.318800	0.022400
H1301	H130	0.652800	0.293700	0.001100
C2011	C201	0.820600	0.497500	0.915200
C2021	C202	0.295900	0.890700	0.586700
H1311	H131	0.338000	0.868500	0.608600
C2031	C203	0.295300	0.828800	0.498000
C2041	C204	0.814500	0.389500	0.083800
H1321	H132	0.856400	0.411600	0.106100
C2051	C205	0.175100	0.959100	0.527500
H1331	H133	0.132800	0.981300	0.507100
C2061	C206	0.998900	0.571400	0.095500
H1341	H134	0.981100	0.542100	0.116700
C2071	C207	0.527500	0.649000	0.619100
H1351	H135	0.545100	0.641700	0.659000
C2081	C208	0.694100	0.495400	0.759700
H1361	H136	0.650500	0.476900	0.738600
C2091	C209	0.286500	0.714000	0.324400
H1371	H137	0.326200	0.686900	0.345900
C2101	C210	0.533200	0.627700	0.534000
H1381	H138	0.555700	0.605500	0.513700
C2111	C211	0.789300	0.553700	0.762100
H1391	H139	0.812700	0.577100	0.743100
C2121	C212	0.254800	0.706300	0.265400
H1401	H140	0.273400	0.671600	0.247800
C2131	C213	0.056900	0.614600	0.123000
H1411	H141	0.076200	0.616200	0.163300
C2141	C214	0.722600	0.484800	0.819200
H1421	H142	0.698000	0.462600	0.837700
C2151	C215	0.198000	0.800200	0.318000
H1431	H143	0.175500	0.831200	0.334600
C2161	C216	0.172200	0.789200	0.258200
H1441	H144	0.132400	0.815500	0.235300
N611	N61	0.204900	0.970500	0.584200
N621	N62	0.560600	0.619300	0.590600
N631	N63	0.199600	0.744900	0.232000
N641	N64	0.263200	0.822700	0.440000
N651	N65	0.352400	0.790500	0.530300
N661	N66	0.347700	0.734500	0.443400
N671	N67	0.720800	0.312400	0.079900
N681	N68	0.087300	0.654700	0.095200
N691	N69	0.724900	0.530200	0.730500
N701	N70	0.875100	0.486500	0.029500
N711	N71	0.789300	0.451000	0.937500
N721	N72	0.877700	0.537700	0.943900
Ag131	Ag13	0.344230	0.544120	0.866310
Ag141	Ag14	0.321110	0.242270	0.365970
C2171	C217	0.597600	0.028200	0.498600
C2181	C218	0.032400	0.190900	0.908200
H1451	H145	0.053700	0.212200	0.886700
C2191	C219	0.776200	0.861300	0.507000
H1461	H146	0.796900	0.865300	0.547200
C2201	C220	0.059700	0.200500	0.967100
C2211	C221	0.297300	0.416700	0.002900
H1471	H147	0.319400	0.412700	0.043000
C2221	C222	0.122800	0.244400	0.999300
C2231	C223	0.503500	0.114300	0.493900
H1481	H148	0.523200	0.115900	0.534100
C2241	C224	0.532600	0.072100	0.464400
C2251	C225	0.681500	0.947600	0.504400
C2261	C226	0.209300	0.274900	0.085100
C2271	C227	0.713700	0.898300	0.475000
C2281	C228	0.719600	0.847500	0.389800
H1491	H149	0.700300	0.843600	0.349700
C2291	C229	0.443500	0.155000	0.462000
H1501	H150	0.424100	0.183900	0.482200
C2301	C230	0.711700	0.008300	0.650000
C2311	C231	0.234800	0.379200	0.972000
C2321	C232	0.235700	0.435500	0.886700
H1511	H151	0.214700	0.441400	0.846700
C2331	C233	0.242600	0.263700	0.148800
C2341	C234	0.678700	0.044600	0.679200
H1521	H152	0.634900	0.062900	0.658900
C2351	C235	0.024900	0.165800	0.996600
H1531	H153	0.041900	0.169200	0.036700
C2361	C236	0.806300	0.818800	0.477600
H1541	H154	0.847200	0.793700	0.498900
C2371	C237	0.679400	0.997500	0.584800
C2381	C238	0.204100	0.390700	0.913300
H1551	H155	0.162000	0.368500	0.891400
C2391	C239	0.204700	0.328800	0.002000
C2401	C240	0.685500	0.889500	0.416200
H1561	H156	0.643600	0.911600	0.393900
C2411	C241	0.324900	0.459100	0.972500
H1571	H157	0.367200	0.481300	0.992900
C2421	C242	0.501100	0.071400	0.404500
H1581	H158	0.518900	0.042100	0.383300
C2431	C243	0.972500	0.149000	0.880900
H1591	H159	0.954900	0.141700	0.841000
C2441	C244	0.805900	0.995400	0.740300
H1601	H160	0.849500	0.976900	0.761400
C2451	C245	0.213500	0.214000	0.175600
H1611	H161	0.173800	0.186900	0.154100
C2461	C246	0.966800	0.127700	0.966000
H1621	H162	0.944300	0.105500	0.986300
C2471	C247	0.710700	0.053700	0.737900
H1631	H163	0.687300	0.077100	0.756900
C2481	C248	0.245200	0.206300	0.234600
H1641	H164	0.226600	0.171600	0.252200
C2491	C249	0.443100	0.114600	0.377000
H1651	H165	0.423800	0.116200	0.336700
C2501	C250	0.777400	0.984800	0.680800
H1661	H166	0.802000	0.962600	0.662300
C2511	C251	0.302000	0.300200	0.182000
H1671	H167	0.324500	0.331200	0.165400
C2521	C252	0.327800	0.289200	0.241800
H1681	H168	0.367600	0.315500	0.264700
N731	N73	0.295100	0.470500	0.915800
N741	N74	0.939400	0.119300	0.909400
N751	N75	0.300400	0.244900	0.268000
N761	N76	0.236800	0.322700	0.060000
N771	N77	0.147600	0.290500	0.969700
N781	N78	0.152300	0.234500	0.056600
N791	N79	0.779200	0.812400	0.420100
N801	N80	0.412700	0.154700	0.404800
N811	N81	0.775100	0.030200	0.769500
N821	N82	0.624900	0.986500	0.470500
N831	N83	0.710700	0.951000	0.562500
N841	N84	0.622300	0.037700	0.556100
Ag151	Ag15	0.844230	0.044120	0.866310
Ag161	Ag16	0.821110	0.742270	0.365970
C2531	C253	0.097600	0.528200	0.498600
C2541	C254	0.532400	0.690900	0.908200
H1691	H169	0.553700	0.712200	0.886700
C2551	C255	0.276200	0.361300	0.507000
H1701	H170	0.296900	0.365300	0.547200
C2561	C256	0.559700	0.700500	0.967100
C2571	C257	0.797300	0.916700	0.002900
H1711	H171	0.819400	0.912700	0.043000
C2581	C258	0.622800	0.744400	0.999300
C2591	C259	0.003500	0.614300	0.493900
H1721	H172	0.023200	0.615900	0.534100
C2601	C260	0.032600	0.572100	0.464400
C2611	C261	0.181500	0.447600	0.504400
C2621	C262	0.709300	0.774900	0.085100
C2631	C263	0.213700	0.398300	0.475000
C2641	C264	0.219600	0.347500	0.389800
H1731	H173	0.200300	0.343600	0.349700
C2651	C265	0.943500	0.655000	0.462000
H1741	H174	0.924100	0.683900	0.482200
C2661	C266	0.211700	0.508300	0.650000
C2671	C267	0.734800	0.879200	0.972000
C2681	C268	0.735700	0.935500	0.886700
H1751	H175	0.714700	0.941400	0.846700
C2691	C269	0.742600	0.763700	0.148800
C2701	C270	0.178700	0.544600	0.679200
H1761	H176	0.134900	0.562900	0.658900
C2711	C271	0.524900	0.665800	0.996600
H1771	H177	0.541900	0.669200	0.036700
C2721	C272	0.306300	0.318800	0.477600
H1781	H178	0.347200	0.293700	0.498900
C2731	C273	0.179400	0.497500	0.584800
C2741	C274	0.704100	0.890700	0.913300
H1791	H179	0.662000	0.868500	0.891400
C2751	C275	0.704700	0.828800	0.002000
C2761	C276	0.185500	0.389500	0.416200
H1801	H180	0.143600	0.411600	0.393900
C2771	C277	0.824900	0.959100	0.972500
H1811	H181	0.867200	0.981300	0.992900
C2781	C278	0.001100	0.571400	0.404500
H1821	H182	0.018900	0.542100	0.383300
C2791	C279	0.472500	0.649000	0.880900
H1831	H183	0.454900	0.641700	0.841000
C2801	C280	0.305900	0.495400	0.740300
H1841	H184	0.349500	0.476900	0.761400
C2811	C281	0.713500	0.714000	0.175600
H1851	H185	0.673800	0.686900	0.154100
C2821	C282	0.466800	0.627700	0.966000
H1861	H186	0.444300	0.605500	0.986300
C2831	C283	0.210700	0.553700	0.737900
H1871	H187	0.187300	0.577100	0.756900
C2841	C284	0.745200	0.706300	0.234600
H1881	H188	0.726600	0.671600	0.252200
C2851	C285	0.943100	0.614600	0.377000
H1891	H189	0.923800	0.616200	0.336700
C2861	C286	0.277400	0.484800	0.680800
H1901	H190	0.302000	0.462600	0.662300
C2871	C287	0.802000	0.800200	0.182000
H1911	H191	0.824500	0.831200	0.165400
C2881	C288	0.827800	0.789200	0.241800
H1921	H192	0.867600	0.815500	0.264700
N851	N85	0.795100	0.970500	0.915800
N861	N86	0.439400	0.619300	0.909400
N871	N87	0.800400	0.744900	0.268000
N881	N88	0.736800	0.822700	0.060000
N891	N89	0.647600	0.790500	0.969700
N901	N90	0.652300	0.734500	0.056600
N911	N91	0.279200	0.312400	0.420100
N921	N92	0.912700	0.654700	0.404800
N931	N93	0.275100	0.530200	0.769500
N941	N94	0.124900	0.486500	0.470500
N951	N95	0.210700	0.451000	0.562500
N961	N96	0.122300	0.537700	0.556100
