data_QODHUO13_freeONLY_PM
_symmetry_space_group_name_H-M	'P1'
_cell_length_a	22.029000
_cell_length_b	16.486100
_cell_length_c	25.588700
_cell_angle_alpha	90.000000
_cell_angle_beta	115.233000
_cell_angle_gamma	90.000000
_symmetry_Int_Tables_number 1

loop_
_symmetry_equiv_pos_as_xyz
'x,y,z'

loop_
_atom_site_label
_atom_site_type_symbol
_atom_site_fract_x
_atom_site_fract_y
_atom_site_fract_z
Ag11	Ag1	0.344270	0.042570	0.367630
Ag21	Ag2	0.822660	0.246230	0.867050
C11	C1	0.097700	0.029300	0.000300
C21	C2	0.277500	0.861900	0.008700
H11	H1	0.298300	0.865400	0.048800
C31	C3	0.623700	0.243200	0.501500
C41	C4	0.559800	0.198300	0.469100
C51	C5	0.735500	0.435600	0.388200
H21	H2	0.713700	0.442700	0.348400
C61	C6	0.797800	0.416100	0.504700
H31	H3	0.820000	0.412100	0.544700
C71	C7	0.943900	0.156300	0.964200
H41	H4	0.923900	0.184300	0.984200
C81	C8	0.219900	0.847300	0.891700
H51	H5	0.199900	0.842500	0.851700
C91	C9	0.532900	0.188100	0.410300
H61	H6	0.554400	0.209100	0.388900
C101	C10	0.709800	0.273300	0.586800
C111	C11	0.003600	0.115800	0.995800
H71	H7	0.023200	0.117100	0.036000
C121	C12	0.743500	0.263300	0.650900
C131	C13	0.180200	0.997700	0.087400
C141	C14	0.182300	0.948200	0.006300
C151	C15	0.179300	0.043900	0.180700
H81	H8	0.135400	0.062000	0.160700
C161	C16	0.033400	0.073600	0.966100
C171	C17	0.526100	0.164500	0.499100
H91	H9	0.543500	0.168800	0.539100
C181	C18	0.735700	0.378900	0.474100
C191	C19	0.215100	0.898500	0.977000
C201	C20	0.703800	0.390200	0.414600
H101	H10	0.661800	0.367500	0.393000
C211	C21	0.705400	0.327800	0.504600
C221	C22	0.212300	0.007500	0.151400
C231	C23	0.186100	0.889700	0.918000
H111	H11	0.144200	0.912100	0.895800
C241	C24	0.825500	0.459200	0.473700
H121	H12	0.867600	0.482100	0.493900
C251	C25	0.473400	0.146300	0.383600
H131	H13	0.456100	0.138500	0.343900
C261	C26	0.307900	0.819800	0.978600
H141	H14	0.349400	0.795500	0.999500
C271	C27	0.467000	0.124700	0.468500
H151	H15	0.444800	0.102200	0.488900
C281	C28	0.002000	0.072500	0.906300
H161	H16	0.019500	0.042400	0.885300
C291	C29	0.307000	0.994700	0.241700
H171	H17	0.351200	0.977800	0.262600
C301	C30	0.802100	0.301500	0.684400
H181	H18	0.824000	0.333400	0.667800
C311	C31	0.944200	0.116900	0.878900
H191	H19	0.925300	0.119300	0.838800
C321	C32	0.745500	0.204900	0.736700
H201	H20	0.726500	0.170100	0.754300
C331	C33	0.211900	0.053300	0.239600
H211	H21	0.189000	0.077600	0.258700
C341	C34	0.278200	0.983200	0.182800
H221	H22	0.302400	0.959600	0.164600
C351	C35	0.715000	0.211400	0.677200
H231	H23	0.676500	0.182000	0.655300
C361	C36	0.828500	0.291900	0.744000
H241	H24	0.867900	0.319300	0.766600
N11	N1	0.439400	0.116400	0.411300
N21	N2	0.795400	0.469800	0.416600
N31	N3	0.800800	0.246000	0.770400
N41	N4	0.652900	0.232700	0.558500
N51	N5	0.737800	0.322400	0.562100
N61	N6	0.647900	0.289700	0.471900
N71	N7	0.913500	0.157100	0.906400
N81	N8	0.279700	0.813000	0.921200
N91	N9	0.275600	0.028800	0.271000
N101	N10	0.122700	0.037300	0.058000
N111	N11	0.126100	0.987700	0.972600
N121	N12	0.211400	0.950100	0.064100
Ag31	Ag3	0.844270	0.542570	0.367630
Ag41	Ag4	0.322660	0.746230	0.867050
C371	C37	0.597700	0.529300	0.000300
C381	C38	0.777500	0.361900	0.008700
H251	H25	0.798300	0.365400	0.048800
C391	C39	0.123700	0.743200	0.501500
C401	C40	0.059800	0.698300	0.469100
C411	C41	0.235500	0.935600	0.388200
H261	H26	0.213700	0.942700	0.348400
C421	C42	0.297800	0.916100	0.504700
H271	H27	0.320000	0.912100	0.544700
C431	C43	0.443900	0.656300	0.964200
H281	H28	0.423900	0.684300	0.984200
C441	C44	0.719900	0.347300	0.891700
H291	H29	0.699900	0.342500	0.851700
C451	C45	0.032900	0.688100	0.410300
H301	H30	0.054400	0.709100	0.388900
C461	C46	0.209800	0.773300	0.586800
C471	C47	0.503600	0.615800	0.995800
H311	H31	0.523200	0.617100	0.036000
C481	C48	0.243500	0.763300	0.650900
C491	C49	0.680200	0.497700	0.087400
C501	C50	0.682300	0.448200	0.006300
C511	C51	0.679300	0.543900	0.180700
H321	H32	0.635400	0.562000	0.160700
C521	C52	0.533400	0.573600	0.966100
C531	C53	0.026100	0.664500	0.499100
H331	H33	0.043500	0.668800	0.539100
C541	C54	0.235700	0.878900	0.474100
C551	C55	0.715100	0.398500	0.977000
C561	C56	0.203800	0.890200	0.414600
H341	H34	0.161800	0.867500	0.393000
C571	C57	0.205400	0.827800	0.504600
C581	C58	0.712300	0.507500	0.151400
C591	C59	0.686100	0.389700	0.918000
H351	H35	0.644200	0.412100	0.895800
C601	C60	0.325500	0.959200	0.473700
H361	H36	0.367600	0.982100	0.493900
C611	C61	0.973400	0.646300	0.383600
H371	H37	0.956100	0.638500	0.343900
C621	C62	0.807900	0.319800	0.978600
H381	H38	0.849400	0.295500	0.999500
C631	C63	0.967000	0.624700	0.468500
H391	H39	0.944800	0.602200	0.488900
C641	C64	0.502000	0.572500	0.906300
H401	H40	0.519500	0.542400	0.885300
C651	C65	0.807000	0.494700	0.241700
H411	H41	0.851200	0.477800	0.262600
C661	C66	0.302100	0.801500	0.684400
H421	H42	0.324000	0.833400	0.667800
C671	C67	0.444200	0.616900	0.878900
H431	H43	0.425300	0.619300	0.838800
C681	C68	0.245500	0.704900	0.736700
H441	H44	0.226500	0.670100	0.754300
C691	C69	0.711900	0.553300	0.239600
H451	H45	0.689000	0.577600	0.258700
C701	C70	0.778200	0.483200	0.182800
H461	H46	0.802400	0.459600	0.164600
C711	C71	0.215000	0.711400	0.677200
H471	H47	0.176500	0.682000	0.655300
C721	C72	0.328500	0.791900	0.744000
H481	H48	0.367900	0.819300	0.766600
N131	N13	0.939400	0.616400	0.411300
N141	N14	0.295400	0.969800	0.416600
N151	N15	0.300800	0.746000	0.770400
N161	N16	0.152900	0.732700	0.558500
N171	N17	0.237800	0.822400	0.562100
N181	N18	0.147900	0.789700	0.471900
N191	N19	0.413500	0.657100	0.906400
N201	N20	0.779700	0.313000	0.921200
N211	N21	0.775600	0.528800	0.271000
N221	N22	0.622700	0.537300	0.058000
N231	N23	0.626100	0.487700	0.972600
N241	N24	0.711400	0.450100	0.064100
Ag51	Ag5	0.655730	0.042570	0.132370
Ag61	Ag6	0.177340	0.246230	0.632950
C731	C73	0.902300	0.029300	0.499700
C741	C74	0.722500	0.861900	0.491300
H491	H49	0.701700	0.865400	0.451200
C751	C75	0.376300	0.243200	0.998500
C761	C76	0.440200	0.198300	0.030900
C771	C77	0.264500	0.435600	0.111800
H501	H50	0.286300	0.442700	0.151600
C781	C78	0.202200	0.416100	0.995300
H511	H51	0.180000	0.412100	0.955300
C791	C79	0.056100	0.156300	0.535800
H521	H52	0.076100	0.184300	0.515800
C801	C80	0.780100	0.847300	0.608300
H531	H53	0.800100	0.842500	0.648300
C811	C81	0.467100	0.188100	0.089700
H541	H54	0.445600	0.209100	0.111100
C821	C82	0.290200	0.273300	0.913200
C831	C83	0.996400	0.115800	0.504200
H551	H55	0.976800	0.117100	0.464000
C841	C84	0.256500	0.263300	0.849100
C851	C85	0.819800	0.997700	0.412600
C861	C86	0.817700	0.948200	0.493700
C871	C87	0.820700	0.043900	0.319300
H561	H56	0.864600	0.062000	0.339300
C881	C88	0.966600	0.073600	0.533900
C891	C89	0.473900	0.164500	0.000900
H571	H57	0.456500	0.168800	0.960900
C901	C90	0.264300	0.378900	0.025900
C911	C91	0.784900	0.898500	0.523000
C921	C92	0.296200	0.390200	0.085400
H581	H58	0.338200	0.367500	0.107000
C931	C93	0.294600	0.327800	0.995400
C941	C94	0.787700	0.007500	0.348600
C951	C95	0.813900	0.889700	0.582000
H591	H59	0.855800	0.912100	0.604200
C961	C96	0.174500	0.459200	0.026300
H601	H60	0.132400	0.482100	0.006100
C971	C97	0.526600	0.146300	0.116400
H611	H61	0.543900	0.138500	0.156100
C981	C98	0.692100	0.819800	0.521400
H621	H62	0.650600	0.795500	0.500500
C991	C99	0.533000	0.124700	0.031500
H631	H63	0.555200	0.102200	0.011100
C1001	C100	0.998000	0.072500	0.593700
H641	H64	0.980500	0.042400	0.614700
C1011	C101	0.693000	0.994700	0.258300
H651	H65	0.648800	0.977800	0.237400
C1021	C102	0.197900	0.301500	0.815600
H661	H66	0.176000	0.333400	0.832200
C1031	C103	0.055800	0.116900	0.621100
H671	H67	0.074700	0.119300	0.661200
C1041	C104	0.254500	0.204900	0.763300
H681	H68	0.273500	0.170100	0.745700
C1051	C105	0.788100	0.053300	0.260400
H691	H69	0.811000	0.077600	0.241300
C1061	C106	0.721800	0.983200	0.317200
H701	H70	0.697600	0.959600	0.335400
C1071	C107	0.285000	0.211400	0.822800
H711	H71	0.323500	0.182000	0.844700
C1081	C108	0.171500	0.291900	0.756000
H721	H72	0.132100	0.319300	0.733400
N251	N25	0.560600	0.116400	0.088700
N261	N26	0.204600	0.469800	0.083400
N271	N27	0.199200	0.246000	0.729600
N281	N28	0.347100	0.232700	0.941500
N291	N29	0.262200	0.322400	0.937900
N301	N30	0.352100	0.289700	0.028100
N311	N31	0.086500	0.157100	0.593600
N321	N32	0.720300	0.813000	0.578800
N331	N33	0.724400	0.028800	0.229000
N341	N34	0.877300	0.037300	0.442000
N351	N35	0.873900	0.987700	0.527400
N361	N36	0.788600	0.950100	0.435900
Ag71	Ag7	0.155730	0.542570	0.132370
Ag81	Ag8	0.677340	0.746230	0.632950
C1091	C109	0.402300	0.529300	0.499700
C1101	C110	0.222500	0.361900	0.491300
H731	H73	0.201700	0.365400	0.451200
C1111	C111	0.876300	0.743200	0.998500
C1121	C112	0.940200	0.698300	0.030900
C1131	C113	0.764500	0.935600	0.111800
H741	H74	0.786300	0.942700	0.151600
C1141	C114	0.702200	0.916100	0.995300
H751	H75	0.680000	0.912100	0.955300
C1151	C115	0.556100	0.656300	0.535800
H761	H76	0.576100	0.684300	0.515800
C1161	C116	0.280100	0.347300	0.608300
H771	H77	0.300100	0.342500	0.648300
C1171	C117	0.967100	0.688100	0.089700
H781	H78	0.945600	0.709100	0.111100
C1181	C118	0.790200	0.773300	0.913200
C1191	C119	0.496400	0.615800	0.504200
H791	H79	0.476800	0.617100	0.464000
C1201	C120	0.756500	0.763300	0.849100
C1211	C121	0.319800	0.497700	0.412600
C1221	C122	0.317700	0.448200	0.493700
C1231	C123	0.320700	0.543900	0.319300
H801	H80	0.364600	0.562000	0.339300
C1241	C124	0.466600	0.573600	0.533900
C1251	C125	0.973900	0.664500	0.000900
H811	H81	0.956500	0.668800	0.960900
C1261	C126	0.764300	0.878900	0.025900
C1271	C127	0.284900	0.398500	0.523000
C1281	C128	0.796200	0.890200	0.085400
H821	H82	0.838200	0.867500	0.107000
C1291	C129	0.794600	0.827800	0.995400
C1301	C130	0.287700	0.507500	0.348600
C1311	C131	0.313900	0.389700	0.582000
H831	H83	0.355800	0.412100	0.604200
C1321	C132	0.674500	0.959200	0.026300
H841	H84	0.632400	0.982100	0.006100
C1331	C133	0.026600	0.646300	0.116400
H851	H85	0.043900	0.638500	0.156100
C1341	C134	0.192100	0.319800	0.521400
H861	H86	0.150600	0.295500	0.500500
C1351	C135	0.033000	0.624700	0.031500
H871	H87	0.055200	0.602200	0.011100
C1361	C136	0.498000	0.572500	0.593700
H881	H88	0.480500	0.542400	0.614700
C1371	C137	0.193000	0.494700	0.258300
H891	H89	0.148800	0.477800	0.237400
C1381	C138	0.697900	0.801500	0.815600
H901	H90	0.676000	0.833400	0.832200
C1391	C139	0.555800	0.616900	0.621100
H911	H91	0.574700	0.619300	0.661200
C1401	C140	0.754500	0.704900	0.763300
H921	H92	0.773500	0.670100	0.745700
C1411	C141	0.288100	0.553300	0.260400
H931	H93	0.311000	0.577600	0.241300
C1421	C142	0.221800	0.483200	0.317200
H941	H94	0.197600	0.459600	0.335400
C1431	C143	0.785000	0.711400	0.822800
H951	H95	0.823500	0.682000	0.844700
C1441	C144	0.671500	0.791900	0.756000
H961	H96	0.632100	0.819300	0.733400
N371	N37	0.060600	0.616400	0.088700
N381	N38	0.704600	0.969800	0.083400
N391	N39	0.699200	0.746000	0.729600
N401	N40	0.847100	0.732700	0.941500
N411	N41	0.762200	0.822400	0.937900
N421	N42	0.852100	0.789700	0.028100
N431	N43	0.586500	0.657100	0.593600
N441	N44	0.220300	0.313000	0.578800
N451	N45	0.224400	0.528800	0.229000
N461	N46	0.377300	0.537300	0.442000
N471	N47	0.373900	0.487700	0.527400
N481	N48	0.288600	0.450100	0.435900
Ag91	Ag9	0.655730	0.957430	0.632370
Ag101	Ag10	0.177340	0.753770	0.132950
C1451	C145	0.902300	0.970700	0.999700
C1461	C146	0.722500	0.138100	0.991300
H971	H97	0.701700	0.134600	0.951200
C1471	C147	0.376300	0.756800	0.498500
C1481	C148	0.440200	0.801700	0.530900
C1491	C149	0.264500	0.564400	0.611800
H981	H98	0.286300	0.557300	0.651600
C1501	C150	0.202200	0.583900	0.495300
H991	H99	0.180000	0.587900	0.455300
C1511	C151	0.056100	0.843700	0.035800
H1001	H100	0.076100	0.815700	0.015800
C1521	C152	0.780100	0.152700	0.108300
H1011	H101	0.800100	0.157500	0.148300
C1531	C153	0.467100	0.811900	0.589700
H1021	H102	0.445600	0.790900	0.611100
C1541	C154	0.290200	0.726700	0.413200
C1551	C155	0.996400	0.884200	0.004200
H1031	H103	0.976800	0.882900	0.964000
C1561	C156	0.256500	0.736700	0.349100
C1571	C157	0.819800	0.002300	0.912600
C1581	C158	0.817700	0.051800	0.993700
C1591	C159	0.820700	0.956100	0.819300
H1041	H104	0.864600	0.938000	0.839300
C1601	C160	0.966600	0.926400	0.033900
C1611	C161	0.473900	0.835500	0.500900
H1051	H105	0.456500	0.831200	0.460900
C1621	C162	0.264300	0.621100	0.525900
C1631	C163	0.784900	0.101500	0.023000
C1641	C164	0.296200	0.609800	0.585400
H1061	H106	0.338200	0.632500	0.607000
C1651	C165	0.294600	0.672200	0.495400
C1661	C166	0.787700	0.992500	0.848600
C1671	C167	0.813900	0.110300	0.082000
H1071	H107	0.855800	0.087900	0.104200
C1681	C168	0.174500	0.540800	0.526300
H1081	H108	0.132400	0.517900	0.506100
C1691	C169	0.526600	0.853700	0.616400
H1091	H109	0.543900	0.861500	0.656100
C1701	C170	0.692100	0.180200	0.021400
H1101	H110	0.650600	0.204500	0.000500
C1711	C171	0.533000	0.875300	0.531500
H1111	H111	0.555200	0.897800	0.511100
C1721	C172	0.998000	0.927500	0.093700
H1121	H112	0.980500	0.957600	0.114700
C1731	C173	0.693000	0.005300	0.758300
H1131	H113	0.648800	0.022200	0.737400
C1741	C174	0.197900	0.698500	0.315600
H1141	H114	0.176000	0.666600	0.332200
C1751	C175	0.055800	0.883100	0.121100
H1151	H115	0.074700	0.880700	0.161200
C1761	C176	0.254500	0.795100	0.263300
H1161	H116	0.273500	0.829900	0.245700
C1771	C177	0.788100	0.946700	0.760400
H1171	H117	0.811000	0.922400	0.741300
C1781	C178	0.721800	0.016800	0.817200
H1181	H118	0.697600	0.040400	0.835400
C1791	C179	0.285000	0.788600	0.322800
H1191	H119	0.323500	0.818000	0.344700
C1801	C180	0.171500	0.708100	0.256000
H1201	H120	0.132100	0.680700	0.233400
N491	N49	0.560600	0.883600	0.588700
N501	N50	0.204600	0.530200	0.583400
N511	N51	0.199200	0.754000	0.229600
N521	N52	0.347100	0.767300	0.441500
N531	N53	0.262200	0.677600	0.437900
N541	N54	0.352100	0.710300	0.528100
N551	N55	0.086500	0.842900	0.093600
N561	N56	0.720300	0.187000	0.078800
N571	N57	0.724400	0.971200	0.729000
N581	N58	0.877300	0.962700	0.942000
N591	N59	0.873900	0.012300	0.027400
N601	N60	0.788600	0.049900	0.935900
Ag111	Ag11	0.155730	0.457430	0.632370
Ag121	Ag12	0.677340	0.253770	0.132950
C1811	C181	0.402300	0.470700	0.999700
C1821	C182	0.222500	0.638100	0.991300
H1211	H121	0.201700	0.634600	0.951200
C1831	C183	0.876300	0.256800	0.498500
C1841	C184	0.940200	0.301700	0.530900
C1851	C185	0.764500	0.064400	0.611800
H1221	H122	0.786300	0.057300	0.651600
C1861	C186	0.702200	0.083900	0.495300
H1231	H123	0.680000	0.087900	0.455300
C1871	C187	0.556100	0.343700	0.035800
H1241	H124	0.576100	0.315700	0.015800
C1881	C188	0.280100	0.652700	0.108300
H1251	H125	0.300100	0.657500	0.148300
C1891	C189	0.967100	0.311900	0.589700
H1261	H126	0.945600	0.290900	0.611100
C1901	C190	0.790200	0.226700	0.413200
C1911	C191	0.496400	0.384200	0.004200
H1271	H127	0.476800	0.382900	0.964000
C1921	C192	0.756500	0.236700	0.349100
C1931	C193	0.319800	0.502300	0.912600
C1941	C194	0.317700	0.551800	0.993700
C1951	C195	0.320700	0.456100	0.819300
H1281	H128	0.364600	0.438000	0.839300
C1961	C196	0.466600	0.426400	0.033900
C1971	C197	0.973900	0.335500	0.500900
H1291	H129	0.956500	0.331200	0.460900
C1981	C198	0.764300	0.121100	0.525900
C1991	C199	0.284900	0.601500	0.023000
C2001	C200	0.796200	0.109800	0.585400
H1301	H130	0.838200	0.132500	0.607000
C2011	C201	0.794600	0.172200	0.495400
C2021	C202	0.287700	0.492500	0.848600
C2031	C203	0.313900	0.610300	0.082000
H1311	H131	0.355800	0.587900	0.104200
C2041	C204	0.674500	0.040800	0.526300
H1321	H132	0.632400	0.017900	0.506100
C2051	C205	0.026600	0.353700	0.616400
H1331	H133	0.043900	0.361500	0.656100
C2061	C206	0.192100	0.680200	0.021400
H1341	H134	0.150600	0.704500	0.000500
C2071	C207	0.033000	0.375300	0.531500
H1351	H135	0.055200	0.397800	0.511100
C2081	C208	0.498000	0.427500	0.093700
H1361	H136	0.480500	0.457600	0.114700
C2091	C209	0.193000	0.505300	0.758300
H1371	H137	0.148800	0.522200	0.737400
C2101	C210	0.697900	0.198500	0.315600
H1381	H138	0.676000	0.166600	0.332200
C2111	C211	0.555800	0.383100	0.121100
H1391	H139	0.574700	0.380700	0.161200
C2121	C212	0.754500	0.295100	0.263300
H1401	H140	0.773500	0.329900	0.245700
C2131	C213	0.288100	0.446700	0.760400
H1411	H141	0.311000	0.422400	0.741300
C2141	C214	0.221800	0.516800	0.817200
H1421	H142	0.197600	0.540400	0.835400
C2151	C215	0.785000	0.288600	0.322800
H1431	H143	0.823500	0.318000	0.344700
C2161	C216	0.671500	0.208100	0.256000
H1441	H144	0.632100	0.180700	0.233400
N611	N61	0.060600	0.383600	0.588700
N621	N62	0.704600	0.030200	0.583400
N631	N63	0.699200	0.254000	0.229600
N641	N64	0.847100	0.267300	0.441500
N651	N65	0.762200	0.177600	0.437900
N661	N66	0.852100	0.210300	0.528100
N671	N67	0.586500	0.342900	0.093600
N681	N68	0.220300	0.687000	0.078800
N691	N69	0.224400	0.471200	0.729000
N701	N70	0.377300	0.462700	0.942000
N711	N71	0.373900	0.512300	0.027400
N721	N72	0.288600	0.549900	0.935900
Ag131	Ag13	0.344270	0.957430	0.867630
Ag141	Ag14	0.822660	0.753770	0.367050
C2171	C217	0.097700	0.970700	0.500300
C2181	C218	0.277500	0.138100	0.508700
H1451	H145	0.298300	0.134600	0.548800
C2191	C219	0.623700	0.756800	0.001500
C2201	C220	0.559800	0.801700	0.969100
C2211	C221	0.735500	0.564400	0.888200
H1461	H146	0.713700	0.557300	0.848400
C2221	C222	0.797800	0.583900	0.004700
H1471	H147	0.820000	0.587900	0.044700
C2231	C223	0.943900	0.843700	0.464200
H1481	H148	0.923900	0.815700	0.484200
C2241	C224	0.219900	0.152700	0.391700
H1491	H149	0.199900	0.157500	0.351700
C2251	C225	0.532900	0.811900	0.910300
H1501	H150	0.554400	0.790900	0.888900
C2261	C226	0.709800	0.726700	0.086800
C2271	C227	0.003600	0.884200	0.495800
H1511	H151	0.023200	0.882900	0.536000
C2281	C228	0.743500	0.736700	0.150900
C2291	C229	0.180200	0.002300	0.587400
C2301	C230	0.182300	0.051800	0.506300
C2311	C231	0.179300	0.956100	0.680700
H1521	H152	0.135400	0.938000	0.660700
C2321	C232	0.033400	0.926400	0.466100
C2331	C233	0.526100	0.835500	0.999100
H1531	H153	0.543500	0.831200	0.039100
C2341	C234	0.735700	0.621100	0.974100
C2351	C235	0.215100	0.101500	0.477000
C2361	C236	0.703800	0.609800	0.914600
H1541	H154	0.661800	0.632500	0.893000
C2371	C237	0.705400	0.672200	0.004600
C2381	C238	0.212300	0.992500	0.651400
C2391	C239	0.186100	0.110300	0.418000
H1551	H155	0.144200	0.087900	0.395800
C2401	C240	0.825500	0.540800	0.973700
H1561	H156	0.867600	0.517900	0.993900
C2411	C241	0.473400	0.853700	0.883600
H1571	H157	0.456100	0.861500	0.843900
C2421	C242	0.307900	0.180200	0.478600
H1581	H158	0.349400	0.204500	0.499500
C2431	C243	0.467000	0.875300	0.968500
H1591	H159	0.444800	0.897800	0.988900
C2441	C244	0.002000	0.927500	0.406300
H1601	H160	0.019500	0.957600	0.385300
C2451	C245	0.307000	0.005300	0.741700
H1611	H161	0.351200	0.022200	0.762600
C2461	C246	0.802100	0.698500	0.184400
H1621	H162	0.824000	0.666600	0.167800
C2471	C247	0.944200	0.883100	0.378900
H1631	H163	0.925300	0.880700	0.338800
C2481	C248	0.745500	0.795100	0.236700
H1641	H164	0.726500	0.829900	0.254300
C2491	C249	0.211900	0.946700	0.739600
H1651	H165	0.189000	0.922400	0.758700
C2501	C250	0.278200	0.016800	0.682800
H1661	H166	0.302400	0.040400	0.664600
C2511	C251	0.715000	0.788600	0.177200
H1671	H167	0.676500	0.818000	0.155300
C2521	C252	0.828500	0.708100	0.244000
H1681	H168	0.867900	0.680700	0.266600
N731	N73	0.439400	0.883600	0.911300
N741	N74	0.795400	0.530200	0.916600
N751	N75	0.800800	0.754000	0.270400
N761	N76	0.652900	0.767300	0.058500
N771	N77	0.737800	0.677600	0.062100
N781	N78	0.647900	0.710300	0.971900
N791	N79	0.913500	0.842900	0.406400
N801	N80	0.279700	0.187000	0.421200
N811	N81	0.275600	0.971200	0.771000
N821	N82	0.122700	0.962700	0.558000
N831	N83	0.126100	0.012300	0.472600
N841	N84	0.211400	0.049900	0.564100
Ag151	Ag15	0.844270	0.457430	0.867630
Ag161	Ag16	0.322660	0.253770	0.367050
C2531	C253	0.597700	0.470700	0.500300
C2541	C254	0.777500	0.638100	0.508700
H1691	H169	0.798300	0.634600	0.548800
C2551	C255	0.123700	0.256800	0.001500
C2561	C256	0.059800	0.301700	0.969100
C2571	C257	0.235500	0.064400	0.888200
H1701	H170	0.213700	0.057300	0.848400
C2581	C258	0.297800	0.083900	0.004700
H1711	H171	0.320000	0.087900	0.044700
C2591	C259	0.443900	0.343700	0.464200
H1721	H172	0.423900	0.315700	0.484200
C2601	C260	0.719900	0.652700	0.391700
H1731	H173	0.699900	0.657500	0.351700
C2611	C261	0.032900	0.311900	0.910300
H1741	H174	0.054400	0.290900	0.888900
C2621	C262	0.209800	0.226700	0.086800
C2631	C263	0.503600	0.384200	0.495800
H1751	H175	0.523200	0.382900	0.536000
C2641	C264	0.243500	0.236700	0.150900
C2651	C265	0.680200	0.502300	0.587400
C2661	C266	0.682300	0.551800	0.506300
C2671	C267	0.679300	0.456100	0.680700
H1761	H176	0.635400	0.438000	0.660700
C2681	C268	0.533400	0.426400	0.466100
C2691	C269	0.026100	0.335500	0.999100
H1771	H177	0.043500	0.331200	0.039100
C2701	C270	0.235700	0.121100	0.974100
C2711	C271	0.715100	0.601500	0.477000
C2721	C272	0.203800	0.109800	0.914600
H1781	H178	0.161800	0.132500	0.893000
C2731	C273	0.205400	0.172200	0.004600
C2741	C274	0.712300	0.492500	0.651400
C2751	C275	0.686100	0.610300	0.418000
H1791	H179	0.644200	0.587900	0.395800
C2761	C276	0.325500	0.040800	0.973700
H1801	H180	0.367600	0.017900	0.993900
C2771	C277	0.973400	0.353700	0.883600
H1811	H181	0.956100	0.361500	0.843900
C2781	C278	0.807900	0.680200	0.478600
H1821	H182	0.849400	0.704500	0.499500
C2791	C279	0.967000	0.375300	0.968500
H1831	H183	0.944800	0.397800	0.988900
C2801	C280	0.502000	0.427500	0.406300
H1841	H184	0.519500	0.457600	0.385300
C2811	C281	0.807000	0.505300	0.741700
H1851	H185	0.851200	0.522200	0.762600
C2821	C282	0.302100	0.198500	0.184400
H1861	H186	0.324000	0.166600	0.167800
C2831	C283	0.444200	0.383100	0.378900
H1871	H187	0.425300	0.380700	0.338800
C2841	C284	0.245500	0.295100	0.236700
H1881	H188	0.226500	0.329900	0.254300
C2851	C285	0.711900	0.446700	0.739600
H1891	H189	0.689000	0.422400	0.758700
C2861	C286	0.778200	0.516800	0.682800
H1901	H190	0.802400	0.540400	0.664600
C2871	C287	0.215000	0.288600	0.177200
H1911	H191	0.176500	0.318000	0.155300
C2881	C288	0.328500	0.208100	0.244000
H1921	H192	0.367900	0.180700	0.266600
N851	N85	0.939400	0.383600	0.911300
N861	N86	0.295400	0.030200	0.916600
N871	N87	0.300800	0.254000	0.270400
N881	N88	0.152900	0.267300	0.058500
N891	N89	0.237800	0.177600	0.062100
N901	N90	0.147900	0.210300	0.971900
N911	N91	0.413500	0.342900	0.406400
N921	N92	0.779700	0.687000	0.421200
N931	N93	0.775600	0.471200	0.771000
N941	N94	0.622700	0.462700	0.558000
N951	N95	0.626100	0.512300	0.472600
N961	N96	0.711400	0.549900	0.564100
