data_QODHUO10_freeONLY_PM
_symmetry_space_group_name_H-M	'P1'
_cell_length_a	22.093500
_cell_length_b	16.289700
_cell_length_c	25.630600
_cell_angle_alpha	90.000000
_cell_angle_beta	115.277000
_cell_angle_gamma	90.000000
_symmetry_Int_Tables_number 1

loop_
_symmetry_equiv_pos_as_xyz
'x,y,z'

loop_
_atom_site_label
_atom_site_type_symbol
_atom_site_fract_x
_atom_site_fract_y
_atom_site_fract_z
Ag11	Ag1	0.343890	0.542960	0.367750
Ag21	Ag2	0.822890	0.748130	0.867210
N11	N1	0.738400	0.822400	0.563210
N21	N2	0.279900	0.313100	0.921280
N31	N3	0.122600	0.537100	0.058820
N41	N4	0.439200	0.615800	0.412210
N51	N5	0.913200	0.657800	0.907410
C11	C1	0.623700	0.742800	0.502400
N61	N6	0.126300	0.488900	0.973220
N71	N7	0.648100	0.789800	0.472810
C21	C2	0.735100	0.935100	0.388100
H11	H1	0.713100	0.942200	0.348400
N81	N8	0.795800	0.969600	0.416680
N91	N9	0.211500	0.450100	0.064770
N101	N10	0.800400	0.746700	0.771300
C31	C3	0.278000	0.362300	0.009200
H21	H2	0.298900	0.366000	0.049200
C41	C4	0.798400	0.915800	0.505000
H31	H3	0.820800	0.911300	0.544900
C51	C5	0.219500	0.348300	0.891900
H41	H4	0.199500	0.344100	0.851900
C61	C6	0.559800	0.697800	0.470200
N111	N11	0.275800	0.529200	0.271800
C71	C7	0.097600	0.530400	0.001100
N121	N12	0.653000	0.732000	0.559320
C81	C8	0.943600	0.657000	0.965100
H51	H5	0.923600	0.685300	0.985200
C91	C9	0.532900	0.688000	0.411000
H61	H6	0.554500	0.709500	0.389800
C101	C10	0.003100	0.616200	0.996400
H71	H7	0.022500	0.617100	0.036500
C111	C11	0.743400	0.762800	0.651700
C121	C12	0.180400	0.497800	0.088300
C131	C13	0.178900	0.543800	0.181600
H81	H8	0.134800	0.561200	0.161800
C141	C14	0.526000	0.664900	0.500200
H91	H9	0.543300	0.669700	0.540100
C151	C15	0.215500	0.398700	0.977700
C161	C16	0.826200	0.959100	0.474100
H101	H10	0.868300	0.982200	0.494300
C171	C17	0.709500	0.773300	0.587600
C181	C18	0.033100	0.573900	0.967000
C191	C19	0.307800	0.320400	0.979200
H111	H11	0.349300	0.296000	0.000200
C201	C20	0.736200	0.879100	0.474900
C211	C21	0.943300	0.616600	0.879400
H121	H12	0.923500	0.617600	0.839300
C221	C22	0.705600	0.827800	0.505200
C231	C23	0.307800	0.495100	0.242900
H131	H13	0.352000	0.478600	0.263700
C241	C24	0.182800	0.448500	0.006900
C251	C25	0.185600	0.390500	0.918400
H141	H14	0.143600	0.412900	0.896600
C261	C26	0.703900	0.889600	0.415200
H151	H15	0.662100	0.866200	0.393900
C271	C27	0.473100	0.645600	0.384000
H161	H16	0.455800	0.637500	0.344300
C281	C28	0.466500	0.625000	0.469700
H171	H17	0.443900	0.603200	0.489900
C291	C29	0.828500	0.793300	0.744800
H181	H18	0.867800	0.821000	0.767500
C301	C30	0.212200	0.507900	0.152000
C311	C31	0.002300	0.572900	0.907300
H191	H19	0.020600	0.543600	0.886400
C321	C32	0.802200	0.802800	0.685200
H201	H20	0.823800	0.835200	0.668500
C331	C33	0.212200	0.553200	0.240600
H211	H21	0.189400	0.577500	0.259900
C341	C34	0.715200	0.710600	0.678200
H221	H22	0.677100	0.680200	0.656400
C351	C35	0.278300	0.483300	0.183400
H231	H23	0.302200	0.459500	0.165000
C361	C36	0.744900	0.705000	0.737400
H241	H24	0.725600	0.670500	0.755000
Ag31	Ag3	0.843890	0.042960	0.367750
Ag41	Ag4	0.322890	0.248130	0.867220
N131	N13	0.238400	0.322400	0.563210
N141	N14	0.779900	0.813100	0.921280
N151	N15	0.622600	0.037100	0.058820
N161	N16	0.939200	0.115800	0.412210
N171	N17	0.413200	0.157800	0.907410
C371	C37	0.123700	0.242800	0.502400
N181	N18	0.626300	0.988900	0.973220
N191	N19	0.148100	0.289800	0.472810
C381	C38	0.235100	0.435100	0.388100
H251	H25	0.213100	0.442200	0.348400
N201	N20	0.295800	0.469600	0.416680
N211	N21	0.711500	0.950100	0.064770
N221	N22	0.300400	0.246700	0.771300
C391	C39	0.778000	0.862300	0.009200
H261	H26	0.798900	0.866000	0.049200
C401	C40	0.298400	0.415800	0.505000
H271	H27	0.320800	0.411300	0.544900
C411	C41	0.719500	0.848300	0.891900
H281	H28	0.699500	0.844100	0.851900
C421	C42	0.059800	0.197800	0.470200
N231	N23	0.775800	0.029200	0.271800
C431	C43	0.597600	0.030400	0.001100
N241	N24	0.153000	0.232000	0.559320
C441	C44	0.443600	0.157000	0.965100
H291	H29	0.423600	0.185300	0.985200
C451	C45	0.032900	0.188000	0.411000
H301	H30	0.054500	0.209500	0.389800
C461	C46	0.503100	0.116200	0.996400
H311	H31	0.522500	0.117100	0.036500
C471	C47	0.243400	0.262800	0.651700
C481	C48	0.680400	0.997800	0.088300
C491	C49	0.678900	0.043800	0.181600
H321	H32	0.634800	0.061200	0.161800
C501	C50	0.026000	0.164900	0.500200
H331	H33	0.043300	0.169700	0.540100
C511	C51	0.715500	0.898700	0.977700
C521	C52	0.326200	0.459100	0.474100
H341	H34	0.368300	0.482200	0.494300
C531	C53	0.209500	0.273300	0.587600
C541	C54	0.533100	0.073900	0.967000
C551	C55	0.807800	0.820400	0.979200
H351	H35	0.849300	0.796000	0.000200
C561	C56	0.236200	0.379100	0.474900
C571	C57	0.443300	0.116600	0.879400
H361	H36	0.423500	0.117600	0.839300
C581	C58	0.205600	0.327800	0.505200
C591	C59	0.807800	0.995100	0.242900
H371	H37	0.852000	0.978600	0.263700
C601	C60	0.682800	0.948500	0.006900
C611	C61	0.685600	0.890500	0.918400
H381	H38	0.643600	0.912900	0.896600
C621	C62	0.203900	0.389600	0.415200
H391	H39	0.162100	0.366200	0.393900
C631	C63	0.973100	0.145600	0.384000
H401	H40	0.955800	0.137500	0.344300
C641	C64	0.966500	0.125000	0.469700
H411	H41	0.943900	0.103200	0.489900
C651	C65	0.328500	0.293300	0.744800
H421	H42	0.367800	0.321000	0.767500
C661	C66	0.712200	0.007900	0.152000
C671	C67	0.502300	0.072900	0.907300
H431	H43	0.520600	0.043600	0.886400
C681	C68	0.302200	0.302800	0.685200
H441	H44	0.323800	0.335200	0.668500
C691	C69	0.712200	0.053200	0.240600
H451	H45	0.689400	0.077500	0.259900
C701	C70	0.215200	0.210600	0.678200
H461	H46	0.177100	0.180200	0.656400
C711	C71	0.778300	0.983300	0.183400
H471	H47	0.802200	0.959500	0.165000
C721	C72	0.244900	0.205000	0.737400
H481	H48	0.225600	0.170500	0.755000
Ag51	Ag5	0.656110	0.542960	0.132250
Ag61	Ag6	0.177110	0.748130	0.632780
N251	N25	0.261600	0.822400	0.936790
N261	N26	0.720100	0.313100	0.578720
N271	N27	0.877400	0.537100	0.441180
N281	N28	0.560800	0.615800	0.087790
N291	N29	0.086800	0.657800	0.592590
C731	C73	0.376300	0.742800	0.997600
N301	N30	0.873700	0.488900	0.526780
N311	N31	0.351900	0.789800	0.027190
C741	C74	0.264900	0.935100	0.111900
H491	H49	0.286900	0.942200	0.151600
N321	N32	0.204200	0.969600	0.083320
N331	N33	0.788500	0.450100	0.435230
N341	N34	0.199600	0.746700	0.728700
C751	C75	0.722000	0.362300	0.490800
H501	H50	0.701100	0.366000	0.450800
C761	C76	0.201600	0.915800	0.995000
H511	H51	0.179200	0.911300	0.955100
C771	C77	0.780500	0.348300	0.608100
H521	H52	0.800500	0.344100	0.648100
C781	C78	0.440200	0.697800	0.029800
N351	N35	0.724200	0.529200	0.228200
C791	C79	0.902400	0.530400	0.498900
N361	N36	0.347000	0.732000	0.940680
C801	C80	0.056400	0.657000	0.534900
H531	H53	0.076400	0.685300	0.514800
C811	C81	0.467100	0.688000	0.089000
H541	H54	0.445500	0.709500	0.110200
C821	C82	0.996900	0.616200	0.503600
H551	H55	0.977500	0.617100	0.463500
C831	C83	0.256600	0.762800	0.848300
C841	C84	0.819600	0.497800	0.411700
C851	C85	0.821100	0.543800	0.318400
H561	H56	0.865200	0.561200	0.338200
C861	C86	0.474000	0.664900	0.999800
H571	H57	0.456700	0.669700	0.959900
C871	C87	0.784500	0.398700	0.522300
C881	C88	0.173800	0.959100	0.025900
H581	H58	0.131700	0.982200	0.005700
C891	C89	0.290500	0.773300	0.912400
C901	C90	0.966900	0.573900	0.533000
C911	C91	0.692200	0.320400	0.520800
H591	H59	0.650700	0.296000	0.499800
C921	C92	0.263800	0.879100	0.025100
C931	C93	0.056700	0.616600	0.620600
H601	H60	0.076500	0.617600	0.660700
C941	C94	0.294400	0.827800	0.994800
C951	C95	0.692200	0.495100	0.257100
H611	H61	0.648000	0.478600	0.236300
C961	C96	0.817200	0.448500	0.493100
C971	C97	0.814400	0.390500	0.581600
H621	H62	0.856400	0.412900	0.603400
C981	C98	0.296100	0.889600	0.084800
H631	H63	0.337900	0.866200	0.106100
C991	C99	0.526900	0.645600	0.116000
H641	H64	0.544200	0.637500	0.155700
C1001	C100	0.533500	0.625000	0.030300
H651	H65	0.556100	0.603200	0.010100
C1011	C101	0.171500	0.793300	0.755200
H661	H66	0.132200	0.821000	0.732500
C1021	C102	0.787800	0.507900	0.348000
C1031	C103	0.997700	0.572900	0.592700
H671	H67	0.979400	0.543600	0.613600
C1041	C104	0.197800	0.802800	0.814800
H681	H68	0.176200	0.835200	0.831500
C1051	C105	0.787800	0.553200	0.259400
H691	H69	0.810600	0.577500	0.240100
C1061	C106	0.284800	0.710600	0.821800
H701	H70	0.322900	0.680200	0.843600
C1071	C107	0.721700	0.483300	0.316600
H711	H71	0.697800	0.459500	0.335000
C1081	C108	0.255100	0.705000	0.762600
H721	H72	0.274400	0.670500	0.745000
Ag71	Ag7	0.156110	0.042960	0.132250
Ag81	Ag8	0.677110	0.248130	0.632780
N371	N37	0.761600	0.322400	0.936790
N381	N38	0.220100	0.813100	0.578720
N391	N39	0.377400	0.037100	0.441180
N401	N40	0.060800	0.115800	0.087790
N411	N41	0.586800	0.157800	0.592590
C1091	C109	0.876300	0.242800	0.997600
N421	N42	0.373700	0.988900	0.526780
N431	N43	0.851900	0.289800	0.027190
C1101	C110	0.764900	0.435100	0.111900
H731	H73	0.786900	0.442200	0.151600
N441	N44	0.704200	0.469600	0.083320
N451	N45	0.288500	0.950100	0.435230
N461	N46	0.699600	0.246700	0.728700
C1111	C111	0.222000	0.862300	0.490800
H741	H74	0.201100	0.866000	0.450800
C1121	C112	0.701600	0.415800	0.995000
H751	H75	0.679200	0.411300	0.955100
C1131	C113	0.280500	0.848300	0.608100
H761	H76	0.300500	0.844100	0.648100
C1141	C114	0.940200	0.197800	0.029800
N471	N47	0.224200	0.029200	0.228200
C1151	C115	0.402400	0.030400	0.498900
N481	N48	0.847000	0.232000	0.940680
C1161	C116	0.556400	0.157000	0.534900
H771	H77	0.576400	0.185300	0.514800
C1171	C117	0.967100	0.188000	0.089000
H781	H78	0.945500	0.209500	0.110200
C1181	C118	0.496900	0.116200	0.503600
H791	H79	0.477500	0.117100	0.463500
C1191	C119	0.756600	0.262800	0.848300
C1201	C120	0.319600	0.997800	0.411700
C1211	C121	0.321100	0.043800	0.318400
H801	H80	0.365200	0.061200	0.338200
C1221	C122	0.974000	0.164900	0.999800
H811	H81	0.956700	0.169700	0.959900
C1231	C123	0.284500	0.898700	0.522300
C1241	C124	0.673800	0.459100	0.025900
H821	H82	0.631700	0.482200	0.005700
C1251	C125	0.790500	0.273300	0.912400
C1261	C126	0.466900	0.073900	0.533000
C1271	C127	0.192200	0.820400	0.520800
H831	H83	0.150700	0.796000	0.499800
C1281	C128	0.763800	0.379100	0.025100
C1291	C129	0.556700	0.116600	0.620600
H841	H84	0.576500	0.117600	0.660700
C1301	C130	0.794400	0.327800	0.994800
C1311	C131	0.192200	0.995100	0.257100
H851	H85	0.148000	0.978600	0.236300
C1321	C132	0.317200	0.948500	0.493100
C1331	C133	0.314400	0.890500	0.581600
H861	H86	0.356400	0.912900	0.603400
C1341	C134	0.796100	0.389600	0.084800
H871	H87	0.837900	0.366200	0.106100
C1351	C135	0.026900	0.145600	0.116000
H881	H88	0.044200	0.137500	0.155700
C1361	C136	0.033500	0.125000	0.030300
H891	H89	0.056100	0.103200	0.010100
C1371	C137	0.671500	0.293300	0.755200
H901	H90	0.632200	0.321000	0.732500
C1381	C138	0.287800	0.007900	0.348000
C1391	C139	0.497700	0.072900	0.592700
H911	H91	0.479400	0.043600	0.613600
C1401	C140	0.697800	0.302800	0.814800
H921	H92	0.676200	0.335200	0.831500
C1411	C141	0.287800	0.053200	0.259400
H931	H93	0.310600	0.077500	0.240100
C1421	C142	0.784800	0.210600	0.821800
H941	H94	0.822900	0.180200	0.843600
C1431	C143	0.221700	0.983300	0.316600
H951	H95	0.197800	0.959500	0.335000
C1441	C144	0.755100	0.205000	0.762600
H961	H96	0.774400	0.170500	0.745000
Ag91	Ag9	0.656110	0.457040	0.632250
Ag101	Ag10	0.177110	0.251870	0.132780
N491	N49	0.261600	0.177600	0.436790
N501	N50	0.720100	0.686900	0.078720
N511	N51	0.877400	0.462900	0.941180
N521	N52	0.560800	0.384200	0.587790
N531	N53	0.086800	0.342200	0.092590
C1451	C145	0.376300	0.257200	0.497600
N541	N54	0.873700	0.511100	0.026780
N551	N55	0.351900	0.210200	0.527190
C1461	C146	0.264900	0.064900	0.611900
H971	H97	0.286900	0.057800	0.651600
N561	N56	0.204200	0.030400	0.583320
N571	N57	0.788500	0.549900	0.935230
N581	N58	0.199600	0.253300	0.228700
C1471	C147	0.722000	0.637700	0.990800
H981	H98	0.701100	0.634000	0.950800
C1481	C148	0.201600	0.084200	0.495000
H991	H99	0.179200	0.088700	0.455100
C1491	C149	0.780500	0.651700	0.108100
H1001	H100	0.800500	0.655900	0.148100
C1501	C150	0.440200	0.302200	0.529800
N591	N59	0.724200	0.470800	0.728200
C1511	C151	0.902400	0.469600	0.998900
N601	N60	0.347000	0.268000	0.440680
C1521	C152	0.056400	0.343000	0.034900
H1011	H101	0.076400	0.314700	0.014800
C1531	C153	0.467100	0.312000	0.589000
H1021	H102	0.445500	0.290500	0.610200
C1541	C154	0.996900	0.383800	0.003600
H1031	H103	0.977500	0.382900	0.963500
C1551	C155	0.256600	0.237200	0.348300
C1561	C156	0.819600	0.502200	0.911700
C1571	C157	0.821100	0.456200	0.818400
H1041	H104	0.865200	0.438800	0.838200
C1581	C158	0.474000	0.335100	0.499800
H1051	H105	0.456700	0.330300	0.459900
C1591	C159	0.784500	0.601300	0.022300
C1601	C160	0.173800	0.040900	0.525900
H1061	H106	0.131700	0.017800	0.505700
C1611	C161	0.290500	0.226700	0.412400
C1621	C162	0.966900	0.426100	0.033000
C1631	C163	0.692200	0.679600	0.020800
H1071	H107	0.650700	0.704000	0.999800
C1641	C164	0.263800	0.120900	0.525100
C1651	C165	0.056700	0.383400	0.120600
H1081	H108	0.076500	0.382400	0.160700
C1661	C166	0.294400	0.172200	0.494800
C1671	C167	0.692200	0.504900	0.757100
H1091	H109	0.648000	0.521400	0.736300
C1681	C168	0.817200	0.551500	0.993100
C1691	C169	0.814400	0.609500	0.081600
H1101	H110	0.856400	0.587100	0.103400
C1701	C170	0.296100	0.110400	0.584800
H1111	H111	0.337900	0.133800	0.606100
C1711	C171	0.526900	0.354400	0.616000
H1121	H112	0.544200	0.362500	0.655700
C1721	C172	0.533500	0.375000	0.530300
H1131	H113	0.556100	0.396800	0.510100
C1731	C173	0.171500	0.206700	0.255200
H1141	H114	0.132200	0.179000	0.232500
C1741	C174	0.787800	0.492100	0.848000
C1751	C175	0.997700	0.427100	0.092700
H1151	H115	0.979400	0.456400	0.113600
C1761	C176	0.197800	0.197200	0.314800
H1161	H116	0.176200	0.164800	0.331500
C1771	C177	0.787800	0.446800	0.759400
H1171	H117	0.810600	0.422500	0.740100
C1781	C178	0.284800	0.289400	0.321800
H1181	H118	0.322900	0.319800	0.343600
C1791	C179	0.721700	0.516700	0.816600
H1191	H119	0.697800	0.540500	0.835000
C1801	C180	0.255100	0.295000	0.262600
H1201	H120	0.274400	0.329500	0.245000
Ag111	Ag11	0.156110	0.957040	0.632250
Ag121	Ag12	0.677110	0.751870	0.132780
N611	N61	0.761600	0.677600	0.436790
N621	N62	0.220100	0.186900	0.078720
N631	N63	0.377400	0.962900	0.941180
N641	N64	0.060800	0.884200	0.587790
N651	N65	0.586800	0.842200	0.092590
C1811	C181	0.876300	0.757200	0.497600
N661	N66	0.373700	0.011100	0.026780
N671	N67	0.851900	0.710200	0.527190
C1821	C182	0.764900	0.564900	0.611900
H1211	H121	0.786900	0.557800	0.651600
N681	N68	0.704200	0.530400	0.583320
N691	N69	0.288500	0.049900	0.935230
N701	N70	0.699600	0.753300	0.228700
C1831	C183	0.222000	0.137700	0.990800
H1221	H122	0.201100	0.134000	0.950800
C1841	C184	0.701600	0.584200	0.495000
H1231	H123	0.679200	0.588700	0.455100
C1851	C185	0.280500	0.151700	0.108100
H1241	H124	0.300500	0.155900	0.148100
C1861	C186	0.940200	0.802200	0.529800
N711	N71	0.224200	0.970800	0.728200
C1871	C187	0.402400	0.969600	0.998900
N721	N72	0.847000	0.768000	0.440680
C1881	C188	0.556400	0.843000	0.034900
H1251	H125	0.576400	0.814700	0.014800
C1891	C189	0.967100	0.812000	0.589000
H1261	H126	0.945500	0.790500	0.610200
C1901	C190	0.496900	0.883800	0.003600
H1271	H127	0.477500	0.882900	0.963500
C1911	C191	0.756600	0.737200	0.348300
C1921	C192	0.319600	0.002200	0.911700
C1931	C193	0.321100	0.956200	0.818400
H1281	H128	0.365200	0.938800	0.838200
C1941	C194	0.974000	0.835100	0.499800
H1291	H129	0.956700	0.830300	0.459900
C1951	C195	0.284500	0.101300	0.022300
C1961	C196	0.673800	0.540900	0.525900
H1301	H130	0.631700	0.517800	0.505700
C1971	C197	0.790500	0.726700	0.412400
C1981	C198	0.466900	0.926100	0.033000
C1991	C199	0.192200	0.179600	0.020800
H1311	H131	0.150700	0.204000	0.999800
C2001	C200	0.763800	0.620900	0.525100
C2011	C201	0.556700	0.883400	0.120600
H1321	H132	0.576500	0.882400	0.160700
C2021	C202	0.794400	0.672200	0.494800
C2031	C203	0.192200	0.004900	0.757100
H1331	H133	0.148000	0.021400	0.736300
C2041	C204	0.317200	0.051500	0.993100
C2051	C205	0.314400	0.109500	0.081600
H1341	H134	0.356400	0.087100	0.103400
C2061	C206	0.796100	0.610400	0.584800
H1351	H135	0.837900	0.633800	0.606100
C2071	C207	0.026900	0.854400	0.616000
H1361	H136	0.044200	0.862500	0.655700
C2081	C208	0.033500	0.875000	0.530300
H1371	H137	0.056100	0.896800	0.510100
C2091	C209	0.671500	0.706700	0.255200
H1381	H138	0.632200	0.679000	0.232500
C2101	C210	0.287800	0.992100	0.848000
C2111	C211	0.497700	0.927100	0.092700
H1391	H139	0.479400	0.956400	0.113600
C2121	C212	0.697800	0.697200	0.314800
H1401	H140	0.676200	0.664800	0.331500
C2131	C213	0.287800	0.946800	0.759400
H1411	H141	0.310600	0.922500	0.740100
C2141	C214	0.784800	0.789400	0.321800
H1421	H142	0.822900	0.819800	0.343600
C2151	C215	0.221700	0.016700	0.816600
H1431	H143	0.197800	0.040500	0.835000
C2161	C216	0.755100	0.795000	0.262600
H1441	H144	0.774400	0.829500	0.245000
Ag131	Ag13	0.343890	0.457040	0.867750
Ag141	Ag14	0.822890	0.251870	0.367220
N731	N73	0.738400	0.177600	0.063210
N741	N74	0.279900	0.686900	0.421280
N751	N75	0.122600	0.462900	0.558820
N761	N76	0.439200	0.384200	0.912210
N771	N77	0.913200	0.342200	0.407410
C2171	C217	0.623700	0.257200	0.002400
N781	N78	0.126300	0.511100	0.473220
N791	N79	0.648100	0.210200	0.972810
C2181	C218	0.735100	0.064900	0.888100
H1451	H145	0.713100	0.057800	0.848400
N801	N80	0.795800	0.030400	0.916680
N811	N81	0.211500	0.549900	0.564770
N821	N82	0.800400	0.253300	0.271300
C2191	C219	0.278000	0.637700	0.509200
H1461	H146	0.298900	0.634000	0.549200
C2201	C220	0.798400	0.084200	0.005000
H1471	H147	0.820800	0.088700	0.044900
C2211	C221	0.219500	0.651700	0.391900
H1481	H148	0.199500	0.655900	0.351900
C2221	C222	0.559800	0.302200	0.970200
N831	N83	0.275800	0.470800	0.771800
C2231	C223	0.097600	0.469600	0.501100
N841	N84	0.653000	0.268000	0.059320
C2241	C224	0.943600	0.343000	0.465100
H1491	H149	0.923600	0.314700	0.485200
C2251	C225	0.532900	0.312000	0.911000
H1501	H150	0.554500	0.290500	0.889800
C2261	C226	0.003100	0.383800	0.496400
H1511	H151	0.022500	0.382900	0.536500
C2271	C227	0.743400	0.237200	0.151700
C2281	C228	0.180400	0.502200	0.588300
C2291	C229	0.178900	0.456200	0.681600
H1521	H152	0.134800	0.438800	0.661800
C2301	C230	0.526000	0.335100	0.000200
H1531	H153	0.543300	0.330300	0.040100
C2311	C231	0.215500	0.601300	0.477700
C2321	C232	0.826200	0.040900	0.974100
H1541	H154	0.868300	0.017800	0.994300
C2331	C233	0.709500	0.226700	0.087600
C2341	C234	0.033100	0.426100	0.467000
C2351	C235	0.307800	0.679600	0.479200
H1551	H155	0.349300	0.704000	0.500200
C2361	C236	0.736200	0.120900	0.974900
C2371	C237	0.943300	0.383400	0.379400
H1561	H156	0.923500	0.382400	0.339300
C2381	C238	0.705600	0.172200	0.005200
C2391	C239	0.307800	0.504900	0.742900
H1571	H157	0.352000	0.521400	0.763700
C2401	C240	0.182800	0.551500	0.506900
C2411	C241	0.185600	0.609500	0.418400
H1581	H158	0.143600	0.587100	0.396600
C2421	C242	0.703900	0.110400	0.915200
H1591	H159	0.662100	0.133800	0.893900
C2431	C243	0.473100	0.354400	0.884000
H1601	H160	0.455800	0.362500	0.844300
C2441	C244	0.466500	0.375000	0.969700
H1611	H161	0.443900	0.396800	0.989900
C2451	C245	0.828500	0.206700	0.244800
H1621	H162	0.867800	0.179000	0.267500
C2461	C246	0.212200	0.492100	0.652000
C2471	C247	0.002300	0.427100	0.407300
H1631	H163	0.020600	0.456400	0.386400
C2481	C248	0.802200	0.197200	0.185200
H1641	H164	0.823800	0.164800	0.168500
C2491	C249	0.212200	0.446800	0.740600
H1651	H165	0.189400	0.422500	0.759900
C2501	C250	0.715200	0.289400	0.178200
H1661	H166	0.677100	0.319800	0.156400
C2511	C251	0.278300	0.516700	0.683400
H1671	H167	0.302200	0.540500	0.665000
C2521	C252	0.744900	0.295000	0.237400
H1681	H168	0.725600	0.329500	0.255000
Ag151	Ag15	0.843890	0.957040	0.867750
Ag161	Ag16	0.322890	0.751870	0.367220
N851	N85	0.238400	0.677600	0.063210
N861	N86	0.779900	0.186900	0.421280
N871	N87	0.622600	0.962900	0.558820
N881	N88	0.939200	0.884200	0.912210
N891	N89	0.413200	0.842200	0.407410
C2531	C253	0.123700	0.757200	0.002400
N901	N90	0.626300	0.011100	0.473220
N911	N91	0.148100	0.710200	0.972810
C2541	C254	0.235100	0.564900	0.888100
H1691	H169	0.213100	0.557800	0.848400
N921	N92	0.295800	0.530400	0.916680
N931	N93	0.711500	0.049900	0.564770
N941	N94	0.300400	0.753300	0.271300
C2551	C255	0.778000	0.137700	0.509200
H1701	H170	0.798900	0.134000	0.549200
C2561	C256	0.298400	0.584200	0.005000
H1711	H171	0.320800	0.588700	0.044900
C2571	C257	0.719500	0.151700	0.391900
H1721	H172	0.699500	0.155900	0.351900
C2581	C258	0.059800	0.802200	0.970200
N951	N95	0.775800	0.970800	0.771800
C2591	C259	0.597600	0.969600	0.501100
N961	N96	0.153000	0.768000	0.059320
C2601	C260	0.443600	0.843000	0.465100
H1731	H173	0.423600	0.814700	0.485200
C2611	C261	0.032900	0.812000	0.911000
H1741	H174	0.054500	0.790500	0.889800
C2621	C262	0.503100	0.883800	0.496400
H1751	H175	0.522500	0.882900	0.536500
C2631	C263	0.243400	0.737200	0.151700
C2641	C264	0.680400	0.002200	0.588300
C2651	C265	0.678900	0.956200	0.681600
H1761	H176	0.634800	0.938800	0.661800
C2661	C266	0.026000	0.835100	0.000200
H1771	H177	0.043300	0.830300	0.040100
C2671	C267	0.715500	0.101300	0.477700
C2681	C268	0.326200	0.540900	0.974100
H1781	H178	0.368300	0.517800	0.994300
C2691	C269	0.209500	0.726700	0.087600
C2701	C270	0.533100	0.926100	0.467000
C2711	C271	0.807800	0.179600	0.479200
H1791	H179	0.849300	0.204000	0.500200
C2721	C272	0.236200	0.620900	0.974900
C2731	C273	0.443300	0.883400	0.379400
H1801	H180	0.423500	0.882400	0.339300
C2741	C274	0.205600	0.672200	0.005200
C2751	C275	0.807800	0.004900	0.742900
H1811	H181	0.852000	0.021400	0.763700
C2761	C276	0.682800	0.051500	0.506900
C2771	C277	0.685600	0.109500	0.418400
H1821	H182	0.643600	0.087100	0.396600
C2781	C278	0.203900	0.610400	0.915200
H1831	H183	0.162100	0.633800	0.893900
C2791	C279	0.973100	0.854400	0.884000
H1841	H184	0.955800	0.862500	0.844300
C2801	C280	0.966500	0.875000	0.969700
H1851	H185	0.943900	0.896800	0.989900
C2811	C281	0.328500	0.706700	0.244800
H1861	H186	0.367800	0.679000	0.267500
C2821	C282	0.712200	0.992100	0.652000
C2831	C283	0.502300	0.927100	0.407300
H1871	H187	0.520600	0.956400	0.386400
C2841	C284	0.302200	0.697200	0.185200
H1881	H188	0.323800	0.664800	0.168500
C2851	C285	0.712200	0.946800	0.740600
H1891	H189	0.689400	0.922500	0.759900
C2861	C286	0.215200	0.789400	0.178200
H1901	H190	0.177100	0.819800	0.156400
C2871	C287	0.778300	0.016700	0.683400
H1911	H191	0.802200	0.040500	0.665000
C2881	C288	0.244900	0.795000	0.237400
H1921	H192	0.225600	0.829500	0.255000
