data_QOFDEW_freeONLY_PM
_symmetry_space_group_name_H-M	'P1'
_cell_length_a	21.977700
_cell_length_b	16.611100
_cell_length_c	25.634400
_cell_angle_alpha	90.000000
_cell_angle_beta	115.351000
_cell_angle_gamma	90.000000
_symmetry_Int_Tables_number 1

loop_
_symmetry_equiv_pos_as_xyz
'x,y,z'

loop_
_atom_site_label
_atom_site_type_symbol
_atom_site_fract_x
_atom_site_fract_y
_atom_site_fract_z
Ag11	Ag1	0.773860	0.209040	0.368210
Ag21	Ag2	0.295170	0.501700	0.867650
C11	C1	0.153400	0.719900	0.001100
C21	C2	0.923000	0.900200	0.892500
H11	H1	0.903300	0.905000	0.852500
C31	C3	0.128100	0.507100	0.502400
C41	C4	0.127900	0.561700	0.411100
H21	H2	0.085400	0.539700	0.389900
C51	C5	0.903100	0.316900	0.389100
H31	H3	0.884700	0.311100	0.349100
C61	C6	0.075300	0.801400	0.007000
C71	C7	0.982300	0.887500	0.009500
H41	H4	0.001600	0.884800	0.049500
C81	C8	0.159800	0.552700	0.470200
C91	C9	0.243100	0.633700	0.996300
H51	H5	0.263700	0.633200	0.036500
C101	C10	0.222900	0.586100	0.499300
H61	H6	0.245700	0.581300	0.539200
C111	C11	0.158100	0.485700	0.651400
C121	C12	0.127600	0.476000	0.587800
C131	C13	0.271600	0.592800	0.965300
H71	H7	0.311800	0.565400	0.985600
C141	C14	0.960900	0.361300	0.415500
H81	H8	0.981200	0.383900	0.393800
C151	C15	0.183800	0.675500	0.966810
C161	C16	0.190400	0.742600	0.152000
C171	C17	0.957200	0.334100	0.505400
H91	H9	0.975000	0.337500	0.545400
C181	C18	0.252700	0.707400	0.181000
H101	H10	0.276700	0.689700	0.160800
C191	C19	0.251400	0.626600	0.468800
H111	H11	0.293700	0.649300	0.489100
C201	C20	0.050100	0.422900	0.505400
C211	C21	0.982400	0.857700	0.918600
H121	H12	0.001900	0.834400	0.896400
C221	C22	0.158400	0.752200	0.088000
C231	C23	0.279500	0.698500	0.240400
H131	H13	0.321500	0.674400	0.259500
C241	C24	0.186700	0.757500	0.242800
H141	H14	0.163800	0.775400	0.263800
C251	C25	0.156300	0.767500	0.183700
H151	H15	0.113800	0.790700	0.165500
C261	C26	0.160500	0.604300	0.384000
H161	H16	0.138300	0.611700	0.344300
C271	C27	0.211800	0.537300	0.678000
H171	H17	0.227800	0.567700	0.656100
C281	C28	0.899000	0.291000	0.474600
H181	H18	0.877600	0.267300	0.495100
C291	C29	0.241300	0.543400	0.737200
H191	H19	0.277200	0.578800	0.754500
C301	C30	0.012700	0.850000	0.977900
C311	C31	0.989000	0.372400	0.475100
C321	C32	0.155400	0.674900	0.907400
H201	H20	0.116100	0.703500	0.886200
C331	C33	0.922200	0.929100	0.979400
H211	H21	0.902100	0.954100	0.000500
C341	C34	0.133700	0.445200	0.685300
H221	H22	0.095600	0.413000	0.668700
C351	C35	0.167200	0.453600	0.744300
H231	H23	0.151100	0.424600	0.766800
C361	C36	0.186300	0.631000	0.879800
H241	H24	0.165700	0.629300	0.839700
N11	N1	0.871620	0.281300	0.417680
N21	N2	0.222000	0.635100	0.411830
N31	N3	0.220800	0.500300	0.771320
N41	N4	0.074500	0.460700	0.472870
N51	N5	0.156230	0.517500	0.559290
N61	N6	0.074860	0.427100	0.562870
N71	N7	0.244200	0.590500	0.907450
N81	N8	0.246800	0.723400	0.271390
N91	N9	0.892200	0.935000	0.922090
N101	N10	0.097690	0.760700	0.973110
N111	N11	0.186290	0.712600	0.058760
N121	N12	0.103900	0.798900	0.064570
Ag31	Ag3	0.273860	0.709040	0.368210
Ag41	Ag4	0.795170	0.001700	0.867650
C371	C37	0.653400	0.219900	0.001100
C381	C38	0.423000	0.400200	0.892500
H251	H25	0.403300	0.405000	0.852500
C391	C39	0.628100	0.007100	0.502400
C401	C40	0.627900	0.061700	0.411100
H261	H26	0.585400	0.039700	0.389900
C411	C41	0.403100	0.816900	0.389100
H271	H27	0.384700	0.811100	0.349100
C421	C42	0.575300	0.301400	0.007000
C431	C43	0.482300	0.387500	0.009500
H281	H28	0.501600	0.384800	0.049500
C441	C44	0.659800	0.052700	0.470200
C451	C45	0.743100	0.133700	0.996300
H291	H29	0.763700	0.133200	0.036500
C461	C46	0.722900	0.086100	0.499300
H301	H30	0.745700	0.081300	0.539200
C471	C47	0.658100	0.985700	0.651400
C481	C48	0.627600	0.976000	0.587800
C491	C49	0.771600	0.092800	0.965300
H311	H31	0.811800	0.065400	0.985600
C501	C50	0.460900	0.861300	0.415500
H321	H32	0.481200	0.883900	0.393800
C511	C51	0.683800	0.175500	0.966810
C521	C52	0.690400	0.242600	0.152000
C531	C53	0.457200	0.834100	0.505400
H331	H33	0.475000	0.837500	0.545400
C541	C54	0.752700	0.207400	0.181000
H341	H34	0.776700	0.189700	0.160800
C551	C55	0.751400	0.126600	0.468800
H351	H35	0.793700	0.149300	0.489100
C561	C56	0.550100	0.922900	0.505400
C571	C57	0.482400	0.357700	0.918600
H361	H36	0.501900	0.334400	0.896400
C581	C58	0.658400	0.252200	0.088000
C591	C59	0.779500	0.198500	0.240400
H371	H37	0.821500	0.174400	0.259500
C601	C60	0.686700	0.257500	0.242800
H381	H38	0.663800	0.275400	0.263800
C611	C61	0.656300	0.267500	0.183700
H391	H39	0.613800	0.290700	0.165500
C621	C62	0.660500	0.104300	0.384000
H401	H40	0.638300	0.111700	0.344300
C631	C63	0.711800	0.037300	0.678000
H411	H41	0.727800	0.067700	0.656100
C641	C64	0.399000	0.791000	0.474600
H421	H42	0.377600	0.767300	0.495100
C651	C65	0.741300	0.043400	0.737200
H431	H43	0.777200	0.078800	0.754500
C661	C66	0.512700	0.350000	0.977900
C671	C67	0.489000	0.872400	0.475100
C681	C68	0.655400	0.174900	0.907400
H441	H44	0.616100	0.203500	0.886200
C691	C69	0.422200	0.429100	0.979400
H451	H45	0.402100	0.454100	0.000500
C701	C70	0.633700	0.945200	0.685300
H461	H46	0.595600	0.913000	0.668700
C711	C71	0.667200	0.953600	0.744300
H471	H47	0.651100	0.924600	0.766800
C721	C72	0.686300	0.131000	0.879800
H481	H48	0.665700	0.129300	0.839700
N131	N13	0.371620	0.781300	0.417680
N141	N14	0.722000	0.135100	0.411830
N151	N15	0.720800	0.000300	0.771320
N161	N16	0.574500	0.960700	0.472870
N171	N17	0.656230	0.017500	0.559290
N181	N18	0.574860	0.927100	0.562870
N191	N19	0.744200	0.090500	0.907450
N201	N20	0.746800	0.223400	0.271390
N211	N21	0.392200	0.435000	0.922090
N221	N22	0.597690	0.260700	0.973110
N231	N23	0.686290	0.212600	0.058760
N241	N24	0.603900	0.298900	0.064570
Ag51	Ag5	0.226140	0.209040	0.131790
Ag61	Ag6	0.704830	0.501700	0.632350
C731	C73	0.846600	0.719900	0.498900
C741	C74	0.077000	0.900200	0.607500
H491	H49	0.096700	0.905000	0.647500
C751	C75	0.871900	0.507100	0.997600
C761	C76	0.872100	0.561700	0.088900
H501	H50	0.914600	0.539700	0.110100
C771	C77	0.096900	0.316900	0.110900
H511	H51	0.115300	0.311100	0.150900
C781	C78	0.924700	0.801400	0.493000
C791	C79	0.017700	0.887500	0.490500
H521	H52	0.998400	0.884800	0.450500
C801	C80	0.840200	0.552700	0.029800
C811	C81	0.756900	0.633700	0.503700
H531	H53	0.736300	0.633200	0.463500
C821	C82	0.777100	0.586100	0.000700
H541	H54	0.754300	0.581300	0.960800
C831	C83	0.841900	0.485700	0.848600
C841	C84	0.872400	0.476000	0.912200
C851	C85	0.728400	0.592800	0.534700
H551	H55	0.688200	0.565400	0.514400
C861	C86	0.039100	0.361300	0.084500
H561	H56	0.018800	0.383900	0.106200
C871	C87	0.816200	0.675500	0.533190
C881	C88	0.809600	0.742600	0.348000
C891	C89	0.042800	0.334100	0.994600
H571	H57	0.025000	0.337500	0.954600
C901	C90	0.747300	0.707400	0.319000
H581	H58	0.723300	0.689700	0.339200
C911	C91	0.748600	0.626600	0.031200
H591	H59	0.706300	0.649300	0.010900
C921	C92	0.949900	0.422900	0.994600
C931	C93	0.017600	0.857700	0.581400
H601	H60	0.998100	0.834400	0.603600
C941	C94	0.841600	0.752200	0.412000
C951	C95	0.720500	0.698500	0.259600
H611	H61	0.678500	0.674400	0.240500
C961	C96	0.813300	0.757500	0.257200
H621	H62	0.836200	0.775400	0.236200
C971	C97	0.843700	0.767500	0.316300
H631	H63	0.886200	0.790700	0.334500
C981	C98	0.839500	0.604300	0.116000
H641	H64	0.861700	0.611700	0.155700
C991	C99	0.788200	0.537300	0.822000
H651	H65	0.772200	0.567700	0.843900
C1001	C100	0.101000	0.291000	0.025400
H661	H66	0.122400	0.267300	0.004900
C1011	C101	0.758700	0.543400	0.762800
H671	H67	0.722800	0.578800	0.745500
C1021	C102	0.987300	0.850000	0.522100
C1031	C103	0.011000	0.372400	0.024900
C1041	C104	0.844600	0.674900	0.592600
H681	H68	0.883900	0.703500	0.613800
C1051	C105	0.077800	0.929100	0.520600
H691	H69	0.097900	0.954100	0.499500
C1061	C106	0.866300	0.445200	0.814700
H701	H70	0.904400	0.413000	0.831300
C1071	C107	0.832800	0.453600	0.755700
H711	H71	0.848900	0.424600	0.733200
C1081	C108	0.813700	0.631000	0.620200
H721	H72	0.834300	0.629300	0.660300
N251	N25	0.128380	0.281300	0.082320
N261	N26	0.778000	0.635100	0.088170
N271	N27	0.779200	0.500300	0.728680
N281	N28	0.925500	0.460700	0.027130
N291	N29	0.843770	0.517500	0.940710
N301	N30	0.925140	0.427100	0.937130
N311	N31	0.755800	0.590500	0.592550
N321	N32	0.753200	0.723400	0.228610
N331	N33	0.107800	0.935000	0.577910
N341	N34	0.902310	0.760700	0.526890
N351	N35	0.813710	0.712600	0.441240
N361	N36	0.896100	0.798900	0.435430
Ag71	Ag7	0.726140	0.709040	0.131790
Ag81	Ag8	0.204830	0.001700	0.632350
C1091	C109	0.346600	0.219900	0.498900
C1101	C110	0.577000	0.400200	0.607500
H731	H73	0.596700	0.405000	0.647500
C1111	C111	0.371900	0.007100	0.997600
C1121	C112	0.372100	0.061700	0.088900
H741	H74	0.414600	0.039700	0.110100
C1131	C113	0.596900	0.816900	0.110900
H751	H75	0.615300	0.811100	0.150900
C1141	C114	0.424700	0.301400	0.493000
C1151	C115	0.517700	0.387500	0.490500
H761	H76	0.498400	0.384800	0.450500
C1161	C116	0.340200	0.052700	0.029800
C1171	C117	0.256900	0.133700	0.503700
H771	H77	0.236300	0.133200	0.463500
C1181	C118	0.277100	0.086100	0.000700
H781	H78	0.254300	0.081300	0.960800
C1191	C119	0.341900	0.985700	0.848600
C1201	C120	0.372400	0.976000	0.912200
C1211	C121	0.228400	0.092800	0.534700
H791	H79	0.188200	0.065400	0.514400
C1221	C122	0.539100	0.861300	0.084500
H801	H80	0.518800	0.883900	0.106200
C1231	C123	0.316200	0.175500	0.533190
C1241	C124	0.309600	0.242600	0.348000
C1251	C125	0.542800	0.834100	0.994600
H811	H81	0.525000	0.837500	0.954600
C1261	C126	0.247300	0.207400	0.319000
H821	H82	0.223300	0.189700	0.339200
C1271	C127	0.248600	0.126600	0.031200
H831	H83	0.206300	0.149300	0.010900
C1281	C128	0.449900	0.922900	0.994600
C1291	C129	0.517600	0.357700	0.581400
H841	H84	0.498100	0.334400	0.603600
C1301	C130	0.341600	0.252200	0.412000
C1311	C131	0.220500	0.198500	0.259600
H851	H85	0.178500	0.174400	0.240500
C1321	C132	0.313300	0.257500	0.257200
H861	H86	0.336200	0.275400	0.236200
C1331	C133	0.343700	0.267500	0.316300
H871	H87	0.386200	0.290700	0.334500
C1341	C134	0.339500	0.104300	0.116000
H881	H88	0.361700	0.111700	0.155700
C1351	C135	0.288200	0.037300	0.822000
H891	H89	0.272200	0.067700	0.843900
C1361	C136	0.601000	0.791000	0.025400
H901	H90	0.622400	0.767300	0.004900
C1371	C137	0.258700	0.043400	0.762800
H911	H91	0.222800	0.078800	0.745500
C1381	C138	0.487300	0.350000	0.522100
C1391	C139	0.511000	0.872400	0.024900
C1401	C140	0.344600	0.174900	0.592600
H921	H92	0.383900	0.203500	0.613800
C1411	C141	0.577800	0.429100	0.520600
H931	H93	0.597900	0.454100	0.499500
C1421	C142	0.366300	0.945200	0.814700
H941	H94	0.404400	0.913000	0.831300
C1431	C143	0.332800	0.953600	0.755700
H951	H95	0.348900	0.924600	0.733200
C1441	C144	0.313700	0.131000	0.620200
H961	H96	0.334300	0.129300	0.660300
N371	N37	0.628380	0.781300	0.082320
N381	N38	0.278000	0.135100	0.088170
N391	N39	0.279200	0.000300	0.728680
N401	N40	0.425500	0.960700	0.027130
N411	N41	0.343770	0.017500	0.940710
N421	N42	0.425140	0.927100	0.937130
N431	N43	0.255800	0.090500	0.592550
N441	N44	0.253200	0.223400	0.228610
N451	N45	0.607800	0.435000	0.577910
N461	N46	0.402310	0.260700	0.526890
N471	N47	0.313710	0.212600	0.441240
N481	N48	0.396100	0.298900	0.435430
Ag91	Ag9	0.226140	0.790960	0.631790
Ag101	Ag10	0.704830	0.498300	0.132350
C1451	C145	0.846600	0.280100	0.998900
C1461	C146	0.077000	0.099800	0.107500
H971	H97	0.096700	0.095000	0.147500
C1471	C147	0.871900	0.492900	0.497600
C1481	C148	0.872100	0.438300	0.588900
H981	H98	0.914600	0.460300	0.610100
C1491	C149	0.096900	0.683100	0.610900
H991	H99	0.115300	0.688900	0.650900
C1501	C150	0.924700	0.198600	0.993000
C1511	C151	0.017700	0.112500	0.990500
H1001	H100	0.998400	0.115200	0.950500
C1521	C152	0.840200	0.447300	0.529800
C1531	C153	0.756900	0.366300	0.003700
H1011	H101	0.736300	0.366800	0.963500
C1541	C154	0.777100	0.413900	0.500700
H1021	H102	0.754300	0.418700	0.460800
C1551	C155	0.841900	0.514300	0.348600
C1561	C156	0.872400	0.524000	0.412200
C1571	C157	0.728400	0.407200	0.034700
H1031	H103	0.688200	0.434600	0.014400
C1581	C158	0.039100	0.638700	0.584500
H1041	H104	0.018800	0.616100	0.606200
C1591	C159	0.816200	0.324500	0.033190
C1601	C160	0.809600	0.257400	0.848000
C1611	C161	0.042800	0.665900	0.494600
H1051	H105	0.025000	0.662500	0.454600
C1621	C162	0.747300	0.292600	0.819000
H1061	H106	0.723300	0.310300	0.839200
C1631	C163	0.748600	0.373400	0.531200
H1071	H107	0.706300	0.350700	0.510900
C1641	C164	0.949900	0.577100	0.494600
C1651	C165	0.017600	0.142300	0.081400
H1081	H108	0.998100	0.165600	0.103600
C1661	C166	0.841600	0.247800	0.912000
C1671	C167	0.720500	0.301500	0.759600
H1091	H109	0.678500	0.325600	0.740500
C1681	C168	0.813300	0.242500	0.757200
H1101	H110	0.836200	0.224600	0.736200
C1691	C169	0.843700	0.232500	0.816300
H1111	H111	0.886200	0.209300	0.834500
C1701	C170	0.839500	0.395700	0.616000
H1121	H112	0.861700	0.388300	0.655700
C1711	C171	0.788200	0.462700	0.322000
H1131	H113	0.772200	0.432300	0.343900
C1721	C172	0.101000	0.709000	0.525400
H1141	H114	0.122400	0.732700	0.504900
C1731	C173	0.758700	0.456600	0.262800
H1151	H115	0.722800	0.421200	0.245500
C1741	C174	0.987300	0.150000	0.022100
C1751	C175	0.011000	0.627600	0.524900
C1761	C176	0.844600	0.325100	0.092600
H1161	H116	0.883900	0.296500	0.113800
C1771	C177	0.077800	0.070900	0.020600
H1171	H117	0.097900	0.045900	0.999500
C1781	C178	0.866300	0.554800	0.314700
H1181	H118	0.904400	0.587000	0.331300
C1791	C179	0.832800	0.546400	0.255700
H1191	H119	0.848900	0.575400	0.233200
C1801	C180	0.813700	0.369000	0.120200
H1201	H120	0.834300	0.370700	0.160300
N491	N49	0.128380	0.718700	0.582320
N501	N50	0.778000	0.364900	0.588170
N511	N51	0.779200	0.499700	0.228680
N521	N52	0.925500	0.539300	0.527130
N531	N53	0.843770	0.482500	0.440710
N541	N54	0.925140	0.572900	0.437130
N551	N55	0.755800	0.409500	0.092550
N561	N56	0.753200	0.276600	0.728610
N571	N57	0.107800	0.065000	0.077910
N581	N58	0.902310	0.239300	0.026890
N591	N59	0.813710	0.287400	0.941240
N601	N60	0.896100	0.201100	0.935430
Ag111	Ag11	0.726140	0.290960	0.631790
Ag121	Ag12	0.204830	0.998300	0.132350
C1811	C181	0.346600	0.780100	0.998900
C1821	C182	0.577000	0.599800	0.107500
H1211	H121	0.596700	0.595000	0.147500
C1831	C183	0.371900	0.992900	0.497600
C1841	C184	0.372100	0.938300	0.588900
H1221	H122	0.414600	0.960300	0.610100
C1851	C185	0.596900	0.183100	0.610900
H1231	H123	0.615300	0.188900	0.650900
C1861	C186	0.424700	0.698600	0.993000
C1871	C187	0.517700	0.612500	0.990500
H1241	H124	0.498400	0.615200	0.950500
C1881	C188	0.340200	0.947300	0.529800
C1891	C189	0.256900	0.866300	0.003700
H1251	H125	0.236300	0.866800	0.963500
C1901	C190	0.277100	0.913900	0.500700
H1261	H126	0.254300	0.918700	0.460800
C1911	C191	0.341900	0.014300	0.348600
C1921	C192	0.372400	0.024000	0.412200
C1931	C193	0.228400	0.907200	0.034700
H1271	H127	0.188200	0.934600	0.014400
C1941	C194	0.539100	0.138700	0.584500
H1281	H128	0.518800	0.116100	0.606200
C1951	C195	0.316200	0.824500	0.033190
C1961	C196	0.309600	0.757400	0.848000
C1971	C197	0.542800	0.165900	0.494600
H1291	H129	0.525000	0.162500	0.454600
C1981	C198	0.247300	0.792600	0.819000
H1301	H130	0.223300	0.810300	0.839200
C1991	C199	0.248600	0.873400	0.531200
H1311	H131	0.206300	0.850700	0.510900
C2001	C200	0.449900	0.077100	0.494600
C2011	C201	0.517600	0.642300	0.081400
H1321	H132	0.498100	0.665600	0.103600
C2021	C202	0.341600	0.747800	0.912000
C2031	C203	0.220500	0.801500	0.759600
H1331	H133	0.178500	0.825600	0.740500
C2041	C204	0.313300	0.742500	0.757200
H1341	H134	0.336200	0.724600	0.736200
C2051	C205	0.343700	0.732500	0.816300
H1351	H135	0.386200	0.709300	0.834500
C2061	C206	0.339500	0.895700	0.616000
H1361	H136	0.361700	0.888300	0.655700
C2071	C207	0.288200	0.962700	0.322000
H1371	H137	0.272200	0.932300	0.343900
C2081	C208	0.601000	0.209000	0.525400
H1381	H138	0.622400	0.232700	0.504900
C2091	C209	0.258700	0.956600	0.262800
H1391	H139	0.222800	0.921200	0.245500
C2101	C210	0.487300	0.650000	0.022100
C2111	C211	0.511000	0.127600	0.524900
C2121	C212	0.344600	0.825100	0.092600
H1401	H140	0.383900	0.796500	0.113800
C2131	C213	0.577800	0.570900	0.020600
H1411	H141	0.597900	0.545900	0.999500
C2141	C214	0.366300	0.054800	0.314700
H1421	H142	0.404400	0.087000	0.331300
C2151	C215	0.332800	0.046400	0.255700
H1431	H143	0.348900	0.075400	0.233200
C2161	C216	0.313700	0.869000	0.120200
H1441	H144	0.334300	0.870700	0.160300
N611	N61	0.628380	0.218700	0.582320
N621	N62	0.278000	0.864900	0.588170
N631	N63	0.279200	0.999700	0.228680
N641	N64	0.425500	0.039300	0.527130
N651	N65	0.343770	0.982500	0.440710
N661	N66	0.425140	0.072900	0.437130
N671	N67	0.255800	0.909500	0.092550
N681	N68	0.253200	0.776600	0.728610
N691	N69	0.607800	0.565000	0.077910
N701	N70	0.402310	0.739300	0.026890
N711	N71	0.313710	0.787400	0.941240
N721	N72	0.396100	0.701100	0.935430
Ag131	Ag13	0.773860	0.790960	0.868210
Ag141	Ag14	0.295170	0.498300	0.367650
C2171	C217	0.153400	0.280100	0.501100
C2181	C218	0.923000	0.099800	0.392500
H1451	H145	0.903300	0.095000	0.352500
C2191	C219	0.128100	0.492900	0.002400
C2201	C220	0.127900	0.438300	0.911100
H1461	H146	0.085400	0.460300	0.889900
C2211	C221	0.903100	0.683100	0.889100
H1471	H147	0.884700	0.688900	0.849100
C2221	C222	0.075300	0.198600	0.507000
C2231	C223	0.982300	0.112500	0.509500
H1481	H148	0.001600	0.115200	0.549500
C2241	C224	0.159800	0.447300	0.970200
C2251	C225	0.243100	0.366300	0.496300
H1491	H149	0.263700	0.366800	0.536500
C2261	C226	0.222900	0.413900	0.999300
H1501	H150	0.245700	0.418700	0.039200
C2271	C227	0.158100	0.514300	0.151400
C2281	C228	0.127600	0.524000	0.087800
C2291	C229	0.271600	0.407200	0.465300
H1511	H151	0.311800	0.434600	0.485600
C2301	C230	0.960900	0.638700	0.915500
H1521	H152	0.981200	0.616100	0.893800
C2311	C231	0.183800	0.324500	0.466810
C2321	C232	0.190400	0.257400	0.652000
C2331	C233	0.957200	0.665900	0.005400
H1531	H153	0.975000	0.662500	0.045400
C2341	C234	0.252700	0.292600	0.681000
H1541	H154	0.276700	0.310300	0.660800
C2351	C235	0.251400	0.373400	0.968800
H1551	H155	0.293700	0.350700	0.989100
C2361	C236	0.050100	0.577100	0.005400
C2371	C237	0.982400	0.142300	0.418600
H1561	H156	0.001900	0.165600	0.396400
C2381	C238	0.158400	0.247800	0.588000
C2391	C239	0.279500	0.301500	0.740400
H1571	H157	0.321500	0.325600	0.759500
C2401	C240	0.186700	0.242500	0.742800
H1581	H158	0.163800	0.224600	0.763800
C2411	C241	0.156300	0.232500	0.683700
H1591	H159	0.113800	0.209300	0.665500
C2421	C242	0.160500	0.395700	0.884000
H1601	H160	0.138300	0.388300	0.844300
C2431	C243	0.211800	0.462700	0.178000
H1611	H161	0.227800	0.432300	0.156100
C2441	C244	0.899000	0.709000	0.974600
H1621	H162	0.877600	0.732700	0.995100
C2451	C245	0.241300	0.456600	0.237200
H1631	H163	0.277200	0.421200	0.254500
C2461	C246	0.012700	0.150000	0.477900
C2471	C247	0.989000	0.627600	0.975100
C2481	C248	0.155400	0.325100	0.407400
H1641	H164	0.116100	0.296500	0.386200
C2491	C249	0.922200	0.070900	0.479400
H1651	H165	0.902100	0.045900	0.500500
C2501	C250	0.133700	0.554800	0.185300
H1661	H166	0.095600	0.587000	0.168700
C2511	C251	0.167200	0.546400	0.244300
H1671	H167	0.151100	0.575400	0.266800
C2521	C252	0.186300	0.369000	0.379800
H1681	H168	0.165700	0.370700	0.339700
N731	N73	0.871620	0.718700	0.917680
N741	N74	0.222000	0.364900	0.911830
N751	N75	0.220800	0.499700	0.271320
N761	N76	0.074500	0.539300	0.972870
N771	N77	0.156230	0.482500	0.059290
N781	N78	0.074860	0.572900	0.062870
N791	N79	0.244200	0.409500	0.407450
N801	N80	0.246800	0.276600	0.771390
N811	N81	0.892200	0.065000	0.422090
N821	N82	0.097690	0.239300	0.473110
N831	N83	0.186290	0.287400	0.558760
N841	N84	0.103900	0.201100	0.564570
Ag151	Ag15	0.273860	0.290960	0.868210
Ag161	Ag16	0.795170	0.998300	0.367650
C2531	C253	0.653400	0.780100	0.501100
C2541	C254	0.423000	0.599800	0.392500
H1691	H169	0.403300	0.595000	0.352500
C2551	C255	0.628100	0.992900	0.002400
C2561	C256	0.627900	0.938300	0.911100
H1701	H170	0.585400	0.960300	0.889900
C2571	C257	0.403100	0.183100	0.889100
H1711	H171	0.384700	0.188900	0.849100
C2581	C258	0.575300	0.698600	0.507000
C2591	C259	0.482300	0.612500	0.509500
H1721	H172	0.501600	0.615200	0.549500
C2601	C260	0.659800	0.947300	0.970200
C2611	C261	0.743100	0.866300	0.496300
H1731	H173	0.763700	0.866800	0.536500
C2621	C262	0.722900	0.913900	0.999300
H1741	H174	0.745700	0.918700	0.039200
C2631	C263	0.658100	0.014300	0.151400
C2641	C264	0.627600	0.024000	0.087800
C2651	C265	0.771600	0.907200	0.465300
H1751	H175	0.811800	0.934600	0.485600
C2661	C266	0.460900	0.138700	0.915500
H1761	H176	0.481200	0.116100	0.893800
C2671	C267	0.683800	0.824500	0.466810
C2681	C268	0.690400	0.757400	0.652000
C2691	C269	0.457200	0.165900	0.005400
H1771	H177	0.475000	0.162500	0.045400
C2701	C270	0.752700	0.792600	0.681000
H1781	H178	0.776700	0.810300	0.660800
C2711	C271	0.751400	0.873400	0.968800
H1791	H179	0.793700	0.850700	0.989100
C2721	C272	0.550100	0.077100	0.005400
C2731	C273	0.482400	0.642300	0.418600
H1801	H180	0.501900	0.665600	0.396400
C2741	C274	0.658400	0.747800	0.588000
C2751	C275	0.779500	0.801500	0.740400
H1811	H181	0.821500	0.825600	0.759500
C2761	C276	0.686700	0.742500	0.742800
H1821	H182	0.663800	0.724600	0.763800
C2771	C277	0.656300	0.732500	0.683700
H1831	H183	0.613800	0.709300	0.665500
C2781	C278	0.660500	0.895700	0.884000
H1841	H184	0.638300	0.888300	0.844300
C2791	C279	0.711800	0.962700	0.178000
H1851	H185	0.727800	0.932300	0.156100
C2801	C280	0.399000	0.209000	0.974600
H1861	H186	0.377600	0.232700	0.995100
C2811	C281	0.741300	0.956600	0.237200
H1871	H187	0.777200	0.921200	0.254500
C2821	C282	0.512700	0.650000	0.477900
C2831	C283	0.489000	0.127600	0.975100
C2841	C284	0.655400	0.825100	0.407400
H1881	H188	0.616100	0.796500	0.386200
C2851	C285	0.422200	0.570900	0.479400
H1891	H189	0.402100	0.545900	0.500500
C2861	C286	0.633700	0.054800	0.185300
H1901	H190	0.595600	0.087000	0.168700
C2871	C287	0.667200	0.046400	0.244300
H1911	H191	0.651100	0.075400	0.266800
C2881	C288	0.686300	0.869000	0.379800
H1921	H192	0.665700	0.870700	0.339700
N851	N85	0.371620	0.218700	0.917680
N861	N86	0.722000	0.864900	0.911830
N871	N87	0.720800	0.999700	0.271320
N881	N88	0.574500	0.039300	0.972870
N891	N89	0.656230	0.982500	0.059290
N901	N90	0.574860	0.072900	0.062870
N911	N91	0.744200	0.909500	0.407450
N921	N92	0.746800	0.776600	0.771390
N931	N93	0.392200	0.565000	0.422090
N941	N94	0.597690	0.739300	0.473110
N951	N95	0.686290	0.787400	0.558760
N961	N96	0.603900	0.701100	0.564570
