data_QOFDIA05_freeONLY_PM
_symmetry_space_group_name_H-M	'P1'
_cell_length_a	22.010100
_cell_length_b	16.526600
_cell_length_c	25.568400
_cell_angle_alpha	90.000000
_cell_angle_beta	115.234000
_cell_angle_gamma	90.000000
_symmetry_Int_Tables_number 1

loop_
_symmetry_equiv_pos_as_xyz
'x,y,z'

loop_
_atom_site_label
_atom_site_type_symbol
_atom_site_fract_x
_atom_site_fract_y
_atom_site_fract_z
Ag11	Ag1	0.344270	0.957310	0.367470
Ag21	Ag2	0.322490	0.254330	0.866910
C11	C1	0.597700	0.471000	0.999900
C21	C2	0.777300	0.638100	0.008700
H11	H1	0.798000	0.634800	0.048900
C31	C3	0.297800	0.083900	0.504600
H21	H2	0.319900	0.087800	0.544600
C41	C4	0.123500	0.256700	0.501000
C51	C5	0.059700	0.301600	0.468800
C61	C6	0.503200	0.384300	0.995300
H31	H3	0.522600	0.383300	0.035500
C71	C7	0.444100	0.344200	0.963900
H41	H4	0.424100	0.316400	0.984100
C81	C8	0.209700	0.226200	0.586700
C91	C9	0.032700	0.311300	0.410100
H51	H5	0.054200	0.290100	0.388800
C101	C10	0.682000	0.552600	0.006000
C111	C11	0.533400	0.426200	0.965900
C121	C12	0.235500	0.064300	0.388200
H61	H6	0.213800	0.056800	0.348400
C131	C13	0.720300	0.652900	0.891600
H71	H7	0.700400	0.657800	0.851500
C141	C14	0.243100	0.237100	0.650500
C151	C15	0.679000	0.456300	0.180400
H81	H8	0.634800	0.439100	0.160200
C161	C16	0.680200	0.501900	0.087000
C171	C17	0.714900	0.601200	0.976800
C181	C18	0.235200	0.121100	0.473600
C191	C19	0.025900	0.335100	0.498800
H91	H9	0.043200	0.330700	0.538800
C201	C20	0.203800	0.110000	0.414200
H101	H10	0.162100	0.133100	0.392300
C211	C21	0.686400	0.610000	0.917900
H111	H11	0.644500	0.587500	0.895600
C221	C22	0.205000	0.172000	0.504100
C231	C23	0.712400	0.491900	0.151200
C241	C24	0.973300	0.353000	0.383400
H121	H12	0.955800	0.360200	0.343600
C251	C25	0.325400	0.041300	0.473400
H131	H13	0.367900	0.019000	0.493600
C261	C26	0.807600	0.680200	0.978500
H141	H14	0.849100	0.704500	0.999500
C271	C27	0.966900	0.374800	0.468100
H151	H15	0.944500	0.397000	0.488400
C281	C28	0.806800	0.505200	0.241900
H161	H16	0.850800	0.522400	0.262800
C291	C29	0.501800	0.427900	0.906300
H171	H17	0.519200	0.458400	0.885300
C301	C30	0.443900	0.383300	0.878500
H181	H18	0.424700	0.381100	0.838400
C311	C31	0.215300	0.288400	0.677400
H191	H19	0.176700	0.317800	0.655700
C321	C32	0.245500	0.294900	0.736200
H201	H20	0.226600	0.329900	0.753700
C331	C33	0.711600	0.446600	0.239600
H211	H21	0.688600	0.422300	0.258700
C341	C34	0.778100	0.516700	0.182600
H221	H22	0.802400	0.540300	0.164400
C351	C35	0.328500	0.208100	0.743600
H231	H23	0.368000	0.180900	0.766300
C361	C36	0.302300	0.198500	0.684300
H241	H24	0.324100	0.166700	0.667600
N11	N1	0.295400	0.030200	0.416800
N21	N2	0.939400	0.383600	0.411100
N31	N3	0.300700	0.254000	0.770100
N41	N4	0.237900	0.177200	0.562100
N51	N5	0.148200	0.210500	0.471600
N61	N6	0.152700	0.266900	0.558300
N71	N7	0.413800	0.342700	0.906500
N81	N8	0.775700	0.471200	0.270900
N91	N9	0.779800	0.686900	0.921300
N101	N10	0.623000	0.462800	0.057900
N111	N11	0.711300	0.549600	0.063900
N121	N12	0.626100	0.512200	0.972400
Ag31	Ag3	0.844270	0.457310	0.367470
Ag41	Ag4	0.822490	0.754330	0.866910
C371	C37	0.097700	0.971000	0.999900
C381	C38	0.277300	0.138100	0.008700
H251	H25	0.298000	0.134800	0.048900
C391	C39	0.797800	0.583900	0.504600
H261	H26	0.819900	0.587800	0.544600
C401	C40	0.623500	0.756700	0.501000
C411	C41	0.559700	0.801600	0.468800
C421	C42	0.003200	0.884300	0.995300
H271	H27	0.022600	0.883300	0.035500
C431	C43	0.944100	0.844200	0.963900
H281	H28	0.924100	0.816400	0.984100
C441	C44	0.709700	0.726200	0.586700
C451	C45	0.532700	0.811300	0.410100
H291	H29	0.554200	0.790100	0.388800
C461	C46	0.182000	0.052600	0.006000
C471	C47	0.033400	0.926200	0.965900
C481	C48	0.735500	0.564300	0.388200
H301	H30	0.713800	0.556800	0.348400
C491	C49	0.220300	0.152900	0.891600
H311	H31	0.200400	0.157800	0.851500
C501	C50	0.743100	0.737100	0.650500
C511	C51	0.179000	0.956300	0.180400
H321	H32	0.134800	0.939100	0.160200
C521	C52	0.180200	0.001900	0.087000
C531	C53	0.214900	0.101200	0.976800
C541	C54	0.735200	0.621100	0.473600
C551	C55	0.525900	0.835100	0.498800
H331	H33	0.543200	0.830700	0.538800
C561	C56	0.703800	0.610000	0.414200
H341	H34	0.662100	0.633100	0.392300
C571	C57	0.186400	0.110000	0.917900
H351	H35	0.144500	0.087500	0.895600
C581	C58	0.705000	0.672000	0.504100
C591	C59	0.212400	0.991900	0.151200
C601	C60	0.473300	0.853000	0.383400
H361	H36	0.455800	0.860200	0.343600
C611	C61	0.825400	0.541300	0.473400
H371	H37	0.867900	0.519000	0.493600
C621	C62	0.307600	0.180200	0.978500
H381	H38	0.349100	0.204500	0.999500
C631	C63	0.466900	0.874800	0.468100
H391	H39	0.444500	0.897000	0.488400
C641	C64	0.306800	0.005200	0.241900
H401	H40	0.350800	0.022400	0.262800
C651	C65	0.001800	0.927900	0.906300
H411	H41	0.019200	0.958400	0.885300
C661	C66	0.943900	0.883300	0.878500
H421	H42	0.924700	0.881100	0.838400
C671	C67	0.715300	0.788400	0.677400
H431	H43	0.676700	0.817800	0.655700
C681	C68	0.745500	0.794900	0.736200
H441	H44	0.726600	0.829900	0.753700
C691	C69	0.211600	0.946600	0.239600
H451	H45	0.188600	0.922300	0.258700
C701	C70	0.278100	0.016700	0.182600
H461	H46	0.302400	0.040300	0.164400
C711	C71	0.828500	0.708100	0.743600
H471	H47	0.868000	0.680900	0.766300
C721	C72	0.802300	0.698500	0.684300
H481	H48	0.824100	0.666700	0.667600
N131	N13	0.795400	0.530200	0.416800
N141	N14	0.439400	0.883600	0.411100
N151	N15	0.800700	0.754000	0.770100
N161	N16	0.737900	0.677200	0.562100
N171	N17	0.648200	0.710500	0.471600
N181	N18	0.652700	0.766900	0.558300
N191	N19	0.913800	0.842700	0.906500
N201	N20	0.275700	0.971200	0.270900
N211	N21	0.279800	0.186900	0.921300
N221	N22	0.123000	0.962800	0.057900
N231	N23	0.211300	0.049600	0.063900
N241	N24	0.126100	0.012200	0.972400
Ag51	Ag5	0.655730	0.957310	0.132530
Ag61	Ag6	0.677510	0.254330	0.633090
C731	C73	0.402300	0.471000	0.500100
C741	C74	0.222700	0.638100	0.491300
H491	H49	0.202000	0.634800	0.451100
C751	C75	0.702200	0.083900	0.995400
H501	H50	0.680100	0.087800	0.955400
C761	C76	0.876500	0.256700	0.999000
C771	C77	0.940300	0.301600	0.031200
C781	C78	0.496800	0.384300	0.504700
H511	H51	0.477400	0.383300	0.464500
C791	C79	0.555900	0.344200	0.536100
H521	H52	0.575900	0.316400	0.515900
C801	C80	0.790300	0.226200	0.913300
C811	C81	0.967300	0.311300	0.089900
H531	H53	0.945800	0.290100	0.111200
C821	C82	0.318000	0.552600	0.494000
C831	C83	0.466600	0.426200	0.534100
C841	C84	0.764500	0.064300	0.111800
H541	H54	0.786200	0.056800	0.151600
C851	C85	0.279700	0.652900	0.608400
H551	H55	0.299600	0.657800	0.648500
C861	C86	0.756900	0.237100	0.849500
C871	C87	0.321000	0.456300	0.319600
H561	H56	0.365200	0.439100	0.339800
C881	C88	0.319800	0.501900	0.413000
C891	C89	0.285100	0.601200	0.523200
C901	C90	0.764800	0.121100	0.026400
C911	C91	0.974100	0.335100	0.001200
H571	H57	0.956800	0.330700	0.961200
C921	C92	0.796200	0.110000	0.085800
H581	H58	0.837900	0.133100	0.107700
C931	C93	0.313600	0.610000	0.582100
H591	H59	0.355500	0.587500	0.604400
C941	C94	0.795000	0.172000	0.995900
C951	C95	0.287600	0.491900	0.348800
C961	C96	0.026700	0.353000	0.116600
H601	H60	0.044200	0.360200	0.156400
C971	C97	0.674600	0.041300	0.026600
H611	H61	0.632100	0.019000	0.006400
C981	C98	0.192400	0.680200	0.521500
H621	H62	0.150900	0.704500	0.500500
C991	C99	0.033100	0.374800	0.031900
H631	H63	0.055500	0.397000	0.011600
C1001	C100	0.193200	0.505200	0.258100
H641	H64	0.149200	0.522400	0.237200
C1011	C101	0.498200	0.427900	0.593700
H651	H65	0.480800	0.458400	0.614700
C1021	C102	0.556100	0.383300	0.621500
H661	H66	0.575300	0.381100	0.661600
C1031	C103	0.784700	0.288400	0.822600
H671	H67	0.823300	0.317800	0.844300
C1041	C104	0.754500	0.294900	0.763800
H681	H68	0.773400	0.329900	0.746300
C1051	C105	0.288400	0.446600	0.260400
H691	H69	0.311400	0.422300	0.241300
C1061	C106	0.221900	0.516700	0.317400
H701	H70	0.197600	0.540300	0.335600
C1071	C107	0.671500	0.208100	0.756400
H711	H71	0.632000	0.180900	0.733700
C1081	C108	0.697700	0.198500	0.815700
H721	H72	0.675900	0.166700	0.832400
N251	N25	0.704600	0.030200	0.083200
N261	N26	0.060600	0.383600	0.088900
N271	N27	0.699300	0.254000	0.729900
N281	N28	0.762100	0.177200	0.937900
N291	N29	0.851800	0.210500	0.028400
N301	N30	0.847300	0.266900	0.941700
N311	N31	0.586200	0.342700	0.593500
N321	N32	0.224300	0.471200	0.229100
N331	N33	0.220200	0.686900	0.578700
N341	N34	0.377000	0.462800	0.442100
N351	N35	0.288700	0.549600	0.436100
N361	N36	0.373900	0.512200	0.527600
Ag71	Ag7	0.155730	0.457310	0.132530
Ag81	Ag8	0.177510	0.754330	0.633090
C1091	C109	0.902300	0.971000	0.500100
C1101	C110	0.722700	0.138100	0.491300
H731	H73	0.702000	0.134800	0.451100
C1111	C111	0.202200	0.583900	0.995400
H741	H74	0.180100	0.587800	0.955400
C1121	C112	0.376500	0.756700	0.999000
C1131	C113	0.440300	0.801600	0.031200
C1141	C114	0.996800	0.884300	0.504700
H751	H75	0.977400	0.883300	0.464500
C1151	C115	0.055900	0.844200	0.536100
H761	H76	0.075900	0.816400	0.515900
C1161	C116	0.290300	0.726200	0.913300
C1171	C117	0.467300	0.811300	0.089900
H771	H77	0.445800	0.790100	0.111200
C1181	C118	0.818000	0.052600	0.494000
C1191	C119	0.966600	0.926200	0.534100
C1201	C120	0.264500	0.564300	0.111800
H781	H78	0.286200	0.556800	0.151600
C1211	C121	0.779700	0.152900	0.608400
H791	H79	0.799600	0.157800	0.648500
C1221	C122	0.256900	0.737100	0.849500
C1231	C123	0.821000	0.956300	0.319600
H801	H80	0.865200	0.939100	0.339800
C1241	C124	0.819800	0.001900	0.413000
C1251	C125	0.785100	0.101200	0.523200
C1261	C126	0.264800	0.621100	0.026400
C1271	C127	0.474100	0.835100	0.001200
H811	H81	0.456800	0.830700	0.961200
C1281	C128	0.296200	0.610000	0.085800
H821	H82	0.337900	0.633100	0.107700
C1291	C129	0.813600	0.110000	0.582100
H831	H83	0.855500	0.087500	0.604400
C1301	C130	0.295000	0.672000	0.995900
C1311	C131	0.787600	0.991900	0.348800
C1321	C132	0.526700	0.853000	0.116600
H841	H84	0.544200	0.860200	0.156400
C1331	C133	0.174600	0.541300	0.026600
H851	H85	0.132100	0.519000	0.006400
C1341	C134	0.692400	0.180200	0.521500
H861	H86	0.650900	0.204500	0.500500
C1351	C135	0.533100	0.874800	0.031900
H871	H87	0.555500	0.897000	0.011600
C1361	C136	0.693200	0.005200	0.258100
H881	H88	0.649200	0.022400	0.237200
C1371	C137	0.998200	0.927900	0.593700
H891	H89	0.980800	0.958400	0.614700
C1381	C138	0.056100	0.883300	0.621500
H901	H90	0.075300	0.881100	0.661600
C1391	C139	0.284700	0.788400	0.822600
H911	H91	0.323300	0.817800	0.844300
C1401	C140	0.254500	0.794900	0.763800
H921	H92	0.273400	0.829900	0.746300
C1411	C141	0.788400	0.946600	0.260400
H931	H93	0.811400	0.922300	0.241300
C1421	C142	0.721900	0.016700	0.317400
H941	H94	0.697600	0.040300	0.335600
C1431	C143	0.171500	0.708100	0.756400
H951	H95	0.132000	0.680900	0.733700
C1441	C144	0.197700	0.698500	0.815700
H961	H96	0.175900	0.666700	0.832400
N371	N37	0.204600	0.530200	0.083200
N381	N38	0.560600	0.883600	0.088900
N391	N39	0.199300	0.754000	0.729900
N401	N40	0.262100	0.677200	0.937900
N411	N41	0.351800	0.710500	0.028400
N421	N42	0.347300	0.766900	0.941700
N431	N43	0.086200	0.842700	0.593500
N441	N44	0.724300	0.971200	0.229100
N451	N45	0.720200	0.186900	0.578700
N461	N46	0.877000	0.962800	0.442100
N471	N47	0.788700	0.049600	0.436100
N481	N48	0.873900	0.012200	0.527600
Ag91	Ag9	0.655730	0.042690	0.632530
Ag101	Ag10	0.677510	0.745670	0.133090
C1451	C145	0.402300	0.529000	0.000100
C1461	C146	0.222700	0.361900	0.991300
H971	H97	0.202000	0.365200	0.951100
C1471	C147	0.702200	0.916100	0.495400
H981	H98	0.680100	0.912200	0.455400
C1481	C148	0.876500	0.743300	0.499000
C1491	C149	0.940300	0.698400	0.531200
C1501	C150	0.496800	0.615700	0.004700
H991	H99	0.477400	0.616700	0.964500
C1511	C151	0.555900	0.655800	0.036100
H1001	H100	0.575900	0.683600	0.015900
C1521	C152	0.790300	0.773800	0.413300
C1531	C153	0.967300	0.688700	0.589900
H1011	H101	0.945800	0.709900	0.611200
C1541	C154	0.318000	0.447400	0.994000
C1551	C155	0.466600	0.573800	0.034100
C1561	C156	0.764500	0.935700	0.611800
H1021	H102	0.786200	0.943200	0.651600
C1571	C157	0.279700	0.347100	0.108400
H1031	H103	0.299600	0.342200	0.148500
C1581	C158	0.756900	0.762900	0.349500
C1591	C159	0.321000	0.543700	0.819600
H1041	H104	0.365200	0.560900	0.839800
C1601	C160	0.319800	0.498100	0.913000
C1611	C161	0.285100	0.398800	0.023200
C1621	C162	0.764800	0.878900	0.526400
C1631	C163	0.974100	0.664900	0.501200
H1051	H105	0.956800	0.669300	0.461200
C1641	C164	0.796200	0.890000	0.585800
H1061	H106	0.837900	0.866900	0.607700
C1651	C165	0.313600	0.390000	0.082100
H1071	H107	0.355500	0.412500	0.104400
C1661	C166	0.795000	0.828000	0.495900
C1671	C167	0.287600	0.508100	0.848800
C1681	C168	0.026700	0.647000	0.616600
H1081	H108	0.044200	0.639800	0.656400
C1691	C169	0.674600	0.958700	0.526600
H1091	H109	0.632100	0.981000	0.506400
C1701	C170	0.192400	0.319800	0.021500
H1101	H110	0.150900	0.295500	0.000500
C1711	C171	0.033100	0.625200	0.531900
H1111	H111	0.055500	0.603000	0.511600
C1721	C172	0.193200	0.494800	0.758100
H1121	H112	0.149200	0.477600	0.737200
C1731	C173	0.498200	0.572100	0.093700
H1131	H113	0.480800	0.541600	0.114700
C1741	C174	0.556100	0.616700	0.121500
H1141	H114	0.575300	0.618900	0.161600
C1751	C175	0.784700	0.711600	0.322600
H1151	H115	0.823300	0.682200	0.344300
C1761	C176	0.754500	0.705100	0.263800
H1161	H116	0.773400	0.670100	0.246300
C1771	C177	0.288400	0.553400	0.760400
H1171	H117	0.311400	0.577700	0.741300
C1781	C178	0.221900	0.483300	0.817400
H1181	H118	0.197600	0.459700	0.835600
C1791	C179	0.671500	0.791900	0.256400
H1191	H119	0.632000	0.819100	0.233700
C1801	C180	0.697700	0.801500	0.315700
H1201	H120	0.675900	0.833300	0.332400
N491	N49	0.704600	0.969800	0.583200
N501	N50	0.060600	0.616400	0.588900
N511	N51	0.699300	0.746000	0.229900
N521	N52	0.762100	0.822800	0.437900
N531	N53	0.851800	0.789500	0.528400
N541	N54	0.847300	0.733100	0.441700
N551	N55	0.586200	0.657300	0.093500
N561	N56	0.224300	0.528800	0.729100
N571	N57	0.220200	0.313100	0.078700
N581	N58	0.377000	0.537200	0.942100
N591	N59	0.288700	0.450400	0.936100
N601	N60	0.373900	0.487800	0.027600
Ag111	Ag11	0.155730	0.542690	0.632530
Ag121	Ag12	0.177510	0.245670	0.133090
C1811	C181	0.902300	0.029000	0.000100
C1821	C182	0.722700	0.861900	0.991300
H1211	H121	0.702000	0.865200	0.951100
C1831	C183	0.202200	0.416100	0.495400
H1221	H122	0.180100	0.412200	0.455400
C1841	C184	0.376500	0.243300	0.499000
C1851	C185	0.440300	0.198400	0.531200
C1861	C186	0.996800	0.115700	0.004700
H1231	H123	0.977400	0.116700	0.964500
C1871	C187	0.055900	0.155800	0.036100
H1241	H124	0.075900	0.183600	0.015900
C1881	C188	0.290300	0.273800	0.413300
C1891	C189	0.467300	0.188700	0.589900
H1251	H125	0.445800	0.209900	0.611200
C1901	C190	0.818000	0.947400	0.994000
C1911	C191	0.966600	0.073800	0.034100
C1921	C192	0.264500	0.435700	0.611800
H1261	H126	0.286200	0.443200	0.651600
C1931	C193	0.779700	0.847100	0.108400
H1271	H127	0.799600	0.842200	0.148500
C1941	C194	0.256900	0.262900	0.349500
C1951	C195	0.821000	0.043700	0.819600
H1281	H128	0.865200	0.060900	0.839800
C1961	C196	0.819800	0.998100	0.913000
C1971	C197	0.785100	0.898800	0.023200
C1981	C198	0.264800	0.378900	0.526400
C1991	C199	0.474100	0.164900	0.501200
H1291	H129	0.456800	0.169300	0.461200
C2001	C200	0.296200	0.390000	0.585800
H1301	H130	0.337900	0.366900	0.607700
C2011	C201	0.813600	0.890000	0.082100
H1311	H131	0.855500	0.912500	0.104400
C2021	C202	0.295000	0.328000	0.495900
C2031	C203	0.787600	0.008100	0.848800
C2041	C204	0.526700	0.147000	0.616600
H1321	H132	0.544200	0.139800	0.656400
C2051	C205	0.174600	0.458700	0.526600
H1331	H133	0.132100	0.481000	0.506400
C2061	C206	0.692400	0.819800	0.021500
H1341	H134	0.650900	0.795500	0.000500
C2071	C207	0.533100	0.125200	0.531900
H1351	H135	0.555500	0.103000	0.511600
C2081	C208	0.693200	0.994800	0.758100
H1361	H136	0.649200	0.977600	0.737200
C2091	C209	0.998200	0.072100	0.093700
H1371	H137	0.980800	0.041600	0.114700
C2101	C210	0.056100	0.116700	0.121500
H1381	H138	0.075300	0.118900	0.161600
C2111	C211	0.284700	0.211600	0.322600
H1391	H139	0.323300	0.182200	0.344300
C2121	C212	0.254500	0.205100	0.263800
H1401	H140	0.273400	0.170100	0.246300
C2131	C213	0.788400	0.053400	0.760400
H1411	H141	0.811400	0.077700	0.741300
C2141	C214	0.721900	0.983300	0.817400
H1421	H142	0.697600	0.959700	0.835600
C2151	C215	0.171500	0.291900	0.256400
H1431	H143	0.132000	0.319100	0.233700
C2161	C216	0.197700	0.301500	0.315700
H1441	H144	0.175900	0.333300	0.332400
N611	N61	0.204600	0.469800	0.583200
N621	N62	0.560600	0.116400	0.588900
N631	N63	0.199300	0.246000	0.229900
N641	N64	0.262100	0.322800	0.437900
N651	N65	0.351800	0.289500	0.528400
N661	N66	0.347300	0.233100	0.441700
N671	N67	0.086200	0.157300	0.093500
N681	N68	0.724300	0.028800	0.729100
N691	N69	0.720200	0.813100	0.078700
N701	N70	0.877000	0.037200	0.942100
N711	N71	0.788700	0.950400	0.936100
N721	N72	0.873900	0.987800	0.027600
Ag131	Ag13	0.344270	0.042690	0.867470
Ag141	Ag14	0.322490	0.745670	0.366910
C2171	C217	0.597700	0.529000	0.499900
C2181	C218	0.777300	0.361900	0.508700
H1451	H145	0.798000	0.365200	0.548900
C2191	C219	0.297800	0.916100	0.004600
H1461	H146	0.319900	0.912200	0.044600
C2201	C220	0.123500	0.743300	0.001000
C2211	C221	0.059700	0.698400	0.968800
C2221	C222	0.503200	0.615700	0.495300
H1471	H147	0.522600	0.616700	0.535500
C2231	C223	0.444100	0.655800	0.463900
H1481	H148	0.424100	0.683600	0.484100
C2241	C224	0.209700	0.773800	0.086700
C2251	C225	0.032700	0.688700	0.910100
H1491	H149	0.054200	0.709900	0.888800
C2261	C226	0.682000	0.447400	0.506000
C2271	C227	0.533400	0.573800	0.465900
C2281	C228	0.235500	0.935700	0.888200
H1501	H150	0.213800	0.943200	0.848400
C2291	C229	0.720300	0.347100	0.391600
H1511	H151	0.700400	0.342200	0.351500
C2301	C230	0.243100	0.762900	0.150500
C2311	C231	0.679000	0.543700	0.680400
H1521	H152	0.634800	0.560900	0.660200
C2321	C232	0.680200	0.498100	0.587000
C2331	C233	0.714900	0.398800	0.476800
C2341	C234	0.235200	0.878900	0.973600
C2351	C235	0.025900	0.664900	0.998800
H1531	H153	0.043200	0.669300	0.038800
C2361	C236	0.203800	0.890000	0.914200
H1541	H154	0.162100	0.866900	0.892300
C2371	C237	0.686400	0.390000	0.417900
H1551	H155	0.644500	0.412500	0.395600
C2381	C238	0.205000	0.828000	0.004100
C2391	C239	0.712400	0.508100	0.651200
C2401	C240	0.973300	0.647000	0.883400
H1561	H156	0.955800	0.639800	0.843600
C2411	C241	0.325400	0.958700	0.973400
H1571	H157	0.367900	0.981000	0.993600
C2421	C242	0.807600	0.319800	0.478500
H1581	H158	0.849100	0.295500	0.499500
C2431	C243	0.966900	0.625200	0.968100
H1591	H159	0.944500	0.603000	0.988400
C2441	C244	0.806800	0.494800	0.741900
H1601	H160	0.850800	0.477600	0.762800
C2451	C245	0.501800	0.572100	0.406300
H1611	H161	0.519200	0.541600	0.385300
C2461	C246	0.443900	0.616700	0.378500
H1621	H162	0.424700	0.618900	0.338400
C2471	C247	0.215300	0.711600	0.177400
H1631	H163	0.176700	0.682200	0.155700
C2481	C248	0.245500	0.705100	0.236200
H1641	H164	0.226600	0.670100	0.253700
C2491	C249	0.711600	0.553400	0.739600
H1651	H165	0.688600	0.577700	0.758700
C2501	C250	0.778100	0.483300	0.682600
H1661	H166	0.802400	0.459700	0.664400
C2511	C251	0.328500	0.791900	0.243600
H1671	H167	0.368000	0.819100	0.266300
C2521	C252	0.302300	0.801500	0.184300
H1681	H168	0.324100	0.833300	0.167600
N731	N73	0.295400	0.969800	0.916800
N741	N74	0.939400	0.616400	0.911100
N751	N75	0.300700	0.746000	0.270100
N761	N76	0.237900	0.822800	0.062100
N771	N77	0.148200	0.789500	0.971600
N781	N78	0.152700	0.733100	0.058300
N791	N79	0.413800	0.657300	0.406500
N801	N80	0.775700	0.528800	0.770900
N811	N81	0.779800	0.313100	0.421300
N821	N82	0.623000	0.537200	0.557900
N831	N83	0.711300	0.450400	0.563900
N841	N84	0.626100	0.487800	0.472400
Ag151	Ag15	0.844270	0.542690	0.867470
Ag161	Ag16	0.822490	0.245670	0.366910
C2531	C253	0.097700	0.029000	0.499900
C2541	C254	0.277300	0.861900	0.508700
H1691	H169	0.298000	0.865200	0.548900
C2551	C255	0.797800	0.416100	0.004600
H1701	H170	0.819900	0.412200	0.044600
C2561	C256	0.623500	0.243300	0.001000
C2571	C257	0.559700	0.198400	0.968800
C2581	C258	0.003200	0.115700	0.495300
H1711	H171	0.022600	0.116700	0.535500
C2591	C259	0.944100	0.155800	0.463900
H1721	H172	0.924100	0.183600	0.484100
C2601	C260	0.709700	0.273800	0.086700
C2611	C261	0.532700	0.188700	0.910100
H1731	H173	0.554200	0.209900	0.888800
C2621	C262	0.182000	0.947400	0.506000
C2631	C263	0.033400	0.073800	0.465900
C2641	C264	0.735500	0.435700	0.888200
H1741	H174	0.713800	0.443200	0.848400
C2651	C265	0.220300	0.847100	0.391600
H1751	H175	0.200400	0.842200	0.351500
C2661	C266	0.743100	0.262900	0.150500
C2671	C267	0.179000	0.043700	0.680400
H1761	H176	0.134800	0.060900	0.660200
C2681	C268	0.180200	0.998100	0.587000
C2691	C269	0.214900	0.898800	0.476800
C2701	C270	0.735200	0.378900	0.973600
C2711	C271	0.525900	0.164900	0.998800
H1771	H177	0.543200	0.169300	0.038800
C2721	C272	0.703800	0.390000	0.914200
H1781	H178	0.662100	0.366900	0.892300
C2731	C273	0.186400	0.890000	0.417900
H1791	H179	0.144500	0.912500	0.395600
C2741	C274	0.705000	0.328000	0.004100
C2751	C275	0.212400	0.008100	0.651200
C2761	C276	0.473300	0.147000	0.883400
H1801	H180	0.455800	0.139800	0.843600
C2771	C277	0.825400	0.458700	0.973400
H1811	H181	0.867900	0.481000	0.993600
C2781	C278	0.307600	0.819800	0.478500
H1821	H182	0.349100	0.795500	0.499500
C2791	C279	0.466900	0.125200	0.968100
H1831	H183	0.444500	0.103000	0.988400
C2801	C280	0.306800	0.994800	0.741900
H1841	H184	0.350800	0.977600	0.762800
C2811	C281	0.001800	0.072100	0.406300
H1851	H185	0.019200	0.041600	0.385300
C2821	C282	0.943900	0.116700	0.378500
H1861	H186	0.924700	0.118900	0.338400
C2831	C283	0.715300	0.211600	0.177400
H1871	H187	0.676700	0.182200	0.155700
C2841	C284	0.745500	0.205100	0.236200
H1881	H188	0.726600	0.170100	0.253700
C2851	C285	0.211600	0.053400	0.739600
H1891	H189	0.188600	0.077700	0.758700
C2861	C286	0.278100	0.983300	0.682600
H1901	H190	0.302400	0.959700	0.664400
C2871	C287	0.828500	0.291900	0.243600
H1911	H191	0.868000	0.319100	0.266300
C2881	C288	0.802300	0.301500	0.184300
H1921	H192	0.824100	0.333300	0.167600
N851	N85	0.795400	0.469800	0.916800
N861	N86	0.439400	0.116400	0.911100
N871	N87	0.800700	0.246000	0.270100
N881	N88	0.737900	0.322800	0.062100
N891	N89	0.648200	0.289500	0.971600
N901	N90	0.652700	0.233100	0.058300
N911	N91	0.913800	0.157300	0.406500
N921	N92	0.275700	0.028800	0.770900
N931	N93	0.279800	0.813100	0.421300
N941	N94	0.123000	0.037200	0.557900
N951	N95	0.211300	0.950400	0.563900
N961	N96	0.126100	0.987800	0.472400
