data_QOFDOG_freeONLY_PM
_symmetry_space_group_name_H-M	'P1'
_cell_length_a	21.971700
_cell_length_b	16.669200
_cell_length_c	25.628900
_cell_angle_alpha	90.000000
_cell_angle_beta	115.344000
_cell_angle_gamma	90.000000
_symmetry_Int_Tables_number 1

loop_
_symmetry_equiv_pos_as_xyz
'x,y,z'

loop_
_atom_site_label
_atom_site_type_symbol
_atom_site_fract_x
_atom_site_fract_y
_atom_site_fract_z
Ag11	Ag1	0.273710	0.208960	0.868080
Ag21	Ag2	0.295390	0.002440	0.367560
C11	C1	0.922100	0.399700	0.392000
H11	H1	0.901700	0.403400	0.351900
C21	C2	0.153500	0.220000	0.500800
C31	C3	0.127600	0.061400	0.910900
H21	H2	0.084900	0.040100	0.889600
C41	C4	0.128000	0.007200	0.001900
C51	C5	0.981700	0.387000	0.509000
H31	H3	0.000900	0.383600	0.549100
C61	C6	0.903000	0.815400	0.888900
H41	H4	0.885300	0.808300	0.849100
C71	C7	0.074800	0.301500	0.506300
C81	C8	0.243400	0.133400	0.496500
H51	H5	0.263700	0.132300	0.536700
C91	C9	0.271100	0.093200	0.464800
H61	H6	0.311300	0.065800	0.484800
C101	C10	0.222800	0.085000	0.999000
H71	H7	0.246000	0.079900	0.038800
C111	C11	0.159600	0.051700	0.969500
C121	C12	0.127400	0.975900	0.087500
C131	C13	0.158300	0.985600	0.151200
C141	C14	0.960600	0.861300	0.915300
H81	H8	0.980400	0.884400	0.893400
C151	C15	0.183900	0.175700	0.466300
C161	C16	0.190000	0.242400	0.651400
C171	C17	0.250700	0.125900	0.967800
H91	H9	0.292800	0.149000	0.988100
C181	C18	0.982100	0.358000	0.418300
H101	H10	0.001700	0.335500	0.396000
C191	C19	0.957200	0.833800	0.005100
H111	H11	0.975000	0.837100	0.045200
C201	C20	0.252000	0.207300	0.680500
H121	H12	0.275900	0.189600	0.660200
C211	C21	0.049500	0.922800	0.005100
C221	C22	0.279100	0.198200	0.739900
H131	H13	0.321100	0.174300	0.758900
C231	C23	0.160600	0.103900	0.884300
H141	H14	0.138200	0.111400	0.844600
C241	C24	0.012600	0.349900	0.477000
C251	C25	0.155800	0.268200	0.683200
H151	H15	0.113600	0.292100	0.665400
C261	C26	0.158300	0.251600	0.587400
C271	C27	0.899000	0.790700	0.974300
H161	H16	0.877700	0.766900	0.994900
C281	C28	0.187100	0.256600	0.742400
H171	H17	0.164300	0.274100	0.763700
C291	C29	0.155200	0.175200	0.407000
H181	H18	0.116000	0.204000	0.386000
C301	C30	0.922200	0.428600	0.479300
H191	H19	0.902200	0.453400	0.500500
C311	C31	0.241200	0.043900	0.236800
H201	H20	0.276700	0.079600	0.254200
C321	C32	0.211800	0.037700	0.177400
H211	H21	0.227700	0.068000	0.155400
C331	C33	0.133300	0.944900	0.184600
H221	H22	0.095100	0.912800	0.168000
C341	C34	0.988800	0.872700	0.974700
C351	C35	0.167400	0.953800	0.244200
H231	H23	0.151600	0.924900	0.267000
C361	C36	0.185900	0.131200	0.379500
H241	H24	0.165200	0.129200	0.339400
N11	N1	0.222000	0.134600	0.911600
N21	N2	0.871400	0.780800	0.917500
N31	N3	0.220600	0.000200	0.270900
N41	N4	0.074000	0.960700	0.972100
N51	N5	0.074700	0.927400	0.062600
N61	N6	0.155800	0.017500	0.058700
N71	N7	0.243800	0.091000	0.407200
N81	N8	0.892000	0.435200	0.422000
N91	N9	0.246400	0.223000	0.771100
N101	N10	0.097100	0.260800	0.472700
N111	N11	0.103600	0.299300	0.564000
N121	N12	0.186100	0.212600	0.558400
Ag31	Ag3	0.773710	0.708960	0.868080
Ag41	Ag4	0.795390	0.502440	0.367560
C371	C37	0.422100	0.899700	0.392000
H251	H25	0.401700	0.903400	0.351900
C381	C38	0.653500	0.720000	0.500800
C391	C39	0.627600	0.561400	0.910900
H261	H26	0.584900	0.540100	0.889600
C401	C40	0.628000	0.507200	0.001900
C411	C41	0.481700	0.887000	0.509000
H271	H27	0.500900	0.883600	0.549100
C421	C42	0.403000	0.315400	0.888900
H281	H28	0.385300	0.308300	0.849100
C431	C43	0.574800	0.801500	0.506300
C441	C44	0.743400	0.633400	0.496500
H291	H29	0.763700	0.632300	0.536700
C451	C45	0.771100	0.593200	0.464800
H301	H30	0.811300	0.565800	0.484800
C461	C46	0.722800	0.585000	0.999000
H311	H31	0.746000	0.579900	0.038800
C471	C47	0.659600	0.551700	0.969500
C481	C48	0.627400	0.475900	0.087500
C491	C49	0.658300	0.485600	0.151200
C501	C50	0.460600	0.361300	0.915300
H321	H32	0.480400	0.384400	0.893400
C511	C51	0.683900	0.675700	0.466300
C521	C52	0.690000	0.742400	0.651400
C531	C53	0.750700	0.625900	0.967800
H331	H33	0.792800	0.649000	0.988100
C541	C54	0.482100	0.858000	0.418300
H341	H34	0.501700	0.835500	0.396000
C551	C55	0.457200	0.333800	0.005100
H351	H35	0.475000	0.337100	0.045200
C561	C56	0.752000	0.707300	0.680500
H361	H36	0.775900	0.689600	0.660200
C571	C57	0.549500	0.422800	0.005100
C581	C58	0.779100	0.698200	0.739900
H371	H37	0.821100	0.674300	0.758900
C591	C59	0.660600	0.603900	0.884300
H381	H38	0.638200	0.611400	0.844600
C601	C60	0.512600	0.849900	0.477000
C611	C61	0.655800	0.768200	0.683200
H391	H39	0.613600	0.792100	0.665400
C621	C62	0.658300	0.751600	0.587400
C631	C63	0.399000	0.290700	0.974300
H401	H40	0.377700	0.266900	0.994900
C641	C64	0.687100	0.756600	0.742400
H411	H41	0.664300	0.774100	0.763700
C651	C65	0.655200	0.675200	0.407000
H421	H42	0.616000	0.704000	0.386000
C661	C66	0.422200	0.928600	0.479300
H431	H43	0.402200	0.953400	0.500500
C671	C67	0.741200	0.543900	0.236800
H441	H44	0.776700	0.579600	0.254200
C681	C68	0.711800	0.537700	0.177400
H451	H45	0.727700	0.568000	0.155400
C691	C69	0.633300	0.444900	0.184600
H461	H46	0.595100	0.412800	0.168000
C701	C70	0.488800	0.372700	0.974700
C711	C71	0.667400	0.453800	0.244200
H471	H47	0.651600	0.424900	0.267000
C721	C72	0.685900	0.631200	0.379500
H481	H48	0.665200	0.629200	0.339400
N131	N13	0.722000	0.634600	0.911600
N141	N14	0.371400	0.280800	0.917500
N151	N15	0.720600	0.500200	0.270900
N161	N16	0.574000	0.460700	0.972100
N171	N17	0.574700	0.427400	0.062600
N181	N18	0.655800	0.517500	0.058700
N191	N19	0.743800	0.591000	0.407200
N201	N20	0.392000	0.935200	0.422000
N211	N21	0.746400	0.723000	0.771100
N221	N22	0.597100	0.760800	0.472700
N231	N23	0.603600	0.799300	0.564000
N241	N24	0.686100	0.712600	0.558400
Ag51	Ag5	0.726290	0.208960	0.631920
Ag61	Ag6	0.704610	0.002440	0.132440
C731	C73	0.077900	0.399700	0.108000
H491	H49	0.098300	0.403400	0.148100
C741	C74	0.846500	0.220000	0.999200
C751	C75	0.872400	0.061400	0.589100
H501	H50	0.915100	0.040100	0.610400
C761	C76	0.872000	0.007200	0.498100
C771	C77	0.018300	0.387000	0.991000
H511	H51	0.999100	0.383600	0.950900
C781	C78	0.097000	0.815400	0.611100
H521	H52	0.114700	0.808300	0.650900
C791	C79	0.925200	0.301500	0.993700
C801	C80	0.756600	0.133400	0.003500
H531	H53	0.736300	0.132300	0.963300
C811	C81	0.728900	0.093200	0.035200
H541	H54	0.688700	0.065800	0.015200
C821	C82	0.777200	0.085000	0.501000
H551	H55	0.754000	0.079900	0.461200
C831	C83	0.840400	0.051700	0.530500
C841	C84	0.872600	0.975900	0.412500
C851	C85	0.841700	0.985600	0.348800
C861	C86	0.039400	0.861300	0.584700
H561	H56	0.019600	0.884400	0.606600
C871	C87	0.816100	0.175700	0.033700
C881	C88	0.810000	0.242400	0.848600
C891	C89	0.749300	0.125900	0.532200
H571	H57	0.707200	0.149000	0.511900
C901	C90	0.017900	0.358000	0.081700
H581	H58	0.998300	0.335500	0.104000
C911	C91	0.042800	0.833800	0.494900
H591	H59	0.025000	0.837100	0.454800
C921	C92	0.748000	0.207300	0.819500
H601	H60	0.724100	0.189600	0.839800
C931	C93	0.950500	0.922800	0.494900
C941	C94	0.720900	0.198200	0.760100
H611	H61	0.678900	0.174300	0.741100
C951	C95	0.839400	0.103900	0.615700
H621	H62	0.861800	0.111400	0.655400
C961	C96	0.987400	0.349900	0.023000
C971	C97	0.844200	0.268200	0.816800
H631	H63	0.886400	0.292100	0.834600
C981	C98	0.841700	0.251600	0.912600
C991	C99	0.101000	0.790700	0.525700
H641	H64	0.122300	0.766900	0.505100
C1001	C100	0.812900	0.256600	0.757600
H651	H65	0.835700	0.274100	0.736300
C1011	C101	0.844800	0.175200	0.093000
H661	H66	0.884000	0.204000	0.114000
C1021	C102	0.077800	0.428600	0.020700
H671	H67	0.097800	0.453400	0.999500
C1031	C103	0.758800	0.043900	0.263200
H681	H68	0.723300	0.079600	0.245800
C1041	C104	0.788200	0.037700	0.322600
H691	H69	0.772300	0.068000	0.344600
C1051	C105	0.866700	0.944900	0.315400
H701	H70	0.904900	0.912800	0.332000
C1061	C106	0.011200	0.872700	0.525300
C1071	C107	0.832600	0.953800	0.255800
H711	H71	0.848400	0.924900	0.233000
C1081	C108	0.814100	0.131200	0.120500
H721	H72	0.834800	0.129200	0.160600
N251	N25	0.778000	0.134600	0.588400
N261	N26	0.128600	0.780800	0.582500
N271	N27	0.779400	0.000200	0.229100
N281	N28	0.926000	0.960700	0.527900
N291	N29	0.925300	0.927400	0.437400
N301	N30	0.844200	0.017500	0.441300
N311	N31	0.756200	0.091000	0.092800
N321	N32	0.108000	0.435200	0.078000
N331	N33	0.753600	0.223000	0.728900
N341	N34	0.902900	0.260800	0.027300
N351	N35	0.896400	0.299300	0.936000
N361	N36	0.813900	0.212600	0.941600
Ag71	Ag7	0.226290	0.708960	0.631920
Ag81	Ag8	0.204610	0.502440	0.132440
C1091	C109	0.577900	0.899700	0.108000
H731	H73	0.598300	0.903400	0.148100
C1101	C110	0.346500	0.720000	0.999200
C1111	C111	0.372400	0.561400	0.589100
H741	H74	0.415100	0.540100	0.610400
C1121	C112	0.372000	0.507200	0.498100
C1131	C113	0.518300	0.887000	0.991000
H751	H75	0.499100	0.883600	0.950900
C1141	C114	0.597000	0.315400	0.611100
H761	H76	0.614700	0.308300	0.650900
C1151	C115	0.425200	0.801500	0.993700
C1161	C116	0.256600	0.633400	0.003500
H771	H77	0.236300	0.632300	0.963300
C1171	C117	0.228900	0.593200	0.035200
H781	H78	0.188700	0.565800	0.015200
C1181	C118	0.277200	0.585000	0.501000
H791	H79	0.254000	0.579900	0.461200
C1191	C119	0.340400	0.551700	0.530500
C1201	C120	0.372600	0.475900	0.412500
C1211	C121	0.341700	0.485600	0.348800
C1221	C122	0.539400	0.361300	0.584700
H801	H80	0.519600	0.384400	0.606600
C1231	C123	0.316100	0.675700	0.033700
C1241	C124	0.310000	0.742400	0.848600
C1251	C125	0.249300	0.625900	0.532200
H811	H81	0.207200	0.649000	0.511900
C1261	C126	0.517900	0.858000	0.081700
H821	H82	0.498300	0.835500	0.104000
C1271	C127	0.542800	0.333800	0.494900
H831	H83	0.525000	0.337100	0.454800
C1281	C128	0.248000	0.707300	0.819500
H841	H84	0.224100	0.689600	0.839800
C1291	C129	0.450500	0.422800	0.494900
C1301	C130	0.220900	0.698200	0.760100
H851	H85	0.178900	0.674300	0.741100
C1311	C131	0.339400	0.603900	0.615700
H861	H86	0.361800	0.611400	0.655400
C1321	C132	0.487400	0.849900	0.023000
C1331	C133	0.344200	0.768200	0.816800
H871	H87	0.386400	0.792100	0.834600
C1341	C134	0.341700	0.751600	0.912600
C1351	C135	0.601000	0.290700	0.525700
H881	H88	0.622300	0.266900	0.505100
C1361	C136	0.312900	0.756600	0.757600
H891	H89	0.335700	0.774100	0.736300
C1371	C137	0.344800	0.675200	0.093000
H901	H90	0.384000	0.704000	0.114000
C1381	C138	0.577800	0.928600	0.020700
H911	H91	0.597800	0.953400	0.999500
C1391	C139	0.258800	0.543900	0.263200
H921	H92	0.223300	0.579600	0.245800
C1401	C140	0.288200	0.537700	0.322600
H931	H93	0.272300	0.568000	0.344600
C1411	C141	0.366700	0.444900	0.315400
H941	H94	0.404900	0.412800	0.332000
C1421	C142	0.511200	0.372700	0.525300
C1431	C143	0.332600	0.453800	0.255800
H951	H95	0.348400	0.424900	0.233000
C1441	C144	0.314100	0.631200	0.120500
H961	H96	0.334800	0.629200	0.160600
N371	N37	0.278000	0.634600	0.588400
N381	N38	0.628600	0.280800	0.582500
N391	N39	0.279400	0.500200	0.229100
N401	N40	0.426000	0.460700	0.527900
N411	N41	0.425300	0.427400	0.437400
N421	N42	0.344200	0.517500	0.441300
N431	N43	0.256200	0.591000	0.092800
N441	N44	0.608000	0.935200	0.078000
N451	N45	0.253600	0.723000	0.728900
N461	N46	0.402900	0.760800	0.027300
N471	N47	0.396400	0.799300	0.936000
N481	N48	0.313900	0.712600	0.941600
Ag91	Ag9	0.726290	0.791040	0.131920
Ag101	Ag10	0.704610	0.997560	0.632440
C1451	C145	0.077900	0.600300	0.608000
H971	H97	0.098300	0.596600	0.648100
C1461	C146	0.846500	0.780000	0.499200
C1471	C147	0.872400	0.938600	0.089100
H981	H98	0.915100	0.959900	0.110400
C1481	C148	0.872000	0.992800	0.998100
C1491	C149	0.018300	0.613000	0.491000
H991	H99	0.999100	0.616400	0.450900
C1501	C150	0.097000	0.184600	0.111100
H1001	H100	0.114700	0.191700	0.150900
C1511	C151	0.925200	0.698500	0.493700
C1521	C152	0.756600	0.866600	0.503500
H1011	H101	0.736300	0.867700	0.463300
C1531	C153	0.728900	0.906800	0.535200
H1021	H102	0.688700	0.934200	0.515200
C1541	C154	0.777200	0.915000	0.001000
H1031	H103	0.754000	0.920100	0.961200
C1551	C155	0.840400	0.948300	0.030500
C1561	C156	0.872600	0.024100	0.912500
C1571	C157	0.841700	0.014400	0.848800
C1581	C158	0.039400	0.138700	0.084700
H1041	H104	0.019600	0.115600	0.106600
C1591	C159	0.816100	0.824300	0.533700
C1601	C160	0.810000	0.757600	0.348600
C1611	C161	0.749300	0.874100	0.032200
H1051	H105	0.707200	0.851000	0.011900
C1621	C162	0.017900	0.642000	0.581700
H1061	H106	0.998300	0.664500	0.604000
C1631	C163	0.042800	0.166200	0.994900
H1071	H107	0.025000	0.162900	0.954800
C1641	C164	0.748000	0.792700	0.319500
H1081	H108	0.724100	0.810400	0.339800
C1651	C165	0.950500	0.077200	0.994900
C1661	C166	0.720900	0.801800	0.260100
H1091	H109	0.678900	0.825700	0.241100
C1671	C167	0.839400	0.896100	0.115700
H1101	H110	0.861800	0.888600	0.155400
C1681	C168	0.987400	0.650100	0.523000
C1691	C169	0.844200	0.731800	0.316800
H1111	H111	0.886400	0.707900	0.334600
C1701	C170	0.841700	0.748400	0.412600
C1711	C171	0.101000	0.209300	0.025700
H1121	H112	0.122300	0.233100	0.005100
C1721	C172	0.812900	0.743400	0.257600
H1131	H113	0.835700	0.725900	0.236300
C1731	C173	0.844800	0.824800	0.593000
H1141	H114	0.884000	0.796000	0.614000
C1741	C174	0.077800	0.571400	0.520700
H1151	H115	0.097800	0.546600	0.499500
C1751	C175	0.758800	0.956100	0.763200
H1161	H116	0.723300	0.920400	0.745800
C1761	C176	0.788200	0.962300	0.822600
H1171	H117	0.772300	0.932000	0.844600
C1771	C177	0.866700	0.055100	0.815400
H1181	H118	0.904900	0.087200	0.832000
C1781	C178	0.011200	0.127300	0.025300
C1791	C179	0.832600	0.046200	0.755800
H1191	H119	0.848400	0.075100	0.733000
C1801	C180	0.814100	0.868800	0.620500
H1201	H120	0.834800	0.870800	0.660600
N491	N49	0.778000	0.865400	0.088400
N501	N50	0.128600	0.219200	0.082500
N511	N51	0.779400	0.999800	0.729100
N521	N52	0.926000	0.039300	0.027900
N531	N53	0.925300	0.072600	0.937400
N541	N54	0.844200	0.982500	0.941300
N551	N55	0.756200	0.909000	0.592800
N561	N56	0.108000	0.564800	0.578000
N571	N57	0.753600	0.777000	0.228900
N581	N58	0.902900	0.739200	0.527300
N591	N59	0.896400	0.700700	0.436000
N601	N60	0.813900	0.787400	0.441600
Ag111	Ag11	0.226290	0.291040	0.131920
Ag121	Ag12	0.204610	0.497560	0.632440
C1811	C181	0.577900	0.100300	0.608000
H1211	H121	0.598300	0.096600	0.648100
C1821	C182	0.346500	0.280000	0.499200
C1831	C183	0.372400	0.438600	0.089100
H1221	H122	0.415100	0.459900	0.110400
C1841	C184	0.372000	0.492800	0.998100
C1851	C185	0.518300	0.113000	0.491000
H1231	H123	0.499100	0.116400	0.450900
C1861	C186	0.597000	0.684600	0.111100
H1241	H124	0.614700	0.691700	0.150900
C1871	C187	0.425200	0.198500	0.493700
C1881	C188	0.256600	0.366600	0.503500
H1251	H125	0.236300	0.367700	0.463300
C1891	C189	0.228900	0.406800	0.535200
H1261	H126	0.188700	0.434200	0.515200
C1901	C190	0.277200	0.415000	0.001000
H1271	H127	0.254000	0.420100	0.961200
C1911	C191	0.340400	0.448300	0.030500
C1921	C192	0.372600	0.524100	0.912500
C1931	C193	0.341700	0.514400	0.848800
C1941	C194	0.539400	0.638700	0.084700
H1281	H128	0.519600	0.615600	0.106600
C1951	C195	0.316100	0.324300	0.533700
C1961	C196	0.310000	0.257600	0.348600
C1971	C197	0.249300	0.374100	0.032200
H1291	H129	0.207200	0.351000	0.011900
C1981	C198	0.517900	0.142000	0.581700
H1301	H130	0.498300	0.164500	0.604000
C1991	C199	0.542800	0.666200	0.994900
H1311	H131	0.525000	0.662900	0.954800
C2001	C200	0.248000	0.292700	0.319500
H1321	H132	0.224100	0.310400	0.339800
C2011	C201	0.450500	0.577200	0.994900
C2021	C202	0.220900	0.301800	0.260100
H1331	H133	0.178900	0.325700	0.241100
C2031	C203	0.339400	0.396100	0.115700
H1341	H134	0.361800	0.388600	0.155400
C2041	C204	0.487400	0.150100	0.523000
C2051	C205	0.344200	0.231800	0.316800
H1351	H135	0.386400	0.207900	0.334600
C2061	C206	0.341700	0.248400	0.412600
C2071	C207	0.601000	0.709300	0.025700
H1361	H136	0.622300	0.733100	0.005100
C2081	C208	0.312900	0.243400	0.257600
H1371	H137	0.335700	0.225900	0.236300
C2091	C209	0.344800	0.324800	0.593000
H1381	H138	0.384000	0.296000	0.614000
C2101	C210	0.577800	0.071400	0.520700
H1391	H139	0.597800	0.046600	0.499500
C2111	C211	0.258800	0.456100	0.763200
H1401	H140	0.223300	0.420400	0.745800
C2121	C212	0.288200	0.462300	0.822600
H1411	H141	0.272300	0.432000	0.844600
C2131	C213	0.366700	0.555100	0.815400
H1421	H142	0.404900	0.587200	0.832000
C2141	C214	0.511200	0.627300	0.025300
C2151	C215	0.332600	0.546200	0.755800
H1431	H143	0.348400	0.575100	0.733000
C2161	C216	0.314100	0.368800	0.620500
H1441	H144	0.334800	0.370800	0.660600
N611	N61	0.278000	0.365400	0.088400
N621	N62	0.628600	0.719200	0.082500
N631	N63	0.279400	0.499800	0.729100
N641	N64	0.426000	0.539300	0.027900
N651	N65	0.425300	0.572600	0.937400
N661	N66	0.344200	0.482500	0.941300
N671	N67	0.256200	0.409000	0.592800
N681	N68	0.608000	0.064800	0.578000
N691	N69	0.253600	0.277000	0.228900
N701	N70	0.402900	0.239200	0.527300
N711	N71	0.396400	0.200700	0.436000
N721	N72	0.313900	0.287400	0.441600
Ag131	Ag13	0.273710	0.791040	0.368080
Ag141	Ag14	0.295390	0.997560	0.867560
C2171	C217	0.922100	0.600300	0.892000
H1451	H145	0.901700	0.596600	0.851900
C2181	C218	0.153500	0.780000	0.000800
C2191	C219	0.127600	0.938600	0.410900
H1461	H146	0.084900	0.959900	0.389600
C2201	C220	0.128000	0.992800	0.501900
C2211	C221	0.981700	0.613000	0.009000
H1471	H147	0.000900	0.616400	0.049100
C2221	C222	0.903000	0.184600	0.388900
H1481	H148	0.885300	0.191700	0.349100
C2231	C223	0.074800	0.698500	0.006300
C2241	C224	0.243400	0.866600	0.996500
H1491	H149	0.263700	0.867700	0.036700
C2251	C225	0.271100	0.906800	0.964800
H1501	H150	0.311300	0.934200	0.984800
C2261	C226	0.222800	0.915000	0.499000
H1511	H151	0.246000	0.920100	0.538800
C2271	C227	0.159600	0.948300	0.469500
C2281	C228	0.127400	0.024100	0.587500
C2291	C229	0.158300	0.014400	0.651200
C2301	C230	0.960600	0.138700	0.415300
H1521	H152	0.980400	0.115600	0.393400
C2311	C231	0.183900	0.824300	0.966300
C2321	C232	0.190000	0.757600	0.151400
C2331	C233	0.250700	0.874100	0.467800
H1531	H153	0.292800	0.851000	0.488100
C2341	C234	0.982100	0.642000	0.918300
H1541	H154	0.001700	0.664500	0.896000
C2351	C235	0.957200	0.166200	0.505100
H1551	H155	0.975000	0.162900	0.545200
C2361	C236	0.252000	0.792700	0.180500
H1561	H156	0.275900	0.810400	0.160200
C2371	C237	0.049500	0.077200	0.505100
C2381	C238	0.279100	0.801800	0.239900
H1571	H157	0.321100	0.825700	0.258900
C2391	C239	0.160600	0.896100	0.384300
H1581	H158	0.138200	0.888600	0.344600
C2401	C240	0.012600	0.650100	0.977000
C2411	C241	0.155800	0.731800	0.183200
H1591	H159	0.113600	0.707900	0.165400
C2421	C242	0.158300	0.748400	0.087400
C2431	C243	0.899000	0.209300	0.474300
H1601	H160	0.877700	0.233100	0.494900
C2441	C244	0.187100	0.743400	0.242400
H1611	H161	0.164300	0.725900	0.263700
C2451	C245	0.155200	0.824800	0.907000
H1621	H162	0.116000	0.796000	0.886000
C2461	C246	0.922200	0.571400	0.979300
H1631	H163	0.902200	0.546600	0.000500
C2471	C247	0.241200	0.956100	0.736800
H1641	H164	0.276700	0.920400	0.754200
C2481	C248	0.211800	0.962300	0.677400
H1651	H165	0.227700	0.932000	0.655400
C2491	C249	0.133300	0.055100	0.684600
H1661	H166	0.095100	0.087200	0.668000
C2501	C250	0.988800	0.127300	0.474700
C2511	C251	0.167400	0.046200	0.744200
H1671	H167	0.151600	0.075100	0.767000
C2521	C252	0.185900	0.868800	0.879500
H1681	H168	0.165200	0.870800	0.839400
N731	N73	0.222000	0.865400	0.411600
N741	N74	0.871400	0.219200	0.417500
N751	N75	0.220600	0.999800	0.770900
N761	N76	0.074000	0.039300	0.472100
N771	N77	0.074700	0.072600	0.562600
N781	N78	0.155800	0.982500	0.558700
N791	N79	0.243800	0.909000	0.907200
N801	N80	0.892000	0.564800	0.922000
N811	N81	0.246400	0.777000	0.271100
N821	N82	0.097100	0.739200	0.972700
N831	N83	0.103600	0.700700	0.064000
N841	N84	0.186100	0.787400	0.058400
Ag151	Ag15	0.773710	0.291040	0.368080
Ag161	Ag16	0.795390	0.497560	0.867560
C2531	C253	0.422100	0.100300	0.892000
H1691	H169	0.401700	0.096600	0.851900
C2541	C254	0.653500	0.280000	0.000800
C2551	C255	0.627600	0.438600	0.410900
H1701	H170	0.584900	0.459900	0.389600
C2561	C256	0.628000	0.492800	0.501900
C2571	C257	0.481700	0.113000	0.009000
H1711	H171	0.500900	0.116400	0.049100
C2581	C258	0.403000	0.684600	0.388900
H1721	H172	0.385300	0.691700	0.349100
C2591	C259	0.574800	0.198500	0.006300
C2601	C260	0.743400	0.366600	0.996500
H1731	H173	0.763700	0.367700	0.036700
C2611	C261	0.771100	0.406800	0.964800
H1741	H174	0.811300	0.434200	0.984800
C2621	C262	0.722800	0.415000	0.499000
H1751	H175	0.746000	0.420100	0.538800
C2631	C263	0.659600	0.448300	0.469500
C2641	C264	0.627400	0.524100	0.587500
C2651	C265	0.658300	0.514400	0.651200
C2661	C266	0.460600	0.638700	0.415300
H1761	H176	0.480400	0.615600	0.393400
C2671	C267	0.683900	0.324300	0.966300
C2681	C268	0.690000	0.257600	0.151400
C2691	C269	0.750700	0.374100	0.467800
H1771	H177	0.792800	0.351000	0.488100
C2701	C270	0.482100	0.142000	0.918300
H1781	H178	0.501700	0.164500	0.896000
C2711	C271	0.457200	0.666200	0.505100
H1791	H179	0.475000	0.662900	0.545200
C2721	C272	0.752000	0.292700	0.180500
H1801	H180	0.775900	0.310400	0.160200
C2731	C273	0.549500	0.577200	0.505100
C2741	C274	0.779100	0.301800	0.239900
H1811	H181	0.821100	0.325700	0.258900
C2751	C275	0.660600	0.396100	0.384300
H1821	H182	0.638200	0.388600	0.344600
C2761	C276	0.512600	0.150100	0.977000
C2771	C277	0.655800	0.231800	0.183200
H1831	H183	0.613600	0.207900	0.165400
C2781	C278	0.658300	0.248400	0.087400
C2791	C279	0.399000	0.709300	0.474300
H1841	H184	0.377700	0.733100	0.494900
C2801	C280	0.687100	0.243400	0.242400
H1851	H185	0.664300	0.225900	0.263700
C2811	C281	0.655200	0.324800	0.907000
H1861	H186	0.616000	0.296000	0.886000
C2821	C282	0.422200	0.071400	0.979300
H1871	H187	0.402200	0.046600	0.000500
C2831	C283	0.741200	0.456100	0.736800
H1881	H188	0.776700	0.420400	0.754200
C2841	C284	0.711800	0.462300	0.677400
H1891	H189	0.727700	0.432000	0.655400
C2851	C285	0.633300	0.555100	0.684600
H1901	H190	0.595100	0.587200	0.668000
C2861	C286	0.488800	0.627300	0.474700
C2871	C287	0.667400	0.546200	0.744200
H1911	H191	0.651600	0.575100	0.767000
C2881	C288	0.685900	0.368800	0.879500
H1921	H192	0.665200	0.370800	0.839400
N851	N85	0.722000	0.365400	0.411600
N861	N86	0.371400	0.719200	0.417500
N871	N87	0.720600	0.499800	0.770900
N881	N88	0.574000	0.539300	0.472100
N891	N89	0.574700	0.572600	0.562600
N901	N90	0.655800	0.482500	0.558700
N911	N91	0.743800	0.409000	0.907200
N921	N92	0.392000	0.064800	0.922000
N931	N93	0.746400	0.277000	0.271100
N941	N94	0.597100	0.239200	0.972700
N951	N95	0.603600	0.200700	0.064000
N961	N96	0.686100	0.287400	0.058400
