data_QOFLAA_freeONLY_PM
_symmetry_space_group_name_H-M	'P1'
_cell_length_a	15.721100
_cell_length_b	15.721100
_cell_length_c	15.721100
_cell_angle_alpha	70.106200
_cell_angle_beta	71.370600
_cell_angle_gamma	109.894000
_symmetry_Int_Tables_number 1

loop_
_symmetry_equiv_pos_as_xyz
'x,y,z'

loop_
_atom_site_label
_atom_site_type_symbol
_atom_site_fract_x
_atom_site_fract_y
_atom_site_fract_z
Cu11	Cu1	0.900790	0.049400	0.535770
Cu21	Cu2	0.964230	0.563440	0.585170
Cu31	Cu3	0.351390	0.936560	0.599210
Cu41	Cu4	0.914830	0.450600	0.148610
Cu51	Cu5	0.085170	0.549400	0.851390
Cu61	Cu6	0.648610	0.063440	0.400790
Cu71	Cu7	0.035770	0.436560	0.414830
Cu81	Cu8	0.099210	0.950600	0.464230
H11	H1	0.714700	0.394400	0.118300
H21	H2	0.381700	0.167000	0.512700
H31	H3	0.987300	0.105600	0.679700
H41	H4	0.618300	0.833000	0.487300
H51	H5	0.277300	0.565500	0.051800
H61	H6	0.211800	0.829100	0.222700
H71	H7	0.012700	0.894400	0.320300
H81	H8	0.820300	0.333000	0.785300
H91	H9	0.448200	0.670900	0.617300
H101	H10	0.285300	0.605600	0.881700
H111	H11	0.117300	0.065500	0.711800
H121	H12	0.722700	0.434500	0.948200
H131	H13	0.882700	0.934500	0.288200
H141	H14	0.179700	0.667000	0.214700
H151	H15	0.551800	0.329100	0.382700
H161	H16	0.788200	0.170900	0.777300
C11	C1	0.279900	0.723600	0.690300
C21	C2	0.092300	0.054300	0.668200
C31	C3	0.190300	0.970200	0.586100
C41	C4	0.556000	0.830400	0.520400
C51	C5	0.607800	0.225400	0.381200
C61	C6	0.893400	0.274600	0.617600
C71	C7	0.444000	0.169600	0.479600
C81	C8	0.777500	0.445700	0.962000
C91	C9	0.907700	0.945700	0.331800
C101	C10	0.850800	0.330400	0.725600
C111	C11	0.979600	0.923600	0.350800
C121	C12	0.118800	0.011000	0.606600
C131	C13	0.222500	0.554300	0.038000
C141	C14	0.106600	0.725400	0.382400
C151	C15	0.117600	0.511000	0.107800
C161	C16	0.168200	0.760500	0.277500
C171	C17	0.538000	0.260500	0.407700
C181	C18	0.913900	0.223600	0.556300
C191	C19	0.086100	0.776400	0.443700
C201	C20	0.462000	0.739500	0.592300
C211	C21	0.809700	0.029800	0.413900
C221	C22	0.020400	0.076400	0.649200
C231	C23	0.943700	0.529800	0.779900
C241	C24	0.831800	0.239500	0.722500
C251	C25	0.225600	0.576400	0.944000
C261	C26	0.774400	0.423600	0.056000
C271	C27	0.882400	0.489000	0.892200
C281	C28	0.720100	0.276400	0.309700
C291	C29	0.881200	0.989000	0.393400
C301	C30	0.056300	0.470200	0.220100
C311	C31	0.392200	0.774600	0.618800
C321	C32	0.149200	0.669600	0.274400
N11	N1	0.129400	0.549600	0.955200
N21	N2	0.556300	0.119000	0.434900
N31	N3	0.053900	0.619000	0.437300
N41	N4	0.004800	0.049600	0.579800
N51	N5	0.937300	0.491200	0.943700
N61	N6	0.544800	0.915400	0.504800
N71	N7	0.065100	0.008800	0.553900
N81	N8	0.995200	0.950400	0.420200
N91	N9	0.870600	0.450400	0.044800
N101	N10	0.079800	0.584600	0.370600
N111	N11	0.062700	0.508800	0.056300
N121	N12	0.455200	0.084600	0.495200
N131	N13	0.934900	0.991200	0.446100
N141	N14	0.946100	0.381000	0.562700
N151	N15	0.920200	0.415400	0.629400
N161	N16	0.443700	0.881000	0.565100
O11	O1	0.242270	0.971700	0.632530
O21	O2	0.804460	0.059900	0.478640
O31	O3	0.104230	0.471700	0.270570
O41	O4	0.757730	0.028300	0.367470
O51	O5	0.021360	0.716900	0.538540
O61	O6	0.195540	0.940100	0.521360
O71	O7	0.961460	0.440100	0.255440
O81	O8	0.132530	0.874800	0.395770
O91	O9	0.244560	0.783100	0.695540
O101	O10	0.038540	0.559900	0.744560
O111	O11	0.755440	0.216900	0.304460
O121	O12	0.978640	0.283100	0.461460
O131	O13	0.770570	0.374800	0.257730
O141	O14	0.229430	0.625200	0.742270
O151	O15	0.895770	0.528300	0.729430
O161	O16	0.867470	0.125200	0.604230
