data_QOHTOX_freeONLY_PM
_symmetry_space_group_name_H-M	'P1'
_cell_length_a	13.717000
_cell_length_b	14.787800
_cell_length_c	21.028200
_cell_angle_alpha	90.000000
_cell_angle_beta	90.000000
_cell_angle_gamma	90.000000
_symmetry_Int_Tables_number 1

loop_
_symmetry_equiv_pos_as_xyz
'x,y,z'

loop_
_atom_site_label
_atom_site_type_symbol
_atom_site_fract_x
_atom_site_fract_y
_atom_site_fract_z
Co11	Co1	0.530920	0.900240	0.561940
Co21	Co2	0.469080	0.400240	0.938060
Co31	Co3	0.469080	0.099760	0.438060
Co41	Co4	0.530920	0.599760	0.061940
H11	H1	0.348900	0.967700	0.633800
H21	H2	0.182800	0.970700	0.629200
H31	H3	0.197200	0.825000	0.467700
H41	H4	0.363200	0.825100	0.477700
H51	H5	0.693000	0.971600	0.648800
H61	H6	0.858800	0.982100	0.658600
H71	H7	0.884000	0.858300	0.489100
H81	H8	0.717600	0.852200	0.484200
H91	H9	0.038900	0.867500	0.503400
H101	H10	0.022100	0.955600	0.618500
H111	H11	0.517100	0.637700	0.677400
H121	H12	0.530300	0.777100	0.764900
H131	H13	0.529500	0.730700	0.875100
H141	H14	0.507900	0.588800	0.791000
H151	H15	0.651100	0.467700	0.866200
H161	H16	0.817200	0.470700	0.870800
H171	H17	0.802800	0.325000	0.032300
H181	H18	0.636800	0.325100	0.022300
H191	H19	0.307000	0.471600	0.851200
H201	H20	0.141200	0.482100	0.841400
H211	H21	0.116000	0.358300	0.010900
H221	H22	0.282400	0.352200	0.015800
H231	H23	0.961100	0.367500	0.996600
H241	H24	0.977900	0.455600	0.881500
H251	H25	0.482900	0.137700	0.822600
H261	H26	0.469700	0.277100	0.735100
H271	H27	0.470500	0.230700	0.624900
H281	H28	0.492100	0.088800	0.709000
H291	H29	0.651100	0.032300	0.366200
H301	H30	0.817200	0.029300	0.370800
H311	H31	0.802800	0.175000	0.532300
H321	H32	0.636800	0.174900	0.522300
H331	H33	0.307000	0.028400	0.351200
H341	H34	0.141200	0.017900	0.341400
H351	H35	0.116000	0.141700	0.510900
H361	H36	0.282400	0.147800	0.515800
H371	H37	0.961100	0.132500	0.496600
H381	H38	0.977900	0.044400	0.381500
H391	H39	0.482900	0.362300	0.322600
H401	H40	0.469700	0.222900	0.235100
H411	H41	0.470500	0.269300	0.124900
H421	H42	0.492100	0.411200	0.209000
H431	H43	0.348900	0.532300	0.133800
H441	H44	0.182800	0.529300	0.129200
H451	H45	0.197200	0.675000	0.967700
H461	H46	0.363200	0.674900	0.977700
H471	H47	0.693000	0.528400	0.148800
H481	H48	0.858800	0.517900	0.158600
H491	H49	0.884000	0.641700	0.989100
H501	H50	0.717600	0.647800	0.984200
H511	H51	0.038900	0.632500	0.003400
H521	H52	0.022100	0.544400	0.118500
H531	H53	0.517100	0.862300	0.177400
H541	H54	0.530300	0.722900	0.264900
H551	H55	0.529500	0.769300	0.375100
H561	H56	0.507900	0.911200	0.291000
C11	C1	0.317900	0.938600	0.599600
C21	C2	0.218200	0.940600	0.597300
C31	C3	0.169100	0.897800	0.547500
C41	C4	0.226400	0.854700	0.502300
C51	C5	0.326200	0.855700	0.508600
C61	C6	0.732200	0.947900	0.616100
C71	C7	0.831700	0.954700	0.622300
C81	C8	0.892400	0.921100	0.574800
C91	C9	0.846700	0.882100	0.522700
C101	C10	0.746600	0.878300	0.520300
C111	C11	0.063400	0.894700	0.540500
C121	C12	0.998100	0.926900	0.581900
C131	C13	0.526400	0.769400	0.641200
C141	C14	0.521700	0.698300	0.690400
C151	C15	0.523600	0.716300	0.752700
C161	C16	0.511800	0.602000	0.915900
C171	C17	0.520500	0.669800	0.863700
C181	C18	0.516200	0.649700	0.802600
C191	C19	0.682100	0.438600	0.900400
C201	C20	0.781800	0.440600	0.902700
C211	C21	0.830900	0.397800	0.952500
C221	C22	0.773600	0.354700	0.997700
C231	C23	0.673800	0.355700	0.991400
C241	C24	0.267800	0.447900	0.883900
C251	C25	0.168300	0.454700	0.877700
C261	C26	0.107600	0.421100	0.925200
C271	C27	0.153300	0.382100	0.977300
C281	C28	0.253400	0.378300	0.979700
C291	C29	0.936600	0.394700	0.959500
C301	C30	0.001900	0.426900	0.918100
C311	C31	0.473600	0.269400	0.858800
C321	C32	0.478300	0.198300	0.809600
C331	C33	0.476400	0.216300	0.747300
C341	C34	0.488200	0.102000	0.584100
C351	C35	0.479500	0.169800	0.636300
C361	C36	0.483800	0.149700	0.697400
C371	C37	0.682100	0.061400	0.400400
C381	C38	0.781800	0.059400	0.402700
C391	C39	0.830900	0.102200	0.452500
C401	C40	0.773600	0.145300	0.497700
C411	C41	0.673800	0.144300	0.491400
C421	C42	0.267800	0.052100	0.383900
C431	C43	0.168300	0.045300	0.377700
C441	C44	0.107600	0.078900	0.425200
C451	C45	0.153300	0.117900	0.477300
C461	C46	0.253400	0.121700	0.479700
C471	C47	0.936600	0.105300	0.459500
C481	C48	0.001900	0.073100	0.418100
C491	C49	0.473600	0.230600	0.358800
C501	C50	0.478300	0.301700	0.309600
C511	C51	0.476400	0.283700	0.247300
C521	C52	0.488200	0.398000	0.084100
C531	C53	0.479500	0.330200	0.136300
C541	C54	0.483800	0.350300	0.197400
C551	C55	0.317900	0.561400	0.099600
C561	C56	0.218200	0.559400	0.097300
C571	C57	0.169100	0.602200	0.047500
C581	C58	0.226400	0.645300	0.002300
C591	C59	0.326200	0.644300	0.008600
C601	C60	0.732200	0.552100	0.116100
C611	C61	0.831700	0.545300	0.122300
C621	C62	0.892400	0.578900	0.074800
C631	C63	0.846700	0.617900	0.022700
C641	C64	0.746600	0.621700	0.020300
C651	C65	0.063400	0.605300	0.040500
C661	C66	0.998100	0.573100	0.081900
C671	C67	0.526400	0.730600	0.141200
C681	C68	0.521700	0.801700	0.190400
C691	C69	0.523600	0.783700	0.252700
C701	C70	0.511800	0.898000	0.415900
C711	C71	0.520500	0.830200	0.363700
C721	C72	0.516200	0.850300	0.302600
N11	N1	0.374300	0.897500	0.555770
N21	N2	0.687900	0.909600	0.566120
N31	N3	0.625700	0.397500	0.944230
N41	N4	0.312100	0.409600	0.933880
N51	N5	0.625700	0.102500	0.444230
N61	N6	0.312100	0.090400	0.433880
N71	N7	0.374300	0.602500	0.055770
N81	N8	0.687900	0.590400	0.066120
O11	O1	0.525900	0.852300	0.657600
O21	O2	0.529500	0.748900	0.583520
O31	O3	0.544400	0.627100	0.968850
O41	O4	0.473500	0.527900	0.903120
O51	O5	0.474100	0.352300	0.842400
O61	O6	0.470500	0.248900	0.916480
O71	O7	0.455600	0.127100	0.531150
O81	O8	0.526500	0.027900	0.596880
O91	O9	0.474100	0.147700	0.342400
O101	O10	0.470500	0.251100	0.416480
O111	O11	0.455600	0.372900	0.031150
O121	O12	0.526500	0.472100	0.096880
O131	O13	0.525900	0.647700	0.157600
O141	O14	0.529500	0.751100	0.083520
O151	O15	0.544400	0.872900	0.468850
O161	O16	0.473500	0.972100	0.403120
Co51	Co5	0.969080	0.099760	0.061940
Co61	Co6	0.030920	0.599760	0.438060
Co71	Co7	0.030920	0.900240	0.938060
Co81	Co8	0.969080	0.400240	0.561940
H571	H57	0.151100	0.032300	0.133800
H581	H58	0.317200	0.029300	0.129200
H591	H59	0.302800	0.175000	0.967700
H601	H60	0.136800	0.174900	0.977700
H611	H61	0.807000	0.028400	0.148800
H621	H62	0.641200	0.017900	0.158600
H631	H63	0.616000	0.141700	0.989100
H641	H64	0.782400	0.147800	0.984200
H651	H65	0.461100	0.132500	0.003400
H661	H66	0.477900	0.044400	0.118500
H671	H67	0.982900	0.362300	0.177400
H681	H68	0.969700	0.222900	0.264900
H691	H69	0.970500	0.269300	0.375100
H701	H70	0.992100	0.411200	0.291000
H711	H71	0.848900	0.532300	0.366200
H721	H72	0.682800	0.529300	0.370800
H731	H73	0.697200	0.675000	0.532300
H741	H74	0.863200	0.674900	0.522300
H751	H75	0.193000	0.528400	0.351200
H761	H76	0.358800	0.517900	0.341400
H771	H77	0.384000	0.641700	0.510900
H781	H78	0.217600	0.647800	0.515800
H791	H79	0.538900	0.632500	0.496600
H801	H80	0.522100	0.544400	0.381500
H811	H81	0.017100	0.862300	0.322600
H821	H82	0.030300	0.722900	0.235100
H831	H83	0.029500	0.769300	0.124900
H841	H84	0.007900	0.911200	0.209000
H851	H85	0.848900	0.967700	0.866200
H861	H86	0.682800	0.970700	0.870800
H871	H87	0.697200	0.825000	0.032300
H881	H88	0.863200	0.825100	0.022300
H891	H89	0.193000	0.971600	0.851200
H901	H90	0.358800	0.982100	0.841400
H911	H91	0.384000	0.858300	0.010900
H921	H92	0.217600	0.852200	0.015800
H931	H93	0.538900	0.867500	0.996600
H941	H94	0.522100	0.955600	0.881500
H951	H95	0.017100	0.637700	0.822600
H961	H96	0.030300	0.777100	0.735100
H971	H97	0.029500	0.730700	0.624900
H981	H98	0.007900	0.588800	0.709000
H991	H99	0.151100	0.467700	0.633800
H1001	H100	0.317200	0.470700	0.629200
H1011	H101	0.302800	0.325000	0.467700
H1021	H102	0.136800	0.325100	0.477700
H1031	H103	0.807000	0.471600	0.648800
H1041	H104	0.641200	0.482100	0.658600
H1051	H105	0.616000	0.358300	0.489100
H1061	H106	0.782400	0.352200	0.484200
H1071	H107	0.461100	0.367500	0.503400
H1081	H108	0.477900	0.455600	0.618500
H1091	H109	0.982900	0.137700	0.677400
H1101	H110	0.969700	0.277100	0.764900
H1111	H111	0.970500	0.230700	0.875100
H1121	H112	0.992100	0.088800	0.791000
C731	C73	0.182100	0.061400	0.099600
C741	C74	0.281800	0.059400	0.097300
C751	C75	0.330900	0.102200	0.047500
C761	C76	0.273600	0.145300	0.002300
C771	C77	0.173800	0.144300	0.008600
C781	C78	0.767800	0.052100	0.116100
C791	C79	0.668300	0.045300	0.122300
C801	C80	0.607600	0.078900	0.074800
C811	C81	0.653300	0.117900	0.022700
C821	C82	0.753400	0.121700	0.020300
C831	C83	0.436600	0.105300	0.040500
C841	C84	0.501900	0.073100	0.081900
C851	C85	0.973600	0.230600	0.141200
C861	C86	0.978300	0.301700	0.190400
C871	C87	0.976400	0.283700	0.252700
C881	C88	0.988200	0.398000	0.415900
C891	C89	0.979500	0.330200	0.363700
C901	C90	0.983800	0.350300	0.302600
C911	C91	0.817900	0.561400	0.400400
C921	C92	0.718200	0.559400	0.402700
C931	C93	0.669100	0.602200	0.452500
C941	C94	0.726400	0.645300	0.497700
C951	C95	0.826200	0.644300	0.491400
C961	C96	0.232200	0.552100	0.383900
C971	C97	0.331700	0.545300	0.377700
C981	C98	0.392400	0.578900	0.425200
C991	C99	0.346700	0.617900	0.477300
C1001	C100	0.246600	0.621700	0.479700
C1011	C101	0.563400	0.605300	0.459500
C1021	C102	0.498100	0.573100	0.418100
C1031	C103	0.026400	0.730600	0.358800
C1041	C104	0.021700	0.801700	0.309600
C1051	C105	0.023600	0.783700	0.247300
C1061	C106	0.011800	0.898000	0.084100
C1071	C107	0.020500	0.830200	0.136300
C1081	C108	0.016200	0.850300	0.197400
C1091	C109	0.817900	0.938600	0.900400
C1101	C110	0.718200	0.940600	0.902700
C1111	C111	0.669100	0.897800	0.952500
C1121	C112	0.726400	0.854700	0.997700
C1131	C113	0.826200	0.855700	0.991400
C1141	C114	0.232200	0.947900	0.883900
C1151	C115	0.331700	0.954700	0.877700
C1161	C116	0.392400	0.921100	0.925200
C1171	C117	0.346700	0.882100	0.977300
C1181	C118	0.246600	0.878300	0.979700
C1191	C119	0.563400	0.894700	0.959500
C1201	C120	0.498100	0.926900	0.918100
C1211	C121	0.026400	0.769400	0.858800
C1221	C122	0.021700	0.698300	0.809600
C1231	C123	0.023600	0.716300	0.747300
C1241	C124	0.011800	0.602000	0.584100
C1251	C125	0.020500	0.669800	0.636300
C1261	C126	0.016200	0.649700	0.697400
C1271	C127	0.182100	0.438600	0.599600
C1281	C128	0.281800	0.440600	0.597300
C1291	C129	0.330900	0.397800	0.547500
C1301	C130	0.273600	0.354700	0.502300
C1311	C131	0.173800	0.355700	0.508600
C1321	C132	0.767800	0.447900	0.616100
C1331	C133	0.668300	0.454700	0.622300
C1341	C134	0.607600	0.421100	0.574800
C1351	C135	0.653300	0.382100	0.522700
C1361	C136	0.753400	0.378300	0.520300
C1371	C137	0.436600	0.394700	0.540500
C1381	C138	0.501900	0.426900	0.581900
C1391	C139	0.973600	0.269400	0.641200
C1401	C140	0.978300	0.198300	0.690400
C1411	C141	0.976400	0.216300	0.752700
C1421	C142	0.988200	0.102000	0.915900
C1431	C143	0.979500	0.169800	0.863700
C1441	C144	0.983800	0.149700	0.802600
N91	N9	0.125700	0.102500	0.055770
N101	N10	0.812100	0.090400	0.066120
N111	N11	0.874300	0.602500	0.444230
N121	N12	0.187900	0.590400	0.433880
N131	N13	0.874300	0.897500	0.944230
N141	N14	0.187900	0.909600	0.933880
N151	N15	0.125700	0.397500	0.555770
N161	N16	0.812100	0.409600	0.566120
O171	O17	0.974100	0.147700	0.157600
O181	O18	0.970500	0.251100	0.083520
O191	O19	0.955600	0.372900	0.468850
O201	O20	0.026500	0.472100	0.403120
O211	O21	0.025900	0.647700	0.342400
O221	O22	0.029500	0.751100	0.416480
O231	O23	0.044400	0.872900	0.031150
O241	O24	0.973500	0.972100	0.096880
O251	O25	0.025900	0.852300	0.842400
O261	O26	0.029500	0.748900	0.916480
O271	O27	0.044400	0.627100	0.531150
O281	O28	0.973500	0.527900	0.596880
O291	O29	0.974100	0.352300	0.657600
O301	O30	0.970500	0.248900	0.583520
O311	O31	0.955600	0.127100	0.968850
O321	O32	0.026500	0.027900	0.903120
