data_QOMFEE_freeONLY_PM
_symmetry_space_group_name_H-M	'P1'
_cell_length_a	8.799400
_cell_length_b	8.803900
_cell_length_c	53.888000
_cell_angle_alpha	90.000000
_cell_angle_beta	90.000000
_cell_angle_gamma	90.111000
_symmetry_Int_Tables_number 1

loop_
_symmetry_equiv_pos_as_xyz
'x,y,z'

loop_
_atom_site_label
_atom_site_type_symbol
_atom_site_fract_x
_atom_site_fract_y
_atom_site_fract_z
Zn11	Zn1	0.734350	0.823030	0.746490
Zn21	Zn2	0.772440	0.788120	0.802120
Zn31	Zn3	0.431610	0.662860	0.548480
Zn41	Zn4	0.603780	0.370880	0.994070
Zn51	Zn5	0.265650	0.176970	0.246490
Zn61	Zn6	0.227560	0.211880	0.302120
Zn71	Zn7	0.568390	0.337140	0.048480
Zn81	Zn8	0.396220	0.629120	0.494070
H11	H1	0.873000	0.061900	0.706900
H21	H2	0.722900	0.102000	0.721000
H31	H3	0.651600	0.282400	0.691500
H41	H4	0.828000	0.309100	0.693600
H51	H5	0.868900	0.152900	0.659700
H61	H6	0.668900	0.056100	0.635800
H71	H7	0.544200	0.588200	0.670900
H81	H8	0.612700	0.618900	0.711700
H91	H9	0.615000	0.535600	0.589700
H101	H10	0.681000	0.587100	0.629900
H111	H11	0.399300	0.945300	0.628200
H121	H12	0.350700	0.891700	0.587400
H131	H13	0.770100	0.317200	0.633700
H141	H14	0.495000	0.225300	0.646100
H151	H15	0.997000	0.929200	0.850600
H161	H16	0.022500	0.814400	0.828700
H171	H17	0.192900	0.658000	0.855400
H181	H18	0.257100	0.825900	0.855700
H191	H19	0.094900	0.876000	0.892200
H201	H20	0.991100	0.647200	0.911200
H211	H21	0.529600	0.556000	0.874500
H221	H22	0.580800	0.617800	0.832700
H231	H23	0.530100	0.620500	0.960700
H241	H24	0.513800	0.663800	0.917100
H251	H25	0.859800	0.365400	0.911600
H261	H26	0.766200	0.258700	0.948500
H271	H27	0.255500	0.735700	0.914400
H281	H28	0.137100	0.465200	0.895600
H291	H29	0.259700	0.790900	0.797700
H301	H30	0.242200	0.813600	0.746700
H311	H31	0.738500	0.298000	0.801900
H321	H32	0.765300	0.309900	0.750800
H331	H33	0.914700	0.646100	0.546300
H341	H34	0.912300	0.633100	0.496200
H351	H35	0.418100	0.143500	0.496300
H361	H36	0.418500	0.147600	0.547100
H371	H37	0.127000	0.938100	0.206900
H381	H38	0.277100	0.898000	0.221000
H391	H39	0.348400	0.717600	0.191500
H401	H40	0.172000	0.690900	0.193600
H411	H41	0.131100	0.847100	0.159700
H421	H42	0.331100	0.943900	0.135800
H431	H43	0.455800	0.411800	0.170900
H441	H44	0.387300	0.381100	0.211700
H451	H45	0.385000	0.464400	0.089700
H461	H46	0.319000	0.412900	0.129900
H471	H47	0.600700	0.054700	0.128200
H481	H48	0.649300	0.108300	0.087400
H491	H49	0.229900	0.682800	0.133700
H501	H50	0.505000	0.774700	0.146100
H511	H51	0.003000	0.070800	0.350600
H521	H52	0.977500	0.185600	0.328700
H531	H53	0.807100	0.342000	0.355400
H541	H54	0.742900	0.174100	0.355700
H551	H55	0.905100	0.124000	0.392200
H561	H56	0.008900	0.352800	0.411200
H571	H57	0.470400	0.444000	0.374500
H581	H58	0.419200	0.382200	0.332700
H591	H59	0.469900	0.379500	0.460700
H601	H60	0.486200	0.336200	0.417100
H611	H61	0.140200	0.634600	0.411600
H621	H62	0.233800	0.741300	0.448500
H631	H63	0.744500	0.264300	0.414400
H641	H64	0.862900	0.534800	0.395600
H651	H65	0.740300	0.209100	0.297700
H661	H66	0.757800	0.186400	0.246700
H671	H67	0.261500	0.702000	0.301900
H681	H68	0.234700	0.690100	0.250800
H691	H69	0.085300	0.353900	0.046300
H701	H70	0.087700	0.366900	0.996200
H711	H71	0.581900	0.856500	0.996300
H721	H72	0.581500	0.852400	0.047100
C11	C1	0.691500	0.952500	0.693680
C21	C2	0.766000	0.084500	0.704720
C31	C3	0.750400	0.236800	0.688720
C41	C4	0.768200	0.197800	0.662140
C51	C5	0.647300	0.084100	0.653070
C61	C6	0.645200	0.941700	0.669020
C71	C7	0.589100	0.804500	0.659940
C81	C8	0.580200	0.681700	0.676380
C91	C9	0.625000	0.699600	0.700710
C101	C10	0.572500	0.619500	0.597510
C111	C11	0.612000	0.649200	0.621680
C121	C12	0.546800	0.775200	0.633960
C131	C13	0.446400	0.862800	0.620690
C141	C14	0.415500	0.828000	0.596240
C151	C15	0.887400	0.734100	0.855060
C161	C16	0.013300	0.823000	0.846500
C171	C17	0.170900	0.762200	0.860000
C181	C18	0.131500	0.775300	0.887300
C191	C19	0.017100	0.641700	0.893600
C201	C20	0.873700	0.672700	0.878470
C211	C21	0.744000	0.600400	0.885840
C221	C22	0.624200	0.592500	0.869500
C231	C23	0.650700	0.642000	0.845000
C241	C24	0.581000	0.557900	0.949600
C251	C25	0.586300	0.602100	0.924600
C261	C26	0.717000	0.541200	0.911700
C271	C27	0.783300	0.413600	0.920570
C281	C28	0.734200	0.354800	0.943630
C291	C29	0.461000	0.801900	0.778400
C301	C30	0.298700	0.799100	0.781800
C311	C31	0.202300	0.808100	0.762630
C321	C32	0.036500	0.809600	0.765600
C331	C33	0.755400	0.088200	0.783970
C341	C34	0.748800	0.256100	0.786170
C351	C35	0.756800	0.350800	0.766700
C361	C36	0.752700	0.514600	0.769510
C371	C37	0.133400	0.641800	0.527950
C381	C38	0.957100	0.643000	0.530510
C391	C39	0.869400	0.639900	0.511890
C401	C40	0.701700	0.646500	0.513930
C411	C41	0.403400	0.930500	0.514260
C421	C42	0.413500	0.100600	0.512090
C431	C43	0.416000	0.190500	0.531360
C441	C44	0.415100	0.357600	0.529060
C451	C45	0.308500	0.047500	0.193680
C461	C46	0.234000	0.915500	0.204720
C471	C47	0.249600	0.763200	0.188720
C481	C48	0.231800	0.802200	0.162140
C491	C49	0.352700	0.915900	0.153070
C501	C50	0.354800	0.058300	0.169020
C511	C51	0.410900	0.195500	0.159940
C521	C52	0.419800	0.318300	0.176380
C531	C53	0.375000	0.300400	0.200710
C541	C54	0.427500	0.380500	0.097510
C551	C55	0.388000	0.350800	0.121680
C561	C56	0.453200	0.224800	0.133960
C571	C57	0.553600	0.137200	0.120690
C581	C58	0.584500	0.172000	0.096240
C591	C59	0.112600	0.265900	0.355060
C601	C60	0.986700	0.177000	0.346500
C611	C61	0.829100	0.237800	0.360000
C621	C62	0.868500	0.224700	0.387300
C631	C63	0.982900	0.358300	0.393600
C641	C64	0.126300	0.327300	0.378470
C651	C65	0.256000	0.399600	0.385840
C661	C66	0.375800	0.407500	0.369500
C671	C67	0.349300	0.358000	0.345000
C681	C68	0.419000	0.442100	0.449600
C691	C69	0.413700	0.397900	0.424600
C701	C70	0.283000	0.458800	0.411700
C711	C71	0.216700	0.586400	0.420570
C721	C72	0.265800	0.645200	0.443630
C731	C73	0.539000	0.198100	0.278400
C741	C74	0.701300	0.200900	0.281800
C751	C75	0.797700	0.191900	0.262630
C761	C76	0.963500	0.190400	0.265600
C771	C77	0.244600	0.911800	0.283970
C781	C78	0.251200	0.743900	0.286170
C791	C79	0.243200	0.649200	0.266700
C801	C80	0.247300	0.485400	0.269510
C811	C81	0.866600	0.358200	0.027950
C821	C82	0.042900	0.357000	0.030510
C831	C83	0.130600	0.360100	0.011890
C841	C84	0.298300	0.353500	0.013930
C851	C85	0.596600	0.069500	0.014260
C861	C86	0.586500	0.899400	0.012090
C871	C87	0.584000	0.809500	0.031360
C881	C88	0.584900	0.642400	0.029060
N11	N1	0.685800	0.829300	0.709120
N21	N2	0.473900	0.707700	0.584560
N31	N3	0.772800	0.722700	0.839160
N41	N4	0.644300	0.432800	0.958350
N51	N5	0.314200	0.170700	0.209120
N61	N6	0.526100	0.292300	0.084560
N71	N7	0.227200	0.277300	0.339160
N81	N8	0.355700	0.567200	0.458350
O11	O1	0.760500	0.335400	0.648510
O21	O2	0.498700	0.147800	0.654570
O31	O3	0.267200	0.731300	0.899300
O41	O4	0.060200	0.487400	0.887800
O51	O5	0.517600	0.793000	0.756360
O61	O6	0.539100	0.807000	0.798060
O71	O7	0.958000	0.843000	0.745820
O81	O8	0.977300	0.787000	0.786290
O91	O9	0.724100	0.031300	0.763390
O101	O10	0.779200	0.015500	0.803740
O111	O11	0.757300	0.592400	0.750270
O121	O12	0.752900	0.568900	0.790530
O131	O13	0.203200	0.652600	0.547020
O141	O14	0.180500	0.635900	0.506740
O151	O15	0.648100	0.653100	0.535260
O161	O16	0.626200	0.640600	0.494520
O171	O17	0.418200	0.877100	0.535220
O181	O18	0.397000	0.858400	0.494620
O191	O19	0.435200	0.433300	0.548880
O201	O20	0.411000	0.415800	0.507300
O211	O21	0.239500	0.664600	0.148510
O221	O22	0.501300	0.852200	0.154570
O231	O23	0.732800	0.268700	0.399300
O241	O24	0.939800	0.512600	0.387800
O251	O25	0.482400	0.207000	0.256360
O261	O26	0.460900	0.193000	0.298060
O271	O27	0.042000	0.157000	0.245820
O281	O28	0.022700	0.213000	0.286290
O291	O29	0.275900	0.968700	0.263390
O301	O30	0.220800	0.984500	0.303740
O311	O31	0.242700	0.407600	0.250270
O321	O32	0.247100	0.431100	0.290530
O331	O33	0.796800	0.347400	0.047020
O341	O34	0.819500	0.364100	0.006740
O351	O35	0.351900	0.346900	0.035260
O361	O36	0.373800	0.359400	0.994520
O371	O37	0.581800	0.122900	0.035220
O381	O38	0.603000	0.141600	0.994620
O391	O39	0.564800	0.566700	0.048880
O401	O40	0.589000	0.584200	0.007300
