data_QOMSES_freeONLY_PM
_symmetry_space_group_name_H-M	'P1'
_cell_length_a	13.090000
_cell_length_b	14.744000
_cell_length_c	15.575000
_cell_angle_alpha	90.000000
_cell_angle_beta	91.641000
_cell_angle_gamma	90.000000
_symmetry_Int_Tables_number 1

loop_
_symmetry_equiv_pos_as_xyz
'x,y,z'

loop_
_atom_site_label
_atom_site_type_symbol
_atom_site_fract_x
_atom_site_fract_y
_atom_site_fract_z
Cu11	Cu1	0.978530	0.204450	0.101060
C11	C1	0.609100	0.311200	0.755400
H11	H1	0.583900	0.370100	0.754400
C21	C2	0.677000	0.289000	0.820700
H21	H2	0.695200	0.331100	0.862900
C31	C3	0.717600	0.203300	0.822500
C41	C4	0.685600	0.144400	0.756600
H31	H3	0.709900	0.085200	0.755600
C51	C5	0.619300	0.173600	0.694400
H41	H4	0.602000	0.134600	0.649300
C61	C6	0.791900	0.173500	0.888000
C71	C7	0.341100	0.236100	0.731800
H51	H5	0.367100	0.288300	0.757900
C81	C8	0.275900	0.184000	0.777000
H61	H6	0.258800	0.200700	0.832300
C91	C9	0.235200	0.106200	0.740500
C101	C10	0.265200	0.084900	0.657800
H71	H7	0.240200	0.033100	0.630400
C111	C11	0.332600	0.141700	0.617000
H81	H8	0.352600	0.126300	0.562100
C121	C12	0.166600	0.047200	0.787500
N11	N1	0.577300	0.257200	0.695400
N21	N2	0.838100	0.093300	0.887500
N31	N3	0.898700	0.094500	0.957900
N41	N4	0.888000	0.171700	0.998100
N51	N5	0.820500	0.223200	0.956400
N61	N6	0.370100	0.217200	0.652700
N71	N7	0.124400	0.076000	0.860900
N81	N8	0.071500	0.005300	0.886200
N91	N9	0.082100	0.936600	0.833000
N101	N10	0.141800	0.962800	0.768900
N111	N11	0.083700	0.124000	0.052600
N121	N12	0.169600	0.138400	0.056100
N131	N13	0.255700	0.153300	0.059300
Cu21	Cu2	0.521470	0.704450	0.398940
C131	C13	0.890900	0.811200	0.744600
H91	H9	0.916100	0.870100	0.745600
C141	C14	0.823000	0.789000	0.679300
H101	H10	0.804800	0.831100	0.637100
C151	C15	0.782400	0.703300	0.677500
C161	C16	0.814400	0.644400	0.743400
H111	H11	0.790100	0.585200	0.744400
C171	C17	0.880700	0.673600	0.805600
H121	H12	0.898000	0.634600	0.850700
C181	C18	0.708100	0.673500	0.612000
C191	C19	0.158900	0.736100	0.768200
H131	H13	0.132900	0.788300	0.742100
C201	C20	0.224100	0.684000	0.723000
H141	H14	0.241200	0.700700	0.667700
C211	C21	0.264800	0.606200	0.759500
C221	C22	0.234800	0.584900	0.842200
H151	H15	0.259800	0.533100	0.869600
C231	C23	0.167400	0.641700	0.883000
H161	H16	0.147400	0.626300	0.937900
C241	C24	0.333400	0.547200	0.712500
N141	N14	0.922700	0.757200	0.804600
N151	N15	0.661900	0.593300	0.612500
N161	N16	0.601300	0.594500	0.542100
N171	N17	0.612000	0.671700	0.501900
N181	N18	0.679500	0.723200	0.543600
N191	N19	0.129900	0.717200	0.847300
N201	N20	0.375600	0.576000	0.639100
N211	N21	0.428500	0.505300	0.613800
N221	N22	0.417900	0.436600	0.667000
N231	N23	0.358200	0.462800	0.731100
N241	N24	0.416300	0.624000	0.447400
N251	N25	0.330400	0.638400	0.443900
N261	N26	0.244300	0.653300	0.440700
Cu31	Cu3	0.021470	0.795550	0.898940
C251	C25	0.390900	0.688800	0.244600
H171	H17	0.416100	0.629900	0.245600
C261	C26	0.323000	0.711000	0.179300
H181	H18	0.304800	0.668900	0.137100
C271	C27	0.282400	0.796700	0.177500
C281	C28	0.314400	0.855600	0.243400
H191	H19	0.290100	0.914800	0.244400
C291	C29	0.380700	0.826400	0.305600
H201	H20	0.398000	0.865400	0.350700
C301	C30	0.208100	0.826500	0.112000
C311	C31	0.658900	0.763900	0.268200
H211	H21	0.632900	0.711700	0.242100
C321	C32	0.724100	0.816000	0.223000
H221	H22	0.741200	0.799300	0.167700
C331	C33	0.764800	0.893800	0.259500
C341	C34	0.734800	0.915100	0.342200
H231	H23	0.759800	0.966900	0.369600
C351	C35	0.667400	0.858300	0.383000
H241	H24	0.647400	0.873700	0.437900
C361	C36	0.833400	0.952800	0.212500
N271	N27	0.422700	0.742800	0.304600
N281	N28	0.161900	0.906700	0.112500
N291	N29	0.101300	0.905500	0.042100
N301	N30	0.112000	0.828300	0.001900
N311	N31	0.179500	0.776800	0.043600
N321	N32	0.629900	0.782800	0.347300
N331	N33	0.875600	0.924000	0.139100
N341	N34	0.928500	0.994700	0.113800
N351	N35	0.917900	0.063400	0.167000
N361	N36	0.858200	0.037200	0.231100
N371	N37	0.916300	0.876000	0.947400
N381	N38	0.830400	0.861600	0.943900
N391	N39	0.744300	0.846700	0.940700
Cu41	Cu4	0.478530	0.295550	0.601060
C371	C37	0.109100	0.188800	0.255400
H251	H25	0.083900	0.129900	0.254400
C381	C38	0.177000	0.211000	0.320700
H261	H26	0.195200	0.168900	0.362900
C391	C39	0.217600	0.296700	0.322500
C401	C40	0.185600	0.355600	0.256600
H271	H27	0.209900	0.414800	0.255600
C411	C41	0.119300	0.326400	0.194400
H281	H28	0.102000	0.365400	0.149300
C421	C42	0.291900	0.326500	0.388000
C431	C43	0.841100	0.263900	0.231800
H291	H29	0.867100	0.211700	0.257900
C441	C44	0.775900	0.316000	0.277000
H301	H30	0.758800	0.299300	0.332300
C451	C45	0.735200	0.393800	0.240500
C461	C46	0.765200	0.415100	0.157800
H311	H31	0.740200	0.466900	0.130400
C471	C47	0.832600	0.358300	0.117000
H321	H32	0.852600	0.373700	0.062100
C481	C48	0.666600	0.452800	0.287500
N401	N40	0.077300	0.242800	0.195400
N411	N41	0.338100	0.406700	0.387500
N421	N42	0.398700	0.405500	0.457900
N431	N43	0.388000	0.328300	0.498100
N441	N44	0.320500	0.276800	0.456400
N451	N45	0.870100	0.282800	0.152700
N461	N46	0.624400	0.424000	0.360900
N471	N47	0.571500	0.494700	0.386200
N481	N48	0.582100	0.563400	0.333000
N491	N49	0.641800	0.537200	0.268900
N501	N50	0.583700	0.376000	0.552600
N511	N51	0.669600	0.361600	0.556100
N521	N52	0.755700	0.346700	0.559300
Cu51	Cu5	0.000000	0.000000	0.000000
Cu61	Cu6	0.500000	0.500000	0.500000
