data_QOPPES_freeONLY_PM
_symmetry_space_group_name_H-M	'P1'
_cell_length_a	18.148000
_cell_length_b	9.665000
_cell_length_c	30.969000
_cell_angle_alpha	90.000000
_cell_angle_beta	90.390000
_cell_angle_gamma	90.000000
_symmetry_Int_Tables_number 1

loop_
_symmetry_equiv_pos_as_xyz
'x,y,z'

loop_
_atom_site_label
_atom_site_type_symbol
_atom_site_fract_x
_atom_site_fract_y
_atom_site_fract_z
C11	C1	0.260700	0.218400	0.224200
C21	C2	0.348800	0.967400	0.321800
C31	C3	0.553100	0.191800	0.315200
C41	C4	0.419600	0.047500	0.320600
C51	C5	0.844600	0.195000	0.318500
C61	C6	0.300300	0.445700	0.247400
H11	H1	0.331500	0.521300	0.244300
C71	C7	0.054900	0.987300	0.315600
C81	C8	0.918400	0.119400	0.317200
C91	C9	0.246500	0.447400	0.278900
C101	C10	0.237600	0.566100	0.308700
C111	C11	0.127100	0.913400	0.313900
C121	C12	0.624900	0.265000	0.312700
C131	C13	0.198100	0.331600	0.282400
H21	H2	0.160500	0.332100	0.302600
C141	C14	0.444500	0.097500	0.281300
H31	H3	0.416700	0.083000	0.256300
C151	C15	0.941900	0.060000	0.280100
H41	H4	0.912300	0.063500	0.255500
C161	C16	0.322300	0.594900	0.554700
H51	H5	0.362000	0.560000	0.570500
C171	C17	0.207400	0.220200	0.255900
H61	H6	0.177000	0.143500	0.259300
C181	C18	0.011200	0.992600	0.278400
H71	H7	0.027300	0.952500	0.252900
C191	C19	0.308100	0.332800	0.220400
H81	H8	0.344900	0.332500	0.199600
C201	C20	0.510600	0.169100	0.279000
H91	H9	0.526500	0.202200	0.252400
C211	C21	0.461300	0.072600	0.356800
H101	H10	0.445100	0.038500	0.383200
C221	C22	0.962200	0.113700	0.354300
H111	H11	0.946300	0.154400	0.379700
C231	C23	0.215500	0.702700	0.507800
H121	H12	0.176400	0.741100	0.492400
C241	C24	0.209600	0.685000	0.552100
H131	H13	0.167400	0.715500	0.566100
C251	C25	0.029900	0.046900	0.353000
H141	H14	0.058800	0.042400	0.377900
C261	C26	0.524900	0.145100	0.355700
H151	H15	0.550400	0.164400	0.381200
C271	C27	0.266900	0.098900	0.194900
C281	C28	0.276900	0.665400	0.486700
C291	C29	0.283900	0.689700	0.439100
C301	C30	0.329900	0.611600	0.511200
H161	H16	0.373700	0.584300	0.498300
C311	C31	0.902500	0.525500	0.364500
H171	H17	0.911800	0.434100	0.357000
Co11	Co1	0.248380	0.777830	0.358530
Co21	Co2	0.750780	0.402840	0.358360
Co31	Co3	0.251450	0.831800	0.251260
N11	N1	0.263000	0.625200	0.574750
O11	O1	0.309200	0.969000	0.289380
O21	O2	0.656000	0.297600	0.347860
O31	O3	0.150600	0.883000	0.277870
O41	O4	0.335500	0.902300	0.356320
O51	O5	0.807500	0.192200	0.284700
O61	O6	0.648700	0.282500	0.275410
O71	O7	0.157600	0.886600	0.349950
O81	O8	0.827800	0.253100	0.352830
O91	O9	0.272000	0.677500	0.301460
O101	O10	0.233800	0.986700	0.203920
O111	O11	0.301900	0.108500	0.160670
O121	O12	0.198600	0.558100	0.340900
O131	O13	0.233200	0.752600	0.420960
O141	O14	0.335300	0.643900	0.419100
O151	O15	0.957400	0.597500	0.358800
O161	O16	0.841400	0.538200	0.376800
C321	C32	0.739300	0.718400	0.275800
C331	C33	0.651200	0.467400	0.178200
C341	C34	0.446900	0.691800	0.184800
C351	C35	0.580400	0.547500	0.179400
C361	C36	0.155400	0.695000	0.181500
C371	C37	0.699700	0.945700	0.252600
H181	H18	0.668500	0.021300	0.255700
C381	C38	0.945100	0.487300	0.184400
C391	C39	0.081600	0.619400	0.182800
C401	C40	0.753500	0.947400	0.221100
C411	C41	0.762400	0.066100	0.191300
C421	C42	0.872900	0.413400	0.186100
C431	C43	0.375100	0.765000	0.187300
C441	C44	0.801900	0.831600	0.217600
H191	H19	0.839500	0.832100	0.197400
C451	C45	0.555500	0.597500	0.218700
H201	H20	0.583300	0.583000	0.243700
C461	C46	0.058100	0.560000	0.219900
H211	H21	0.087700	0.563500	0.244500
C471	C47	0.677700	0.094900	0.945300
H221	H22	0.638000	0.060000	0.929500
C481	C48	0.792600	0.720200	0.244100
H231	H23	0.823000	0.643500	0.240700
C491	C49	0.988800	0.492600	0.221600
H241	H24	0.972700	0.452500	0.247100
C501	C50	0.691900	0.832800	0.279600
H251	H25	0.655100	0.832500	0.300400
C511	C51	0.489400	0.669100	0.221000
H261	H26	0.473500	0.702200	0.247600
C521	C52	0.538700	0.572600	0.143200
H271	H27	0.554900	0.538500	0.116800
C531	C53	0.037800	0.613700	0.145700
H281	H28	0.053700	0.654400	0.120300
C541	C54	0.784500	0.202700	0.992200
H291	H29	0.823600	0.241100	0.007600
C551	C55	0.790400	0.185000	0.947900
H301	H30	0.832600	0.215500	0.933900
C561	C56	0.970100	0.546900	0.147000
H311	H31	0.941200	0.542400	0.122100
C571	C57	0.475100	0.645100	0.144300
H321	H32	0.449600	0.664400	0.118800
C581	C58	0.733100	0.598900	0.305100
C591	C59	0.723100	0.165400	0.013300
C601	C60	0.716100	0.189700	0.060900
C611	C61	0.670100	0.111600	0.988800
H331	H33	0.626300	0.084300	0.001700
C621	C62	0.097500	0.025500	0.135500
H341	H34	0.088200	0.934100	0.143000
Co41	Co4	0.751620	0.277830	0.141470
Co51	Co5	0.249220	0.902840	0.141640
Co61	Co6	0.748550	0.331800	0.248740
N21	N2	0.737000	0.125200	0.925250
O171	O17	0.690800	0.469000	0.210620
O181	O18	0.344000	0.797600	0.152140
O191	O19	0.849400	0.383000	0.222130
O201	O20	0.664500	0.402300	0.143680
O211	O21	0.192500	0.692200	0.215300
O221	O22	0.351300	0.782500	0.224590
O231	O23	0.842400	0.386600	0.150050
O241	O24	0.172200	0.753100	0.147170
O251	O25	0.728000	0.177500	0.198540
O261	O26	0.766200	0.486700	0.296080
O271	O27	0.698100	0.608500	0.339330
O281	O28	0.801400	0.058100	0.159100
O291	O29	0.766800	0.252600	0.079040
O301	O30	0.664700	0.143900	0.080900
O311	O31	0.042600	0.097500	0.141200
O321	O32	0.158600	0.038200	0.123200
C631	C63	0.739300	0.781600	0.775800
C641	C64	0.651200	0.032600	0.678200
C651	C65	0.446900	0.808200	0.684800
C661	C66	0.580400	0.952500	0.679400
C671	C67	0.155400	0.805000	0.681500
C681	C68	0.699700	0.554300	0.752600
H351	H35	0.668500	0.478700	0.755700
C691	C69	0.945100	0.012700	0.684400
C701	C70	0.081600	0.880600	0.682800
C711	C71	0.753500	0.552600	0.721100
C721	C72	0.762400	0.433900	0.691300
C731	C73	0.872900	0.086600	0.686100
C741	C74	0.375100	0.735000	0.687300
C751	C75	0.801900	0.668400	0.717600
H361	H36	0.839500	0.667900	0.697400
C761	C76	0.555500	0.902500	0.718700
H371	H37	0.583300	0.917000	0.743700
C771	C77	0.058100	0.940000	0.719900
H381	H38	0.087700	0.936500	0.744500
C781	C78	0.677700	0.405100	0.445300
H391	H39	0.638000	0.440000	0.429500
C791	C79	0.792600	0.779800	0.744100
H401	H40	0.823000	0.856500	0.740700
C801	C80	0.988800	0.007400	0.721600
H411	H41	0.972700	0.047500	0.747100
C811	C81	0.691900	0.667200	0.779600
H421	H42	0.655100	0.667500	0.800400
C821	C82	0.489400	0.830900	0.721000
H431	H43	0.473500	0.797800	0.747600
C831	C83	0.538700	0.927400	0.643200
H441	H44	0.554900	0.961500	0.616800
C841	C84	0.037800	0.886300	0.645700
H451	H45	0.053700	0.845600	0.620300
C851	C85	0.784500	0.297300	0.492200
H461	H46	0.823600	0.258900	0.507600
C861	C86	0.790400	0.315000	0.447900
H471	H47	0.832600	0.284500	0.433900
C871	C87	0.970100	0.953100	0.647000
H481	H48	0.941200	0.957600	0.622100
C881	C88	0.475100	0.854900	0.644300
H491	H49	0.449600	0.835600	0.618800
C891	C89	0.733100	0.901100	0.805100
C901	C90	0.723100	0.334600	0.513300
C911	C91	0.716100	0.310300	0.560900
C921	C92	0.670100	0.388400	0.488800
H501	H50	0.626300	0.415700	0.501700
C931	C93	0.097500	0.474500	0.635500
H511	H51	0.088200	0.565900	0.643000
Co71	Co7	0.751620	0.222170	0.641470
Co81	Co8	0.249220	0.597160	0.641640
Co91	Co9	0.748550	0.168200	0.748740
N31	N3	0.737000	0.374800	0.425250
O331	O33	0.690800	0.031000	0.710620
O341	O34	0.344000	0.702400	0.652140
O351	O35	0.849400	0.117000	0.722130
O361	O36	0.664500	0.097700	0.643680
O371	O37	0.192500	0.807800	0.715300
O381	O38	0.351300	0.717500	0.724590
O391	O39	0.842400	0.113400	0.650050
O401	O40	0.172200	0.746900	0.647170
O411	O41	0.728000	0.322500	0.698540
O421	O42	0.766200	0.013300	0.796080
O431	O43	0.698100	0.891500	0.839330
O441	O44	0.801400	0.441900	0.659100
O451	O45	0.766800	0.247400	0.579040
O461	O46	0.664700	0.356100	0.580900
O471	O47	0.042600	0.402500	0.641200
O481	O48	0.158600	0.461800	0.623200
C941	C94	0.260700	0.281600	0.724200
C951	C95	0.348800	0.532600	0.821800
C961	C96	0.553100	0.308200	0.815200
C971	C97	0.419600	0.452500	0.820600
C981	C98	0.844600	0.305000	0.818500
C991	C99	0.300300	0.054300	0.747400
H521	H52	0.331500	0.978700	0.744300
C1001	C100	0.054900	0.512700	0.815600
C1011	C101	0.918400	0.380600	0.817200
C1021	C102	0.246500	0.052600	0.778900
C1031	C103	0.237600	0.933900	0.808700
C1041	C104	0.127100	0.586600	0.813900
C1051	C105	0.624900	0.235000	0.812700
C1061	C106	0.198100	0.168400	0.782400
H531	H53	0.160500	0.167900	0.802600
C1071	C107	0.444500	0.402500	0.781300
H541	H54	0.416700	0.417000	0.756300
C1081	C108	0.941900	0.440000	0.780100
H551	H55	0.912300	0.436500	0.755500
C1091	C109	0.322300	0.905100	0.054700
H561	H56	0.362000	0.940000	0.070500
C1101	C110	0.207400	0.279800	0.755900
H571	H57	0.177000	0.356500	0.759300
C1111	C111	0.011200	0.507400	0.778400
H581	H58	0.027300	0.547500	0.752900
C1121	C112	0.308100	0.167200	0.720400
H591	H59	0.344900	0.167500	0.699600
C1131	C113	0.510600	0.330900	0.779000
H601	H60	0.526500	0.297800	0.752400
C1141	C114	0.461300	0.427400	0.856800
H611	H61	0.445100	0.461500	0.883200
C1151	C115	0.962200	0.386300	0.854300
H621	H62	0.946300	0.345600	0.879700
C1161	C116	0.215500	0.797300	0.007800
H631	H63	0.176400	0.758900	0.992400
C1171	C117	0.209600	0.815000	0.052100
H641	H64	0.167400	0.784500	0.066100
C1181	C118	0.029900	0.453100	0.853000
H651	H65	0.058800	0.457600	0.877900
C1191	C119	0.524900	0.354900	0.855700
H661	H66	0.550400	0.335600	0.881200
C1201	C120	0.266900	0.401100	0.694900
C1211	C121	0.276900	0.834600	0.986700
C1221	C122	0.283900	0.810300	0.939100
C1231	C123	0.329900	0.888400	0.011200
H671	H67	0.373700	0.915700	0.998300
C1241	C124	0.902500	0.974500	0.864500
H681	H68	0.911800	0.065900	0.857000
Co101	Co10	0.248380	0.722170	0.858530
Co111	Co11	0.750780	0.097160	0.858360
Co121	Co12	0.251450	0.668200	0.751260
N41	N4	0.263000	0.874800	0.074750
O491	O49	0.309200	0.531000	0.789380
O501	O50	0.656000	0.202400	0.847860
O511	O51	0.150600	0.617000	0.777870
O521	O52	0.335500	0.597700	0.856320
O531	O53	0.807500	0.307800	0.784700
O541	O54	0.648700	0.217500	0.775410
O551	O55	0.157600	0.613400	0.849950
O561	O56	0.827800	0.246900	0.852830
O571	O57	0.272000	0.822500	0.801460
O581	O58	0.233800	0.513300	0.703920
O591	O59	0.301900	0.391500	0.660670
O601	O60	0.198600	0.941900	0.840900
O611	O61	0.233200	0.747400	0.920960
O621	O62	0.335300	0.856100	0.919100
O631	O63	0.957400	0.902500	0.858800
O641	O64	0.841400	0.961800	0.876800
