data_QOPZIF_freeONLY_PM
_symmetry_space_group_name_H-M	'P1'
_cell_length_a	16.215000
_cell_length_b	17.174000
_cell_length_c	18.104000
_cell_angle_alpha	90.000000
_cell_angle_beta	90.000000
_cell_angle_gamma	90.000000
_symmetry_Int_Tables_number 1

loop_
_symmetry_equiv_pos_as_xyz
'x,y,z'

loop_
_atom_site_label
_atom_site_type_symbol
_atom_site_fract_x
_atom_site_fract_y
_atom_site_fract_z
Zn11	Zn1	0.278550	0.756780	0.762330
Zn21	Zn2	0.227010	0.143390	0.120290
Zn31	Zn3	0.888360	0.269070	0.820700
Zn41	Zn4	0.310720	0.079610	0.270900
Zn51	Zn5	0.221450	0.243220	0.262330
Zn61	Zn6	0.272990	0.856610	0.620290
Zn71	Zn7	0.611640	0.730930	0.320700
Zn81	Zn8	0.189280	0.920390	0.770900
Zn91	Zn9	0.721450	0.256780	0.737670
Zn101	Zn10	0.772990	0.643390	0.379710
Zn111	Zn11	0.111640	0.769070	0.679300
Zn121	Zn12	0.689280	0.579610	0.229100
Zn131	Zn13	0.778550	0.743220	0.237670
Zn141	Zn14	0.727010	0.356610	0.879710
Zn151	Zn15	0.388360	0.230930	0.179300
Zn161	Zn16	0.810720	0.420390	0.729100
H11	H1	0.222800	0.931100	0.995700
H21	H2	0.361000	0.737600	0.983100
H31	H3	0.377100	0.873700	0.164500
H41	H4	0.456600	0.758200	0.162000
H51	H5	0.415000	0.687500	0.118000
H61	H6	0.487700	0.736800	0.080600
H71	H7	0.036000	0.526800	0.733700
H81	H8	0.285100	0.515100	0.752900
H91	H9	0.146600	0.321400	0.777900
H101	H10	0.355300	0.398600	0.767500
H111	H11	0.308700	0.339600	0.821700
H121	H12	0.309800	0.323500	0.734600
H131	H13	0.530600	0.707100	0.747700
H141	H14	0.712100	0.656600	0.603600
H151	H15	0.506000	0.767600	0.533500
H161	H16	0.647700	0.645000	0.795000
H171	H17	0.690800	0.586300	0.738200
H181	H18	0.731300	0.669600	0.754200
H191	H19	0.184800	0.999900	0.362200
H201	H20	0.094900	0.978800	0.452700
H211	H21	0.050800	0.056900	0.480400
H221	H22	0.001200	0.996100	0.430200
H231	H23	0.056500	0.147300	0.305400
H241	H24	0.976400	0.103300	0.336000
H251	H25	0.025900	0.162200	0.388200
H261	H26	0.410300	0.035600	0.396600
H271	H27	0.356900	0.846700	0.357700
H281	H28	0.451000	0.818900	0.363100
H291	H29	0.393200	0.816300	0.434700
H301	H30	0.513800	0.985400	0.465200
H311	H31	0.491900	0.903200	0.501900
H321	H32	0.550100	0.906800	0.430500
H331	H33	0.277200	0.068900	0.495700
H341	H34	0.139000	0.262400	0.483100
H351	H35	0.122900	0.126300	0.664500
H361	H36	0.043400	0.241800	0.662000
H371	H37	0.085000	0.312500	0.618000
H381	H38	0.012300	0.263200	0.580600
H391	H39	0.464000	0.473200	0.233700
H401	H40	0.214900	0.484900	0.252900
H411	H41	0.353400	0.678600	0.277900
H421	H42	0.144700	0.601400	0.267500
H431	H43	0.191300	0.660400	0.321700
H441	H44	0.190200	0.676500	0.234600
H451	H45	0.969400	0.292900	0.247700
H461	H46	0.787900	0.343400	0.103600
H471	H47	0.994000	0.232400	0.033500
H481	H48	0.852300	0.355000	0.295000
H491	H49	0.809200	0.413700	0.238200
H501	H50	0.768700	0.330400	0.254200
H511	H51	0.315200	0.000100	0.862200
H521	H52	0.405100	0.021200	0.952700
H531	H53	0.449200	0.943100	0.980400
H541	H54	0.498800	0.003900	0.930200
H551	H55	0.443500	0.852700	0.805400
H561	H56	0.523600	0.896700	0.836000
H571	H57	0.474100	0.837800	0.888200
H581	H58	0.089700	0.964400	0.896600
H591	H59	0.143100	0.153300	0.857700
H601	H60	0.049000	0.181100	0.863100
H611	H61	0.106800	0.183700	0.934700
H621	H62	0.986200	0.014600	0.965200
H631	H63	0.008100	0.096800	0.001900
H641	H64	0.949900	0.093200	0.930500
H651	H65	0.777200	0.431100	0.504300
H661	H66	0.639000	0.237600	0.516900
H671	H67	0.622900	0.373700	0.335500
H681	H68	0.543400	0.258200	0.338000
H691	H69	0.585000	0.187500	0.382000
H701	H70	0.512300	0.236800	0.419400
H711	H71	0.964000	0.026800	0.766300
H721	H72	0.714900	0.015100	0.747100
H731	H73	0.853400	0.821400	0.722100
H741	H74	0.644700	0.898600	0.732500
H751	H75	0.691300	0.839600	0.678300
H761	H76	0.690200	0.823500	0.765400
H771	H77	0.469400	0.207100	0.752300
H781	H78	0.287900	0.156600	0.896400
H791	H79	0.494000	0.267600	0.966500
H801	H80	0.352300	0.145000	0.705000
H811	H81	0.309200	0.086300	0.761800
H821	H82	0.268700	0.169600	0.745800
H831	H83	0.815200	0.499900	0.137800
H841	H84	0.905100	0.478800	0.047300
H851	H85	0.949200	0.556900	0.019600
H861	H86	0.998800	0.496100	0.069800
H871	H87	0.943500	0.647300	0.194600
H881	H88	0.023600	0.603300	0.164000
H891	H89	0.974100	0.662200	0.111800
H901	H90	0.589700	0.535600	0.103400
H911	H91	0.643100	0.346700	0.142300
H921	H92	0.549000	0.318900	0.136900
H931	H93	0.606800	0.316300	0.065300
H941	H94	0.486200	0.485400	0.034800
H951	H95	0.508100	0.403200	0.998100
H961	H96	0.449900	0.406800	0.069500
H971	H97	0.722800	0.568900	0.004300
H981	H98	0.861000	0.762400	0.016900
H991	H99	0.877100	0.626300	0.835500
H1001	H100	0.956600	0.741800	0.838000
H1011	H101	0.915000	0.812500	0.882000
H1021	H102	0.987700	0.763200	0.919400
H1031	H103	0.536000	0.973200	0.266300
H1041	H104	0.785100	0.984900	0.247100
H1051	H105	0.646600	0.178600	0.222100
H1061	H106	0.855300	0.101400	0.232500
H1071	H107	0.808700	0.160400	0.178300
H1081	H108	0.809800	0.176500	0.265400
H1091	H109	0.030600	0.792900	0.252300
H1101	H110	0.212100	0.843400	0.396400
H1111	H111	0.006000	0.732400	0.466500
H1121	H112	0.147700	0.855000	0.205000
H1131	H113	0.190800	0.913700	0.261800
H1141	H114	0.231300	0.830400	0.245800
H1151	H115	0.684800	0.500100	0.637800
H1161	H116	0.594900	0.521200	0.547300
H1171	H117	0.550800	0.443100	0.519600
H1181	H118	0.501200	0.503900	0.569800
H1191	H119	0.556500	0.352700	0.694600
H1201	H120	0.476400	0.396700	0.664000
H1211	H121	0.525900	0.337800	0.611800
H1221	H122	0.910300	0.464400	0.603400
H1231	H123	0.856900	0.653300	0.642300
H1241	H124	0.951000	0.681100	0.636900
H1251	H125	0.893200	0.683700	0.565300
H1261	H126	0.013800	0.514600	0.534800
H1271	H127	0.991900	0.596800	0.498100
H1281	H128	0.050100	0.593200	0.569500
C11	C1	0.276700	0.988200	0.126000
C21	C2	0.296200	0.913400	0.086500
C31	C3	0.262000	0.896800	0.017100
C41	C4	0.285300	0.831200	0.981000
C51	C5	0.343300	0.781600	0.010800
C61	C6	0.376800	0.794700	0.081000
C71	C7	0.353600	0.862100	0.117600
C81	C8	0.439500	0.739500	0.113200
C91	C9	0.997100	0.379000	0.761400
C101	C10	0.079900	0.419500	0.758100
C111	C11	0.084600	0.497700	0.743400
C121	C12	0.161200	0.534200	0.742800
C131	C13	0.233000	0.489800	0.753300
C141	C14	0.229800	0.410100	0.764200
C151	C15	0.151100	0.375600	0.768200
C161	C16	0.307600	0.364000	0.772700
C171	C17	0.419600	0.771100	0.660400
C181	C18	0.505400	0.741300	0.644000
C191	C19	0.552000	0.708200	0.698900
C201	C20	0.629300	0.676300	0.685900
C211	C21	0.659500	0.678400	0.614100
C221	C22	0.613800	0.712100	0.557100
C231	C23	0.537000	0.744000	0.572000
C241	C24	0.679200	0.641200	0.749000
C251	C25	0.169500	0.621400	0.732700
C261	C26	0.254800	0.816800	0.903300
C271	C27	0.646300	0.710300	0.479000
C281	C28	0.153000	0.040600	0.341100
C291	C29	0.055300	0.019600	0.439600
C301	C30	0.031100	0.123200	0.349000
C311	C31	0.391000	0.985600	0.382100
C321	C32	0.405900	0.845000	0.389300
C331	C33	0.502400	0.930400	0.455200
C341	C34	0.223300	0.011800	0.626000
C351	C35	0.203800	0.086600	0.586500
C361	C36	0.238000	0.103200	0.517100
C371	C37	0.214700	0.168800	0.481000
C381	C38	0.156700	0.218400	0.510800
C391	C39	0.123200	0.205300	0.581000
C401	C40	0.146400	0.137900	0.617600
C411	C41	0.060500	0.260500	0.613200
C421	C42	0.502900	0.621000	0.261400
C431	C43	0.420100	0.580500	0.258100
C441	C44	0.415400	0.502300	0.243400
C451	C45	0.338800	0.465800	0.242800
C461	C46	0.267000	0.510200	0.253300
C471	C47	0.270200	0.589900	0.264200
C481	C48	0.348900	0.624400	0.268200
C491	C49	0.192400	0.636000	0.272700
C501	C50	0.080400	0.228900	0.160400
C511	C51	0.994600	0.258700	0.144000
C521	C52	0.948000	0.291800	0.198900
C531	C53	0.870700	0.323700	0.185900
C541	C54	0.840500	0.321600	0.114100
C551	C55	0.886200	0.287900	0.057100
C561	C56	0.963000	0.256000	0.072000
C571	C57	0.820800	0.358800	0.249000
C581	C58	0.330500	0.378600	0.232700
C591	C59	0.245200	0.183200	0.403300
C601	C60	0.853700	0.289700	0.979000
C611	C61	0.347000	0.959400	0.841100
C621	C62	0.444700	0.980400	0.939600
C631	C63	0.468900	0.876800	0.849000
C641	C64	0.109000	0.014400	0.882100
C651	C65	0.094100	0.155000	0.889300
C661	C66	0.997600	0.069600	0.955200
C671	C67	0.723300	0.488200	0.374000
C681	C68	0.703800	0.413400	0.413500
C691	C69	0.738000	0.396800	0.482900
C701	C70	0.714700	0.331200	0.519000
C711	C71	0.656700	0.281600	0.489200
C721	C72	0.623200	0.294700	0.419000
C731	C73	0.646400	0.362100	0.382400
C741	C74	0.560500	0.239500	0.386800
C751	C75	0.002900	0.879000	0.738600
C761	C76	0.920100	0.919500	0.741900
C771	C77	0.915400	0.997700	0.756600
C781	C78	0.838800	0.034200	0.757200
C791	C79	0.767000	0.989800	0.746700
C801	C80	0.770200	0.910100	0.735800
C811	C81	0.848900	0.875600	0.731800
C821	C82	0.692400	0.864000	0.727300
C831	C83	0.580400	0.271100	0.839600
C841	C84	0.494600	0.241300	0.856000
C851	C85	0.448000	0.208200	0.801100
C861	C86	0.370700	0.176300	0.814100
C871	C87	0.340500	0.178400	0.885900
C881	C88	0.386200	0.212100	0.942900
C891	C89	0.463000	0.244000	0.928000
C901	C90	0.320800	0.141200	0.751000
C911	C91	0.830500	0.121400	0.767300
C921	C92	0.745200	0.316800	0.596700
C931	C93	0.353700	0.210300	0.021000
C941	C94	0.847000	0.540600	0.158900
C951	C95	0.944700	0.519600	0.060400
C961	C96	0.968900	0.623200	0.151000
C971	C97	0.609000	0.485600	0.117900
C981	C98	0.594100	0.345000	0.110700
C991	C99	0.497600	0.430400	0.044800
C1001	C100	0.776700	0.511800	0.874000
C1011	C101	0.796200	0.586600	0.913500
C1021	C102	0.762000	0.603200	0.982900
C1031	C103	0.785300	0.668800	0.019000
C1041	C104	0.843300	0.718400	0.989200
C1051	C105	0.876800	0.705300	0.919000
C1061	C106	0.853600	0.637900	0.882400
C1071	C107	0.939500	0.760500	0.886800
C1081	C108	0.497100	0.121000	0.238600
C1091	C109	0.579900	0.080500	0.241900
C1101	C110	0.584600	0.002300	0.256600
C1111	C111	0.661200	0.965800	0.257200
C1121	C112	0.733000	0.010200	0.246700
C1131	C113	0.729800	0.089900	0.235800
C1141	C114	0.651100	0.124400	0.231800
C1151	C115	0.807600	0.136000	0.227300
C1161	C116	0.919600	0.728900	0.339600
C1171	C117	0.005400	0.758700	0.356000
C1181	C118	0.052000	0.791800	0.301100
C1191	C119	0.129300	0.823700	0.314100
C1201	C120	0.159500	0.821600	0.385900
C1211	C121	0.113800	0.787900	0.442900
C1221	C122	0.037000	0.756000	0.428000
C1231	C123	0.179200	0.858800	0.251000
C1241	C124	0.669500	0.878600	0.267300
C1251	C125	0.754800	0.683200	0.096700
C1261	C126	0.146300	0.789700	0.521000
C1271	C127	0.653000	0.459400	0.658900
C1281	C128	0.555300	0.480400	0.560400
C1291	C129	0.531100	0.376800	0.651000
C1301	C130	0.891000	0.514400	0.617900
C1311	C131	0.905900	0.655000	0.610700
C1321	C132	0.002400	0.569600	0.544800
N11	N1	0.430700	0.924000	0.408000
N21	N2	0.082900	0.059000	0.374700
N31	N3	0.069300	0.076000	0.908000
N41	N4	0.417100	0.941000	0.874700
N51	N5	0.569300	0.424000	0.092000
N61	N6	0.917100	0.559000	0.125300
N71	N7	0.930700	0.576000	0.592000
N81	N8	0.582900	0.441000	0.625300
O11	O1	0.223400	0.032700	0.097400
O21	O2	0.315400	0.002200	0.184700
O31	O3	0.938600	0.411900	0.729900
O41	O4	0.994300	0.316200	0.796600
O51	O5	0.384000	0.811700	0.611400
O61	O6	0.390500	0.751000	0.721100
O71	O7	0.107600	0.659100	0.711800
O81	O8	0.238800	0.649100	0.746900
O91	O9	0.293700	0.764100	0.867200
O101	O10	0.198200	0.856600	0.877800
O111	O11	0.600000	0.737700	0.429700
O121	O12	0.716700	0.681500	0.469700
O131	O13	0.209700	0.825500	0.705800
O141	O14	0.180900	0.072300	0.283800
O151	O15	0.330700	0.983100	0.340400
O161	O16	0.276600	0.967300	0.597400
O171	O17	0.184600	0.997800	0.684700
O181	O18	0.561400	0.588100	0.229900
O191	O19	0.505700	0.683800	0.296600
O201	O20	0.116000	0.188300	0.111400
O211	O21	0.109500	0.249000	0.221100
O221	O22	0.392400	0.340900	0.211800
O231	O23	0.261200	0.350900	0.246900
O241	O24	0.206300	0.235900	0.367200
O251	O25	0.301800	0.143400	0.377800
O261	O26	0.900000	0.262300	0.929700
O271	O27	0.783300	0.318500	0.969700
O281	O28	0.290300	0.174500	0.205800
O291	O29	0.319100	0.927700	0.783800
O301	O30	0.169300	0.016900	0.840400
O311	O31	0.776600	0.532700	0.402600
O321	O32	0.684600	0.502200	0.315300
O331	O33	0.061400	0.911900	0.770100
O341	O34	0.005700	0.816200	0.703400
O351	O35	0.616000	0.311700	0.888600
O361	O36	0.609500	0.251000	0.778900
O371	O37	0.892400	0.159100	0.788200
O381	O38	0.761200	0.149100	0.753100
O391	O39	0.706300	0.264100	0.632800
O401	O40	0.801800	0.356600	0.622200
O411	O41	0.400000	0.237700	0.070300
O421	O42	0.283300	0.181500	0.030300
O431	O43	0.790300	0.325500	0.794200
O441	O44	0.819100	0.572300	0.216200
O451	O45	0.669300	0.483100	0.159600
O461	O46	0.723400	0.467300	0.902600
O471	O47	0.815400	0.497800	0.815300
O481	O48	0.438600	0.088100	0.270100
O491	O49	0.494300	0.183800	0.203400
O501	O50	0.884000	0.688300	0.388600
O511	O51	0.890500	0.749000	0.278900
O521	O52	0.607600	0.840900	0.288200
O531	O53	0.738800	0.850900	0.253100
O541	O54	0.793700	0.735900	0.132800
O551	O55	0.698200	0.643400	0.122200
O561	O56	0.100000	0.762300	0.570300
O571	O57	0.216700	0.818500	0.530300
O581	O58	0.709700	0.674500	0.294200
O591	O59	0.680900	0.427700	0.716200
O601	O60	0.830700	0.516900	0.659600
