data_QOSJEP_freeONLY_PM
_symmetry_space_group_name_H-M	'P1'
_cell_length_a	10.632000
_cell_length_b	13.862000
_cell_length_c	19.498000
_cell_angle_alpha	90.000000
_cell_angle_beta	99.980000
_cell_angle_gamma	90.000000
_symmetry_Int_Tables_number 1

loop_
_symmetry_equiv_pos_as_xyz
'x,y,z'

loop_
_atom_site_label
_atom_site_type_symbol
_atom_site_fract_x
_atom_site_fract_y
_atom_site_fract_z
O11	O1	0.784000	0.423600	0.878660
Er11	Er1	0.155020	0.067080	0.555910
Cu11	Cu1	0.756570	0.067900	0.789420
N11	N1	0.871000	0.179800	0.779600
C11	C1	0.848900	0.260700	0.812400
H11	H1	0.783900	0.260500	0.838800
O21	O2	0.942500	0.508300	0.848910
C21	C2	0.917100	0.344700	0.809300
N21	N2	0.358300	0.455300	0.706000
O31	O3	0.195900	0.439100	0.823970
C31	C3	0.018100	0.344600	0.772100
O41	O4	0.100700	0.476100	0.715870
C41	C4	0.039600	0.261100	0.737500
H21	H2	0.104900	0.259200	0.711300
O51	O5	0.286700	0.132900	0.659120
C51	C5	0.964800	0.180300	0.741300
H31	H3	0.979600	0.125100	0.716700
C61	C6	0.879600	0.431300	0.847500
O61	O6	0.269900	0.222800	0.564100
C71	C7	0.110900	0.427700	0.772400
O71	O7	0.611600	0.158400	0.781350
C81	C8	0.315000	0.379000	0.666900
H41	H4	0.239400	0.385700	0.635100
O81	O8	0.586200	0.152600	0.665000
O91	O9	0.920300	0.061000	0.518630
C91	C9	0.375900	0.291500	0.671000
O101	O10	0.002900	0.191300	0.570950
C101	C10	0.490800	0.281300	0.716600
C111	C11	0.538800	0.360600	0.755900
H51	H5	0.616500	0.356400	0.786100
O111	O11	0.795200	0.084300	0.905800
H61	H6	0.762000	0.064000	0.940000
H71	H7	0.864000	0.107000	0.929000
C121	C12	0.470500	0.445600	0.750000
H81	H8	0.502800	0.498100	0.777300
O121	O12	0.352900	0.028000	0.529800
H91	H9	0.413000	0.994000	0.552000
H101	H10	0.378000	0.053000	0.495000
O131	O13	0.133500	0.133900	0.445500
H111	H11	0.165000	0.112000	0.412000
H121	H12	0.139000	0.194500	0.442000
C131	C13	0.567900	0.188800	0.719100
C141	C14	0.308600	0.209900	0.628000
C151	C15	0.773900	0.186200	0.538000
H131	H13	0.739800	0.201700	0.490400
H141	H14	0.777900	0.243600	0.565800
H151	H15	0.719700	0.139700	0.554900
C161	C16	0.905100	0.145100	0.542400
O141	O14	0.216000	0.923600	0.621340
Er21	Er2	0.844980	0.567080	0.944090
Cu21	Cu2	0.243430	0.567900	0.710580
N31	N3	0.129000	0.679800	0.720400
C171	C17	0.151100	0.760700	0.687600
H161	H16	0.216100	0.760500	0.661200
O151	O15	0.057500	0.008300	0.651090
C181	C18	0.082900	0.844700	0.690700
N41	N4	0.641700	0.955300	0.794000
O161	O16	0.804100	0.939100	0.676030
C191	C19	0.981900	0.844600	0.727900
O171	O17	0.899300	0.976100	0.784130
C201	C20	0.960400	0.761100	0.762500
H171	H17	0.895100	0.759200	0.788700
O181	O18	0.713300	0.632900	0.840880
C211	C21	0.035200	0.680300	0.758700
H181	H18	0.020400	0.625100	0.783300
C221	C22	0.120400	0.931300	0.652500
O191	O19	0.730100	0.722800	0.935900
C231	C23	0.889100	0.927700	0.727600
O201	O20	0.388400	0.658400	0.718650
C241	C24	0.685000	0.879000	0.833100
H191	H19	0.760600	0.885700	0.864900
O211	O21	0.413800	0.652600	0.835000
O221	O22	0.079700	0.561000	0.981370
C251	C25	0.624100	0.791500	0.829000
O231	O23	0.997100	0.691300	0.929050
C261	C26	0.509200	0.781300	0.783400
C271	C27	0.461200	0.860600	0.744100
H201	H20	0.383500	0.856400	0.713900
O241	O24	0.204800	0.584300	0.594200
H211	H21	0.238000	0.564000	0.560000
H221	H22	0.136000	0.607000	0.571000
C281	C28	0.529500	0.945600	0.750000
H231	H23	0.497200	0.998100	0.722700
O251	O25	0.647100	0.528000	0.970200
H241	H24	0.587000	0.494000	0.948000
H251	H25	0.622000	0.553000	0.005000
O261	O26	0.866500	0.633900	0.054500
H261	H26	0.835000	0.612000	0.088000
H271	H27	0.861000	0.694500	0.058000
C291	C29	0.432100	0.688800	0.780900
C301	C30	0.691400	0.709900	0.872000
C311	C31	0.226100	0.686200	0.962000
H281	H28	0.260200	0.701700	0.009600
H291	H29	0.222100	0.743600	0.934200
H301	H30	0.280300	0.639700	0.945100
C321	C32	0.094900	0.645100	0.957600
O271	O27	0.216000	0.576400	0.121340
Er31	Er3	0.844980	0.932920	0.444090
Cu31	Cu3	0.243430	0.932100	0.210580
N51	N5	0.129000	0.820200	0.220400
C331	C33	0.151100	0.739300	0.187600
H311	H31	0.216100	0.739500	0.161200
O281	O28	0.057500	0.491700	0.151090
C341	C34	0.082900	0.655300	0.190700
N61	N6	0.641700	0.544700	0.294000
O291	O29	0.804100	0.560900	0.176030
C351	C35	0.981900	0.655400	0.227900
O301	O30	0.899300	0.523900	0.284130
C361	C36	0.960400	0.738900	0.262500
H321	H32	0.895100	0.740800	0.288700
O311	O31	0.713300	0.867100	0.340880
C371	C37	0.035200	0.819700	0.258700
H331	H33	0.020400	0.874900	0.283300
C381	C38	0.120400	0.568700	0.152500
O321	O32	0.730100	0.777200	0.435900
C391	C39	0.889100	0.572300	0.227600
O331	O33	0.388400	0.841600	0.218650
C401	C40	0.685000	0.621000	0.333100
H341	H34	0.760600	0.614300	0.364900
O341	O34	0.413800	0.847400	0.335000
O351	O35	0.079700	0.939000	0.481370
C411	C41	0.624100	0.708500	0.329000
O361	O36	0.997100	0.808700	0.429050
C421	C42	0.509200	0.718700	0.283400
C431	C43	0.461200	0.639400	0.244100
H351	H35	0.383500	0.643600	0.213900
O371	O37	0.204800	0.915700	0.094200
H361	H36	0.238000	0.936000	0.060000
H371	H37	0.136000	0.893000	0.071000
C441	C44	0.529500	0.554400	0.250000
H381	H38	0.497200	0.501900	0.222700
O381	O38	0.647100	0.972000	0.470200
H391	H39	0.587000	0.006000	0.448000
H401	H40	0.622000	0.947000	0.505000
O391	O39	0.866500	0.866100	0.554500
H411	H41	0.835000	0.888000	0.588000
H421	H42	0.861000	0.805500	0.558000
C451	C45	0.432100	0.811200	0.280900
C461	C46	0.691400	0.790100	0.372000
C471	C47	0.226100	0.813800	0.462000
H431	H43	0.260200	0.798300	0.509600
H441	H44	0.222100	0.756400	0.434200
H451	H45	0.280300	0.860300	0.445100
C481	C48	0.094900	0.854900	0.457600
O401	O40	0.784000	0.076400	0.378660
Er41	Er4	0.155020	0.432920	0.055910
Cu41	Cu4	0.756570	0.432100	0.289420
N71	N7	0.871000	0.320200	0.279600
C491	C49	0.848900	0.239300	0.312400
H461	H46	0.783900	0.239500	0.338800
O411	O41	0.942500	0.991700	0.348910
C501	C50	0.917100	0.155300	0.309300
N81	N8	0.358300	0.044700	0.206000
O421	O42	0.195900	0.060900	0.323970
C511	C51	0.018100	0.155400	0.272100
O431	O43	0.100700	0.023900	0.215870
C521	C52	0.039600	0.238900	0.237500
H471	H47	0.104900	0.240800	0.211300
O441	O44	0.286700	0.367100	0.159120
C531	C53	0.964800	0.319700	0.241300
H481	H48	0.979600	0.374900	0.216700
C541	C54	0.879600	0.068700	0.347500
O451	O45	0.269900	0.277200	0.064100
C551	C55	0.110900	0.072300	0.272400
O461	O46	0.611600	0.341600	0.281350
C561	C56	0.315000	0.121000	0.166900
H491	H49	0.239400	0.114300	0.135100
O471	O47	0.586200	0.347400	0.165000
O481	O48	0.920300	0.439000	0.018630
C571	C57	0.375900	0.208500	0.171000
O491	O49	0.002900	0.308700	0.070950
C581	C58	0.490800	0.218700	0.216600
C591	C59	0.538800	0.139400	0.255900
H501	H50	0.616500	0.143600	0.286100
O501	O50	0.795200	0.415700	0.405800
H511	H51	0.762000	0.436000	0.440000
H521	H52	0.864000	0.393000	0.429000
C601	C60	0.470500	0.054400	0.250000
H531	H53	0.502800	0.001900	0.277300
O511	O51	0.352900	0.472000	0.029800
H541	H54	0.413000	0.506000	0.052000
H551	H55	0.378000	0.447000	0.995000
O521	O52	0.133500	0.366100	0.945500
H561	H56	0.165000	0.388000	0.912000
H571	H57	0.139000	0.305500	0.942000
C611	C61	0.567900	0.311200	0.219100
C621	C62	0.308600	0.290100	0.128000
C631	C63	0.773900	0.313800	0.038000
H581	H58	0.739800	0.298300	0.990400
H591	H59	0.777900	0.256400	0.065800
H601	H60	0.719700	0.360300	0.054900
C641	C64	0.905100	0.354900	0.042400
