data_QOVDAH_freeONLY_PM
_symmetry_space_group_name_H-M	'P1'
_cell_length_a	27.834200
_cell_length_b	27.834200
_cell_length_c	6.242100
_cell_angle_alpha	90.000000
_cell_angle_beta	90.000000
_cell_angle_gamma	120.000000
_symmetry_Int_Tables_number 1

loop_
_symmetry_equiv_pos_as_xyz
'x,y,z'

loop_
_atom_site_label
_atom_site_type_symbol
_atom_site_fract_x
_atom_site_fract_y
_atom_site_fract_z
Ni11	Ni1	0.303460	0.027060	0.719210
P11	P1	0.294020	0.050950	0.237500
O11	O1	0.240670	0.050630	0.183100
O21	O2	0.223060	0.005890	0.779800
O31	O3	0.323940	0.045780	0.049600
N11	N1	0.324910	0.111250	0.623000
C11	C1	0.278100	0.119800	0.645000
O41	O4	0.282760	0.002620	0.397900
C21	C2	0.377430	0.157300	0.744900
C31	C3	0.346700	0.117000	0.394900
Ni21	Ni2	0.970130	0.360390	0.052540
P21	P2	0.960690	0.384280	0.570830
O51	O5	0.907340	0.383960	0.516430
O61	O6	0.889730	0.339220	0.113130
O71	O7	0.990610	0.379110	0.382930
N21	N2	0.991580	0.444580	0.956330
C41	C4	0.944770	0.453130	0.978330
O81	O8	0.949430	0.335950	0.731230
C51	C5	0.044100	0.490630	0.078230
C61	C6	0.013370	0.450330	0.728230
Ni31	Ni3	0.636790	0.693730	0.385880
P31	P3	0.627350	0.717620	0.904170
O91	O9	0.574000	0.717300	0.849770
O101	O10	0.556390	0.672560	0.446470
O111	O11	0.657270	0.712450	0.716270
N31	N3	0.658240	0.777920	0.289670
C71	C7	0.611430	0.786470	0.311670
O121	O12	0.616090	0.669290	0.064570
C81	C8	0.710760	0.823970	0.411570
C91	C9	0.680030	0.783670	0.061570
Ni41	Ni4	0.972940	0.276400	0.719210
P41	P4	0.949050	0.243070	0.237500
O131	O13	0.949370	0.190040	0.183100
O141	O14	0.994110	0.217170	0.779800
O151	O15	0.954220	0.278160	0.049600
N41	N4	0.888750	0.213660	0.623000
C101	C10	0.880200	0.158300	0.645000
O161	O16	0.997380	0.280140	0.397900
C111	C11	0.842700	0.220130	0.744900
C121	C12	0.883000	0.229700	0.394900
Ni51	Ni5	0.639610	0.609730	0.052540
P51	P5	0.615720	0.576400	0.570830
O171	O17	0.616040	0.523370	0.516430
O181	O18	0.660780	0.550500	0.113130
O191	O19	0.620890	0.611490	0.382930
N51	N5	0.555420	0.546990	0.956330
C131	C13	0.546870	0.491630	0.978330
O201	O20	0.664050	0.613470	0.731230
C141	C14	0.509370	0.553460	0.078230
C151	C15	0.549670	0.563030	0.728230
Ni61	Ni6	0.306270	0.943070	0.385880
P61	P6	0.282380	0.909740	0.904170
O211	O21	0.282700	0.856710	0.849770
O221	O22	0.327440	0.883840	0.446470
O231	O23	0.287550	0.944830	0.716270
N61	N6	0.222080	0.880330	0.289670
C161	C16	0.213530	0.824970	0.311670
O241	O24	0.330710	0.946810	0.064570
C171	C17	0.176030	0.886800	0.411570
C181	C18	0.216330	0.896370	0.061570
Ni71	Ni7	0.723600	0.696540	0.719210
P71	P7	0.756930	0.705980	0.237500
O251	O25	0.809960	0.759330	0.183100
O261	O26	0.782830	0.776940	0.779800
O271	O27	0.721840	0.676060	0.049600
N71	N7	0.786340	0.675090	0.623000
C191	C19	0.841700	0.721900	0.645000
O281	O28	0.719860	0.717240	0.397900
C201	C20	0.779870	0.622570	0.744900
C211	C21	0.770300	0.653300	0.394900
Ni81	Ni8	0.390270	0.029870	0.052540
P81	P8	0.423600	0.039310	0.570830
O291	O29	0.476630	0.092660	0.516430
O301	O30	0.449500	0.110270	0.113130
O311	O31	0.388510	0.009390	0.382930
N81	N8	0.453010	0.008420	0.956330
C221	C22	0.508370	0.055230	0.978330
O321	O32	0.386530	0.050570	0.731230
C231	C23	0.446540	0.955900	0.078230
C241	C24	0.436970	0.986630	0.728230
Ni91	Ni9	0.056930	0.363210	0.385880
P91	P9	0.090260	0.372650	0.904170
O331	O33	0.143290	0.426000	0.849770
O341	O34	0.116160	0.443610	0.446470
O351	O35	0.055170	0.342730	0.716270
N91	N9	0.119670	0.341760	0.289670
C251	C25	0.175030	0.388570	0.311670
O361	O36	0.053190	0.383910	0.064570
C261	C26	0.113200	0.289240	0.411570
C271	C27	0.103630	0.319970	0.061570
Ni101	Ni10	0.696540	0.972940	0.280790
P101	P10	0.705980	0.949050	0.762500
O371	O37	0.759330	0.949370	0.816900
O381	O38	0.776940	0.994110	0.220200
O391	O39	0.676060	0.954220	0.950400
N101	N10	0.675090	0.888750	0.377000
C281	C28	0.721900	0.880200	0.355000
O401	O40	0.717240	0.997380	0.602100
C291	C29	0.622570	0.842700	0.255100
C301	C30	0.653300	0.883000	0.605100
Ni111	Ni11	0.363210	0.306270	0.614120
P111	P11	0.372650	0.282380	0.095830
O411	O41	0.426000	0.282700	0.150230
O421	O42	0.443610	0.327440	0.553530
O431	O43	0.342730	0.287550	0.283730
N111	N11	0.341760	0.222080	0.710330
C311	C31	0.388570	0.213530	0.688330
O441	O44	0.383910	0.330710	0.935430
C321	C32	0.289240	0.176030	0.588430
C331	C33	0.319970	0.216330	0.938430
Ni121	Ni12	0.029870	0.639610	0.947460
P121	P12	0.039310	0.615720	0.429170
O451	O45	0.092660	0.616040	0.483570
O461	O46	0.110270	0.660780	0.886870
O471	O47	0.009390	0.620890	0.617070
N121	N12	0.008420	0.555420	0.043670
C341	C34	0.055230	0.546870	0.021670
O481	O48	0.050570	0.664050	0.268770
C351	C35	0.955900	0.509370	0.921770
C361	C36	0.986630	0.549670	0.271770
Ni131	Ni13	0.027060	0.723600	0.280790
P131	P13	0.050950	0.756930	0.762500
O491	O49	0.050630	0.809960	0.816900
O501	O50	0.005890	0.782830	0.220200
O511	O51	0.045780	0.721840	0.950400
N131	N13	0.111250	0.786340	0.377000
C371	C37	0.119800	0.841700	0.355000
O521	O52	0.002620	0.719860	0.602100
C381	C38	0.157300	0.779870	0.255100
C391	C39	0.117000	0.770300	0.605100
Ni141	Ni14	0.693730	0.056930	0.614120
P141	P14	0.717620	0.090260	0.095830
O531	O53	0.717300	0.143290	0.150230
O541	O54	0.672560	0.116160	0.553530
O551	O55	0.712450	0.055170	0.283730
N141	N14	0.777920	0.119670	0.710330
C401	C40	0.786470	0.175030	0.688330
O561	O56	0.669290	0.053190	0.935430
C411	C41	0.823970	0.113200	0.588430
C421	C42	0.783670	0.103630	0.938430
Ni151	Ni15	0.360390	0.390270	0.947460
P151	P15	0.384280	0.423600	0.429170
O571	O57	0.383960	0.476630	0.483570
O581	O58	0.339220	0.449500	0.886870
O591	O59	0.379110	0.388510	0.617070
N151	N15	0.444580	0.453010	0.043670
C431	C43	0.453130	0.508370	0.021670
O601	O60	0.335950	0.386530	0.268770
C441	C44	0.490630	0.446540	0.921770
C451	C45	0.450330	0.436970	0.271770
Ni161	Ni16	0.276400	0.303460	0.280790
P161	P16	0.243070	0.294020	0.762500
O611	O61	0.190040	0.240670	0.816900
O621	O62	0.217170	0.223060	0.220200
O631	O63	0.278160	0.323940	0.950400
N161	N16	0.213660	0.324910	0.377000
C461	C46	0.158300	0.278100	0.355000
O641	O64	0.280140	0.282760	0.602100
C471	C47	0.220130	0.377430	0.255100
C481	C48	0.229700	0.346700	0.605100
Ni171	Ni17	0.943070	0.636790	0.614120
P171	P17	0.909740	0.627350	0.095830
O651	O65	0.856710	0.574000	0.150230
O661	O66	0.883840	0.556390	0.553530
O671	O67	0.944830	0.657270	0.283730
N171	N17	0.880330	0.658240	0.710330
C491	C49	0.824970	0.611430	0.688330
O681	O68	0.946810	0.616090	0.935430
C501	C50	0.886800	0.710760	0.588430
C511	C51	0.896370	0.680030	0.938430
Ni181	Ni18	0.609730	0.970130	0.947460
P181	P18	0.576400	0.960690	0.429170
O691	O69	0.523370	0.907340	0.483570
O701	O70	0.550500	0.889730	0.886870
O711	O71	0.611490	0.990610	0.617070
N181	N18	0.546990	0.991580	0.043670
C521	C52	0.491630	0.944770	0.021670
O721	O72	0.613470	0.949430	0.268770
C531	C53	0.553460	0.044100	0.921770
C541	C54	0.563030	0.013370	0.271770
